EPH_relaxed_0001_pdb2pqr_Repair_269_r2_0001_out
     RDKit          3D

 82 86  0  0  0  0  0  0  0  0999 V2000
   -1.7160    8.5880   -1.8740 C   0  0  0  0  0  0  0  0  0  0  0  0
   -2.0970    9.1080   -0.4850 C   0  0  2  0  0  0  0  0  0  0  0  0
   -3.5920    9.4740   -0.3920 C   0  0  0  0  0  0  0  0  0  0  0  0
   -4.5140    8.2620   -0.2310 C   0  0  0  0  0  0  0  0  0  0  0  0
   -5.2130    7.9230   -1.5120 C   0  0  2  0  0  0  0  0  0  0  0  0
   -6.3520    8.7410   -1.8070 O   0  0  0  0  0  0  0  0  0  0  0  0
   -6.6150    7.3480   -1.5740 C   0  0  0  0  0  0  0  0  0  0  0  0
   -7.4030    7.0770   -0.3300 C   0  0  0  0  0  0  0  0  0  0  0  0
   -7.0280    6.5980   -2.8020 C   0  0  0  0  0  0  0  0  0  0  0  0
   -1.2410   10.3180   -0.1310 C   0  0  1  0  0  0  0  0  0  0  0  0
   -0.2180   10.0170    0.9970 C   0  0  0  0  0  0  0  0  0  0  0  0
    1.0540   10.8440    0.6790 C   0  0  0  0  0  0  0  0  0  0  0  0
    0.6090   11.8380   -0.4200 C   0  0  1  0  0  0  0  0  0  0  0  0
   -0.1040   12.9940    0.3490 C   0  0  0  0  0  0  0  0  0  0  0  0
    1.7360   12.3780   -1.3590 C   0  0  2  0  0  0  0  0  0  0  0  0
    2.8330   13.1970   -0.6580 C   0  0  0  0  0  0  0  0  0  0  0  0
    2.5810   14.6670   -0.5810 C   0  0  0  0  0  0  0  0  0  0  0  0
    1.6630   15.3420   -1.2980 C   0  0  0  0  0  0  0  0  0  0  0  0
    0.8270   14.6340   -2.3720 C   0  0  1  0  0  0  0  0  0  0  0  0
    0.8090   15.4930   -3.6630 C   0  0  0  0  0  0  0  0  0  0  0  0
    0.3420   16.9230   -3.4080 C   0  0  0  0  0  0  0  0  0  0  0  0
    1.2340   17.6120   -2.3780 C   0  0  2  0  0  0  0  0  0  0  0  0
    2.5400   17.7810   -2.9380 O   0  0  0  0  0  0  0  0  0  0  0  0
    1.3360   16.8330   -1.0370 C   0  0  0  0  0  0  0  0  0  0  0  0
   -0.0150   16.9100   -0.2860 C   0  0  0  0  0  0  0  0  0  0  0  0
    2.3740   17.5600   -0.1410 C   0  0  0  0  0  0  0  0  0  0  0  0
    1.2010   13.1160   -2.6540 C   0  0  1  0  0  0  0  0  0  0  0  0
    2.3420   13.0370   -3.7140 C   0  0  0  0  0  0  0  0  0  0  0  0
   -0.0430   12.3880   -3.2860 C   0  0  0  0  0  0  0  0  0  0  0  0
   -1.0590   11.7710   -2.3070 C   0  0  0  0  0  0  0  0  0  0  0  0
   -0.3530   10.9140   -1.2520 C   0  0  2  0  0  0  0  0  0  0  0  0
    0.3550    9.7290   -1.9940 C   0  0  0  0  0  0  0  0  0  0  0  0
   -1.0688    7.7047   -1.7700 H   0  0  0  0  0  0  0  0  0  0  0  0
   -2.6273    8.3121   -2.4249 H   0  0  0  0  0  0  0  0  0  0  0  0
   -1.1783    9.3737   -2.4249 H   0  0  0  0  0  0  0  0  0  0  0  0
   -1.9107    8.2974    0.2349 H   0  0  0  0  0  0  0  0  0  0  0  0
   -3.7341   10.1360    0.4750 H   0  0  0  0  0  0  0  0  0  0  0  0
   -3.8633    9.9603   -1.3406 H   0  0  0  0  0  0  0  0  0  0  0  0
   -3.9134    7.3970    0.0870 H   0  0  0  0  0  0  0  0  0  0  0  0
   -5.2776    8.5098    0.5210 H   0  0  0  0  0  0  0  0  0  0  0  0
   -4.2653    7.6068   -1.9722 H   0  0  0  0  0  0  0  0  0  0  0  0
   -6.7812    7.2909    0.5518 H   0  0  0  0  0  0  0  0  0  0  0  0
   -8.2955    7.7198   -0.3139 H   0  0  0  0  0  0  0  0  0  0  0  0
   -7.7113    6.0212   -0.3139 H   0  0  0  0  0  0  0  0  0  0  0  0
   -7.5395    5.6691   -2.5096 H   0  0  0  0  0  0  0  0  0  0  0  0
   -7.7107    7.2201   -3.3994 H   0  0  0  0  0  0  0  0  0  0  0  0
   -6.1372    6.3537   -3.3994 H   0  0  0  0  0  0  0  0  0  0  0  0
   -2.0335   11.0311    0.1399 H   0  0  0  0  0  0  0  0  0  0  0  0
   -0.6303   10.3159    1.9720 H   0  0  0  0  0  0  0  0  0  0  0  0
    0.0114    8.9423    1.0459 H   0  0  0  0  0  0  0  0  0  0  0  0
    1.4002   11.3832    1.5731 H   0  0  0  0  0  0  0  0  0  0  0  0
    1.8926   10.2108    0.3538 H   0  0  0  0  0  0  0  0  0  0  0  0
   -0.0033   12.8307    1.4321 H   0  0  0  0  0  0  0  0  0  0  0  0
    0.3588   13.9545    0.0784 H   0  0  0  0  0  0  0  0  0  0  0  0
   -1.1701   13.0115    0.0784 H   0  0  0  0  0  0  0  0  0  0  0  0
    2.2256   11.4528   -1.6972 H   0  0  0  0  0  0  0  0  0  0  0  0
    2.9380   12.8160    0.3685 H   0  0  0  0  0  0  0  0  0  0  0  0
    3.7402   13.0754   -1.2681 H   0  0  0  0  0  0  0  0  0  0  0  0
    3.1977   15.2474    0.1210 H   0  0  0  0  0  0  0  0  0  0  0  0
   -0.1906   14.5548   -1.9617 H   0  0  0  0  0  0  0  0  0  0  0  0
    1.8263   15.5234   -4.0805 H   0  0  0  0  0  0  0  0  0  0  0  0
    0.0979   15.0294   -4.3626 H   0  0  0  0  0  0  0  0  0  0  0  0
    0.3788   17.4875   -4.3514 H   0  0  0  0  0  0  0  0  0  0  0  0
   -0.6862   16.8927   -3.0183 H   0  0  0  0  0  0  0  0  0  0  0  0
    0.7752   18.5834   -2.1416 H   0  0  0  0  0  0  0  0  0  0  0  0
    3.1330   18.0620   -2.2210 H   0  0  0  0  0  0  0  0  0  0  0  0
    0.1674   16.8996    0.7987 H   0  0  0  0  0  0  0  0  0  0  0  0
   -0.5352   17.8393   -0.5615 H   0  0  0  0  0  0  0  0  0  0  0  0
   -0.6374   16.0459   -0.5615 H   0  0  0  0  0  0  0  0  0  0  0  0
    2.1288   17.3883    0.9175 H   0  0  0  0  0  0  0  0  0  0  0  0
    3.3797   17.1678   -0.3527 H   0  0  0  0  0  0  0  0  0  0  0  0
    2.3492   18.6391   -0.3527 H   0  0  0  0  0  0  0  0  0  0  0  0
    3.3136   12.9697   -3.2026 H   0  0  0  0  0  0  0  0  0  0  0  0
    2.1966   12.1468   -4.3436 H   0  0  0  0  0  0  0  0  0  0  0  0
    2.3207   13.9388   -4.3436 H   0  0  0  0  0  0  0  0  0  0  0  0
   -0.5802   13.1230   -3.9034 H   0  0  0  0  0  0  0  0  0  0  0  0
    0.3747   11.5356   -3.8418 H   0  0  0  0  0  0  0  0  0  0  0  0
   -1.6104   12.5790   -1.8040 H   0  0  0  0  0  0  0  0  0  0  0  0
   -1.7488   11.1298   -2.8753 H   0  0  0  0  0  0  0  0  0  0  0  0
    0.7725    9.0302   -1.2541 H   0  0  0  0  0  0  0  0  0  0  0  0
   -0.3763    9.2019   -2.6243 H   0  0  0  0  0  0  0  0  0  0  0  0
    1.1657   10.1232   -2.6243 H   0  0  0  0  0  0  0  0  0  0  0  0
  1  2  1  0
  2  3  1  0
  3  4  1  0
  4  5  1  0
  5  6  1  0
  6  7  1  0
  7  8  1  0
  7  9  1  0
  2 10  1  0
 10 11  1  0
 11 12  1  0
 12 13  1  0
 13 14  1  1
 13 15  1  0
 15 16  1  0
 16 17  1  0
 17 18  2  0
 18 19  1  0
 19 20  1  0
 20 21  1  0
 21 22  1  0
 22 23  1  0
 22 24  1  0
 24 25  1  0
 24 26  1  0
 19 27  1  0
 27 28  1  6
 27 29  1  0
 29 30  1  0
 30 31  1  0
 31 32  1  6
  7  5  1  0
 31 10  1  0
 31 13  1  0
 27 15  1  0
 24 18  1  0
  1 33  1  0
  1 34  1  0
  1 35  1  0
  2 36  1  1
  3 37  1  0
  3 38  1  0
  4 39  1  0
  4 40  1  0
  5 41  1  6
  8 42  1  0
  8 43  1  0
  8 44  1  0
  9 45  1  0
  9 46  1  0
  9 47  1  0
 10 48  1  1
 11 49  1  0
 11 50  1  0
 12 51  1  0
 12 52  1  0
 14 53  1  0
 14 54  1  0
 14 55  1  0
 15 56  1  6
 16 57  1  0
 16 58  1  0
 17 59  1  0
 19 60  1  1
 20 61  1  0
 20 62  1  0
 21 63  1  0
 21 64  1  0
 22 65  1  1
 23 66  1  0
 25 67  1  0
 25 68  1  0
 25 69  1  0
 26 70  1  0
 26 71  1  0
 26 72  1  0
 28 73  1  0
 28 74  1  0
 28 75  1  0
 29 76  1  0
 29 77  1  0
 30 78  1  0
 30 79  1  0
 32 80  1  0
 32 81  1  0
 32 82  1  0
M  END
>  <meeko>  (1) 
{"is_sidechain": [false], "intermolecular_energy": 2.731, "internal_energy": -0.839}

$$$$
EPH_relaxed_0001_pdb2pqr_Repair_269_r2_0001_out
     RDKit          3D

 82 86  0  0  0  0  0  0  0  0999 V2000
    1.9550   19.6680   -0.5980 C   0  0  0  0  0  0  0  0  0  0  0  0
    2.3560   18.4440    0.2300 C   0  0  2  0  0  0  0  0  0  0  0  0
    3.8110   18.0120   -0.0400 C   0  0  0  0  0  0  0  0  0  0  0  0
    4.7370   18.1800    1.1680 C   0  0  0  0  0  0  0  0  0  0  0  0
    4.0980   19.0010    2.2470 C   0  0  2  0  0  0  0  0  0  0  0  0
    4.8520   20.1520    2.6480 O   0  0  0  0  0  0  0  0  0  0  0  0
    4.6690   19.1340    3.6460 C   0  0  0  0  0  0  0  0  0  0  0  0
    5.9330   18.4380    4.0420 C   0  0  0  0  0  0  0  0  0  0  0  0
    3.7520   19.5380    4.7580 C   0  0  0  0  0  0  0  0  0  0  0  0
    1.4060   17.2880   -0.0580 C   0  0  1  0  0  0  0  0  0  0  0  0
    0.1410   17.7340   -0.8380 C   0  0  0  0  0  0  0  0  0  0  0  0
   -0.2330   16.5680   -1.7890 C   0  0  0  0  0  0  0  0  0  0  0  0
    0.6160   15.3740   -1.2950 C   0  0  1  0  0  0  0  0  0  0  0  0
   -0.1710   14.7990   -0.0760 C   0  0  0  0  0  0  0  0  0  0  0  0
    0.9330   14.2670   -2.3530 C   0  0  2  0  0  0  0  0  0  0  0  0
   -0.2960   13.5320   -2.9160 C   0  0  0  0  0  0  0  0  0  0  0  0
   -0.7050   12.3070   -2.1680 C   0  0  0  0  0  0  0  0  0  0  0  0
    0.0490   11.6540   -1.2640 C   0  0  0  0  0  0  0  0  0  0  0  0
    1.4950   12.0860   -0.9860 C   0  0  1  0  0  0  0  0  0  0  0  0
    2.4150   10.8370   -0.9710 C   0  0  0  0  0  0  0  0  0  0  0  0
    1.9290    9.7640   -0.0010 C   0  0  0  0  0  0  0  0  0  0  0  0
    0.5100    9.3190   -0.3460 C   0  0  2  0  0  0  0  0  0  0  0  0
    0.5320    8.6440   -1.6070 O   0  0  0  0  0  0  0  0  0  0  0  0
   -0.5050   10.4950   -0.4000 C   0  0  0  0  0  0  0  0  0  0  0  0
   -0.7550   11.0330    1.0310 C   0  0  0  0  0  0  0  0  0  0  0  0
   -1.8640    9.9310   -0.8950 C   0  0  0  0  0  0  0  0  0  0  0  0
    2.0610   13.2500   -1.9090 C   0  0  1  0  0  0  0  0  0  0  0  0
    2.6580   12.6480   -3.2170 C   0  0  0  0  0  0  0  0  0  0  0  0
    3.2510   13.9630   -1.1640 C   0  0  0  0  0  0  0  0  0  0  0  0
    2.8840   15.1280   -0.2250 C   0  0  0  0  0  0  0  0  0  0  0  0
    1.9480   16.1210   -0.9210 C   0  0  2  0  0  0  0  0  0  0  0  0
    2.7210   16.7330   -2.1390 C   0  0  0  0  0  0  0  0  0  0  0  0
    1.6844   20.4940    0.0761 H   0  0  0  0  0  0  0  0  0  0  0  0
    2.7998   19.9743   -1.2325 H   0  0  0  0  0  0  0  0  0  0  0  0
    1.0928   19.4150   -1.2325 H   0  0  0  0  0  0  0  0  0  0  0  0
    2.2874   18.7249    1.2913 H   0  0  0  0  0  0  0  0  0  0  0  0
    3.8099   16.9515   -0.3320 H   0  0  0  0  0  0  0  0  0  0  0  0
    4.1982   18.6658   -0.8354 H   0  0  0  0  0  0  0  0  0  0  0  0
    4.9790   17.1861    1.5725 H   0  0  0  0  0  0  0  0  0  0  0  0
    5.6458   18.7016    0.8333 H   0  0  0  0  0  0  0  0  0  0  0  0
    3.0931   18.7416    1.8824 H   0  0  0  0  0  0  0  0  0  0  0  0
    6.0023   18.3998    5.1392 H   0  0  0  0  0  0  0  0  0  0  0  0
    5.9297   17.4145    3.6390 H   0  0  0  0  0  0  0  0  0  0  0  0
    6.7962   18.9880    3.6390 H   0  0  0  0  0  0  0  0  0  0  0  0
    4.2324   19.3263    5.7246 H   0  0  0  0  0  0  0  0  0  0  0  0
    3.5370   20.6142    4.6833 H   0  0  0  0  0  0  0  0  0  0  0  0
    2.8127   18.9704    4.6833 H   0  0  0  0  0  0  0  0  0  0  0  0
    1.2195   16.9424    0.9695 H   0  0  0  0  0  0  0  0  0  0  0  0
   -0.6848   17.9322   -0.1388 H   0  0  0  0  0  0  0  0  0  0  0  0
    0.3311   18.6586   -1.4028 H   0  0  0  0  0  0  0  0  0  0  0  0
   -1.3062   16.3374   -1.7173 H   0  0  0  0  0  0  0  0  0  0  0  0
   -0.0372   16.8109   -2.8438 H   0  0  0  0  0  0  0  0  0  0  0  0
    0.2981   15.1418    0.8580 H   0  0  0  0  0  0  0  0  0  0  0  0
   -1.2128   15.1502   -0.1134 H   0  0  0  0  0  0  0  0  0  0  0  0
   -0.1531   13.6998   -0.1134 H   0  0  0  0  0  0  0  0  0  0  0  0
    1.3418   14.8513   -3.1906 H   0  0  0  0  0  0  0  0  0  0  0  0
   -1.1437   14.2330   -2.9094 H   0  0  0  0  0  0  0  0  0  0  0  0
   -0.0123   13.1927   -3.9232 H   0  0  0  0  0  0  0  0  0  0  0  0
   -1.7076   11.9035   -2.3728 H   0  0  0  0  0  0  0  0  0  0  0  0
    1.4860   12.5549    0.0090 H   0  0  0  0  0  0  0  0  0  0  0  0
    2.4452   10.4091   -1.9839 H   0  0  0  0  0  0  0  0  0  0  0  0
    3.4123   11.1608   -0.6384 H   0  0  0  0  0  0  0  0  0  0  0  0
    2.6023    8.8960   -0.0576 H   0  0  0  0  0  0  0  0  0  0  0  0
    1.9278   10.1842    1.0156 H   0  0  0  0  0  0  0  0  0  0  0  0
    0.1704    8.6486    0.4572 H   0  0  0  0  0  0  0  0  0  0  0  0
    1.1090    7.8670   -1.5150 H   0  0  0  0  0  0  0  0  0  0  0  0
   -0.4105   10.2915    1.7669 H   0  0  0  0  0  0  0  0  0  0  0  0
   -0.2015   11.9732    1.1711 H   0  0  0  0  0  0  0  0  0  0  0  0
   -1.8305   11.2163    1.1711 H   0  0  0  0  0  0  0  0  0  0  0  0
   -2.4904    9.6710   -0.0290 H   0  0  0  0  0  0  0  0  0  0  0  0
   -2.3765   10.6907   -1.5034 H   0  0  0  0  0  0  0  0  0  0  0  0
   -1.6880    9.0316   -1.5034 H   0  0  0  0  0  0  0  0  0  0  0  0
    3.4112   11.8885   -2.9606 H   0  0  0  0  0  0  0  0  0  0  0  0
    1.8543   12.1829   -3.8067 H   0  0  0  0  0  0  0  0  0  0  0  0
    3.1298   13.4478   -3.8067 H   0  0  0  0  0  0  0  0  0  0  0  0
    3.7710   13.2024   -0.5631 H   0  0  0  0  0  0  0  0  0  0  0  0
    3.8593   14.4160   -1.9607 H   0  0  0  0  0  0  0  0  0  0  0  0
    2.3823   14.7261    0.6676 H   0  0  0  0  0  0  0  0  0  0  0  0
    3.8075   15.6554    0.0562 H   0  0  0  0  0  0  0  0  0  0  0  0
    3.5339   17.3766   -1.7715 H   0  0  0  0  0  0  0  0  0  0  0  0
    3.1434   15.9218   -2.7503 H   0  0  0  0  0  0  0  0  0  0  0  0
    2.0284   17.3302   -2.7503 H   0  0  0  0  0  0  0  0  0  0  0  0
  1  2  1  0
  2  3  1  0
  3  4  1  0
  4  5  1  0
  5  6  1  0
  6  7  1  0
  7  8  1  0
  7  9  1  0
  2 10  1  0
 10 11  1  0
 11 12  1  0
 12 13  1  0
 13 14  1  1
 13 15  1  0
 15 16  1  0
 16 17  1  0
 17 18  2  0
 18 19  1  0
 19 20  1  0
 20 21  1  0
 21 22  1  0
 22 23  1  0
 22 24  1  0
 24 25  1  0
 24 26  1  0
 19 27  1  0
 27 28  1  6
 27 29  1  0
 29 30  1  0
 30 31  1  0
 31 32  1  6
  7  5  1  0
 31 10  1  0
 31 13  1  0
 27 15  1  0
 24 18  1  0
  1 33  1  0
  1 34  1  0
  1 35  1  0
  2 36  1  1
  3 37  1  0
  3 38  1  0
  4 39  1  0
  4 40  1  0
  5 41  1  1
  8 42  1  0
  8 43  1  0
  8 44  1  0
  9 45  1  0
  9 46  1  0
  9 47  1  0
 10 48  1  1
 11 49  1  0
 11 50  1  0
 12 51  1  0
 12 52  1  0
 14 53  1  0
 14 54  1  0
 14 55  1  0
 15 56  1  6
 16 57  1  0
 16 58  1  0
 17 59  1  0
 19 60  1  1
 20 61  1  0
 20 62  1  0
 21 63  1  0
 21 64  1  0
 22 65  1  1
 23 66  1  0
 25 67  1  0
 25 68  1  0
 25 69  1  0
 26 70  1  0
 26 71  1  0
 26 72  1  0
 28 73  1  0
 28 74  1  0
 28 75  1  0
 29 76  1  0
 29 77  1  0
 30 78  1  0
 30 79  1  0
 32 80  1  0
 32 81  1  0
 32 82  1  0
M  END
>  <meeko>  (2) 
{"is_sidechain": [false], "intermolecular_energy": 2.731, "internal_energy": -0.839}

$$$$
EPH_relaxed_0001_pdb2pqr_Repair_269_r2_0001_out
     RDKit          3D

 82 86  0  0  0  0  0  0  0  0999 V2000
    2.3900   18.0270   -2.7240 C   0  0  0  0  0  0  0  0  0  0  0  0
    1.0770   17.6620   -2.0250 C   0  0  2  0  0  0  0  0  0  0  0  0
    1.1950   17.7430   -0.4900 C   0  0  0  0  0  0  0  0  0  0  0  0
    0.8520   19.1210    0.0820 C   0  0  0  0  0  0  0  0  0  0  0  0
   -0.5890   19.2100    0.4870 C   0  0  2  0  0  0  0  0  0  0  0  0
   -1.4560   18.2810   -0.1770 O   0  0  0  0  0  0  0  0  0  0  0  0
   -1.6930   19.6720   -0.4460 C   0  0  0  0  0  0  0  0  0  0  0  0
   -1.4030   20.0760   -1.8580 C   0  0  0  0  0  0  0  0  0  0  0  0
   -2.9620   20.1940    0.1500 C   0  0  0  0  0  0  0  0  0  0  0  0
    0.6380   16.2630   -2.4410 C   0  0  1  0  0  0  0  0  0  0  0  0
    0.7610   16.0290   -3.9710 C   0  0  0  0  0  0  0  0  0  0  0  0
    1.1670   14.5450   -4.1650 C   0  0  0  0  0  0  0  0  0  0  0  0
    0.9420   13.8950   -2.7790 C   0  0  1  0  0  0  0  0  0  0  0  0
   -0.5890   13.5990   -2.7190 C   0  0  0  0  0  0  0  0  0  0  0  0
    1.7900   12.6180   -2.4700 C   0  0  2  0  0  0  0  0  0  0  0  0
    1.5260   11.4190   -3.3970 C   0  0  0  0  0  0  0  0  0  0  0  0
    0.4600   10.4800   -2.9380 C   0  0  0  0  0  0  0  0  0  0  0  0
   -0.0590   10.4330   -1.6970 C   0  0  0  0  0  0  0  0  0  0  0  0
    0.4970   11.3210   -0.5760 C   0  0  1  0  0  0  0  0  0  0  0  0
    0.7040   10.4700    0.7040 C   0  0  0  0  0  0  0  0  0  0  0  0
   -0.5600    9.7260    1.1230 C   0  0  0  0  0  0  0  0  0  0  0  0
   -1.0500    8.8100    0.0040 C   0  0  2  0  0  0  0  0  0  0  0  0
   -0.0930    7.7630   -0.1870 O   0  0  0  0  0  0  0  0  0  0  0  0
   -1.2840    9.5550   -1.3400 C   0  0  0  0  0  0  0  0  0  0  0  0
   -2.5230   10.4760   -1.2150 C   0  0  0  0  0  0  0  0  0  0  0  0
   -1.6380    8.4950   -2.4180 C   0  0  0  0  0  0  0  0  0  0  0  0
    1.7780   12.1850   -0.9480 C   0  0  1  0  0  0  0  0  0  0  0  0
    3.0720   11.3480   -0.7130 C   0  0  0  0  0  0  0  0  0  0  0  0
    1.8650   13.4200    0.0260 C   0  0  0  0  0  0  0  0  0  0  0  0
    1.1040   14.6910   -0.3940 C   0  0  0  0  0  0  0  0  0  0  0  0
    1.4200   15.0660   -1.8450 C   0  0  2  0  0  0  0  0  0  0  0  0
    2.9510   15.3910   -1.9330 C   0  0  0  0  0  0  0  0  0  0  0  0
    3.1604   18.2411   -1.9686 H   0  0  0  0  0  0  0  0  0  0  0  0
    2.7169   17.1857   -3.3527 H   0  0  0  0  0  0  0  0  0  0  0  0
    2.2358   18.9163   -3.3527 H   0  0  0  0  0  0  0  0  0  0  0  0
    0.3203   18.3968   -2.3371 H   0  0  0  0  0  0  0  0  0  0  0  0
    0.5097   17.0038   -0.0496 H   0  0  0  0  0  0  0  0  0  0  0  0
    2.2468   17.5430   -0.2376 H   0  0  0  0  0  0  0  0  0  0  0  0
    1.4824   19.3080    0.9638 H   0  0  0  0  0  0  0  0  0  0  0  0
    1.0356   19.8724   -0.7001 H   0  0  0  0  0  0  0  0  0  0  0  0
   -0.3084   19.5145    1.5061 H   0  0  0  0  0  0  0  0  0  0  0  0
   -0.7615   20.9696   -1.8593 H   0  0  0  0  0  0  0  0  0  0  0  0
   -0.8876   19.2539   -2.3761 H   0  0  0  0  0  0  0  0  0  0  0  0
   -2.3468   20.3014   -2.3761 H   0  0  0  0  0  0  0  0  0  0  0  0
   -2.8909   20.1648    1.2473 H   0  0  0  0  0  0  0  0  0  0  0  0
   -3.1224   21.2311   -0.1795 H   0  0  0  0  0  0  0  0  0  0  0  0
   -3.8058   19.5699   -0.1795 H   0  0  0  0  0  0  0  0  0  0  0  0
   -0.3917   16.2695   -2.0541 H   0  0  0  0  0  0  0  0  0  0  0  0
   -0.2030   16.2255   -4.4630 H   0  0  0  0  0  0  0  0  0  0  0  0
    1.5072   16.7041   -4.4152 H   0  0  0  0  0  0  0  0  0  0  0  0
    0.5341   14.0655   -4.9263 H   0  0  0  0  0  0  0  0  0  0  0  0
    2.2052   14.4383   -4.5124 H   0  0  0  0  0  0  0  0  0  0  0  0
   -0.9096   13.5370   -1.6686 H   0  0  0  0  0  0  0  0  0  0  0  0
   -1.1388   14.4075   -3.2231 H   0  0  0  0  0  0  0  0  0  0  0  0
   -0.7978   12.6438   -3.2231 H   0  0  0  0  0  0  0  0  0  0  0  0
    2.8124   12.9530   -2.6990 H   0  0  0  0  0  0  0  0  0  0  0  0
    1.2333   11.8096   -4.3828 H   0  0  0  0  0  0  0  0  0  0  0  0
    2.4586   10.8359   -3.4130 H   0  0  0  0  0  0  0  0  0  0  0  0
    0.0654    9.7664   -3.6763 H   0  0  0  0  0  0  0  0  0  0  0  0
   -0.2654   12.0922   -0.3919 H   0  0  0  0  0  0  0  0  0  0  0  0
    1.4993    9.7343    0.5134 H   0  0  0  0  0  0  0  0  0  0  0  0
    0.9738   11.1558    1.5207 H   0  0  0  0  0  0  0  0  0  0  0  0
   -0.3422    9.1201    2.0149 H   0  0  0  0  0  0  0  0  0  0  0  0
   -1.3457   10.4641    1.3420 H   0  0  0  0  0  0  0  0  0  0  0  0
   -2.0255    8.4058    0.3124 H   0  0  0  0  0  0  0  0  0  0  0  0
    0.7700    8.1800   -0.3530 H   0  0  0  0  0  0  0  0  0  0  0  0
   -2.7491   10.6441   -0.1517 H   0  0  0  0  0  0  0  0  0  0  0  0
   -2.3141   11.4398   -1.7023 H   0  0  0  0  0  0  0  0  0  0  0  0
   -3.3857    9.9982   -1.7023 H   0  0  0  0  0  0  0  0  0  0  0  0
   -1.9497    7.5618   -1.9261 H   0  0  0  0  0  0  0  0  0  0  0  0
   -2.4595    8.8707   -3.0458 H   0  0  0  0  0  0  0  0  0  0  0  0
   -0.7557    8.3017   -3.0458 H   0  0  0  0  0  0  0  0  0  0  0  0
    3.2451   11.2360    0.3675 H   0  0  0  0  0  0  0  0  0  0  0  0
    2.9542   10.3545   -1.1703 H   0  0  0  0  0  0  0  0  0  0  0  0
    3.9298   11.8628   -1.1703 H   0  0  0  0  0  0  0  0  0  0  0  0
    1.4692   13.1025    1.0020 H   0  0  0  0  0  0  0  0  0  0  0  0
    2.9265   13.7086    0.0305 H   0  0  0  0  0  0  0  0  0  0  0  0
    0.0231   14.5119   -0.2960 H   0  0  0  0  0  0  0  0  0  0  0  0
    1.4183   15.5191    0.2583 H   0  0  0  0  0  0  0  0  0  0  0  0
    3.3661   15.4791   -0.9181 H   0  0  0  0  0  0  0  0  0  0  0  0
    3.4671   14.5824   -2.4713 H   0  0  0  0  0  0  0  0  0  0  0  0
    3.0941   16.3395   -2.4713 H   0  0  0  0  0  0  0  0  0  0  0  0
  1  2  1  0
  2  3  1  0
  3  4  1  0
  4  5  1  0
  5  6  1  0
  6  7  1  0
  7  8  1  0
  7  9  1  0
  2 10  1  0
 10 11  1  0
 11 12  1  0
 12 13  1  0
 13 14  1  1
 13 15  1  0
 15 16  1  0
 16 17  1  0
 17 18  2  0
 18 19  1  0
 19 20  1  0
 20 21  1  0
 21 22  1  0
 22 23  1  0
 22 24  1  0
 24 25  1  0
 24 26  1  0
 19 27  1  0
 27 28  1  6
 27 29  1  0
 29 30  1  0
 30 31  1  0
 31 32  1  1
  7  5  1  0
 31 10  1  0
 31 13  1  0
 27 15  1  0
 24 18  1  0
  1 33  1  0
  1 34  1  0
  1 35  1  0
  2 36  1  6
  3 37  1  0
  3 38  1  0
  4 39  1  0
  4 40  1  0
  5 41  1  1
  8 42  1  0
  8 43  1  0
  8 44  1  0
  9 45  1  0
  9 46  1  0
  9 47  1  0
 10 48  1  1
 11 49  1  0
 11 50  1  0
 12 51  1  0
 12 52  1  0
 14 53  1  0
 14 54  1  0
 14 55  1  0
 15 56  1  6
 16 57  1  0
 16 58  1  0
 17 59  1  0
 19 60  1  1
 20 61  1  0
 20 62  1  0
 21 63  1  0
 21 64  1  0
 22 65  1  1
 23 66  1  0
 25 67  1  0
 25 68  1  0
 25 69  1  0
 26 70  1  0
 26 71  1  0
 26 72  1  0
 28 73  1  0
 28 74  1  0
 28 75  1  0
 29 76  1  0
 29 77  1  0
 30 78  1  0
 30 79  1  0
 32 80  1  0
 32 81  1  0
 32 82  1  0
M  END
>  <meeko>  (3) 
{"is_sidechain": [false], "intermolecular_energy": 2.731, "internal_energy": -0.839}

$$$$
EPH_relaxed_0001_pdb2pqr_Repair_269_r2_0001_out
     RDKit          3D

 82 86  0  0  0  0  0  0  0  0999 V2000
    0.5450   18.4260   -0.0080 C   0  0  0  0  0  0  0  0  0  0  0  0
    1.6000   17.3350   -0.2080 C   0  0  2  0  0  0  0  0  0  0  0  0
    2.8380   17.8560   -0.9660 C   0  0  0  0  0  0  0  0  0  0  0  0
    4.0570   18.0880   -0.0690 C   0  0  0  0  0  0  0  0  0  0  0  0
    3.6570   18.5470    1.3010 C   0  0  2  0  0  0  0  0  0  0  0  0
    3.8420   19.9480    1.5400 O   0  0  0  0  0  0  0  0  0  0  0  0
    4.6450   19.0580    2.3330 C   0  0  0  0  0  0  0  0  0  0  0  0
    6.1110   19.1360    2.0390 C   0  0  0  0  0  0  0  0  0  0  0  0
    4.2550   19.0190    3.7780 C   0  0  0  0  0  0  0  0  0  0  0  0
    0.9910   16.1530   -0.9540 C   0  0  1  0  0  0  0  0  0  0  0  0
    0.8220   16.4290   -2.4720 C   0  0  0  0  0  0  0  0  0  0  0  0
    1.0750   15.0840   -3.2010 C   0  0  0  0  0  0  0  0  0  0  0  0
    1.0530   14.0210   -2.0780 C   0  0  1  0  0  0  0  0  0  0  0  0
   -0.4610   13.7410   -1.8210 C   0  0  0  0  0  0  0  0  0  0  0  0
    1.8450   12.7030   -2.3600 C   0  0  2  0  0  0  0  0  0  0  0  0
    1.3310   11.8750   -3.5510 C   0  0  0  0  0  0  0  0  0  0  0  0
    0.2970   10.8510   -3.2170 C   0  0  0  0  0  0  0  0  0  0  0  0
    0.0050   10.4080   -1.9800 C   0  0  0  0  0  0  0  0  0  0  0  0
    0.8170   10.8750   -0.7640 C   0  0  1  0  0  0  0  0  0  0  0  0
    1.1850    9.6510    0.1140 C   0  0  0  0  0  0  0  0  0  0  0  0
   -0.0370    8.8270    0.5100 C   0  0  0  0  0  0  0  0  0  0  0  0
   -0.7840    8.3320   -0.7250 C   0  0  2  0  0  0  0  0  0  0  0  0
    0.0430    7.3930   -1.4190 O   0  0  0  0  0  0  0  0  0  0  0  0
   -1.1980    9.4770   -1.6910 C   0  0  0  0  0  0  0  0  0  0  0  0
   -2.3230   10.3230   -1.0440 C   0  0  0  0  0  0  0  0  0  0  0  0
   -1.8160    8.8320   -2.9600 C   0  0  0  0  0  0  0  0  0  0  0  0
    2.0720   11.7980   -1.0820 C   0  0  1  0  0  0  0  0  0  0  0  0
    3.3210   10.9130   -1.3790 C   0  0  0  0  0  0  0  0  0  0  0  0
    2.4230   12.6460    0.1970 C   0  0  0  0  0  0  0  0  0  0  0  0
    1.6950   13.9950    0.3580 C   0  0  0  0  0  0  0  0  0  0  0  0
    1.7760   14.8170   -0.9320 C   0  0  2  0  0  0  0  0  0  0  0  0
    3.2860   15.1340   -1.2040 C   0  0  0  0  0  0  0  0  0  0  0  0
    0.3865   18.5899    1.0681 H   0  0  0  0  0  0  0  0  0  0  0  0
    0.8908   19.3604   -0.4742 H   0  0  0  0  0  0  0  0  0  0  0  0
   -0.4004   18.1117   -0.4742 H   0  0  0  0  0  0  0  0  0  0  0  0
    1.9352   17.0123    0.7887 H   0  0  0  0  0  0  0  0  0  0  0  0
    3.1090   17.1190   -1.7363 H   0  0  0  0  0  0  0  0  0  0  0  0
    2.5649   18.8312   -1.3954 H   0  0  0  0  0  0  0  0  0  0  0  0
    4.6185   17.1463    0.0202 H   0  0  0  0  0  0  0  0  0  0  0  0
    4.6758   18.8736   -0.5272 H   0  0  0  0  0  0  0  0  0  0  0  0
    2.8654   17.7849    1.3516 H   0  0  0  0  0  0  0  0  0  0  0  0
    6.6734   19.1659    2.9839 H   0  0  0  0  0  0  0  0  0  0  0  0
    6.4161   18.2528    1.4585 H   0  0  0  0  0  0  0  0  0  0  0  0
    6.3206   20.0466    1.4585 H   0  0  0  0  0  0  0  0  0  0  0  0
    5.1554   19.1090    4.4034 H   0  0  0  0  0  0  0  0  0  0  0  0
    3.5721   19.8533    3.9961 H   0  0  0  0  0  0  0  0  0  0  0  0
    3.7509   18.0660    3.9961 H   0  0  0  0  0  0  0  0  0  0  0  0
    0.0503   16.0456   -0.3940 H   0  0  0  0  0  0  0  0  0  0  0  0
   -0.1967   16.7875   -2.6809 H   0  0  0  0  0  0  0  0  0  0  0  0
    1.5254   17.2025   -2.8140 H   0  0  0  0  0  0  0  0  0  0  0  0
    0.2825   14.8867   -3.9379 H   0  0  0  0  0  0  0  0  0  0  0  0
    2.0239   15.0833   -3.7573 H   0  0  0  0  0  0  0  0  0  0  0  0
   -0.6487   13.7063   -0.7377 H   0  0  0  0  0  0  0  0  0  0  0  0
   -1.0639   14.5429   -2.2721 H   0  0  0  0  0  0  0  0  0  0  0  0
   -0.7373   12.7765   -2.2721 H   0  0  0  0  0  0  0  0  0  0  0  0
    2.8325   13.0810   -2.6633 H   0  0  0  0  0  0  0  0  0  0  0  0
    0.8969   12.5693   -4.2855 H   0  0  0  0  0  0  0  0  0  0  0  0
    2.1996   11.3175   -3.9314 H   0  0  0  0  0  0  0  0  0  0  0  0
   -0.2749   10.4221   -4.0531 H   0  0  0  0  0  0  0  0  0  0  0  0
    0.1591   11.5533   -0.2008 H   0  0  0  0  0  0  0  0  0  0  0  0
    1.8766    9.0077   -0.4498 H   0  0  0  0  0  0  0  0  0  0  0  0
    1.6466   10.0293    1.0380 H   0  0  0  0  0  0  0  0  0  0  0  0
    0.2899    7.9610    1.1043 H   0  0  0  0  0  0  0  0  0  0  0  0
   -0.7142    9.4635    1.0985 H   0  0  0  0  0  0  0  0  0  0  0  0
   -1.7160    7.8610   -0.3793 H   0  0  0  0  0  0  0  0  0  0  0  0
   -0.4260    6.5410   -1.4310 H   0  0  0  0  0  0  0  0  0  0  0  0
   -2.2431   10.2629    0.0514 H   0  0  0  0  0  0  0  0  0  0  0  0
   -2.2226   11.3712   -1.3620 H   0  0  0  0  0  0  0  0  0  0  0  0
   -3.3022    9.9356   -1.3620 H   0  0  0  0  0  0  0  0  0  0  0  0
   -2.5487    8.0673   -2.6629 H   0  0  0  0  0  0  0  0  0  0  0  0
   -2.3172    9.6071   -3.5583 H   0  0  0  0  0  0  0  0  0  0  0  0
   -1.0201    8.3644   -3.5583 H   0  0  0  0  0  0  0  0  0  0  0  0
    3.7759   10.5907   -0.4307 H   0  0  0  0  0  0  0  0  0  0  0  0
    3.0149   10.0292   -1.9579 H   0  0  0  0  0  0  0  0  0  0  0  0
    4.0534   11.4948   -1.9579 H   0  0  0  0  0  0  0  0  0  0  0  0
    2.1855   12.0324    1.0785 H   0  0  0  0  0  0  0  0  0  0  0  0
    3.4867   12.9043    0.0880 H   0  0  0  0  0  0  0  0  0  0  0  0
    0.6384   13.8075    0.5998 H   0  0  0  0  0  0  0  0  0  0  0  0
    2.1795   14.5616    1.1669 H   0  0  0  0  0  0  0  0  0  0  0  0
    3.8156   15.2452   -0.2463 H   0  0  0  0  0  0  0  0  0  0  0  0
    3.7358   14.3107   -1.7783 H   0  0  0  0  0  0  0  0  0  0  0  0
    3.3668   16.0687   -1.7783 H   0  0  0  0  0  0  0  0  0  0  0  0
  1  2  1  0
  2  3  1  0
  3  4  1  0
  4  5  1  0
  5  6  1  0
  6  7  1  0
  7  8  1  0
  7  9  1  0
  2 10  1  0
 10 11  1  0
 11 12  1  0
 12 13  1  0
 13 14  1  1
 13 15  1  0
 15 16  1  0
 16 17  1  0
 17 18  2  0
 18 19  1  0
 19 20  1  0
 20 21  1  0
 21 22  1  0
 22 23  1  0
 22 24  1  0
 24 25  1  0
 24 26  1  0
 19 27  1  0
 27 28  1  6
 27 29  1  0
 29 30  1  0
 30 31  1  0
 31 32  1  6
  7  5  1  0
 31 10  1  0
 31 13  1  0
 27 15  1  0
 24 18  1  0
  1 33  1  0
  1 34  1  0
  1 35  1  0
  2 36  1  1
  3 37  1  0
  3 38  1  0
  4 39  1  0
  4 40  1  0
  5 41  1  1
  8 42  1  0
  8 43  1  0
  8 44  1  0
  9 45  1  0
  9 46  1  0
  9 47  1  0
 10 48  1  1
 11 49  1  0
 11 50  1  0
 12 51  1  0
 12 52  1  0
 14 53  1  0
 14 54  1  0
 14 55  1  0
 15 56  1  6
 16 57  1  0
 16 58  1  0
 17 59  1  0
 19 60  1  1
 20 61  1  0
 20 62  1  0
 21 63  1  0
 21 64  1  0
 22 65  1  1
 23 66  1  0
 25 67  1  0
 25 68  1  0
 25 69  1  0
 26 70  1  0
 26 71  1  0
 26 72  1  0
 28 73  1  0
 28 74  1  0
 28 75  1  0
 29 76  1  0
 29 77  1  0
 30 78  1  0
 30 79  1  0
 32 80  1  0
 32 81  1  0
 32 82  1  0
M  END
>  <meeko>  (4) 
{"is_sidechain": [false], "intermolecular_energy": 2.731, "internal_energy": -0.839}

$$$$
EPH_relaxed_0001_pdb2pqr_Repair_269_r2_0001_out
     RDKit          3D

 82 86  0  0  0  0  0  0  0  0999 V2000
    2.2490   17.9460   -2.5380 C   0  0  0  0  0  0  0  0  0  0  0  0
    0.7280   17.8280   -2.6750 C   0  0  2  0  0  0  0  0  0  0  0  0
   -0.0090   18.3370   -1.4200 C   0  0  0  0  0  0  0  0  0  0  0  0
    0.6700   17.9440   -0.1050 C   0  0  0  0  0  0  0  0  0  0  0  0
    1.2510   19.1350    0.5950 C   0  0  2  0  0  0  0  0  0  0  0  0
    2.1940   19.8860   -0.1810 O   0  0  0  0  0  0  0  0  0  0  0  0
    2.7110   19.2410    0.9940 C   0  0  0  0  0  0  0  0  0  0  0  0
    3.6810   18.1380    0.7070 C   0  0  0  0  0  0  0  0  0  0  0  0
    3.0870   20.1930    2.0870 C   0  0  0  0  0  0  0  0  0  0  0  0
    0.3430   16.3800   -2.9540 C   0  0  1  0  0  0  0  0  0  0  0  0
    0.3940   16.0290   -4.4650 C   0  0  0  0  0  0  0  0  0  0  0  0
    0.8680   14.5560   -4.5670 C   0  0  0  0  0  0  0  0  0  0  0  0
    0.7550   14.0100   -3.1240 C   0  0  1  0  0  0  0  0  0  0  0  0
   -0.7520   13.6440   -2.9510 C   0  0  0  0  0  0  0  0  0  0  0  0
    1.6860   12.8050   -2.7660 C   0  0  2  0  0  0  0  0  0  0  0  0
    1.4360   11.5240   -3.5800 C   0  0  0  0  0  0  0  0  0  0  0  0
    0.4490   10.5740   -2.9870 C   0  0  0  0  0  0  0  0  0  0  0  0
    0.0020   10.6020   -1.7180 C   0  0  0  0  0  0  0  0  0  0  0  0
    0.5700   11.6030   -0.7040 C   0  0  1  0  0  0  0  0  0  0  0  0
    0.8920   10.8700    0.6240 C   0  0  0  0  0  0  0  0  0  0  0  0
   -0.3050   10.1010    1.1730 C   0  0  0  0  0  0  0  0  0  0  0  0
   -0.8050    9.0740    0.1600 C   0  0  2  0  0  0  0  0  0  0  0  0
    0.1950    8.0640   -0.0050 O   0  0  0  0  0  0  0  0  0  0  0  0
   -1.1520    9.6960   -1.2220 C   0  0  0  0  0  0  0  0  0  0  0  0
   -2.4300   10.5620   -1.0960 C   0  0  0  0  0  0  0  0  0  0  0  0
   -1.5080    8.5370   -2.1910 C   0  0  0  0  0  0  0  0  0  0  0  0
    1.7800   12.4970   -1.2170 C   0  0  1  0  0  0  0  0  0  0  0  0
    3.1280   11.7460   -0.9940 C   0  0  0  0  0  0  0  0  0  0  0  0
    1.8540   13.8090   -0.3490 C   0  0  0  0  0  0  0  0  0  0  0  0
    1.0040   15.0030   -0.8220 C   0  0  0  0  0  0  0  0  0  0  0  0
    1.2200   15.2740   -2.3140 C   0  0  2  0  0  0  0  0  0  0  0  0
    2.7230   15.6660   -2.5160 C   0  0  0  0  0  0  0  0  0  0  0  0
    2.5206   17.9671   -1.4723 H   0  0  0  0  0  0  0  0  0  0  0  0
    2.7288   17.0824   -3.0217 H   0  0  0  0  0  0  0  0  0  0  0  0
    2.5899   18.8733   -3.0217 H   0  0  0  0  0  0  0  0  0  0  0  0
    0.4208   18.4637   -3.5185 H   0  0  0  0  0  0  0  0  0  0  0  0
   -0.0612   19.4347   -1.4693 H   0  0  0  0  0  0  0  0  0  0  0  0
   -1.0044   17.8688   -1.4200 H   0  0  0  0  0  0  0  0  0  0  0  0
   -0.0738   17.4712    0.5531 H   0  0  0  0  0  0  0  0  0  0  0  0
    1.4897   17.2480   -0.3364 H   0  0  0  0  0  0  0  0  0  0  0  0
    0.3188   19.2871    1.1588 H   0  0  0  0  0  0  0  0  0  0  0  0
    4.0500   17.7184    1.6545 H   0  0  0  0  0  0  0  0  0  0  0  0
    3.1785   17.3493    0.1278 H   0  0  0  0  0  0  0  0  0  0  0  0
    4.5274   18.5356    0.1278 H   0  0  0  0  0  0  0  0  0  0  0  0
    2.9010   19.7220    3.0635 H   0  0  0  0  0  0  0  0  0  0  0  0
    4.1535   20.4482    2.0002 H   0  0  0  0  0  0  0  0  0  0  0  0
    2.4828   21.1081    2.0002 H   0  0  0  0  0  0  0  0  0  0  0  0
   -0.6625   16.3678   -2.5081 H   0  0  0  0  0  0  0  0  0  0  0  0
   -0.6049   16.1373   -4.9129 H   0  0  0  0  0  0  0  0  0  0  0  0
    1.0775   16.7018   -5.0037 H   0  0  0  0  0  0  0  0  0  0  0  0
    0.2208   13.9860   -5.2498 H   0  0  0  0  0  0  0  0  0  0  0  0
    1.8897   14.4728   -4.9661 H   0  0  0  0  0  0  0  0  0  0  0  0
   -0.9944   13.5851   -1.8797 H   0  0  0  0  0  0  0  0  0  0  0  0
   -1.3739   14.4172   -3.4257 H   0  0  0  0  0  0  0  0  0  0  0  0
   -0.9500   12.6717   -3.4257 H   0  0  0  0  0  0  0  0  0  0  0  0
    2.6755   13.1694   -3.0792 H   0  0  0  0  0  0  0  0  0  0  0  0
    1.0687   11.8192   -4.5740 H   0  0  0  0  0  0  0  0  0  0  0  0
    2.3962   10.9880   -3.6063 H   0  0  0  0  0  0  0  0  0  0  0  0
    0.0536    9.7843   -3.6428 H   0  0  0  0  0  0  0  0  0  0  0  0
   -0.2219   12.3476   -0.5355 H   0  0  0  0  0  0  0  0  0  0  0  0
    1.7143   10.1616    0.4453 H   0  0  0  0  0  0  0  0  0  0  0  0
    1.1685   11.6322    1.3674 H   0  0  0  0  0  0  0  0  0  0  0  0
   -0.0066    9.5811    2.0953 H   0  0  0  0  0  0  0  0  0  0  0  0
   -1.1163   10.8147    1.3790 H   0  0  0  0  0  0  0  0  0  0  0  0
   -1.7385    8.6476    0.5560 H   0  0  0  0  0  0  0  0  0  0  0  0
   -0.2290    7.2030    0.1490 H   0  0  0  0  0  0  0  0  0  0  0  0
   -2.6627   10.7197   -0.0325 H   0  0  0  0  0  0  0  0  0  0  0  0
   -2.2636   11.5342   -1.5830 H   0  0  0  0  0  0  0  0  0  0  0  0
   -3.2713   10.0471   -1.5830 H   0  0  0  0  0  0  0  0  0  0  0  0
   -1.7822    7.6443   -1.6098 H   0  0  0  0  0  0  0  0  0  0  0  0
   -2.3556    8.8364   -2.8250 H   0  0  0  0  0  0  0  0  0  0  0  0
   -0.6385    8.3089   -2.8250 H   0  0  0  0  0  0  0  0  0  0  0  0
    3.3154   11.6416    0.0849 H   0  0  0  0  0  0  0  0  0  0  0  0
    3.0727   10.7487   -1.4548 H   0  0  0  0  0  0  0  0  0  0  0  0
    3.9469   12.3179   -1.4548 H   0  0  0  0  0  0  0  0  0  0  0  0
    1.5295   13.5525    0.6703 H   0  0  0  0  0  0  0  0  0  0  0  0
    2.8972   14.1486   -0.4288 H   0  0  0  0  0  0  0  0  0  0  0  0
   -0.0588   14.7796   -0.6472 H   0  0  0  0  0  0  0  0  0  0  0  0
    1.3084   15.8958   -0.2561 H   0  0  0  0  0  0  0  0  0  0  0  0
    3.2042   15.7915   -1.5349 H   0  0  0  0  0  0  0  0  0  0  0  0
    3.2368   14.8718   -3.0775 H   0  0  0  0  0  0  0  0  0  0  0  0
    2.7835   16.6100   -3.0775 H   0  0  0  0  0  0  0  0  0  0  0  0
  1  2  1  0
  2  3  1  0
  3  4  1  0
  4  5  1  0
  5  6  1  0
  6  7  1  0
  7  8  1  0
  7  9  1  0
  2 10  1  0
 10 11  1  0
 11 12  1  0
 12 13  1  0
 13 14  1  1
 13 15  1  0
 15 16  1  0
 16 17  1  0
 17 18  2  0
 18 19  1  0
 19 20  1  0
 20 21  1  0
 21 22  1  0
 22 23  1  0
 22 24  1  0
 24 25  1  0
 24 26  1  0
 19 27  1  0
 27 28  1  6
 27 29  1  0
 29 30  1  0
 30 31  1  0
 31 32  1  1
  7  5  1  0
 31 10  1  0
 31 13  1  0
 27 15  1  0
 24 18  1  0
  1 33  1  0
  1 34  1  0
  1 35  1  0
  2 36  1  6
  3 37  1  0
  3 38  1  0
  4 39  1  0
  4 40  1  0
  5 41  1  1
  8 42  1  0
  8 43  1  0
  8 44  1  0
  9 45  1  0
  9 46  1  0
  9 47  1  0
 10 48  1  1
 11 49  1  0
 11 50  1  0
 12 51  1  0
 12 52  1  0
 14 53  1  0
 14 54  1  0
 14 55  1  0
 15 56  1  6
 16 57  1  0
 16 58  1  0
 17 59  1  0
 19 60  1  1
 20 61  1  0
 20 62  1  0
 21 63  1  0
 21 64  1  0
 22 65  1  1
 23 66  1  0
 25 67  1  0
 25 68  1  0
 25 69  1  0
 26 70  1  0
 26 71  1  0
 26 72  1  0
 28 73  1  0
 28 74  1  0
 28 75  1  0
 29 76  1  0
 29 77  1  0
 30 78  1  0
 30 79  1  0
 32 80  1  0
 32 81  1  0
 32 82  1  0
M  END
>  <meeko>  (5) 
{"is_sidechain": [false], "intermolecular_energy": 2.731, "internal_energy": -0.839}

$$$$
EPH_relaxed_0001_pdb2pqr_Repair_269_r2_0001_out
     RDKit          3D

 82 86  0  0  0  0  0  0  0  0999 V2000
   -3.4020    9.3060    0.5340 C   0  0  0  0  0  0  0  0  0  0  0  0
   -2.5770    9.6730   -0.7040 C   0  0  2  0  0  0  0  0  0  0  0  0
   -1.9100    8.4390   -1.3430 C   0  0  0  0  0  0  0  0  0  0  0  0
   -2.8270    7.6680   -2.2960 C   0  0  0  0  0  0  0  0  0  0  0  0
   -4.2650    7.7690   -1.8850 C   0  0  2  0  0  0  0  0  0  0  0  0
   -4.8110    6.5730   -1.3150 O   0  0  0  0  0  0  0  0  0  0  0  0
   -5.3840    7.0000   -2.5610 C   0  0  0  0  0  0  0  0  0  0  0  0
   -5.1140    6.0730   -3.7050 C   0  0  0  0  0  0  0  0  0  0  0  0
   -6.7840    7.5150   -2.4350 C   0  0  0  0  0  0  0  0  0  0  0  0
   -1.5180   10.7050   -0.3350 C   0  0  1  0  0  0  0  0  0  0  0  0
   -0.4180   10.1270    0.5940 C   0  0  0  0  0  0  0  0  0  0  0  0
    0.9110   10.8210    0.1990 C   0  0  0  0  0  0  0  0  0  0  0  0
    0.4820   12.0020   -0.7030 C   0  0  1  0  0  0  0  0  0  0  0  0
    0.0440   13.1250    0.2890 C   0  0  0  0  0  0  0  0  0  0  0  0
    1.5490   12.5160   -1.7230 C   0  0  2  0  0  0  0  0  0  0  0  0
    2.8320   13.0870   -1.0930 C   0  0  0  0  0  0  0  0  0  0  0  0
    2.8060   14.5520   -0.8100 C   0  0  0  0  0  0  0  0  0  0  0  0
    1.9130   15.4290   -1.3060 C   0  0  0  0  0  0  0  0  0  0  0  0
    0.8570   14.9850   -2.3260 C   0  0  1  0  0  0  0  0  0  0  0  0
    0.8040   16.0060   -3.4930 C   0  0  0  0  0  0  0  0  0  0  0  0
    0.5830   17.4360   -3.0100 C   0  0  0  0  0  0  0  0  0  0  0  0
    1.6860   17.8610   -2.0430 C   0  0  2  0  0  0  0  0  0  0  0  0
    2.9230   17.9350   -2.7580 O   0  0  0  0  0  0  0  0  0  0  0  0
    1.8400   16.9010   -0.8300 C   0  0  0  0  0  0  0  0  0  0  0  0
    0.6170   17.0480    0.1080 C   0  0  0  0  0  0  0  0  0  0  0  0
    3.0750   17.3630   -0.0100 C   0  0  0  0  0  0  0  0  0  0  0  0
    0.9710   13.4830   -2.8340 C   0  0  1  0  0  0  0  0  0  0  0  0
    1.9490   13.4040   -4.0460 C   0  0  0  0  0  0  0  0  0  0  0  0
   -0.4340   13.0120   -3.3650 C   0  0  0  0  0  0  0  0  0  0  0  0
   -1.4000   12.4030   -2.3300 C   0  0  0  0  0  0  0  0  0  0  0  0
   -0.6990   11.3280   -1.4930 C   0  0  2  0  0  0  0  0  0  0  0  0
   -0.2670   10.1750   -2.4600 C   0  0  0  0  0  0  0  0  0  0  0  0
   -2.8338    9.5587    1.4414 H   0  0  0  0  0  0  0  0  0  0  0  0
   -4.3472    9.8685    0.5247 H   0  0  0  0  0  0  0  0  0  0  0  0
   -3.6172    8.2273    0.5247 H   0  0  0  0  0  0  0  0  0  0  0  0
   -3.2668   10.0979   -1.4480 H   0  0  0  0  0  0  0  0  0  0  0  0
   -1.0268    8.7744   -1.9064 H   0  0  0  0  0  0  0  0  0  0  0  0
   -1.6495    7.7537   -0.5230 H   0  0  0  0  0  0  0  0  0  0  0  0
   -2.7161    8.0811   -3.3095 H   0  0  0  0  0  0  0  0  0  0  0  0
   -2.5363    6.6075   -2.2684 H   0  0  0  0  0  0  0  0  0  0  0  0
   -4.1444    8.8349   -1.6413 H   0  0  0  0  0  0  0  0  0  0  0  0
   -4.8262    5.0850   -3.3163 H   0  0  0  0  0  0  0  0  0  0  0  0
   -6.0210    5.9752   -4.3197 H   0  0  0  0  0  0  0  0  0  0  0  0
   -4.2964    6.4776   -4.3197 H   0  0  0  0  0  0  0  0  0  0  0  0
   -7.0450    7.6110   -1.3707 H   0  0  0  0  0  0  0  0  0  0  0  0
   -6.8578    8.4991   -2.9208 H   0  0  0  0  0  0  0  0  0  0  0  0
   -7.4779    6.8133   -2.9208 H   0  0  0  0  0  0  0  0  0  0  0  0
   -2.1594   11.4701    0.1268 H   0  0  0  0  0  0  0  0  0  0  0  0
   -0.6593   10.3412    1.6456 H   0  0  0  0  0  0  0  0  0  0  0  0
   -0.3415    9.0352    0.4838 H   0  0  0  0  0  0  0  0  0  0  0  0
    1.4386   11.1865    1.0923 H   0  0  0  0  0  0  0  0  0  0  0  0
    1.6032   10.1359   -0.3123 H   0  0  0  0  0  0  0  0  0  0  0  0
    0.1806   12.7748    1.3228 H   0  0  0  0  0  0  0  0  0  0  0  0
    0.6581   14.0221    0.1216 H   0  0  0  0  0  0  0  0  0  0  0  0
   -1.0154   13.3694    0.1216 H   0  0  0  0  0  0  0  0  0  0  0  0
    1.8529   11.5899   -2.2329 H   0  0  0  0  0  0  0  0  0  0  0  0
    3.0077   12.5605   -0.1433 H   0  0  0  0  0  0  0  0  0  0  0  0
    3.6293   12.9347   -1.8354 H   0  0  0  0  0  0  0  0  0  0  0  0
    3.5822   14.9490   -0.1393 H   0  0  0  0  0  0  0  0  0  0  0  0
   -0.1027   14.9814   -1.7884 H   0  0  0  0  0  0  0  0  0  0  0  0
    1.7558   15.9627   -4.0428 H   0  0  0  0  0  0  0  0  0  0  0  0
   -0.0472   15.7352   -4.1349 H   0  0  0  0  0  0  0  0  0  0  0  0
    0.5834   18.1131   -3.8769 H   0  0  0  0  0  0  0  0  0  0  0  0
   -0.3825   17.4845   -2.4852 H   0  0  0  0  0  0  0  0  0  0  0  0
    1.4053   18.8424   -1.6330 H   0  0  0  0  0  0  0  0  0  0  0  0
    2.7430   17.6970   -3.6830 H   0  0  0  0  0  0  0  0  0  0  0  0
    0.9512   17.0078    1.1552 H   0  0  0  0  0  0  0  0  0  0  0  0
    0.1226   18.0120   -0.0824 H   0  0  0  0  0  0  0  0  0  0  0  0
   -0.0917   16.2286   -0.0824 H   0  0  0  0  0  0  0  0  0  0  0  0
    2.8537   17.2802    1.0643 H   0  0  0  0  0  0  0  0  0  0  0  0
    3.9378   16.7268   -0.2567 H   0  0  0  0  0  0  0  0  0  0  0  0
    3.3084   18.4093   -0.2567 H   0  0  0  0  0  0  0  0  0  0  0  0
    2.9824   13.3205   -3.6784 H   0  0  0  0  0  0  0  0  0  0  0  0
    1.7049   12.5226   -4.6573 H   0  0  0  0  0  0  0  0  0  0  0  0
    1.8496   14.3131   -4.6573 H   0  0  0  0  0  0  0  0  0  0  0  0
   -0.9315   13.8862   -3.8103 H   0  0  0  0  0  0  0  0  0  0  0  0
   -0.2163   12.1963   -4.0701 H   0  0  0  0  0  0  0  0  0  0  0  0
   -1.7619   13.1994   -1.6631 H   0  0  0  0  0  0  0  0  0  0  0  0
   -2.2409   11.9381   -2.8655 H   0  0  0  0  0  0  0  0  0  0  0  0
    0.0589    9.3051   -1.8708 H   0  0  0  0  0  0  0  0  0  0  0  0
   -1.1192    9.8898   -3.0943 H   0  0  0  0  0  0  0  0  0  0  0  0
    0.5629   10.5200   -3.0943 H   0  0  0  0  0  0  0  0  0  0  0  0
  1  2  1  0
  2  3  1  0
  3  4  1  0
  4  5  1  0
  5  6  1  0
  6  7  1  0
  7  8  1  0
  7  9  1  0
  2 10  1  0
 10 11  1  0
 11 12  1  0
 12 13  1  0
 13 14  1  1
 13 15  1  0
 15 16  1  0
 16 17  1  0
 17 18  2  0
 18 19  1  0
 19 20  1  0
 20 21  1  0
 21 22  1  0
 22 23  1  0
 22 24  1  0
 24 25  1  0
 24 26  1  0
 19 27  1  0
 27 28  1  6
 27 29  1  0
 29 30  1  0
 30 31  1  0
 31 32  1  6
  7  5  1  0
 31 10  1  0
 31 13  1  0
 27 15  1  0
 24 18  1  0
  1 33  1  0
  1 34  1  0
  1 35  1  0
  2 36  1  6
  3 37  1  0
  3 38  1  0
  4 39  1  0
  4 40  1  0
  5 41  1  1
  8 42  1  0
  8 43  1  0
  8 44  1  0
  9 45  1  0
  9 46  1  0
  9 47  1  0
 10 48  1  1
 11 49  1  0
 11 50  1  0
 12 51  1  0
 12 52  1  0
 14 53  1  0
 14 54  1  0
 14 55  1  0
 15 56  1  6
 16 57  1  0
 16 58  1  0
 17 59  1  0
 19 60  1  1
 20 61  1  0
 20 62  1  0
 21 63  1  0
 21 64  1  0
 22 65  1  1
 23 66  1  0
 25 67  1  0
 25 68  1  0
 25 69  1  0
 26 70  1  0
 26 71  1  0
 26 72  1  0
 28 73  1  0
 28 74  1  0
 28 75  1  0
 29 76  1  0
 29 77  1  0
 30 78  1  0
 30 79  1  0
 32 80  1  0
 32 81  1  0
 32 82  1  0
M  END
>  <meeko>  (6) 
{"is_sidechain": [false], "intermolecular_energy": 2.731, "internal_energy": -0.839}

$$$$
EPH_relaxed_0001_pdb2pqr_Repair_269_r2_0001_out
     RDKit          3D

 82 86  0  0  0  0  0  0  0  0999 V2000
    3.7730   17.9380    0.6190 C   0  0  0  0  0  0  0  0  0  0  0  0
    2.6910   18.3690   -0.3760 C   0  0  2  0  0  0  0  0  0  0  0  0
    1.9650   19.6530    0.0750 C   0  0  0  0  0  0  0  0  0  0  0  0
    0.7790   19.3930    1.0080 C   0  0  0  0  0  0  0  0  0  0  0  0
   -0.4580   20.0990    0.5410 C   0  0  2  0  0  0  0  0  0  0  0  0
   -1.4990   20.1940    1.5210 O   0  0  0  0  0  0  0  0  0  0  0  0
   -1.7960   19.4080    0.3560 C   0  0  0  0  0  0  0  0  0  0  0  0
   -1.9650   17.9480    0.6330 C   0  0  0  0  0  0  0  0  0  0  0  0
   -2.8060   20.0360   -0.5540 C   0  0  0  0  0  0  0  0  0  0  0  0
    1.6840   17.2420   -0.5680 C   0  0  1  0  0  0  0  0  0  0  0  0
    0.4410   17.6840   -1.3850 C   0  0  0  0  0  0  0  0  0  0  0  0
    0.0070   16.4630   -2.2360 C   0  0  0  0  0  0  0  0  0  0  0  0
    0.7960   15.2730   -1.6420 C   0  0  1  0  0  0  0  0  0  0  0  0
   -0.0170   14.8420   -0.3810 C   0  0  0  0  0  0  0  0  0  0  0  0
    1.0540   14.0670   -2.6020 C   0  0  2  0  0  0  0  0  0  0  0  0
   -0.2110   13.3500   -3.1050 C   0  0  0  0  0  0  0  0  0  0  0  0
   -0.6800   12.2130   -2.2580 C   0  0  0  0  0  0  0  0  0  0  0  0
    0.0430   11.6020   -1.3000 C   0  0  0  0  0  0  0  0  0  0  0  0
    1.5090   11.9820   -1.0560 C   0  0  1  0  0  0  0  0  0  0  0  0
    2.3640   10.6940   -0.9340 C   0  0  0  0  0  0  0  0  0  0  0  0
    1.8270    9.7330    0.1210 C   0  0  0  0  0  0  0  0  0  0  0  0
    0.3870    9.3320   -0.1880 C   0  0  2  0  0  0  0  0  0  0  0  0
    0.3730    8.5540   -1.3890 O   0  0  0  0  0  0  0  0  0  0  0  0
   -0.5670   10.5490   -0.3430 C   0  0  0  0  0  0  0  0  0  0  0  0
   -0.7880   11.2170    1.0370 C   0  0  0  0  0  0  0  0  0  0  0  0
   -1.9540   10.0140   -0.7920 C   0  0  0  0  0  0  0  0  0  0  0  0
    2.1300   13.0350   -2.0720 C   0  0  1  0  0  0  0  0  0  0  0  0
    2.6940   12.2960   -3.3240 C   0  0  0  0  0  0  0  0  0  0  0  0
    3.3560   13.7470   -1.3870 C   0  0  0  0  0  0  0  0  0  0  0  0
    3.0510   15.0040   -0.5490 C   0  0  0  0  0  0  0  0  0  0  0  0
    2.1650   15.9800   -1.3290 C   0  0  2  0  0  0  0  0  0  0  0  0
    2.9650   16.4480   -2.5920 C   0  0  0  0  0  0  0  0  0  0  0  0
    3.4062   18.0841    1.6457 H   0  0  0  0  0  0  0  0  0  0  0  0
    4.0125   16.8758    0.4629 H   0  0  0  0  0  0  0  0  0  0  0  0
    4.6773   18.5446    0.4629 H   0  0  0  0  0  0  0  0  0  0  0  0
    3.1891   18.5899   -1.3315 H   0  0  0  0  0  0  0  0  0  0  0  0
    2.6874   20.2939    0.6017 H   0  0  0  0  0  0  0  0  0  0  0  0
    1.5633   20.1307   -0.8308 H   0  0  0  0  0  0  0  0  0  0  0  0
    0.5814   18.3114    1.0407 H   0  0  0  0  0  0  0  0  0  0  0  0
    1.0370   19.7766    2.0061 H   0  0  0  0  0  0  0  0  0  0  0  0
    0.1342   20.7494   -0.1196 H   0  0  0  0  0  0  0  0  0  0  0  0
   -1.9843   17.7809    1.7201 H   0  0  0  0  0  0  0  0  0  0  0  0
   -2.9097   17.5979    0.1913 H   0  0  0  0  0  0  0  0  0  0  0  0
   -1.1253   17.3914    0.1913 H   0  0  0  0  0  0  0  0  0  0  0  0
   -3.5885   20.5225    0.0468 H   0  0  0  0  0  0  0  0  0  0  0  0
   -2.3115   20.7861   -1.1886 H   0  0  0  0  0  0  0  0  0  0  0  0
   -3.2600   19.2607   -1.1886 H   0  0  0  0  0  0  0  0  0  0  0  0
    1.4830   16.9934    0.4845 H   0  0  0  0  0  0  0  0  0  0  0  0
   -0.3722   17.9809   -0.7064 H   0  0  0  0  0  0  0  0  0  0  0  0
    0.6758   18.5475   -2.0247 H   0  0  0  0  0  0  0  0  0  0  0  0
   -1.0763   16.2935   -2.1477 H   0  0  0  0  0  0  0  0  0  0  0  0
    0.2127   16.6068   -3.3070 H   0  0  0  0  0  0  0  0  0  0  0  0
    0.5322   15.1332    0.5265 H   0  0  0  0  0  0  0  0  0  0  0  0
   -0.9987   15.3381   -0.3905 H   0  0  0  0  0  0  0  0  0  0  0  0
   -0.1574   13.7510   -0.3905 H   0  0  0  0  0  0  0  0  0  0  0  0
    1.4897   14.5584   -3.4844 H   0  0  0  0  0  0  0  0  0  0  0  0
   -1.0225   14.0906   -3.1592 H   0  0  0  0  0  0  0  0  0  0  0  0
    0.0539   12.9140   -4.0796 H   0  0  0  0  0  0  0  0  0  0  0  0
   -1.7016   11.8436   -2.4311 H   0  0  0  0  0  0  0  0  0  0  0  0
    1.5271   12.5323   -0.1037 H   0  0  0  0  0  0  0  0  0  0  0  0
    2.3702   10.1814   -1.9073 H   0  0  0  0  0  0  0  0  0  0  0  0
    3.3771   10.9937   -0.6276 H   0  0  0  0  0  0  0  0  0  0  0  0
    2.4558    8.8307    0.1393 H   0  0  0  0  0  0  0  0  0  0  0  0
    1.8488   10.2372    1.0984 H   0  0  0  0  0  0  0  0  0  0  0  0
    0.0156    8.7488    0.6675 H   0  0  0  0  0  0  0  0  0  0  0  0
   -0.1250    9.0540   -2.0580 H   0  0  0  0  0  0  0  0  0  0  0  0
   -0.5501   10.4979    1.8347 H   0  0  0  0  0  0  0  0  0  0  0  0
   -0.1327   12.0958    1.1281 H   0  0  0  0  0  0  0  0  0  0  0  0
   -1.8381   11.5316    1.1281 H   0  0  0  0  0  0  0  0  0  0  0  0
   -2.5612    9.7798    0.0948 H   0  0  0  0  0  0  0  0  0  0  0  0
   -2.4648   10.7796   -1.3944 H   0  0  0  0  0  0  0  0  0  0  0  0
   -1.8184    9.1037   -1.3944 H   0  0  0  0  0  0  0  0  0  0  0  0
    3.3318   11.4603   -3.0001 H   0  0  0  0  0  0  0  0  0  0  0  0
    1.8601   11.9083   -3.9275 H   0  0  0  0  0  0  0  0  0  0  0  0
    3.2880   12.9981   -3.9275 H   0  0  0  0  0  0  0  0  0  0  0  0
    3.8383   13.0140   -0.7237 H   0  0  0  0  0  0  0  0  0  0  0  0
    3.9841   14.1007   -2.2179 H   0  0  0  0  0  0  0  0  0  0  0  0
    2.5316   14.7046    0.3733 H   0  0  0  0  0  0  0  0  0  0  0  0
    4.0004   15.5057   -0.3101 H   0  0  0  0  0  0  0  0  0  0  0  0
    3.8739   16.9797   -2.2740 H   0  0  0  0  0  0  0  0  0  0  0  0
    3.2449   15.5712   -3.1944 H   0  0  0  0  0  0  0  0  0  0  0  0
    2.3379   17.1217   -3.1944 H   0  0  0  0  0  0  0  0  0  0  0  0
  1  2  1  0
  2  3  1  0
  3  4  1  0
  4  5  1  0
  5  6  1  0
  6  7  1  0
  7  8  1  0
  7  9  1  0
  2 10  1  0
 10 11  1  0
 11 12  1  0
 12 13  1  0
 13 14  1  1
 13 15  1  0
 15 16  1  0
 16 17  1  0
 17 18  2  0
 18 19  1  0
 19 20  1  0
 20 21  1  0
 21 22  1  0
 22 23  1  0
 22 24  1  0
 24 25  1  0
 24 26  1  0
 19 27  1  0
 27 28  1  6
 27 29  1  0
 29 30  1  0
 30 31  1  0
 31 32  1  6
  7  5  1  0
 31 10  1  0
 31 13  1  0
 27 15  1  0
 24 18  1  0
  1 33  1  0
  1 34  1  0
  1 35  1  0
  2 36  1  6
  3 37  1  0
  3 38  1  0
  4 39  1  0
  4 40  1  0
  5 41  1  6
  8 42  1  0
  8 43  1  0
  8 44  1  0
  9 45  1  0
  9 46  1  0
  9 47  1  0
 10 48  1  1
 11 49  1  0
 11 50  1  0
 12 51  1  0
 12 52  1  0
 14 53  1  0
 14 54  1  0
 14 55  1  0
 15 56  1  6
 16 57  1  0
 16 58  1  0
 17 59  1  0
 19 60  1  1
 20 61  1  0
 20 62  1  0
 21 63  1  0
 21 64  1  0
 22 65  1  1
 23 66  1  0
 25 67  1  0
 25 68  1  0
 25 69  1  0
 26 70  1  0
 26 71  1  0
 26 72  1  0
 28 73  1  0
 28 74  1  0
 28 75  1  0
 29 76  1  0
 29 77  1  0
 30 78  1  0
 30 79  1  0
 32 80  1  0
 32 81  1  0
 32 82  1  0
M  END
>  <meeko>  (7) 
{"is_sidechain": [false], "intermolecular_energy": 2.731, "internal_energy": -0.839}

$$$$
EPH_relaxed_0001_pdb2pqr_Repair_269_r2_0001_out
     RDKit          3D

 82 86  0  0  0  0  0  0  0  0999 V2000
   -5.2180    5.7680   -1.7460 C   0  0  0  0  0  0  0  0  0  0  0  0
   -5.4960    7.2720   -1.8120 C   0  0  2  0  0  0  0  0  0  0  0  0
   -5.2440    7.9690   -0.4600 C   0  0  0  0  0  0  0  0  0  0  0  0
   -4.2190    9.1030   -0.5330 C   0  0  0  0  0  0  0  0  0  0  0  0
   -2.8340    8.5830   -0.7760 C   0  0  2  0  0  0  0  0  0  0  0  0
   -1.8750    8.9440    0.2260 O   0  0  0  0  0  0  0  0  0  0  0  0
   -1.6480    9.4760   -1.0890 C   0  0  0  0  0  0  0  0  0  0  0  0
   -1.7930   10.9630   -1.1780 C   0  0  0  0  0  0  0  0  0  0  0  0
   -0.4660    8.8780   -1.7860 C   0  0  0  0  0  0  0  0  0  0  0  0
   -6.9310    7.5160   -2.2640 C   0  0  1  0  0  0  0  0  0  0  0  0
   -7.2590    6.8200   -3.6120 C   0  0  0  0  0  0  0  0  0  0  0  0
   -8.7390    6.3660   -3.5330 C   0  0  0  0  0  0  0  0  0  0  0  0
   -9.3060    7.1000   -2.2950 C   0  0  1  0  0  0  0  0  0  0  0  0
   -9.6420    8.5380   -2.8000 C   0  0  0  0  0  0  0  0  0  0  0  0
  -10.5360    6.4310   -1.5980 C   0  0  2  0  0  0  0  0  0  0  0  0
  -11.7990    6.3190   -2.4700 C   0  0  0  0  0  0  0  0  0  0  0  0
  -12.7370    7.4780   -2.3860 C   0  0  0  0  0  0  0  0  0  0  0  0
  -12.7200    8.4300   -1.4350 C   0  0  0  0  0  0  0  0  0  0  0  0
  -11.7460    8.3450   -0.2520 C   0  0  1  0  0  0  0  0  0  0  0  0
  -12.5080    8.6390    1.0680 C   0  0  0  0  0  0  0  0  0  0  0  0
  -13.2600    9.9660    1.0250 C   0  0  0  0  0  0  0  0  0  0  0  0
  -14.2590    9.9890   -0.1280 C   0  0  2  0  0  0  0  0  0  0  0  0
  -15.2870    9.0290    0.1320 O   0  0  0  0  0  0  0  0  0  0  0  0
  -13.6080    9.6960   -1.5090 C   0  0  0  0  0  0  0  0  0  0  0  0
  -12.7170   10.8910   -1.9290 C   0  0  0  0  0  0  0  0  0  0  0  0
  -14.7440    9.6100   -2.5640 C   0  0  0  0  0  0  0  0  0  0  0  0
  -10.8710    7.0210   -0.1690 C   0  0  1  0  0  0  0  0  0  0  0  0
  -11.6540    5.9120    0.5980 C   0  0  0  0  0  0  0  0  0  0  0  0
   -9.5750    7.3140    0.6760 C   0  0  0  0  0  0  0  0  0  0  0  0
   -8.3550    7.8610   -0.0900 C   0  0  0  0  0  0  0  0  0  0  0  0
   -8.0650    7.0170   -1.3340 C   0  0  2  0  0  0  0  0  0  0  0  0
   -7.7020    5.5700   -0.8560 C   0  0  0  0  0  0  0  0  0  0  0  0
   -5.1595    5.4517   -0.6941 H   0  0  0  0  0  0  0  0  0  0  0  0
   -6.0305    5.2225   -2.2483 H   0  0  0  0  0  0  0  0  0  0  0  0
   -4.2642    5.5490   -2.2483 H   0  0  0  0  0  0  0  0  0  0  0  0
   -4.7972    7.7058   -2.5424 H   0  0  0  0  0  0  0  0  0  0  0  0
   -6.1969    8.3850   -0.1010 H   0  0  0  0  0  0  0  0  0  0  0  0
   -4.8340    7.2091    0.2215 H   0  0  0  0  0  0  0  0  0  0  0  0
   -4.4947    9.7806   -1.3545 H   0  0  0  0  0  0  0  0  0  0  0  0
   -4.2228    9.6316    0.4317 H   0  0  0  0  0  0  0  0  0  0  0  0
   -3.2325    7.6852   -1.2712 H   0  0  0  0  0  0  0  0  0  0  0  0
   -1.8345   11.3887   -0.1645 H   0  0  0  0  0  0  0  0  0  0  0  0
   -0.9316   11.3838   -1.7174 H   0  0  0  0  0  0  0  0  0  0  0  0
   -2.7194   11.2094   -1.7174 H   0  0  0  0  0  0  0  0  0  0  0  0
    0.2544    8.5135   -1.0389 H   0  0  0  0  0  0  0  0  0  0  0  0
   -0.7974    8.0391   -2.4156 H   0  0  0  0  0  0  0  0  0  0  0  0
    0.0135    9.6419   -2.4156 H   0  0  0  0  0  0  0  0  0  0  0  0
   -6.9288    8.6155   -2.2976 H   0  0  0  0  0  0  0  0  0  0  0  0
   -7.1232    7.5252   -4.4452 H   0  0  0  0  0  0  0  0  0  0  0  0
   -6.5919    5.9629   -3.7863 H   0  0  0  0  0  0  0  0  0  0  0  0
   -9.2844    6.6594   -4.4421 H   0  0  0  0  0  0  0  0  0  0  0  0
   -8.8367    5.2734   -3.4515 H   0  0  0  0  0  0  0  0  0  0  0  0
   -9.7973    9.2026   -1.9373 H   0  0  0  0  0  0  0  0  0  0  0  0
   -8.8082    8.9168   -3.4093 H   0  0  0  0  0  0  0  0  0  0  0  0
  -10.5574    8.5081   -3.4093 H   0  0  0  0  0  0  0  0  0  0  0  0
  -10.1872    5.3993   -1.4436 H   0  0  0  0  0  0  0  0  0  0  0  0
  -11.4805    6.2147   -3.5177 H   0  0  0  0  0  0  0  0  0  0  0  0
  -12.3551    5.4493   -2.0899 H   0  0  0  0  0  0  0  0  0  0  0  0
  -13.5068    7.5605   -3.1674 H   0  0  0  0  0  0  0  0  0  0  0  0
  -10.9869    9.1218   -0.4260 H   0  0  0  0  0  0  0  0  0  0  0  0
  -13.2310    7.8293    1.2459 H   0  0  0  0  0  0  0  0  0  0  0  0
  -11.7646    8.7019    1.8764 H   0  0  0  0  0  0  0  0  0  0  0  0
  -13.8008   10.1043    1.9728 H   0  0  0  0  0  0  0  0  0  0  0  0
  -12.5324   10.7774    0.8757 H   0  0  0  0  0  0  0  0  0  0  0  0
  -14.6719   11.0069   -0.1852 H   0  0  0  0  0  0  0  0  0  0  0  0
  -15.0610    8.2170   -0.3510 H   0  0  0  0  0  0  0  0  0  0  0  0
  -12.3379   11.3994   -1.0302 H   0  0  0  0  0  0  0  0  0  0  0  0
  -11.8701   10.5243   -2.5276 H   0  0  0  0  0  0  0  0  0  0  0  0
  -13.3101   11.5981   -2.5276 H   0  0  0  0  0  0  0  0  0  0  0  0
  -15.7149    9.5365   -2.0522 H   0  0  0  0  0  0  0  0  0  0  0  0
  -14.7287   10.5119   -3.1936 H   0  0  0  0  0  0  0  0  0  0  0  0
  -14.5931    8.7207   -3.1936 H   0  0  0  0  0  0  0  0  0  0  0  0
  -11.5439    6.0680    1.6813 H   0  0  0  0  0  0  0  0  0  0  0  0
  -12.7189    5.9609    0.3269 H   0  0  0  0  0  0  0  0  0  0  0  0
  -11.2515    4.9248    0.3269 H   0  0  0  0  0  0  0  0  0  0  0  0
   -9.8408    8.0509    1.4482 H   0  0  0  0  0  0  0  0  0  0  0  0
   -9.2564    6.3349    1.0632 H   0  0  0  0  0  0  0  0  0  0  0  0
   -8.5585    8.8973   -0.3977 H   0  0  0  0  0  0  0  0  0  0  0  0
   -7.4781    7.8211    0.5729 H   0  0  0  0  0  0  0  0  0  0  0  0
   -7.6940    5.5383    0.2435 H   0  0  0  0  0  0  0  0  0  0  0  0
   -8.4497    4.8593   -1.2379 H   0  0  0  0  0  0  0  0  0  0  0  0
   -6.7074    5.2964   -1.2379 H   0  0  0  0  0  0  0  0  0  0  0  0
  1  2  1  0
  2  3  1  0
  3  4  1  0
  4  5  1  0
  5  6  1  0
  6  7  1  0
  7  8  1  0
  7  9  1  0
  2 10  1  0
 10 11  1  0
 11 12  1  0
 12 13  1  0
 13 14  1  6
 13 15  1  0
 15 16  1  0
 16 17  1  0
 17 18  2  0
 18 19  1  0
 19 20  1  0
 20 21  1  0
 21 22  1  0
 22 23  1  0
 22 24  1  0
 24 25  1  0
 24 26  1  0
 19 27  1  0
 27 28  1  1
 27 29  1  0
 29 30  1  0
 30 31  1  0
 31 32  1  1
  7  5  1  0
 31 10  1  0
 31 13  1  0
 27 15  1  0
 24 18  1  0
  1 33  1  0
  1 34  1  0
  1 35  1  0
  2 36  1  6
  3 37  1  0
  3 38  1  0
  4 39  1  0
  4 40  1  0
  5 41  1  6
  8 42  1  0
  8 43  1  0
  8 44  1  0
  9 45  1  0
  9 46  1  0
  9 47  1  0
 10 48  1  6
 11 49  1  0
 11 50  1  0
 12 51  1  0
 12 52  1  0
 14 53  1  0
 14 54  1  0
 14 55  1  0
 15 56  1  1
 16 57  1  0
 16 58  1  0
 17 59  1  0
 19 60  1  6
 20 61  1  0
 20 62  1  0
 21 63  1  0
 21 64  1  0
 22 65  1  6
 23 66  1  0
 25 67  1  0
 25 68  1  0
 25 69  1  0
 26 70  1  0
 26 71  1  0
 26 72  1  0
 28 73  1  0
 28 74  1  0
 28 75  1  0
 29 76  1  0
 29 77  1  0
 30 78  1  0
 30 79  1  0
 32 80  1  0
 32 81  1  0
 32 82  1  0
M  END
>  <meeko>  (8) 
{"is_sidechain": [false], "intermolecular_energy": 2.731, "internal_energy": -0.839}

$$$$
EPH_relaxed_0001_pdb2pqr_Repair_269_r2_0001_out
     RDKit          3D

 82 86  0  0  0  0  0  0  0  0999 V2000
   -0.0600   10.4330   -3.7180 C   0  0  0  0  0  0  0  0  0  0  0  0
    1.0350   10.2490   -2.6630 C   0  0  2  0  0  0  0  0  0  0  0  0
    0.8240    8.9730   -1.8240 C   0  0  0  0  0  0  0  0  0  0  0  0
    0.1860    9.2340   -0.4560 C   0  0  0  0  0  0  0  0  0  0  0  0
   -1.2320    8.7530   -0.4050 C   0  0  2  0  0  0  0  0  0  0  0  0
   -1.9260    8.8000   -1.6580 O   0  0  0  0  0  0  0  0  0  0  0  0
   -2.4310    9.6570   -0.6220 C   0  0  0  0  0  0  0  0  0  0  0  0
   -2.2660   11.1170   -0.9050 C   0  0  0  0  0  0  0  0  0  0  0  0
   -3.7580    9.2290   -0.0780 C   0  0  0  0  0  0  0  0  0  0  0  0
    1.0890   11.4690   -1.7520 C   0  0  1  0  0  0  0  0  0  0  0  0
    2.1460   11.3260   -0.6240 C   0  0  0  0  0  0  0  0  0  0  0  0
    2.7350   12.7390   -0.3810 C   0  0  0  0  0  0  0  0  0  0  0  0
    1.7780   13.6950   -1.1300 C   0  0  1  0  0  0  0  0  0  0  0  0
    0.5710   13.8940   -0.1610 C   0  0  0  0  0  0  0  0  0  0  0  0
    2.3830   15.0620   -1.5870 C   0  0  2  0  0  0  0  0  0  0  0  0
    2.8670   15.9750   -0.4460 C   0  0  0  0  0  0  0  0  0  0  0  0
    1.8470   16.9250    0.0870 C   0  0  0  0  0  0  0  0  0  0  0  0
    0.6850   17.2430   -0.5130 C   0  0  0  0  0  0  0  0  0  0  0  0
    0.3430   16.6980   -1.9060 C   0  0  1  0  0  0  0  0  0  0  0  0
   -0.1920   17.8510   -2.7960 C   0  0  0  0  0  0  0  0  0  0  0  0
   -1.3630   18.5900   -2.1550 C   0  0  0  0  0  0  0  0  0  0  0  0
   -0.9670   19.1660   -0.7980 C   0  0  2  0  0  0  0  0  0  0  0  0
    0.0070   20.1940   -1.0000 O   0  0  0  0  0  0  0  0  0  0  0  0
   -0.4040   18.0980    0.1810 C   0  0  0  0  0  0  0  0  0  0  0  0
   -1.5460   17.1560    0.6360 C   0  0  0  0  0  0  0  0  0  0  0  0
    0.0880   18.8320    1.4570 C   0  0  0  0  0  0  0  0  0  0  0  0
    1.4860   15.8560   -2.6210 C   0  0  1  0  0  0  0  0  0  0  0  0
    2.4420   16.8100   -3.4000 C   0  0  0  0  0  0  0  0  0  0  0  0
    0.8320   14.9090   -3.6950 C   0  0  0  0  0  0  0  0  0  0  0  0
    0.3620   13.5250   -3.2070 C   0  0  0  0  0  0  0  0  0  0  0  0
    1.4600   12.8260   -2.4010 C   0  0  2  0  0  0  0  0  0  0  0  0
    2.6800   12.5920   -3.3570 C   0  0  0  0  0  0  0  0  0  0  0  0
   -1.0266   10.5954   -3.2187 H   0  0  0  0  0  0  0  0  0  0  0  0
    0.1789   11.3036   -4.3465 H   0  0  0  0  0  0  0  0  0  0  0  0
   -0.1187    9.5321   -4.3465 H   0  0  0  0  0  0  0  0  0  0  0  0
    1.9919   10.1398   -3.1944 H   0  0  0  0  0  0  0  0  0  0  0  0
    0.1704    8.2910   -2.3876 H   0  0  0  0  0  0  0  0  0  0  0  0
    1.8190    8.5425   -1.6378 H   0  0  0  0  0  0  0  0  0  0  0  0
    0.7686    8.7086    0.3151 H   0  0  0  0  0  0  0  0  0  0  0  0
    0.1864   10.3197   -0.2790 H   0  0  0  0  0  0  0  0  0  0  0  0
   -0.9838    8.0347    0.3903 H   0  0  0  0  0  0  0  0  0  0  0  0
   -2.2035   11.6697    0.0440 H   0  0  0  0  0  0  0  0  0  0  0  0
   -1.3441   11.2765   -1.4835 H   0  0  0  0  0  0  0  0  0  0  0  0
   -3.1290   11.4782   -1.4835 H   0  0  0  0  0  0  0  0  0  0  0  0
   -3.7243    9.2399    1.0214 H   0  0  0  0  0  0  0  0  0  0  0  0
   -4.5382    9.9211   -0.4278 H   0  0  0  0  0  0  0  0  0  0  0  0
   -3.9868    8.2115   -0.4278 H   0  0  0  0  0  0  0  0  0  0  0  0
    0.0440   11.4891   -1.4092 H   0  0  0  0  0  0  0  0  0  0  0  0
    1.6713   10.9504    0.2945 H   0  0  0  0  0  0  0  0  0  0  0  0
    2.9340   10.6135   -0.9093 H   0  0  0  0  0  0  0  0  0  0  0  0
    2.7540   12.9721    0.6938 H   0  0  0  0  0  0  0  0  0  0  0  0
    3.7726   12.8250   -0.7361 H   0  0  0  0  0  0  0  0  0  0  0  0
    0.9228   13.8360    0.8796 H   0  0  0  0  0  0  0  0  0  0  0  0
    0.1158   14.8793   -0.3398 H   0  0  0  0  0  0  0  0  0  0  0  0
   -0.1764   13.1070   -0.3398 H   0  0  0  0  0  0  0  0  0  0  0  0
    3.2896   14.7496   -2.1260 H   0  0  0  0  0  0  0  0  0  0  0  0
    3.2009   15.3343    0.3835 H   0  0  0  0  0  0  0  0  0  0  0  0
    3.6679   16.5966   -0.8728 H   0  0  0  0  0  0  0  0  0  0  0  0
    2.0632   17.4062    1.0522 H   0  0  0  0  0  0  0  0  0  0  0  0
   -0.4460   15.9469   -1.7533 H   0  0  0  0  0  0  0  0  0  0  0  0
    0.6235   18.5679   -2.9721 H   0  0  0  0  0  0  0  0  0  0  0  0
   -0.5515   17.4076   -3.7363 H   0  0  0  0  0  0  0  0  0  0  0  0
   -1.6766   19.4107   -2.8169 H   0  0  0  0  0  0  0  0  0  0  0  0
   -2.1888   17.8785   -2.0071 H   0  0  0  0  0  0  0  0  0  0  0  0
   -1.8787   19.5683   -0.3322 H   0  0  0  0  0  0  0  0  0  0  0  0
   -0.2840   20.9770   -0.5030 H   0  0  0  0  0  0  0  0  0  0  0  0
   -1.5813   17.1269    1.7350 H   0  0  0  0  0  0  0  0  0  0  0  0
   -2.5054   17.5289    0.2481 H   0  0  0  0  0  0  0  0  0  0  0  0
   -1.3624   16.1432    0.2481 H   0  0  0  0  0  0  0  0  0  0  0  0
   -0.2705   18.2972    2.3489 H   0  0  0  0  0  0  0  0  0  0  0  0
    1.1876   18.8594    1.4632 H   0  0  0  0  0  0  0  0  0  0  0  0
   -0.3045   19.8596    1.4632 H   0  0  0  0  0  0  0  0  0  0  0  0
    3.0336   17.4004   -2.6848 H   0  0  0  0  0  0  0  0  0  0  0  0
    3.1179   16.2156   -4.0324 H   0  0  0  0  0  0  0  0  0  0  0  0
    1.8490   17.4871   -4.0324 H   0  0  0  0  0  0  0  0  0  0  0  0
   -0.0433   15.4305   -4.1096 H   0  0  0  0  0  0  0  0  0  0  0  0
    1.6319   14.7017   -4.4211 H   0  0  0  0  0  0  0  0  0  0  0  0
   -0.5267   13.6504   -2.5710 H   0  0  0  0  0  0  0  0  0  0  0  0
    0.1233   12.9062   -4.0846 H   0  0  0  0  0  0  0  0  0  0  0  0
    3.5866   12.4181   -2.7587 H   0  0  0  0  0  0  0  0  0  0  0  0
    2.4856   11.7148   -3.9916 H   0  0  0  0  0  0  0  0  0  0  0  0
    2.8240   13.4789   -3.9916 H   0  0  0  0  0  0  0  0  0  0  0  0
  1  2  1  0
  2  3  1  0
  3  4  1  0
  4  5  1  0
  5  6  1  0
  6  7  1  0
  7  8  1  0
  7  9  1  0
  2 10  1  0
 10 11  1  0
 11 12  1  0
 12 13  1  0
 13 14  1  1
 13 15  1  0
 15 16  1  0
 16 17  1  0
 17 18  2  0
 18 19  1  0
 19 20  1  0
 20 21  1  0
 21 22  1  0
 22 23  1  0
 22 24  1  0
 24 25  1  0
 24 26  1  0
 19 27  1  0
 27 28  1  6
 27 29  1  0
 29 30  1  0
 30 31  1  0
 31 32  1  6
  7  5  1  0
 31 10  1  0
 31 13  1  0
 27 15  1  0
 24 18  1  0
  1 33  1  0
  1 34  1  0
  1 35  1  0
  2 36  1  6
  3 37  1  0
  3 38  1  0
  4 39  1  0
  4 40  1  0
  5 41  1  1
  8 42  1  0
  8 43  1  0
  8 44  1  0
  9 45  1  0
  9 46  1  0
  9 47  1  0
 10 48  1  1
 11 49  1  0
 11 50  1  0
 12 51  1  0
 12 52  1  0
 14 53  1  0
 14 54  1  0
 14 55  1  0
 15 56  1  6
 16 57  1  0
 16 58  1  0
 17 59  1  0
 19 60  1  1
 20 61  1  0
 20 62  1  0
 21 63  1  0
 21 64  1  0
 22 65  1  1
 23 66  1  0
 25 67  1  0
 25 68  1  0
 25 69  1  0
 26 70  1  0
 26 71  1  0
 26 72  1  0
 28 73  1  0
 28 74  1  0
 28 75  1  0
 29 76  1  0
 29 77  1  0
 30 78  1  0
 30 79  1  0
 32 80  1  0
 32 81  1  0
 32 82  1  0
M  END
>  <meeko>  (9) 
{"is_sidechain": [false], "intermolecular_energy": 2.731, "internal_energy": -0.839}

$$$$
EPH_relaxed_0001_pdb2pqr_Repair_269_r2_0001_out
     RDKit          3D

 82 86  0  0  0  0  0  0  0  0999 V2000
    0.4370    8.7980   -2.3640 C   0  0  0  0  0  0  0  0  0  0  0  0
    1.1770    9.9410   -3.0650 C   0  0  2  0  0  0  0  0  0  0  0  0
    2.6780    9.9620   -2.7150 C   0  0  0  0  0  0  0  0  0  0  0  0
    3.5550   10.5860   -3.8040 C   0  0  0  0  0  0  0  0  0  0  0  0
    4.9540   10.8240   -3.3200 C   0  0  2  0  0  0  0  0  0  0  0  0
    5.5510   12.0390   -3.7910 O   0  0  0  0  0  0  0  0  0  0  0  0
    6.1670   10.8180   -4.2320 C   0  0  0  0  0  0  0  0  0  0  0  0
    6.0370   10.5670   -5.7010 C   0  0  0  0  0  0  0  0  0  0  0  0
    7.5140   10.5700   -3.6280 C   0  0  0  0  0  0  0  0  0  0  0  0
    0.5380   11.2760   -2.6990 C   0  0  1  0  0  0  0  0  0  0  0  0
   -0.8390   11.1080   -2.0030 C   0  0  0  0  0  0  0  0  0  0  0  0
   -0.9540   12.2490   -0.9590 C   0  0  0  0  0  0  0  0  0  0  0  0
    0.1960   13.2200   -1.3140 C   0  0  1  0  0  0  0  0  0  0  0  0
   -0.3540   14.0770   -2.4970 C   0  0  0  0  0  0  0  0  0  0  0  0
    0.7270   14.1180   -0.1490 C   0  0  2  0  0  0  0  0  0  0  0  0
   -0.3040   15.0950    0.4430 C   0  0  0  0  0  0  0  0  0  0  0  0
   -0.3470   16.4420   -0.2000 C   0  0  0  0  0  0  0  0  0  0  0  0
    0.5950   16.9500   -1.0160 C   0  0  0  0  0  0  0  0  0  0  0  0
    1.8960   16.1850   -1.2900 C   0  0  1  0  0  0  0  0  0  0  0  0
    3.1020   17.1510   -1.1610 C   0  0  0  0  0  0  0  0  0  0  0  0
    2.9570   18.3890   -2.0410 C   0  0  0  0  0  0  0  0  0  0  0  0
    1.6810   19.1550   -1.6990 C   0  0  2  0  0  0  0  0  0  0  0  0
    1.8070   19.6950   -0.3800 O   0  0  0  0  0  0  0  0  0  0  0  0
    0.4000   18.2800   -1.7860 C   0  0  0  0  0  0  0  0  0  0  0  0
    0.0970   17.9440   -3.2670 C   0  0  0  0  0  0  0  0  0  0  0  0
   -0.7960   19.1330   -1.2810 C   0  0  0  0  0  0  0  0  0  0  0  0
    2.0980   14.8430   -0.4620 C   0  0  1  0  0  0  0  0  0  0  0  0
    2.7580   15.1610    0.9140 C   0  0  0  0  0  0  0  0  0  0  0  0
    3.1050   13.9100   -1.2330 C   0  0  0  0  0  0  0  0  0  0  0  0
    2.5050   12.9610   -2.2880 C   0  0  0  0  0  0  0  0  0  0  0  0
    1.3120   12.1890   -1.7150 C   0  0  2  0  0  0  0  0  0  0  0  0
    1.8390   11.3010   -0.5370 C   0  0  0  0  0  0  0  0  0  0  0  0
    0.5178    8.9228   -1.2741 H   0  0  0  0  0  0  0  0  0  0  0  0
   -0.6231    8.8132   -2.6572 H   0  0  0  0  0  0  0  0  0  0  0  0
    0.8848    7.8370   -2.6572 H   0  0  0  0  0  0  0  0  0  0  0  0
    1.0932    9.7735   -4.1489 H   0  0  0  0  0  0  0  0  0  0  0  0
    2.8106   10.5401   -1.7886 H   0  0  0  0  0  0  0  0  0  0  0  0
    2.9974    8.9151   -2.6056 H   0  0  0  0  0  0  0  0  0  0  0  0
    3.5875    9.9066   -4.6685 H   0  0  0  0  0  0  0  0  0  0  0  0
    3.1183   11.5566   -4.0820 H   0  0  0  0  0  0  0  0  0  0  0  0
    4.7403   10.3062   -2.3733 H   0  0  0  0  0  0  0  0  0  0  0  0
    5.5368    9.6012   -5.8651 H   0  0  0  0  0  0  0  0  0  0  0  0
    5.4418   11.3707   -6.1590 H   0  0  0  0  0  0  0  0  0  0  0  0
    7.0368   10.5446   -6.1590 H   0  0  0  0  0  0  0  0  0  0  0  0
    7.4324   10.5850   -2.5311 H   0  0  0  0  0  0  0  0  0  0  0  0
    7.8871    9.5881   -3.9545 H   0  0  0  0  0  0  0  0  0  0  0  0
    8.2123   11.3547   -3.9545 H   0  0  0  0  0  0  0  0  0  0  0  0
    0.5009   11.7419   -3.6948 H   0  0  0  0  0  0  0  0  0  0  0  0
   -1.6495   11.1878   -2.7424 H   0  0  0  0  0  0  0  0  0  0  0  0
   -0.9210   10.1222   -1.5218 H   0  0  0  0  0  0  0  0  0  0  0  0
   -1.9278   12.7539   -1.0412 H   0  0  0  0  0  0  0  0  0  0  0  0
   -0.8827   11.8779    0.0741 H   0  0  0  0  0  0  0  0  0  0  0  0
   -0.9077   14.9398   -2.0983 H   0  0  0  0  0  0  0  0  0  0  0  0
    0.4849   14.4327   -3.1132 H   0  0  0  0  0  0  0  0  0  0  0  0
   -1.0268   13.4625   -3.1132 H   0  0  0  0  0  0  0  0  0  0  0  0
    0.9299   13.3818    0.6428 H   0  0  0  0  0  0  0  0  0  0  0  0
   -1.3002   14.6391    0.3445 H   0  0  0  0  0  0  0  0  0  0  0  0
    0.0009   15.2648    1.4862 H   0  0  0  0  0  0  0  0  0  0  0  0
   -1.2231   17.0727    0.0112 H   0  0  0  0  0  0  0  0  0  0  0  0
    1.8211   15.8182   -2.3243 H   0  0  0  0  0  0  0  0  0  0  0  0
    3.1861   17.4718   -0.1122 H   0  0  0  0  0  0  0  0  0  0  0  0
    4.0004   16.6094   -1.4921 H   0  0  0  0  0  0  0  0  0  0  0  0
    3.8248   19.0464   -1.8834 H   0  0  0  0  0  0  0  0  0  0  0  0
    2.9032   18.0685   -3.0919 H   0  0  0  0  0  0  0  0  0  0  0  0
    1.5656   19.9545   -2.4456 H   0  0  0  0  0  0  0  0  0  0  0  0
    2.7560   19.7580   -0.1780 H   0  0  0  0  0  0  0  0  0  0  0  0
   -0.6390   17.1279   -3.3147 H   0  0  0  0  0  0  0  0  0  0  0  0
   -0.3096   18.8342   -3.7692 H   0  0  0  0  0  0  0  0  0  0  0  0
    1.0244   17.6312   -3.7692 H   0  0  0  0  0  0  0  0  0  0  0  0
   -0.8038   19.1386   -0.1810 H   0  0  0  0  0  0  0  0  0  0  0  0
   -0.6940   20.1635   -1.6522 H   0  0  0  0  0  0  0  0  0  0  0  0
   -1.7371   18.7010   -1.6522 H   0  0  0  0  0  0  0  0  0  0  0  0
    2.0885   14.8384    1.7250 H   0  0  0  0  0  0  0  0  0  0  0  0
    3.7154   14.6254    0.9940 H   0  0  0  0  0  0  0  0  0  0  0  0
    2.9357   16.2436    0.9940 H   0  0  0  0  0  0  0  0  0  0  0  0
    3.8336   14.5569   -1.7435 H   0  0  0  0  0  0  0  0  0  0  0  0
    3.5330   13.2507   -0.4635 H   0  0  0  0  0  0  0  0  0  0  0  0
    2.1697   13.5510   -3.1537 H   0  0  0  0  0  0  0  0  0  0  0  0
    3.2777   12.2390   -2.5906 H   0  0  0  0  0  0  0  0  0  0  0  0
    1.5643   11.7638    0.4224 H   0  0  0  0  0  0  0  0  0  0  0  0
    1.3890   10.2994   -0.6031 H   0  0  0  0  0  0  0  0  0  0  0  0
    2.9337   11.2162   -0.6031 H   0  0  0  0  0  0  0  0  0  0  0  0
  1  2  1  0
  2  3  1  0
  3  4  1  0
  4  5  1  0
  5  6  1  0
  6  7  1  0
  7  8  1  0
  7  9  1  0
  2 10  1  0
 10 11  1  0
 11 12  1  0
 12 13  1  0
 13 14  1  6
 13 15  1  0
 15 16  1  0
 16 17  1  0
 17 18  2  0
 18 19  1  0
 19 20  1  0
 20 21  1  0
 21 22  1  0
 22 23  1  0
 22 24  1  0
 24 25  1  0
 24 26  1  0
 19 27  1  0
 27 28  1  1
 27 29  1  0
 29 30  1  0
 30 31  1  0
 31 32  1  1
  7  5  1  0
 31 10  1  0
 31 13  1  0
 27 15  1  0
 24 18  1  0
  1 33  1  0
  1 34  1  0
  1 35  1  0
  2 36  1  6
  3 37  1  0
  3 38  1  0
  4 39  1  0
  4 40  1  0
  5 41  1  1
  8 42  1  0
  8 43  1  0
  8 44  1  0
  9 45  1  0
  9 46  1  0
  9 47  1  0
 10 48  1  6
 11 49  1  0
 11 50  1  0
 12 51  1  0
 12 52  1  0
 14 53  1  0
 14 54  1  0
 14 55  1  0
 15 56  1  1
 16 57  1  0
 16 58  1  0
 17 59  1  0
 19 60  1  6
 20 61  1  0
 20 62  1  0
 21 63  1  0
 21 64  1  0
 22 65  1  6
 23 66  1  0
 25 67  1  0
 25 68  1  0
 25 69  1  0
 26 70  1  0
 26 71  1  0
 26 72  1  0
 28 73  1  0
 28 74  1  0
 28 75  1  0
 29 76  1  0
 29 77  1  0
 30 78  1  0
 30 79  1  0
 32 80  1  0
 32 81  1  0
 32 82  1  0
M  END
>  <meeko>  (10) 
{"is_sidechain": [false], "intermolecular_energy": 2.731, "internal_energy": -0.839}

$$$$
EPH_relaxed_0001_pdb2pqr_Repair_269_r2_0001_out
     RDKit          3D

 82 86  0  0  0  0  0  0  0  0999 V2000
    3.3820   18.4260   -3.5330 C   0  0  0  0  0  0  0  0  0  0  0  0
    2.1670   18.1730   -2.6370 C   0  0  2  0  0  0  0  0  0  0  0  0
    1.9600   19.3020   -1.6070 C   0  0  0  0  0  0  0  0  0  0  0  0
    0.6370   20.0540   -1.7760 C   0  0  0  0  0  0  0  0  0  0  0  0
   -0.4980   19.3370   -1.1100 C   0  0  2  0  0  0  0  0  0  0  0  0
   -1.4610   20.1930   -0.4830 O   0  0  0  0  0  0  0  0  0  0  0  0
   -0.7170   19.3300    0.3910 C   0  0  0  0  0  0  0  0  0  0  0  0
    0.2090   20.0550    1.3180 C   0  0  0  0  0  0  0  0  0  0  0  0
   -1.5340   18.2290    0.9900 C   0  0  0  0  0  0  0  0  0  0  0  0
    2.3200   16.8360   -1.9210 C   0  0  1  0  0  0  0  0  0  0  0  0
    2.6140   17.0000   -0.4060 C   0  0  0  0  0  0  0  0  0  0  0  0
    1.9040   15.8270    0.3170 C   0  0  0  0  0  0  0  0  0  0  0  0
    1.5100   14.8510   -0.8160 C   0  0  1  0  0  0  0  0  0  0  0  0
    2.8100   14.0430   -1.1200 C   0  0  0  0  0  0  0  0  0  0  0  0
    0.2980   13.9070   -0.5250 C   0  0  2  0  0  0  0  0  0  0  0  0
    0.5010   12.9250    0.6410 C   0  0  0  0  0  0  0  0  0  0  0  0
    1.0820   11.6020    0.2670 C   0  0  0  0  0  0  0  0  0  0  0  0
    1.1630   11.1080   -0.9820 C   0  0  0  0  0  0  0  0  0  0  0  0
    0.5500   11.8630   -2.1690 C   0  0  1  0  0  0  0  0  0  0  0  0
   -0.2600   10.8750   -3.0490 C   0  0  0  0  0  0  0  0  0  0  0  0
    0.5660    9.6710   -3.4880 C   0  0  0  0  0  0  0  0  0  0  0  0
    1.1100    8.9120   -2.2800 C   0  0  2  0  0  0  0  0  0  0  0  0
    0.0130    8.3260   -1.5720 O   0  0  0  0  0  0  0  0  0  0  0  0
    1.9360    9.8080   -1.3150 C   0  0  0  0  0  0  0  0  0  0  0  0
    3.2760   10.1980   -1.9860 C   0  0  0  0  0  0  0  0  0  0  0  0
    2.3050    8.9560   -0.0710 C   0  0  0  0  0  0  0  0  0  0  0  0
   -0.2740   13.1730   -1.8060 C   0  0  1  0  0  0  0  0  0  0  0  0
   -1.7530   12.8000   -1.4810 C   0  0  0  0  0  0  0  0  0  0  0  0
   -0.3200   14.1170   -3.0650 C   0  0  0  0  0  0  0  0  0  0  0  0
    0.8450   15.1100   -3.2330 C   0  0  0  0  0  0  0  0  0  0  0  0
    1.1020   15.8790   -1.9340 C   0  0  2  0  0  0  0  0  0  0  0  0
   -0.1820   16.7190   -1.6140 C   0  0  0  0  0  0  0  0  0  0  0  0
    4.2674   18.6104   -2.9068 H   0  0  0  0  0  0  0  0  0  0  0  0
    3.5590   17.5454   -4.1681 H   0  0  0  0  0  0  0  0  0  0  0  0
    3.1928   19.3040   -4.1681 H   0  0  0  0  0  0  0  0  0  0  0  0
    1.2774   18.1493   -3.2835 H   0  0  0  0  0  0  0  0  0  0  0  0
    1.9828   18.8614   -0.5994 H   0  0  0  0  0  0  0  0  0  0  0  0
    2.7674   20.0324   -1.7639 H   0  0  0  0  0  0  0  0  0  0  0  0
    0.7366   21.0548   -1.3306 H   0  0  0  0  0  0  0  0  0  0  0  0
    0.4160   20.1209   -2.8515 H   0  0  0  0  0  0  0  0  0  0  0  0
   -0.4533   18.5271   -1.8530 H   0  0  0  0  0  0  0  0  0  0  0  0
   -0.0698   19.8367    2.3595 H   0  0  0  0  0  0  0  0  0  0  0  0
    1.2422   19.7232    1.1377 H   0  0  0  0  0  0  0  0  0  0  0  0
    0.1348   21.1376    1.1377 H   0  0  0  0  0  0  0  0  0  0  0  0
   -1.4868   18.2926    2.0871 H   0  0  0  0  0  0  0  0  0  0  0  0
   -2.5792   18.3277    0.6616 H   0  0  0  0  0  0  0  0  0  0  0  0
   -1.1367   17.2572    0.6616 H   0  0  0  0  0  0  0  0  0  0  0  0
    3.1435   16.4049   -2.5093 H   0  0  0  0  0  0  0  0  0  0  0  0
    3.6979   16.9568   -0.2237 H   0  0  0  0  0  0  0  0  0  0  0  0
    2.2505   17.9700   -0.0359 H   0  0  0  0  0  0  0  0  0  0  0  0
    2.5863   15.3399    1.0292 H   0  0  0  0  0  0  0  0  0  0  0  0
    1.0335   16.1622    0.9000 H   0  0  0  0  0  0  0  0  0  0  0  0
    3.2870   13.7465   -0.1742 H   0  0  0  0  0  0  0  0  0  0  0  0
    2.5555   13.1437   -1.7000 H   0  0  0  0  0  0  0  0  0  0  0  0
    3.5038   14.6693   -1.7000 H   0  0  0  0  0  0  0  0  0  0  0  0
   -0.4756   14.6133   -0.1892 H   0  0  0  0  0  0  0  0  0  0  0  0
    1.1749   13.3981    1.3704 H   0  0  0  0  0  0  0  0  0  0  0  0
   -0.5024   12.7147    1.0398 H   0  0  0  0  0  0  0  0  0  0  0  0
    1.4776   10.9777    1.0817 H   0  0  0  0  0  0  0  0  0  0  0  0
    1.3972   12.2658   -2.7434 H   0  0  0  0  0  0  0  0  0  0  0  0
   -1.1257   10.5173   -2.4723 H   0  0  0  0  0  0  0  0  0  0  0  0
   -0.5723   11.4141   -3.9555 H   0  0  0  0  0  0  0  0  0  0  0  0
   -0.0686    8.9961   -4.0811 H   0  0  0  0  0  0  0  0  0  0  0  0
    1.4150   10.0284   -4.0892 H   0  0  0  0  0  0  0  0  0  0  0  0
    1.7973    8.1403   -2.6569 H   0  0  0  0  0  0  0  0  0  0  0  0
    0.3820    7.7880   -0.8510 H   0  0  0  0  0  0  0  0  0  0  0  0
    4.0248   10.4159   -1.2102 H   0  0  0  0  0  0  0  0  0  0  0  0
    3.6285    9.3652   -2.6122 H   0  0  0  0  0  0  0  0  0  0  0  0
    3.1266   11.0899   -2.6122 H   0  0  0  0  0  0  0  0  0  0  0  0
    2.0619    9.5174    0.8432 H   0  0  0  0  0  0  0  0  0  0  0  0
    1.7331    8.0165   -0.0873 H   0  0  0  0  0  0  0  0  0  0  0  0
    3.3815    8.7304   -0.0873 H   0  0  0  0  0  0  0  0  0  0  0  0
   -1.8912   12.7652   -0.3903 H   0  0  0  0  0  0  0  0  0  0  0  0
   -2.4251   13.5568   -1.9117 H   0  0  0  0  0  0  0  0  0  0  0  0
   -1.9859   11.8150   -1.9117 H   0  0  0  0  0  0  0  0  0  0  0  0
   -0.3433   13.4773   -3.9596 H   0  0  0  0  0  0  0  0  0  0  0  0
   -1.2129   14.7434   -2.9218 H   0  0  0  0  0  0  0  0  0  0  0  0
    1.7539   14.5550   -3.5083 H   0  0  0  0  0  0  0  0  0  0  0  0
    0.5803   15.8309   -4.0206 H   0  0  0  0  0  0  0  0  0  0  0  0
   -0.3052   16.7996   -0.5239 H   0  0  0  0  0  0  0  0  0  0  0  0
   -0.0793   17.7251   -2.0468 H   0  0  0  0  0  0  0  0  0  0  0  0
   -1.0627   16.2219   -2.0468 H   0  0  0  0  0  0  0  0  0  0  0  0
  1  2  1  0
  2  3  1  0
  3  4  1  0
  4  5  1  0
  5  6  1  0
  6  7  1  0
  7  8  1  0
  7  9  1  0
  2 10  1  0
 10 11  1  0
 11 12  1  0
 12 13  1  0
 13 14  1  6
 13 15  1  0
 15 16  1  0
 16 17  1  0
 17 18  2  0
 18 19  1  0
 19 20  1  0
 20 21  1  0
 21 22  1  0
 22 23  1  0
 22 24  1  0
 24 25  1  0
 24 26  1  0
 19 27  1  0
 27 28  1  1
 27 29  1  0
 29 30  1  0
 30 31  1  0
 31 32  1  1
  7  5  1  0
 31 10  1  0
 31 13  1  0
 27 15  1  0
 24 18  1  0
  1 33  1  0
  1 34  1  0
  1 35  1  0
  2 36  1  6
  3 37  1  0
  3 38  1  0
  4 39  1  0
  4 40  1  0
  5 41  1  6
  8 42  1  0
  8 43  1  0
  8 44  1  0
  9 45  1  0
  9 46  1  0
  9 47  1  0
 10 48  1  6
 11 49  1  0
 11 50  1  0
 12 51  1  0
 12 52  1  0
 14 53  1  0
 14 54  1  0
 14 55  1  0
 15 56  1  1
 16 57  1  0
 16 58  1  0
 17 59  1  0
 19 60  1  6
 20 61  1  0
 20 62  1  0
 21 63  1  0
 21 64  1  0
 22 65  1  6
 23 66  1  0
 25 67  1  0
 25 68  1  0
 25 69  1  0
 26 70  1  0
 26 71  1  0
 26 72  1  0
 28 73  1  0
 28 74  1  0
 28 75  1  0
 29 76  1  0
 29 77  1  0
 30 78  1  0
 30 79  1  0
 32 80  1  0
 32 81  1  0
 32 82  1  0
M  END
>  <meeko>  (11) 
{"is_sidechain": [false], "intermolecular_energy": 2.731, "internal_energy": -0.839}

$$$$
EPH_relaxed_0001_pdb2pqr_Repair_269_r2_0001_out
     RDKit          3D

 82 86  0  0  0  0  0  0  0  0999 V2000
   -3.7570    7.2160   -3.3970 C   0  0  0  0  0  0  0  0  0  0  0  0
   -3.7810    7.2980   -1.8680 C   0  0  2  0  0  0  0  0  0  0  0  0
   -5.1990    7.0910   -1.2980 C   0  0  0  0  0  0  0  0  0  0  0  0
   -6.3140    7.3180   -2.3220 C   0  0  0  0  0  0  0  0  0  0  0  0
   -7.6440    7.5090   -1.6600 C   0  0  2  0  0  0  0  0  0  0  0  0
   -8.2140    6.3160   -1.1050 O   0  0  0  0  0  0  0  0  0  0  0  0
   -8.9360    6.9170   -2.1920 C   0  0  0  0  0  0  0  0  0  0  0  0
   -8.9600    6.0890   -3.4390 C   0  0  0  0  0  0  0  0  0  0  0  0
  -10.2330    7.5420   -1.7810 C   0  0  0  0  0  0  0  0  0  0  0  0
   -3.2270    8.6430   -1.4120 C   0  0  1  0  0  0  0  0  0  0  0  0
   -3.8390    9.1150   -0.0660 C   0  0  0  0  0  0  0  0  0  0  0  0
   -2.7170    9.8640    0.6980 C   0  0  0  0  0  0  0  0  0  0  0  0
   -1.6090   10.0880   -0.3580 C   0  0  1  0  0  0  0  0  0  0  0  0
   -2.0700   11.3420   -1.1650 C   0  0  0  0  0  0  0  0  0  0  0  0
   -0.1550   10.2580    0.1910 C   0  0  2  0  0  0  0  0  0  0  0  0
    0.0610   11.4820    1.0980 C   0  0  0  0  0  0  0  0  0  0  0  0
    0.4810   12.7300    0.3960 C   0  0  0  0  0  0  0  0  0  0  0  0
    0.9520   12.7980   -0.8630 C   0  0  0  0  0  0  0  0  0  0  0  0
    1.1940   11.5240   -1.6830 C   0  0  1  0  0  0  0  0  0  0  0  0
    2.5840   11.6060   -2.3680 C   0  0  0  0  0  0  0  0  0  0  0  0
    2.7550   12.8750   -3.1970 C   0  0  0  0  0  0  0  0  0  0  0  0
    2.5640   14.1200   -2.3340 C   0  0  2  0  0  0  0  0  0  0  0  0
    3.6340   14.1920   -1.3870 O   0  0  0  0  0  0  0  0  0  0  0  0
    1.2010   14.1440   -1.5870 C   0  0  0  0  0  0  0  0  0  0  0  0
    0.0540   14.3690   -2.6030 C   0  0  0  0  0  0  0  0  0  0  0  0
    1.1960   15.3790   -0.6450 C   0  0  0  0  0  0  0  0  0  0  0  0
    0.9720   10.1520   -0.9140 C   0  0  1  0  0  0  0  0  0  0  0  0
    2.2820    9.7370   -0.1760 C   0  0  0  0  0  0  0  0  0  0  0  0
    0.6760    9.0160   -1.9640 C   0  0  0  0  0  0  0  0  0  0  0  0
   -0.7950    8.8180   -2.3770 C   0  0  0  0  0  0  0  0  0  0  0  0
   -1.7030    8.7310   -1.1460 C   0  0  2  0  0  0  0  0  0  0  0  0
   -1.2770    7.4650   -0.3270 C   0  0  0  0  0  0  0  0  0  0  0  0
   -3.4604    6.2026   -3.7052 H   0  0  0  0  0  0  0  0  0  0  0  0
   -4.7587    7.4410   -3.7920 H   0  0  0  0  0  0  0  0  0  0  0  0
   -3.0347    7.9455   -3.7920 H   0  0  0  0  0  0  0  0  0  0  0  0
   -3.1485    6.4850   -1.4820 H   0  0  0  0  0  0  0  0  0  0  0  0
   -5.2757    6.0593   -0.9243 H   0  0  0  0  0  0  0  0  0  0  0  0
   -5.3372    7.8375   -0.5020 H   0  0  0  0  0  0  0  0  0  0  0  0
   -6.0779    8.2152   -2.9130 H   0  0  0  0  0  0  0  0  0  0  0  0
   -6.3757    6.4274   -2.9647 H   0  0  0  0  0  0  0  0  0  0  0  0
   -7.3710    8.5295   -1.3534 H   0  0  0  0  0  0  0  0  0  0  0  0
   -8.9909    5.0227   -3.1706 H   0  0  0  0  0  0  0  0  0  0  0  0
   -9.8511    6.3440   -4.0313 H   0  0  0  0  0  0  0  0  0  0  0  0
   -8.0556    6.2919   -4.0313 H   0  0  0  0  0  0  0  0  0  0  0  0
  -10.2942    7.5715   -0.6831 H   0  0  0  0  0  0  0  0  0  0  0  0
  -10.2890    8.5660   -2.1790 H   0  0  0  0  0  0  0  0  0  0  0  0
  -11.0688    6.9477   -2.1790 H   0  0  0  0  0  0  0  0  0  0  0  0
   -3.4933    9.2579   -2.2844 H   0  0  0  0  0  0  0  0  0  0  0  0
   -4.6869    9.7907   -0.2518 H   0  0  0  0  0  0  0  0  0  0  0  0
   -4.2126    8.2614    0.5186 H   0  0  0  0  0  0  0  0  0  0  0  0
   -3.0854   10.8257    1.0844 H   0  0  0  0  0  0  0  0  0  0  0  0
   -2.3552    9.2976    1.5688 H   0  0  0  0  0  0  0  0  0  0  0  0
   -2.3633   12.1398   -0.4669 H   0  0  0  0  0  0  0  0  0  0  0  0
   -1.2428   11.6948   -1.7984 H   0  0  0  0  0  0  0  0  0  0  0  0
   -2.9288   11.0750   -1.7984 H   0  0  0  0  0  0  0  0  0  0  0  0
   -0.0456    9.3792    0.8435 H   0  0  0  0  0  0  0  0  0  0  0  0
   -0.8843   11.6882    1.6213 H   0  0  0  0  0  0  0  0  0  0  0  0
    0.8896   11.2187    1.7719 H   0  0  0  0  0  0  0  0  0  0  0  0
    0.3987   13.6740    0.9546 H   0  0  0  0  0  0  0  0  0  0  0  0
    0.4026   11.4983   -2.4465 H   0  0  0  0  0  0  0  0  0  0  0  0
    3.3618   11.5856   -1.5904 H   0  0  0  0  0  0  0  0  0  0  0  0
    2.6704   10.7477   -3.0506 H   0  0  0  0  0  0  0  0  0  0  0  0
    3.7661   12.8887   -3.6300 H   0  0  0  0  0  0  0  0  0  0  0  0
    1.9958   12.8795   -3.9930 H   0  0  0  0  0  0  0  0  0  0  0  0
    2.5685   14.9915   -3.0051 H   0  0  0  0  0  0  0  0  0  0  0  0
    3.9160   13.2830   -1.1920 H   0  0  0  0  0  0  0  0  0  0  0  0
   -0.8852   14.5532   -2.0608 H   0  0  0  0  0  0  0  0  0  0  0  0
    0.2891   15.2381   -3.2349 H   0  0  0  0  0  0  0  0  0  0  0  0
   -0.0566   13.4754   -3.2349 H   0  0  0  0  0  0  0  0  0  0  0  0
    1.1974   15.0416    0.4020 H   0  0  0  0  0  0  0  0  0  0  0  0
    2.0917   15.9887   -0.8349 H   0  0  0  0  0  0  0  0  0  0  0  0
    0.2954   15.9814   -0.8349 H   0  0  0  0  0  0  0  0  0  0  0  0
    2.1222    9.7876    0.9111 H   0  0  0  0  0  0  0  0  0  0  0  0
    2.5526    8.7091   -0.4593 H   0  0  0  0  0  0  0  0  0  0  0  0
    3.0951   10.4216   -0.4593 H   0  0  0  0  0  0  0  0  0  0  0  0
    1.2491    9.2466   -2.8742 H   0  0  0  0  0  0  0  0  0  0  0  0
    0.9630    8.0795   -1.4635 H   0  0  0  0  0  0  0  0  0  0  0  0
   -1.1119    9.6684   -2.9986 H   0  0  0  0  0  0  0  0  0  0  0  0
   -0.8775    7.8772   -2.9410 H   0  0  0  0  0  0  0  0  0  0  0  0
   -1.3502    7.6825    0.7488 H   0  0  0  0  0  0  0  0  0  0  0  0
   -1.9421    6.6254   -0.5774 H   0  0  0  0  0  0  0  0  0  0  0  0
   -0.2396    7.1983   -0.5774 H   0  0  0  0  0  0  0  0  0  0  0  0
  1  2  1  0
  2  3  1  0
  3  4  1  0
  4  5  1  0
  5  6  1  0
  6  7  1  0
  7  8  1  0
  7  9  1  0
  2 10  1  0
 10 11  1  0
 11 12  1  0
 12 13  1  0
 13 14  1  6
 13 15  1  0
 15 16  1  0
 16 17  1  0
 17 18  2  0
 18 19  1  0
 19 20  1  0
 20 21  1  0
 21 22  1  0
 22 23  1  0
 22 24  1  0
 24 25  1  0
 24 26  1  0
 19 27  1  0
 27 28  1  1
 27 29  1  0
 29 30  1  0
 30 31  1  0
 31 32  1  1
  7  5  1  0
 31 10  1  0
 31 13  1  0
 27 15  1  0
 24 18  1  0
  1 33  1  0
  1 34  1  0
  1 35  1  0
  2 36  1  1
  3 37  1  0
  3 38  1  0
  4 39  1  0
  4 40  1  0
  5 41  1  1
  8 42  1  0
  8 43  1  0
  8 44  1  0
  9 45  1  0
  9 46  1  0
  9 47  1  0
 10 48  1  6
 11 49  1  0
 11 50  1  0
 12 51  1  0
 12 52  1  0
 14 53  1  0
 14 54  1  0
 14 55  1  0
 15 56  1  1
 16 57  1  0
 16 58  1  0
 17 59  1  0
 19 60  1  6
 20 61  1  0
 20 62  1  0
 21 63  1  0
 21 64  1  0
 22 65  1  6
 23 66  1  0
 25 67  1  0
 25 68  1  0
 25 69  1  0
 26 70  1  0
 26 71  1  0
 26 72  1  0
 28 73  1  0
 28 74  1  0
 28 75  1  0
 29 76  1  0
 29 77  1  0
 30 78  1  0
 30 79  1  0
 32 80  1  0
 32 81  1  0
 32 82  1  0
M  END
>  <meeko>  (12) 
{"is_sidechain": [false], "intermolecular_energy": 2.731, "internal_energy": -0.839}

$$$$
EPH_relaxed_0001_pdb2pqr_Repair_269_r2_0001_out
     RDKit          3D

 82 86  0  0  0  0  0  0  0  0999 V2000
   -0.8900   16.3370   -5.8660 C   0  0  0  0  0  0  0  0  0  0  0  0
    0.2070   15.6410   -6.6760 C   0  0  2  0  0  0  0  0  0  0  0  0
   -0.1870   15.4650   -8.1560 C   0  0  0  0  0  0  0  0  0  0  0  0
    0.4650   16.4870   -9.0920 C   0  0  0  0  0  0  0  0  0  0  0  0
    1.8690   16.0990   -9.4450 C   0  0  2  0  0  0  0  0  0  0  0  0
    2.3560   16.6650  -10.6690 O   0  0  0  0  0  0  0  0  0  0  0  0
    2.2220   15.2350  -10.6410 C   0  0  0  0  0  0  0  0  0  0  0  0
    1.1660   14.7040  -11.5600 C   0  0  0  0  0  0  0  0  0  0  0  0
    3.5300   14.5070  -10.6360 C   0  0  0  0  0  0  0  0  0  0  0  0
    0.5290   14.2850   -6.0580 C   0  0  1  0  0  0  0  0  0  0  0  0
    1.7850   13.6250   -6.6860 C   0  0  0  0  0  0  0  0  0  0  0  0
    2.5020   12.8550   -5.5470 C   0  0  0  0  0  0  0  0  0  0  0  0
    1.4740   12.8190   -4.3930 C   0  0  1  0  0  0  0  0  0  0  0  0
    0.5100   11.6440   -4.7510 C   0  0  0  0  0  0  0  0  0  0  0  0
    2.0580   12.6670   -2.9510 C   0  0  2  0  0  0  0  0  0  0  0  0
    2.8270   11.3590   -2.6930 C   0  0  0  0  0  0  0  0  0  0  0  0
    2.0030   10.2270   -2.1750 C   0  0  0  0  0  0  0  0  0  0  0  0
    0.7640   10.3330   -1.6580 C   0  0  0  0  0  0  0  0  0  0  0  0
    0.1070   11.7050   -1.4650 C   0  0  1  0  0  0  0  0  0  0  0  0
   -0.5260   11.7820   -0.0510 C   0  0  0  0  0  0  0  0  0  0  0  0
   -1.4880   10.6300    0.2230 C   0  0  0  0  0  0  0  0  0  0  0  0
   -0.7820    9.2840    0.0780 C   0  0  2  0  0  0  0  0  0  0  0  0
    0.1930    9.1610    1.1180 O   0  0  0  0  0  0  0  0  0  0  0  0
   -0.0990    9.0970   -1.3050 C   0  0  0  0  0  0  0  0  0  0  0  0
   -1.1800    8.9290   -2.4010 C   0  0  0  0  0  0  0  0  0  0  0  0
    0.6940    7.7620   -1.2690 C   0  0  0  0  0  0  0  0  0  0  0  0
    1.0190   12.9640   -1.7950 C   0  0  1  0  0  0  0  0  0  0  0  0
    1.8530   13.3610   -0.5380 C   0  0  0  0  0  0  0  0  0  0  0  0
    0.0960   14.1970   -2.1230 C   0  0  0  0  0  0  0  0  0  0  0  0
   -0.3510   14.3590   -3.5890 C   0  0  0  0  0  0  0  0  0  0  0  0
    0.8440   14.2520   -4.5410 C   0  0  2  0  0  0  0  0  0  0  0  0
    1.8200   15.4340   -4.2200 C   0  0  0  0  0  0  0  0  0  0  0  0
   -0.6894   16.2097   -4.7920 H   0  0  0  0  0  0  0  0  0  0  0  0
   -0.9032   17.4091   -6.1120 H   0  0  0  0  0  0  0  0  0  0  0  0
   -1.8655   15.8923   -6.1120 H   0  0  0  0  0  0  0  0  0  0  0  0
    1.0987   16.2844   -6.6460 H   0  0  0  0  0  0  0  0  0  0  0  0
    0.1142   14.4573   -8.4782 H   0  0  0  0  0  0  0  0  0  0  0  0
   -1.2744   15.6183   -8.2198 H   0  0  0  0  0  0  0  0  0  0  0  0
   -0.1290   16.5545  -10.0154 H   0  0  0  0  0  0  0  0  0  0  0  0
    0.4975   17.4560   -8.5723 H   0  0  0  0  0  0  0  0  0  0  0  0
    2.1444   16.0354   -8.3819 H   0  0  0  0  0  0  0  0  0  0  0  0
    0.3387   14.2880  -10.9663 H   0  0  0  0  0  0  0  0  0  0  0  0
    0.7883   15.5194  -12.1944 H   0  0  0  0  0  0  0  0  0  0  0  0
    1.5952   13.9145  -12.1944 H   0  0  0  0  0  0  0  0  0  0  0  0
    3.8474   14.3304   -9.5977 H   0  0  0  0  0  0  0  0  0  0  0  0
    3.4151   13.5431  -11.1533 H   0  0  0  0  0  0  0  0  0  0  0  0
    4.2887   15.1126  -11.1533 H   0  0  0  0  0  0  0  0  0  0  0  0
   -0.4179   13.7619   -6.2574 H   0  0  0  0  0  0  0  0  0  0  0  0
    1.4882   12.9297   -7.4850 H   0  0  0  0  0  0  0  0  0  0  0  0
    2.4486   14.3815   -7.1302 H   0  0  0  0  0  0  0  0  0  0  0  0
    2.7593   11.8354   -5.8697 H   0  0  0  0  0  0  0  0  0  0  0  0
    3.4463   13.3344   -5.2495 H   0  0  0  0  0  0  0  0  0  0  0  0
    0.1328   11.1843   -3.8256 H   0  0  0  0  0  0  0  0  0  0  0  0
   -0.3353   12.0297   -5.3398 H   0  0  0  0  0  0  0  0  0  0  0  0
    1.0534   10.8903   -5.3398 H   0  0  0  0  0  0  0  0  0  0  0  0
    2.8107   13.4684   -2.9165 H   0  0  0  0  0  0  0  0  0  0  0  0
    3.2841   11.0406   -3.6415 H   0  0  0  0  0  0  0  0  0  0  0  0
    3.5604   11.5871   -1.9055 H   0  0  0  0  0  0  0  0  0  0  0  0
    2.4454    9.2209   -2.2194 H   0  0  0  0  0  0  0  0  0  0  0  0
   -0.6799   11.7751   -2.2305 H   0  0  0  0  0  0  0  0  0  0  0  0
    0.2793   11.7545    0.6978 H   0  0  0  0  0  0  0  0  0  0  0  0
   -1.1010   12.7180    0.0068 H   0  0  0  0  0  0  0  0  0  0  0  0
   -1.8789   10.7231    1.2470 H   0  0  0  0  0  0  0  0  0  0  0  0
   -2.3090   10.6766   -0.5076 H   0  0  0  0  0  0  0  0  0  0  0  0
   -1.5480    8.4986    0.1574 H   0  0  0  0  0  0  0  0  0  0  0  0
    1.0230    9.5470    0.7900 H   0  0  0  0  0  0  0  0  0  0  0  0
   -2.1613    8.7765   -1.9279 H   0  0  0  0  0  0  0  0  0  0  0  0
   -1.2112    9.8331   -3.0268 H   0  0  0  0  0  0  0  0  0  0  0  0
   -0.9354    8.0581   -3.0268 H   0  0  0  0  0  0  0  0  0  0  0  0
    0.8689    7.4675   -0.2237 H   0  0  0  0  0  0  0  0  0  0  0  0
    0.1152    6.9778   -1.7789 H   0  0  0  0  0  0  0  0  0  0  0  0
    1.6595    7.8952   -1.7789 H   0  0  0  0  0  0  0  0  0  0  0  0
    1.2944   13.0951    0.3716 H   0  0  0  0  0  0  0  0  0  0  0  0
    2.8124   12.8230   -0.5496 H   0  0  0  0  0  0  0  0  0  0  0  0
    2.0403   14.4449   -0.5496 H   0  0  0  0  0  0  0  0  0  0  0  0
   -0.8106   14.1075   -1.5065 H   0  0  0  0  0  0  0  0  0  0  0  0
    0.7122   15.0830   -1.9101 H   0  0  0  0  0  0  0  0  0  0  0  0
   -1.0774   13.5699   -3.8331 H   0  0  0  0  0  0  0  0  0  0  0  0
   -0.8074   15.3526   -3.7090 H   0  0  0  0  0  0  0  0  0  0  0  0
    1.9132   15.5468   -3.1298 H   0  0  0  0  0  0  0  0  0  0  0  0
    2.8087   15.2208   -4.6524 H   0  0  0  0  0  0  0  0  0  0  0  0
    1.4236   16.3646   -4.6524 H   0  0  0  0  0  0  0  0  0  0  0  0
  1  2  1  0
  2  3  1  0
  3  4  1  0
  4  5  1  0
  5  6  1  0
  6  7  1  0
  7  8  1  0
  7  9  1  0
  2 10  1  0
 10 11  1  0
 11 12  1  0
 12 13  1  0
 13 14  1  6
 13 15  1  0
 15 16  1  0
 16 17  1  0
 17 18  2  0
 18 19  1  0
 19 20  1  0
 20 21  1  0
 21 22  1  0
 22 23  1  0
 22 24  1  0
 24 25  1  0
 24 26  1  0
 19 27  1  0
 27 28  1  1
 27 29  1  0
 29 30  1  0
 30 31  1  0
 31 32  1  1
  7  5  1  0
 31 10  1  0
 31 13  1  0
 27 15  1  0
 24 18  1  0
  1 33  1  0
  1 34  1  0
  1 35  1  0
  2 36  1  6
  3 37  1  0
  3 38  1  0
  4 39  1  0
  4 40  1  0
  5 41  1  1
  8 42  1  0
  8 43  1  0
  8 44  1  0
  9 45  1  0
  9 46  1  0
  9 47  1  0
 10 48  1  1
 11 49  1  0
 11 50  1  0
 12 51  1  0
 12 52  1  0
 14 53  1  0
 14 54  1  0
 14 55  1  0
 15 56  1  6
 16 57  1  0
 16 58  1  0
 17 59  1  0
 19 60  1  6
 20 61  1  0
 20 62  1  0
 21 63  1  0
 21 64  1  0
 22 65  1  1
 23 66  1  0
 25 67  1  0
 25 68  1  0
 25 69  1  0
 26 70  1  0
 26 71  1  0
 26 72  1  0
 28 73  1  0
 28 74  1  0
 28 75  1  0
 29 76  1  0
 29 77  1  0
 30 78  1  0
 30 79  1  0
 32 80  1  0
 32 81  1  0
 32 82  1  0
M  END
>  <meeko>  (13) 
{"is_sidechain": [false], "intermolecular_energy": 2.731, "internal_energy": -0.839}

$$$$
EPH_relaxed_0001_pdb2pqr_Repair_269_r2_0001_out
     RDKit          3D

 82 86  0  0  0  0  0  0  0  0999 V2000
   -0.2420    9.2820   -1.9380 C   0  0  0  0  0  0  0  0  0  0  0  0
    0.8600   10.2110   -2.4550 C   0  0  2  0  0  0  0  0  0  0  0  0
    2.2300    9.5070   -2.5220 C   0  0  0  0  0  0  0  0  0  0  0  0
    3.1190    9.9980   -3.6670 C   0  0  0  0  0  0  0  0  0  0  0  0
    4.4680   10.4280   -3.1770 C   0  0  2  0  0  0  0  0  0  0  0  0
    4.8500   11.7550   -3.5610 O   0  0  0  0  0  0  0  0  0  0  0  0
    5.6490   10.6860   -4.0940 C   0  0  0  0  0  0  0  0  0  0  0  0
    5.5350   10.5220   -5.5780 C   0  0  0  0  0  0  0  0  0  0  0  0
    7.0290   10.6200   -3.5200 C   0  0  0  0  0  0  0  0  0  0  0  0
    0.9530   11.4480   -1.5690 C   0  0  1  0  0  0  0  0  0  0  0  0
    2.0460   11.3190   -0.4750 C   0  0  0  0  0  0  0  0  0  0  0  0
    2.6530   12.7320   -0.2800 C   0  0  0  0  0  0  0  0  0  0  0  0
    1.6760   13.6810   -1.0140 C   0  0  1  0  0  0  0  0  0  0  0  0
    0.5040   13.9070   -0.0080 C   0  0  0  0  0  0  0  0  0  0  0  0
    2.2750   15.0350   -1.5170 C   0  0  2  0  0  0  0  0  0  0  0  0
    2.8030   15.9650   -0.4110 C   0  0  0  0  0  0  0  0  0  0  0  0
    1.8070   16.9320    0.1380 C   0  0  0  0  0  0  0  0  0  0  0  0
    0.6280   17.2470   -0.4290 C   0  0  0  0  0  0  0  0  0  0  0  0
    0.2360   16.6790   -1.7990 C   0  0  1  0  0  0  0  0  0  0  0  0
   -0.3210   17.8180   -2.6920 C   0  0  0  0  0  0  0  0  0  0  0  0
   -1.4650   18.5770   -2.0260 C   0  0  0  0  0  0  0  0  0  0  0  0
   -1.0200   19.1770   -0.6950 C   0  0  2  0  0  0  0  0  0  0  0  0
   -0.0460   20.1940   -0.9500 O   0  0  0  0  0  0  0  0  0  0  0  0
   -0.4310   18.1230    0.2850 C   0  0  0  0  0  0  0  0  0  0  0  0
   -1.5630   17.1980    0.7960 C   0  0  0  0  0  0  0  0  0  0  0  0
    0.1080   18.8780    1.5300 C   0  0  0  0  0  0  0  0  0  0  0  0
    1.3480   15.8150   -2.5350 C   0  0  1  0  0  0  0  0  0  0  0  0
    2.2840   16.7470   -3.3640 C   0  0  0  0  0  0  0  0  0  0  0  0
    0.6520   14.8530   -3.5680 C   0  0  0  0  0  0  0  0  0  0  0  0
    0.1900   13.4820   -3.0390 C   0  0  0  0  0  0  0  0  0  0  0  0
    1.3100   12.7900   -2.2570 C   0  0  2  0  0  0  0  0  0  0  0  0
    2.4950   12.5290   -3.2480 C   0  0  0  0  0  0  0  0  0  0  0  0
   -0.2382    9.2852   -0.8380 H   0  0  0  0  0  0  0  0  0  0  0  0
   -1.2186    9.6334   -2.3023 H   0  0  0  0  0  0  0  0  0  0  0  0
   -0.0608    8.2600   -2.3023 H   0  0  0  0  0  0  0  0  0  0  0  0
    0.5908   10.5059   -3.4800 H   0  0  0  0  0  0  0  0  0  0  0  0
    2.7575    9.6828   -1.5729 H   0  0  0  0  0  0  0  0  0  0  0  0
    2.0343    8.4396   -2.7021 H   0  0  0  0  0  0  0  0  0  0  0  0
    3.2472    9.1822   -4.3936 H   0  0  0  0  0  0  0  0  0  0  0  0
    2.6303   10.8671   -4.1316 H   0  0  0  0  0  0  0  0  0  0  0  0
    4.3587    9.8160   -2.2696 H   0  0  0  0  0  0  0  0  0  0  0  0
    4.9204    9.6379   -5.8031 H   0  0  0  0  0  0  0  0  0  0  0  0
    5.0629   11.4165   -6.0106 H   0  0  0  0  0  0  0  0  0  0  0  0
    6.5379   10.3912   -6.0106 H   0  0  0  0  0  0  0  0  0  0  0  0
    6.9698   10.6228   -2.4216 H   0  0  0  0  0  0  0  0  0  0  0  0
    7.5230    9.6972   -3.8582 H   0  0  0  0  0  0  0  0  0  0  0  0
    7.6089   11.4914   -3.8582 H   0  0  0  0  0  0  0  0  0  0  0  0
   -0.0793   11.4819   -1.1907 H   0  0  0  0  0  0  0  0  0  0  0  0
    1.5999   10.9652    0.4662 H   0  0  0  0  0  0  0  0  0  0  0  0
    2.8188   10.5949   -0.7724 H   0  0  0  0  0  0  0  0  0  0  0  0
    2.7113   12.9855    0.7888 H   0  0  0  0  0  0  0  0  0  0  0  0
    3.6781   12.8035   -0.6725 H   0  0  0  0  0  0  0  0  0  0  0  0
    0.8850   13.8335    1.0213 H   0  0  0  0  0  0  0  0  0  0  0  0
    0.0706   14.9053   -0.1682 H   0  0  0  0  0  0  0  0  0  0  0  0
   -0.2695   13.1415   -0.1682 H   0  0  0  0  0  0  0  0  0  0  0  0
    3.1614   14.7070   -2.0798 H   0  0  0  0  0  0  0  0  0  0  0  0
    3.1607   15.3376    0.4187 H   0  0  0  0  0  0  0  0  0  0  0  0
    3.5932   16.5729   -0.8759 H   0  0  0  0  0  0  0  0  0  0  0  0
    2.0582   17.4292    1.0865 H   0  0  0  0  0  0  0  0  0  0  0  0
   -0.5527   15.9369   -1.6059 H   0  0  0  0  0  0  0  0  0  0  0  0
    0.4926   18.5258   -2.9091 H   0  0  0  0  0  0  0  0  0  0  0  0
   -0.7147   17.3596   -3.6112 H   0  0  0  0  0  0  0  0  0  0  0  0
   -1.7963   19.3866   -2.6930 H   0  0  0  0  0  0  0  0  0  0  0  0
   -2.2891   17.8736   -1.8359 H   0  0  0  0  0  0  0  0  0  0  0  0
   -1.9124   19.5957   -0.2068 H   0  0  0  0  0  0  0  0  0  0  0  0
    0.4060   20.3850   -0.1110 H   0  0  0  0  0  0  0  0  0  0  0  0
   -1.5660   17.1955    1.8960 H   0  0  0  0  0  0  0  0  0  0  0  0
   -2.5318   17.5662    0.4275 H   0  0  0  0  0  0  0  0  0  0  0  0
   -1.3952   16.1752    0.4275 H   0  0  0  0  0  0  0  0  0  0  0  0
   -0.2479   18.3795    2.4437 H   0  0  0  0  0  0  0  0  0  0  0  0
    1.2079   18.8729    1.5142 H   0  0  0  0  0  0  0  0  0  0  0  0
   -0.2541   19.9166    1.5142 H   0  0  0  0  0  0  0  0  0  0  0  0
    2.8947   17.3551   -2.6805 H   0  0  0  0  0  0  0  0  0  0  0  0
    2.9425   16.1352   -3.9981 H   0  0  0  0  0  0  0  0  0  0  0  0
    1.6750   17.4081   -3.9981 H   0  0  0  0  0  0  0  0  0  0  0  0
   -0.2335   15.3730   -3.9625 H   0  0  0  0  0  0  0  0  0  0  0  0
    1.4256   14.6266   -4.3165 H   0  0  0  0  0  0  0  0  0  0  0  0
   -0.6761   13.6254   -2.3762 H   0  0  0  0  0  0  0  0  0  0  0  0
   -0.0818   12.8489   -3.8965 H   0  0  0  0  0  0  0  0  0  0  0  0
    3.4130   12.3268   -2.6767 H   0  0  0  0  0  0  0  0  0  0  0  0
    2.2588   11.6613   -3.8816 H   0  0  0  0  0  0  0  0  0  0  0  0
    2.6452   13.4156   -3.8816 H   0  0  0  0  0  0  0  0  0  0  0  0
  1  2  1  0
  2  3  1  0
  3  4  1  0
  4  5  1  0
  5  6  1  0
  6  7  1  0
  7  8  1  0
  7  9  1  0
  2 10  1  0
 10 11  1  0
 11 12  1  0
 12 13  1  0
 13 14  1  1
 13 15  1  0
 15 16  1  0
 16 17  1  0
 17 18  2  0
 18 19  1  0
 19 20  1  0
 20 21  1  0
 21 22  1  0
 22 23  1  0
 22 24  1  0
 24 25  1  0
 24 26  1  0
 19 27  1  0
 27 28  1  6
 27 29  1  0
 29 30  1  0
 30 31  1  0
 31 32  1  6
  7  5  1  0
 31 10  1  0
 31 13  1  0
 27 15  1  0
 24 18  1  0
  1 33  1  0
  1 34  1  0
  1 35  1  0
  2 36  1  6
  3 37  1  0
  3 38  1  0
  4 39  1  0
  4 40  1  0
  5 41  1  1
  8 42  1  0
  8 43  1  0
  8 44  1  0
  9 45  1  0
  9 46  1  0
  9 47  1  0
 10 48  1  1
 11 49  1  0
 11 50  1  0
 12 51  1  0
 12 52  1  0
 14 53  1  0
 14 54  1  0
 14 55  1  0
 15 56  1  6
 16 57  1  0
 16 58  1  0
 17 59  1  0
 19 60  1  1
 20 61  1  0
 20 62  1  0
 21 63  1  0
 21 64  1  0
 22 65  1  1
 23 66  1  0
 25 67  1  0
 25 68  1  0
 25 69  1  0
 26 70  1  0
 26 71  1  0
 26 72  1  0
 28 73  1  0
 28 74  1  0
 28 75  1  0
 29 76  1  0
 29 77  1  0
 30 78  1  0
 30 79  1  0
 32 80  1  0
 32 81  1  0
 32 82  1  0
M  END
>  <meeko>  (14) 
{"is_sidechain": [false], "intermolecular_energy": 2.731, "internal_energy": -0.839}

$$$$
EPH_relaxed_0001_pdb2pqr_Repair_269_r2_0001_out
     RDKit          3D

 82 86  0  0  0  0  0  0  0  0999 V2000
   -2.2080    7.8240   -2.1480 C   0  0  0  0  0  0  0  0  0  0  0  0
   -2.1860    8.4460   -0.7490 C   0  0  2  0  0  0  0  0  0  0  0  0
   -3.5790    8.4360   -0.0870 C   0  0  0  0  0  0  0  0  0  0  0  0
   -4.7350    8.3600   -1.0880 C   0  0  0  0  0  0  0  0  0  0  0  0
   -5.8010    7.4090   -0.6320 C   0  0  2  0  0  0  0  0  0  0  0  0
   -6.0310    6.3010   -1.5120 O   0  0  0  0  0  0  0  0  0  0  0  0
   -7.1210    7.2230   -1.3570 C   0  0  0  0  0  0  0  0  0  0  0  0
   -7.4470    7.9950   -2.5970 C   0  0  0  0  0  0  0  0  0  0  0  0
   -8.2820    6.6620   -0.5960 C   0  0  0  0  0  0  0  0  0  0  0  0
   -1.6560    9.8730   -0.8240 C   0  0  1  0  0  0  0  0  0  0  0  0
   -1.1990   10.4130    0.5580 C   0  0  0  0  0  0  0  0  0  0  0  0
    0.0230   11.3320    0.2970 C   0  0  0  0  0  0  0  0  0  0  0  0
    0.0240   11.5550   -1.2340 C   0  0  1  0  0  0  0  0  0  0  0  0
   -1.0320   12.6780   -1.4760 C   0  0  0  0  0  0  0  0  0  0  0  0
    1.4020   11.9090   -1.8800 C   0  0  2  0  0  0  0  0  0  0  0  0
    2.0290   13.2290   -1.3960 C   0  0  0  0  0  0  0  0  0  0  0  0
    1.6630   14.4380   -2.1920 C   0  0  0  0  0  0  0  0  0  0  0  0
    1.0970   14.4280   -3.4130 C   0  0  0  0  0  0  0  0  0  0  0  0
    0.8570   13.1100   -4.1600 C   0  0  1  0  0  0  0  0  0  0  0  0
    1.3350   13.2540   -5.6290 C   0  0  0  0  0  0  0  0  0  0  0  0
    0.7020   14.4480   -6.3360 C   0  0  0  0  0  0  0  0  0  0  0  0
    1.0120   15.7470   -5.5950 C   0  0  2  0  0  0  0  0  0  0  0  0
    2.4160   16.0070   -5.6880 O   0  0  0  0  0  0  0  0  0  0  0  0
    0.5830   15.7170   -4.1020 C   0  0  0  0  0  0  0  0  0  0  0  0
   -0.9620   15.7380   -4.0030 C   0  0  0  0  0  0  0  0  0  0  0  0
    1.0790   17.0300   -3.4370 C   0  0  0  0  0  0  0  0  0  0  0  0
    1.4250   11.8020   -3.4580 C   0  0  1  0  0  0  0  0  0  0  0  0
    2.9140   11.5830   -3.8680 C   0  0  0  0  0  0  0  0  0  0  0  0
    0.6300   10.5500   -3.9850 C   0  0  0  0  0  0  0  0  0  0  0  0
   -0.6610   10.1790   -3.2310 C   0  0  0  0  0  0  0  0  0  0  0  0
   -0.4170   10.1260   -1.7190 C   0  0  2  0  0  0  0  0  0  0  0  0
    0.6250    8.9890   -1.4430 C   0  0  0  0  0  0  0  0  0  0  0  0
   -2.2468    6.7281   -2.0615 H   0  0  0  0  0  0  0  0  0  0  0  0
   -3.0941    8.1803   -2.6938 H   0  0  0  0  0  0  0  0  0  0  0  0
   -1.2989    8.1168   -2.6938 H   0  0  0  0  0  0  0  0  0  0  0  0
   -1.5192    7.8333   -0.1245 H   0  0  0  0  0  0  0  0  0  0  0  0
   -3.6399    7.5641    0.5809 H   0  0  0  0  0  0  0  0  0  0  0  0
   -3.6846    9.3875    0.4547 H   0  0  0  0  0  0  0  0  0  0  0  0
   -5.1753    9.3617   -1.2010 H   0  0  0  0  0  0  0  0  0  0  0  0
   -4.3361    7.9948   -2.0459 H   0  0  0  0  0  0  0  0  0  0  0  0
   -5.5596    7.6065    0.4228 H   0  0  0  0  0  0  0  0  0  0  0  0
   -7.8611    8.9757   -2.3201 H   0  0  0  0  0  0  0  0  0  0  0  0
   -6.5323    8.1377   -3.1912 H   0  0  0  0  0  0  0  0  0  0  0  0
   -8.1871    7.4390   -3.1912 H   0  0  0  0  0  0  0  0  0  0  0  0
   -8.0917    6.7540    0.4835 H   0  0  0  0  0  0  0  0  0  0  0  0
   -9.1944    7.2186   -0.8562 H   0  0  0  0  0  0  0  0  0  0  0  0
   -8.4129    5.6013   -0.8562 H   0  0  0  0  0  0  0  0  0  0  0  0
   -2.5369   10.3748   -1.2509 H   0  0  0  0  0  0  0  0  0  0  0  0
   -2.0112   10.9870    1.0279 H   0  0  0  0  0  0  0  0  0  0  0  0
   -0.9356    9.5886    1.2369 H   0  0  0  0  0  0  0  0  0  0  0  0
   -0.0898   12.2884    0.8286 H   0  0  0  0  0  0  0  0  0  0  0  0
    0.9634   10.8869    0.6542 H   0  0  0  0  0  0  0  0  0  0  0  0
   -1.3903   13.0591   -0.5083 H   0  0  0  0  0  0  0  0  0  0  0  0
   -0.5707   13.4986   -2.0451 H   0  0  0  0  0  0  0  0  0  0  0  0
   -1.8794   12.2680   -2.0451 H   0  0  0  0  0  0  0  0  0  0  0  0
    2.0544   11.1102   -1.4974 H   0  0  0  0  0  0  0  0  0  0  0  0
    1.7091   13.3964   -0.3569 H   0  0  0  0  0  0  0  0  0  0  0  0
    3.1166   13.1085   -1.5079 H   0  0  0  0  0  0  0  0  0  0  0  0
    1.8737   15.4196   -1.7426 H   0  0  0  0  0  0  0  0  0  0  0  0
   -0.2294   12.9393   -4.1360 H   0  0  0  0  0  0  0  0  0  0  0  0
    2.4277   13.3804   -5.6334 H   0  0  0  0  0  0  0  0  0  0  0  0
    1.0301   12.3459   -6.1697 H   0  0  0  0  0  0  0  0  0  0  0  0
    1.1002   14.5132   -7.3593 H   0  0  0  0  0  0  0  0  0  0  0  0
   -0.3887   14.3067   -6.3565 H   0  0  0  0  0  0  0  0  0  0  0  0
    0.4280   16.5474   -6.0728 H   0  0  0  0  0  0  0  0  0  0  0  0
    2.5610   16.9320   -5.4270 H   0  0  0  0  0  0  0  0  0  0  0  0
   -1.2616   15.7421   -2.9446 H   0  0  0  0  0  0  0  0  0  0  0  0
   -1.3488   16.6415   -4.4970 H   0  0  0  0  0  0  0  0  0  0  0  0
   -1.3732   14.8454   -4.4970 H   0  0  0  0  0  0  0  0  0  0  0  0
    1.0392   16.9246   -2.3428 H   0  0  0  0  0  0  0  0  0  0  0  0
    2.1148   17.2303   -3.7486 H   0  0  0  0  0  0  0  0  0  0  0  0
    0.4344   17.8651   -3.7486 H   0  0  0  0  0  0  0  0  0  0  0  0
    3.5337   11.4919   -2.9637 H   0  0  0  0  0  0  0  0  0  0  0  0
    2.9985   10.6628   -4.4647 H   0  0  0  0  0  0  0  0  0  0  0  0
    3.2599   12.4399   -4.4647 H   0  0  0  0  0  0  0  0  0  0  0  0
    0.3589   10.7450   -5.0331 H   0  0  0  0  0  0  0  0  0  0  0  0
    1.3064    9.6956   -3.8350 H   0  0  0  0  0  0  0  0  0  0  0  0
   -1.4322   10.9337   -3.4448 H   0  0  0  0  0  0  0  0  0  0  0  0
   -0.9909    9.1853   -3.5681 H   0  0  0  0  0  0  0  0  0  0  0  0
    0.7454    8.8576   -0.3575 H   0  0  0  0  0  0  0  0  0  0  0  0
    0.2684    8.0487   -1.8888 H   0  0  0  0  0  0  0  0  0  0  0  0
    1.5927    9.2624   -1.8888 H   0  0  0  0  0  0  0  0  0  0  0  0
  1  2  1  0
  2  3  1  0
  3  4  1  0
  4  5  1  0
  5  6  1  0
  6  7  1  0
  7  8  1  0
  7  9  1  0
  2 10  1  0
 10 11  1  0
 11 12  1  0
 12 13  1  0
 13 14  1  1
 13 15  1  0
 15 16  1  0
 16 17  1  0
 17 18  2  0
 18 19  1  0
 19 20  1  0
 20 21  1  0
 21 22  1  0
 22 23  1  0
 22 24  1  0
 24 25  1  0
 24 26  1  0
 19 27  1  0
 27 28  1  6
 27 29  1  0
 29 30  1  0
 30 31  1  0
 31 32  1  6
  7  5  1  0
 31 10  1  0
 31 13  1  0
 27 15  1  0
 24 18  1  0
  1 33  1  0
  1 34  1  0
  1 35  1  0
  2 36  1  1
  3 37  1  0
  3 38  1  0
  4 39  1  0
  4 40  1  0
  5 41  1  1
  8 42  1  0
  8 43  1  0
  8 44  1  0
  9 45  1  0
  9 46  1  0
  9 47  1  0
 10 48  1  6
 11 49  1  0
 11 50  1  0
 12 51  1  0
 12 52  1  0
 14 53  1  0
 14 54  1  0
 14 55  1  0
 15 56  1  1
 16 57  1  0
 16 58  1  0
 17 59  1  0
 19 60  1  6
 20 61  1  0
 20 62  1  0
 21 63  1  0
 21 64  1  0
 22 65  1  6
 23 66  1  0
 25 67  1  0
 25 68  1  0
 25 69  1  0
 26 70  1  0
 26 71  1  0
 26 72  1  0
 28 73  1  0
 28 74  1  0
 28 75  1  0
 29 76  1  0
 29 77  1  0
 30 78  1  0
 30 79  1  0
 32 80  1  0
 32 81  1  0
 32 82  1  0
M  END
>  <meeko>  (15) 
{"is_sidechain": [false], "intermolecular_energy": 2.731, "internal_energy": -0.839}

$$$$
EPH_relaxed_0001_pdb2pqr_Repair_269_r2_0001_out
     RDKit          3D

 82 86  0  0  0  0  0  0  0  0999 V2000
    1.8820   10.7900   -4.9120 C   0  0  0  0  0  0  0  0  0  0  0  0
    1.1240   10.6610   -3.5880 C   0  0  2  0  0  0  0  0  0  0  0  0
   -0.0510    9.6670   -3.6860 C   0  0  0  0  0  0  0  0  0  0  0  0
    0.0030    8.5460   -2.6450 C   0  0  0  0  0  0  0  0  0  0  0  0
    0.0120    9.0870   -1.2470 C   0  0  2  0  0  0  0  0  0  0  0  0
   -0.3730    8.1440   -0.2380 O   0  0  0  0  0  0  0  0  0  0  0  0
   -1.2430    9.2740   -0.4150 C   0  0  0  0  0  0  0  0  0  0  0  0
   -2.5950    8.9230   -0.9520 C   0  0  0  0  0  0  0  0  0  0  0  0
   -1.2080   10.2450    0.7230 C   0  0  0  0  0  0  0  0  0  0  0  0
    0.6140   12.0280   -3.1460 C   0  0  1  0  0  0  0  0  0  0  0  0
   -0.8640   11.9900   -2.6740 C   0  0  0  0  0  0  0  0  0  0  0  0
   -0.9910   13.0160   -1.5190 C   0  0  0  0  0  0  0  0  0  0  0  0
    0.3160   13.8410   -1.5840 C   0  0  1  0  0  0  0  0  0  0  0  0
    0.0710   14.8920   -2.7130 C   0  0  0  0  0  0  0  0  0  0  0  0
    0.7710   14.5210   -0.2520 C   0  0  2  0  0  0  0  0  0  0  0  0
   -0.2030   15.5690    0.3120 C   0  0  0  0  0  0  0  0  0  0  0  0
    0.0280   16.9690   -0.1520 C   0  0  0  0  0  0  0  0  0  0  0  0
    1.1420   17.4180   -0.7590 C   0  0  0  0  0  0  0  0  0  0  0  0
    2.3600   16.5040   -0.9460 C   0  0  1  0  0  0  0  0  0  0  0  0
    3.6460   17.2640   -0.5280 C   0  0  0  0  0  0  0  0  0  0  0  0
    3.8010   18.5970   -1.2550 C   0  0  0  0  0  0  0  0  0  0  0  0
    2.5970   19.5000   -0.9970 C   0  0  2  0  0  0  0  0  0  0  0  0
    2.5860   19.8710    0.3850 O   0  0  0  0  0  0  0  0  0  0  0  0
    1.2420   18.8370   -1.3710 C   0  0  0  0  0  0  0  0  0  0  0  0
    1.1320   18.7110   -2.9110 C   0  0  0  0  0  0  0  0  0  0  0  0
    0.1040   19.7970   -0.9320 C   0  0  0  0  0  0  0  0  0  0  0  0
    2.2560   15.0660   -0.2770 C   0  0  1  0  0  0  0  0  0  0  0  0
    2.7310   15.1330    1.2070 C   0  0  0  0  0  0  0  0  0  0  0  0
    3.2420   14.0840   -1.0140 C   0  0  0  0  0  0  0  0  0  0  0  0
    2.6950   13.3520   -2.2550 C   0  0  0  0  0  0  0  0  0  0  0  0
    1.3380   12.7060   -1.9560 C   0  0  2  0  0  0  0  0  0  0  0  0
    1.5560   11.6290   -0.8400 C   0  0  0  0  0  0  0  0  0  0  0  0
    2.9476   10.9714   -4.7082 H   0  0  0  0  0  0  0  0  0  0  0  0
    1.7722    9.8602   -5.4895 H   0  0  0  0  0  0  0  0  0  0  0  0
    1.4708   11.6311   -5.4895 H   0  0  0  0  0  0  0  0  0  0  0  0
    1.8282   10.2671   -2.8404 H   0  0  0  0  0  0  0  0  0  0  0  0
   -0.9895   10.2240   -3.5482 H   0  0  0  0  0  0  0  0  0  0  0  0
    0.0127    9.1904   -4.6753 H   0  0  0  0  0  0  0  0  0  0  0  0
   -0.8780    7.8996   -2.7713 H   0  0  0  0  0  0  0  0  0  0  0  0
    0.9332    7.9795   -2.7993 H   0  0  0  0  0  0  0  0  0  0  0  0
    0.8448    9.7639   -1.4885 H   0  0  0  0  0  0  0  0  0  0  0  0
   -3.2865    8.7435   -0.1156 H   0  0  0  0  0  0  0  0  0  0  0  0
   -2.9719    9.7531   -1.5676 H   0  0  0  0  0  0  0  0  0  0  0  0
   -2.5205    8.0144   -1.5676 H   0  0  0  0  0  0  0  0  0  0  0  0
   -1.2278    9.6947    1.6753 H   0  0  0  0  0  0  0  0  0  0  0  0
   -0.2877   10.8447    0.6651 H   0  0  0  0  0  0  0  0  0  0  0  0
   -2.0828   10.9094    0.6651 H   0  0  0  0  0  0  0  0  0  0  0  0
    0.7916   12.5987   -4.0694 H   0  0  0  0  0  0  0  0  0  0  0  0
   -1.5333   12.2668   -3.5019 H   0  0  0  0  0  0  0  0  0  0  0  0
   -1.1458   10.9809   -2.3388 H   0  0  0  0  0  0  0  0  0  0  0  0
   -1.8670   13.6639   -1.6698 H   0  0  0  0  0  0  0  0  0  0  0  0
   -1.1288   12.5294   -0.5422 H   0  0  0  0  0  0  0  0  0  0  0  0
   -0.1567   15.8689   -2.2614 H   0  0  0  0  0  0  0  0  0  0  0  0
    0.9733   14.9776   -3.3364 H   0  0  0  0  0  0  0  0  0  0  0  0
   -0.7761   14.5698   -3.3364 H   0  0  0  0  0  0  0  0  0  0  0  0
    0.7508   13.6822    0.4593 H   0  0  0  0  0  0  0  0  0  0  0  0
   -1.2226   15.2778    0.0193 H   0  0  0  0  0  0  0  0  0  0  0  0
   -0.0429   15.5787    1.4002 H   0  0  0  0  0  0  0  0  0  0  0  0
   -0.7809   17.6951    0.0165 H   0  0  0  0  0  0  0  0  0  0  0  0
    2.4000   16.2650   -2.0190 H   0  0  0  0  0  0  0  0  0  0  0  0
    3.6063   17.4554    0.5545 H   0  0  0  0  0  0  0  0  0  0  0  0
    4.5075   16.6351   -0.7968 H   0  0  0  0  0  0  0  0  0  0  0  0
    4.7116   19.0993   -0.8965 H   0  0  0  0  0  0  0  0  0  0  0  0
    3.8702   18.4027   -2.3355 H   0  0  0  0  0  0  0  0  0  0  0  0
    2.7030   20.3830   -1.6443 H   0  0  0  0  0  0  0  0  0  0  0  0
    2.6180   19.0530    0.9090 H   0  0  0  0  0  0  0  0  0  0  0  0
    0.4279   17.9045   -3.1635 H   0  0  0  0  0  0  0  0  0  0  0  0
    0.7684   19.6602   -3.3315 H   0  0  0  0  0  0  0  0  0  0  0  0
    2.1216   18.4788   -3.3315 H   0  0  0  0  0  0  0  0  0  0  0  0
    0.0594   19.8346    0.1664 H   0  0  0  0  0  0  0  0  0  0  0  0
    0.3022   20.8048   -1.3257 H   0  0  0  0  0  0  0  0  0  0  0  0
   -0.8560   19.4318   -1.3257 H   0  0  0  0  0  0  0  0  0  0  0  0
    1.8655   15.0109    1.8749 H   0  0  0  0  0  0  0  0  0  0  0  0
    3.4567   14.3283    1.3964 H   0  0  0  0  0  0  0  0  0  0  0  0
    3.2058   16.1070    1.3964 H   0  0  0  0  0  0  0  0  0  0  0  0
    4.1181   14.6684   -1.3316 H   0  0  0  0  0  0  0  0  0  0  0  0
    3.4575   13.2904   -0.2834 H   0  0  0  0  0  0  0  0  0  0  0  0
    2.5767   14.0744   -3.0760 H   0  0  0  0  0  0  0  0  0  0  0  0
    3.4055   12.5613   -2.5378 H   0  0  0  0  0  0  0  0  0  0  0  0
    1.4604   12.1012    0.1489 H   0  0  0  0  0  0  0  0  0  0  0  0
    0.8000   10.8365   -0.9425 H   0  0  0  0  0  0  0  0  0  0  0  0
    2.5606   11.1929   -0.9425 H   0  0  0  0  0  0  0  0  0  0  0  0
  1  2  1  0
  2  3  1  0
  3  4  1  0
  4  5  1  0
  5  6  1  0
  6  7  1  0
  7  8  1  0
  7  9  1  0
  2 10  1  0
 10 11  1  0
 11 12  1  0
 12 13  1  0
 13 14  1  6
 13 15  1  0
 15 16  1  0
 16 17  1  0
 17 18  2  0
 18 19  1  0
 19 20  1  0
 20 21  1  0
 21 22  1  0
 22 23  1  0
 22 24  1  0
 24 25  1  0
 24 26  1  0
 19 27  1  0
 27 28  1  1
 27 29  1  0
 29 30  1  0
 30 31  1  0
 31 32  1  1
  7  5  1  0
 31 10  1  0
 31 13  1  0
 27 15  1  0
 24 18  1  0
  1 33  1  0
  1 34  1  0
  1 35  1  0
  2 36  1  1
  3 37  1  0
  3 38  1  0
  4 39  1  0
  4 40  1  0
  5 41  1  1
  8 42  1  0
  8 43  1  0
  8 44  1  0
  9 45  1  0
  9 46  1  0
  9 47  1  0
 10 48  1  6
 11 49  1  0
 11 50  1  0
 12 51  1  0
 12 52  1  0
 14 53  1  0
 14 54  1  0
 14 55  1  0
 15 56  1  1
 16 57  1  0
 16 58  1  0
 17 59  1  0
 19 60  1  6
 20 61  1  0
 20 62  1  0
 21 63  1  0
 21 64  1  0
 22 65  1  6
 23 66  1  0
 25 67  1  0
 25 68  1  0
 25 69  1  0
 26 70  1  0
 26 71  1  0
 26 72  1  0
 28 73  1  0
 28 74  1  0
 28 75  1  0
 29 76  1  0
 29 77  1  0
 30 78  1  0
 30 79  1  0
 32 80  1  0
 32 81  1  0
 32 82  1  0
M  END
>  <meeko>  (16) 
{"is_sidechain": [false], "intermolecular_energy": 2.731, "internal_energy": -0.839}

$$$$
EPH_relaxed_0001_pdb2pqr_Repair_269_r2_0001_out
     RDKit          3D

 82 86  0  0  0  0  0  0  0  0999 V2000
   -1.7570   14.8260    0.3970 C   0  0  0  0  0  0  0  0  0  0  0  0
   -0.4030   15.5270    0.2530 C   0  0  2  0  0  0  0  0  0  0  0  0
   -0.4100   16.5790   -0.8740 C   0  0  0  0  0  0  0  0  0  0  0  0
   -0.0370   17.9870   -0.4040 C   0  0  0  0  0  0  0  0  0  0  0  0
    1.4010   18.0710    0.0090 C   0  0  2  0  0  0  0  0  0  0  0  0
    2.0560   19.2950   -0.3490 O   0  0  0  0  0  0  0  0  0  0  0  0
    2.5540   18.1030   -0.9770 C   0  0  0  0  0  0  0  0  0  0  0  0
    2.3190   18.0490   -2.4540 C   0  0  0  0  0  0  0  0  0  0  0  0
    3.9130   17.6940   -0.5010 C   0  0  0  0  0  0  0  0  0  0  0  0
    0.6910   14.4960   -0.0040 C   0  0  1  0  0  0  0  0  0  0  0  0
    0.8230   13.4660    1.1490 C   0  0  0  0  0  0  0  0  0  0  0  0
    1.2030   12.1110    0.4980 C   0  0  0  0  0  0  0  0  0  0  0  0
    1.5990   12.4740   -0.9530 C   0  0  1  0  0  0  0  0  0  0  0  0
    3.0720   12.9810   -0.8520 C   0  0  0  0  0  0  0  0  0  0  0  0
    1.4530   11.3350   -2.0140 C   0  0  2  0  0  0  0  0  0  0  0  0
    2.3390   10.1010   -1.7730 C   0  0  0  0  0  0  0  0  0  0  0  0
    3.6840   10.1460   -2.4190 C   0  0  0  0  0  0  0  0  0  0  0  0
    4.0570   10.9990   -3.3910 C   0  0  0  0  0  0  0  0  0  0  0  0
    3.0500   11.9800   -4.0070 C   0  0  1  0  0  0  0  0  0  0  0  0
    3.1760   11.9480   -5.5530 C   0  0  0  0  0  0  0  0  0  0  0  0
    4.6030   12.2010   -6.0290 C   0  0  0  0  0  0  0  0  0  0  0  0
    5.5650   11.1710   -5.4420 C   0  0  2  0  0  0  0  0  0  0  0  0
    5.2530    9.8860   -5.9870 O   0  0  0  0  0  0  0  0  0  0  0  0
    5.5190   11.1060   -3.8890 C   0  0  0  0  0  0  0  0  0  0  0  0
    6.1430   12.3930   -3.2960 C   0  0  0  0  0  0  0  0  0  0  0  0
    6.4290    9.9330   -3.4340 C   0  0  0  0  0  0  0  0  0  0  0  0
    1.5470   11.8310   -3.5140 C   0  0  1  0  0  0  0  0  0  0  0  0
    0.8050   10.7680   -4.3810 C   0  0  0  0  0  0  0  0  0  0  0  0
    0.7940   13.1940   -3.7420 C   0  0  0  0  0  0  0  0  0  0  0  0
    0.8770   14.2320   -2.6060 C   0  0  0  0  0  0  0  0  0  0  0  0
    0.5390   13.5950   -1.2550 C   0  0  2  0  0  0  0  0  0  0  0  0
   -0.9440   13.0950   -1.3190 C   0  0  0  0  0  0  0  0  0  0  0  0
   -1.9946   14.7030    1.4640 H   0  0  0  0  0  0  0  0  0  0  0  0
   -2.5374   15.4333   -0.0848 H   0  0  0  0  0  0  0  0  0  0  0  0
   -1.7115   13.8382   -0.0848 H   0  0  0  0  0  0  0  0  0  0  0  0
   -0.2023   16.0557    1.1965 H   0  0  0  0  0  0  0  0  0  0  0  0
    0.3111   16.2676   -1.6441 H   0  0  0  0  0  0  0  0  0  0  0  0
   -1.4392   16.6308   -1.2589 H   0  0  0  0  0  0  0  0  0  0  0  0
   -0.2136   18.6958   -1.2265 H   0  0  0  0  0  0  0  0  0  0  0  0
   -0.6593   18.2330    0.4691 H   0  0  0  0  0  0  0  0  0  0  0  0
    1.2067   17.4520    0.8973 H   0  0  0  0  0  0  0  0  0  0  0  0
    1.2639   17.8065   -2.6488 H   0  0  0  0  0  0  0  0  0  0  0  0
    2.5591   19.0257   -2.8994 H   0  0  0  0  0  0  0  0  0  0  0  0
    2.9613   17.2751   -2.8994 H   0  0  0  0  0  0  0  0  0  0  0  0
    3.9301   17.6889    0.5989 H   0  0  0  0  0  0  0  0  0  0  0  0
    4.1449   16.6863   -0.8760 H   0  0  0  0  0  0  0  0  0  0  0  0
    4.6626   18.4063   -0.8760 H   0  0  0  0  0  0  0  0  0  0  0  0
    1.5531   15.1681   -0.1268 H   0  0  0  0  0  0  0  0  0  0  0  0
    1.6084   13.7822    1.8512 H   0  0  0  0  0  0  0  0  0  0  0  0
   -0.1175   13.3827    1.7134 H   0  0  0  0  0  0  0  0  0  0  0  0
    2.0492   11.6492    1.0277 H   0  0  0  0  0  0  0  0  0  0  0  0
    0.3788   11.3835    0.5364 H   0  0  0  0  0  0  0  0  0  0  0  0
    3.3545   13.0782    0.2066 H   0  0  0  0  0  0  0  0  0  0  0  0
    3.7420   12.2618   -1.3457 H   0  0  0  0  0  0  0  0  0  0  0  0
    3.1574   13.9603   -1.3457 H   0  0  0  0  0  0  0  0  0  0  0  0
    0.4191   10.9950   -1.8545 H   0  0  0  0  0  0  0  0  0  0  0  0
    2.4864    9.9950   -0.6881 H   0  0  0  0  0  0  0  0  0  0  0  0
    1.8097    9.2522   -2.2307 H   0  0  0  0  0  0  0  0  0  0  0  0
    4.4340    9.4204   -2.0711 H   0  0  0  0  0  0  0  0  0  0  0  0
    3.3259   12.9761   -3.6305 H   0  0  0  0  0  0  0  0  0  0  0  0
    2.8544   10.9594   -5.9126 H   0  0  0  0  0  0  0  0  0  0  0  0
    2.5421   12.7514   -5.9563 H   0  0  0  0  0  0  0  0  0  0  0  0
    4.6330   12.1369   -7.1267 H   0  0  0  0  0  0  0  0  0  0  0  0
    4.9127   13.2017   -5.6934 H   0  0  0  0  0  0  0  0  0  0  0  0
    6.5854   11.4797   -5.7130 H   0  0  0  0  0  0  0  0  0  0  0  0
    5.8800    9.2460   -5.6100 H   0  0  0  0  0  0  0  0  0  0  0  0
    6.1175   12.3404   -2.1976 H   0  0  0  0  0  0  0  0  0  0  0  0
    7.1856   12.4846   -3.6346 H   0  0  0  0  0  0  0  0  0  0  0  0
    5.5692   13.2683   -3.6346 H   0  0  0  0  0  0  0  0  0  0  0  0
    6.4576    9.8961   -2.3350 H   0  0  0  0  0  0  0  0  0  0  0  0
    6.0274    8.9854   -3.8223 H   0  0  0  0  0  0  0  0  0  0  0  0
    7.4467   10.0865   -3.8223 H   0  0  0  0  0  0  0  0  0  0  0  0
    0.3006   10.0453   -3.7228 H   0  0  0  0  0  0  0  0  0  0  0  0
    0.0591   11.2685   -5.0159 H   0  0  0  0  0  0  0  0  0  0  0  0
    1.5320   10.2404   -5.0159 H   0  0  0  0  0  0  0  0  0  0  0  0
    1.2120   13.6577   -4.6477 H   0  0  0  0  0  0  0  0  0  0  0  0
   -0.2708   12.9267   -3.8105 H   0  0  0  0  0  0  0  0  0  0  0  0
    1.8975   14.6405   -2.5658 H   0  0  0  0  0  0  0  0  0  0  0  0
    0.1495   15.0319   -2.8082 H   0  0  0  0  0  0  0  0  0  0  0  0
   -1.3313   12.9644   -0.2978 H   0  0  0  0  0  0  0  0  0  0  0  0
   -1.5580   13.8358   -1.8521 H   0  0  0  0  0  0  0  0  0  0  0  0
   -0.9841   12.1336   -1.8521 H   0  0  0  0  0  0  0  0  0  0  0  0
  1  2  1  0
  2  3  1  0
  3  4  1  0
  4  5  1  0
  5  6  1  0
  6  7  1  0
  7  8  1  0
  7  9  1  0
  2 10  1  0
 10 11  1  0
 11 12  1  0
 12 13  1  0
 13 14  1  1
 13 15  1  0
 15 16  1  0
 16 17  1  0
 17 18  2  0
 18 19  1  0
 19 20  1  0
 20 21  1  0
 21 22  1  0
 22 23  1  0
 22 24  1  0
 24 25  1  0
 24 26  1  0
 19 27  1  0
 27 28  1  6
 27 29  1  0
 29 30  1  0
 30 31  1  0
 31 32  1  6
  7  5  1  0
 31 10  1  0
 31 13  1  0
 27 15  1  0
 24 18  1  0
  1 33  1  0
  1 34  1  0
  1 35  1  0
  2 36  1  1
  3 37  1  0
  3 38  1  0
  4 39  1  0
  4 40  1  0
  5 41  1  1
  8 42  1  0
  8 43  1  0
  8 44  1  0
  9 45  1  0
  9 46  1  0
  9 47  1  0
 10 48  1  6
 11 49  1  0
 11 50  1  0
 12 51  1  0
 12 52  1  0
 14 53  1  0
 14 54  1  0
 14 55  1  0
 15 56  1  6
 16 57  1  0
 16 58  1  0
 17 59  1  0
 19 60  1  1
 20 61  1  0
 20 62  1  0
 21 63  1  0
 21 64  1  0
 22 65  1  1
 23 66  1  0
 25 67  1  0
 25 68  1  0
 25 69  1  0
 26 70  1  0
 26 71  1  0
 26 72  1  0
 28 73  1  0
 28 74  1  0
 28 75  1  0
 29 76  1  0
 29 77  1  0
 30 78  1  0
 30 79  1  0
 32 80  1  0
 32 81  1  0
 32 82  1  0
M  END
>  <meeko>  (17) 
{"is_sidechain": [false], "intermolecular_energy": 2.731, "internal_energy": -0.839}

$$$$
EPH_relaxed_0001_pdb2pqr_Repair_269_r2_0001_out
     RDKit          3D

 82 86  0  0  0  0  0  0  0  0999 V2000
    0.9040   14.8840   -2.6160 C   0  0  0  0  0  0  0  0  0  0  0  0
    1.1810   14.2080   -3.9610 C   0  0  2  0  0  0  0  0  0  0  0  0
    0.4900   14.9370   -5.1310 C   0  0  0  0  0  0  0  0  0  0  0  0
    1.0790   14.5960   -6.5020 C   0  0  0  0  0  0  0  0  0  0  0  0
    0.8340   15.6890   -7.4980 C   0  0  2  0  0  0  0  0  0  0  0  0
    0.3730   15.2400   -8.7790 O   0  0  0  0  0  0  0  0  0  0  0  0
    1.6610   15.8760   -8.7560 C   0  0  0  0  0  0  0  0  0  0  0  0
    2.7980   14.9600   -9.0860 C   0  0  0  0  0  0  0  0  0  0  0  0
    1.6800   17.2240   -9.4070 C   0  0  0  0  0  0  0  0  0  0  0  0
    0.7290   12.7530   -3.9150 C   0  0  1  0  0  0  0  0  0  0  0  0
    1.8610   11.7630   -4.3000 C   0  0  0  0  0  0  0  0  0  0  0  0
    1.6580   10.4940   -3.4330 C   0  0  0  0  0  0  0  0  0  0  0  0
    0.2440   10.6560   -2.8280 C   0  0  1  0  0  0  0  0  0  0  0  0
   -0.7300   10.1930   -3.9570 C   0  0  0  0  0  0  0  0  0  0  0  0
   -0.0250    9.8980   -1.4870 C   0  0  2  0  0  0  0  0  0  0  0  0
    0.0780    8.3650   -1.5720 C   0  0  0  0  0  0  0  0  0  0  0  0
   -1.1940    7.6570   -1.9010 C   0  0  0  0  0  0  0  0  0  0  0  0
   -2.4270    8.1950   -1.8400 C   0  0  0  0  0  0  0  0  0  0  0  0
   -2.6390    9.6200   -1.3130 C   0  0  1  0  0  0  0  0  0  0  0  0
   -3.8210    9.6300   -0.3080 C   0  0  0  0  0  0  0  0  0  0  0  0
   -5.0940    9.0300   -0.8960 C   0  0  0  0  0  0  0  0  0  0  0  0
   -4.8580    7.5930   -1.3560 C   0  0  2  0  0  0  0  0  0  0  0  0
   -4.6030    6.7780   -0.2080 O   0  0  0  0  0  0  0  0  0  0  0  0
   -3.6830    7.4580   -2.3650 C   0  0  0  0  0  0  0  0  0  0  0  0
   -4.0860    8.0880   -3.7210 C   0  0  0  0  0  0  0  0  0  0  0  0
   -3.4600    5.9460   -2.6380 C   0  0  0  0  0  0  0  0  0  0  0  0
   -1.3460   10.3480   -0.7420 C   0  0  1  0  0  0  0  0  0  0  0  0
   -1.1540    9.9880    0.7630 C   0  0  0  0  0  0  0  0  0  0  0  0
   -1.5660   11.9060   -0.8010 C   0  0  0  0  0  0  0  0  0  0  0  0
   -1.1690   12.6140   -2.1110 C   0  0  0  0  0  0  0  0  0  0  0  0
    0.2390   12.2030   -2.5520 C   0  0  2  0  0  0  0  0  0  0  0  0
    1.2440   12.6750   -1.4460 C   0  0  0  0  0  0  0  0  0  0  0  0
    1.1832   14.2027   -1.7988 H   0  0  0  0  0  0  0  0  0  0  0  0
    1.4959   15.8081   -2.5413 H   0  0  0  0  0  0  0  0  0  0  0  0
   -0.1662   15.1270   -2.5413 H   0  0  0  0  0  0  0  0  0  0  0  0
    2.2658   14.2550   -4.1370 H   0  0  0  0  0  0  0  0  0  0  0  0
   -0.5748   14.6608   -5.1320 H   0  0  0  0  0  0  0  0  0  0  0  0
    0.6438   16.0148   -4.9740 H   0  0  0  0  0  0  0  0  0  0  0  0
    2.1637   14.4462   -6.3967 H   0  0  0  0  0  0  0  0  0  0  0  0
    0.5885   13.6821   -6.8682 H   0  0  0  0  0  0  0  0  0  0  0  0
    0.5413   16.3843   -6.6974 H   0  0  0  0  0  0  0  0  0  0  0  0
    3.2545   14.5922   -8.1553 H   0  0  0  0  0  0  0  0  0  0  0  0
    2.4240   14.1079   -9.6726 H   0  0  0  0  0  0  0  0  0  0  0  0
    3.5510   15.5068   -9.6726 H   0  0  0  0  0  0  0  0  0  0  0  0
    1.6910   18.0051   -8.6325 H   0  0  0  0  0  0  0  0  0  0  0  0
    2.5795   17.3160  -10.0334 H   0  0  0  0  0  0  0  0  0  0  0  0
    0.7834   17.3413  -10.0334 H   0  0  0  0  0  0  0  0  0  0  0  0
   -0.1093   12.7981   -4.6258 H   0  0  0  0  0  0  0  0  0  0  0  0
    1.7938   11.5072   -5.3677 H   0  0  0  0  0  0  0  0  0  0  0  0
    2.8517   12.2075   -4.1243 H   0  0  0  0  0  0  0  0  0  0  0  0
    1.7133    9.5872   -4.0532 H   0  0  0  0  0  0  0  0  0  0  0  0
    2.4329   10.3894   -2.6593 H   0  0  0  0  0  0  0  0  0  0  0  0
   -1.6360    9.7623   -3.5058 H   0  0  0  0  0  0  0  0  0  0  0  0
   -1.0057   11.0564   -4.5803 H   0  0  0  0  0  0  0  0  0  0  0  0
   -0.2345    9.4341   -4.5803 H   0  0  0  0  0  0  0  0  0  0  0  0
    0.8200   10.2198   -0.8606 H   0  0  0  0  0  0  0  0  0  0  0  0
    0.8158    8.1167   -2.3491 H   0  0  0  0  0  0  0  0  0  0  0  0
    0.3646    8.0234   -0.5664 H   0  0  0  0  0  0  0  0  0  0  0  0
   -1.1179    6.6071   -2.2203 H   0  0  0  0  0  0  0  0  0  0  0  0
   -2.8898   10.2344   -2.1903 H   0  0  0  0  0  0  0  0  0  0  0  0
   -3.5340    9.0473    0.5797 H   0  0  0  0  0  0  0  0  0  0  0  0
   -4.0333   10.6787   -0.0527 H   0  0  0  0  0  0  0  0  0  0  0  0
   -5.8830    9.0377   -0.1296 H   0  0  0  0  0  0  0  0  0  0  0  0
   -5.3967    9.6318   -1.7656 H   0  0  0  0  0  0  0  0  0  0  0  0
   -5.7643    7.2622   -1.8845 H   0  0  0  0  0  0  0  0  0  0  0  0
   -4.1780    7.3390    0.4630 H   0  0  0  0  0  0  0  0  0  0  0  0
   -4.6708    9.0022   -3.5412 H   0  0  0  0  0  0  0  0  0  0  0  0
   -3.1802    8.3386   -4.2925 H   0  0  0  0  0  0  0  0  0  0  0  0
   -4.6933    7.3707   -4.2925 H   0  0  0  0  0  0  0  0  0  0  0  0
   -3.3807    5.4085   -1.6815 H   0  0  0  0  0  0  0  0  0  0  0  0
   -4.3092    5.5481   -3.2129 H   0  0  0  0  0  0  0  0  0  0  0  0
   -2.5321    5.8102   -3.2129 H   0  0  0  0  0  0  0  0  0  0  0  0
   -1.5799   10.7866    1.3882 H   0  0  0  0  0  0  0  0  0  0  0  0
   -1.6658    9.0391    0.9812 H   0  0  0  0  0  0  0  0  0  0  0  0
   -0.0809    9.8844    0.9812 H   0  0  0  0  0  0  0  0  0  0  0  0
   -2.6355   12.0979   -0.6298 H   0  0  0  0  0  0  0  0  0  0  0  0
   -0.8951   12.3210   -0.0344 H   0  0  0  0  0  0  0  0  0  0  0  0
   -1.8866   12.3416   -2.8989 H   0  0  0  0  0  0  0  0  0  0  0  0
   -1.1793   13.7005   -1.9393 H   0  0  0  0  0  0  0  0  0  0  0  0
    0.8167   12.4743   -0.4525 H   0  0  0  0  0  0  0  0  0  0  0  0
    2.1922   12.1280   -1.5546 H   0  0  0  0  0  0  0  0  0  0  0  0
    1.4286   13.7540   -1.5546 H   0  0  0  0  0  0  0  0  0  0  0  0
  1  2  1  0
  2  3  1  0
  3  4  1  0
  4  5  1  0
  5  6  1  0
  6  7  1  0
  7  8  1  0
  7  9  1  0
  2 10  1  0
 10 11  1  0
 11 12  1  0
 12 13  1  0
 13 14  1  6
 13 15  1  0
 15 16  1  0
 16 17  1  0
 17 18  2  0
 18 19  1  0
 19 20  1  0
 20 21  1  0
 21 22  1  0
 22 23  1  0
 22 24  1  0
 24 25  1  0
 24 26  1  0
 19 27  1  0
 27 28  1  1
 27 29  1  0
 29 30  1  0
 30 31  1  0
 31 32  1  1
  7  5  1  0
 31 10  1  0
 31 13  1  0
 27 15  1  0
 24 18  1  0
  1 33  1  0
  1 34  1  0
  1 35  1  0
  2 36  1  6
  3 37  1  0
  3 38  1  0
  4 39  1  0
  4 40  1  0
  5 41  1  1
  8 42  1  0
  8 43  1  0
  8 44  1  0
  9 45  1  0
  9 46  1  0
  9 47  1  0
 10 48  1  6
 11 49  1  0
 11 50  1  0
 12 51  1  0
 12 52  1  0
 14 53  1  0
 14 54  1  0
 14 55  1  0
 15 56  1  1
 16 57  1  0
 16 58  1  0
 17 59  1  0
 19 60  1  6
 20 61  1  0
 20 62  1  0
 21 63  1  0
 21 64  1  0
 22 65  1  6
 23 66  1  0
 25 67  1  0
 25 68  1  0
 25 69  1  0
 26 70  1  0
 26 71  1  0
 26 72  1  0
 28 73  1  0
 28 74  1  0
 28 75  1  0
 29 76  1  0
 29 77  1  0
 30 78  1  0
 30 79  1  0
 32 80  1  0
 32 81  1  0
 32 82  1  0
M  END
>  <meeko>  (18) 
{"is_sidechain": [false], "intermolecular_energy": 2.731, "internal_energy": -0.839}

$$$$
EPH_relaxed_0001_pdb2pqr_Repair_269_r2_0001_out
     RDKit          3D

 82 86  0  0  0  0  0  0  0  0999 V2000
   -2.4550    7.7810   -0.0020 C   0  0  0  0  0  0  0  0  0  0  0  0
   -3.1290    9.1550   -0.0590 C   0  0  2  0  0  0  0  0  0  0  0  0
   -4.6010    9.0610   -0.5060 C   0  0  0  0  0  0  0  0  0  0  0  0
   -5.1310    7.6270   -0.5820 C   0  0  0  0  0  0  0  0  0  0  0  0
   -5.8970    7.3850   -1.8480 C   0  0  2  0  0  0  0  0  0  0  0  0
   -6.8190    8.4250   -2.1990 O   0  0  0  0  0  0  0  0  0  0  0  0
   -7.3950    7.1470   -1.8870 C   0  0  0  0  0  0  0  0  0  0  0  0
   -8.2160    7.1370   -0.6370 C   0  0  0  0  0  0  0  0  0  0  0  0
   -7.9760    6.4430   -3.0740 C   0  0  0  0  0  0  0  0  0  0  0  0
   -2.3560   10.0740   -0.9970 C   0  0  1  0  0  0  0  0  0  0  0  0
   -2.9950   11.4830   -1.1130 C   0  0  0  0  0  0  0  0  0  0  0  0
   -1.8290   12.4920   -1.2730 C   0  0  0  0  0  0  0  0  0  0  0  0
   -0.5920   11.6130   -1.5760 C   0  0  1  0  0  0  0  0  0  0  0  0
   -0.6910   11.2940   -3.1000 C   0  0  0  0  0  0  0  0  0  0  0  0
    0.7980   12.2250   -1.2030 C   0  0  2  0  0  0  0  0  0  0  0  0
    1.1680   13.5130   -1.9580 C   0  0  0  0  0  0  0  0  0  0  0  0
    1.9140   13.3110   -3.2360 C   0  0  0  0  0  0  0  0  0  0  0  0
    2.5200   12.1710   -3.6150 C   0  0  0  0  0  0  0  0  0  0  0  0
    2.5750   10.9580   -2.6780 C   0  0  1  0  0  0  0  0  0  0  0  0
    4.0160   10.3830   -2.6590 C   0  0  0  0  0  0  0  0  0  0  0  0
    4.5370   10.0640   -4.0570 C   0  0  0  0  0  0  0  0  0  0  0  0
    4.5220   11.3080   -4.9420 C   0  0  2  0  0  0  0  0  0  0  0  0
    5.4750   12.2460   -4.4350 O   0  0  0  0  0  0  0  0  0  0  0  0
    3.1230   11.9800   -5.0290 C   0  0  0  0  0  0  0  0  0  0  0  0
    2.1640   11.0820   -5.8490 C   0  0  0  0  0  0  0  0  0  0  0  0
    3.2760   13.2990   -5.8340 C   0  0  0  0  0  0  0  0  0  0  0  0
    1.9890   11.1830   -1.2180 C   0  0  1  0  0  0  0  0  0  0  0  0
    3.0960   11.7590   -0.2830 C   0  0  0  0  0  0  0  0  0  0  0  0
    1.5740    9.7910   -0.6100 C   0  0  0  0  0  0  0  0  0  0  0  0
    0.1470    9.2970   -0.9160 C   0  0  0  0  0  0  0  0  0  0  0  0
   -0.8850   10.3920   -0.6300 C   0  0  2  0  0  0  0  0  0  0  0  0
   -0.8240   10.7190    0.9010 C   0  0  0  0  0  0  0  0  0  0  0  0
   -2.3106    7.4867    1.0480 H   0  0  0  0  0  0  0  0  0  0  0  0
   -3.0915    7.0392   -0.5065 H   0  0  0  0  0  0  0  0  0  0  0  0
   -1.4788    7.8303   -0.5065 H   0  0  0  0  0  0  0  0  0  0  0  0
   -3.1200    9.5713    0.9591 H   0  0  0  0  0  0  0  0  0  0  0  0
   -5.2182    9.6217    0.2114 H   0  0  0  0  0  0  0  0  0  0  0  0
   -4.6554    9.4779   -1.5225 H   0  0  0  0  0  0  0  0  0  0  0  0
   -4.2809    6.9302   -0.5410 H   0  0  0  0  0  0  0  0  0  0  0  0
   -5.8125    7.4680    0.2667 H   0  0  0  0  0  0  0  0  0  0  0  0
   -5.0503    6.8329   -2.2819 H   0  0  0  0  0  0  0  0  0  0  0  0
   -7.5505    7.1451    0.2388 H   0  0  0  0  0  0  0  0  0  0  0  0
   -8.8616    8.0273   -0.6152 H   0  0  0  0  0  0  0  0  0  0  0  0
   -8.8397    6.2312   -0.6152 H   0  0  0  0  0  0  0  0  0  0  0  0
   -8.6416    5.6365   -2.7325 H   0  0  0  0  0  0  0  0  0  0  0  0
   -8.5493    7.1593   -3.6808 H   0  0  0  0  0  0  0  0  0  0  0  0
   -7.1639    6.0160   -3.6808 H   0  0  0  0  0  0  0  0  0  0  0  0
   -2.3920    9.4708   -1.9162 H   0  0  0  0  0  0  0  0  0  0  0  0
   -3.6572   11.5274   -1.9902 H   0  0  0  0  0  0  0  0  0  0  0  0
   -3.5997   11.7164   -0.2243 H   0  0  0  0  0  0  0  0  0  0  0  0
   -2.0262   13.1849   -2.1043 H   0  0  0  0  0  0  0  0  0  0  0  0
   -1.6895   13.1143   -0.3767 H   0  0  0  0  0  0  0  0  0  0  0  0
   -1.0145   10.2515   -3.2361 H   0  0  0  0  0  0  0  0  0  0  0  0
   -1.4219   11.9690   -3.5692 H   0  0  0  0  0  0  0  0  0  0  0  0
    0.2937   11.4366   -3.5692 H   0  0  0  0  0  0  0  0  0  0  0  0
    0.6501   12.5261   -0.1554 H   0  0  0  0  0  0  0  0  0  0  0  0
    0.2368   14.0509   -2.1893 H   0  0  0  0  0  0  0  0  0  0  0  0
    1.8456   14.0707   -1.2948 H   0  0  0  0  0  0  0  0  0  0  0  0
    1.9730   14.1661   -3.9254 H   0  0  0  0  0  0  0  0  0  0  0  0
    1.8823   10.2155   -3.1009 H   0  0  0  0  0  0  0  0  0  0  0  0
    4.6846   11.1223   -2.1937 H   0  0  0  0  0  0  0  0  0  0  0  0
    3.9928    9.4427   -2.0887 H   0  0  0  0  0  0  0  0  0  0  0  0
    5.5684    9.6894   -3.9800 H   0  0  0  0  0  0  0  0  0  0  0  0
    3.8842    9.3032   -4.5098 H   0  0  0  0  0  0  0  0  0  0  0  0
    4.7820   10.9903   -5.9625 H   0  0  0  0  0  0  0  0  0  0  0  0
    5.1540   13.1380   -4.6500 H   0  0  0  0  0  0  0  0  0  0  0  0
    1.5361   10.4941   -5.1633 H   0  0  0  0  0  0  0  0  0  0  0  0
    1.5235   11.7126   -6.4830 H   0  0  0  0  0  0  0  0  0  0  0  0
    2.7513   10.4015   -6.4830 H   0  0  0  0  0  0  0  0  0  0  0  0
    3.3741   14.1445   -5.1372 H   0  0  0  0  0  0  0  0  0  0  0  0
    4.1733   13.2399   -6.4675 H   0  0  0  0  0  0  0  0  0  0  0  0
    2.3890   13.4469   -6.4675 H   0  0  0  0  0  0  0  0  0  0  0  0
    2.8046   11.6074    0.7668 H   0  0  0  0  0  0  0  0  0  0  0  0
    4.0467   11.2412   -0.4781 H   0  0  0  0  0  0  0  0  0  0  0  0
    3.2176   12.8347   -0.4781 H   0  0  0  0  0  0  0  0  0  0  0  0
    2.2767    9.0371   -0.9944 H   0  0  0  0  0  0  0  0  0  0  0  0
    1.6017    9.9334    0.4804 H   0  0  0  0  0  0  0  0  0  0  0  0
    0.0846    9.0118   -1.9765 H   0  0  0  0  0  0  0  0  0  0  0  0
   -0.0708    8.4326   -0.2715 H   0  0  0  0  0  0  0  0  0  0  0  0
   -0.9956    9.7993    1.4795 H   0  0  0  0  0  0  0  0  0  0  0  0
    0.1661   11.1290    1.1492 H   0  0  0  0  0  0  0  0  0  0  0  0
   -1.5997   11.4584    1.1492 H   0  0  0  0  0  0  0  0  0  0  0  0
  1  2  1  0
  2  3  1  0
  3  4  1  0
  4  5  1  0
  5  6  1  0
  6  7  1  0
  7  8  1  0
  7  9  1  0
  2 10  1  0
 10 11  1  0
 11 12  1  0
 12 13  1  0
 13 14  1  6
 13 15  1  0
 15 16  1  0
 16 17  1  0
 17 18  2  0
 18 19  1  0
 19 20  1  0
 20 21  1  0
 21 22  1  0
 22 23  1  0
 22 24  1  0
 24 25  1  0
 24 26  1  0
 19 27  1  0
 27 28  1  1
 27 29  1  0
 29 30  1  0
 30 31  1  0
 31 32  1  1
  7  5  1  0
 31 10  1  0
 31 13  1  0
 27 15  1  0
 24 18  1  0
  1 33  1  0
  1 34  1  0
  1 35  1  0
  2 36  1  1
  3 37  1  0
  3 38  1  0
  4 39  1  0
  4 40  1  0
  5 41  1  6
  8 42  1  0
  8 43  1  0
  8 44  1  0
  9 45  1  0
  9 46  1  0
  9 47  1  0
 10 48  1  6
 11 49  1  0
 11 50  1  0
 12 51  1  0
 12 52  1  0
 14 53  1  0
 14 54  1  0
 14 55  1  0
 15 56  1  1
 16 57  1  0
 16 58  1  0
 17 59  1  0
 19 60  1  6
 20 61  1  0
 20 62  1  0
 21 63  1  0
 21 64  1  0
 22 65  1  6
 23 66  1  0
 25 67  1  0
 25 68  1  0
 25 69  1  0
 26 70  1  0
 26 71  1  0
 26 72  1  0
 28 73  1  0
 28 74  1  0
 28 75  1  0
 29 76  1  0
 29 77  1  0
 30 78  1  0
 30 79  1  0
 32 80  1  0
 32 81  1  0
 32 82  1  0
M  END
>  <meeko>  (19) 
{"is_sidechain": [false], "intermolecular_energy": 2.731, "internal_energy": -0.839}

$$$$
