EPH_relaxed_0001_pdb2pqr_Repair_285_r2_0001_out
     RDKit          3D

 82 86  0  0  0  0  0  0  0  0999 V2000
   -1.7050    8.5840   -1.8640 C   0  0  0  0  0  0  0  0  0  0  0  0
   -2.0830    9.1180   -0.4800 C   0  0  2  0  0  0  0  0  0  0  0  0
   -3.5740    9.4980   -0.3910 C   0  0  0  0  0  0  0  0  0  0  0  0
   -4.5070    8.2940   -0.2350 C   0  0  0  0  0  0  0  0  0  0  0  0
   -5.2000    7.9580   -1.5210 C   0  0  2  0  0  0  0  0  0  0  0  0
   -6.3550    8.7590   -1.8060 O   0  0  0  0  0  0  0  0  0  0  0  0
   -6.5910    7.3580   -1.5900 C   0  0  0  0  0  0  0  0  0  0  0  0
   -7.3740    7.0570   -0.3500 C   0  0  0  0  0  0  0  0  0  0  0  0
   -6.9900    6.6170   -2.8280 C   0  0  0  0  0  0  0  0  0  0  0  0
   -1.2170   10.3240   -0.1340 C   0  0  1  0  0  0  0  0  0  0  0  0
   -0.1760   10.0150    0.9740 C   0  0  0  0  0  0  0  0  0  0  0  0
    1.0930   10.8400    0.6390 C   0  0  0  0  0  0  0  0  0  0  0  0
    0.6320   11.8400   -0.4470 C   0  0  1  0  0  0  0  0  0  0  0  0
   -0.0640   12.9950    0.3390 C   0  0  0  0  0  0  0  0  0  0  0  0
    1.7440   12.3820   -1.4040 C   0  0  2  0  0  0  0  0  0  0  0  0
    2.8560   13.1950   -0.7180 C   0  0  0  0  0  0  0  0  0  0  0  0
    2.6090   14.6650   -0.6290 C   0  0  0  0  0  0  0  0  0  0  0  0
    1.6810   15.3460   -1.3260 C   0  0  0  0  0  0  0  0  0  0  0  0
    0.8240   14.6460   -2.3890 C   0  0  1  0  0  0  0  0  0  0  0  0
    0.7860   15.5110   -3.6760 C   0  0  0  0  0  0  0  0  0  0  0  0
    0.3290   16.9410   -3.4060 C   0  0  0  0  0  0  0  0  0  0  0  0
    1.2400   17.6230   -2.3880 C   0  0  2  0  0  0  0  0  0  0  0  0
    2.5360   17.7900   -2.9700 O   0  0  0  0  0  0  0  0  0  0  0  0
    1.3630   16.8360   -1.0530 C   0  0  0  0  0  0  0  0  0  0  0  0
    0.0240   16.9140   -0.2780 C   0  0  0  0  0  0  0  0  0  0  0  0
    2.4180   17.5560   -0.1710 C   0  0  0  0  0  0  0  0  0  0  0  0
    1.1900   13.1280   -2.6850 C   0  0  1  0  0  0  0  0  0  0  0  0
    2.3120   13.0510   -3.7650 C   0  0  0  0  0  0  0  0  0  0  0  0
   -0.0680   12.4070   -3.3000 C   0  0  0  0  0  0  0  0  0  0  0  0
   -1.0690   11.7870   -2.3060 C   0  0  0  0  0  0  0  0  0  0  0  0
   -0.3470   10.9230   -1.2670 C   0  0  2  0  0  0  0  0  0  0  0  0
    0.3450    9.7400   -2.0270 C   0  0  0  0  0  0  0  0  0  0  0  0
   -1.0727    7.6908   -1.7523 H   0  0  0  0  0  0  0  0  0  0  0  0
   -2.6184    8.3198   -2.4171 H   0  0  0  0  0  0  0  0  0  0  0  0
   -1.1522    9.3577   -2.4171 H   0  0  0  0  0  0  0  0  0  0  0  0
   -1.9044    8.3109    0.2457 H   0  0  0  0  0  0  0  0  0  0  0  0
   -3.7127   10.1597    0.4767 H   0  0  0  0  0  0  0  0  0  0  0  0
   -3.8381    9.9890   -1.3392 H   0  0  0  0  0  0  0  0  0  0  0  0
   -3.9158    7.4247    0.0888 H   0  0  0  0  0  0  0  0  0  0  0  0
   -5.2741    8.5496    0.5108 H   0  0  0  0  0  0  0  0  0  0  0  0
   -4.2467    7.6653   -1.9852 H   0  0  0  0  0  0  0  0  0  0  0  0
   -6.7640    7.2915    0.5348 H   0  0  0  0  0  0  0  0  0  0  0  0
   -8.2889    7.6675   -0.3369 H   0  0  0  0  0  0  0  0  0  0  0  0
   -7.6444    5.9908   -0.3369 H   0  0  0  0  0  0  0  0  0  0  0  0
   -7.4944    5.6803   -2.5482 H   0  0  0  0  0  0  0  0  0  0  0  0
   -7.6752    7.2389   -3.4228 H   0  0  0  0  0  0  0  0  0  0  0  0
   -6.0936    6.3873   -3.4228 H   0  0  0  0  0  0  0  0  0  0  0  0
   -2.0028   11.0376    0.1547 H   0  0  0  0  0  0  0  0  0  0  0  0
   -0.5708   10.3100    1.9574 H   0  0  0  0  0  0  0  0  0  0  0  0
    0.0514    8.9395    1.0130 H   0  0  0  0  0  0  0  0  0  0  0  0
    1.4556   11.3738    1.5298 H   0  0  0  0  0  0  0  0  0  0  0  0
    1.9246   10.2063    0.2970 H   0  0  0  0  0  0  0  0  0  0  0  0
    0.0421   12.8190    1.4196 H   0  0  0  0  0  0  0  0  0  0  0  0
    0.4070   13.9535    0.0756 H   0  0  0  0  0  0  0  0  0  0  0  0
   -1.1315   13.0264    0.0756 H   0  0  0  0  0  0  0  0  0  0  0  0
    2.2235   11.4566   -1.7557 H   0  0  0  0  0  0  0  0  0  0  0  0
    2.9783   12.8084    0.3045 H   0  0  0  0  0  0  0  0  0  0  0  0
    3.7520   13.0743   -1.3447 H   0  0  0  0  0  0  0  0  0  0  0  0
    3.2392   15.2401    0.0654 H   0  0  0  0  0  0  0  0  0  0  0  0
   -0.1866   14.5684   -1.9617 H   0  0  0  0  0  0  0  0  0  0  0  0
    1.7957   15.5397   -4.1115 H   0  0  0  0  0  0  0  0  0  0  0  0
    0.0610   15.0531   -4.3649 H   0  0  0  0  0  0  0  0  0  0  0  0
    0.3519   17.5098   -4.3472 H   0  0  0  0  0  0  0  0  0  0  0  0
   -0.6923   16.9117   -2.9984 H   0  0  0  0  0  0  0  0  0  0  0  0
    0.7886   18.5946   -2.1384 H   0  0  0  0  0  0  0  0  0  0  0  0
    2.7070   18.7450   -3.0380 H   0  0  0  0  0  0  0  0  0  0  0  0
    0.2250   16.9023    0.8034 H   0  0  0  0  0  0  0  0  0  0  0  0
   -0.4997   17.8442   -0.5435 H   0  0  0  0  0  0  0  0  0  0  0  0
   -0.6042   16.0509   -0.5435 H   0  0  0  0  0  0  0  0  0  0  0  0
    2.1805   17.3939    0.8907 H   0  0  0  0  0  0  0  0  0  0  0  0
    3.4169   17.1503   -0.3893 H   0  0  0  0  0  0  0  0  0  0  0  0
    2.4043   18.6340   -0.3893 H   0  0  0  0  0  0  0  0  0  0  0  0
    3.2925   12.9837   -3.2709 H   0  0  0  0  0  0  0  0  0  0  0  0
    2.1560   12.1614   -4.3930 H   0  0  0  0  0  0  0  0  0  0  0  0
    2.2790   13.9535   -4.3930 H   0  0  0  0  0  0  0  0  0  0  0  0
   -0.6137   13.1472   -3.9036 H   0  0  0  0  0  0  0  0  0  0  0  0
    0.3370   11.5567   -3.8683 H   0  0  0  0  0  0  0  0  0  0  0  0
   -1.6099   12.5938   -1.7897 H   0  0  0  0  0  0  0  0  0  0  0  0
   -1.7698   11.1500   -2.8656 H   0  0  0  0  0  0  0  0  0  0  0  0
    0.7608    9.0291   -1.2978 H   0  0  0  0  0  0  0  0  0  0  0  0
   -0.3953    9.2268   -2.6583 H   0  0  0  0  0  0  0  0  0  0  0  0
    1.1552   10.1338   -2.6583 H   0  0  0  0  0  0  0  0  0  0  0  0
  1  2  1  0
  2  3  1  0
  3  4  1  0
  4  5  1  0
  5  6  1  0
  6  7  1  0
  7  8  1  0
  7  9  1  0
  2 10  1  0
 10 11  1  0
 11 12  1  0
 12 13  1  0
 13 14  1  1
 13 15  1  0
 15 16  1  0
 16 17  1  0
 17 18  2  0
 18 19  1  0
 19 20  1  0
 20 21  1  0
 21 22  1  0
 22 23  1  0
 22 24  1  0
 24 25  1  0
 24 26  1  0
 19 27  1  0
 27 28  1  6
 27 29  1  0
 29 30  1  0
 30 31  1  0
 31 32  1  6
  7  5  1  0
 31 10  1  0
 31 13  1  0
 27 15  1  0
 24 18  1  0
  1 33  1  0
  1 34  1  0
  1 35  1  0
  2 36  1  1
  3 37  1  0
  3 38  1  0
  4 39  1  0
  4 40  1  0
  5 41  1  6
  8 42  1  0
  8 43  1  0
  8 44  1  0
  9 45  1  0
  9 46  1  0
  9 47  1  0
 10 48  1  1
 11 49  1  0
 11 50  1  0
 12 51  1  0
 12 52  1  0
 14 53  1  0
 14 54  1  0
 14 55  1  0
 15 56  1  6
 16 57  1  0
 16 58  1  0
 17 59  1  0
 19 60  1  1
 20 61  1  0
 20 62  1  0
 21 63  1  0
 21 64  1  0
 22 65  1  1
 23 66  1  0
 25 67  1  0
 25 68  1  0
 25 69  1  0
 26 70  1  0
 26 71  1  0
 26 72  1  0
 28 73  1  0
 28 74  1  0
 28 75  1  0
 29 76  1  0
 29 77  1  0
 30 78  1  0
 30 79  1  0
 32 80  1  0
 32 81  1  0
 32 82  1  0
M  END
>  <meeko>  (1) 
{"is_sidechain": [false], "intermolecular_energy": 2.731, "internal_energy": -0.839}

$$$$
EPH_relaxed_0001_pdb2pqr_Repair_285_r2_0001_out
     RDKit          3D

 82 86  0  0  0  0  0  0  0  0999 V2000
    2.5520   18.0080   -2.4700 C   0  0  0  0  0  0  0  0  0  0  0  0
    1.1980   17.6860   -1.8310 C   0  0  2  0  0  0  0  0  0  0  0  0
    1.2530   17.7500   -0.2920 C   0  0  0  0  0  0  0  0  0  0  0  0
    0.9250   19.1320    0.2790 C   0  0  0  0  0  0  0  0  0  0  0  0
   -0.5190   19.2430    0.6690 C   0  0  2  0  0  0  0  0  0  0  0  0
   -1.3760   18.2600    0.0740 O   0  0  0  0  0  0  0  0  0  0  0  0
   -1.6200   19.6250   -0.3020 C   0  0  0  0  0  0  0  0  0  0  0  0
   -1.3250   19.9220   -1.7390 C   0  0  0  0  0  0  0  0  0  0  0  0
   -2.8960   20.1830    0.2470 C   0  0  0  0  0  0  0  0  0  0  0  0
    0.7260   16.3080   -2.2790 C   0  0  1  0  0  0  0  0  0  0  0  0
    0.8050   16.1200   -3.8180 C   0  0  0  0  0  0  0  0  0  0  0  0
    1.1830   14.6380   -4.0690 C   0  0  0  0  0  0  0  0  0  0  0  0
    0.9840   13.9470   -2.6990 C   0  0  1  0  0  0  0  0  0  0  0  0
   -0.5490   13.6720   -2.6070 C   0  0  0  0  0  0  0  0  0  0  0  0
    1.8190   12.6490   -2.4520 C   0  0  2  0  0  0  0  0  0  0  0  0
    1.5120   11.4840   -3.4090 C   0  0  0  0  0  0  0  0  0  0  0  0
    0.4440   10.5470   -2.9510 C   0  0  0  0  0  0  0  0  0  0  0  0
   -0.0430   10.4680   -1.6980 C   0  0  0  0  0  0  0  0  0  0  0  0
    0.5560   11.3120   -0.5660 C   0  0  1  0  0  0  0  0  0  0  0  0
    0.7830   10.4180    0.6820 C   0  0  0  0  0  0  0  0  0  0  0  0
   -0.4820    9.6800    1.1100 C   0  0  0  0  0  0  0  0  0  0  0  0
   -1.0140    8.8070   -0.0240 C   0  0  2  0  0  0  0  0  0  0  0  0
   -0.0790    7.7530   -0.2720 O   0  0  0  0  0  0  0  0  0  0  0  0
   -1.2720    9.5980   -1.3370 C   0  0  0  0  0  0  0  0  0  0  0  0
   -2.4920   10.5330   -1.1500 C   0  0  0  0  0  0  0  0  0  0  0  0
   -1.6700    8.5780   -2.4380 C   0  0  0  0  0  0  0  0  0  0  0  0
    1.8400   12.1680   -0.9440 C   0  0  1  0  0  0  0  0  0  0  0  0
    3.1270   11.3050   -0.7700 C   0  0  0  0  0  0  0  0  0  0  0  0
    1.9720   13.3700    0.0650 C   0  0  0  0  0  0  0  0  0  0  0  0
    1.2200   14.6650   -0.2950 C   0  0  0  0  0  0  0  0  0  0  0  0
    1.5050   15.0810   -1.7420 C   0  0  2  0  0  0  0  0  0  0  0  0
    3.0370   15.3860   -1.8590 C   0  0  0  0  0  0  0  0  0  0  0  0
    3.2972   18.1852   -1.6805 H   0  0  0  0  0  0  0  0  0  0  0  0
    2.8735   17.1613   -3.0942 H   0  0  0  0  0  0  0  0  0  0  0  0
    2.4579   18.9088   -3.0942 H   0  0  0  0  0  0  0  0  0  0  0  0
    0.4828   18.4509   -2.1678 H   0  0  0  0  0  0  0  0  0  0  0  0
    0.5291   17.0268    0.1117 H   0  0  0  0  0  0  0  0  0  0  0  0
    2.2871   17.5179    0.0024 H   0  0  0  0  0  0  0  0  0  0  0  0
    1.5488   19.3076    1.1679 H   0  0  0  0  0  0  0  0  0  0  0  0
    1.1283   19.8817   -0.4998 H   0  0  0  0  0  0  0  0  0  0  0  0
   -0.2462   19.6269    1.6631 H   0  0  0  0  0  0  0  0  0  0  0  0
   -0.5510   20.7012   -1.8010 H   0  0  0  0  0  0  0  0  0  0  0  0
   -0.9663   19.0086   -2.2361 H   0  0  0  0  0  0  0  0  0  0  0  0
   -2.2408   20.2745   -2.2361 H   0  0  0  0  0  0  0  0  0  0  0  0
   -2.8601   20.1673    1.3463 H   0  0  0  0  0  0  0  0  0  0  0  0
   -3.0229   21.2188   -0.1009 H   0  0  0  0  0  0  0  0  0  0  0  0
   -3.7426   19.5730   -0.1009 H   0  0  0  0  0  0  0  0  0  0  0  0
   -0.2931   16.3183   -1.8650 H   0  0  0  0  0  0  0  0  0  0  0  0
   -0.1686   16.3456   -4.2776 H   0  0  0  0  0  0  0  0  0  0  0  0
    1.5496   16.7978   -4.2608 H   0  0  0  0  0  0  0  0  0  0  0  0
    0.5235   14.1923   -4.8282 H   0  0  0  0  0  0  0  0  0  0  0  0
    2.2103   14.5277   -4.4465 H   0  0  0  0  0  0  0  0  0  0  0  0
   -0.8491   13.6182   -1.5501 H   0  0  0  0  0  0  0  0  0  0  0  0
   -1.0980   14.4860   -3.1030 H   0  0  0  0  0  0  0  0  0  0  0  0
   -0.7808   12.7179   -3.1030 H   0  0  0  0  0  0  0  0  0  0  0  0
    2.8404   12.9759   -2.6967 H   0  0  0  0  0  0  0  0  0  0  0  0
    1.1995   11.9100   -4.3738 H   0  0  0  0  0  0  0  0  0  0  0  0
    2.4346   10.8880   -3.4686 H   0  0  0  0  0  0  0  0  0  0  0  0
    0.0188    9.8632   -3.7004 H   0  0  0  0  0  0  0  0  0  0  0  0
   -0.1893   12.0886   -0.3390 H   0  0  0  0  0  0  0  0  0  0  0  0
    1.5617    9.6770    0.4482 H   0  0  0  0  0  0  0  0  0  0  0  0
    1.0847   11.0735    1.5123 H   0  0  0  0  0  0  0  0  0  0  0  0
   -0.2515    9.0433    1.9769 H   0  0  0  0  0  0  0  0  0  0  0  0
   -1.2503   10.4224    1.3718 H   0  0  0  0  0  0  0  0  0  0  0  0
   -1.9872    8.4067    0.2965 H   0  0  0  0  0  0  0  0  0  0  0  0
   -0.5490    6.9090   -0.1570 H   0  0  0  0  0  0  0  0  0  0  0  0
   -2.6815   10.6782   -0.0762 H   0  0  0  0  0  0  0  0  0  0  0  0
   -2.2843   11.5054   -1.6205 H   0  0  0  0  0  0  0  0  0  0  0  0
   -3.3769   10.0796   -1.6205 H   0  0  0  0  0  0  0  0  0  0  0  0
   -2.0313    7.6521   -1.9667 H   0  0  0  0  0  0  0  0  0  0  0  0
   -2.4670    9.0061   -3.0636 H   0  0  0  0  0  0  0  0  0  0  0  0
   -0.7936    8.3532   -3.0636 H   0  0  0  0  0  0  0  0  0  0  0  0
    3.3335   11.1665    0.3015 H   0  0  0  0  0  0  0  0  0  0  0  0
    2.9775   10.3239   -1.2444 H   0  0  0  0  0  0  0  0  0  0  0  0
    3.9779   11.8158   -1.2444 H   0  0  0  0  0  0  0  0  0  0  0  0
    1.5971   13.0279    1.0409 H   0  0  0  0  0  0  0  0  0  0  0  0
    3.0376   13.6425    0.0501 H   0  0  0  0  0  0  0  0  0  0  0  0
    0.1393   14.4988   -0.1746 H   0  0  0  0  0  0  0  0  0  0  0  0
    1.5633   15.4674    0.3746 H   0  0  0  0  0  0  0  0  0  0  0  0
    3.4716   15.4725   -0.8522 H   0  0  0  0  0  0  0  0  0  0  0  0
    3.5330   14.5690   -2.4035 H   0  0  0  0  0  0  0  0  0  0  0  0
    3.1823   16.3307   -2.4035 H   0  0  0  0  0  0  0  0  0  0  0  0
  1  2  1  0
  2  3  1  0
  3  4  1  0
  4  5  1  0
  5  6  1  0
  6  7  1  0
  7  8  1  0
  7  9  1  0
  2 10  1  0
 10 11  1  0
 11 12  1  0
 12 13  1  0
 13 14  1  1
 13 15  1  0
 15 16  1  0
 16 17  1  0
 17 18  2  0
 18 19  1  0
 19 20  1  0
 20 21  1  0
 21 22  1  0
 22 23  1  0
 22 24  1  0
 24 25  1  0
 24 26  1  0
 19 27  1  0
 27 28  1  6
 27 29  1  0
 29 30  1  0
 30 31  1  0
 31 32  1  1
  7  5  1  0
 31 10  1  0
 31 13  1  0
 27 15  1  0
 24 18  1  0
  1 33  1  0
  1 34  1  0
  1 35  1  0
  2 36  1  6
  3 37  1  0
  3 38  1  0
  4 39  1  0
  4 40  1  0
  5 41  1  1
  8 42  1  0
  8 43  1  0
  8 44  1  0
  9 45  1  0
  9 46  1  0
  9 47  1  0
 10 48  1  1
 11 49  1  0
 11 50  1  0
 12 51  1  0
 12 52  1  0
 14 53  1  0
 14 54  1  0
 14 55  1  0
 15 56  1  6
 16 57  1  0
 16 58  1  0
 17 59  1  0
 19 60  1  1
 20 61  1  0
 20 62  1  0
 21 63  1  0
 21 64  1  0
 22 65  1  1
 23 66  1  0
 25 67  1  0
 25 68  1  0
 25 69  1  0
 26 70  1  0
 26 71  1  0
 26 72  1  0
 28 73  1  0
 28 74  1  0
 28 75  1  0
 29 76  1  0
 29 77  1  0
 30 78  1  0
 30 79  1  0
 32 80  1  0
 32 81  1  0
 32 82  1  0
M  END
>  <meeko>  (2) 
{"is_sidechain": [false], "intermolecular_energy": 2.731, "internal_energy": -0.839}

$$$$
EPH_relaxed_0001_pdb2pqr_Repair_285_r2_0001_out
     RDKit          3D

 82 86  0  0  0  0  0  0  0  0999 V2000
    0.4190   18.3990   -0.0240 C   0  0  0  0  0  0  0  0  0  0  0  0
    1.5080   17.3470   -0.2520 C   0  0  2  0  0  0  0  0  0  0  0  0
    2.7130   17.9180   -1.0270 C   0  0  0  0  0  0  0  0  0  0  0  0
    3.9440   18.1690   -0.1510 C   0  0  0  0  0  0  0  0  0  0  0  0
    3.5630   18.6330    1.2220 C   0  0  2  0  0  0  0  0  0  0  0  0
    3.8140   20.0220    1.4760 O   0  0  0  0  0  0  0  0  0  0  0  0
    4.5700   19.0860    2.2620 C   0  0  0  0  0  0  0  0  0  0  0  0
    6.0390   19.0960    1.9730 C   0  0  0  0  0  0  0  0  0  0  0  0
    4.1740   19.0520    3.7050 C   0  0  0  0  0  0  0  0  0  0  0  0
    0.9280   16.1520   -0.9990 C   0  0  1  0  0  0  0  0  0  0  0  0
    0.7980   16.4070   -2.5250 C   0  0  0  0  0  0  0  0  0  0  0  0
    1.0810   15.0550   -3.2290 C   0  0  0  0  0  0  0  0  0  0  0  0
    1.0340   14.0060   -2.0940 C   0  0  1  0  0  0  0  0  0  0  0  0
   -0.4840   13.7190   -1.8750 C   0  0  0  0  0  0  0  0  0  0  0  0
    1.8420   12.6890   -2.3360 C   0  0  2  0  0  0  0  0  0  0  0  0
    1.3670   11.8430   -3.5290 C   0  0  0  0  0  0  0  0  0  0  0  0
    0.3300   10.8160   -3.2110 C   0  0  0  0  0  0  0  0  0  0  0  0
    0.0070   10.3880   -1.9760 C   0  0  0  0  0  0  0  0  0  0  0  0
    0.7820   10.8760   -0.7450 C   0  0  1  0  0  0  0  0  0  0  0  0
    1.1330    9.6660    0.1590 C   0  0  0  0  0  0  0  0  0  0  0  0
   -0.0940    8.8390    0.5320 C   0  0  0  0  0  0  0  0  0  0  0  0
   -0.8040    8.3230   -0.7170 C   0  0  2  0  0  0  0  0  0  0  0  0
    0.0480    7.3800   -1.3750 O   0  0  0  0  0  0  0  0  0  0  0  0
   -1.1980    9.4530   -1.7090 C   0  0  0  0  0  0  0  0  0  0  0  0
   -2.3450   10.2990   -1.1040 C   0  0  0  0  0  0  0  0  0  0  0  0
   -1.7770    8.7860   -2.9860 C   0  0  0  0  0  0  0  0  0  0  0  0
    2.0390   11.8030   -1.0400 C   0  0  1  0  0  0  0  0  0  0  0  0
    3.3020   10.9220   -1.2910 C   0  0  0  0  0  0  0  0  0  0  0  0
    2.3490   12.6700    0.2370 C   0  0  0  0  0  0  0  0  0  0  0  0
    1.6090   14.0150    0.3590 C   0  0  0  0  0  0  0  0  0  0  0  0
    1.7200   14.8220   -0.9380 C   0  0  2  0  0  0  0  0  0  0  0  0
    3.2350   15.1450   -1.1730 C   0  0  0  0  0  0  0  0  0  0  0  0
    0.2693   18.5436    1.0561 H   0  0  0  0  0  0  0  0  0  0  0  0
    0.7267   19.3505   -0.4822 H   0  0  0  0  0  0  0  0  0  0  0  0
   -0.5213   18.0586   -0.4822 H   0  0  0  0  0  0  0  0  0  0  0  0
    1.8715   17.0273    0.7358 H   0  0  0  0  0  0  0  0  0  0  0  0
    2.9884   17.2036   -1.8168 H   0  0  0  0  0  0  0  0  0  0  0  0
    2.4025   18.8922   -1.4328 H   0  0  0  0  0  0  0  0  0  0  0  0
    4.5167   17.2338   -0.0649 H   0  0  0  0  0  0  0  0  0  0  0  0
    4.5462   18.9584   -0.6245 H   0  0  0  0  0  0  0  0  0  0  0  0
    2.7361   17.9087    1.2625 H   0  0  0  0  0  0  0  0  0  0  0  0
    6.5989   19.0998    2.9198 H   0  0  0  0  0  0  0  0  0  0  0  0
    6.3048   18.1996    1.3934 H   0  0  0  0  0  0  0  0  0  0  0  0
    6.2926   19.9959    1.3934 H   0  0  0  0  0  0  0  0  0  0  0  0
    5.0732   19.1292    4.3339 H   0  0  0  0  0  0  0  0  0  0  0  0
    3.5021   19.8958    3.9208 H   0  0  0  0  0  0  0  0  0  0  0  0
    3.6557   18.1061    3.9208 H   0  0  0  0  0  0  0  0  0  0  0  0
   -0.0269   16.0458   -0.4634 H   0  0  0  0  0  0  0  0  0  0  0  0
   -0.2174   16.7545   -2.7660 H   0  0  0  0  0  0  0  0  0  0  0  0
    1.5044   17.1817   -2.8580 H   0  0  0  0  0  0  0  0  0  0  0  0
    0.3114   14.8428   -3.9858 H   0  0  0  0  0  0  0  0  0  0  0  0
    2.0456   15.0542   -3.7577 H   0  0  0  0  0  0  0  0  0  0  0  0
   -0.6977   13.6786   -0.7967 H   0  0  0  0  0  0  0  0  0  0  0  0
   -1.0791   14.5205   -2.3369 H   0  0  0  0  0  0  0  0  0  0  0  0
   -0.7454   12.7555   -2.3369 H   0  0  0  0  0  0  0  0  0  0  0  0
    2.8355   13.0688   -2.6166 H   0  0  0  0  0  0  0  0  0  0  0  0
    0.9494   12.5250   -4.2843 H   0  0  0  0  0  0  0  0  0  0  0  0
    2.2494   11.2863   -3.8774 H   0  0  0  0  0  0  0  0  0  0  0  0
   -0.2155   10.3721   -4.0568 H   0  0  0  0  0  0  0  0  0  0  0  0
    0.1047   11.5574   -0.2094 H   0  0  0  0  0  0  0  0  0  0  0  0
    1.8441    9.0200   -0.3768 H   0  0  0  0  0  0  0  0  0  0  0  0
    1.5662   10.0595    1.0904 H   0  0  0  0  0  0  0  0  0  0  0  0
    0.2220    7.9829    1.1462 H   0  0  0  0  0  0  0  0  0  0  0  0
   -0.7911    9.4784    1.0934 H   0  0  0  0  0  0  0  0  0  0  0  0
   -1.7426    7.8507   -0.3916 H   0  0  0  0  0  0  0  0  0  0  0  0
   -0.4700    6.9580   -2.0810 H   0  0  0  0  0  0  0  0  0  0  0  0
   -2.2905   10.2588   -0.0061 H   0  0  0  0  0  0  0  0  0  0  0  0
   -2.2466   11.3424   -1.4380 H   0  0  0  0  0  0  0  0  0  0  0  0
   -3.3128    9.8968   -1.4380 H   0  0  0  0  0  0  0  0  0  0  0  0
   -2.4729    7.9844   -2.6976 H   0  0  0  0  0  0  0  0  0  0  0  0
   -2.3124    9.5393   -3.5825 H   0  0  0  0  0  0  0  0  0  0  0  0
   -0.9559    8.3618   -3.5825 H   0  0  0  0  0  0  0  0  0  0  0  0
    3.7356   10.6195   -0.3264 H   0  0  0  0  0  0  0  0  0  0  0  0
    3.0166   10.0260   -1.8618 H   0  0  0  0  0  0  0  0  0  0  0  0
    4.0442   11.4993   -1.8618 H   0  0  0  0  0  0  0  0  0  0  0  0
    2.0906   12.0667    1.1197 H   0  0  0  0  0  0  0  0  0  0  0  0
    3.4138   12.9335    0.1547 H   0  0  0  0  0  0  0  0  0  0  0  0
    0.5473   13.8233    0.5737 H   0  0  0  0  0  0  0  0  0  0  0  0
    2.0681   14.5951    1.1731 H   0  0  0  0  0  0  0  0  0  0  0  0
    3.7417   15.2530   -0.2026 H   0  0  0  0  0  0  0  0  0  0  0  0
    3.7008   14.3260   -1.7407 H   0  0  0  0  0  0  0  0  0  0  0  0
    3.3262   16.0828   -1.7407 H   0  0  0  0  0  0  0  0  0  0  0  0
  1  2  1  0
  2  3  1  0
  3  4  1  0
  4  5  1  0
  5  6  1  0
  6  7  1  0
  7  8  1  0
  7  9  1  0
  2 10  1  0
 10 11  1  0
 11 12  1  0
 12 13  1  0
 13 14  1  1
 13 15  1  0
 15 16  1  0
 16 17  1  0
 17 18  2  0
 18 19  1  0
 19 20  1  0
 20 21  1  0
 21 22  1  0
 22 23  1  0
 22 24  1  0
 24 25  1  0
 24 26  1  0
 19 27  1  0
 27 28  1  6
 27 29  1  0
 29 30  1  0
 30 31  1  0
 31 32  1  6
  7  5  1  0
 31 10  1  0
 31 13  1  0
 27 15  1  0
 24 18  1  0
  1 33  1  0
  1 34  1  0
  1 35  1  0
  2 36  1  1
  3 37  1  0
  3 38  1  0
  4 39  1  0
  4 40  1  0
  5 41  1  1
  8 42  1  0
  8 43  1  0
  8 44  1  0
  9 45  1  0
  9 46  1  0
  9 47  1  0
 10 48  1  1
 11 49  1  0
 11 50  1  0
 12 51  1  0
 12 52  1  0
 14 53  1  0
 14 54  1  0
 14 55  1  0
 15 56  1  6
 16 57  1  0
 16 58  1  0
 17 59  1  0
 19 60  1  1
 20 61  1  0
 20 62  1  0
 21 63  1  0
 21 64  1  0
 22 65  1  1
 23 66  1  0
 25 67  1  0
 25 68  1  0
 25 69  1  0
 26 70  1  0
 26 71  1  0
 26 72  1  0
 28 73  1  0
 28 74  1  0
 28 75  1  0
 29 76  1  0
 29 77  1  0
 30 78  1  0
 30 79  1  0
 32 80  1  0
 32 81  1  0
 32 82  1  0
M  END
>  <meeko>  (3) 
{"is_sidechain": [false], "intermolecular_energy": 2.731, "internal_energy": -0.839}

$$$$
EPH_relaxed_0001_pdb2pqr_Repair_285_r2_0001_out
     RDKit          3D

 82 86  0  0  0  0  0  0  0  0999 V2000
    2.0190   19.6250   -0.5680 C   0  0  0  0  0  0  0  0  0  0  0  0
    2.4070   18.3970    0.2600 C   0  0  2  0  0  0  0  0  0  0  0  0
    3.8540   17.9420   -0.0180 C   0  0  0  0  0  0  0  0  0  0  0  0
    4.8400   18.3180    1.0920 C   0  0  0  0  0  0  0  0  0  0  0  0
    4.1660   19.0640    2.2030 C   0  0  2  0  0  0  0  0  0  0  0  0
    4.8970   20.1940    2.6950 O   0  0  0  0  0  0  0  0  0  0  0  0
    4.7010   19.1140    3.6220 C   0  0  0  0  0  0  0  0  0  0  0  0
    5.9620   18.4050    4.0060 C   0  0  0  0  0  0  0  0  0  0  0  0
    3.7520   19.4380    4.7340 C   0  0  0  0  0  0  0  0  0  0  0  0
    1.4390   17.2530   -0.0220 C   0  0  1  0  0  0  0  0  0  0  0  0
    0.1670   17.7200   -0.7790 C   0  0  0  0  0  0  0  0  0  0  0  0
   -0.2360   16.5660   -1.7320 C   0  0  0  0  0  0  0  0  0  0  0  0
    0.6070   15.3580   -1.2600 C   0  0  1  0  0  0  0  0  0  0  0  0
   -0.1680   14.7830   -0.0330 C   0  0  0  0  0  0  0  0  0  0  0  0
    0.8940   14.2550   -2.3300 C   0  0  2  0  0  0  0  0  0  0  0  0
   -0.3530   13.5390   -2.8790 C   0  0  0  0  0  0  0  0  0  0  0  0
   -0.7640   12.3130   -2.1340 C   0  0  0  0  0  0  0  0  0  0  0  0
   -0.0040   11.6450   -1.2460 C   0  0  0  0  0  0  0  0  0  0  0  0
    1.4510   12.0580   -0.9880 C   0  0  1  0  0  0  0  0  0  0  0  0
    2.3560   10.7980   -0.9960 C   0  0  0  0  0  0  0  0  0  0  0  0
    1.8720    9.7240   -0.0260 C   0  0  0  0  0  0  0  0  0  0  0  0
    0.4430    9.2980   -0.3510 C   0  0  2  0  0  0  0  0  0  0  0  0
    0.4380    8.6330   -1.6180 O   0  0  0  0  0  0  0  0  0  0  0  0
   -0.5580   10.4870   -0.3810 C   0  0  0  0  0  0  0  0  0  0  0  0
   -0.7800   11.0170    1.0570 C   0  0  0  0  0  0  0  0  0  0  0  0
   -1.9310    9.9420   -0.8590 C   0  0  0  0  0  0  0  0  0  0  0  0
    2.0160   13.2210   -1.9110 C   0  0  1  0  0  0  0  0  0  0  0  0
    2.5860   12.6220   -3.2330 C   0  0  0  0  0  0  0  0  0  0  0  0
    3.2260   13.9150   -1.1800 C   0  0  0  0  0  0  0  0  0  0  0  0
    2.8880   15.0770   -0.2270 C   0  0  0  0  0  0  0  0  0  0  0  0
    1.9530   16.0860   -0.9020 C   0  0  2  0  0  0  0  0  0  0  0  0
    2.7150   16.6980   -2.1270 C   0  0  0  0  0  0  0  0  0  0  0  0
    1.7571   20.4539    0.1061 H   0  0  0  0  0  0  0  0  0  0  0  0
    2.8670   19.9223   -1.2025 H   0  0  0  0  0  0  0  0  0  0  0  0
    1.1542   19.3811   -1.2025 H   0  0  0  0  0  0  0  0  0  0  0  0
    2.3483   18.6818    1.3209 H   0  0  0  0  0  0  0  0  0  0  0  0
    3.8586   16.8478   -0.1310 H   0  0  0  0  0  0  0  0  0  0  0  0
    4.1844   18.4589   -0.9311 H   0  0  0  0  0  0  0  0  0  0  0  0
    5.2859   17.3986    1.4992 H   0  0  0  0  0  0  0  0  0  0  0  0
    5.6112   18.9718    0.6585 H   0  0  0  0  0  0  0  0  0  0  0  0
    3.1735   18.8192    1.7969 H   0  0  0  0  0  0  0  0  0  0  0  0
    6.0390   18.3617    5.1024 H   0  0  0  0  0  0  0  0  0  0  0  0
    5.9467   17.3832    3.5989 H   0  0  0  0  0  0  0  0  0  0  0  0
    6.8271   18.9490    3.5989 H   0  0  0  0  0  0  0  0  0  0  0  0
    4.2485   19.2685    5.7008 H   0  0  0  0  0  0  0  0  0  0  0  0
    3.4454   20.4917    4.6590 H   0  0  0  0  0  0  0  0  0  0  0  0
    2.8650   18.7918    4.6590 H   0  0  0  0  0  0  0  0  0  0  0  0
    1.2655   16.9014    1.0058 H   0  0  0  0  0  0  0  0  0  0  0  0
   -0.6452   17.9230   -0.0655 H   0  0  0  0  0  0  0  0  0  0  0  0
    0.3594   18.6463   -1.3402 H   0  0  0  0  0  0  0  0  0  0  0  0
   -1.3105   16.3475   -1.6447 H   0  0  0  0  0  0  0  0  0  0  0  0
   -0.0544   16.8143   -2.7881 H   0  0  0  0  0  0  0  0  0  0  0  0
    0.3046   15.1337    0.8963 H   0  0  0  0  0  0  0  0  0  0  0  0
   -1.2125   15.1264   -0.0654 H   0  0  0  0  0  0  0  0  0  0  0  0
   -0.1422   13.6838   -0.0654 H   0  0  0  0  0  0  0  0  0  0  0  0
    1.2973   14.8403   -3.1695 H   0  0  0  0  0  0  0  0  0  0  0  0
   -1.1921   14.2498   -2.8530 H   0  0  0  0  0  0  0  0  0  0  0  0
   -0.0900   13.2047   -3.8934 H   0  0  0  0  0  0  0  0  0  0  0  0
   -1.7739   11.9218   -2.3268 H   0  0  0  0  0  0  0  0  0  0  0  0
    1.4633   12.5202    0.0101 H   0  0  0  0  0  0  0  0  0  0  0  0
    2.3654   10.3770   -2.0122 H   0  0  0  0  0  0  0  0  0  0  0  0
    3.3621   11.1074   -0.6768 H   0  0  0  0  0  0  0  0  0  0  0  0
    2.5339    8.8485   -0.0991 H   0  0  0  0  0  0  0  0  0  0  0  0
    1.8914   10.1375    0.9931 H   0  0  0  0  0  0  0  0  0  0  0  0
    0.1075    8.6255    0.4522 H   0  0  0  0  0  0  0  0  0  0  0  0
   -0.3720    8.0960   -1.6650 H   0  0  0  0  0  0  0  0  0  0  0  0
   -0.4605   10.2542    1.7823 H   0  0  0  0  0  0  0  0  0  0  0  0
   -0.1902   11.9336    1.2051 H   0  0  0  0  0  0  0  0  0  0  0  0
   -1.8470   11.2396    1.2051 H   0  0  0  0  0  0  0  0  0  0  0  0
   -2.5520    9.6955    0.0148 H   0  0  0  0  0  0  0  0  0  0  0  0
   -2.4382   10.7070   -1.4652 H   0  0  0  0  0  0  0  0  0  0  0  0
   -1.7755    9.0374   -1.4652 H   0  0  0  0  0  0  0  0  0  0  0  0
    3.3262   11.8442   -2.9939 H   0  0  0  0  0  0  0  0  0  0  0  0
    1.7663   12.1805   -3.8188 H   0  0  0  0  0  0  0  0  0  0  0  0
    3.0676   13.4188   -3.8188 H   0  0  0  0  0  0  0  0  0  0  0  0
    3.7467   13.1440   -0.5931 H   0  0  0  0  0  0  0  0  0  0  0  0
    3.8265   14.3670   -1.9832 H   0  0  0  0  0  0  0  0  0  0  0  0
    2.3955   14.6746    0.6705 H   0  0  0  0  0  0  0  0  0  0  0  0
    3.8219   15.5912    0.0440 H   0  0  0  0  0  0  0  0  0  0  0  0
    3.5254   17.3488   -1.7668 H   0  0  0  0  0  0  0  0  0  0  0  0
    3.1397   15.8871   -2.7370 H   0  0  0  0  0  0  0  0  0  0  0  0
    2.0148   17.2876   -2.7370 H   0  0  0  0  0  0  0  0  0  0  0  0
  1  2  1  0
  2  3  1  0
  3  4  1  0
  4  5  1  0
  5  6  1  0
  6  7  1  0
  7  8  1  0
  7  9  1  0
  2 10  1  0
 10 11  1  0
 11 12  1  0
 12 13  1  0
 13 14  1  1
 13 15  1  0
 15 16  1  0
 16 17  1  0
 17 18  2  0
 18 19  1  0
 19 20  1  0
 20 21  1  0
 21 22  1  0
 22 23  1  0
 22 24  1  0
 24 25  1  0
 24 26  1  0
 19 27  1  0
 27 28  1  6
 27 29  1  0
 29 30  1  0
 30 31  1  0
 31 32  1  6
  7  5  1  0
 31 10  1  0
 31 13  1  0
 27 15  1  0
 24 18  1  0
  1 33  1  0
  1 34  1  0
  1 35  1  0
  2 36  1  1
  3 37  1  0
  3 38  1  0
  4 39  1  0
  4 40  1  0
  5 41  1  1
  8 42  1  0
  8 43  1  0
  8 44  1  0
  9 45  1  0
  9 46  1  0
  9 47  1  0
 10 48  1  1
 11 49  1  0
 11 50  1  0
 12 51  1  0
 12 52  1  0
 14 53  1  0
 14 54  1  0
 14 55  1  0
 15 56  1  6
 16 57  1  0
 16 58  1  0
 17 59  1  0
 19 60  1  1
 20 61  1  0
 20 62  1  0
 21 63  1  0
 21 64  1  0
 22 65  1  1
 23 66  1  0
 25 67  1  0
 25 68  1  0
 25 69  1  0
 26 70  1  0
 26 71  1  0
 26 72  1  0
 28 73  1  0
 28 74  1  0
 28 75  1  0
 29 76  1  0
 29 77  1  0
 30 78  1  0
 30 79  1  0
 32 80  1  0
 32 81  1  0
 32 82  1  0
M  END
>  <meeko>  (4) 
{"is_sidechain": [false], "intermolecular_energy": 2.731, "internal_energy": -0.839}

$$$$
EPH_relaxed_0001_pdb2pqr_Repair_285_r2_0001_out
     RDKit          3D

 82 86  0  0  0  0  0  0  0  0999 V2000
   -5.2090    5.8070   -1.5530 C   0  0  0  0  0  0  0  0  0  0  0  0
   -5.4530    7.3060   -1.7520 C   0  0  2  0  0  0  0  0  0  0  0  0
   -5.1870    8.1130   -0.4660 C   0  0  0  0  0  0  0  0  0  0  0  0
   -4.2150    9.2800   -0.6620 C   0  0  0  0  0  0  0  0  0  0  0  0
   -2.8050    8.8870   -0.3400 C   0  0  2  0  0  0  0  0  0  0  0  0
   -2.1990    9.6430    0.7170 O   0  0  0  0  0  0  0  0  0  0  0  0
   -1.6090    9.7880   -0.5840 C   0  0  0  0  0  0  0  0  0  0  0  0
   -1.7680   11.1530   -1.1760 C   0  0  0  0  0  0  0  0  0  0  0  0
   -0.2540    9.1620   -0.7050 C   0  0  0  0  0  0  0  0  0  0  0  0
   -6.8820    7.5410   -2.2280 C   0  0  1  0  0  0  0  0  0  0  0  0
   -7.1820    6.8450   -3.5830 C   0  0  0  0  0  0  0  0  0  0  0  0
   -8.6600    6.3820   -3.5300 C   0  0  0  0  0  0  0  0  0  0  0  0
   -9.2530    7.1090   -2.3000 C   0  0  1  0  0  0  0  0  0  0  0  0
   -9.5900    8.5460   -2.8080 C   0  0  0  0  0  0  0  0  0  0  0  0
  -10.4890    6.4300   -1.6260 C   0  0  2  0  0  0  0  0  0  0  0  0
  -11.7370    6.3110   -2.5190 C   0  0  0  0  0  0  0  0  0  0  0  0
  -12.6840    7.4630   -2.4480 C   0  0  0  0  0  0  0  0  0  0  0  0
  -12.6890    8.4130   -1.4940 C   0  0  0  0  0  0  0  0  0  0  0  0
  -11.7360    8.3320   -0.2960 C   0  0  1  0  0  0  0  0  0  0  0  0
  -12.5210    8.6180    1.0110 C   0  0  0  0  0  0  0  0  0  0  0  0
  -13.2820    9.9390    0.9590 C   0  0  0  0  0  0  0  0  0  0  0  0
  -14.2610    9.9590   -0.2110 C   0  0  2  0  0  0  0  0  0  0  0  0
  -15.2880    8.9910    0.0300 O   0  0  0  0  0  0  0  0  0  0  0  0
  -13.5850    9.6730   -1.5810 C   0  0  0  0  0  0  0  0  0  0  0  0
  -12.6950   10.8750   -1.9830 C   0  0  0  0  0  0  0  0  0  0  0  0
  -14.7030    9.5820   -2.6550 C   0  0  0  0  0  0  0  0  0  0  0  0
  -10.8520    7.0140   -0.2010 C   0  0  1  0  0  0  0  0  0  0  0  0
  -11.6410    5.8980    0.5510 C   0  0  0  0  0  0  0  0  0  0  0  0
   -9.5730    7.3140    0.6670 C   0  0  0  0  0  0  0  0  0  0  0  0
   -8.3440    7.8710   -0.0770 C   0  0  0  0  0  0  0  0  0  0  0  0
   -8.0270    7.0320   -1.3180 C   0  0  2  0  0  0  0  0  0  0  0  0
   -7.6630    5.5860   -0.8370 C   0  0  0  0  0  0  0  0  0  0  0  0
   -5.1722    5.5812   -0.4771 H   0  0  0  0  0  0  0  0  0  0  0  0
   -6.0262    5.2374   -2.0195 H   0  0  0  0  0  0  0  0  0  0  0  0
   -4.2533    5.5260   -2.0195 H   0  0  0  0  0  0  0  0  0  0  0  0
   -4.7439    7.6584   -2.5155 H   0  0  0  0  0  0  0  0  0  0  0  0
   -6.1446    8.5156   -0.1042 H   0  0  0  0  0  0  0  0  0  0  0  0
   -4.7220    7.4248    0.2552 H   0  0  0  0  0  0  0  0  0  0  0  0
   -4.2623    9.6112   -1.7099 H   0  0  0  0  0  0  0  0  0  0  0  0
   -4.5097   10.0902    0.0212 H   0  0  0  0  0  0  0  0  0  0  0  0
   -3.0092    7.8412   -0.6133 H   0  0  0  0  0  0  0  0  0  0  0  0
   -1.8544   11.8950   -0.3686 H   0  0  0  0  0  0  0  0  0  0  0  0
   -0.8911   11.3876   -1.7973 H   0  0  0  0  0  0  0  0  0  0  0  0
   -2.6753   11.1798   -1.7973 H   0  0  0  0  0  0  0  0  0  0  0  0
    0.1538    8.9736    0.2991 H   0  0  0  0  0  0  0  0  0  0  0  0
   -0.3369    8.2110   -1.2515 H   0  0  0  0  0  0  0  0  0  0  0  0
    0.4164    9.8416   -1.2515 H   0  0  0  0  0  0  0  0  0  0  0  0
   -6.8877    8.6405   -2.2600 H   0  0  0  0  0  0  0  0  0  0  0  0
   -7.0361    7.5523   -4.4127 H   0  0  0  0  0  0  0  0  0  0  0  0
   -6.5066    5.9924   -3.7472 H   0  0  0  0  0  0  0  0  0  0  0  0
   -9.1916    6.6744   -4.4475 H   0  0  0  0  0  0  0  0  0  0  0  0
   -8.7520    5.2886   -3.4526 H   0  0  0  0  0  0  0  0  0  0  0  0
   -9.7462    9.2121   -1.9467 H   0  0  0  0  0  0  0  0  0  0  0  0
   -8.7562    8.9243   -3.4176 H   0  0  0  0  0  0  0  0  0  0  0  0
  -10.5051    8.5142   -3.4176 H   0  0  0  0  0  0  0  0  0  0  0  0
  -10.1353    5.4003   -1.4689 H   0  0  0  0  0  0  0  0  0  0  0  0
  -11.4007    6.2112   -3.5616 H   0  0  0  0  0  0  0  0  0  0  0  0
  -12.2931    5.4366   -2.1499 H   0  0  0  0  0  0  0  0  0  0  0  0
  -13.4413    7.5423   -3.2419 H   0  0  0  0  0  0  0  0  0  0  0  0
  -10.9798    9.1147   -0.4558 H   0  0  0  0  0  0  0  0  0  0  0  0
  -13.2408    7.8026    1.1756 H   0  0  0  0  0  0  0  0  0  0  0  0
  -11.7910    8.6852    1.8311 H   0  0  0  0  0  0  0  0  0  0  0  0
  -13.8403   10.0700    1.8977 H   0  0  0  0  0  0  0  0  0  0  0  0
  -12.5579   10.7561    0.8247 H   0  0  0  0  0  0  0  0  0  0  0  0
  -14.6789   10.9746   -0.2735 H   0  0  0  0  0  0  0  0  0  0  0  0
  -15.1220    8.2350   -0.5570 H   0  0  0  0  0  0  0  0  0  0  0  0
  -12.3241   11.3759   -1.0766 H   0  0  0  0  0  0  0  0  0  0  0  0
  -11.8426   10.5170   -2.5789 H   0  0  0  0  0  0  0  0  0  0  0  0
  -13.2862   11.5859   -2.5789 H   0  0  0  0  0  0  0  0  0  0  0  0
  -15.6818    9.5023   -2.1595 H   0  0  0  0  0  0  0  0  0  0  0  0
  -14.6824   10.4848   -3.2831 H   0  0  0  0  0  0  0  0  0  0  0  0
  -14.5367    8.6944   -3.2831 H   0  0  0  0  0  0  0  0  0  0  0  0
  -11.5378    6.0439    1.6364 H   0  0  0  0  0  0  0  0  0  0  0  0
  -12.7041    5.9501    0.2734 H   0  0  0  0  0  0  0  0  0  0  0  0
  -11.2374    4.9131    0.2734 H   0  0  0  0  0  0  0  0  0  0  0  0
   -9.8571    8.0474    1.4360 H   0  0  0  0  0  0  0  0  0  0  0  0
   -9.2544    6.3364    1.0579 H   0  0  0  0  0  0  0  0  0  0  0  0
   -8.5493    8.9066   -0.3858 H   0  0  0  0  0  0  0  0  0  0  0  0
   -7.4782    7.8353    0.6006 H   0  0  0  0  0  0  0  0  0  0  0  0
   -7.6555    5.5564    0.2626 H   0  0  0  0  0  0  0  0  0  0  0  0
   -8.4099    4.8740   -1.2179 H   0  0  0  0  0  0  0  0  0  0  0  0
   -6.6680    5.3125   -1.2179 H   0  0  0  0  0  0  0  0  0  0  0  0
  1  2  1  0
  2  3  1  0
  3  4  1  0
  4  5  1  0
  5  6  1  0
  6  7  1  0
  7  8  1  0
  7  9  1  0
  2 10  1  0
 10 11  1  0
 11 12  1  0
 12 13  1  0
 13 14  1  6
 13 15  1  0
 15 16  1  0
 16 17  1  0
 17 18  2  0
 18 19  1  0
 19 20  1  0
 20 21  1  0
 21 22  1  0
 22 23  1  0
 22 24  1  0
 24 25  1  0
 24 26  1  0
 19 27  1  0
 27 28  1  1
 27 29  1  0
 29 30  1  0
 30 31  1  0
 31 32  1  1
  7  5  1  0
 31 10  1  0
 31 13  1  0
 27 15  1  0
 24 18  1  0
  1 33  1  0
  1 34  1  0
  1 35  1  0
  2 36  1  6
  3 37  1  0
  3 38  1  0
  4 39  1  0
  4 40  1  0
  5 41  1  1
  8 42  1  0
  8 43  1  0
  8 44  1  0
  9 45  1  0
  9 46  1  0
  9 47  1  0
 10 48  1  6
 11 49  1  0
 11 50  1  0
 12 51  1  0
 12 52  1  0
 14 53  1  0
 14 54  1  0
 14 55  1  0
 15 56  1  1
 16 57  1  0
 16 58  1  0
 17 59  1  0
 19 60  1  6
 20 61  1  0
 20 62  1  0
 21 63  1  0
 21 64  1  0
 22 65  1  6
 23 66  1  0
 25 67  1  0
 25 68  1  0
 25 69  1  0
 26 70  1  0
 26 71  1  0
 26 72  1  0
 28 73  1  0
 28 74  1  0
 28 75  1  0
 29 76  1  0
 29 77  1  0
 30 78  1  0
 30 79  1  0
 32 80  1  0
 32 81  1  0
 32 82  1  0
M  END
>  <meeko>  (5) 
{"is_sidechain": [false], "intermolecular_energy": 2.731, "internal_energy": -0.839}

$$$$
EPH_relaxed_0001_pdb2pqr_Repair_285_r2_0001_out
     RDKit          3D

 82 86  0  0  0  0  0  0  0  0999 V2000
    0.4390    8.8180   -2.3650 C   0  0  0  0  0  0  0  0  0  0  0  0
    1.1810    9.9610   -3.0640 C   0  0  2  0  0  0  0  0  0  0  0  0
    2.6820    9.9800   -2.7120 C   0  0  0  0  0  0  0  0  0  0  0  0
    3.5630   10.5880   -3.8060 C   0  0  0  0  0  0  0  0  0  0  0  0
    4.9600   10.8320   -3.3200 C   0  0  2  0  0  0  0  0  0  0  0  0
    5.5580   12.0420   -3.8030 O   0  0  0  0  0  0  0  0  0  0  0  0
    6.1760   10.8170   -4.2280 C   0  0  0  0  0  0  0  0  0  0  0  0
    6.0510   10.5490   -5.6950 C   0  0  0  0  0  0  0  0  0  0  0  0
    7.5210   10.5760   -3.6180 C   0  0  0  0  0  0  0  0  0  0  0  0
    0.5430   11.2960   -2.6980 C   0  0  1  0  0  0  0  0  0  0  0  0
   -0.8320   11.1290   -1.9970 C   0  0  0  0  0  0  0  0  0  0  0  0
   -0.9450   12.2710   -0.9550 C   0  0  0  0  0  0  0  0  0  0  0  0
    0.2040   13.2420   -1.3150 C   0  0  1  0  0  0  0  0  0  0  0  0
   -0.3500   14.0970   -2.4980 C   0  0  0  0  0  0  0  0  0  0  0  0
    0.7380   14.1420   -0.1530 C   0  0  2  0  0  0  0  0  0  0  0  0
   -0.2910   15.1200    0.4400 C   0  0  0  0  0  0  0  0  0  0  0  0
   -0.3370   16.4660   -0.2040 C   0  0  0  0  0  0  0  0  0  0  0  0
    0.6020   16.9730   -1.0240 C   0  0  0  0  0  0  0  0  0  0  0  0
    1.9020   16.2080   -1.3010 C   0  0  1  0  0  0  0  0  0  0  0  0
    3.1090   17.1750   -1.1770 C   0  0  0  0  0  0  0  0  0  0  0  0
    2.9600   18.4110   -2.0590 C   0  0  0  0  0  0  0  0  0  0  0  0
    1.6860   19.1770   -1.7140 C   0  0  2  0  0  0  0  0  0  0  0  0
    1.8150   19.7190   -0.3970 O   0  0  0  0  0  0  0  0  0  0  0  0
    0.4040   18.3010   -1.7950 C   0  0  0  0  0  0  0  0  0  0  0  0
    0.0970   17.9630   -3.2750 C   0  0  0  0  0  0  0  0  0  0  0  0
   -0.7900   19.1540   -1.2880 C   0  0  0  0  0  0  0  0  0  0  0  0
    2.1080   14.8670   -0.4720 C   0  0  1  0  0  0  0  0  0  0  0  0
    2.7720   15.1870    0.9020 C   0  0  0  0  0  0  0  0  0  0  0  0
    3.1130   13.9340   -1.2450 C   0  0  0  0  0  0  0  0  0  0  0  0
    2.5100   12.9820   -2.2960 C   0  0  0  0  0  0  0  0  0  0  0  0
    1.3200   12.2110   -1.7180 C   0  0  2  0  0  0  0  0  0  0  0  0
    1.8500   11.3250   -0.5400 C   0  0  0  0  0  0  0  0  0  0  0  0
    0.5191    8.9414   -1.2749 H   0  0  0  0  0  0  0  0  0  0  0  0
   -0.6208    8.8349   -2.6590 H   0  0  0  0  0  0  0  0  0  0  0  0
    0.8858    7.8568   -2.6590 H   0  0  0  0  0  0  0  0  0  0  0  0
    1.0984    9.7947   -4.1482 H   0  0  0  0  0  0  0  0  0  0  0  0
    2.8155   10.5679   -1.7919 H   0  0  0  0  0  0  0  0  0  0  0  0
    2.9969    8.9331   -2.5906 H   0  0  0  0  0  0  0  0  0  0  0  0
    3.5984    9.8965   -4.6607 H   0  0  0  0  0  0  0  0  0  0  0  0
    3.1279   11.5547   -4.0994 H   0  0  0  0  0  0  0  0  0  0  0  0
    4.7435   10.3246   -2.3683 H   0  0  0  0  0  0  0  0  0  0  0  0
    5.5906    9.5620   -5.8495 H   0  0  0  0  0  0  0  0  0  0  0  0
    5.4213   11.3237   -6.1569 H   0  0  0  0  0  0  0  0  0  0  0  0
    7.0492   10.5644   -6.1569 H   0  0  0  0  0  0  0  0  0  0  0  0
    7.4344   10.5915   -2.5215 H   0  0  0  0  0  0  0  0  0  0  0  0
    7.9002    9.5956   -3.9420 H   0  0  0  0  0  0  0  0  0  0  0  0
    8.2170   11.3637   -3.9420 H   0  0  0  0  0  0  0  0  0  0  0  0
    0.5025   11.7601   -3.6945 H   0  0  0  0  0  0  0  0  0  0  0  0
   -1.6448   11.2071   -2.7341 H   0  0  0  0  0  0  0  0  0  0  0  0
   -0.9115   10.1442   -1.5135 H   0  0  0  0  0  0  0  0  0  0  0  0
   -1.9193   12.7753   -1.0355 H   0  0  0  0  0  0  0  0  0  0  0  0
   -0.8710   11.9018    0.0785 H   0  0  0  0  0  0  0  0  0  0  0  0
   -0.9074   14.9573   -2.0991 H   0  0  0  0  0  0  0  0  0  0  0  0
    0.4873   14.4564   -3.1142 H   0  0  0  0  0  0  0  0  0  0  0  0
   -1.0202   13.4797   -3.1142 H   0  0  0  0  0  0  0  0  0  0  0  0
    0.9430   13.4074    0.6396 H   0  0  0  0  0  0  0  0  0  0  0  0
   -1.2874   14.6637    0.3451 H   0  0  0  0  0  0  0  0  0  0  0  0
    0.0179   15.2917    1.4817 H   0  0  0  0  0  0  0  0  0  0  0  0
   -1.2125   17.0968    0.0098 H   0  0  0  0  0  0  0  0  0  0  0  0
    1.8229   15.8397   -2.3345 H   0  0  0  0  0  0  0  0  0  0  0  0
    3.1963   17.4978   -0.1291 H   0  0  0  0  0  0  0  0  0  0  0  0
    4.0069   16.6334   -1.5093 H   0  0  0  0  0  0  0  0  0  0  0  0
    3.8282   19.0690   -1.9063 H   0  0  0  0  0  0  0  0  0  0  0  0
    2.9020   18.0881   -3.1089 H   0  0  0  0  0  0  0  0  0  0  0  0
    1.5691   19.9753   -2.4617 H   0  0  0  0  0  0  0  0  0  0  0  0
    2.4620   20.4440   -0.4390 H   0  0  0  0  0  0  0  0  0  0  0  0
   -0.6420   17.1494   -3.3196 H   0  0  0  0  0  0  0  0  0  0  0  0
   -0.3074   18.8536   -3.7782 H   0  0  0  0  0  0  0  0  0  0  0  0
    1.0223   17.6459   -3.7782 H   0  0  0  0  0  0  0  0  0  0  0  0
   -0.7964   19.1586   -0.1880 H   0  0  0  0  0  0  0  0  0  0  0  0
   -0.6877   20.1847   -1.6584 H   0  0  0  0  0  0  0  0  0  0  0  0
   -1.7319   18.7231   -1.6584 H   0  0  0  0  0  0  0  0  0  0  0  0
    2.1049   14.8655    1.7154 H   0  0  0  0  0  0  0  0  0  0  0  0
    3.7297   14.6515    0.9800 H   0  0  0  0  0  0  0  0  0  0  0  0
    2.9499   16.2697    0.9800 H   0  0  0  0  0  0  0  0  0  0  0  0
    3.8388   14.5809   -1.7596 H   0  0  0  0  0  0  0  0  0  0  0  0
    3.5449   13.2768   -0.4759 H   0  0  0  0  0  0  0  0  0  0  0  0
    2.1716   13.5698   -3.1620 H   0  0  0  0  0  0  0  0  0  0  0  0
    3.2822   12.2597   -2.5992 H   0  0  0  0  0  0  0  0  0  0  0  0
    1.5737   11.7869    0.4193 H   0  0  0  0  0  0  0  0  0  0  0  0
    1.4035   10.3219   -0.6060 H   0  0  0  0  0  0  0  0  0  0  0  0
    2.9450   11.2440   -0.6060 H   0  0  0  0  0  0  0  0  0  0  0  0
  1  2  1  0
  2  3  1  0
  3  4  1  0
  4  5  1  0
  5  6  1  0
  6  7  1  0
  7  8  1  0
  7  9  1  0
  2 10  1  0
 10 11  1  0
 11 12  1  0
 12 13  1  0
 13 14  1  6
 13 15  1  0
 15 16  1  0
 16 17  1  0
 17 18  2  0
 18 19  1  0
 19 20  1  0
 20 21  1  0
 21 22  1  0
 22 23  1  0
 22 24  1  0
 24 25  1  0
 24 26  1  0
 19 27  1  0
 27 28  1  1
 27 29  1  0
 29 30  1  0
 30 31  1  0
 31 32  1  1
  7  5  1  0
 31 10  1  0
 31 13  1  0
 27 15  1  0
 24 18  1  0
  1 33  1  0
  1 34  1  0
  1 35  1  0
  2 36  1  6
  3 37  1  0
  3 38  1  0
  4 39  1  0
  4 40  1  0
  5 41  1  1
  8 42  1  0
  8 43  1  0
  8 44  1  0
  9 45  1  0
  9 46  1  0
  9 47  1  0
 10 48  1  6
 11 49  1  0
 11 50  1  0
 12 51  1  0
 12 52  1  0
 14 53  1  0
 14 54  1  0
 14 55  1  0
 15 56  1  1
 16 57  1  0
 16 58  1  0
 17 59  1  0
 19 60  1  6
 20 61  1  0
 20 62  1  0
 21 63  1  0
 21 64  1  0
 22 65  1  6
 23 66  1  0
 25 67  1  0
 25 68  1  0
 25 69  1  0
 26 70  1  0
 26 71  1  0
 26 72  1  0
 28 73  1  0
 28 74  1  0
 28 75  1  0
 29 76  1  0
 29 77  1  0
 30 78  1  0
 30 79  1  0
 32 80  1  0
 32 81  1  0
 32 82  1  0
M  END
>  <meeko>  (6) 
{"is_sidechain": [false], "intermolecular_energy": 2.731, "internal_energy": -0.839}

$$$$
EPH_relaxed_0001_pdb2pqr_Repair_285_r2_0001_out
     RDKit          3D

 82 86  0  0  0  0  0  0  0  0999 V2000
   -3.7530    7.1840   -3.3540 C   0  0  0  0  0  0  0  0  0  0  0  0
   -3.7930    7.2860   -1.8260 C   0  0  2  0  0  0  0  0  0  0  0  0
   -5.2160    7.0890   -1.2680 C   0  0  0  0  0  0  0  0  0  0  0  0
   -6.3190    7.2880   -2.3100 C   0  0  0  0  0  0  0  0  0  0  0  0
   -7.6580    7.4960   -1.6680 C   0  0  2  0  0  0  0  0  0  0  0  0
   -8.2520    6.3090   -1.1260 O   0  0  0  0  0  0  0  0  0  0  0  0
   -8.9490    6.9230   -2.2220 C   0  0  0  0  0  0  0  0  0  0  0  0
   -8.9650    6.0990   -3.4720 C   0  0  0  0  0  0  0  0  0  0  0  0
  -10.2430    7.5650   -1.8300 C   0  0  0  0  0  0  0  0  0  0  0  0
   -3.2410    8.6360   -1.3820 C   0  0  1  0  0  0  0  0  0  0  0  0
   -3.8410    9.1110   -0.0320 C   0  0  0  0  0  0  0  0  0  0  0  0
   -2.7150    9.8700    0.7160 C   0  0  0  0  0  0  0  0  0  0  0  0
   -1.6200   10.0950   -0.3530 C   0  0  1  0  0  0  0  0  0  0  0  0
   -2.0980   11.3430   -1.1600 C   0  0  0  0  0  0  0  0  0  0  0  0
   -0.1610   10.2760    0.1800 C   0  0  2  0  0  0  0  0  0  0  0  0
    0.0570   11.5060    1.0790 C   0  0  0  0  0  0  0  0  0  0  0  0
    0.4620   12.7530    0.3660 C   0  0  0  0  0  0  0  0  0  0  0  0
    0.9200   12.8180   -0.8980 C   0  0  0  0  0  0  0  0  0  0  0  0
    1.1600   11.5420   -1.7150 C   0  0  1  0  0  0  0  0  0  0  0  0
    2.5420   11.6280   -2.4150 C   0  0  0  0  0  0  0  0  0  0  0  0
    2.6960   12.8940   -3.2520 C   0  0  0  0  0  0  0  0  0  0  0  0
    2.5070   14.1420   -2.3930 C   0  0  2  0  0  0  0  0  0  0  0  0
    3.5870   14.2250   -1.4580 O   0  0  0  0  0  0  0  0  0  0  0  0
    1.1530   14.1620   -1.6310 C   0  0  0  0  0  0  0  0  0  0  0  0
   -0.0060   14.3760   -2.6350 C   0  0  0  0  0  0  0  0  0  0  0  0
    1.1500   15.4010   -0.6950 C   0  0  0  0  0  0  0  0  0  0  0  0
    0.9540   10.1710   -0.9370 C   0  0  1  0  0  0  0  0  0  0  0  0
    2.2740    9.7680   -0.2120 C   0  0  0  0  0  0  0  0  0  0  0  0
    0.6530    9.0290   -1.9780 C   0  0  0  0  0  0  0  0  0  0  0  0
   -0.8210    8.8210   -2.3740 C   0  0  0  0  0  0  0  0  0  0  0  0
   -1.7150    8.7340   -1.1340 C   0  0  2  0  0  0  0  0  0  0  0  0
   -1.2720    7.4750   -0.3130 C   0  0  0  0  0  0  0  0  0  0  0  0
   -3.3658    6.1966   -3.6456 H   0  0  0  0  0  0  0  0  0  0  0  0
   -4.7684    7.3132   -3.7568 H   0  0  0  0  0  0  0  0  0  0  0  0
   -3.0961    7.9690   -3.7568 H   0  0  0  0  0  0  0  0  0  0  0  0
   -3.1663    6.4768   -1.4230 H   0  0  0  0  0  0  0  0  0  0  0  0
   -5.2945    6.0664   -0.8703 H   0  0  0  0  0  0  0  0  0  0  0  0
   -5.3655    7.8541   -0.4919 H   0  0  0  0  0  0  0  0  0  0  0  0
   -6.0764    8.1693   -2.9219 H   0  0  0  0  0  0  0  0  0  0  0  0
   -6.3731    6.3805   -2.9294 H   0  0  0  0  0  0  0  0  0  0  0  0
   -7.3767    8.5120   -1.3541 H   0  0  0  0  0  0  0  0  0  0  0  0
   -8.9857    5.0315   -3.2072 H   0  0  0  0  0  0  0  0  0  0  0  0
   -9.8585    6.3475   -4.0636 H   0  0  0  0  0  0  0  0  0  0  0  0
   -8.0625    6.3126   -4.0636 H   0  0  0  0  0  0  0  0  0  0  0  0
  -10.3167    7.6016   -0.7331 H   0  0  0  0  0  0  0  0  0  0  0  0
  -10.2825    8.5872   -2.2344 H   0  0  0  0  0  0  0  0  0  0  0  0
  -11.0808    6.9781   -2.2344 H   0  0  0  0  0  0  0  0  0  0  0  0
   -3.5201    9.2454   -2.2542 H   0  0  0  0  0  0  0  0  0  0  0  0
   -4.6946    9.7810   -0.2118 H   0  0  0  0  0  0  0  0  0  0  0  0
   -4.2035    8.2582    0.5608 H   0  0  0  0  0  0  0  0  0  0  0  0
   -3.0846   10.8315    1.1018 H   0  0  0  0  0  0  0  0  0  0  0  0
   -2.3405    9.3100    1.5856 H   0  0  0  0  0  0  0  0  0  0  0  0
   -2.4020   12.1367   -0.4618 H   0  0  0  0  0  0  0  0  0  0  0  0
   -1.2757   11.7070   -1.7934 H   0  0  0  0  0  0  0  0  0  0  0  0
   -2.9531   11.0646   -1.7934 H   0  0  0  0  0  0  0  0  0  0  0  0
   -0.0385    9.4015    0.8360 H   0  0  0  0  0  0  0  0  0  0  0  0
   -0.8840   11.7091    1.6112 H   0  0  0  0  0  0  0  0  0  0  0  0
    0.8940   11.2511    1.7457 H   0  0  0  0  0  0  0  0  0  0  0  0
    0.3792   13.6993    0.9206 H   0  0  0  0  0  0  0  0  0  0  0  0
    0.3604   11.5092   -2.4697 H   0  0  0  0  0  0  0  0  0  0  0  0
    3.3282   11.6160   -1.6458 H   0  0  0  0  0  0  0  0  0  0  0  0
    2.6266   10.7666   -3.0938 H   0  0  0  0  0  0  0  0  0  0  0  0
    3.7021   12.9117   -3.6963 H   0  0  0  0  0  0  0  0  0  0  0  0
    1.9280   12.8900   -4.0395 H   0  0  0  0  0  0  0  0  0  0  0  0
    2.4987   15.0099   -3.0687 H   0  0  0  0  0  0  0  0  0  0  0  0
    3.3640   13.6590   -0.7000 H   0  0  0  0  0  0  0  0  0  0  0  0
   -0.9418   14.5488   -2.0833 H   0  0  0  0  0  0  0  0  0  0  0  0
    0.2133   15.2488   -3.2675 H   0  0  0  0  0  0  0  0  0  0  0  0
   -0.1129   13.4824   -3.2675 H   0  0  0  0  0  0  0  0  0  0  0  0
    1.1508   15.0684    0.3535 H   0  0  0  0  0  0  0  0  0  0  0  0
    2.0467   16.0083   -0.8877 H   0  0  0  0  0  0  0  0  0  0  0  0
    0.2504   16.0040   -0.8877 H   0  0  0  0  0  0  0  0  0  0  0  0
    2.1232    9.8140    0.8766 H   0  0  0  0  0  0  0  0  0  0  0  0
    2.5528    8.7438   -0.5005 H   0  0  0  0  0  0  0  0  0  0  0  0
    3.0774   10.4618   -0.5005 H   0  0  0  0  0  0  0  0  0  0  0  0
    1.2148    9.2585   -2.8954 H   0  0  0  0  0  0  0  0  0  0  0  0
    0.9506    8.0964   -1.4763 H   0  0  0  0  0  0  0  0  0  0  0  0
   -1.1494    9.6670   -2.9956 H   0  0  0  0  0  0  0  0  0  0  0  0
   -0.9040    7.8772   -2.9329 H   0  0  0  0  0  0  0  0  0  0  0  0
   -1.3487    7.6930    0.7625 H   0  0  0  0  0  0  0  0  0  0  0  0
   -1.9254    6.6260   -0.5626 H   0  0  0  0  0  0  0  0  0  0  0  0
   -0.2309    7.2222   -0.5626 H   0  0  0  0  0  0  0  0  0  0  0  0
  1  2  1  0
  2  3  1  0
  3  4  1  0
  4  5  1  0
  5  6  1  0
  6  7  1  0
  7  8  1  0
  7  9  1  0
  2 10  1  0
 10 11  1  0
 11 12  1  0
 12 13  1  0
 13 14  1  6
 13 15  1  0
 15 16  1  0
 16 17  1  0
 17 18  2  0
 18 19  1  0
 19 20  1  0
 20 21  1  0
 21 22  1  0
 22 23  1  0
 22 24  1  0
 24 25  1  0
 24 26  1  0
 19 27  1  0
 27 28  1  1
 27 29  1  0
 29 30  1  0
 30 31  1  0
 31 32  1  1
  7  5  1  0
 31 10  1  0
 31 13  1  0
 27 15  1  0
 24 18  1  0
  1 33  1  0
  1 34  1  0
  1 35  1  0
  2 36  1  1
  3 37  1  0
  3 38  1  0
  4 39  1  0
  4 40  1  0
  5 41  1  1
  8 42  1  0
  8 43  1  0
  8 44  1  0
  9 45  1  0
  9 46  1  0
  9 47  1  0
 10 48  1  6
 11 49  1  0
 11 50  1  0
 12 51  1  0
 12 52  1  0
 14 53  1  0
 14 54  1  0
 14 55  1  0
 15 56  1  1
 16 57  1  0
 16 58  1  0
 17 59  1  0
 19 60  1  6
 20 61  1  0
 20 62  1  0
 21 63  1  0
 21 64  1  0
 22 65  1  6
 23 66  1  0
 25 67  1  0
 25 68  1  0
 25 69  1  0
 26 70  1  0
 26 71  1  0
 26 72  1  0
 28 73  1  0
 28 74  1  0
 28 75  1  0
 29 76  1  0
 29 77  1  0
 30 78  1  0
 30 79  1  0
 32 80  1  0
 32 81  1  0
 32 82  1  0
M  END
>  <meeko>  (7) 
{"is_sidechain": [false], "intermolecular_energy": 2.731, "internal_energy": -0.839}

$$$$
EPH_relaxed_0001_pdb2pqr_Repair_285_r2_0001_out
     RDKit          3D

 82 86  0  0  0  0  0  0  0  0999 V2000
   -0.9120   16.3550   -5.8360 C   0  0  0  0  0  0  0  0  0  0  0  0
    0.1870   15.6650   -6.6490 C   0  0  2  0  0  0  0  0  0  0  0  0
   -0.2120   15.4830   -8.1280 C   0  0  0  0  0  0  0  0  0  0  0  0
    0.4300   16.5050   -9.0690 C   0  0  0  0  0  0  0  0  0  0  0  0
    1.8350   16.1240   -9.4250 C   0  0  2  0  0  0  0  0  0  0  0  0
    2.3180   16.6940  -10.6490 O   0  0  0  0  0  0  0  0  0  0  0  0
    2.1910   15.2630  -10.6220 C   0  0  0  0  0  0  0  0  0  0  0  0
    1.1360   14.7290  -11.5400 C   0  0  0  0  0  0  0  0  0  0  0  0
    3.5020   14.5410  -10.6210 C   0  0  0  0  0  0  0  0  0  0  0  0
    0.5200   14.3130   -6.0290 C   0  0  1  0  0  0  0  0  0  0  0  0
    1.7770   13.6580   -6.6620 C   0  0  0  0  0  0  0  0  0  0  0  0
    2.5040   12.8960   -5.5250 C   0  0  0  0  0  0  0  0  0  0  0  0
    1.4820   12.8560   -4.3660 C   0  0  1  0  0  0  0  0  0  0  0  0
    0.5240   11.6750   -4.7160 C   0  0  0  0  0  0  0  0  0  0  0  0
    2.0750   12.7120   -2.9260 C   0  0  2  0  0  0  0  0  0  0  0  0
    2.8530   11.4090   -2.6690 C   0  0  0  0  0  0  0  0  0  0  0  0
    2.0380   10.2730   -2.1440 C   0  0  0  0  0  0  0  0  0  0  0  0
    0.8020   10.3730   -1.6210 C   0  0  0  0  0  0  0  0  0  0  0  0
    0.1370   11.7420   -1.4280 C   0  0  1  0  0  0  0  0  0  0  0  0
   -0.4880   11.8190   -0.0110 C   0  0  0  0  0  0  0  0  0  0  0  0
   -1.4420   10.6620    0.2710 C   0  0  0  0  0  0  0  0  0  0  0  0
   -0.7290    9.3200    0.1260 C   0  0  2  0  0  0  0  0  0  0  0  0
    0.2520    9.2050    1.1610 O   0  0  0  0  0  0  0  0  0  0  0  0
   -0.0510    9.1330   -1.2600 C   0  0  0  0  0  0  0  0  0  0  0  0
   -1.1370    8.9550   -2.3500 C   0  0  0  0  0  0  0  0  0  0  0  0
    0.7500    7.8030   -1.2240 C   0  0  0  0  0  0  0  0  0  0  0  0
    1.0400   13.0050   -1.7660 C   0  0  1  0  0  0  0  0  0  0  0  0
    1.8770   13.4110   -0.5140 C   0  0  0  0  0  0  0  0  0  0  0  0
    0.1070   14.2310   -2.0920 C   0  0  0  0  0  0  0  0  0  0  0  0
   -0.3480   14.3880   -3.5560 C   0  0  0  0  0  0  0  0  0  0  0  0
    0.8420   14.2850   -4.5140 C   0  0  2  0  0  0  0  0  0  0  0  0
    1.8130   15.4740   -4.2010 C   0  0  0  0  0  0  0  0  0  0  0  0
   -0.7088   16.2274   -4.7625 H   0  0  0  0  0  0  0  0  0  0  0  0
   -0.9307   17.4273   -6.0808 H   0  0  0  0  0  0  0  0  0  0  0  0
   -1.8859   15.9060   -6.0808 H   0  0  0  0  0  0  0  0  0  0  0  0
    1.0746   16.3143   -6.6244 H   0  0  0  0  0  0  0  0  0  0  0  0
    0.0934   14.4760   -8.4486 H   0  0  0  0  0  0  0  0  0  0  0  0
   -1.3004   15.6306   -8.1877 H   0  0  0  0  0  0  0  0  0  0  0  0
   -0.1674   16.5656   -9.9906 H   0  0  0  0  0  0  0  0  0  0  0  0
    0.4581   17.4761   -8.5531 H   0  0  0  0  0  0  0  0  0  0  0  0
    2.1118   16.0604   -8.3623 H   0  0  0  0  0  0  0  0  0  0  0  0
    0.3102   14.3110  -10.9457 H   0  0  0  0  0  0  0  0  0  0  0  0
    0.7557   15.5432  -12.1745 H   0  0  0  0  0  0  0  0  0  0  0  0
    1.5669   13.9405  -12.1745 H   0  0  0  0  0  0  0  0  0  0  0  0
    3.8226   14.3645   -9.5837 H   0  0  0  0  0  0  0  0  0  0  0  0
    3.3902   13.5772  -11.1393 H   0  0  0  0  0  0  0  0  0  0  0  0
    4.2568   15.1507  -11.1393 H   0  0  0  0  0  0  0  0  0  0  0  0
   -0.4251   13.7844   -6.2223 H   0  0  0  0  0  0  0  0  0  0  0  0
    1.4799   12.9585   -7.4573 H   0  0  0  0  0  0  0  0  0  0  0  0
    2.4339   14.4169   -7.1120 H   0  0  0  0  0  0  0  0  0  0  0  0
    2.7665   11.8773   -5.8464 H   0  0  0  0  0  0  0  0  0  0  0  0
    3.4464   13.3825   -5.2332 H   0  0  0  0  0  0  0  0  0  0  0  0
    0.1524   11.2168   -3.7876 H   0  0  0  0  0  0  0  0  0  0  0  0
   -0.3254   12.0536   -5.3036 H   0  0  0  0  0  0  0  0  0  0  0  0
    1.0697   10.9220   -5.3036 H   0  0  0  0  0  0  0  0  0  0  0  0
    2.8227   13.5182   -2.8970 H   0  0  0  0  0  0  0  0  0  0  0  0
    3.3071   11.0911   -3.6191 H   0  0  0  0  0  0  0  0  0  0  0  0
    3.5891   11.6432   -1.8859 H   0  0  0  0  0  0  0  0  0  0  0  0
    2.4860    9.2693   -2.1886 H   0  0  0  0  0  0  0  0  0  0  0  0
   -0.6548   11.8053   -2.1889 H   0  0  0  0  0  0  0  0  0  0  0  0
    0.3217   11.7979    0.7332 H   0  0  0  0  0  0  0  0  0  0  0  0
   -1.0677   12.7520    0.0481 H   0  0  0  0  0  0  0  0  0  0  0  0
   -1.8283   10.7556    1.2967 H   0  0  0  0  0  0  0  0  0  0  0  0
   -2.2670   10.7018   -0.4555 H   0  0  0  0  0  0  0  0  0  0  0  0
   -1.4907    8.5309    0.2113 H   0  0  0  0  0  0  0  0  0  0  0  0
    0.2020   10.0090    1.7050 H   0  0  0  0  0  0  0  0  0  0  0  0
   -2.1143    8.7948   -1.8712 H   0  0  0  0  0  0  0  0  0  0  0  0
   -1.1793    9.8582   -2.9764 H   0  0  0  0  0  0  0  0  0  0  0  0
   -0.8887    8.0856   -2.9764 H   0  0  0  0  0  0  0  0  0  0  0  0
    0.9267    7.5096   -0.1787 H   0  0  0  0  0  0  0  0  0  0  0  0
    0.1759    7.0153   -1.7339 H   0  0  0  0  0  0  0  0  0  0  0  0
    1.7147    7.9421   -1.7339 H   0  0  0  0  0  0  0  0  0  0  0  0
    1.3248   13.1431    0.3988 H   0  0  0  0  0  0  0  0  0  0  0  0
    2.8402   12.8800   -0.5290 H   0  0  0  0  0  0  0  0  0  0  0  0
    2.0563   14.4962   -0.5290 H   0  0  0  0  0  0  0  0  0  0  0  0
   -0.7961   14.1362   -1.4712 H   0  0  0  0  0  0  0  0  0  0  0  0
    0.7184   15.1214   -1.8836 H   0  0  0  0  0  0  0  0  0  0  0  0
   -1.0719   13.5949   -3.7948 H   0  0  0  0  0  0  0  0  0  0  0  0
   -0.8095   15.3794   -3.6754 H   0  0  0  0  0  0  0  0  0  0  0  0
    1.9092   15.5918   -3.1116 H   0  0  0  0  0  0  0  0  0  0  0  0
    2.8014   15.2644   -4.6358 H   0  0  0  0  0  0  0  0  0  0  0  0
    1.4101   16.4006   -4.6358 H   0  0  0  0  0  0  0  0  0  0  0  0
  1  2  1  0
  2  3  1  0
  3  4  1  0
  4  5  1  0
  5  6  1  0
  6  7  1  0
  7  8  1  0
  7  9  1  0
  2 10  1  0
 10 11  1  0
 11 12  1  0
 12 13  1  0
 13 14  1  6
 13 15  1  0
 15 16  1  0
 16 17  1  0
 17 18  2  0
 18 19  1  0
 19 20  1  0
 20 21  1  0
 21 22  1  0
 22 23  1  0
 22 24  1  0
 24 25  1  0
 24 26  1  0
 19 27  1  0
 27 28  1  1
 27 29  1  0
 29 30  1  0
 30 31  1  0
 31 32  1  1
  7  5  1  0
 31 10  1  0
 31 13  1  0
 27 15  1  0
 24 18  1  0
  1 33  1  0
  1 34  1  0
  1 35  1  0
  2 36  1  6
  3 37  1  0
  3 38  1  0
  4 39  1  0
  4 40  1  0
  5 41  1  1
  8 42  1  0
  8 43  1  0
  8 44  1  0
  9 45  1  0
  9 46  1  0
  9 47  1  0
 10 48  1  1
 11 49  1  0
 11 50  1  0
 12 51  1  0
 12 52  1  0
 14 53  1  0
 14 54  1  0
 14 55  1  0
 15 56  1  6
 16 57  1  0
 16 58  1  0
 17 59  1  0
 19 60  1  6
 20 61  1  0
 20 62  1  0
 21 63  1  0
 21 64  1  0
 22 65  1  1
 23 66  1  0
 25 67  1  0
 25 68  1  0
 25 69  1  0
 26 70  1  0
 26 71  1  0
 26 72  1  0
 28 73  1  0
 28 74  1  0
 28 75  1  0
 29 76  1  0
 29 77  1  0
 30 78  1  0
 30 79  1  0
 32 80  1  0
 32 81  1  0
 32 82  1  0
M  END
>  <meeko>  (8) 
{"is_sidechain": [false], "intermolecular_energy": 2.731, "internal_energy": -0.839}

$$$$
EPH_relaxed_0001_pdb2pqr_Repair_285_r2_0001_out
     RDKit          3D

 82 86  0  0  0  0  0  0  0  0999 V2000
    1.4390   10.6600   -4.1600 C   0  0  0  0  0  0  0  0  0  0  0  0
    0.8900   10.2670   -2.7850 C   0  0  2  0  0  0  0  0  0  0  0  0
   -0.5540    9.7330   -2.8670 C   0  0  0  0  0  0  0  0  0  0  0  0
   -0.8420    8.5850   -1.8960 C   0  0  0  0  0  0  0  0  0  0  0  0
   -2.1680    8.7510   -1.2180 C   0  0  2  0  0  0  0  0  0  0  0  0
   -2.7040   10.0790   -1.2690 O   0  0  0  0  0  0  0  0  0  0  0  0
   -2.3680    9.5800    0.0360 C   0  0  0  0  0  0  0  0  0  0  0  0
   -1.2270   10.2980    0.6870 C   0  0  0  0  0  0  0  0  0  0  0  0
   -3.5580    9.2980    0.8990 C   0  0  0  0  0  0  0  0  0  0  0  0
    0.9510   11.4620   -1.8410 C   0  0  1  0  0  0  0  0  0  0  0  0
    1.9700   11.2600   -0.6880 C   0  0  0  0  0  0  0  0  0  0  0  0
    2.5910   12.6500   -0.3910 C   0  0  0  0  0  0  0  0  0  0  0  0
    1.6810   13.6510   -1.1410 C   0  0  1  0  0  0  0  0  0  0  0  0
    0.4530   13.8590   -0.2020 C   0  0  0  0  0  0  0  0  0  0  0  0
    2.3370   15.0120   -1.5440 C   0  0  2  0  0  0  0  0  0  0  0  0
    2.8120   15.8810   -0.3670 C   0  0  0  0  0  0  0  0  0  0  0  0
    1.8030   16.8450    0.1620 C   0  0  0  0  0  0  0  0  0  0  0  0
    0.6680   17.2110   -0.4630 C   0  0  0  0  0  0  0  0  0  0  0  0
    0.3530   16.7120   -1.8790 C   0  0  1  0  0  0  0  0  0  0  0  0
   -0.1240   17.9020   -2.7520 C   0  0  0  0  0  0  0  0  0  0  0  0
   -1.2930   18.6560   -2.1260 C   0  0  0  0  0  0  0  0  0  0  0  0
   -0.9220   19.1870   -0.7430 C   0  0  2  0  0  0  0  0  0  0  0  0
    0.0860   20.1920   -0.8910 O   0  0  0  0  0  0  0  0  0  0  0  0
   -0.4170   18.0780    0.2220 C   0  0  0  0  0  0  0  0  0  0  0  0
   -1.5970   17.1570    0.6200 C   0  0  0  0  0  0  0  0  0  0  0  0
    0.0570   18.7660    1.5310 C   0  0  0  0  0  0  0  0  0  0  0  0
    1.4920   15.8570   -2.5820 C   0  0  1  0  0  0  0  0  0  0  0  0
    2.4970   16.8030   -3.3080 C   0  0  0  0  0  0  0  0  0  0  0  0
    0.8440   14.9560   -3.6990 C   0  0  0  0  0  0  0  0  0  0  0  0
    0.3220   13.5740   -3.2620 C   0  0  0  0  0  0  0  0  0  0  0  0
    1.3780   12.8240   -2.4430 C   0  0  2  0  0  0  0  0  0  0  0  0
    2.6170   12.5800   -3.3700 C   0  0  0  0  0  0  0  0  0  0  0  0
    2.3274   11.2959   -4.0320 H   0  0  0  0  0  0  0  0  0  0  0  0
    1.7147    9.7528   -4.7177 H   0  0  0  0  0  0  0  0  0  0  0  0
    0.6691   11.2134   -4.7177 H   0  0  0  0  0  0  0  0  0  0  0  0
    1.5205    9.4536   -2.3967 H   0  0  0  0  0  0  0  0  0  0  0  0
   -1.2433   10.5599   -2.6412 H   0  0  0  0  0  0  0  0  0  0  0  0
   -0.6927    9.3364   -3.8836 H   0  0  0  0  0  0  0  0  0  0  0  0
   -0.8437    7.6375   -2.4549 H   0  0  0  0  0  0  0  0  0  0  0  0
   -0.0595    8.5858   -1.1229 H   0  0  0  0  0  0  0  0  0  0  0  0
   -2.4546    7.7204   -1.4743 H   0  0  0  0  0  0  0  0  0  0  0  0
   -1.3292   10.2337    1.7803 H   0  0  0  0  0  0  0  0  0  0  0  0
   -0.2783    9.8338    0.3795 H   0  0  0  0  0  0  0  0  0  0  0  0
   -1.2350   11.3541    0.3795 H   0  0  0  0  0  0  0  0  0  0  0  0
   -3.2677    9.3668    1.9578 H   0  0  0  0  0  0  0  0  0  0  0  0
   -4.3475   10.0339    0.6867 H   0  0  0  0  0  0  0  0  0  0  0  0
   -3.9333    8.2860    0.6867 H   0  0  0  0  0  0  0  0  0  0  0  0
   -0.1027   11.5034   -1.5280 H   0  0  0  0  0  0  0  0  0  0  0  0
    1.4585   10.8747    0.2064 H   0  0  0  0  0  0  0  0  0  0  0  0
    2.7458   10.5328   -0.9694 H   0  0  0  0  0  0  0  0  0  0  0  0
    2.5860   12.8549    0.6897 H   0  0  0  0  0  0  0  0  0  0  0  0
    3.6403   12.7163   -0.7144 H   0  0  0  0  0  0  0  0  0  0  0  0
    0.7799   13.8036    0.8468 H   0  0  0  0  0  0  0  0  0  0  0  0
    0.0065   14.8456   -0.3953 H   0  0  0  0  0  0  0  0  0  0  0  0
   -0.2934   13.0745   -0.3953 H   0  0  0  0  0  0  0  0  0  0  0  0
    3.2505   14.6883   -2.0643 H   0  0  0  0  0  0  0  0  0  0  0  0
    3.1044   15.2103    0.4543 H   0  0  0  0  0  0  0  0  0  0  0  0
    3.6414   16.4909   -0.7545 H   0  0  0  0  0  0  0  0  0  0  0  0
    2.0035   17.2945    1.1457 H   0  0  0  0  0  0  0  0  0  0  0  0
   -0.4601   15.9792   -1.7700 H   0  0  0  0  0  0  0  0  0  0  0  0
    0.7154   18.6005   -2.8848 H   0  0  0  0  0  0  0  0  0  0  0  0
   -0.4673   17.4935   -3.7139 H   0  0  0  0  0  0  0  0  0  0  0  0
   -1.5651   19.5013   -2.7751 H   0  0  0  0  0  0  0  0  0  0  0  0
   -2.1412   17.9636   -2.0204 H   0  0  0  0  0  0  0  0  0  0  0  0
   -1.8349   19.6037   -0.2923 H   0  0  0  0  0  0  0  0  0  0  0  0
    0.5670   20.0080   -1.7150 H   0  0  0  0  0  0  0  0  0  0  0  0
   -1.6663   17.1029    1.7165 H   0  0  0  0  0  0  0  0  0  0  0  0
   -2.5340   17.5650    0.2131 H   0  0  0  0  0  0  0  0  0  0  0  0
   -1.4288   16.1490    0.2131 H   0  0  0  0  0  0  0  0  0  0  0  0
   -0.3271   18.2086    2.3980 H   0  0  0  0  0  0  0  0  0  0  0  0
    1.1565   18.7788    1.5611 H   0  0  0  0  0  0  0  0  0  0  0  0
   -0.3227   19.7980    1.5611 H   0  0  0  0  0  0  0  0  0  0  0  0
    3.0848   17.3563   -2.5608 H   0  0  0  0  0  0  0  0  0  0  0  0
    3.1731   16.2060   -3.9376 H   0  0  0  0  0  0  0  0  0  0  0  0
    1.9419   17.5140   -3.9376 H   0  0  0  0  0  0  0  0  0  0  0  0
   -0.0040   15.5124   -4.1247 H   0  0  0  0  0  0  0  0  0  0  0  0
    1.6593   14.7447   -4.4066 H   0  0  0  0  0  0  0  0  0  0  0  0
   -0.5812   13.7078   -2.6486 H   0  0  0  0  0  0  0  0  0  0  0  0
    0.0918   12.9848   -4.1619 H   0  0  0  0  0  0  0  0  0  0  0  0
    3.5091   12.4043   -2.7510 H   0  0  0  0  0  0  0  0  0  0  0  0
    2.4324   11.7010   -4.0050 H   0  0  0  0  0  0  0  0  0  0  0  0
    2.7795   13.4634   -4.0050 H   0  0  0  0  0  0  0  0  0  0  0  0
  1  2  1  0
  2  3  1  0
  3  4  1  0
  4  5  1  0
  5  6  1  0
  6  7  1  0
  7  8  1  0
  7  9  1  0
  2 10  1  0
 10 11  1  0
 11 12  1  0
 12 13  1  0
 13 14  1  1
 13 15  1  0
 15 16  1  0
 16 17  1  0
 17 18  2  0
 18 19  1  0
 19 20  1  0
 20 21  1  0
 21 22  1  0
 22 23  1  0
 22 24  1  0
 24 25  1  0
 24 26  1  0
 19 27  1  0
 27 28  1  6
 27 29  1  0
 29 30  1  0
 30 31  1  0
 31 32  1  6
  7  5  1  0
 31 10  1  0
 31 13  1  0
 27 15  1  0
 24 18  1  0
  1 33  1  0
  1 34  1  0
  1 35  1  0
  2 36  1  1
  3 37  1  0
  3 38  1  0
  4 39  1  0
  4 40  1  0
  5 41  1  1
  8 42  1  0
  8 43  1  0
  8 44  1  0
  9 45  1  0
  9 46  1  0
  9 47  1  0
 10 48  1  1
 11 49  1  0
 11 50  1  0
 12 51  1  0
 12 52  1  0
 14 53  1  0
 14 54  1  0
 14 55  1  0
 15 56  1  6
 16 57  1  0
 16 58  1  0
 17 59  1  0
 19 60  1  1
 20 61  1  0
 20 62  1  0
 21 63  1  0
 21 64  1  0
 22 65  1  1
 23 66  1  0
 25 67  1  0
 25 68  1  0
 25 69  1  0
 26 70  1  0
 26 71  1  0
 26 72  1  0
 28 73  1  0
 28 74  1  0
 28 75  1  0
 29 76  1  0
 29 77  1  0
 30 78  1  0
 30 79  1  0
 32 80  1  0
 32 81  1  0
 32 82  1  0
M  END
>  <meeko>  (9) 
{"is_sidechain": [false], "intermolecular_energy": 2.731, "internal_energy": -0.839}

$$$$
EPH_relaxed_0001_pdb2pqr_Repair_285_r2_0001_out
     RDKit          3D

 82 86  0  0  0  0  0  0  0  0999 V2000
   -2.1100    7.7720   -2.1570 C   0  0  0  0  0  0  0  0  0  0  0  0
   -2.2900    8.4510   -0.7970 C   0  0  2  0  0  0  0  0  0  0  0  0
   -3.7620    8.4550   -0.3400 C   0  0  0  0  0  0  0  0  0  0  0  0
   -4.7200    7.8080   -1.3440 C   0  0  0  0  0  0  0  0  0  0  0  0
   -5.8890    7.1660   -0.6610 C   0  0  2  0  0  0  0  0  0  0  0  0
   -6.4490    6.0450   -1.3570 O   0  0  0  0  0  0  0  0  0  0  0  0
   -7.3010    7.1930   -1.2160 C   0  0  0  0  0  0  0  0  0  0  0  0
   -7.6180    7.8790   -2.5070 C   0  0  0  0  0  0  0  0  0  0  0  0
   -8.4450    6.9820   -0.2730 C   0  0  0  0  0  0  0  0  0  0  0  0
   -1.7580    9.8790   -0.8540 C   0  0  1  0  0  0  0  0  0  0  0  0
   -1.3350   10.4150    0.5390 C   0  0  0  0  0  0  0  0  0  0  0  0
   -0.1090   11.3350    0.3110 C   0  0  0  0  0  0  0  0  0  0  0  0
   -0.0700   11.5620   -1.2180 C   0  0  1  0  0  0  0  0  0  0  0  0
   -1.1210   12.6860   -1.4840 C   0  0  0  0  0  0  0  0  0  0  0  0
    1.3240   11.9190   -1.8290 C   0  0  2  0  0  0  0  0  0  0  0  0
    1.9380   13.2370   -1.3270 C   0  0  0  0  0  0  0  0  0  0  0  0
    1.5910   14.4480   -2.1280 C   0  0  0  0  0  0  0  0  0  0  0  0
    1.0540   14.4420   -3.3630 C   0  0  0  0  0  0  0  0  0  0  0  0
    0.8340   13.1260   -4.1190 C   0  0  1  0  0  0  0  0  0  0  0  0
    1.3470   13.2730   -5.5760 C   0  0  0  0  0  0  0  0  0  0  0  0
    0.7320   14.4700   -6.2950 C   0  0  0  0  0  0  0  0  0  0  0  0
    1.0220   15.7660   -5.5430 C   0  0  2  0  0  0  0  0  0  0  0  0
    2.4270   16.0280   -5.6010 O   0  0  0  0  0  0  0  0  0  0  0  0
    0.5570   15.7320   -4.0610 C   0  0  0  0  0  0  0  0  0  0  0  0
   -0.9900   15.7520   -3.9990 C   0  0  0  0  0  0  0  0  0  0  0  0
    1.0350   17.0430   -3.3800 C   0  0  0  0  0  0  0  0  0  0  0  0
    1.3850   11.8160   -3.4070 C   0  0  1  0  0  0  0  0  0  0  0  0
    2.8830   11.5980   -3.7810 C   0  0  0  0  0  0  0  0  0  0  0  0
    0.6040   10.5650   -3.9570 C   0  0  0  0  0  0  0  0  0  0  0  0
   -0.7050   10.1910   -3.2350 C   0  0  0  0  0  0  0  0  0  0  0  0
   -0.4980   10.1340   -1.7190 C   0  0  2  0  0  0  0  0  0  0  0  0
    0.5370    8.9970   -1.4200 C   0  0  0  0  0  0  0  0  0  0  0  0
   -1.8308    6.7187   -2.0068 H   0  0  0  0  0  0  0  0  0  0  0  0
   -3.0531    7.8245   -2.7207 H   0  0  0  0  0  0  0  0  0  0  0  0
   -1.3168    8.2848   -2.7207 H   0  0  0  0  0  0  0  0  0  0  0  0
   -1.7172    7.8701   -0.0591 H   0  0  0  0  0  0  0  0  0  0  0  0
   -3.8320    7.9057    0.6104 H   0  0  0  0  0  0  0  0  0  0  0  0
   -4.0645    9.5078   -0.2396 H   0  0  0  0  0  0  0  0  0  0  0  0
   -5.0904    8.5817   -2.0326 H   0  0  0  0  0  0  0  0  0  0  0  0
   -4.1695    7.0264   -1.8881 H   0  0  0  0  0  0  0  0  0  0  0  0
   -5.4797    7.4200    0.3279 H   0  0  0  0  0  0  0  0  0  0  0  0
   -8.0711    8.8596   -2.2995 H   0  0  0  0  0  0  0  0  0  0  0  0
   -6.6927    8.0177   -3.0854 H   0  0  0  0  0  0  0  0  0  0  0  0
   -8.3233    7.2642   -3.0854 H   0  0  0  0  0  0  0  0  0  0  0  0
   -8.0829    7.0488    0.7635 H   0  0  0  0  0  0  0  0  0  0  0  0
   -9.2091    7.7544   -0.4449 H   0  0  0  0  0  0  0  0  0  0  0  0
   -8.8833    5.9879   -0.4449 H   0  0  0  0  0  0  0  0  0  0  0  0
   -2.6286   10.3826   -1.2994 H   0  0  0  0  0  0  0  0  0  0  0  0
   -2.1588   10.9869    0.9909 H   0  0  0  0  0  0  0  0  0  0  0  0
   -1.0870    9.5886    1.2214 H   0  0  0  0  0  0  0  0  0  0  0  0
   -0.2360   12.2899    0.8421 H   0  0  0  0  0  0  0  0  0  0  0  0
    0.8226   10.8898    0.6903 H   0  0  0  0  0  0  0  0  0  0  0  0
   -1.4884   13.0789   -0.5245 H   0  0  0  0  0  0  0  0  0  0  0  0
   -0.6514   13.4988   -2.0574 H   0  0  0  0  0  0  0  0  0  0  0  0
   -1.9635   12.2720   -2.0574 H   0  0  0  0  0  0  0  0  0  0  0  0
    1.9677   11.1202   -1.4321 H   0  0  0  0  0  0  0  0  0  0  0  0
    1.5931   13.4015   -0.2955 H   0  0  0  0  0  0  0  0  0  0  0  0
    3.0280   13.1172   -1.4133 H   0  0  0  0  0  0  0  0  0  0  0  0
    1.7909   15.4283   -1.6707 H   0  0  0  0  0  0  0  0  0  0  0  0
   -0.2527   12.9555   -4.1215 H   0  0  0  0  0  0  0  0  0  0  0  0
    2.4396   13.3981   -5.5542 H   0  0  0  0  0  0  0  0  0  0  0  0
    1.0541   12.3666   -6.1261 H   0  0  0  0  0  0  0  0  0  0  0  0
    1.1563   14.5387   -7.3075 H   0  0  0  0  0  0  0  0  0  0  0  0
   -0.3578   14.3285   -6.3434 H   0  0  0  0  0  0  0  0  0  0  0  0
    0.4482   16.5667   -6.0326 H   0  0  0  0  0  0  0  0  0  0  0  0
    2.8870   15.1710   -5.5920 H   0  0  0  0  0  0  0  0  0  0  0  0
   -1.3148   15.7562   -2.9481 H   0  0  0  0  0  0  0  0  0  0  0  0
   -1.3655   16.6551   -4.5024 H   0  0  0  0  0  0  0  0  0  0  0  0
   -1.3887   14.8589   -4.5024 H   0  0  0  0  0  0  0  0  0  0  0  0
    0.9921   16.9252   -2.2872 H   0  0  0  0  0  0  0  0  0  0  0  0
    2.0696   17.2586   -3.6852 H   0  0  0  0  0  0  0  0  0  0  0  0
    0.3820   17.8739   -3.6852 H   0  0  0  0  0  0  0  0  0  0  0  0
    3.4814   11.5109   -2.8621 H   0  0  0  0  0  0  0  0  0  0  0  0
    2.9828   10.6759   -4.3724 H   0  0  0  0  0  0  0  0  0  0  0  0
    3.2415   12.4534   -4.3724 H   0  0  0  0  0  0  0  0  0  0  0  0
    0.3581   10.7630   -5.0107 H   0  0  0  0  0  0  0  0  0  0  0  0
    1.2772    9.7106   -3.7937 H   0  0  0  0  0  0  0  0  0  0  0  0
   -1.4713   10.9458   -3.4654 H   0  0  0  0  0  0  0  0  0  0  0  0
   -1.0258    9.1979   -3.5827 H   0  0  0  0  0  0  0  0  0  0  0  0
    0.6460    8.8772   -0.3320 H   0  0  0  0  0  0  0  0  0  0  0  0
    0.1817    8.0530   -1.8590 H   0  0  0  0  0  0  0  0  0  0  0  0
    1.5101    9.2622   -1.8590 H   0  0  0  0  0  0  0  0  0  0  0  0
  1  2  1  0
  2  3  1  0
  3  4  1  0
  4  5  1  0
  5  6  1  0
  6  7  1  0
  7  8  1  0
  7  9  1  0
  2 10  1  0
 10 11  1  0
 11 12  1  0
 12 13  1  0
 13 14  1  1
 13 15  1  0
 15 16  1  0
 16 17  1  0
 17 18  2  0
 18 19  1  0
 19 20  1  0
 20 21  1  0
 21 22  1  0
 22 23  1  0
 22 24  1  0
 24 25  1  0
 24 26  1  0
 19 27  1  0
 27 28  1  1
 27 29  1  0
 29 30  1  0
 30 31  1  0
 31 32  1  6
  7  5  1  0
 31 10  1  0
 31 13  1  0
 27 15  1  0
 24 18  1  0
  1 33  1  0
  1 34  1  0
  1 35  1  0
  2 36  1  1
  3 37  1  0
  3 38  1  0
  4 39  1  0
  4 40  1  0
  5 41  1  1
  8 42  1  0
  8 43  1  0
  8 44  1  0
  9 45  1  0
  9 46  1  0
  9 47  1  0
 10 48  1  6
 11 49  1  0
 11 50  1  0
 12 51  1  0
 12 52  1  0
 14 53  1  0
 14 54  1  0
 14 55  1  0
 15 56  1  1
 16 57  1  0
 16 58  1  0
 17 59  1  0
 19 60  1  6
 20 61  1  0
 20 62  1  0
 21 63  1  0
 21 64  1  0
 22 65  1  6
 23 66  1  0
 25 67  1  0
 25 68  1  0
 25 69  1  0
 26 70  1  0
 26 71  1  0
 26 72  1  0
 28 73  1  0
 28 74  1  0
 28 75  1  0
 29 76  1  0
 29 77  1  0
 30 78  1  0
 30 79  1  0
 32 80  1  0
 32 81  1  0
 32 82  1  0
M  END
>  <meeko>  (10) 
{"is_sidechain": [false], "intermolecular_energy": 2.731, "internal_energy": -0.839}

$$$$
EPH_relaxed_0001_pdb2pqr_Repair_285_r2_0001_out
     RDKit          3D

 82 86  0  0  0  0  0  0  0  0999 V2000
    2.8410   11.3370   -5.2650 C   0  0  0  0  0  0  0  0  0  0  0  0
    1.7960   11.0400   -4.1870 C   0  0  2  0  0  0  0  0  0  0  0  0
    0.6780   10.1120   -4.7010 C   0  0  0  0  0  0  0  0  0  0  0  0
   -0.3930    9.7970   -3.6530 C   0  0  0  0  0  0  0  0  0  0  0  0
    0.1640    8.9970   -2.5150 C   0  0  2  0  0  0  0  0  0  0  0  0
   -0.6580    7.9000   -2.0950 O   0  0  0  0  0  0  0  0  0  0  0  0
   -0.4670    8.9520   -1.1360 C   0  0  0  0  0  0  0  0  0  0  0  0
   -1.7110    9.7220   -0.8210 C   0  0  0  0  0  0  0  0  0  0  0  0
    0.3870    8.5570    0.0290 C   0  0  0  0  0  0  0  0  0  0  0  0
    1.1950   12.3440   -3.6730 C   0  0  1  0  0  0  0  0  0  0  0  0
   -0.3410   12.2540   -3.4690 C   0  0  0  0  0  0  0  0  0  0  0  0
   -0.6790   13.1300   -2.2350 C   0  0  0  0  0  0  0  0  0  0  0  0
    0.6050   13.9500   -1.9730 C   0  0  1  0  0  0  0  0  0  0  0  0
    0.5390   15.1340   -2.9890 C   0  0  0  0  0  0  0  0  0  0  0  0
    0.8160   14.4560   -0.5090 C   0  0  2  0  0  0  0  0  0  0  0  0
   -0.2570   15.4310    0.0050 C   0  0  0  0  0  0  0  0  0  0  0  0
    0.0260   16.8770   -0.2370 C   0  0  0  0  0  0  0  0  0  0  0  0
    1.2190   17.3930   -0.5850 C   0  0  0  0  0  0  0  0  0  0  0  0
    2.4670   16.5040   -0.6720 C   0  0  1  0  0  0  0  0  0  0  0  0
    3.6500   17.2000    0.0490 C   0  0  0  0  0  0  0  0  0  0  0  0
    3.9030   18.6120   -0.4700 C   0  0  0  0  0  0  0  0  0  0  0  0
    2.6590   19.4820   -0.3130 C   0  0  2  0  0  0  0  0  0  0  0  0
    2.4070   19.6780    1.0820 O   0  0  0  0  0  0  0  0  0  0  0  0
    1.3980   18.8760   -0.9910 C   0  0  0  0  0  0  0  0  0  0  0  0
    1.5530   18.9430   -2.5310 C   0  0  0  0  0  0  0  0  0  0  0  0
    0.1860   19.7790   -0.6380 C   0  0  0  0  0  0  0  0  0  0  0  0
    2.2750   14.9940   -0.2130 C   0  0  1  0  0  0  0  0  0  0  0  0
    2.4900   14.8740    1.3260 C   0  0  0  0  0  0  0  0  0  0  0  0
    3.3880   14.1070   -0.8870 C   0  0  0  0  0  0  0  0  0  0  0  0
    3.0720   13.5370   -2.2830 C   0  0  0  0  0  0  0  0  0  0  0  0
    1.6950   12.8660   -2.3020 C   0  0  2  0  0  0  0  0  0  0  0  0
    1.7390   11.6570   -1.3070 C   0  0  0  0  0  0  0  0  0  0  0  0
    3.7940   11.6079   -4.7871 H   0  0  0  0  0  0  0  0  0  0  0  0
    2.9856   10.4444   -5.8914 H   0  0  0  0  0  0  0  0  0  0  0  0
    2.4945   12.1722   -5.8914 H   0  0  0  0  0  0  0  0  0  0  0  0
    2.3076   10.5164   -3.3660 H   0  0  0  0  0  0  0  0  0  0  0  0
    0.1911   10.5978   -5.5595 H   0  0  0  0  0  0  0  0  0  0  0  0
    1.1527    9.1573   -4.9716 H   0  0  0  0  0  0  0  0  0  0  0  0
   -0.7967   10.7420   -3.2606 H   0  0  0  0  0  0  0  0  0  0  0  0
   -1.1819    9.2022   -4.1367 H   0  0  0  0  0  0  0  0  0  0  0  0
    1.1931    9.1943   -2.8495 H   0  0  0  0  0  0  0  0  0  0  0  0
   -1.8302    9.7958    0.2700 H   0  0  0  0  0  0  0  0  0  0  0  0
   -1.6359   10.7318   -1.2508 H   0  0  0  0  0  0  0  0  0  0  0  0
   -2.5813    9.2044   -1.2508 H   0  0  0  0  0  0  0  0  0  0  0  0
   -0.1362    8.7990    0.9659 H   0  0  0  0  0  0  0  0  0  0  0  0
    0.5852    7.4758   -0.0116 H   0  0  0  0  0  0  0  0  0  0  0  0
    1.3393    9.1061   -0.0116 H   0  0  0  0  0  0  0  0  0  0  0  0
    1.5173   13.0245   -4.4749 H   0  0  0  0  0  0  0  0  0  0  0  0
   -0.8645   12.6343   -4.3586 H   0  0  0  0  0  0  0  0  0  0  0  0
   -0.6590   11.2125   -3.3138 H   0  0  0  0  0  0  0  0  0  0  0  0
   -1.5271   13.7960   -2.4525 H   0  0  0  0  0  0  0  0  0  0  0  0
   -0.9726   12.5263   -1.3636 H   0  0  0  0  0  0  0  0  0  0  0  0
    0.4859   16.0857   -2.4400 H   0  0  0  0  0  0  0  0  0  0  0  0
    1.4390   15.1251   -3.6213 H   0  0  0  0  0  0  0  0  0  0  0  0
   -0.3545   15.0252   -3.6213 H   0  0  0  0  0  0  0  0  0  0  0  0
    0.6897   13.5352    0.0794 H   0  0  0  0  0  0  0  0  0  0  0  0
   -1.2070   15.1830   -0.4910 H   0  0  0  0  0  0  0  0  0  0  0  0
   -0.2840   15.3051    1.0974 H   0  0  0  0  0  0  0  0  0  0  0  0
   -0.8119   17.5801   -0.1209 H   0  0  0  0  0  0  0  0  0  0  0  0
    2.6930   16.4003   -1.7435 H   0  0  0  0  0  0  0  0  0  0  0  0
    3.4244   17.2548    1.1242 H   0  0  0  0  0  0  0  0  0  0  0  0
    4.5552   16.6059   -0.1453 H   0  0  0  0  0  0  0  0  0  0  0  0
    4.7307   19.0615    0.0983 H   0  0  0  0  0  0  0  0  0  0  0  0
    4.1575   18.5529   -1.5385 H   0  0  0  0  0  0  0  0  0  0  0  0
    2.8589   20.4379   -0.8193 H   0  0  0  0  0  0  0  0  0  0  0  0
    2.5040   18.8170    1.5230 H   0  0  0  0  0  0  0  0  0  0  0  0
    2.5360   19.3679   -2.7824 H   0  0  0  0  0  0  0  0  0  0  0  0
    1.4729   17.9299   -2.9520 H   0  0  0  0  0  0  0  0  0  0  0  0
    0.7602   19.5788   -2.9520 H   0  0  0  0  0  0  0  0  0  0  0  0
    0.0888   19.8514    0.4553 H   0  0  0  0  0  0  0  0  0  0  0  0
    0.3417   20.7830   -1.0596 H   0  0  0  0  0  0  0  0  0  0  0  0
   -0.7315   19.3426   -1.0596 H   0  0  0  0  0  0  0  0  0  0  0  0
    1.6464   15.3449    1.8519 H   0  0  0  0  0  0  0  0  0  0  0  0
    2.5500   13.8120    1.6061 H   0  0  0  0  0  0  0  0  0  0  0  0
    3.4254   15.3805    1.6061 H   0  0  0  0  0  0  0  0  0  0  0  0
    4.2951   14.7227   -0.9766 H   0  0  0  0  0  0  0  0  0  0  0  0
    3.4899   13.2279   -0.2337 H   0  0  0  0  0  0  0  0  0  0  0  0
    3.0834   14.3560   -3.0172 H   0  0  0  0  0  0  0  0  0  0  0  0
    3.8329   12.7837   -2.5349 H   0  0  0  0  0  0  0  0  0  0  0  0
    1.7253   12.0323   -0.2731 H   0  0  0  0  0  0  0  0  0  0  0  0
    0.8637   11.0122   -1.4746 H   0  0  0  0  0  0  0  0  0  0  0  0
    2.6588   11.0775   -1.4746 H   0  0  0  0  0  0  0  0  0  0  0  0
  1  2  1  0
  2  3  1  0
  3  4  1  0
  4  5  1  0
  5  6  1  0
  6  7  1  0
  7  8  1  0
  7  9  1  0
  2 10  1  0
 10 11  1  0
 11 12  1  0
 12 13  1  0
 13 14  1  6
 13 15  1  0
 15 16  1  0
 16 17  1  0
 17 18  2  0
 18 19  1  0
 19 20  1  0
 20 21  1  0
 21 22  1  0
 22 23  1  0
 22 24  1  0
 24 25  1  0
 24 26  1  0
 19 27  1  0
 27 28  1  1
 27 29  1  0
 29 30  1  0
 30 31  1  0
 31 32  1  1
  7  5  1  0
 31 10  1  0
 31 13  1  0
 27 15  1  0
 24 18  1  0
  1 33  1  0
  1 34  1  0
  1 35  1  0
  2 36  1  1
  3 37  1  0
  3 38  1  0
  4 39  1  0
  4 40  1  0
  5 41  1  1
  8 42  1  0
  8 43  1  0
  8 44  1  0
  9 45  1  0
  9 46  1  0
  9 47  1  0
 10 48  1  6
 11 49  1  0
 11 50  1  0
 12 51  1  0
 12 52  1  0
 14 53  1  0
 14 54  1  0
 14 55  1  0
 15 56  1  1
 16 57  1  0
 16 58  1  0
 17 59  1  0
 19 60  1  6
 20 61  1  0
 20 62  1  0
 21 63  1  0
 21 64  1  0
 22 65  1  6
 23 66  1  0
 25 67  1  0
 25 68  1  0
 25 69  1  0
 26 70  1  0
 26 71  1  0
 26 72  1  0
 28 73  1  0
 28 74  1  0
 28 75  1  0
 29 76  1  0
 29 77  1  0
 30 78  1  0
 30 79  1  0
 32 80  1  0
 32 81  1  0
 32 82  1  0
M  END
>  <meeko>  (11) 
{"is_sidechain": [false], "intermolecular_energy": 2.731, "internal_energy": -0.839}

$$$$
EPH_relaxed_0001_pdb2pqr_Repair_285_r2_0001_out
     RDKit          3D

 82 86  0  0  0  0  0  0  0  0999 V2000
    0.8950   14.9050   -2.6450 C   0  0  0  0  0  0  0  0  0  0  0  0
    1.1580   14.2290   -3.9930 C   0  0  2  0  0  0  0  0  0  0  0  0
    0.4500   14.9560   -5.1550 C   0  0  0  0  0  0  0  0  0  0  0  0
    0.9720   14.5580   -6.5380 C   0  0  0  0  0  0  0  0  0  0  0  0
    0.7490   15.6440   -7.5480 C   0  0  2  0  0  0  0  0  0  0  0  0
    0.4240   15.1790   -8.8640 O   0  0  0  0  0  0  0  0  0  0  0  0
    1.6670   15.8880   -8.7310 C   0  0  0  0  0  0  0  0  0  0  0  0
    2.8780   15.0410   -8.9660 C   0  0  0  0  0  0  0  0  0  0  0  0
    1.6630   17.2400   -9.3730 C   0  0  0  0  0  0  0  0  0  0  0  0
    0.7100   12.7730   -3.9410 C   0  0  1  0  0  0  0  0  0  0  0  0
    1.8440   11.7850   -4.3260 C   0  0  0  0  0  0  0  0  0  0  0  0
    1.6490   10.5180   -3.4540 C   0  0  0  0  0  0  0  0  0  0  0  0
    0.2360   10.6780   -2.8450 C   0  0  1  0  0  0  0  0  0  0  0  0
   -0.7410   10.2080   -3.9690 C   0  0  0  0  0  0  0  0  0  0  0  0
   -0.0260    9.9240   -1.5010 C   0  0  2  0  0  0  0  0  0  0  0  0
    0.0820    8.3910   -1.5800 C   0  0  0  0  0  0  0  0  0  0  0  0
   -1.1890    7.6780   -1.9020 C   0  0  0  0  0  0  0  0  0  0  0  0
   -2.4230    8.2120   -1.8390 C   0  0  0  0  0  0  0  0  0  0  0  0
   -2.6380    9.6380   -1.3160 C   0  0  1  0  0  0  0  0  0  0  0  0
   -3.8160    9.6470   -0.3070 C   0  0  0  0  0  0  0  0  0  0  0  0
   -5.0900    9.0410   -0.8890 C   0  0  0  0  0  0  0  0  0  0  0  0
   -4.8510    7.6040   -1.3440 C   0  0  2  0  0  0  0  0  0  0  0  0
   -4.5890    6.7930   -0.1950 O   0  0  0  0  0  0  0  0  0  0  0  0
   -3.6790    7.4690   -2.3570 C   0  0  0  0  0  0  0  0  0  0  0  0
   -4.0890    8.0930   -3.7140 C   0  0  0  0  0  0  0  0  0  0  0  0
   -3.4530    5.9570   -2.6260 C   0  0  0  0  0  0  0  0  0  0  0  0
   -1.3460   10.3720   -0.7520 C   0  0  1  0  0  0  0  0  0  0  0  0
   -1.1470   10.0180    0.7530 C   0  0  0  0  0  0  0  0  0  0  0  0
   -1.5700   11.9290   -0.8160 C   0  0  0  0  0  0  0  0  0  0  0  0
   -1.1810   12.6340   -2.1290 C   0  0  0  0  0  0  0  0  0  0  0  0
    0.2270   12.2260   -2.5740 C   0  0  2  0  0  0  0  0  0  0  0  0
    1.2340   12.7050   -1.4740 C   0  0  0  0  0  0  0  0  0  0  0  0
    1.1631   14.2158   -1.8307 H   0  0  0  0  0  0  0  0  0  0  0  0
    1.5035   15.8181   -2.5678 H   0  0  0  0  0  0  0  0  0  0  0  0
   -0.1706   15.1668   -2.5678 H   0  0  0  0  0  0  0  0  0  0  0  0
    2.2405   14.2786   -4.1821 H   0  0  0  0  0  0  0  0  0  0  0  0
   -0.6238   14.7220   -5.1084 H   0  0  0  0  0  0  0  0  0  0  0  0
    0.6507   16.0306   -5.0323 H   0  0  0  0  0  0  0  0  0  0  0  0
    2.0504   14.3532   -6.4668 H   0  0  0  0  0  0  0  0  0  0  0  0
    0.4223   13.6642   -6.8681 H   0  0  0  0  0  0  0  0  0  0  0  0
    0.3505   16.3154   -6.7731 H   0  0  0  0  0  0  0  0  0  0  0  0
    3.3082   14.7401   -7.9994 H   0  0  0  0  0  0  0  0  0  0  0  0
    2.5932   14.1441   -9.5357 H   0  0  0  0  0  0  0  0  0  0  0  0
    3.6228   15.6161   -9.5357 H   0  0  0  0  0  0  0  0  0  0  0  0
    1.6607   18.0161   -8.5934 H   0  0  0  0  0  0  0  0  0  0  0  0
    2.5608   17.3515   -9.9987 H   0  0  0  0  0  0  0  0  0  0  0  0
    0.7645   17.3461   -9.9987 H   0  0  0  0  0  0  0  0  0  0  0  0
   -0.1309   12.8133   -4.6490 H   0  0  0  0  0  0  0  0  0  0  0  0
    1.7740   11.5252   -5.3926 H   0  0  0  0  0  0  0  0  0  0  0  0
    2.8336   12.2337   -4.1547 H   0  0  0  0  0  0  0  0  0  0  0  0
    1.7054    9.6092   -4.0712 H   0  0  0  0  0  0  0  0  0  0  0  0
    2.4271   10.4182   -2.6829 H   0  0  0  0  0  0  0  0  0  0  0  0
   -1.6430    9.7741   -3.5129 H   0  0  0  0  0  0  0  0  0  0  0  0
   -1.0234   11.0688   -4.5929 H   0  0  0  0  0  0  0  0  0  0  0  0
   -0.2447    9.4501   -4.5929 H   0  0  0  0  0  0  0  0  0  0  0  0
    0.8205   10.2515   -0.8796 H   0  0  0  0  0  0  0  0  0  0  0  0
    0.8181    8.1418   -2.3585 H   0  0  0  0  0  0  0  0  0  0  0  0
    0.3733    8.0543   -0.5741 H   0  0  0  0  0  0  0  0  0  0  0  0
   -1.1107    6.6271   -2.2175 H   0  0  0  0  0  0  0  0  0  0  0  0
   -2.8939   10.2487   -2.1944 H   0  0  0  0  0  0  0  0  0  0  0  0
   -3.5238    9.0676    0.5812 H   0  0  0  0  0  0  0  0  0  0  0  0
   -4.0307   10.6957   -0.0539 H   0  0  0  0  0  0  0  0  0  0  0  0
   -5.8766    9.0492   -0.1201 H   0  0  0  0  0  0  0  0  0  0  0  0
   -5.3976    9.6388   -1.7597 H   0  0  0  0  0  0  0  0  0  0  0  0
   -5.7587    7.2691   -1.8673 H   0  0  0  0  0  0  0  0  0  0  0  0
   -5.4190    6.7150    0.3050 H   0  0  0  0  0  0  0  0  0  0  0  0
   -4.6850    9.0001   -3.5353 H   0  0  0  0  0  0  0  0  0  0  0  0
   -3.1860    8.3542   -4.2852 H   0  0  0  0  0  0  0  0  0  0  0  0
   -4.6872    7.3678   -4.2852 H   0  0  0  0  0  0  0  0  0  0  0  0
   -3.3730    5.4221   -1.6681 H   0  0  0  0  0  0  0  0  0  0  0  0
   -4.3012    5.5559   -3.2002 H   0  0  0  0  0  0  0  0  0  0  0  0
   -2.5246    5.8215   -3.2002 H   0  0  0  0  0  0  0  0  0  0  0  0
   -1.5908   10.8076    1.3772 H   0  0  0  0  0  0  0  0  0  0  0  0
   -1.6378    9.0582    0.9719 H   0  0  0  0  0  0  0  0  0  0  0  0
   -0.0719    9.9384    0.9719 H   0  0  0  0  0  0  0  0  0  0  0  0
   -2.6393   12.1187   -0.6408 H   0  0  0  0  0  0  0  0  0  0  0  0
   -0.8961   12.3479   -0.0542 H   0  0  0  0  0  0  0  0  0  0  0  0
   -1.9008   12.3567   -2.9133 H   0  0  0  0  0  0  0  0  0  0  0  0
   -1.1946   13.7210   -1.9609 H   0  0  0  0  0  0  0  0  0  0  0  0
    0.8120   12.5043   -0.4782 H   0  0  0  0  0  0  0  0  0  0  0  0
    2.1844   12.1625   -1.5857 H   0  0  0  0  0  0  0  0  0  0  0  0
    1.4128   13.7846   -1.5857 H   0  0  0  0  0  0  0  0  0  0  0  0
  1  2  1  0
  2  3  1  0
  3  4  1  0
  4  5  1  0
  5  6  1  0
  6  7  1  0
  7  8  1  0
  7  9  1  0
  2 10  1  0
 10 11  1  0
 11 12  1  0
 12 13  1  0
 13 14  1  6
 13 15  1  0
 15 16  1  0
 16 17  1  0
 17 18  2  0
 18 19  1  0
 19 20  1  0
 20 21  1  0
 21 22  1  0
 22 23  1  0
 22 24  1  0
 24 25  1  0
 24 26  1  0
 19 27  1  0
 27 28  1  1
 27 29  1  0
 29 30  1  0
 30 31  1  0
 31 32  1  1
  7  5  1  0
 31 10  1  0
 31 13  1  0
 27 15  1  0
 24 18  1  0
  1 33  1  0
  1 34  1  0
  1 35  1  0
  2 36  1  6
  3 37  1  0
  3 38  1  0
  4 39  1  0
  4 40  1  0
  5 41  1  1
  8 42  1  0
  8 43  1  0
  8 44  1  0
  9 45  1  0
  9 46  1  0
  9 47  1  0
 10 48  1  6
 11 49  1  0
 11 50  1  0
 12 51  1  0
 12 52  1  0
 14 53  1  0
 14 54  1  0
 14 55  1  0
 15 56  1  1
 16 57  1  0
 16 58  1  0
 17 59  1  0
 19 60  1  6
 20 61  1  0
 20 62  1  0
 21 63  1  0
 21 64  1  0
 22 65  1  6
 23 66  1  0
 25 67  1  0
 25 68  1  0
 25 69  1  0
 26 70  1  0
 26 71  1  0
 26 72  1  0
 28 73  1  0
 28 74  1  0
 28 75  1  0
 29 76  1  0
 29 77  1  0
 30 78  1  0
 30 79  1  0
 32 80  1  0
 32 81  1  0
 32 82  1  0
M  END
>  <meeko>  (12) 
{"is_sidechain": [false], "intermolecular_energy": 2.731, "internal_energy": -0.839}

$$$$
EPH_relaxed_0001_pdb2pqr_Repair_285_r2_0001_out
     RDKit          3D

 82 86  0  0  0  0  0  0  0  0999 V2000
    1.9080   19.6110   -1.7700 C   0  0  0  0  0  0  0  0  0  0  0  0
    2.3520   19.0740   -0.4060 C   0  0  2  0  0  0  0  0  0  0  0  0
    3.5030   19.9030    0.1980 C   0  0  0  0  0  0  0  0  0  0  0  0
    3.3350   20.1920    1.6920 C   0  0  0  0  0  0  0  0  0  0  0  0
    4.5920   19.9090    2.4570 C   0  0  2  0  0  0  0  0  0  0  0  0
    4.6800   18.5820    2.9930 O   0  0  0  0  0  0  0  0  0  0  0  0
    4.6220   19.6510    3.9520 C   0  0  0  0  0  0  0  0  0  0  0  0
    3.3700   19.6660    4.7710 C   0  0  0  0  0  0  0  0  0  0  0  0
    5.9060   19.8690    4.6900 C   0  0  0  0  0  0  0  0  0  0  0  0
    2.7740   17.6150   -0.5350 C   0  0  1  0  0  0  0  0  0  0  0  0
    3.1380   16.9760    0.8320 C   0  0  0  0  0  0  0  0  0  0  0  0
    2.6840   15.4950    0.7680 C   0  0  0  0  0  0  0  0  0  0  0  0
    2.3820   15.2430   -0.7280 C   0  0  1  0  0  0  0  0  0  0  0  0
    3.7760   14.9750   -1.3790 C   0  0  0  0  0  0  0  0  0  0  0  0
    1.3670   14.0970   -1.0450 C   0  0  2  0  0  0  0  0  0  0  0  0
    1.8100   12.6920   -0.6010 C   0  0  0  0  0  0  0  0  0  0  0  0
    2.5760   11.9130   -1.6180 C   0  0  0  0  0  0  0  0  0  0  0  0
    2.6530   12.2040   -2.9300 C   0  0  0  0  0  0  0  0  0  0  0  0
    1.8440   13.3610   -3.5300 C   0  0  1  0  0  0  0  0  0  0  0  0
    1.1530   12.8880   -4.8350 C   0  0  0  0  0  0  0  0  0  0  0  0
    2.1370   12.2860   -5.8330 C   0  0  0  0  0  0  0  0  0  0  0  0
    2.8800   11.1020   -5.2200 C   0  0  2  0  0  0  0  0  0  0  0  0
    1.9470   10.0420   -4.9880 O   0  0  0  0  0  0  0  0  0  0  0  0
    3.6080   11.4560   -3.8930 C   0  0  0  0  0  0  0  0  0  0  0  0
    4.8160   12.3770   -4.1930 C   0  0  0  0  0  0  0  0  0  0  0  0
    4.1980   10.1450   -3.3070 C   0  0  0  0  0  0  0  0  0  0  0  0
    0.8410   14.0920   -2.5380 C   0  0  1  0  0  0  0  0  0  0  0  0
   -0.5300   13.3480   -2.5240 C   0  0  0  0  0  0  0  0  0  0  0  0
    0.5520   15.5440   -3.0750 C   0  0  0  0  0  0  0  0  0  0  0  0
    1.5220   16.6550   -2.6300 C   0  0  0  0  0  0  0  0  0  0  0  0
    1.7340   16.6230   -1.1130 C   0  0  2  0  0  0  0  0  0  0  0  0
    0.3530   16.9110   -0.4310 C   0  0  0  0  0  0  0  0  0  0  0  0
    1.2132   20.4513   -1.6247 H   0  0  0  0  0  0  0  0  0  0  0  0
    2.7882   19.9560   -2.3324 H   0  0  0  0  0  0  0  0  0  0  0  0
    1.4038   18.8114   -2.3324 H   0  0  0  0  0  0  0  0  0  0  0  0
    1.4934   19.1546    0.2769 H   0  0  0  0  0  0  0  0  0  0  0  0
    4.4424   19.3488    0.0549 H   0  0  0  0  0  0  0  0  0  0  0  0
    3.5056   20.8739   -0.3190 H   0  0  0  0  0  0  0  0  0  0  0  0
    3.0695   21.2515    1.8223 H   0  0  0  0  0  0  0  0  0  0  0  0
    2.5424   19.5358    2.0808 H   0  0  0  0  0  0  0  0  0  0  0  0
    5.1650   20.5946    1.8154 H   0  0  0  0  0  0  0  0  0  0  0  0
    3.6308   19.6629    5.8396 H   0  0  0  0  0  0  0  0  0  0  0  0
    2.7901   20.5712    4.5378 H   0  0  0  0  0  0  0  0  0  0  0  0
    2.7686   18.7750    4.5378 H   0  0  0  0  0  0  0  0  0  0  0  0
    5.7164   19.8368    5.7731 H   0  0  0  0  0  0  0  0  0  0  0  0
    6.6229   19.0797    4.4196 H   0  0  0  0  0  0  0  0  0  0  0  0
    6.3222   20.8507    4.4196 H   0  0  0  0  0  0  0  0  0  0  0  0
    3.6162   17.7269   -1.2337 H   0  0  0  0  0  0  0  0  0  0  0  0
    4.2237   17.0326    0.9996 H   0  0  0  0  0  0  0  0  0  0  0  0
    2.6436   17.5054    1.6598 H   0  0  0  0  0  0  0  0  0  0  0  0
    3.4847   14.8280    1.1201 H   0  0  0  0  0  0  0  0  0  0  0  0
    1.8114   15.2984    1.4083 H   0  0  0  0  0  0  0  0  0  0  0  0
    4.5278   14.8305   -0.5892 H   0  0  0  0  0  0  0  0  0  0  0  0
    3.7215   14.0709   -2.0032 H   0  0  0  0  0  0  0  0  0  0  0  0
    4.0606   15.8349   -2.0032 H   0  0  0  0  0  0  0  0  0  0  0  0
    0.5106   14.3565   -0.4053 H   0  0  0  0  0  0  0  0  0  0  0  0
    2.4441   12.8018    0.2911 H   0  0  0  0  0  0  0  0  0  0  0  0
    0.8851   12.1255   -0.4177 H   0  0  0  0  0  0  0  0  0  0  0  0
    3.1237   11.0265   -1.2657 H   0  0  0  0  0  0  0  0  0  0  0  0
    2.5711   14.1538   -3.7600 H   0  0  0  0  0  0  0  0  0  0  0  0
    0.4002   12.1277   -4.5797 H   0  0  0  0  0  0  0  0  0  0  0  0
    0.6946   13.7689   -5.3082 H   0  0  0  0  0  0  0  0  0  0  0  0
    1.5852   11.9440   -6.7210 H   0  0  0  0  0  0  0  0  0  0  0  0
    2.8718   13.0564   -6.1098 H   0  0  0  0  0  0  0  0  0  0  0  0
    3.6592   10.7966   -5.9339 H   0  0  0  0  0  0  0  0  0  0  0  0
    2.3980    9.3630   -4.4590 H   0  0  0  0  0  0  0  0  0  0  0  0
    5.2618   12.7169   -3.2466 H   0  0  0  0  0  0  0  0  0  0  0  0
    5.5667   11.8199   -4.7728 H   0  0  0  0  0  0  0  0  0  0  0  0
    4.4776   13.2484   -4.7728 H   0  0  0  0  0  0  0  0  0  0  0  0
    4.1767   10.1923   -2.2082 H   0  0  0  0  0  0  0  0  0  0  0  0
    3.5986    9.2883   -3.6488 H   0  0  0  0  0  0  0  0  0  0  0  0
    5.2367   10.0255   -3.6488 H   0  0  0  0  0  0  0  0  0  0  0  0
   -0.8441   13.1776   -1.4837 H   0  0  0  0  0  0  0  0  0  0  0  0
   -1.2847   13.9603   -3.0392 H   0  0  0  0  0  0  0  0  0  0  0  0
   -0.4280   12.3815   -3.0392 H   0  0  0  0  0  0  0  0  0  0  0  0
    0.5746   15.5030   -4.1740 H   0  0  0  0  0  0  0  0  0  0  0  0
   -0.4211   15.8219   -2.6440 H   0  0  0  0  0  0  0  0  0  0  0  0
    2.4901   16.5097   -3.1317 H   0  0  0  0  0  0  0  0  0  0  0  0
    1.0890   17.6286   -2.9031 H   0  0  0  0  0  0  0  0  0  0  0  0
    0.4717   16.8862    0.6623 H   0  0  0  0  0  0  0  0  0  0  0  0
   -0.0077   17.9037   -0.7383 H   0  0  0  0  0  0  0  0  0  0  0  0
   -0.3745   16.1452   -0.7383 H   0  0  0  0  0  0  0  0  0  0  0  0
  1  2  1  0
  2  3  1  0
  3  4  1  0
  4  5  1  0
  5  6  1  0
  6  7  1  0
  7  8  1  0
  7  9  1  0
  2 10  1  0
 10 11  1  0
 11 12  1  0
 12 13  1  0
 13 14  1  6
 13 15  1  0
 15 16  1  0
 16 17  1  0
 17 18  2  0
 18 19  1  0
 19 20  1  0
 20 21  1  0
 21 22  1  0
 22 23  1  0
 22 24  1  0
 24 25  1  0
 24 26  1  0
 19 27  1  0
 27 28  1  1
 27 29  1  0
 29 30  1  0
 30 31  1  0
 31 32  1  1
  7  5  1  0
 31 10  1  0
 31 13  1  0
 27 15  1  0
 24 18  1  0
  1 33  1  0
  1 34  1  0
  1 35  1  0
  2 36  1  1
  3 37  1  0
  3 38  1  0
  4 39  1  0
  4 40  1  0
  5 41  1  6
  8 42  1  0
  8 43  1  0
  8 44  1  0
  9 45  1  0
  9 46  1  0
  9 47  1  0
 10 48  1  6
 11 49  1  0
 11 50  1  0
 12 51  1  0
 12 52  1  0
 14 53  1  0
 14 54  1  0
 14 55  1  0
 15 56  1  1
 16 57  1  0
 16 58  1  0
 17 59  1  0
 19 60  1  6
 20 61  1  0
 20 62  1  0
 21 63  1  0
 21 64  1  0
 22 65  1  6
 23 66  1  0
 25 67  1  0
 25 68  1  0
 25 69  1  0
 26 70  1  0
 26 71  1  0
 26 72  1  0
 28 73  1  0
 28 74  1  0
 28 75  1  0
 29 76  1  0
 29 77  1  0
 30 78  1  0
 30 79  1  0
 32 80  1  0
 32 81  1  0
 32 82  1  0
M  END
>  <meeko>  (13) 
{"is_sidechain": [false], "intermolecular_energy": 2.731, "internal_energy": -0.839}

$$$$
EPH_relaxed_0001_pdb2pqr_Repair_285_r2_0001_out
     RDKit          3D

 82 86  0  0  0  0  0  0  0  0999 V2000
   -2.4400    7.7340   -0.0540 C   0  0  0  0  0  0  0  0  0  0  0  0
   -3.0880    9.1220   -0.0660 C   0  0  2  0  0  0  0  0  0  0  0  0
   -4.5740    9.0660   -0.4720 C   0  0  0  0  0  0  0  0  0  0  0  0
   -5.1440    7.6460   -0.5250 C   0  0  0  0  0  0  0  0  0  0  0  0
   -5.8500    7.3800   -1.8200 C   0  0  2  0  0  0  0  0  0  0  0  0
   -6.7630    8.4080   -2.2270 O   0  0  0  0  0  0  0  0  0  0  0  0
   -7.3430    7.1280   -1.9240 C   0  0  0  0  0  0  0  0  0  0  0  0
   -8.2200    7.1300   -0.7110 C   0  0  0  0  0  0  0  0  0  0  0  0
   -7.8650    6.4030   -3.1250 C   0  0  0  0  0  0  0  0  0  0  0  0
   -2.3240   10.0430   -1.0110 C   0  0  1  0  0  0  0  0  0  0  0  0
   -2.9770   11.4460   -1.1340 C   0  0  0  0  0  0  0  0  0  0  0  0
   -1.8200   12.4640   -1.3000 C   0  0  0  0  0  0  0  0  0  0  0  0
   -0.5760   11.5960   -1.5980 C   0  0  1  0  0  0  0  0  0  0  0  0
   -0.6720   11.2670   -3.1210 C   0  0  0  0  0  0  0  0  0  0  0  0
    0.8090   12.2230   -1.2300 C   0  0  2  0  0  0  0  0  0  0  0  0
    1.1660   13.5100   -1.9930 C   0  0  0  0  0  0  0  0  0  0  0  0
    1.9130   13.3080   -3.2690 C   0  0  0  0  0  0  0  0  0  0  0  0
    2.5310   12.1720   -3.6430 C   0  0  0  0  0  0  0  0  0  0  0  0
    2.5980   10.9650   -2.6990 C   0  0  1  0  0  0  0  0  0  0  0  0
    4.0440   10.4040   -2.6770 C   0  0  0  0  0  0  0  0  0  0  0  0
    4.5670   10.0820   -4.0740 C   0  0  0  0  0  0  0  0  0  0  0  0
    4.5390   11.3210   -4.9650 C   0  0  2  0  0  0  0  0  0  0  0  0
    5.4840   12.2710   -4.4640 O   0  0  0  0  0  0  0  0  0  0  0  0
    3.1340   11.9790   -5.0560 C   0  0  0  0  0  0  0  0  0  0  0  0
    2.1840   11.0670   -5.8700 C   0  0  0  0  0  0  0  0  0  0  0  0
    3.2750   13.2940   -5.8680 C   0  0  0  0  0  0  0  0  0  0  0  0
    2.0100   11.1920   -1.2400 C   0  0  1  0  0  0  0  0  0  0  0  0
    3.1110   11.7840   -0.3080 C   0  0  0  0  0  0  0  0  0  0  0  0
    1.6090    9.8000   -0.6240 C   0  0  0  0  0  0  0  0  0  0  0  0
    0.1860    9.2900   -0.9260 C   0  0  0  0  0  0  0  0  0  0  0  0
   -0.8560   10.3770   -0.6460 C   0  0  2  0  0  0  0  0  0  0  0  0
   -0.7980   10.7130    0.8830 C   0  0  0  0  0  0  0  0  0  0  0  0
   -2.2883    7.4091    0.9859 H   0  0  0  0  0  0  0  0  0  0  0  0
   -3.0970    7.0181   -0.5697 H   0  0  0  0  0  0  0  0  0  0  0  0
   -1.4694    7.7780   -0.5697 H   0  0  0  0  0  0  0  0  0  0  0  0
   -3.0412    9.5183    0.9591 H   0  0  0  0  0  0  0  0  0  0  0  0
   -5.1559    9.6468    0.2588 H   0  0  0  0  0  0  0  0  0  0  0  0
   -4.6454    9.4794   -1.4888 H   0  0  0  0  0  0  0  0  0  0  0  0
   -4.3194    6.9265   -0.4142 H   0  0  0  0  0  0  0  0  0  0  0  0
   -5.8733    7.5386    0.2915 H   0  0  0  0  0  0  0  0  0  0  0  0
   -4.9803    6.8289   -2.2072 H   0  0  0  0  0  0  0  0  0  0  0  0
   -7.5944    7.1286    0.1938 H   0  0  0  0  0  0  0  0  0  0  0  0
   -8.8530    8.0296   -0.7177 H   0  0  0  0  0  0  0  0  0  0  0  0
   -8.8571    6.2333   -0.7177 H   0  0  0  0  0  0  0  0  0  0  0  0
   -8.4791    5.5501   -2.8002 H   0  0  0  0  0  0  0  0  0  0  0  0
   -8.4786    7.0878   -3.7287 H   0  0  0  0  0  0  0  0  0  0  0  0
   -7.0209    6.0383   -3.7287 H   0  0  0  0  0  0  0  0  0  0  0  0
   -2.3546    9.4348   -1.9270 H   0  0  0  0  0  0  0  0  0  0  0  0
   -3.6401   11.4797   -2.0110 H   0  0  0  0  0  0  0  0  0  0  0  0
   -3.5839   11.6787   -0.2465 H   0  0  0  0  0  0  0  0  0  0  0  0
   -2.0236   13.1504   -2.1351 H   0  0  0  0  0  0  0  0  0  0  0  0
   -1.6859   13.0921   -0.4070 H   0  0  0  0  0  0  0  0  0  0  0  0
   -0.9780   10.2184   -3.2510 H   0  0  0  0  0  0  0  0  0  0  0  0
   -1.4150   11.9269   -3.5926 H   0  0  0  0  0  0  0  0  0  0  0  0
    0.3093   11.4238   -3.5926 H   0  0  0  0  0  0  0  0  0  0  0  0
    0.6595   12.5286   -0.1839 H   0  0  0  0  0  0  0  0  0  0  0  0
    0.2294   14.0372   -2.2272 H   0  0  0  0  0  0  0  0  0  0  0  0
    1.8383   14.0783   -1.3334 H   0  0  0  0  0  0  0  0  0  0  0  0
    1.9629   14.1599   -3.9631 H   0  0  0  0  0  0  0  0  0  0  0  0
    1.9123   10.2137   -3.1178 H   0  0  0  0  0  0  0  0  0  0  0  0
    4.7057   11.1523   -2.2163 H   0  0  0  0  0  0  0  0  0  0  0  0
    4.0304    9.4670   -2.1009 H   0  0  0  0  0  0  0  0  0  0  0  0
    5.6020    9.7178   -3.9960 H   0  0  0  0  0  0  0  0  0  0  0  0
    3.9216    9.3122   -4.5221 H   0  0  0  0  0  0  0  0  0  0  0  0
    4.8011   11.0000   -5.9840 H   0  0  0  0  0  0  0  0  0  0  0  0
    5.3870   12.3010   -3.4970 H   0  0  0  0  0  0  0  0  0  0  0  0
    1.5656   10.4734   -5.1806 H   0  0  0  0  0  0  0  0  0  0  0  0
    1.5337   11.6877   -6.5039 H   0  0  0  0  0  0  0  0  0  0  0  0
    2.7777   10.3919   -6.5039 H   0  0  0  0  0  0  0  0  0  0  0  0
    3.3662   14.1442   -5.1760 H   0  0  0  0  0  0  0  0  0  0  0  0
    4.1724   13.2392   -6.5018 H   0  0  0  0  0  0  0  0  0  0  0  0
    2.3864   13.4307   -6.5018 H   0  0  0  0  0  0  0  0  0  0  0  0
    2.8239   11.6296    0.7426 H   0  0  0  0  0  0  0  0  0  0  0  0
    4.0682   11.2790   -0.5046 H   0  0  0  0  0  0  0  0  0  0  0  0
    3.2176   12.8610   -0.5046 H   0  0  0  0  0  0  0  0  0  0  0  0
    2.3187    9.0508   -1.0047 H   0  0  0  0  0  0  0  0  0  0  0  0
    1.6360    9.9490    0.4655 H   0  0  0  0  0  0  0  0  0  0  0  0
    0.1255    8.9975   -1.9847 H   0  0  0  0  0  0  0  0  0  0  0  0
   -0.0231    8.4275   -0.2761 H   0  0  0  0  0  0  0  0  0  0  0  0
   -0.9566    9.7942    1.4666 H   0  0  0  0  0  0  0  0  0  0  0  0
    0.1867   11.1376    1.1280 H   0  0  0  0  0  0  0  0  0  0  0  0
   -1.5834   11.4432    1.1280 H   0  0  0  0  0  0  0  0  0  0  0  0
  1  2  1  0
  2  3  1  0
  3  4  1  0
  4  5  1  0
  5  6  1  0
  6  7  1  0
  7  8  1  0
  7  9  1  0
  2 10  1  0
 10 11  1  0
 11 12  1  0
 12 13  1  0
 13 14  1  6
 13 15  1  0
 15 16  1  0
 16 17  1  0
 17 18  2  0
 18 19  1  0
 19 20  1  0
 20 21  1  0
 21 22  1  0
 22 23  1  0
 22 24  1  0
 24 25  1  0
 24 26  1  0
 19 27  1  0
 27 28  1  1
 27 29  1  0
 29 30  1  0
 30 31  1  0
 31 32  1  1
  7  5  1  0
 31 10  1  0
 31 13  1  0
 27 15  1  0
 24 18  1  0
  1 33  1  0
  1 34  1  0
  1 35  1  0
  2 36  1  1
  3 37  1  0
  3 38  1  0
  4 39  1  0
  4 40  1  0
  5 41  1  6
  8 42  1  0
  8 43  1  0
  8 44  1  0
  9 45  1  0
  9 46  1  0
  9 47  1  0
 10 48  1  6
 11 49  1  0
 11 50  1  0
 12 51  1  0
 12 52  1  0
 14 53  1  0
 14 54  1  0
 14 55  1  0
 15 56  1  1
 16 57  1  0
 16 58  1  0
 17 59  1  0
 19 60  1  6
 20 61  1  0
 20 62  1  0
 21 63  1  0
 21 64  1  0
 22 65  1  6
 23 66  1  0
 25 67  1  0
 25 68  1  0
 25 69  1  0
 26 70  1  0
 26 71  1  0
 26 72  1  0
 28 73  1  0
 28 74  1  0
 28 75  1  0
 29 76  1  0
 29 77  1  0
 30 78  1  0
 30 79  1  0
 32 80  1  0
 32 81  1  0
 32 82  1  0
M  END
>  <meeko>  (14) 
{"is_sidechain": [false], "intermolecular_energy": 2.731, "internal_energy": -0.839}

$$$$
EPH_relaxed_0001_pdb2pqr_Repair_285_r2_0001_out
     RDKit          3D

 82 86  0  0  0  0  0  0  0  0999 V2000
   -1.7160   14.8280    0.4640 C   0  0  0  0  0  0  0  0  0  0  0  0
   -0.3650   15.5260    0.2870 C   0  0  2  0  0  0  0  0  0  0  0  0
   -0.3930   16.5650   -0.8510 C   0  0  0  0  0  0  0  0  0  0  0  0
   -0.0200   17.9800   -0.4020 C   0  0  0  0  0  0  0  0  0  0  0  0
    1.4230   18.0750   -0.0080 C   0  0  2  0  0  0  0  0  0  0  0  0
    2.0660   19.3010   -0.3780 O   0  0  0  0  0  0  0  0  0  0  0  0
    2.5630   18.1100   -1.0080 C   0  0  0  0  0  0  0  0  0  0  0  0
    2.3100   18.0510   -2.4820 C   0  0  0  0  0  0  0  0  0  0  0  0
    3.9310   17.7100   -0.5490 C   0  0  0  0  0  0  0  0  0  0  0  0
    0.7230   14.4920    0.0220 C   0  0  1  0  0  0  0  0  0  0  0  0
    0.8570   13.4570    1.1710 C   0  0  0  0  0  0  0  0  0  0  0  0
    1.2280   12.1040    0.5130 C   0  0  0  0  0  0  0  0  0  0  0  0
    1.6200   12.4700   -0.9380 C   0  0  1  0  0  0  0  0  0  0  0  0
    3.0950   12.9710   -0.8410 C   0  0  0  0  0  0  0  0  0  0  0  0
    1.4640   11.3360   -2.0030 C   0  0  2  0  0  0  0  0  0  0  0  0
    2.3470   10.0970   -1.7700 C   0  0  0  0  0  0  0  0  0  0  0  0
    3.6900   10.1390   -2.4220 C   0  0  0  0  0  0  0  0  0  0  0  0
    4.0610   10.9950   -3.3920 C   0  0  0  0  0  0  0  0  0  0  0  0
    3.0560   11.9810   -4.0000 C   0  0  1  0  0  0  0  0  0  0  0  0
    3.1750   11.9550   -5.5460 C   0  0  0  0  0  0  0  0  0  0  0  0
    4.6020   12.2040   -6.0280 C   0  0  0  0  0  0  0  0  0  0  0  0
    5.5620   11.1680   -5.4480 C   0  0  2  0  0  0  0  0  0  0  0  0
    5.2420    9.8860   -5.9970 O   0  0  0  0  0  0  0  0  0  0  0  0
    5.5220   11.0970   -3.8960 C   0  0  0  0  0  0  0  0  0  0  0  0
    6.1530   12.3800   -3.3000 C   0  0  0  0  0  0  0  0  0  0  0  0
    6.4290    9.9190   -3.4490 C   0  0  0  0  0  0  0  0  0  0  0  0
    1.5540   11.8360   -3.5010 C   0  0  1  0  0  0  0  0  0  0  0  0
    0.8050   10.7800   -4.3690 C   0  0  0  0  0  0  0  0  0  0  0  0
    0.8050   13.2040   -3.7210 C   0  0  0  0  0  0  0  0  0  0  0  0
    0.8970   14.2370   -2.5820 C   0  0  0  0  0  0  0  0  0  0  0  0
    0.5630   13.5960   -1.2310 C   0  0  2  0  0  0  0  0  0  0  0  0
   -0.9230   13.1020   -1.2910 C   0  0  0  0  0  0  0  0  0  0  0  0
   -1.9330   14.7159    1.5365 H   0  0  0  0  0  0  0  0  0  0  0  0
   -2.5051   15.4312   -0.0087 H   0  0  0  0  0  0  0  0  0  0  0  0
   -1.6806   13.8354   -0.0087 H   0  0  0  0  0  0  0  0  0  0  0  0
   -0.1461   16.0652    1.2204 H   0  0  0  0  0  0  0  0  0  0  0  0
    0.3185   16.2484   -1.6279 H   0  0  0  0  0  0  0  0  0  0  0  0
   -1.4278   16.6078   -1.2217 H   0  0  0  0  0  0  0  0  0  0  0  0
   -0.2100   18.6784   -1.2303 H   0  0  0  0  0  0  0  0  0  0  0  0
   -0.6323   18.2334    0.4760 H   0  0  0  0  0  0  0  0  0  0  0  0
    1.2433   17.4583    0.8849 H   0  0  0  0  0  0  0  0  0  0  0  0
    1.2534   17.8046   -2.6631 H   0  0  0  0  0  0  0  0  0  0  0  0
    2.5414   19.0272   -2.9331 H   0  0  0  0  0  0  0  0  0  0  0  0
    2.9493   17.2778   -2.9331 H   0  0  0  0  0  0  0  0  0  0  0  0
    3.9609   17.7013    0.5506 H   0  0  0  0  0  0  0  0  0  0  0  0
    4.1665   16.7054   -0.9302 H   0  0  0  0  0  0  0  0  0  0  0  0
    4.6706   18.4295   -0.9302 H   0  0  0  0  0  0  0  0  0  0  0  0
    1.5866   15.1619   -0.1021 H   0  0  0  0  0  0  0  0  0  0  0  0
    1.6474   13.7675    1.8702 H   0  0  0  0  0  0  0  0  0  0  0  0
   -0.0807   13.3753    1.7403 H   0  0  0  0  0  0  0  0  0  0  0  0
    2.0742   11.6362    1.0376 H   0  0  0  0  0  0  0  0  0  0  0  0
    0.4002   11.3806    0.5515 H   0  0  0  0  0  0  0  0  0  0  0  0
    3.3805   13.0680    0.2169 H   0  0  0  0  0  0  0  0  0  0  0  0
    3.7609   12.2486   -1.3358 H   0  0  0  0  0  0  0  0  0  0  0  0
    3.1832   13.9495   -1.3358 H   0  0  0  0  0  0  0  0  0  0  0  0
    0.4289   11.0009   -1.8408 H   0  0  0  0  0  0  0  0  0  0  0  0
    2.4987    9.9867   -0.6861 H   0  0  0  0  0  0  0  0  0  0  0  0
    1.8125    9.2519   -2.2283 H   0  0  0  0  0  0  0  0  0  0  0  0
    4.4388    9.4090   -2.0808 H   0  0  0  0  0  0  0  0  0  0  0  0
    3.3378   12.9745   -3.6210 H   0  0  0  0  0  0  0  0  0  0  0  0
    2.8475   10.9694   -5.9083 H   0  0  0  0  0  0  0  0  0  0  0  0
    2.5429   12.7630   -5.9430 H   0  0  0  0  0  0  0  0  0  0  0  0
    4.6270   12.1431   -7.1260 H   0  0  0  0  0  0  0  0  0  0  0  0
    4.9174   13.2025   -5.6911 H   0  0  0  0  0  0  0  0  0  0  0  0
    6.5827   11.4739   -5.7212 H   0  0  0  0  0  0  0  0  0  0  0  0
    5.7340    9.7920   -6.8300 H   0  0  0  0  0  0  0  0  0  0  0  0
    6.1263   12.3256   -2.2017 H   0  0  0  0  0  0  0  0  0  0  0  0
    7.1964   12.4664   -3.6375 H   0  0  0  0  0  0  0  0  0  0  0  0
    5.5845   13.2591   -3.6375 H   0  0  0  0  0  0  0  0  0  0  0  0
    6.4610    9.8774   -2.3503 H   0  0  0  0  0  0  0  0  0  0  0  0
    6.0227    8.9745   -3.8400 H   0  0  0  0  0  0  0  0  0  0  0  0
    7.4459   10.0704   -3.8400 H   0  0  0  0  0  0  0  0  0  0  0  0
    0.2947   10.0605   -3.7118 H   0  0  0  0  0  0  0  0  0  0  0  0
    0.0633   11.2867   -5.0039 H   0  0  0  0  0  0  0  0  0  0  0  0
    1.5284   10.2475   -5.0039 H   0  0  0  0  0  0  0  0  0  0  0  0
    1.2211   13.6693   -4.6267 H   0  0  0  0  0  0  0  0  0  0  0  0
   -0.2612   12.9413   -3.7860 H   0  0  0  0  0  0  0  0  0  0  0  0
    1.9192   14.6418   -2.5452 H   0  0  0  0  0  0  0  0  0  0  0  0
    0.1713   15.0401   -2.7778 H   0  0  0  0  0  0  0  0  0  0  0  0
   -1.3084   12.9739   -0.2687 H   0  0  0  0  0  0  0  0  0  0  0  0
   -1.5352   13.8450   -1.8232 H   0  0  0  0  0  0  0  0  0  0  0  0
   -0.9685   12.1404   -1.8232 H   0  0  0  0  0  0  0  0  0  0  0  0
  1  2  1  0
  2  3  1  0
  3  4  1  0
  4  5  1  0
  5  6  1  0
  6  7  1  0
  7  8  1  0
  7  9  1  0
  2 10  1  0
 10 11  1  0
 11 12  1  0
 12 13  1  0
 13 14  1  1
 13 15  1  0
 15 16  1  0
 16 17  1  0
 17 18  2  0
 18 19  1  0
 19 20  1  0
 20 21  1  0
 21 22  1  0
 22 23  1  0
 22 24  1  0
 24 25  1  0
 24 26  1  0
 19 27  1  0
 27 28  1  6
 27 29  1  0
 29 30  1  0
 30 31  1  0
 31 32  1  6
  7  5  1  0
 31 10  1  0
 31 13  1  0
 27 15  1  0
 24 18  1  0
  1 33  1  0
  1 34  1  0
  1 35  1  0
  2 36  1  1
  3 37  1  0
  3 38  1  0
  4 39  1  0
  4 40  1  0
  5 41  1  1
  8 42  1  0
  8 43  1  0
  8 44  1  0
  9 45  1  0
  9 46  1  0
  9 47  1  0
 10 48  1  6
 11 49  1  0
 11 50  1  0
 12 51  1  0
 12 52  1  0
 14 53  1  0
 14 54  1  0
 14 55  1  0
 15 56  1  6
 16 57  1  0
 16 58  1  0
 17 59  1  0
 19 60  1  1
 20 61  1  0
 20 62  1  0
 21 63  1  0
 21 64  1  0
 22 65  1  1
 23 66  1  0
 25 67  1  0
 25 68  1  0
 25 69  1  0
 26 70  1  0
 26 71  1  0
 26 72  1  0
 28 73  1  0
 28 74  1  0
 28 75  1  0
 29 76  1  0
 29 77  1  0
 30 78  1  0
 30 79  1  0
 32 80  1  0
 32 81  1  0
 32 82  1  0
M  END
>  <meeko>  (15) 
{"is_sidechain": [false], "intermolecular_energy": 2.731, "internal_energy": -0.839}

$$$$
EPH_relaxed_0001_pdb2pqr_Repair_285_r2_0001_out
     RDKit          3D

 82 86  0  0  0  0  0  0  0  0999 V2000
    2.9880   18.0590    0.1170 C   0  0  0  0  0  0  0  0  0  0  0  0
    2.8650   17.0970   -1.0690 C   0  0  2  0  0  0  0  0  0  0  0  0
    2.4930   17.8280   -2.3740 C   0  0  0  0  0  0  0  0  0  0  0  0
    1.7870   19.1680   -2.1490 C   0  0  0  0  0  0  0  0  0  0  0  0
    0.3360   18.9820   -1.8200 C   0  0  2  0  0  0  0  0  0  0  0  0
   -0.4270   20.1950   -1.7710 O   0  0  0  0  0  0  0  0  0  0  0  0
   -0.3000   19.4760   -0.5340 C   0  0  0  0  0  0  0  0  0  0  0  0
    0.5010   20.1930    0.5070 C   0  0  0  0  0  0  0  0  0  0  0  0
   -1.5730   18.8370   -0.0740 C   0  0  0  0  0  0  0  0  0  0  0  0
    1.8290   16.0220   -0.7600 C   0  0  1  0  0  0  0  0  0  0  0  0
    0.4340   16.6140   -0.4290 C   0  0  0  0  0  0  0  0  0  0  0  0
   -0.6180   15.6250   -0.9950 C   0  0  0  0  0  0  0  0  0  0  0  0
    0.1890   14.3490   -1.3320 C   0  0  1  0  0  0  0  0  0  0  0  0
    0.3450   13.6020    0.0290 C   0  0  0  0  0  0  0  0  0  0  0  0
   -0.4160   13.4200   -2.4340 C   0  0  2  0  0  0  0  0  0  0  0  0
   -1.7880   12.8120   -2.0940 C   0  0  0  0  0  0  0  0  0  0  0  0
   -1.7450   11.4900   -1.4010 C   0  0  0  0  0  0  0  0  0  0  0  0
   -0.6700   10.6850   -1.3170 C   0  0  0  0  0  0  0  0  0  0  0  0
    0.6350   11.0360   -2.0430 C   0  0  1  0  0  0  0  0  0  0  0  0
    1.1690    9.7820   -2.7840 C   0  0  0  0  0  0  0  0  0  0  0  0
    1.3220    8.5780   -1.8600 C   0  0  0  0  0  0  0  0  0  0  0  0
   -0.0090    8.2240   -1.2020 C   0  0  2  0  0  0  0  0  0  0  0  0
   -0.9130    7.7610   -2.2090 O   0  0  0  0  0  0  0  0  0  0  0  0
   -0.6480    9.4140   -0.4330 C   0  0  0  0  0  0  0  0  0  0  0  0
    0.1830    9.7200    0.8380 C   0  0  0  0  0  0  0  0  0  0  0  0
   -2.0500    8.9650    0.0620 C   0  0  0  0  0  0  0  0  0  0  0  0
    0.5850   12.3210   -2.9770 C   0  0  1  0  0  0  0  0  0  0  0  0
    0.0830   11.9260   -4.4000 C   0  0  0  0  0  0  0  0  0  0  0  0
    2.0450   12.8810   -3.1610 C   0  0  0  0  0  0  0  0  0  0  0  0
    2.5420   13.8860   -2.1050 C   0  0  0  0  0  0  0  0  0  0  0  0
    1.5130   14.9980   -1.8790 C   0  0  2  0  0  0  0  0  0  0  0  0
    1.3510   15.7810   -3.2260 C   0  0  0  0  0  0  0  0  0  0  0  0
    2.9156   17.4929    1.0574 H   0  0  0  0  0  0  0  0  0  0  0  0
    3.9592   18.5735    0.0726 H   0  0  0  0  0  0  0  0  0  0  0  0
    2.1775   18.8013    0.0726 H   0  0  0  0  0  0  0  0  0  0  0  0
    3.8500   16.6317   -1.2215 H   0  0  0  0  0  0  0  0  0  0  0  0
    3.4157   18.0129   -2.9436 H   0  0  0  0  0  0  0  0  0  0  0  0
    1.7881   17.1802   -2.9157 H   0  0  0  0  0  0  0  0  0  0  0  0
    2.2769   19.6936   -1.3161 H   0  0  0  0  0  0  0  0  0  0  0  0
    1.8557   19.7521   -3.0786 H   0  0  0  0  0  0  0  0  0  0  0  0
    0.3236   18.0026   -2.3206 H   0  0  0  0  0  0  0  0  0  0  0  0
    0.1597   19.8875    1.5071 H   0  0  0  0  0  0  0  0  0  0  0  0
    1.5651   19.9401    0.3896 H   0  0  0  0  0  0  0  0  0  0  0  0
    0.3670   21.2785    0.3896 H   0  0  0  0  0  0  0  0  0  0  0  0
   -1.6000   18.8235    1.0256 H   0  0  0  0  0  0  0  0  0  0  0  0
   -2.4302   19.4117   -0.4548 H   0  0  0  0  0  0  0  0  0  0  0  0
   -1.6243   17.8063   -0.4548 H   0  0  0  0  0  0  0  0  0  0  0  0
    2.3296   15.5190    0.0805 H   0  0  0  0  0  0  0  0  0  0  0  0
    0.3133   16.7131    0.6599 H   0  0  0  0  0  0  0  0  0  0  0  0
    0.3143   17.6138   -0.8718 H   0  0  0  0  0  0  0  0  0  0  0  0
   -1.3914   15.4083   -0.2434 H   0  0  0  0  0  0  0  0  0  0  0  0
   -1.1430   16.0308   -1.8723 H   0  0  0  0  0  0  0  0  0  0  0  0
    0.1967   14.3120    0.8560 H   0  0  0  0  0  0  0  0  0  0  0  0
   -0.4051   12.8001    0.0952 H   0  0  0  0  0  0  0  0  0  0  0  0
    1.3533   13.1673    0.0952 H   0  0  0  0  0  0  0  0  0  0  0  0
   -0.5974   14.1225   -3.2608 H   0  0  0  0  0  0  0  0  0  0  0  0
   -2.3218   13.5200   -1.4430 H   0  0  0  0  0  0  0  0  0  0  0  0
   -2.2898   12.6351   -3.0567 H   0  0  0  0  0  0  0  0  0  0  0  0
   -2.6710   11.1448   -0.9180 H   0  0  0  0  0  0  0  0  0  0  0  0
    1.3463   11.3383   -1.2602 H   0  0  0  0  0  0  0  0  0  0  0  0
    0.4658    9.5218   -3.5888 H   0  0  0  0  0  0  0  0  0  0  0  0
    2.1652   10.0274   -3.1807 H   0  0  0  0  0  0  0  0  0  0  0  0
    1.6743    7.7165   -2.4463 H   0  0  0  0  0  0  0  0  0  0  0  0
    2.0476    8.8293   -1.0724 H   0  0  0  0  0  0  0  0  0  0  0  0
    0.1902    7.4398   -0.4567 H   0  0  0  0  0  0  0  0  0  0  0  0
   -0.8950    6.7890   -2.1960 H   0  0  0  0  0  0  0  0  0  0  0  0
   -0.4188    9.4984    1.7317 H   0  0  0  0  0  0  0  0  0  0  0  0
    1.0893    9.0966    0.8424 H   0  0  0  0  0  0  0  0  0  0  0  0
    0.4686   10.7823    0.8424 H   0  0  0  0  0  0  0  0  0  0  0  0
   -2.0662    8.9598    1.1619 H   0  0  0  0  0  0  0  0  0  0  0  0
   -2.8123    9.6639   -0.3126 H   0  0  0  0  0  0  0  0  0  0  0  0
   -2.2644    7.9532   -0.3126 H   0  0  0  0  0  0  0  0  0  0  0  0
   -0.7786   11.2481   -4.3098 H   0  0  0  0  0  0  0  0  0  0  0  0
   -0.2186   12.8315   -4.9469 H   0  0  0  0  0  0  0  0  0  0  0  0
    0.8922   11.4198   -4.9469 H   0  0  0  0  0  0  0  0  0  0  0  0
    2.7337   12.0233   -3.1540 H   0  0  0  0  0  0  0  0  0  0  0  0
    2.0200   13.4447   -4.1052 H   0  0  0  0  0  0  0  0  0  0  0  0
    2.7132   13.3560   -1.1564 H   0  0  0  0  0  0  0  0  0  0  0  0
    3.4762   14.3408   -2.4661 H   0  0  0  0  0  0  0  0  0  0  0  0
    1.1324   16.8376   -3.0119 H   0  0  0  0  0  0  0  0  0  0  0  0
    2.2829   15.7096   -3.8060 H   0  0  0  0  0  0  0  0  0  0  0  0
    0.5239   15.3457   -3.8060 H   0  0  0  0  0  0  0  0  0  0  0  0
  1  2  1  0
  2  3  1  0
  3  4  1  0
  4  5  1  0
  5  6  1  0
  6  7  1  0
  7  8  1  0
  7  9  1  0
  2 10  1  0
 10 11  1  0
 11 12  1  0
 12 13  1  0
 13 14  1  1
 13 15  1  0
 15 16  1  0
 16 17  1  0
 17 18  2  0
 18 19  1  0
 19 20  1  0
 20 21  1  0
 21 22  1  0
 22 23  1  0
 22 24  1  0
 24 25  1  0
 24 26  1  0
 19 27  1  0
 27 28  1  6
 27 29  1  0
 29 30  1  0
 30 31  1  0
 31 32  1  6
  7  5  1  0
 31 10  1  0
 31 13  1  0
 27 15  1  0
 24 18  1  0
  1 33  1  0
  1 34  1  0
  1 35  1  0
  2 36  1  6
  3 37  1  0
  3 38  1  0
  4 39  1  0
  4 40  1  0
  5 41  1  6
  8 42  1  0
  8 43  1  0
  8 44  1  0
  9 45  1  0
  9 46  1  0
  9 47  1  0
 10 48  1  1
 11 49  1  0
 11 50  1  0
 12 51  1  0
 12 52  1  0
 14 53  1  0
 14 54  1  0
 14 55  1  0
 15 56  1  6
 16 57  1  0
 16 58  1  0
 17 59  1  0
 19 60  1  1
 20 61  1  0
 20 62  1  0
 21 63  1  0
 21 64  1  0
 22 65  1  1
 23 66  1  0
 25 67  1  0
 25 68  1  0
 25 69  1  0
 26 70  1  0
 26 71  1  0
 26 72  1  0
 28 73  1  0
 28 74  1  0
 28 75  1  0
 29 76  1  0
 29 77  1  0
 30 78  1  0
 30 79  1  0
 32 80  1  0
 32 81  1  0
 32 82  1  0
M  END
>  <meeko>  (16) 
{"is_sidechain": [false], "intermolecular_energy": 2.731, "internal_energy": -0.839}

$$$$
EPH_relaxed_0001_pdb2pqr_Repair_285_r2_0001_out
     RDKit          3D

 82 86  0  0  0  0  0  0  0  0999 V2000
    0.1570    9.4150   -2.4690 C   0  0  0  0  0  0  0  0  0  0  0  0
    1.2570   10.4050   -2.8630 C   0  0  2  0  0  0  0  0  0  0  0  0
    2.6490    9.7430   -2.8950 C   0  0  0  0  0  0  0  0  0  0  0  0
    3.6130   10.3860   -3.8960 C   0  0  0  0  0  0  0  0  0  0  0  0
    4.9890   10.5390   -3.3210 C   0  0  2  0  0  0  0  0  0  0  0  0
    5.5720   11.8360   -3.5030 O   0  0  0  0  0  0  0  0  0  0  0  0
    6.2310   10.7460   -4.1670 C   0  0  0  0  0  0  0  0  0  0  0  0
    6.1560   10.8090   -5.6610 C   0  0  0  0  0  0  0  0  0  0  0  0
    7.5630   10.3970   -3.5800 C   0  0  0  0  0  0  0  0  0  0  0  0
    1.2630   11.5850   -1.8990 C   0  0  1  0  0  0  0  0  0  0  0  0
    2.3500   11.4520   -0.7990 C   0  0  0  0  0  0  0  0  0  0  0  0
    2.8650   12.8840   -0.5040 C   0  0  0  0  0  0  0  0  0  0  0  0
    1.8400   13.8170   -1.1910 C   0  0  1  0  0  0  0  0  0  0  0  0
    0.6450   13.9050   -0.1910 C   0  0  0  0  0  0  0  0  0  0  0  0
    2.3600   15.2350   -1.5970 C   0  0  2  0  0  0  0  0  0  0  0  0
    2.8170   16.1220   -0.4260 C   0  0  0  0  0  0  0  0  0  0  0  0
    1.7560   16.9890    0.1690 C   0  0  0  0  0  0  0  0  0  0  0  0
    0.5660   17.2670   -0.3950 C   0  0  0  0  0  0  0  0  0  0  0  0
    0.2260   16.7660   -1.8050 C   0  0  1  0  0  0  0  0  0  0  0  0
   -0.3900   17.9250   -2.6310 C   0  0  0  0  0  0  0  0  0  0  0  0
   -1.5870   18.5680   -1.9360 C   0  0  0  0  0  0  0  0  0  0  0  0
   -1.1950   19.1050   -0.5620 C   0  0  2  0  0  0  0  0  0  0  0  0
   -0.2830   20.1950   -0.7360 O   0  0  0  0  0  0  0  0  0  0  0  0
   -0.5530   18.0290    0.3570 C   0  0  0  0  0  0  0  0  0  0  0  0
   -1.6310   17.0050    0.7900 C   0  0  0  0  0  0  0  0  0  0  0  0
   -0.0760   18.7330    1.6560 C   0  0  0  0  0  0  0  0  0  0  0  0
    1.3980   16.0210   -2.5770 C   0  0  1  0  0  0  0  0  0  0  0  0
    2.2840   17.0600   -3.3300 C   0  0  0  0  0  0  0  0  0  0  0  0
    0.7740   15.0870   -3.6810 C   0  0  0  0  0  0  0  0  0  0  0  0
    0.3920   13.6590   -3.2470 C   0  0  0  0  0  0  0  0  0  0  0  0
    1.5440   12.9880   -2.4940 C   0  0  2  0  0  0  0  0  0  0  0  0
    2.7540   12.8650   -3.4810 C   0  0  0  0  0  0  0  0  0  0  0  0
    0.0920    9.3565   -1.3725 H   0  0  0  0  0  0  0  0  0  0  0  0
   -0.8064    9.7563   -2.8758 H   0  0  0  0  0  0  0  0  0  0  0  0
    0.3953    8.4211   -2.8758 H   0  0  0  0  0  0  0  0  0  0  0  0
    1.0361   10.7581   -3.8811 H   0  0  0  0  0  0  0  0  0  0  0  0
    3.0915    9.8160   -1.8906 H   0  0  0  0  0  0  0  0  0  0  0  0
    2.5022    8.7005   -3.2139 H   0  0  0  0  0  0  0  0  0  0  0  0
    3.6701    9.7523   -4.7933 H   0  0  0  0  0  0  0  0  0  0  0  0
    3.2318   11.3876   -4.1442 H   0  0  0  0  0  0  0  0  0  0  0  0
    4.7565    9.8291   -2.5135 H   0  0  0  0  0  0  0  0  0  0  0  0
    5.3452   11.4900   -5.9590 H   0  0  0  0  0  0  0  0  0  0  0  0
    7.1115   11.1793   -6.0608 H   0  0  0  0  0  0  0  0  0  0  0  0
    5.9562    9.8039   -6.0608 H   0  0  0  0  0  0  0  0  0  0  0  0
    7.4959   10.4146   -2.4822 H   0  0  0  0  0  0  0  0  0  0  0  0
    7.8584    9.3912   -3.9132 H   0  0  0  0  0  0  0  0  0  0  0  0
    8.3136   11.1288   -3.9132 H   0  0  0  0  0  0  0  0  0  0  0  0
    0.2263   11.5315   -1.5353 H   0  0  0  0  0  0  0  0  0  0  0  0
    1.9166   11.0104    0.1105 H   0  0  0  0  0  0  0  0  0  0  0  0
    3.1698   10.7979   -1.1308 H   0  0  0  0  0  0  0  0  0  0  0  0
    2.8944   13.0705    0.5797 H   0  0  0  0  0  0  0  0  0  0  0  0
    3.8882   13.0438   -0.8747 H   0  0  0  0  0  0  0  0  0  0  0  0
    1.0270   13.8769    0.8402 H   0  0  0  0  0  0  0  0  0  0  0  0
    0.0989   14.8458   -0.3542 H   0  0  0  0  0  0  0  0  0  0  0  0
   -0.0331   13.0544   -0.3542 H   0  0  0  0  0  0  0  0  0  0  0  0
    3.2715   14.9989   -2.1657 H   0  0  0  0  0  0  0  0  0  0  0  0
    3.2038   15.4653    0.3672 H   0  0  0  0  0  0  0  0  0  0  0  0
    3.5730   16.8060   -0.8390 H   0  0  0  0  0  0  0  0  0  0  0  0
    1.9649   17.4382    1.1511 H   0  0  0  0  0  0  0  0  0  0  0  0
   -0.5173   15.9659   -1.6732 H   0  0  0  0  0  0  0  0  0  0  0  0
    0.3807   18.6938   -2.7889 H   0  0  0  0  0  0  0  0  0  0  0  0
   -0.7438   17.5043   -3.5838 H   0  0  0  0  0  0  0  0  0  0  0  0
   -1.9593   19.3981   -2.5543 H   0  0  0  0  0  0  0  0  0  0  0  0
   -2.3690   17.8055   -1.8054 H   0  0  0  0  0  0  0  0  0  0  0  0
   -2.1176   19.4341   -0.0616 H   0  0  0  0  0  0  0  0  0  0  0  0
    0.3360   19.9490   -1.4440 H   0  0  0  0  0  0  0  0  0  0  0  0
   -1.6760   16.9623    1.8882 H   0  0  0  0  0  0  0  0  0  0  0  0
   -2.6099   17.3139    0.3947 H   0  0  0  0  0  0  0  0  0  0  0  0
   -1.3728   16.0115    0.3947 H   0  0  0  0  0  0  0  0  0  0  0  0
   -0.4501   18.1809    2.5308 H   0  0  0  0  0  0  0  0  0  0  0  0
    1.0236   18.7546    1.6788 H   0  0  0  0  0  0  0  0  0  0  0  0
   -0.4635   19.7622    1.6788 H   0  0  0  0  0  0  0  0  0  0  0  0
    2.8173   17.6854   -2.5989 H   0  0  0  0  0  0  0  0  0  0  0  0
    3.0133   16.5310   -3.9611 H   0  0  0  0  0  0  0  0  0  0  0  0
    1.6465   17.6965   -3.9611 H   0  0  0  0  0  0  0  0  0  0  0  0
   -0.1375   15.5764   -4.0548 H   0  0  0  0  0  0  0  0  0  0  0  0
    1.5680   14.9575   -4.4312 H   0  0  0  0  0  0  0  0  0  0  0  0
   -0.4885   13.7063   -2.5894 H   0  0  0  0  0  0  0  0  0  0  0  0
    0.1694   13.0669   -4.1469 H   0  0  0  0  0  0  0  0  0  0  0  0
    3.6874   12.7701   -2.9068 H   0  0  0  0  0  0  0  0  0  0  0  0
    2.6213   11.9757   -4.1147 H   0  0  0  0  0  0  0  0  0  0  0  0
    2.8030   13.7628   -4.1147 H   0  0  0  0  0  0  0  0  0  0  0  0
  1  2  1  0
  2  3  1  0
  3  4  1  0
  4  5  1  0
  5  6  1  0
  6  7  1  0
  7  8  1  0
  7  9  1  0
  2 10  1  0
 10 11  1  0
 11 12  1  0
 12 13  1  0
 13 14  1  1
 13 15  1  0
 15 16  1  0
 16 17  1  0
 17 18  2  0
 18 19  1  0
 19 20  1  0
 20 21  1  0
 21 22  1  0
 22 23  1  0
 22 24  1  0
 24 25  1  0
 24 26  1  0
 19 27  1  0
 27 28  1  6
 27 29  1  0
 29 30  1  0
 30 31  1  0
 31 32  1  6
  7  5  1  0
 31 10  1  0
 31 13  1  0
 27 15  1  0
 24 18  1  0
  1 33  1  0
  1 34  1  0
  1 35  1  0
  2 36  1  6
  3 37  1  0
  3 38  1  0
  4 39  1  0
  4 40  1  0
  5 41  1  1
  8 42  1  0
  8 43  1  0
  8 44  1  0
  9 45  1  0
  9 46  1  0
  9 47  1  0
 10 48  1  1
 11 49  1  0
 11 50  1  0
 12 51  1  0
 12 52  1  0
 14 53  1  0
 14 54  1  0
 14 55  1  0
 15 56  1  6
 16 57  1  0
 16 58  1  0
 17 59  1  0
 19 60  1  1
 20 61  1  0
 20 62  1  0
 21 63  1  0
 21 64  1  0
 22 65  1  1
 23 66  1  0
 25 67  1  0
 25 68  1  0
 25 69  1  0
 26 70  1  0
 26 71  1  0
 26 72  1  0
 28 73  1  0
 28 74  1  0
 28 75  1  0
 29 76  1  0
 29 77  1  0
 30 78  1  0
 30 79  1  0
 32 80  1  0
 32 81  1  0
 32 82  1  0
M  END
>  <meeko>  (17) 
{"is_sidechain": [false], "intermolecular_energy": 2.731, "internal_energy": -0.839}

$$$$
EPH_relaxed_0001_pdb2pqr_Repair_285_r2_0001_out
     RDKit          3D

 82 86  0  0  0  0  0  0  0  0999 V2000
    2.2410   17.9750   -2.5450 C   0  0  0  0  0  0  0  0  0  0  0  0
    0.7180   17.8370   -2.6360 C   0  0  2  0  0  0  0  0  0  0  0  0
    0.0140   18.3180   -1.3510 C   0  0  0  0  0  0  0  0  0  0  0  0
    0.7370   17.9130   -0.0640 C   0  0  0  0  0  0  0  0  0  0  0  0
    1.2770   19.1040    0.6670 C   0  0  2  0  0  0  0  0  0  0  0  0
    2.1650   19.9270   -0.1020 O   0  0  0  0  0  0  0  0  0  0  0  0
    2.7400   19.2660    1.0370 C   0  0  0  0  0  0  0  0  0  0  0  0
    3.7540   18.2220    0.6870 C   0  0  0  0  0  0  0  0  0  0  0  0
    3.0970   20.1950    2.1560 C   0  0  0  0  0  0  0  0  0  0  0  0
    0.3440   16.3880   -2.9240 C   0  0  1  0  0  0  0  0  0  0  0  0
    0.4110   16.0420   -4.4350 C   0  0  0  0  0  0  0  0  0  0  0  0
    0.8940   14.5730   -4.5370 C   0  0  0  0  0  0  0  0  0  0  0  0
    0.7700   14.0210   -3.0980 C   0  0  1  0  0  0  0  0  0  0  0  0
   -0.7370   13.6470   -2.9400 C   0  0  0  0  0  0  0  0  0  0  0  0
    1.7040   12.8200   -2.7350 C   0  0  2  0  0  0  0  0  0  0  0  0
    1.4690   11.5400   -3.5560 C   0  0  0  0  0  0  0  0  0  0  0  0
    0.4810   10.5830   -2.9750 C   0  0  0  0  0  0  0  0  0  0  0  0
    0.0230   10.6040   -1.7100 C   0  0  0  0  0  0  0  0  0  0  0  0
    0.5760   11.6050   -0.6880 C   0  0  1  0  0  0  0  0  0  0  0  0
    0.8890   10.8690    0.6410 C   0  0  0  0  0  0  0  0  0  0  0  0
   -0.3090   10.0910    1.1760 C   0  0  0  0  0  0  0  0  0  0  0  0
   -0.7940    9.0660    0.1540 C   0  0  2  0  0  0  0  0  0  0  0  0
    0.2130    8.0620   -0.0040 O   0  0  0  0  0  0  0  0  0  0  0  0
   -1.1310    9.6900   -1.2280 C   0  0  0  0  0  0  0  0  0  0  0  0
   -2.4150   10.5490   -1.1120 C   0  0  0  0  0  0  0  0  0  0  0  0
   -1.4710    8.5320   -2.2050 C   0  0  0  0  0  0  0  0  0  0  0  0
    1.7860   12.5070   -1.1860 C   0  0  1  0  0  0  0  0  0  0  0  0
    3.1360   11.7630   -0.9530 C   0  0  0  0  0  0  0  0  0  0  0  0
    1.8440   13.8160   -0.3130 C   0  0  0  0  0  0  0  0  0  0  0  0
    0.9920   15.0080   -0.7900 C   0  0  0  0  0  0  0  0  0  0  0  0
    1.2200   15.2850   -2.2790 C   0  0  2  0  0  0  0  0  0  0  0  0
    2.7240   15.6860   -2.4650 C   0  0  0  0  0  0  0  0  0  0  0  0
    2.5442   18.0025   -1.4880 H   0  0  0  0  0  0  0  0  0  0  0  0
    2.7173   17.1163   -3.0408 H   0  0  0  0  0  0  0  0  0  0  0  0
    2.5552   18.9053   -3.0408 H   0  0  0  0  0  0  0  0  0  0  0  0
    0.3757   18.4799   -3.4603 H   0  0  0  0  0  0  0  0  0  0  0  0
   -0.0520   19.4156   -1.3814 H   0  0  0  0  0  0  0  0  0  0  0  0
   -0.9755   17.8381   -1.3281 H   0  0  0  0  0  0  0  0  0  0  0  0
    0.0293   17.3836    0.5909 H   0  0  0  0  0  0  0  0  0  0  0  0
    1.5833   17.2650   -0.3357 H   0  0  0  0  0  0  0  0  0  0  0  0
    0.3526   19.1905    1.2570 H   0  0  0  0  0  0  0  0  0  0  0  0
    4.1713   17.7923    1.6096 H   0  0  0  0  0  0  0  0  0  0  0  0
    3.2736   17.4275    0.0971 H   0  0  0  0  0  0  0  0  0  0  0  0
    4.5622   18.6790    0.0971 H   0  0  0  0  0  0  0  0  0  0  0  0
    2.9064   19.6991    3.1192 H   0  0  0  0  0  0  0  0  0  0  0  0
    4.1618   20.4620    2.0854 H   0  0  0  0  0  0  0  0  0  0  0  0
    2.4850   21.1063    2.0854 H   0  0  0  0  0  0  0  0  0  0  0  0
   -0.6658   16.3693   -2.4882 H   0  0  0  0  0  0  0  0  0  0  0  0
   -0.5843   16.1460   -4.8918 H   0  0  0  0  0  0  0  0  0  0  0  0
    1.0957   16.7203   -4.9652 H   0  0  0  0  0  0  0  0  0  0  0  0
    0.2569   14.0018   -5.2283 H   0  0  0  0  0  0  0  0  0  0  0  0
    1.9202   14.4973   -4.9259 H   0  0  0  0  0  0  0  0  0  0  0  0
   -0.9891   13.5844   -1.8711 H   0  0  0  0  0  0  0  0  0  0  0  0
   -1.3583   14.4182   -3.4188 H   0  0  0  0  0  0  0  0  0  0  0  0
   -0.9257   12.6748   -3.4188 H   0  0  0  0  0  0  0  0  0  0  0  0
    2.6942   13.1914   -3.0375 H   0  0  0  0  0  0  0  0  0  0  0  0
    1.1098   11.8364   -4.5526 H   0  0  0  0  0  0  0  0  0  0  0  0
    2.4323   11.0092   -3.5752 H   0  0  0  0  0  0  0  0  0  0  0  0
    0.0949    9.7941   -3.6372 H   0  0  0  0  0  0  0  0  0  0  0  0
   -0.2212   12.3453   -0.5254 H   0  0  0  0  0  0  0  0  0  0  0  0
    1.7171   10.1659    0.4679 H   0  0  0  0  0  0  0  0  0  0  0  0
    1.1535   11.6304    1.3896 H   0  0  0  0  0  0  0  0  0  0  0  0
   -0.0162    9.5686    2.0987 H   0  0  0  0  0  0  0  0  0  0  0  0
   -1.1260   10.7993    1.3779 H   0  0  0  0  0  0  0  0  0  0  0  0
   -1.7297    8.6340    0.5385 H   0  0  0  0  0  0  0  0  0  0  0  0
   -0.1660    7.3470   -0.5430 H   0  0  0  0  0  0  0  0  0  0  0  0
   -2.6544   10.7091   -0.0504 H   0  0  0  0  0  0  0  0  0  0  0  0
   -2.2518   11.5204   -1.6016 H   0  0  0  0  0  0  0  0  0  0  0  0
   -3.2506   10.0274   -1.6016 H   0  0  0  0  0  0  0  0  0  0  0  0
   -1.7351    7.6324   -1.6296 H   0  0  0  0  0  0  0  0  0  0  0  0
   -2.3211    8.8246   -2.8387 H   0  0  0  0  0  0  0  0  0  0  0  0
   -0.5976    8.3186   -2.8387 H   0  0  0  0  0  0  0  0  0  0  0  0
    3.3178   11.6628    0.1272 H   0  0  0  0  0  0  0  0  0  0  0  0
    3.0879   10.7640   -1.4109 H   0  0  0  0  0  0  0  0  0  0  0  0
    3.9549   12.3372   -1.4109 H   0  0  0  0  0  0  0  0  0  0  0  0
    1.5108   13.5540    0.7021 H   0  0  0  0  0  0  0  0  0  0  0  0
    2.8861   14.1615   -0.3816 H   0  0  0  0  0  0  0  0  0  0  0  0
   -0.0712   14.7788   -0.6255 H   0  0  0  0  0  0  0  0  0  0  0  0
    1.2869   15.9004   -0.2185 H   0  0  0  0  0  0  0  0  0  0  0  0
    3.1947   15.8115   -1.4787 H   0  0  0  0  0  0  0  0  0  0  0  0
    3.2477   14.8961   -3.0234 H   0  0  0  0  0  0  0  0  0  0  0  0
    2.7850   16.6318   -3.0234 H   0  0  0  0  0  0  0  0  0  0  0  0
  1  2  1  0
  2  3  1  0
  3  4  1  0
  4  5  1  0
  5  6  1  0
  6  7  1  0
  7  8  1  0
  7  9  1  0
  2 10  1  0
 10 11  1  0
 11 12  1  0
 12 13  1  0
 13 14  1  1
 13 15  1  0
 15 16  1  0
 16 17  1  0
 17 18  2  0
 18 19  1  0
 19 20  1  0
 20 21  1  0
 21 22  1  0
 22 23  1  0
 22 24  1  0
 24 25  1  0
 24 26  1  0
 19 27  1  0
 27 28  1  6
 27 29  1  0
 29 30  1  0
 30 31  1  0
 31 32  1  1
  7  5  1  0
 31 10  1  0
 31 13  1  0
 27 15  1  0
 24 18  1  0
  1 33  1  0
  1 34  1  0
  1 35  1  0
  2 36  1  6
  3 37  1  0
  3 38  1  0
  4 39  1  0
  4 40  1  0
  5 41  1  1
  8 42  1  0
  8 43  1  0
  8 44  1  0
  9 45  1  0
  9 46  1  0
  9 47  1  0
 10 48  1  1
 11 49  1  0
 11 50  1  0
 12 51  1  0
 12 52  1  0
 14 53  1  0
 14 54  1  0
 14 55  1  0
 15 56  1  6
 16 57  1  0
 16 58  1  0
 17 59  1  0
 19 60  1  1
 20 61  1  0
 20 62  1  0
 21 63  1  0
 21 64  1  0
 22 65  1  1
 23 66  1  0
 25 67  1  0
 25 68  1  0
 25 69  1  0
 26 70  1  0
 26 71  1  0
 26 72  1  0
 28 73  1  0
 28 74  1  0
 28 75  1  0
 29 76  1  0
 29 77  1  0
 30 78  1  0
 30 79  1  0
 32 80  1  0
 32 81  1  0
 32 82  1  0
M  END
>  <meeko>  (18) 
{"is_sidechain": [false], "intermolecular_energy": 2.731, "internal_energy": -0.839}

$$$$
