EPH_relaxed_0001_pdb2pqr_Repair_186_r2_0001_out
     RDKit          3D

 82 86  0  0  0  0  0  0  0  0999 V2000
   -5.1710    5.7920   -1.7050 C   0  0  0  0  0  0  0  0  0  0  0  0
   -5.4560    7.2960   -1.7590 C   0  0  2  0  0  0  0  0  0  0  0  0
   -5.2340    7.9780   -0.3940 C   0  0  0  0  0  0  0  0  0  0  0  0
   -4.1680    9.0760   -0.4210 C   0  0  0  0  0  0  0  0  0  0  0  0
   -2.8530    8.5610   -0.9230 C   0  0  2  0  0  0  0  0  0  0  0  0
   -1.7520    8.7600   -0.0270 O   0  0  0  0  0  0  0  0  0  0  0  0
   -1.6840    9.4590   -1.2810 C   0  0  0  0  0  0  0  0  0  0  0  0
   -1.7760   10.9470   -1.1530 C   0  0  0  0  0  0  0  0  0  0  0  0
   -0.6350    8.9320   -2.2090 C   0  0  0  0  0  0  0  0  0  0  0  0
   -6.8840    7.5370   -2.2360 C   0  0  1  0  0  0  0  0  0  0  0  0
   -7.1850    6.8480   -3.5940 C   0  0  0  0  0  0  0  0  0  0  0  0
   -8.6650    6.3890   -3.5440 C   0  0  0  0  0  0  0  0  0  0  0  0
   -9.2570    7.1130   -2.3120 C   0  0  1  0  0  0  0  0  0  0  0  0
   -9.5880    8.5530   -2.8150 C   0  0  0  0  0  0  0  0  0  0  0  0
  -10.4960    6.4360   -1.6420 C   0  0  2  0  0  0  0  0  0  0  0  0
  -11.7430    6.3250   -2.5370 C   0  0  0  0  0  0  0  0  0  0  0  0
  -12.6860    7.4800   -2.4620 C   0  0  0  0  0  0  0  0  0  0  0  0
  -12.6900    8.4260   -1.5050 C   0  0  0  0  0  0  0  0  0  0  0  0
  -11.7380    8.3370   -0.3050 C   0  0  1  0  0  0  0  0  0  0  0  0
  -12.5240    8.6210    1.0010 C   0  0  0  0  0  0  0  0  0  0  0  0
  -13.2800    9.9450    0.9540 C   0  0  0  0  0  0  0  0  0  0  0  0
  -14.2580    9.9730   -0.2180 C   0  0  2  0  0  0  0  0  0  0  0  0
  -15.2870    9.0070    0.0190 O   0  0  0  0  0  0  0  0  0  0  0  0
  -13.5810    9.6900   -1.5880 C   0  0  0  0  0  0  0  0  0  0  0  0
  -12.6870   10.8900   -1.9850 C   0  0  0  0  0  0  0  0  0  0  0  0
  -14.6970    9.6060   -2.6640 C   0  0  0  0  0  0  0  0  0  0  0  0
  -10.8590    7.0160   -0.2150 C   0  0  1  0  0  0  0  0  0  0  0  0
  -11.6520    5.9000    0.5310 C   0  0  0  0  0  0  0  0  0  0  0  0
   -9.5790    7.3090    0.6550 C   0  0  0  0  0  0  0  0  0  0  0  0
   -8.3480    7.8650   -0.0850 C   0  0  0  0  0  0  0  0  0  0  0  0
   -8.0320    7.0290   -1.3290 C   0  0  2  0  0  0  0  0  0  0  0  0
   -7.6730    5.5800   -0.8530 C   0  0  0  0  0  0  0  0  0  0  0  0
   -5.1096    5.4679   -0.6556 H   0  0  0  0  0  0  0  0  0  0  0  0
   -5.9818    5.2468   -2.2103 H   0  0  0  0  0  0  0  0  0  0  0  0
   -4.2169    5.5812   -2.2103 H   0  0  0  0  0  0  0  0  0  0  0  0
   -4.7459    7.7427   -2.4704 H   0  0  0  0  0  0  0  0  0  0  0  0
   -6.1854    8.4255   -0.0705 H   0  0  0  0  0  0  0  0  0  0  0  0
   -4.8783    7.2016    0.2993 H   0  0  0  0  0  0  0  0  0  0  0  0
   -4.5086    9.8871   -1.0814 H   0  0  0  0  0  0  0  0  0  0  0  0
   -4.0237    9.4387    0.6074 H   0  0  0  0  0  0  0  0  0  0  0  0
   -3.3531    7.7485   -1.4705 H   0  0  0  0  0  0  0  0  0  0  0  0
   -1.7931   11.2231   -0.0883 H   0  0  0  0  0  0  0  0  0  0  0  0
   -0.9048   11.4113   -1.6383 H   0  0  0  0  0  0  0  0  0  0  0  0
   -2.6977   11.3005   -1.6383 H   0  0  0  0  0  0  0  0  0  0  0  0
    0.1967    8.5142   -1.6228 H   0  0  0  0  0  0  0  0  0  0  0  0
   -1.0685    8.1447   -2.8432 H   0  0  0  0  0  0  0  0  0  0  0  0
   -0.2621    9.7498   -2.8432 H   0  0  0  0  0  0  0  0  0  0  0  0
   -6.8857    8.6366   -2.2639 H   0  0  0  0  0  0  0  0  0  0  0  0
   -7.0364    7.5585   -4.4205 H   0  0  0  0  0  0  0  0  0  0  0  0
   -6.5120    5.9942   -3.7616 H   0  0  0  0  0  0  0  0  0  0  0  0
   -9.1949    6.6864   -4.4609 H   0  0  0  0  0  0  0  0  0  0  0  0
   -8.7603    5.2956   -3.4708 H   0  0  0  0  0  0  0  0  0  0  0  0
   -9.7406    9.2170   -1.9514 H   0  0  0  0  0  0  0  0  0  0  0  0
   -8.7530    8.9296   -3.4240 H   0  0  0  0  0  0  0  0  0  0  0  0
  -10.5036    8.5272   -3.4240 H   0  0  0  0  0  0  0  0  0  0  0  0
  -10.1460    5.4046   -1.4881 H   0  0  0  0  0  0  0  0  0  0  0  0
  -11.4057    6.2286   -3.5796 H   0  0  0  0  0  0  0  0  0  0  0  0
  -12.3025    5.4508   -2.1726 H   0  0  0  0  0  0  0  0  0  0  0  0
  -13.4418    7.5649   -3.2567 H   0  0  0  0  0  0  0  0  0  0  0  0
  -10.9784    9.1174   -0.4595 H   0  0  0  0  0  0  0  0  0  0  0  0
  -13.2472    7.8078    1.1609 H   0  0  0  0  0  0  0  0  0  0  0  0
  -11.7948    8.6825    1.8223 H   0  0  0  0  0  0  0  0  0  0  0  0
  -13.8390   10.0740    1.8926 H   0  0  0  0  0  0  0  0  0  0  0  0
  -12.5530   10.7603    0.8244 H   0  0  0  0  0  0  0  0  0  0  0  0
  -14.6730   10.9900   -0.2781 H   0  0  0  0  0  0  0  0  0  0  0  0
  -14.8580    8.1830    0.3020 H   0  0  0  0  0  0  0  0  0  0  0  0
  -12.3164   11.3875   -1.0766 H   0  0  0  0  0  0  0  0  0  0  0  0
  -11.8345   10.5310   -2.5802 H   0  0  0  0  0  0  0  0  0  0  0  0
  -13.2749   11.6042   -2.5802 H   0  0  0  0  0  0  0  0  0  0  0  0
  -15.6773    9.5322   -2.1705 H   0  0  0  0  0  0  0  0  0  0  0  0
  -14.6696   10.5087   -3.2919 H   0  0  0  0  0  0  0  0  0  0  0  0
  -14.5348    8.7175   -3.2919 H   0  0  0  0  0  0  0  0  0  0  0  0
  -11.5511    6.0420    1.6171 H   0  0  0  0  0  0  0  0  0  0  0  0
  -12.7143    5.9555    0.2511 H   0  0  0  0  0  0  0  0  0  0  0  0
  -11.2501    4.9151    0.2511 H   0  0  0  0  0  0  0  0  0  0  0  0
   -9.8615    8.0402    1.4267 H   0  0  0  0  0  0  0  0  0  0  0  0
   -9.2636    6.3287    1.0417 H   0  0  0  0  0  0  0  0  0  0  0  0
   -8.5499    8.9023   -0.3904 H   0  0  0  0  0  0  0  0  0  0  0  0
   -7.4832    7.8247    0.5936 H   0  0  0  0  0  0  0  0  0  0  0  0
   -7.6648    5.5467    0.2465 H   0  0  0  0  0  0  0  0  0  0  0  0
   -8.4229    4.8720   -1.2356 H   0  0  0  0  0  0  0  0  0  0  0  0
   -6.6793    5.3040   -1.2356 H   0  0  0  0  0  0  0  0  0  0  0  0
  1  2  1  0
  2  3  1  0
  3  4  1  0
  4  5  1  0
  5  6  1  0
  6  7  1  0
  7  8  1  0
  7  9  1  0
  2 10  1  0
 10 11  1  0
 11 12  1  0
 12 13  1  0
 13 14  1  6
 13 15  1  0
 15 16  1  0
 16 17  1  0
 17 18  2  0
 18 19  1  0
 19 20  1  0
 20 21  1  0
 21 22  1  0
 22 23  1  0
 22 24  1  0
 24 25  1  0
 24 26  1  0
 19 27  1  0
 27 28  1  1
 27 29  1  0
 29 30  1  0
 30 31  1  0
 31 32  1  1
  7  5  1  0
 31 10  1  0
 31 13  1  0
 27 15  1  0
 24 18  1  0
  1 33  1  0
  1 34  1  0
  1 35  1  0
  2 36  1  6
  3 37  1  0
  3 38  1  0
  4 39  1  0
  4 40  1  0
  5 41  1  6
  8 42  1  0
  8 43  1  0
  8 44  1  0
  9 45  1  0
  9 46  1  0
  9 47  1  0
 10 48  1  6
 11 49  1  0
 11 50  1  0
 12 51  1  0
 12 52  1  0
 14 53  1  0
 14 54  1  0
 14 55  1  0
 15 56  1  1
 16 57  1  0
 16 58  1  0
 17 59  1  0
 19 60  1  6
 20 61  1  0
 20 62  1  0
 21 63  1  0
 21 64  1  0
 22 65  1  6
 23 66  1  0
 25 67  1  0
 25 68  1  0
 25 69  1  0
 26 70  1  0
 26 71  1  0
 26 72  1  0
 28 73  1  0
 28 74  1  0
 28 75  1  0
 29 76  1  0
 29 77  1  0
 30 78  1  0
 30 79  1  0
 32 80  1  0
 32 81  1  0
 32 82  1  0
M  END
>  <meeko>  (1) 
{"is_sidechain": [false], "intermolecular_energy": 2.731, "internal_energy": -0.839}

$$$$
EPH_relaxed_0001_pdb2pqr_Repair_186_r2_0001_out
     RDKit          3D

 82 86  0  0  0  0  0  0  0  0999 V2000
   -5.0180    8.3930   -0.5330 C   0  0  0  0  0  0  0  0  0  0  0  0
   -5.3890    7.3030   -1.5420 C   0  0  2  0  0  0  0  0  0  0  0  0
   -4.3900    7.2330   -2.7150 C   0  0  0  0  0  0  0  0  0  0  0  0
   -2.9260    7.3570   -2.2830 C   0  0  0  0  0  0  0  0  0  0  0  0
   -2.4510    8.7770   -2.3360 C   0  0  2  0  0  0  0  0  0  0  0  0
   -1.1060    8.9420   -2.8040 O   0  0  0  0  0  0  0  0  0  0  0  0
   -1.3540    9.3260   -1.4420 C   0  0  0  0  0  0  0  0  0  0  0  0
   -0.6660    8.4630   -0.4310 C   0  0  0  0  0  0  0  0  0  0  0  0
   -1.2920   10.8040   -1.2110 C   0  0  0  0  0  0  0  0  0  0  0  0
   -6.7980    7.5440   -2.0730 C   0  0  1  0  0  0  0  0  0  0  0  0
   -7.0440    6.8620   -3.4450 C   0  0  0  0  0  0  0  0  0  0  0  0
   -8.5230    6.3990   -3.4550 C   0  0  0  0  0  0  0  0  0  0  0  0
   -9.1640    7.1130   -2.2430 C   0  0  1  0  0  0  0  0  0  0  0  0
   -9.4820    8.5550   -2.7480 C   0  0  0  0  0  0  0  0  0  0  0  0
  -10.4260    6.4280   -1.6250 C   0  0  2  0  0  0  0  0  0  0  0  0
  -11.6370    6.3180   -2.5680 C   0  0  0  0  0  0  0  0  0  0  0  0
  -12.5870    7.4690   -2.5220 C   0  0  0  0  0  0  0  0  0  0  0  0
  -12.6300    8.4100   -1.5600 C   0  0  0  0  0  0  0  0  0  0  0  0
  -11.7250    8.3160   -0.3250 C   0  0  1  0  0  0  0  0  0  0  0  0
  -12.5620    8.5890    0.9520 C   0  0  0  0  0  0  0  0  0  0  0  0
  -13.3200    9.9110    0.8840 C   0  0  0  0  0  0  0  0  0  0  0  0
  -14.2520    9.9430   -0.3250 C   0  0  2  0  0  0  0  0  0  0  0  0
  -15.2870    8.9730   -0.1340 O   0  0  0  0  0  0  0  0  0  0  0  0
  -13.5220    9.6710   -1.6700 C   0  0  0  0  0  0  0  0  0  0  0  0
  -12.6170   10.8770   -2.0240 C   0  0  0  0  0  0  0  0  0  0  0  0
  -14.5960    9.5910   -2.7880 C   0  0  0  0  0  0  0  0  0  0  0  0
  -10.8460    6.9970   -0.2090 C   0  0  1  0  0  0  0  0  0  0  0  0
  -11.6630    5.8740    0.4990 C   0  0  0  0  0  0  0  0  0  0  0  0
   -9.6020    7.2880    0.7110 C   0  0  0  0  0  0  0  0  0  0  0  0
   -8.3450    7.8530    0.0220 C   0  0  0  0  0  0  0  0  0  0  0  0
   -7.9790    7.0260   -1.2140 C   0  0  2  0  0  0  0  0  0  0  0  0
   -7.6330    5.5750   -0.7340 C   0  0  0  0  0  0  0  0  0  0  0  0
   -5.1494    8.0070    0.4886 H   0  0  0  0  0  0  0  0  0  0  0  0
   -3.9688    8.6882   -0.6813 H   0  0  0  0  0  0  0  0  0  0  0  0
   -5.6693    9.2670   -0.6813 H   0  0  0  0  0  0  0  0  0  0  0  0
   -5.3493    6.3379   -1.0157 H   0  0  0  0  0  0  0  0  0  0  0  0
   -4.5210    6.2677   -3.2260 H   0  0  0  0  0  0  0  0  0  0  0  0
   -4.6052    8.0879   -3.3729 H   0  0  0  0  0  0  0  0  0  0  0  0
   -2.8258    6.9858   -1.2524 H   0  0  0  0  0  0  0  0  0  0  0  0
   -2.3123    6.7640   -2.9770 H   0  0  0  0  0  0  0  0  0  0  0  0
   -3.4671    9.1331   -2.5612 H   0  0  0  0  0  0  0  0  0  0  0  0
   -0.9341    8.7993    0.5814 H   0  0  0  0  0  0  0  0  0  0  0  0
   -0.9814    7.4178   -0.5657 H   0  0  0  0  0  0  0  0  0  0  0  0
    0.4232    8.5376   -0.5657 H   0  0  0  0  0  0  0  0  0  0  0  0
   -1.2835   11.0061   -0.1298 H   0  0  0  0  0  0  0  0  0  0  0  0
   -0.3761   11.2083   -1.6668 H   0  0  0  0  0  0  0  0  0  0  0  0
   -2.1708   11.2835   -1.6668 H   0  0  0  0  0  0  0  0  0  0  0  0
   -6.8019    8.6438   -2.0948 H   0  0  0  0  0  0  0  0  0  0  0  0
   -6.8655    7.5775   -4.2612 H   0  0  0  0  0  0  0  0  0  0  0  0
   -6.3626    6.0109   -3.5910 H   0  0  0  0  0  0  0  0  0  0  0  0
   -9.0180    6.7009   -4.3898 H   0  0  0  0  0  0  0  0  0  0  0  0
   -8.6178    5.3049   -3.3923 H   0  0  0  0  0  0  0  0  0  0  0  0
   -9.6290    9.2215   -1.8854 H   0  0  0  0  0  0  0  0  0  0  0  0
   -8.6435    8.9234   -3.3573 H   0  0  0  0  0  0  0  0  0  0  0  0
  -10.3977    8.5365   -3.3573 H   0  0  0  0  0  0  0  0  0  0  0  0
  -10.0781    5.3970   -1.4638 H   0  0  0  0  0  0  0  0  0  0  0  0
  -11.2594    6.2297   -3.5974 H   0  0  0  0  0  0  0  0  0  0  0  0
  -12.2066    5.4393   -2.2311 H   0  0  0  0  0  0  0  0  0  0  0  0
  -13.3132    7.5555   -3.3436 H   0  0  0  0  0  0  0  0  0  0  0  0
  -10.9626    9.0997   -0.4456 H   0  0  0  0  0  0  0  0  0  0  0  0
  -13.2881    7.7725    1.0787 H   0  0  0  0  0  0  0  0  0  0  0  0
  -11.8653    8.6473    1.8013 H   0  0  0  0  0  0  0  0  0  0  0  0
  -13.9153   10.0324    1.8010 H   0  0  0  0  0  0  0  0  0  0  0  0
  -12.5913   10.7294    0.7879 H   0  0  0  0  0  0  0  0  0  0  0  0
  -14.6672   10.9592   -0.3947 H   0  0  0  0  0  0  0  0  0  0  0  0
  -16.1290    9.4530   -0.0520 H   0  0  0  0  0  0  0  0  0  0  0  0
  -12.2605   11.3521   -1.0982 H   0  0  0  0  0  0  0  0  0  0  0  0
  -11.7555   10.5286   -2.6126 H   0  0  0  0  0  0  0  0  0  0  0  0
  -13.1923   11.6068   -2.6126 H   0  0  0  0  0  0  0  0  0  0  0  0
  -15.5945    9.5166   -2.3326 H   0  0  0  0  0  0  0  0  0  0  0  0
  -14.5440   10.4955   -3.4118 H   0  0  0  0  0  0  0  0  0  0  0  0
  -14.4105    8.7042   -3.4118 H   0  0  0  0  0  0  0  0  0  0  0  0
  -11.5781    5.9908    1.5895 H   0  0  0  0  0  0  0  0  0  0  0  0
  -12.7200    5.9478    0.2036 H   0  0  0  0  0  0  0  0  0  0  0  0
  -11.2675    4.8910    0.2036 H   0  0  0  0  0  0  0  0  0  0  0  0
   -9.9164    8.0131    1.4761 H   0  0  0  0  0  0  0  0  0  0  0  0
   -9.2983    6.3062    1.1032 H   0  0  0  0  0  0  0  0  0  0  0  0
   -8.5386    8.8916   -0.2843 H   0  0  0  0  0  0  0  0  0  0  0  0
   -7.5066    7.8113    0.7329 H   0  0  0  0  0  0  0  0  0  0  0  0
   -7.6257    5.5445    0.3656 H   0  0  0  0  0  0  0  0  0  0  0  0
   -8.3888    4.8726   -1.1153 H   0  0  0  0  0  0  0  0  0  0  0  0
   -6.6415    5.2893   -1.1153 H   0  0  0  0  0  0  0  0  0  0  0  0
  1  2  1  0
  2  3  1  0
  3  4  1  0
  4  5  1  0
  5  6  1  0
  6  7  1  0
  7  8  1  0
  7  9  1  0
  2 10  1  0
 10 11  1  0
 11 12  1  0
 12 13  1  0
 13 14  1  6
 13 15  1  0
 15 16  1  0
 16 17  1  0
 17 18  2  0
 18 19  1  0
 19 20  1  0
 20 21  1  0
 21 22  1  0
 22 23  1  0
 22 24  1  0
 24 25  1  0
 24 26  1  0
 19 27  1  0
 27 28  1  1
 27 29  1  0
 29 30  1  0
 30 31  1  0
 31 32  1  1
  7  5  1  0
 31 10  1  0
 31 13  1  0
 27 15  1  0
 24 18  1  0
  1 33  1  0
  1 34  1  0
  1 35  1  0
  2 36  1  1
  3 37  1  0
  3 38  1  0
  4 39  1  0
  4 40  1  0
  5 41  1  6
  8 42  1  0
  8 43  1  0
  8 44  1  0
  9 45  1  0
  9 46  1  0
  9 47  1  0
 10 48  1  6
 11 49  1  0
 11 50  1  0
 12 51  1  0
 12 52  1  0
 14 53  1  0
 14 54  1  0
 14 55  1  0
 15 56  1  1
 16 57  1  0
 16 58  1  0
 17 59  1  0
 19 60  1  6
 20 61  1  0
 20 62  1  0
 21 63  1  0
 21 64  1  0
 22 65  1  6
 23 66  1  0
 25 67  1  0
 25 68  1  0
 25 69  1  0
 26 70  1  0
 26 71  1  0
 26 72  1  0
 28 73  1  0
 28 74  1  0
 28 75  1  0
 29 76  1  0
 29 77  1  0
 30 78  1  0
 30 79  1  0
 32 80  1  0
 32 81  1  0
 32 82  1  0
M  END
>  <meeko>  (2) 
{"is_sidechain": [false], "intermolecular_energy": 2.731, "internal_energy": -0.839}

$$$$
EPH_relaxed_0001_pdb2pqr_Repair_186_r2_0001_out
     RDKit          3D

 82 86  0  0  0  0  0  0  0  0999 V2000
  -14.4380    5.4910    0.3840 C   0  0  0  0  0  0  0  0  0  0  0  0
  -13.8840    6.9110    0.2390 C   0  0  2  0  0  0  0  0  0  0  0  0
  -14.9880    7.9340   -0.0920 C   0  0  0  0  0  0  0  0  0  0  0  0
  -14.5550    9.3910    0.0990 C   0  0  0  0  0  0  0  0  0  0  0  0
  -15.2670   10.3090   -0.8470 C   0  0  2  0  0  0  0  0  0  0  0  0
  -15.1040    9.9840   -2.2340 O   0  0  0  0  0  0  0  0  0  0  0  0
  -14.5500   11.2400   -1.8080 C   0  0  0  0  0  0  0  0  0  0  0  0
  -13.0560   11.2980   -1.8690 C   0  0  0  0  0  0  0  0  0  0  0  0
  -15.2870   12.4320   -2.3330 C   0  0  0  0  0  0  0  0  0  0  0  0
  -12.8060    6.9400   -0.8380 C   0  0  1  0  0  0  0  0  0  0  0  0
  -13.1550    7.9020   -2.0060 C   0  0  0  0  0  0  0  0  0  0  0  0
  -11.8190    8.5230   -2.4880 C   0  0  0  0  0  0  0  0  0  0  0  0
  -10.7230    7.6610   -1.8170 C   0  0  1  0  0  0  0  0  0  0  0  0
  -10.6040    6.3920   -2.7180 C   0  0  0  0  0  0  0  0  0  0  0  0
   -9.3360    8.3500   -1.6040 C   0  0  2  0  0  0  0  0  0  0  0  0
   -8.6150    8.7790   -2.8940 C   0  0  0  0  0  0  0  0  0  0  0  0
   -7.7020    7.7560   -3.4840 C   0  0  0  0  0  0  0  0  0  0  0  0
   -7.2480    6.6560   -2.8540 C   0  0  0  0  0  0  0  0  0  0  0  0
   -7.5770    6.4020   -1.3770 C   0  0  1  0  0  0  0  0  0  0  0  0
   -6.2870    5.9800   -0.6250 C   0  0  0  0  0  0  0  0  0  0  0  0
   -5.5900    4.7920   -1.2810 C   0  0  0  0  0  0  0  0  0  0  0  0
   -5.2280    5.1040   -2.7300 C   0  0  2  0  0  0  0  0  0  0  0  0
   -4.2290    6.1280   -2.7460 O   0  0  0  0  0  0  0  0  0  0  0  0
   -6.4470    5.5500   -3.5840 C   0  0  0  0  0  0  0  0  0  0  0  0
   -7.3890    4.3430   -3.8190 C   0  0  0  0  0  0  0  0  0  0  0  0
   -5.9220    5.9690   -4.9840 C   0  0  0  0  0  0  0  0  0  0  0  0
   -8.3650    7.5650   -0.6330 C   0  0  1  0  0  0  0  0  0  0  0  0
   -7.3580    8.6120   -0.0670 C   0  0  0  0  0  0  0  0  0  0  0  0
   -9.1210    6.9600    0.6090 C   0  0  0  0  0  0  0  0  0  0  0  0
  -10.5350    6.4030    0.3580 C   0  0  0  0  0  0  0  0  0  0  0  0
  -11.3910    7.4100   -0.4160 C   0  0  2  0  0  0  0  0  0  0  0  0
  -11.5470    8.6890    0.4740 C   0  0  0  0  0  0  0  0  0  0  0  0
  -14.5350    5.2424    1.4512 H   0  0  0  0  0  0  0  0  0  0  0  0
  -15.4252    5.4316   -0.0975 H   0  0  0  0  0  0  0  0  0  0  0  0
  -13.7518    4.7788   -0.0975 H   0  0  0  0  0  0  0  0  0  0  0  0
  -13.4493    7.1976    1.2080 H   0  0  0  0  0  0  0  0  0  0  0  0
  -15.2866    7.7952   -1.1416 H   0  0  0  0  0  0  0  0  0  0  0  0
  -15.8165    7.7505    0.6080 H   0  0  0  0  0  0  0  0  0  0  0  0
  -14.7807    9.6976    1.1310 H   0  0  0  0  0  0  0  0  0  0  0  0
  -13.4761    9.4578   -0.1050 H   0  0  0  0  0  0  0  0  0  0  0  0
  -16.0695   10.4800   -0.1143 H   0  0  0  0  0  0  0  0  0  0  0  0
  -12.6477   11.3139   -0.8477 H   0  0  0  0  0  0  0  0  0  0  0  0
  -12.6762   10.4139   -2.4021 H   0  0  0  0  0  0  0  0  0  0  0  0
  -12.7459   12.2089   -2.4021 H   0  0  0  0  0  0  0  0  0  0  0  0
  -15.6589   13.0335   -1.4904 H   0  0  0  0  0  0  0  0  0  0  0  0
  -14.6080   13.0417   -2.9472 H   0  0  0  0  0  0  0  0  0  0  0  0
  -16.1358   12.0970   -2.9472 H   0  0  0  0  0  0  0  0  0  0  0  0
  -12.7837    5.8733   -1.1057 H   0  0  0  0  0  0  0  0  0  0  0  0
  -13.6315    7.3449   -2.8261 H   0  0  0  0  0  0  0  0  0  0  0  0
  -13.8579    8.6822   -1.6786 H   0  0  0  0  0  0  0  0  0  0  0  0
  -11.7388    8.4691   -3.5837 H   0  0  0  0  0  0  0  0  0  0  0  0
  -11.7338    9.5870   -2.2221 H   0  0  0  0  0  0  0  0  0  0  0  0
  -10.5202    5.4979   -2.0828 H   0  0  0  0  0  0  0  0  0  0  0  0
  -11.4982    6.3081   -3.3531 H   0  0  0  0  0  0  0  0  0  0  0  0
   -9.7098    6.4758   -3.3531 H   0  0  0  0  0  0  0  0  0  0  0  0
   -9.6128    9.2836   -1.0924 H   0  0  0  0  0  0  0  0  0  0  0  0
   -9.3799    9.0256   -3.6451 H   0  0  0  0  0  0  0  0  0  0  0  0
   -7.9782    9.6322   -2.6176 H   0  0  0  0  0  0  0  0  0  0  0  0
   -7.3721    7.9142   -4.5214 H   0  0  0  0  0  0  0  0  0  0  0  0
   -8.3036    5.5762   -1.3639 H   0  0  0  0  0  0  0  0  0  0  0  0
   -5.5922    6.8327   -0.6107 H   0  0  0  0  0  0  0  0  0  0  0  0
   -6.5771    5.6773    0.3920 H   0  0  0  0  0  0  0  0  0  0  0  0
   -4.6712    4.5603   -0.7223 H   0  0  0  0  0  0  0  0  0  0  0  0
   -6.2755    3.9318   -1.2679 H   0  0  0  0  0  0  0  0  0  0  0  0
   -4.8514    4.1748   -3.1826 H   0  0  0  0  0  0  0  0  0  0  0  0
   -4.6400    6.9350   -3.0990 H   0  0  0  0  0  0  0  0  0  0  0  0
   -7.7088    3.9333   -2.8495 H   0  0  0  0  0  0  0  0  0  0  0  0
   -8.2716    4.6719   -4.3872 H   0  0  0  0  0  0  0  0  0  0  0  0
   -6.8555    3.5667   -4.3872 H   0  0  0  0  0  0  0  0  0  0  0  0
   -5.0672    6.6512   -4.8660 H   0  0  0  0  0  0  0  0  0  0  0  0
   -5.6032    5.0743   -5.5389 H   0  0  0  0  0  0  0  0  0  0  0  0
   -6.7237    6.4783   -5.5389 H   0  0  0  0  0  0  0  0  0  0  0  0
   -7.3822    8.5869    1.0324 H   0  0  0  0  0  0  0  0  0  0  0  0
   -6.3433    8.3713   -0.4170 H   0  0  0  0  0  0  0  0  0  0  0  0
   -7.6380    9.6165   -0.4170 H   0  0  0  0  0  0  0  0  0  0  0  0
   -8.5056    6.1390    1.0056 H   0  0  0  0  0  0  0  0  0  0  0  0
   -9.2629    7.8049    1.2990 H   0  0  0  0  0  0  0  0  0  0  0  0
  -10.4574    5.4734   -0.2250 H   0  0  0  0  0  0  0  0  0  0  0  0
  -11.0134    6.2092    1.3294 H   0  0  0  0  0  0  0  0  0  0  0  0
  -11.5122    8.4034    1.5357 H   0  0  0  0  0  0  0  0  0  0  0  0
  -10.7277    9.3898    0.2557 H   0  0  0  0  0  0  0  0  0  0  0  0
  -12.5107    9.1723    0.2557 H   0  0  0  0  0  0  0  0  0  0  0  0
  1  2  1  0
  2  3  1  0
  3  4  1  0
  4  5  1  0
  5  6  1  0
  6  7  1  0
  7  8  1  0
  7  9  1  0
  2 10  1  0
 10 11  1  0
 11 12  1  0
 12 13  1  0
 13 14  1  6
 13 15  1  0
 15 16  1  0
 16 17  1  0
 17 18  2  0
 18 19  1  0
 19 20  1  0
 20 21  1  0
 21 22  1  0
 22 23  1  0
 22 24  1  0
 24 25  1  0
 24 26  1  0
 19 27  1  0
 27 28  1  1
 27 29  1  0
 29 30  1  0
 30 31  1  0
 31 32  1  1
  7  5  1  0
 31 10  1  0
 31 13  1  0
 27 15  1  0
 24 18  1  0
  1 33  1  0
  1 34  1  0
  1 35  1  0
  2 36  1  1
  3 37  1  0
  3 38  1  0
  4 39  1  0
  4 40  1  0
  5 41  1  1
  8 42  1  0
  8 43  1  0
  8 44  1  0
  9 45  1  0
  9 46  1  0
  9 47  1  0
 10 48  1  6
 11 49  1  0
 11 50  1  0
 12 51  1  0
 12 52  1  0
 14 53  1  0
 14 54  1  0
 14 55  1  0
 15 56  1  1
 16 57  1  0
 16 58  1  0
 17 59  1  0
 19 60  1  6
 20 61  1  0
 20 62  1  0
 21 63  1  0
 21 64  1  0
 22 65  1  6
 23 66  1  0
 25 67  1  0
 25 68  1  0
 25 69  1  0
 26 70  1  0
 26 71  1  0
 26 72  1  0
 28 73  1  0
 28 74  1  0
 28 75  1  0
 29 76  1  0
 29 77  1  0
 30 78  1  0
 30 79  1  0
 32 80  1  0
 32 81  1  0
 32 82  1  0
M  END
>  <meeko>  (3) 
{"is_sidechain": [false], "intermolecular_energy": 2.731, "internal_energy": -0.839}

$$$$
EPH_relaxed_0001_pdb2pqr_Repair_186_r2_0001_out
     RDKit          3D

 82 86  0  0  0  0  0  0  0  0999 V2000
   -4.0470    9.7340   -0.4490 C   0  0  0  0  0  0  0  0  0  0  0  0
   -4.1700    8.4110   -1.2090 C   0  0  2  0  0  0  0  0  0  0  0  0
   -3.0820    8.2600   -2.2910 C   0  0  0  0  0  0  0  0  0  0  0  0
   -1.6570    8.4300   -1.7590 C   0  0  0  0  0  0  0  0  0  0  0  0
   -1.5220    9.6670   -0.9230 C   0  0  2  0  0  0  0  0  0  0  0  0
   -0.7080   10.6950   -1.5020 O   0  0  0  0  0  0  0  0  0  0  0  0
   -0.2170   10.1080   -0.2860 C   0  0  0  0  0  0  0  0  0  0  0  0
    1.0420    9.3160   -0.4580 C   0  0  0  0  0  0  0  0  0  0  0  0
   -0.2710   11.0280    0.8930 C   0  0  0  0  0  0  0  0  0  0  0  0
   -5.5530    8.3020   -1.8420 C   0  0  1  0  0  0  0  0  0  0  0  0
   -5.5030    7.7620   -3.2960 C   0  0  0  0  0  0  0  0  0  0  0  0
   -6.7750    6.8970   -3.4960 C   0  0  0  0  0  0  0  0  0  0  0  0
   -7.6700    7.2330   -2.2800 C   0  0  1  0  0  0  0  0  0  0  0  0
   -8.3710    8.5760   -2.6570 C   0  0  0  0  0  0  0  0  0  0  0  0
   -8.7050    6.1390   -1.8610 C   0  0  2  0  0  0  0  0  0  0  0  0
   -9.7700    5.8090   -2.9200 C   0  0  0  0  0  0  0  0  0  0  0  0
  -11.0200    6.6210   -2.8420 C   0  0  0  0  0  0  0  0  0  0  0  0
  -11.3980    7.3760   -1.7940 C   0  0  0  0  0  0  0  0  0  0  0  0
  -10.5810    7.3870   -0.4960 C   0  0  1  0  0  0  0  0  0  0  0  0
  -11.5350    7.2390    0.7180 C   0  0  0  0  0  0  0  0  0  0  0  0
  -12.6460    8.2840    0.7200 C   0  0  0  0  0  0  0  0  0  0  0  0
  -13.4730    8.2030   -0.5610 C   0  0  2  0  0  0  0  0  0  0  0  0
  -14.1820    6.9590   -0.5740 O   0  0  0  0  0  0  0  0  0  0  0  0
  -12.6170    8.3300   -1.8520 C   0  0  0  0  0  0  0  0  0  0  0  0
  -12.0930    9.7800   -1.9880 C   0  0  0  0  0  0  0  0  0  0  0  0
  -13.5510    8.0890   -3.0690 C   0  0  0  0  0  0  0  0  0  0  0  0
   -9.3570    6.3750   -0.4380 C   0  0  1  0  0  0  0  0  0  0  0  0
   -9.8440    4.9810    0.0650 C   0  0  0  0  0  0  0  0  0  0  0  0
   -8.3130    6.8900    0.6210 C   0  0  0  0  0  0  0  0  0  0  0  0
   -7.2420    7.8770    0.1180 C   0  0  0  0  0  0  0  0  0  0  0  0
   -6.5750    7.3580   -1.1590 C   0  0  2  0  0  0  0  0  0  0  0  0
   -5.8420    6.0190   -0.8050 C   0  0  0  0  0  0  0  0  0  0  0  0
   -4.0652    9.5382    0.6333 H   0  0  0  0  0  0  0  0  0  0  0  0
   -3.0994   10.2241   -0.7171 H   0  0  0  0  0  0  0  0  0  0  0  0
   -4.8880   10.3904   -0.7171 H   0  0  0  0  0  0  0  0  0  0  0  0
   -4.0284    7.5973   -0.4825 H   0  0  0  0  0  0  0  0  0  0  0  0
   -3.1698    7.2570   -2.7341 H   0  0  0  0  0  0  0  0  0  0  0  0
   -3.2477    9.0603   -3.0272 H   0  0  0  0  0  0  0  0  0  0  0  0
   -1.3988    7.5546   -1.1450 H   0  0  0  0  0  0  0  0  0  0  0  0
   -0.9780    8.5215   -2.6196 H   0  0  0  0  0  0  0  0  0  0  0  0
   -2.5335    9.5289   -0.5133 H   0  0  0  0  0  0  0  0  0  0  0  0
    1.4511    9.0586    0.5301 H   0  0  0  0  0  0  0  0  0  0  0  0
    0.8217    8.3935   -1.0152 H   0  0  0  0  0  0  0  0  0  0  0  0
    1.7781    9.9140   -1.0152 H   0  0  0  0  0  0  0  0  0  0  0  0
   -0.2364   10.4377    1.8206 H   0  0  0  0  0  0  0  0  0  0  0  0
    0.5884   11.7139    0.8625 H   0  0  0  0  0  0  0  0  0  0  0  0
   -1.2048   11.6086    0.8625 H   0  0  0  0  0  0  0  0  0  0  0  0
   -5.8831    9.3469   -1.7462 H   0  0  0  0  0  0  0  0  0  0  0  0
   -5.4973    8.5982   -4.0107 H   0  0  0  0  0  0  0  0  0  0  0  0
   -4.5918    7.1698   -3.4663 H   0  0  0  0  0  0  0  0  0  0  0  0
   -7.2812    7.1622   -4.4359 H   0  0  0  0  0  0  0  0  0  0  0  0
   -6.5438    5.8235   -3.5600 H   0  0  0  0  0  0  0  0  0  0  0  0
   -8.6515    9.1134   -1.7391 H   0  0  0  0  0  0  0  0  0  0  0  0
   -7.6815    9.1960   -3.2487 H   0  0  0  0  0  0  0  0  0  0  0  0
   -9.2739    8.3648   -3.2487 H   0  0  0  0  0  0  0  0  0  0  0  0
   -8.0775    5.2392   -1.7791 H   0  0  0  0  0  0  0  0  0  0  0  0
   -9.3230    5.9677   -3.9125 H   0  0  0  0  0  0  0  0  0  0  0  0
  -10.0716    4.7676   -2.7339 H   0  0  0  0  0  0  0  0  0  0  0  0
  -11.6889    6.6006   -3.7150 H   0  0  0  0  0  0  0  0  0  0  0  0
  -10.0810    8.3661   -0.4601 H   0  0  0  0  0  0  0  0  0  0  0  0
  -11.9918    6.2388    0.6875 H   0  0  0  0  0  0  0  0  0  0  0  0
  -10.9386    7.3842    1.6308 H   0  0  0  0  0  0  0  0  0  0  0  0
  -13.3032    8.1092    1.5846 H   0  0  0  0  0  0  0  0  0  0  0  0
  -12.1888    9.2827    0.7804 H   0  0  0  0  0  0  0  0  0  0  0  0
  -14.1673    9.0562   -0.5601 H   0  0  0  0  0  0  0  0  0  0  0  0
  -13.7510    6.3820   -1.2270 H   0  0  0  0  0  0  0  0  0  0  0  0
  -11.9379   10.2092   -0.9871 H   0  0  0  0  0  0  0  0  0  0  0  0
  -11.1397    9.7754   -2.5368 H   0  0  0  0  0  0  0  0  0  0  0  0
  -12.8290   10.3859   -2.5368 H   0  0  0  0  0  0  0  0  0  0  0  0
  -14.5585    7.8290   -2.7122 H   0  0  0  0  0  0  0  0  0  0  0  0
  -13.6024    9.0033   -3.6785 H   0  0  0  0  0  0  0  0  0  0  0  0
  -13.1536    7.2640   -3.6785 H   0  0  0  0  0  0  0  0  0  0  0  0
   -9.8482    4.9690    1.1649 H   0  0  0  0  0  0  0  0  0  0  0  0
  -10.8615    4.7917   -0.3076 H   0  0  0  0  0  0  0  0  0  0  0  0
   -9.1657    4.1993   -0.3076 H   0  0  0  0  0  0  0  0  0  0  0  0
   -8.8735    7.3887    1.4255 H   0  0  0  0  0  0  0  0  0  0  0  0
   -7.7552    5.9950    0.9339 H   0  0  0  0  0  0  0  0  0  0  0  0
   -7.7168    8.8467   -0.0926 H   0  0  0  0  0  0  0  0  0  0  0  0
   -6.4724    7.9861    0.8963 H   0  0  0  0  0  0  0  0  0  0  0  0
   -5.7830    5.9112    0.2881 H   0  0  0  0  0  0  0  0  0  0  0  0
   -6.4021    5.1717   -1.2273 H   0  0  0  0  0  0  0  0  0  0  0  0
   -4.8264    6.0342   -1.2273 H   0  0  0  0  0  0  0  0  0  0  0  0
  1  2  1  0
  2  3  1  0
  3  4  1  0
  4  5  1  0
  5  6  1  0
  6  7  1  0
  7  8  1  0
  7  9  1  0
  2 10  1  0
 10 11  1  0
 11 12  1  0
 12 13  1  0
 13 14  1  6
 13 15  1  0
 15 16  1  0
 16 17  1  0
 17 18  2  0
 18 19  1  0
 19 20  1  0
 20 21  1  0
 21 22  1  0
 22 23  1  0
 22 24  1  0
 24 25  1  0
 24 26  1  0
 19 27  1  0
 27 28  1  1
 27 29  1  0
 29 30  1  0
 30 31  1  0
 31 32  1  1
  7  5  1  0
 31 10  1  0
 31 13  1  0
 27 15  1  0
 24 18  1  0
  1 33  1  0
  1 34  1  0
  1 35  1  0
  2 36  1  1
  3 37  1  0
  3 38  1  0
  4 39  1  0
  4 40  1  0
  5 41  1  1
  8 42  1  0
  8 43  1  0
  8 44  1  0
  9 45  1  0
  9 46  1  0
  9 47  1  0
 10 48  1  6
 11 49  1  0
 11 50  1  0
 12 51  1  0
 12 52  1  0
 14 53  1  0
 14 54  1  0
 14 55  1  0
 15 56  1  1
 16 57  1  0
 16 58  1  0
 17 59  1  0
 19 60  1  1
 20 61  1  0
 20 62  1  0
 21 63  1  0
 21 64  1  0
 22 65  1  1
 23 66  1  0
 25 67  1  0
 25 68  1  0
 25 69  1  0
 26 70  1  0
 26 71  1  0
 26 72  1  0
 28 73  1  0
 28 74  1  0
 28 75  1  0
 29 76  1  0
 29 77  1  0
 30 78  1  0
 30 79  1  0
 32 80  1  0
 32 81  1  0
 32 82  1  0
M  END
>  <meeko>  (4) 
{"is_sidechain": [false], "intermolecular_energy": 2.731, "internal_energy": -0.839}

$$$$
EPH_relaxed_0001_pdb2pqr_Repair_186_r2_0001_out
     RDKit          3D

 82 86  0  0  0  0  0  0  0  0999 V2000
   -5.0440    6.4060   -3.4160 C   0  0  0  0  0  0  0  0  0  0  0  0
   -5.8700    7.5410   -2.8030 C   0  0  2  0  0  0  0  0  0  0  0  0
   -5.2830    8.0280   -1.4630 C   0  0  0  0  0  0  0  0  0  0  0  0
   -3.7620    7.8810   -1.3680 C   0  0  0  0  0  0  0  0  0  0  0  0
   -3.1630    8.8990   -0.4440 C   0  0  2  0  0  0  0  0  0  0  0  0
   -3.0320   10.2120   -1.0040 O   0  0  0  0  0  0  0  0  0  0  0  0
   -1.8070    9.5400   -0.6710 C   0  0  0  0  0  0  0  0  0  0  0  0
   -0.9660    9.1860   -1.8570 C   0  0  0  0  0  0  0  0  0  0  0  0
   -1.0920   10.1350    0.5010 C   0  0  0  0  0  0  0  0  0  0  0  0
   -7.3110    7.0860   -2.6050 C   0  0  1  0  0  0  0  0  0  0  0  0
   -7.5050    5.5730   -2.8920 C   0  0  0  0  0  0  0  0  0  0  0  0
   -8.5800    5.0630   -1.8980 C   0  0  0  0  0  0  0  0  0  0  0  0
   -9.2040    6.3480   -1.3060 C   0  0  1  0  0  0  0  0  0  0  0  0
  -10.2370    6.8230   -2.3750 C   0  0  0  0  0  0  0  0  0  0  0  0
   -9.8590    6.2110    0.1080 C   0  0  2  0  0  0  0  0  0  0  0  0
  -11.0570    5.2480    0.1800 C   0  0  0  0  0  0  0  0  0  0  0  0
  -12.3910    5.8710   -0.0670 C   0  0  0  0  0  0  0  0  0  0  0  0
  -12.6520    7.1920   -0.0560 C   0  0  0  0  0  0  0  0  0  0  0  0
  -11.5650    8.2060    0.3230 C   0  0  1  0  0  0  0  0  0  0  0  0
  -12.1460    9.2360    1.3280 C   0  0  0  0  0  0  0  0  0  0  0  0
  -13.4150    9.9060    0.8110 C   0  0  0  0  0  0  0  0  0  0  0  0
  -14.4920    8.8700    0.5000 C   0  0  2  0  0  0  0  0  0  0  0  0
  -14.9100    8.2590    1.7250 O   0  0  0  0  0  0  0  0  0  0  0  0
  -14.0180    7.7740   -0.4950 C   0  0  0  0  0  0  0  0  0  0  0  0
  -13.8530    8.3900   -1.9070 C   0  0  0  0  0  0  0  0  0  0  0  0
  -15.1480    6.7150   -0.6130 C   0  0  0  0  0  0  0  0  0  0  0  0
  -10.1830    7.5910    0.8090 C   0  0  1  0  0  0  0  0  0  0  0  0
  -10.2350    7.3100    2.3420 C   0  0  0  0  0  0  0  0  0  0  0  0
   -9.0420    8.6550    0.5920 C   0  0  0  0  0  0  0  0  0  0  0  0
   -8.3520    8.6620   -0.7860 C   0  0  0  0  0  0  0  0  0  0  0  0
   -7.9210    7.2490   -1.1900 C   0  0  2  0  0  0  0  0  0  0  0  0
   -6.8650    6.7540   -0.1440 C   0  0  0  0  0  0  0  0  0  0  0  0
   -4.6021    5.7987   -2.6123 H   0  0  0  0  0  0  0  0  0  0  0  0
   -5.6946    5.7736   -4.0379 H   0  0  0  0  0  0  0  0  0  0  0  0
   -4.2422    6.8306   -4.0379 H   0  0  0  0  0  0  0  0  0  0  0  0
   -5.8401    8.3882   -3.5040 H   0  0  0  0  0  0  0  0  0  0  0  0
   -5.5377    9.0908   -1.3380 H   0  0  0  0  0  0  0  0  0  0  0  0
   -5.7170    7.3969   -0.6735 H   0  0  0  0  0  0  0  0  0  0  0  0
   -3.5239    6.8749   -0.9925 H   0  0  0  0  0  0  0  0  0  0  0  0
   -3.3390    8.0376   -2.3713 H   0  0  0  0  0  0  0  0  0  0  0  0
   -3.6060    8.4001    0.4305 H   0  0  0  0  0  0  0  0  0  0  0  0
   -0.0023    8.7804   -1.5152 H   0  0  0  0  0  0  0  0  0  0  0  0
   -1.4872    8.4309   -2.4638 H   0  0  0  0  0  0  0  0  0  0  0  0
   -0.7903   10.0865   -2.4638 H   0  0  0  0  0  0  0  0  0  0  0  0
   -1.5412    9.7612    1.4329 H   0  0  0  0  0  0  0  0  0  0  0  0
   -0.0301    9.8502    0.4658 H   0  0  0  0  0  0  0  0  0  0  0  0
   -1.1791   11.2310    0.4658 H   0  0  0  0  0  0  0  0  0  0  0  0
   -7.8154    7.7609   -3.3122 H   0  0  0  0  0  0  0  0  0  0  0  0
   -7.8457    5.4245   -3.9273 H   0  0  0  0  0  0  0  0  0  0  0  0
   -6.5603    5.0233   -2.7681 H   0  0  0  0  0  0  0  0  0  0  0  0
   -9.3418    4.4670   -2.4218 H   0  0  0  0  0  0  0  0  0  0  0  0
   -8.1545    4.4099   -1.1219 H   0  0  0  0  0  0  0  0  0  0  0  0
  -11.1251    7.2314   -1.8706 H   0  0  0  0  0  0  0  0  0  0  0  0
   -9.7818    7.6022   -3.0040 H   0  0  0  0  0  0  0  0  0  0  0  0
  -10.5322    5.9702   -3.0040 H   0  0  0  0  0  0  0  0  0  0  0  0
   -9.0584    5.7369    0.6947 H   0  0  0  0  0  0  0  0  0  0  0  0
  -10.9053    4.4598   -0.5722 H   0  0  0  0  0  0  0  0  0  0  0  0
  -11.0834    4.8714    1.2132 H   0  0  0  0  0  0  0  0  0  0  0  0
  -13.2321    5.1935   -0.2757 H   0  0  0  0  0  0  0  0  0  0  0  0
  -11.2832    8.7142   -0.6110 H   0  0  0  0  0  0  0  0  0  0  0  0
  -12.3797    8.7170    2.2693 H   0  0  0  0  0  0  0  0  0  0  0  0
  -11.3901   10.0214    1.4756 H   0  0  0  0  0  0  0  0  0  0  0  0
  -13.7932   10.5995    1.5765 H   0  0  0  0  0  0  0  0  0  0  0  0
  -13.1729   10.4489   -0.1146 H   0  0  0  0  0  0  0  0  0  0  0  0
  -15.3262    9.3963    0.0130 H   0  0  0  0  0  0  0  0  0  0  0  0
  -14.3910    7.4450    1.8400 H   0  0  0  0  0  0  0  0  0  0  0  0
  -13.5694    9.4488   -1.8143 H   0  0  0  0  0  0  0  0  0  0  0  0
  -13.0687    7.8469   -2.4546 H   0  0  0  0  0  0  0  0  0  0  0  0
  -14.8038    8.3117   -2.4546 H   0  0  0  0  0  0  0  0  0  0  0  0
  -15.4723    6.4111    0.3932 H   0  0  0  0  0  0  0  0  0  0  0  0
  -16.0002    7.1473   -1.1579 H   0  0  0  0  0  0  0  0  0  0  0  0
  -14.7719    5.8366   -1.1579 H   0  0  0  0  0  0  0  0  0  0  0  0
  -10.0617    8.2464    2.8925 H   0  0  0  0  0  0  0  0  0  0  0  0
  -11.2231    6.9061    2.6074 H   0  0  0  0  0  0  0  0  0  0  0  0
   -9.4568    6.5792    2.6074 H   0  0  0  0  0  0  0  0  0  0  0  0
   -9.4814    9.6511    0.7493 H   0  0  0  0  0  0  0  0  0  0  0  0
   -8.2529    8.3812    1.3079 H   0  0  0  0  0  0  0  0  0  0  0  0
   -9.0534    9.0531   -1.5377 H   0  0  0  0  0  0  0  0  0  0  0  0
   -7.4568    9.2985   -0.7270 H   0  0  0  0  0  0  0  0  0  0  0  0
   -7.2448    6.9320    0.8729 H   0  0  0  0  0  0  0  0  0  0  0  0
   -6.6856    5.6780   -0.2852 H   0  0  0  0  0  0  0  0  0  0  0  0
   -5.9231    7.3044   -0.2852 H   0  0  0  0  0  0  0  0  0  0  0  0
  1  2  1  0
  2  3  1  0
  3  4  1  0
  4  5  1  0
  5  6  1  0
  6  7  1  0
  7  8  1  0
  7  9  1  0
  2 10  1  0
 10 11  1  0
 11 12  1  0
 12 13  1  0
 13 14  1  6
 13 15  1  0
 15 16  1  0
 16 17  1  0
 17 18  2  0
 18 19  1  0
 19 20  1  0
 20 21  1  0
 21 22  1  0
 22 23  1  0
 22 24  1  0
 24 25  1  0
 24 26  1  0
 19 27  1  0
 27 28  1  1
 27 29  1  0
 29 30  1  0
 30 31  1  0
 31 32  1  1
  7  5  1  0
 31 10  1  0
 31 13  1  0
 27 15  1  0
 24 18  1  0
  1 33  1  0
  1 34  1  0
  1 35  1  0
  2 36  1  6
  3 37  1  0
  3 38  1  0
  4 39  1  0
  4 40  1  0
  5 41  1  1
  8 42  1  0
  8 43  1  0
  8 44  1  0
  9 45  1  0
  9 46  1  0
  9 47  1  0
 10 48  1  6
 11 49  1  0
 11 50  1  0
 12 51  1  0
 12 52  1  0
 14 53  1  0
 14 54  1  0
 14 55  1  0
 15 56  1  1
 16 57  1  0
 16 58  1  0
 17 59  1  0
 19 60  1  6
 20 61  1  0
 20 62  1  0
 21 63  1  0
 21 64  1  0
 22 65  1  6
 23 66  1  0
 25 67  1  0
 25 68  1  0
 25 69  1  0
 26 70  1  0
 26 71  1  0
 26 72  1  0
 28 73  1  0
 28 74  1  0
 28 75  1  0
 29 76  1  0
 29 77  1  0
 30 78  1  0
 30 79  1  0
 32 80  1  0
 32 81  1  0
 32 82  1  0
M  END
>  <meeko>  (5) 
{"is_sidechain": [false], "intermolecular_energy": 2.731, "internal_energy": -0.839}

$$$$
EPH_relaxed_0001_pdb2pqr_Repair_186_r2_0001_out
     RDKit          3D

 82 86  0  0  0  0  0  0  0  0999 V2000
  -15.2670    8.6110    0.5080 C   0  0  0  0  0  0  0  0  0  0  0  0
  -14.3980    8.9730   -0.7000 C   0  0  2  0  0  0  0  0  0  0  0  0
  -14.6870    8.0690   -1.9140 C   0  0  0  0  0  0  0  0  0  0  0  0
  -14.6680    8.8110   -3.2530 C   0  0  0  0  0  0  0  0  0  0  0  0
  -15.2870   10.1710   -3.1410 C   0  0  2  0  0  0  0  0  0  0  0  0
  -14.9460   11.0740   -4.2020 O   0  0  0  0  0  0  0  0  0  0  0  0
  -14.4880   11.4360   -2.8890 C   0  0  0  0  0  0  0  0  0  0  0  0
  -13.0000   11.4010   -2.7330 C   0  0  0  0  0  0  0  0  0  0  0  0
  -15.1920   12.6250   -2.3120 C   0  0  0  0  0  0  0  0  0  0  0  0
  -12.9240    8.8860   -0.3240 C   0  0  1  0  0  0  0  0  0  0  0  0
  -12.6920    8.9570    1.2090 C   0  0  0  0  0  0  0  0  0  0  0  0
  -11.4840    8.0370    1.5220 C   0  0  0  0  0  0  0  0  0  0  0  0
  -10.8580    7.7320    0.1410 C   0  0  1  0  0  0  0  0  0  0  0  0
   -9.9820    8.9820   -0.1870 C   0  0  0  0  0  0  0  0  0  0  0  0
  -10.0360    6.4060    0.0320 C   0  0  2  0  0  0  0  0  0  0  0  0
   -8.7930    6.3340    0.9350 C   0  0  0  0  0  0  0  0  0  0  0  0
   -7.5290    6.8380    0.3210 C   0  0  0  0  0  0  0  0  0  0  0  0
   -7.3320    7.0630   -0.9920 C   0  0  0  0  0  0  0  0  0  0  0  0
   -8.4150    6.7140   -2.0210 C   0  0  1  0  0  0  0  0  0  0  0  0
   -7.7710    5.9600   -3.2140 C   0  0  0  0  0  0  0  0  0  0  0  0
   -6.6050    6.7270   -3.8310 C   0  0  0  0  0  0  0  0  0  0  0  0
   -5.5230    7.0040   -2.7900 C   0  0  2  0  0  0  0  0  0  0  0  0
   -4.9350    5.7610   -2.3940 O   0  0  0  0  0  0  0  0  0  0  0  0
   -6.0570    7.7520   -1.5360 C   0  0  0  0  0  0  0  0  0  0  0  0
   -6.4160    9.2110   -1.9130 C   0  0  0  0  0  0  0  0  0  0  0  0
   -4.8990    7.8430   -0.5060 C   0  0  0  0  0  0  0  0  0  0  0  0
   -9.7000    5.9720   -1.4520 C   0  0  1  0  0  0  0  0  0  0  0  0
   -9.4550    4.4330   -1.4210 C   0  0  0  0  0  0  0  0  0  0  0  0
  -10.9080    6.2100   -2.4340 C   0  0  0  0  0  0  0  0  0  0  0  0
  -11.7540    7.4760   -2.2000 C   0  0  0  0  0  0  0  0  0  0  0  0
  -12.1610    7.6000   -0.7290 C   0  0  2  0  0  0  0  0  0  0  0  0
  -13.0620    6.3680   -0.3760 C   0  0  0  0  0  0  0  0  0  0  0  0
  -14.7199    8.8389    1.4347 H   0  0  0  0  0  0  0  0  0  0  0  0
  -16.1980    9.1961    0.4785 H   0  0  0  0  0  0  0  0  0  0  0  0
  -15.5072    7.5380    0.4785 H   0  0  0  0  0  0  0  0  0  0  0  0
  -14.6469   10.0044   -0.9903 H   0  0  0  0  0  0  0  0  0  0  0  0
  -13.9252    7.2761   -1.9456 H   0  0  0  0  0  0  0  0  0  0  0  0
  -15.7035    7.6698   -1.7824 H   0  0  0  0  0  0  0  0  0  0  0  0
  -13.6251    8.9201   -3.5855 H   0  0  0  0  0  0  0  0  0  0  0  0
  -15.2533    8.2261   -3.9778 H   0  0  0  0  0  0  0  0  0  0  0  0
  -16.1775    9.7508   -2.6507 H   0  0  0  0  0  0  0  0  0  0  0  0
  -12.7435   11.3950   -1.6633 H   0  0  0  0  0  0  0  0  0  0  0  0
  -12.6025   10.4933   -3.2105 H   0  0  0  0  0  0  0  0  0  0  0  0
  -12.5603   12.2891   -3.2105 H   0  0  0  0  0  0  0  0  0  0  0  0
  -15.1608   12.5723   -1.2137 H   0  0  0  0  0  0  0  0  0  0  0  0
  -14.6934   13.5457   -2.6492 H   0  0  0  0  0  0  0  0  0  0  0  0
  -16.2390   12.6305   -2.6492 H   0  0  0  0  0  0  0  0  0  0  0  0
  -12.5391    9.7463   -0.8912 H   0  0  0  0  0  0  0  0  0  0  0  0
  -12.4688    9.9910    1.5108 H   0  0  0  0  0  0  0  0  0  0  0  0
  -13.5878    8.6333    1.7593 H   0  0  0  0  0  0  0  0  0  0  0  0
  -10.7608    8.5528    2.1708 H   0  0  0  0  0  0  0  0  0  0  0  0
  -11.7831    7.1228    2.0556 H   0  0  0  0  0  0  0  0  0  0  0  0
   -9.6512    9.4540    0.7499 H   0  0  0  0  0  0  0  0  0  0  0  0
   -9.1033    8.6709   -0.7710 H   0  0  0  0  0  0  0  0  0  0  0  0
  -10.5743    9.7018   -0.7710 H   0  0  0  0  0  0  0  0  0  0  0  0
  -10.7380    5.6588    0.4307 H   0  0  0  0  0  0  0  0  0  0  0  0
   -8.9936    6.9298    1.8376 H   0  0  0  0  0  0  0  0  0  0  0  0
   -8.6271    5.2661    1.1400 H   0  0  0  0  0  0  0  0  0  0  0  0
   -6.6871    7.0430    0.9986 H   0  0  0  0  0  0  0  0  0  0  0  0
   -8.8284    7.6737   -2.3646 H   0  0  0  0  0  0  0  0  0  0  0  0
   -7.4035    4.9861   -2.8584 H   0  0  0  0  0  0  0  0  0  0  0  0
   -8.5417    5.8435   -3.9902 H   0  0  0  0  0  0  0  0  0  0  0  0
   -6.1739    6.1304   -4.6485 H   0  0  0  0  0  0  0  0  0  0  0  0
   -6.9795    7.6882   -4.2128 H   0  0  0  0  0  0  0  0  0  0  0  0
   -4.7779    7.6652   -3.2566 H   0  0  0  0  0  0  0  0  0  0  0  0
   -4.5270    5.3650   -3.1830 H   0  0  0  0  0  0  0  0  0  0  0  0
   -6.5613    9.8014   -0.9963 H   0  0  0  0  0  0  0  0  0  0  0  0
   -5.5987    9.6484   -2.5052 H   0  0  0  0  0  0  0  0  0  0  0  0
   -7.3430    9.2192   -2.5052 H   0  0  0  0  0  0  0  0  0  0  0  0
   -5.3115    7.8106    0.5132 H   0  0  0  0  0  0  0  0  0  0  0  0
   -4.2122    6.9961   -0.6507 H   0  0  0  0  0  0  0  0  0  0  0  0
   -4.3529    8.7868   -0.6507 H   0  0  0  0  0  0  0  0  0  0  0  0
   -9.4006    4.0913   -0.3768 H   0  0  0  0  0  0  0  0  0  0  0  0
  -10.2827    3.9196   -1.9322 H   0  0  0  0  0  0  0  0  0  0  0  0
   -8.5088    4.2020   -1.9322 H   0  0  0  0  0  0  0  0  0  0  0  0
  -10.5014    6.2654   -3.4546 H   0  0  0  0  0  0  0  0  0  0  0  0
  -11.5937    5.3685   -2.2562 H   0  0  0  0  0  0  0  0  0  0  0  0
  -11.1652    8.3600   -2.4861 H   0  0  0  0  0  0  0  0  0  0  0  0
  -12.6659    7.4060   -2.8112 H   0  0  0  0  0  0  0  0  0  0  0  0
  -13.1349    6.2683    0.7170 H   0  0  0  0  0  0  0  0  0  0  0  0
  -14.0668    6.5155   -0.7986 H   0  0  0  0  0  0  0  0  0  0  0  0
  -12.6169    5.4551   -0.7986 H   0  0  0  0  0  0  0  0  0  0  0  0
  1  2  1  0
  2  3  1  0
  3  4  1  0
  4  5  1  0
  5  6  1  0
  6  7  1  0
  7  8  1  0
  7  9  1  0
  2 10  1  0
 10 11  1  0
 11 12  1  0
 12 13  1  0
 13 14  1  6
 13 15  1  0
 15 16  1  0
 16 17  1  0
 17 18  2  0
 18 19  1  0
 19 20  1  0
 20 21  1  0
 21 22  1  0
 22 23  1  0
 22 24  1  0
 24 25  1  0
 24 26  1  0
 19 27  1  0
 27 28  1  1
 27 29  1  0
 29 30  1  0
 30 31  1  0
 31 32  1  1
  7  5  1  0
 31 10  1  0
 31 13  1  0
 27 15  1  0
 24 18  1  0
  1 33  1  0
  1 34  1  0
  1 35  1  0
  2 36  1  6
  3 37  1  0
  3 38  1  0
  4 39  1  0
  4 40  1  0
  5 41  1  1
  8 42  1  0
  8 43  1  0
  8 44  1  0
  9 45  1  0
  9 46  1  0
  9 47  1  0
 10 48  1  6
 11 49  1  0
 11 50  1  0
 12 51  1  0
 12 52  1  0
 14 53  1  0
 14 54  1  0
 14 55  1  0
 15 56  1  1
 16 57  1  0
 16 58  1  0
 17 59  1  0
 19 60  1  6
 20 61  1  0
 20 62  1  0
 21 63  1  0
 21 64  1  0
 22 65  1  6
 23 66  1  0
 25 67  1  0
 25 68  1  0
 25 69  1  0
 26 70  1  0
 26 71  1  0
 26 72  1  0
 28 73  1  0
 28 74  1  0
 28 75  1  0
 29 76  1  0
 29 77  1  0
 30 78  1  0
 30 79  1  0
 32 80  1  0
 32 81  1  0
 32 82  1  0
M  END
>  <meeko>  (6) 
{"is_sidechain": [false], "intermolecular_energy": 2.731, "internal_energy": -0.839}

$$$$
EPH_relaxed_0001_pdb2pqr_Repair_186_r2_0001_out
     RDKit          3D

 82 86  0  0  0  0  0  0  0  0999 V2000
  -13.8940    9.8950    0.7290 C   0  0  0  0  0  0  0  0  0  0  0  0
  -13.2840    9.3190   -0.5520 C   0  0  2  0  0  0  0  0  0  0  0  0
  -14.2630    8.3830   -1.2900 C   0  0  0  0  0  0  0  0  0  0  0  0
  -14.5730    8.8240   -2.7230 C   0  0  0  0  0  0  0  0  0  0  0  0
  -15.2730   10.1500   -2.7560 C   0  0  2  0  0  0  0  0  0  0  0  0
  -15.0880   10.8940   -3.9670 O   0  0  0  0  0  0  0  0  0  0  0  0
  -14.5430   11.4800   -2.7730 C   0  0  0  0  0  0  0  0  0  0  0  0
  -13.0480   11.5510   -2.7570 C   0  0  0  0  0  0  0  0  0  0  0  0
  -15.2750   12.7030   -2.3140 C   0  0  0  0  0  0  0  0  0  0  0  0
  -11.9970    8.5720   -0.2250 C   0  0  1  0  0  0  0  0  0  0  0  0
  -12.2100    7.4410    0.8160 C   0  0  0  0  0  0  0  0  0  0  0  0
  -11.2420    6.2920    0.4320 C   0  0  0  0  0  0  0  0  0  0  0  0
  -10.2790    6.9210   -0.6020 C   0  0  1  0  0  0  0  0  0  0  0  0
   -9.2250    7.6930    0.2510 C   0  0  0  0  0  0  0  0  0  0  0  0
   -9.5990    5.9330   -1.6050 C   0  0  2  0  0  0  0  0  0  0  0  0
   -8.6820    4.8790   -0.9610 C   0  0  0  0  0  0  0  0  0  0  0  0
   -7.2500    5.2800   -0.8210 C   0  0  0  0  0  0  0  0  0  0  0  0
   -6.6630    6.3160   -1.4490 C   0  0  0  0  0  0  0  0  0  0  0  0
   -7.4330    7.1510   -2.4800 C   0  0  1  0  0  0  0  0  0  0  0  0
   -6.5530    7.3580   -3.7410 C   0  0  0  0  0  0  0  0  0  0  0  0
   -5.1880    7.9530   -3.4100 C   0  0  0  0  0  0  0  0  0  0  0  0
   -4.4290    7.0650   -2.4270 C   0  0  2  0  0  0  0  0  0  0  0  0
   -4.1080    5.8300   -3.0750 O   0  0  0  0  0  0  0  0  0  0  0  0
   -5.2220    6.7790   -1.1210 C   0  0  0  0  0  0  0  0  0  0  0  0
   -5.3090    8.0710   -0.2710 C   0  0  0  0  0  0  0  0  0  0  0  0
   -4.4070    5.7600   -0.2810 C   0  0  0  0  0  0  0  0  0  0  0  0
   -8.8960    6.6390   -2.8340 C   0  0  1  0  0  0  0  0  0  0  0  0
   -8.8270    5.5790   -3.9760 C   0  0  0  0  0  0  0  0  0  0  0  0
   -9.7400    7.8430   -3.3960 C   0  0  0  0  0  0  0  0  0  0  0  0
  -10.4850    8.7110   -2.3640 C   0  0  0  0  0  0  0  0  0  0  0  0
  -11.2840    7.8390   -1.3890 C   0  0  2  0  0  0  0  0  0  0  0  0
  -12.3680    7.0670   -2.2160 C   0  0  0  0  0  0  0  0  0  0  0  0
  -13.4093    9.4373    1.6039 H   0  0  0  0  0  0  0  0  0  0  0  0
  -13.7388   10.9838    0.7516 H   0  0  0  0  0  0  0  0  0  0  0  0
  -14.9721    9.6777    0.7516 H   0  0  0  0  0  0  0  0  0  0  0  0
  -13.0636   10.1628   -1.2223 H   0  0  0  0  0  0  0  0  0  0  0  0
  -13.8218    7.3760   -1.3242 H   0  0  0  0  0  0  0  0  0  0  0  0
  -15.2117    8.4065   -0.7338 H   0  0  0  0  0  0  0  0  0  0  0  0
  -13.6297    8.9048   -3.2831 H   0  0  0  0  0  0  0  0  0  0  0  0
  -15.2376    8.0739   -3.1765 H   0  0  0  0  0  0  0  0  0  0  0  0
  -16.0871    9.7633   -2.1254 H   0  0  0  0  0  0  0  0  0  0  0  0
  -12.6928   11.5679   -1.7160 H   0  0  0  0  0  0  0  0  0  0  0  0
  -12.6336   10.6715   -3.2716 H   0  0  0  0  0  0  0  0  0  0  0  0
  -12.7188   12.4658   -3.2716 H   0  0  0  0  0  0  0  0  0  0  0  0
  -15.2910   12.7297   -1.2144 H   0  0  0  0  0  0  0  0  0  0  0  0
  -14.7652   13.6001   -2.6952 H   0  0  0  0  0  0  0  0  0  0  0  0
  -16.3065   12.6776   -2.6952 H   0  0  0  0  0  0  0  0  0  0  0  0
  -11.3801    9.4133    0.1239 H   0  0  0  0  0  0  0  0  0  0  0  0
  -11.9799    7.8083    1.8270 H   0  0  0  0  0  0  0  0  0  0  0  0
  -13.2541    7.0949    0.8153 H   0  0  0  0  0  0  0  0  0  0  0  0
  -10.6878    5.9400    1.3146 H   0  0  0  0  0  0  0  0  0  0  0  0
  -11.7729    5.4170    0.0287 H   0  0  0  0  0  0  0  0  0  0  0  0
   -9.4347    7.5394    1.3198 H   0  0  0  0  0  0  0  0  0  0  0  0
   -8.2179    7.3174    0.0173 H   0  0  0  0  0  0  0  0  0  0  0  0
   -9.2793    8.7665    0.0173 H   0  0  0  0  0  0  0  0  0  0  0  0
  -10.4579    5.3755   -2.0069 H   0  0  0  0  0  0  0  0  0  0  0  0
   -9.0725    4.6565    0.0430 H   0  0  0  0  0  0  0  0  0  0  0  0
   -8.6908    4.0127   -1.6388 H   0  0  0  0  0  0  0  0  0  0  0  0
   -6.6220    4.6779   -0.1479 H   0  0  0  0  0  0  0  0  0  0  0  0
   -7.6301    8.1206   -1.9994 H   0  0  0  0  0  0  0  0  0  0  0  0
   -6.4040    6.3844   -4.2308 H   0  0  0  0  0  0  0  0  0  0  0  0
   -7.0754    8.0668   -4.4002 H   0  0  0  0  0  0  0  0  0  0  0  0
   -4.6022    8.0471   -4.3363 H   0  0  0  0  0  0  0  0  0  0  0  0
   -5.3381    8.9398   -2.9477 H   0  0  0  0  0  0  0  0  0  0  0  0
   -3.5188    7.6059   -2.1289 H   0  0  0  0  0  0  0  0  0  0  0  0
   -3.1940    5.6020   -2.8360 H   0  0  0  0  0  0  0  0  0  0  0  0
   -5.2914    7.8090    0.7972 H   0  0  0  0  0  0  0  0  0  0  0  0
   -4.4526    8.7211   -0.5033 H   0  0  0  0  0  0  0  0  0  0  0  0
   -6.2448    8.6004   -0.5033 H   0  0  0  0  0  0  0  0  0  0  0  0
   -4.5651    5.9576    0.7895 H   0  0  0  0  0  0  0  0  0  0  0  0
   -4.7405    4.7390   -0.5185 H   0  0  0  0  0  0  0  0  0  0  0  0
   -3.3377    5.8610   -0.5185 H   0  0  0  0  0  0  0  0  0  0  0  0
   -8.7615    4.5720   -3.5381 H   0  0  0  0  0  0  0  0  0  0  0  0
   -9.7317    5.6503   -4.5976 H   0  0  0  0  0  0  0  0  0  0  0  0
   -7.9392    5.7670   -4.5976 H   0  0  0  0  0  0  0  0  0  0  0  0
   -9.0538    8.5003   -3.9502 H   0  0  0  0  0  0  0  0  0  0  0  0
  -10.5296    7.3806   -4.0066 H   0  0  0  0  0  0  0  0  0  0  0  0
   -9.7527    9.3055   -1.7980 H   0  0  0  0  0  0  0  0  0  0  0  0
  -11.1843    9.3701   -2.8993 H   0  0  0  0  0  0  0  0  0  0  0  0
  -13.0675    6.5688   -1.5287 H   0  0  0  0  0  0  0  0  0  0  0  0
  -12.9198    7.7767   -2.8500 H   0  0  0  0  0  0  0  0  0  0  0  0
  -11.8777    6.3135   -2.8500 H   0  0  0  0  0  0  0  0  0  0  0  0
  1  2  1  0
  2  3  1  0
  3  4  1  0
  4  5  1  0
  5  6  1  0
  6  7  1  0
  7  8  1  0
  7  9  1  0
  2 10  1  0
 10 11  1  0
 11 12  1  0
 12 13  1  0
 13 14  1  1
 13 15  1  0
 15 16  1  0
 16 17  1  0
 17 18  2  0
 18 19  1  0
 19 20  1  0
 20 21  1  0
 21 22  1  0
 22 23  1  0
 22 24  1  0
 24 25  1  0
 24 26  1  0
 19 27  1  0
 27 28  1  6
 27 29  1  0
 29 30  1  0
 30 31  1  0
 31 32  1  6
  7  5  1  0
 31 10  1  0
 31 13  1  0
 27 15  1  0
 24 18  1  0
  1 33  1  0
  1 34  1  0
  1 35  1  0
  2 36  1  6
  3 37  1  0
  3 38  1  0
  4 39  1  0
  4 40  1  0
  5 41  1  1
  8 42  1  0
  8 43  1  0
  8 44  1  0
  9 45  1  0
  9 46  1  0
  9 47  1  0
 10 48  1  1
 11 49  1  0
 11 50  1  0
 12 51  1  0
 12 52  1  0
 14 53  1  0
 14 54  1  0
 14 55  1  0
 15 56  1  6
 16 57  1  0
 16 58  1  0
 17 59  1  0
 19 60  1  1
 20 61  1  0
 20 62  1  0
 21 63  1  0
 21 64  1  0
 22 65  1  1
 23 66  1  0
 25 67  1  0
 25 68  1  0
 25 69  1  0
 26 70  1  0
 26 71  1  0
 26 72  1  0
 28 73  1  0
 28 74  1  0
 28 75  1  0
 29 76  1  0
 29 77  1  0
 30 78  1  0
 30 79  1  0
 32 80  1  0
 32 81  1  0
 32 82  1  0
M  END
>  <meeko>  (7) 
{"is_sidechain": [false], "intermolecular_energy": 2.731, "internal_energy": -0.839}

$$$$
EPH_relaxed_0001_pdb2pqr_Repair_186_r2_0001_out
     RDKit          3D

 82 86  0  0  0  0  0  0  0  0999 V2000
  -13.5380   10.2240   -0.9470 C   0  0  0  0  0  0  0  0  0  0  0  0
  -13.0500    8.9550   -1.6510 C   0  0  2  0  0  0  0  0  0  0  0  0
  -14.0610    7.7980   -1.5300 C   0  0  0  0  0  0  0  0  0  0  0  0
  -15.2810    7.9480   -2.4430 C   0  0  0  0  0  0  0  0  0  0  0  0
  -15.0410    7.3420   -3.7930 C   0  0  2  0  0  0  0  0  0  0  0  0
  -13.8230    7.7540   -4.4260 O   0  0  0  0  0  0  0  0  0  0  0  0
  -15.0410    8.1430   -5.0810 C   0  0  0  0  0  0  0  0  0  0  0  0
  -15.2870    9.6190   -5.0820 C   0  0  0  0  0  0  0  0  0  0  0  0
  -15.2870    7.4240   -6.3710 C   0  0  0  0  0  0  0  0  0  0  0  0
  -11.7010    8.5300   -1.0820 C   0  0  1  0  0  0  0  0  0  0  0  0
  -11.8340    7.7710    0.2650 C   0  0  0  0  0  0  0  0  0  0  0  0
  -10.7140    6.7000    0.2870 C   0  0  0  0  0  0  0  0  0  0  0  0
   -9.7780    7.0900   -0.8800 C   0  0  1  0  0  0  0  0  0  0  0  0
   -8.8750    8.2270   -0.3070 C   0  0  0  0  0  0  0  0  0  0  0  0
   -8.9270    5.9340   -1.5000 C   0  0  2  0  0  0  0  0  0  0  0  0
   -7.9260    5.2720   -0.5370 C   0  0  0  0  0  0  0  0  0  0  0  0
   -6.5640    5.8840   -0.5140 C   0  0  0  0  0  0  0  0  0  0  0  0
   -6.0730    6.7340   -1.4340 C   0  0  0  0  0  0  0  0  0  0  0  0
   -6.8790    7.0870   -2.6900 C   0  0  1  0  0  0  0  0  0  0  0  0
   -5.9600    6.9980   -3.9370 C   0  0  0  0  0  0  0  0  0  0  0  0
   -4.6990    7.8440   -3.7960 C   0  0  0  0  0  0  0  0  0  0  0  0
   -3.8940    7.4240   -2.5690 C   0  0  2  0  0  0  0  0  0  0  0  0
   -3.3890    6.1020   -2.7780 O   0  0  0  0  0  0  0  0  0  0  0  0
   -4.7200    7.4660   -1.2520 C   0  0  0  0  0  0  0  0  0  0  0  0
   -5.0100    8.9370   -0.8660 C   0  0  0  0  0  0  0  0  0  0  0  0
   -3.8350    6.8850   -0.1160 C   0  0  0  0  0  0  0  0  0  0  0  0
   -8.2460    6.2990   -2.8810 C   0  0  1  0  0  0  0  0  0  0  0  0
   -7.9840    4.9510   -3.6190 C   0  0  0  0  0  0  0  0  0  0  0  0
   -9.1970    7.1380   -3.8140 C   0  0  0  0  0  0  0  0  0  0  0  0
  -10.0990    8.1820   -3.1280 C   0  0  0  0  0  0  0  0  0  0  0  0
  -10.8400    7.5670   -1.9370 C   0  0  2  0  0  0  0  0  0  0  0  0
  -11.7730    6.4350   -2.4850 C   0  0  0  0  0  0  0  0  0  0  0  0
  -13.4837   10.0828    0.1425 H   0  0  0  0  0  0  0  0  0  0  0  0
  -12.9022   11.0728   -1.2389 H   0  0  0  0  0  0  0  0  0  0  0  0
  -14.5787   10.4281   -1.2389 H   0  0  0  0  0  0  0  0  0  0  0  0
  -12.9446    9.1904   -2.7203 H   0  0  0  0  0  0  0  0  0  0  0  0
  -13.5476    6.8600   -1.7879 H   0  0  0  0  0  0  0  0  0  0  0  0
  -14.4322    7.8027   -0.4945 H   0  0  0  0  0  0  0  0  0  0  0  0
  -16.1406    7.4462   -1.9747 H   0  0  0  0  0  0  0  0  0  0  0  0
  -15.4775    9.0217   -2.5791 H   0  0  0  0  0  0  0  0  0  0  0  0
  -15.5626    6.4196   -3.4978 H   0  0  0  0  0  0  0  0  0  0  0  0
  -15.3474    9.9814   -4.0452 H   0  0  0  0  0  0  0  0  0  0  0  0
  -14.4613   10.1280   -5.6008 H   0  0  0  0  0  0  0  0  0  0  0  0
  -16.2331    9.8327   -5.6008 H   0  0  0  0  0  0  0  0  0  0  0  0
  -15.6365    6.4025   -6.1605 H   0  0  0  0  0  0  0  0  0  0  0  0
  -16.0524    7.9614   -6.9501 H   0  0  0  0  0  0  0  0  0  0  0  0
  -14.3528    7.3799   -6.9501 H   0  0  0  0  0  0  0  0  0  0  0  0
  -11.2112    9.5126   -1.0145 H   0  0  0  0  0  0  0  0  0  0  0  0
  -11.7082    8.4680    1.1066 H   0  0  0  0  0  0  0  0  0  0  0  0
  -12.8266    7.3066    0.3604 H   0  0  0  0  0  0  0  0  0  0  0  0
  -10.1722    6.7244    1.2440 H   0  0  0  0  0  0  0  0  0  0  0  0
  -11.1106    5.6796    0.1803 H   0  0  0  0  0  0  0  0  0  0  0  0
   -8.8997    8.1960    0.7923 H   0  0  0  0  0  0  0  0  0  0  0  0
   -7.8412    8.0846   -0.6547 H   0  0  0  0  0  0  0  0  0  0  0  0
   -9.2478    9.2017   -0.6547 H   0  0  0  0  0  0  0  0  0  0  0  0
   -9.6880    5.1686   -1.7122 H   0  0  0  0  0  0  0  0  0  0  0  0
   -8.3424    5.3307    0.4795 H   0  0  0  0  0  0  0  0  0  0  0  0
   -7.7911    4.2419   -0.8986 H   0  0  0  0  0  0  0  0  0  0  0  0
   -5.9064    5.6172    0.3265 H   0  0  0  0  0  0  0  0  0  0  0  0
   -7.2201    8.1235   -2.5513 H   0  0  0  0  0  0  0  0  0  0  0  0
   -5.6657    5.9483   -4.0839 H   0  0  0  0  0  0  0  0  0  0  0  0
   -6.5264    7.3840   -4.7973 H   0  0  0  0  0  0  0  0  0  0  0  0
   -4.0778    7.7167   -4.6948 H   0  0  0  0  0  0  0  0  0  0  0  0
   -4.9943    8.8970   -3.6782 H   0  0  0  0  0  0  0  0  0  0  0  0
   -3.0738    8.1471   -2.4492 H   0  0  0  0  0  0  0  0  0  0  0  0
   -2.8030    5.8890   -2.0330 H   0  0  0  0  0  0  0  0  0  0  0  0
   -5.0287    9.0317    0.2298 H   0  0  0  0  0  0  0  0  0  0  0  0
   -4.2225    9.5859   -1.2768 H   0  0  0  0  0  0  0  0  0  0  0  0
   -5.9849    9.2385   -1.2768 H   0  0  0  0  0  0  0  0  0  0  0  0
   -4.2603    7.1642    0.8593 H   0  0  0  0  0  0  0  0  0  0  0  0
   -3.8018    5.7888   -0.2013 H   0  0  0  0  0  0  0  0  0  0  0  0
   -2.8160    7.2904   -0.2013 H   0  0  0  0  0  0  0  0  0  0  0  0
   -7.8287    4.1520   -2.8790 H   0  0  0  0  0  0  0  0  0  0  0  0
   -8.8509    4.7036   -4.2493 H   0  0  0  0  0  0  0  0  0  0  0  0
   -7.0876    5.0463   -4.2493 H   0  0  0  0  0  0  0  0  0  0  0  0
   -8.5656    7.6700   -4.5408 H   0  0  0  0  0  0  0  0  0  0  0  0
   -9.8888    6.4047   -4.2541 H   0  0  0  0  0  0  0  0  0  0  0  0
   -9.4773    9.0171   -2.7729 H   0  0  0  0  0  0  0  0  0  0  0  0
  -10.8413    8.5382   -3.8575 H   0  0  0  0  0  0  0  0  0  0  0  0
  -12.2223    5.8899   -1.6418 H   0  0  0  0  0  0  0  0  0  0  0  0
  -12.5691    6.8812   -3.0991 H   0  0  0  0  0  0  0  0  0  0  0  0
  -11.1830    5.7387   -3.0991 H   0  0  0  0  0  0  0  0  0  0  0  0
  1  2  1  0
  2  3  1  0
  3  4  1  0
  4  5  1  0
  5  6  1  0
  6  7  1  0
  7  8  1  0
  7  9  1  0
  2 10  1  0
 10 11  1  0
 11 12  1  0
 12 13  1  0
 13 14  1  1
 13 15  1  0
 15 16  1  0
 16 17  1  0
 17 18  2  0
 18 19  1  0
 19 20  1  0
 20 21  1  0
 21 22  1  0
 22 23  1  0
 22 24  1  0
 24 25  1  0
 24 26  1  0
 19 27  1  0
 27 28  1  6
 27 29  1  0
 29 30  1  0
 30 31  1  0
 31 32  1  6
  7  5  1  0
 31 10  1  0
 31 13  1  0
 27 15  1  0
 24 18  1  0
  1 33  1  0
  1 34  1  0
  1 35  1  0
  2 36  1  6
  3 37  1  0
  3 38  1  0
  4 39  1  0
  4 40  1  0
  5 41  1  6
  8 42  1  0
  8 43  1  0
  8 44  1  0
  9 45  1  0
  9 46  1  0
  9 47  1  0
 10 48  1  1
 11 49  1  0
 11 50  1  0
 12 51  1  0
 12 52  1  0
 14 53  1  0
 14 54  1  0
 14 55  1  0
 15 56  1  6
 16 57  1  0
 16 58  1  0
 17 59  1  0
 19 60  1  1
 20 61  1  0
 20 62  1  0
 21 63  1  0
 21 64  1  0
 22 65  1  1
 23 66  1  0
 25 67  1  0
 25 68  1  0
 25 69  1  0
 26 70  1  0
 26 71  1  0
 26 72  1  0
 28 73  1  0
 28 74  1  0
 28 75  1  0
 29 76  1  0
 29 77  1  0
 30 78  1  0
 30 79  1  0
 32 80  1  0
 32 81  1  0
 32 82  1  0
M  END
>  <meeko>  (8) 
{"is_sidechain": [false], "intermolecular_energy": 2.731, "internal_energy": -0.839}

$$$$
EPH_relaxed_0001_pdb2pqr_Repair_186_r2_0001_out
     RDKit          3D

 82 86  0  0  0  0  0  0  0  0999 V2000
  -12.4990   10.3870   -2.2610 C   0  0  0  0  0  0  0  0  0  0  0  0
  -12.6870    9.2630   -1.2380 C   0  0  2  0  0  0  0  0  0  0  0  0
  -13.5420    9.7100   -0.0360 C   0  0  0  0  0  0  0  0  0  0  0  0
  -14.8900    8.9890    0.0630 C   0  0  0  0  0  0  0  0  0  0  0  0
  -14.7630    7.6690    0.7610 C   0  0  2  0  0  0  0  0  0  0  0  0
  -13.6420    6.8780    0.3460 O   0  0  0  0  0  0  0  0  0  0  0  0
  -14.9420    6.3340    0.0640 C   0  0  0  0  0  0  0  0  0  0  0  0
  -15.2650    6.2520   -1.3950 C   0  0  0  0  0  0  0  0  0  0  0  0
  -15.2860    5.1350    0.8930 C   0  0  0  0  0  0  0  0  0  0  0  0
  -11.3290    8.7670   -0.7560 C   0  0  1  0  0  0  0  0  0  0  0  0
  -11.4200    7.9860    0.5820 C   0  0  0  0  0  0  0  0  0  0  0  0
  -10.3500    6.8650    0.5190 C   0  0  0  0  0  0  0  0  0  0  0  0
   -9.4650    7.2380   -0.6930 C   0  0  1  0  0  0  0  0  0  0  0  0
   -8.4800    8.3210   -0.1520 C   0  0  0  0  0  0  0  0  0  0  0  0
   -8.7050    6.0590   -1.3820 C   0  0  2  0  0  0  0  0  0  0  0  0
   -7.6820    5.3330   -0.4910 C   0  0  0  0  0  0  0  0  0  0  0  0
   -6.2940    5.8820   -0.5350 C   0  0  0  0  0  0  0  0  0  0  0  0
   -5.8180    6.7290   -1.4660 C   0  0  0  0  0  0  0  0  0  0  0  0
   -6.6770    7.1440   -2.6670 C   0  0  1  0  0  0  0  0  0  0  0  0
   -5.8360    7.0400   -3.9670 C   0  0  0  0  0  0  0  0  0  0  0  0
   -4.5310    7.8260   -3.8840 C   0  0  0  0  0  0  0  0  0  0  0  0
   -3.6780    7.3450   -2.7120 C   0  0  2  0  0  0  0  0  0  0  0  0
   -3.2470    6.0060   -2.9760 O   0  0  0  0  0  0  0  0  0  0  0  0
   -4.4250    7.3950   -1.3500 C   0  0  0  0  0  0  0  0  0  0  0  0
   -4.6250    8.8700   -0.9200 C   0  0  0  0  0  0  0  0  0  0  0  0
   -3.5040    6.7520   -0.2770 C   0  0  0  0  0  0  0  0  0  0  0  0
   -8.0870    6.4220   -2.7930 C   0  0  1  0  0  0  0  0  0  0  0  0
   -7.9300    5.0790   -3.5700 C   0  0  0  0  0  0  0  0  0  0  0  0
   -9.0510    7.3220   -3.6540 C   0  0  0  0  0  0  0  0  0  0  0  0
   -9.8640    8.3900   -2.8980 C   0  0  0  0  0  0  0  0  0  0  0  0
  -10.5630    7.7840   -1.6770 C   0  0  2  0  0  0  0  0  0  0  0  0
  -11.5770    6.7070   -2.1920 C   0  0  0  0  0  0  0  0  0  0  0  0
  -12.3397   11.3394   -1.7342 H   0  0  0  0  0  0  0  0  0  0  0  0
  -11.6253   10.1663   -2.8918 H   0  0  0  0  0  0  0  0  0  0  0  0
  -13.3970   10.4626   -2.8918 H   0  0  0  0  0  0  0  0  0  0  0  0
  -13.2248    8.4449   -1.7395 H   0  0  0  0  0  0  0  0  0  0  0  0
  -12.9747    9.5138    0.8858 H   0  0  0  0  0  0  0  0  0  0  0  0
  -13.7589   10.7793   -0.1758 H   0  0  0  0  0  0  0  0  0  0  0  0
  -15.5928    9.6226    0.6239 H   0  0  0  0  0  0  0  0  0  0  0  0
  -15.2551    8.8032   -0.9579 H   0  0  0  0  0  0  0  0  0  0  0  0
  -15.2011    8.0859    1.6798 H   0  0  0  0  0  0  0  0  0  0  0  0
  -16.3241    5.9831   -1.5215 H   0  0  0  0  0  0  0  0  0  0  0  0
  -15.0752    7.2268   -1.8679 H   0  0  0  0  0  0  0  0  0  0  0  0
  -14.6332    5.4858   -1.8679 H   0  0  0  0  0  0  0  0  0  0  0  0
  -15.2119    5.3932    1.9597 H   0  0  0  0  0  0  0  0  0  0  0  0
  -16.3127    4.8133    0.6641 H   0  0  0  0  0  0  0  0  0  0  0  0
  -14.5861    4.3179    0.6641 H   0  0  0  0  0  0  0  0  0  0  0  0
  -10.7917    9.7252   -0.6988 H   0  0  0  0  0  0  0  0  0  0  0  0
  -11.2148    8.6585    1.4279 H   0  0  0  0  0  0  0  0  0  0  0  0
  -12.4258    7.5645    0.7258 H   0  0  0  0  0  0  0  0  0  0  0  0
   -9.7540    6.8447    1.4433 H   0  0  0  0  0  0  0  0  0  0  0  0
  -10.7983    5.8658    0.4163 H   0  0  0  0  0  0  0  0  0  0  0  0
   -8.4905    8.3095    0.9479 H   0  0  0  0  0  0  0  0  0  0  0  0
   -7.4632    8.1041   -0.5113 H   0  0  0  0  0  0  0  0  0  0  0  0
   -8.7921    9.3127   -0.5113 H   0  0  0  0  0  0  0  0  0  0  0  0
   -9.5115    5.3334   -1.5639 H   0  0  0  0  0  0  0  0  0  0  0  0
   -8.0368    5.3890    0.5487 H   0  0  0  0  0  0  0  0  0  0  0  0
   -7.6153    4.3060   -0.8793 H   0  0  0  0  0  0  0  0  0  0  0  0
   -5.6025    5.5676    0.2606 H   0  0  0  0  0  0  0  0  0  0  0  0
   -6.9611    8.1918   -2.4897 H   0  0  0  0  0  0  0  0  0  0  0  0
   -5.5991    5.9815   -4.1500 H   0  0  0  0  0  0  0  0  0  0  0  0
   -6.4325    7.4687   -4.7858 H   0  0  0  0  0  0  0  0  0  0  0  0
   -3.9681    7.6890   -4.8191 H   0  0  0  0  0  0  0  0  0  0  0  0
   -4.7702    8.8888   -3.7314 H   0  0  0  0  0  0  0  0  0  0  0  0
   -2.8207    8.0286   -2.6243 H   0  0  0  0  0  0  0  0  0  0  0  0
   -3.5990    5.4400   -2.2690 H   0  0  0  0  0  0  0  0  0  0  0  0
   -4.6337    8.9338    0.1781 H   0  0  0  0  0  0  0  0  0  0  0  0
   -3.8017    9.4824   -1.3164 H   0  0  0  0  0  0  0  0  0  0  0  0
   -5.5817    9.2410   -1.3164 H   0  0  0  0  0  0  0  0  0  0  0  0
   -3.8740    7.0103    0.7262 H   0  0  0  0  0  0  0  0  0  0  0  0
   -3.5071    5.6588   -0.3987 H   0  0  0  0  0  0  0  0  0  0  0  0
   -2.4788    7.1316   -0.3987 H   0  0  0  0  0  0  0  0  0  0  0  0
   -7.8331    4.2500   -2.8535 H   0  0  0  0  0  0  0  0  0  0  0  0
   -8.8152    4.9156   -4.2023 H   0  0  0  0  0  0  0  0  0  0  0  0
   -7.0310    5.1241   -4.2023 H   0  0  0  0  0  0  0  0  0  0  0  0
   -8.4386    7.8407   -4.4062 H   0  0  0  0  0  0  0  0  0  0  0  0
   -9.7993    6.6294   -4.0667 H   0  0  0  0  0  0  0  0  0  0  0  0
   -9.1859    9.1893   -2.5646 H   0  0  0  0  0  0  0  0  0  0  0  0
  -10.6301    8.7933   -3.5766 H   0  0  0  0  0  0  0  0  0  0  0  0
  -12.0481    6.2066   -1.3331 H   0  0  0  0  0  0  0  0  0  0  0  0
  -12.3514    7.1947   -2.8023 H   0  0  0  0  0  0  0  0  0  0  0  0
  -11.0436    5.9633   -2.8023 H   0  0  0  0  0  0  0  0  0  0  0  0
  1  2  1  0
  2  3  1  0
  3  4  1  0
  4  5  1  0
  5  6  1  0
  6  7  1  0
  7  8  1  0
  7  9  1  0
  2 10  1  0
 10 11  1  0
 11 12  1  0
 12 13  1  0
 13 14  1  1
 13 15  1  0
 15 16  1  0
 16 17  1  0
 17 18  2  0
 18 19  1  0
 19 20  1  0
 20 21  1  0
 21 22  1  0
 22 23  1  0
 22 24  1  0
 24 25  1  0
 24 26  1  0
 19 27  1  0
 27 28  1  6
 27 29  1  0
 29 30  1  0
 30 31  1  0
 31 32  1  6
  7  5  1  0
 31 10  1  0
 31 13  1  0
 27 15  1  0
 24 18  1  0
  1 33  1  0
  1 34  1  0
  1 35  1  0
  2 36  1  6
  3 37  1  0
  3 38  1  0
  4 39  1  0
  4 40  1  0
  5 41  1  1
  8 42  1  0
  8 43  1  0
  8 44  1  0
  9 45  1  0
  9 46  1  0
  9 47  1  0
 10 48  1  1
 11 49  1  0
 11 50  1  0
 12 51  1  0
 12 52  1  0
 14 53  1  0
 14 54  1  0
 14 55  1  0
 15 56  1  6
 16 57  1  0
 16 58  1  0
 17 59  1  0
 19 60  1  1
 20 61  1  0
 20 62  1  0
 21 63  1  0
 21 64  1  0
 22 65  1  1
 23 66  1  0
 25 67  1  0
 25 68  1  0
 25 69  1  0
 26 70  1  0
 26 71  1  0
 26 72  1  0
 28 73  1  0
 28 74  1  0
 28 75  1  0
 29 76  1  0
 29 77  1  0
 30 78  1  0
 30 79  1  0
 32 80  1  0
 32 81  1  0
 32 82  1  0
M  END
>  <meeko>  (9) 
{"is_sidechain": [false], "intermolecular_energy": 2.731, "internal_energy": -0.839}

$$$$
EPH_relaxed_0001_pdb2pqr_Repair_186_r2_0001_out
     RDKit          3D

 82 86  0  0  0  0  0  0  0  0999 V2000
  -11.4620    8.8670   -2.6470 C   0  0  0  0  0  0  0  0  0  0  0  0
  -11.0360    7.5890   -1.9200 C   0  0  2  0  0  0  0  0  0  0  0  0
  -12.1000    7.1130   -0.9110 C   0  0  0  0  0  0  0  0  0  0  0  0
  -13.5150    7.5990   -1.2330 C   0  0  0  0  0  0  0  0  0  0  0  0
  -13.7120    9.0320   -0.8380 C   0  0  2  0  0  0  0  0  0  0  0  0
  -15.0670    9.3890   -0.5360 O   0  0  0  0  0  0  0  0  0  0  0  0
  -14.4810   10.0330   -1.6800 C   0  0  0  0  0  0  0  0  0  0  0  0
  -15.1040    9.6420   -2.9830 C   0  0  0  0  0  0  0  0  0  0  0  0
  -14.2140   11.4920   -1.4780 C   0  0  0  0  0  0  0  0  0  0  0  0
   -9.7070    7.8140   -1.2080 C   0  0  1  0  0  0  0  0  0  0  0  0
   -9.7910    7.5370    0.3160 C   0  0  0  0  0  0  0  0  0  0  0  0
   -8.4260    6.9340    0.7370 C   0  0  0  0  0  0  0  0  0  0  0  0
   -7.4970    7.1910   -0.4720 C   0  0  1  0  0  0  0  0  0  0  0  0
   -7.0340    8.6730   -0.3150 C   0  0  0  0  0  0  0  0  0  0  0  0
   -6.2810    6.2200   -0.6280 C   0  0  2  0  0  0  0  0  0  0  0  0
   -5.2660    6.2540    0.5270 C   0  0  0  0  0  0  0  0  0  0  0  0
   -4.1480    7.2300    0.3640 C   0  0  0  0  0  0  0  0  0  0  0  0
   -3.8030    7.8400   -0.7850 C   0  0  0  0  0  0  0  0  0  0  0  0
   -4.5090    7.4940   -2.1030 C   0  0  1  0  0  0  0  0  0  0  0  0
   -3.4500    7.2900   -3.2180 C   0  0  0  0  0  0  0  0  0  0  0  0
   -2.5080    8.4830   -3.3560 C   0  0  0  0  0  0  0  0  0  0  0  0
   -1.7830    8.7590   -2.0420 C   0  0  2  0  0  0  0  0  0  0  0  0
   -0.9010    7.6670   -1.7630 O   0  0  0  0  0  0  0  0  0  0  0  0
   -2.7480    8.9720   -0.8420 C   0  0  0  0  0  0  0  0  0  0  0  0
   -3.4900   10.3210   -1.0040 C   0  0  0  0  0  0  0  0  0  0  0  0
   -1.8880    9.1000    0.4440 C   0  0  0  0  0  0  0  0  0  0  0  0
   -5.5600    6.3040   -2.0340 C   0  0  1  0  0  0  0  0  0  0  0  0
   -4.8350    4.9400   -2.2460 C   0  0  0  0  0  0  0  0  0  0  0  0
   -6.5820    6.4530   -3.2230 C   0  0  0  0  0  0  0  0  0  0  0  0
   -7.8230    7.3290   -2.9670 C   0  0  0  0  0  0  0  0  0  0  0  0
   -8.5060    6.9420   -1.6520 C   0  0  2  0  0  0  0  0  0  0  0  0
   -9.0020    5.4620   -1.7880 C   0  0  0  0  0  0  0  0  0  0  0  0
  -11.7198    9.6404   -1.9085 H   0  0  0  0  0  0  0  0  0  0  0  0
  -10.6341    9.2235   -3.2775 H   0  0  0  0  0  0  0  0  0  0  0  0
  -12.3382    8.6555   -3.2775 H   0  0  0  0  0  0  0  0  0  0  0  0
  -10.9228    6.7996   -2.6777 H   0  0  0  0  0  0  0  0  0  0  0  0
  -12.1040    6.0130   -0.9037 H   0  0  0  0  0  0  0  0  0  0  0  0
  -11.8289    7.5386    0.0664 H   0  0  0  0  0  0  0  0  0  0  0  0
  -13.6884    7.5002   -2.3147 H   0  0  0  0  0  0  0  0  0  0  0  0
  -14.2270    6.9848   -0.6622 H   0  0  0  0  0  0  0  0  0  0  0  0
  -12.7132    9.0675   -0.3785 H   0  0  0  0  0  0  0  0  0  0  0  0
  -16.0216    9.0661   -2.7925 H   0  0  0  0  0  0  0  0  0  0  0  0
  -15.3516   10.5470   -3.5572 H   0  0  0  0  0  0  0  0  0  0  0  0
  -14.3967    9.0255   -3.5572 H   0  0  0  0  0  0  0  0  0  0  0  0
  -14.1738   11.7117   -0.4009 H   0  0  0  0  0  0  0  0  0  0  0  0
  -13.2525   11.7565   -1.9423 H   0  0  0  0  0  0  0  0  0  0  0  0
  -15.0195   12.0799   -1.9423 H   0  0  0  0  0  0  0  0  0  0  0  0
   -9.5288    8.8652   -1.4785 H   0  0  0  0  0  0  0  0  0  0  0  0
   -9.9756    8.4741    0.8617 H   0  0  0  0  0  0  0  0  0  0  0  0
  -10.6158    6.8468    0.5471 H   0  0  0  0  0  0  0  0  0  0  0  0
   -8.0405    7.4360    1.6366 H   0  0  0  0  0  0  0  0  0  0  0  0
   -8.5009    5.8652    0.9859 H   0  0  0  0  0  0  0  0  0  0  0  0
   -6.9563    8.9216    0.7537 H   0  0  0  0  0  0  0  0  0  0  0  0
   -6.0524    8.8032   -0.7940 H   0  0  0  0  0  0  0  0  0  0  0  0
   -7.7669    9.3388   -0.7940 H   0  0  0  0  0  0  0  0  0  0  0  0
   -6.7610    5.2317   -0.5743 H   0  0  0  0  0  0  0  0  0  0  0  0
   -5.8086    6.5094    1.4491 H   0  0  0  0  0  0  0  0  0  0  0  0
   -4.7997    5.2580    0.5522 H   0  0  0  0  0  0  0  0  0  0  0  0
   -3.5559    7.4710    1.2592 H   0  0  0  0  0  0  0  0  0  0  0  0
   -5.1445    8.3586   -2.3452 H   0  0  0  0  0  0  0  0  0  0  0  0
   -2.8546    6.3963   -2.9795 H   0  0  0  0  0  0  0  0  0  0  0  0
   -3.9867    7.1764   -4.1714 H   0  0  0  0  0  0  0  0  0  0  0  0
   -1.7656    8.2671   -4.1385 H   0  0  0  0  0  0  0  0  0  0  0  0
   -3.1010    9.3701   -3.6233 H   0  0  0  0  0  0  0  0  0  0  0  0
   -1.2245    9.6986   -2.1652 H   0  0  0  0  0  0  0  0  0  0  0  0
   -0.5970    7.7610   -0.8450 H   0  0  0  0  0  0  0  0  0  0  0  0
   -3.7180   10.7356   -0.0110 H   0  0  0  0  0  0  0  0  0  0  0  0
   -2.8526   11.0258   -1.5581 H   0  0  0  0  0  0  0  0  0  0  0  0
   -4.4265   10.1601   -1.5581 H   0  0  0  0  0  0  0  0  0  0  0  0
   -2.5347    9.0038    1.3286 H   0  0  0  0  0  0  0  0  0  0  0  0
   -1.1277    8.3051    0.4573 H   0  0  0  0  0  0  0  0  0  0  0  0
   -1.3922   10.0818    0.4573 H   0  0  0  0  0  0  0  0  0  0  0  0
   -4.5983    4.4947   -1.2684 H   0  0  0  0  0  0  0  0  0  0  0  0
   -5.4907    4.2600   -2.8096 H   0  0  0  0  0  0  0  0  0  0  0  0
   -3.9045    5.1030   -2.8096 H   0  0  0  0  0  0  0  0  0  0  0  0
   -6.0392    6.8862   -4.0760 H   0  0  0  0  0  0  0  0  0  0  0  0
   -6.9752    5.4398   -3.3931 H   0  0  0  0  0  0  0  0  0  0  0  0
   -7.5145    8.3836   -2.9154 H   0  0  0  0  0  0  0  0  0  0  0  0
   -8.5360    7.1760   -3.7906 H   0  0  0  0  0  0  0  0  0  0  0  0
   -9.1467    5.0303   -0.7866 H   0  0  0  0  0  0  0  0  0  0  0  0
   -9.9554    5.4437   -2.3364 H   0  0  0  0  0  0  0  0  0  0  0  0
   -8.2522    4.8729   -2.3364 H   0  0  0  0  0  0  0  0  0  0  0  0
  1  2  1  0
  2  3  1  0
  3  4  1  0
  4  5  1  0
  5  6  1  0
  6  7  1  0
  7  8  1  0
  7  9  1  0
  2 10  1  0
 10 11  1  0
 11 12  1  0
 12 13  1  0
 13 14  1  1
 13 15  1  0
 15 16  1  0
 16 17  1  0
 17 18  2  0
 18 19  1  0
 19 20  1  0
 20 21  1  0
 21 22  1  0
 22 23  1  0
 22 24  1  0
 24 25  1  0
 24 26  1  0
 19 27  1  0
 27 28  1  6
 27 29  1  0
 29 30  1  0
 30 31  1  0
 31 32  1  6
  7  5  1  0
 31 10  1  0
 31 13  1  0
 27 15  1  0
 24 18  1  0
  1 33  1  0
  1 34  1  0
  1 35  1  0
  2 36  1  6
  3 37  1  0
  3 38  1  0
  4 39  1  0
  4 40  1  0
  5 41  1  1
  8 42  1  0
  8 43  1  0
  8 44  1  0
  9 45  1  0
  9 46  1  0
  9 47  1  0
 10 48  1  1
 11 49  1  0
 11 50  1  0
 12 51  1  0
 12 52  1  0
 14 53  1  0
 14 54  1  0
 14 55  1  0
 15 56  1  6
 16 57  1  0
 16 58  1  0
 17 59  1  0
 19 60  1  6
 20 61  1  0
 20 62  1  0
 21 63  1  0
 21 64  1  0
 22 65  1  6
 23 66  1  0
 25 67  1  0
 25 68  1  0
 25 69  1  0
 26 70  1  0
 26 71  1  0
 26 72  1  0
 28 73  1  0
 28 74  1  0
 28 75  1  0
 29 76  1  0
 29 77  1  0
 30 78  1  0
 30 79  1  0
 32 80  1  0
 32 81  1  0
 32 82  1  0
M  END
>  <meeko>  (10) 
{"is_sidechain": [false], "intermolecular_energy": 2.731, "internal_energy": -0.839}

$$$$
EPH_relaxed_0001_pdb2pqr_Repair_186_r2_0001_out
     RDKit          3D

 82 86  0  0  0  0  0  0  0  0999 V2000
   -5.0430    9.3850   -0.4240 C   0  0  0  0  0  0  0  0  0  0  0  0
   -5.2530    8.2760   -1.4590 C   0  0  2  0  0  0  0  0  0  0  0  0
   -4.2570    8.3800   -2.6310 C   0  0  0  0  0  0  0  0  0  0  0  0
   -3.5120    7.0750   -2.9240 C   0  0  0  0  0  0  0  0  0  0  0  0
   -4.1130    5.9160   -2.1880 C   0  0  2  0  0  0  0  0  0  0  0  0
   -3.7460    4.6270   -2.6970 O   0  0  0  0  0  0  0  0  0  0  0  0
   -5.1360    4.9770   -2.7990 C   0  0  0  0  0  0  0  0  0  0  0  0
   -5.6170    5.1550   -4.2050 C   0  0  0  0  0  0  0  0  0  0  0  0
   -6.0230    4.1910   -1.8840 C   0  0  0  0  0  0  0  0  0  0  0  0
   -6.6830    8.3190   -1.9840 C   0  0  1  0  0  0  0  0  0  0  0  0
   -6.8290    7.6440   -3.3740 C   0  0  0  0  0  0  0  0  0  0  0  0
   -8.2240    6.9670   -3.3980 C   0  0  0  0  0  0  0  0  0  0  0  0
   -8.9600    7.5470   -2.1680 C   0  0  1  0  0  0  0  0  0  0  0  0
   -9.4880    8.9400   -2.6370 C   0  0  0  0  0  0  0  0  0  0  0  0
  -10.1050    6.6670   -1.5700 C   0  0  2  0  0  0  0  0  0  0  0  0
  -11.2890    6.4050   -2.5170 C   0  0  0  0  0  0  0  0  0  0  0  0
  -12.3980    7.4010   -2.4430 C   0  0  0  0  0  0  0  0  0  0  0  0
  -12.5780    8.2990   -1.4570 C   0  0  0  0  0  0  0  0  0  0  0  0
  -11.6650    8.3080   -0.2240 C   0  0  1  0  0  0  0  0  0  0  0  0
  -12.5300    8.4210    1.0600 C   0  0  0  0  0  0  0  0  0  0  0  0
  -13.4750    9.6180    1.0250 C   0  0  0  0  0  0  0  0  0  0  0  0
  -14.4060    9.5430   -0.1830 C   0  0  2  0  0  0  0  0  0  0  0  0
  -15.2850    8.4260   -0.0200 O   0  0  0  0  0  0  0  0  0  0  0  0
  -13.6470    9.4170   -1.5340 C   0  0  0  0  0  0  0  0  0  0  0  0
  -12.9310   10.7530   -1.8560 C   0  0  0  0  0  0  0  0  0  0  0  0
  -14.7000    9.2080   -2.6560 C   0  0  0  0  0  0  0  0  0  0  0  0
  -10.6010    7.1310   -0.1410 C   0  0  1  0  0  0  0  0  0  0  0  0
  -11.2410    5.8810    0.5370 C   0  0  0  0  0  0  0  0  0  0  0  0
   -9.4110    7.5790    0.7890 C   0  0  0  0  0  0  0  0  0  0  0  0
   -8.2530    8.3410    0.1160 C   0  0  0  0  0  0  0  0  0  0  0  0
   -7.7720    7.6100   -1.1410 C   0  0  2  0  0  0  0  0  0  0  0  0
   -7.2140    6.2140   -0.6980 C   0  0  0  0  0  0  0  0  0  0  0  0
   -5.1231    8.9618    0.5882 H   0  0  0  0  0  0  0  0  0  0  0  0
   -4.0451    9.8278   -0.5584 H   0  0  0  0  0  0  0  0  0  0  0  0
   -5.8100   10.1620   -0.5584 H   0  0  0  0  0  0  0  0  0  0  0  0
   -5.0711    7.3147   -0.9561 H   0  0  0  0  0  0  0  0  0  0  0  0
   -4.8128    8.6727   -3.5340 H   0  0  0  0  0  0  0  0  0  0  0  0
   -3.4999    9.1246   -2.3440 H   0  0  0  0  0  0  0  0  0  0  0  0
   -3.5576    6.8734   -4.0044 H   0  0  0  0  0  0  0  0  0  0  0  0
   -2.4710    7.1917   -2.5882 H   0  0  0  0  0  0  0  0  0  0  0  0
   -4.0999    6.4794   -1.2433 H   0  0  0  0  0  0  0  0  0  0  0  0
   -6.6486    5.5367   -4.1941 H   0  0  0  0  0  0  0  0  0  0  0  0
   -4.9663    5.8719   -4.7272 H   0  0  0  0  0  0  0  0  0  0  0  0
   -5.5897    4.1872   -4.7272 H   0  0  0  0  0  0  0  0  0  0  0  0
   -5.7659    4.4188   -0.8390 H   0  0  0  0  0  0  0  0  0  0  0  0
   -7.0731    4.4605   -2.0704 H   0  0  0  0  0  0  0  0  0  0  0  0
   -5.8817    3.1161   -2.0704 H   0  0  0  0  0  0  0  0  0  0  0  0
   -6.8498    9.4063   -1.9760 H   0  0  0  0  0  0  0  0  0  0  0  0
   -6.7606    8.3991   -4.1709 H   0  0  0  0  0  0  0  0  0  0  0  0
   -6.0294    6.9073   -3.5414 H   0  0  0  0  0  0  0  0  0  0  0  0
   -8.7609    7.2165   -4.3251 H   0  0  0  0  0  0  0  0  0  0  0  0
   -8.1559    5.8696   -3.3643 H   0  0  0  0  0  0  0  0  0  0  0  0
   -9.7223    9.5583   -1.7579 H   0  0  0  0  0  0  0  0  0  0  0  0
   -8.7169    9.4398   -3.2417 H   0  0  0  0  0  0  0  0  0  0  0  0
  -10.3966    8.8031   -3.2417 H   0  0  0  0  0  0  0  0  0  0  0  0
   -9.6083    5.6948   -1.4355 H   0  0  0  0  0  0  0  0  0  0  0  0
  -10.9050    6.4001   -3.5478 H   0  0  0  0  0  0  0  0  0  0  0  0
  -11.7223    5.4438   -2.2032 H   0  0  0  0  0  0  0  0  0  0  0  0
  -13.1302    7.4011   -3.2639 H   0  0  0  0  0  0  0  0  0  0  0  0
  -11.0272    9.1986   -0.3241 H   0  0  0  0  0  0  0  0  0  0  0  0
  -13.1272    7.5032    1.1648 H   0  0  0  0  0  0  0  0  0  0  0  0
  -11.8474    8.5592    1.9114 H   0  0  0  0  0  0  0  0  0  0  0  0
  -14.0785    9.6272    1.9446 H   0  0  0  0  0  0  0  0  0  0  0  0
  -12.8751   10.5369    0.9495 H   0  0  0  0  0  0  0  0  0  0  0  0
  -14.9680   10.4876   -0.2249 H   0  0  0  0  0  0  0  0  0  0  0  0
  -15.2060    7.8710   -0.8140 H   0  0  0  0  0  0  0  0  0  0  0  0
  -12.6598   11.2591   -0.9177 H   0  0  0  0  0  0  0  0  0  0  0  0
  -12.0209   10.5499   -2.4394 H   0  0  0  0  0  0  0  0  0  0  0  0
  -13.6041   11.3984   -2.4394 H   0  0  0  0  0  0  0  0  0  0  0  0
  -15.6836    9.0128   -2.2040 H   0  0  0  0  0  0  0  0  0  0  0  0
  -14.7560   10.1126   -3.2794 H   0  0  0  0  0  0  0  0  0  0  0  0
  -14.4063    8.3506   -3.2794 H   0  0  0  0  0  0  0  0  0  0  0  0
  -11.1860    5.9884    1.6304 H   0  0  0  0  0  0  0  0  0  0  0  0
  -12.2937    5.7957    0.2294 H   0  0  0  0  0  0  0  0  0  0  0  0
  -10.6948    4.9771    0.2294 H   0  0  0  0  0  0  0  0  0  0  0  0
   -9.8273    8.2299    1.5720 H   0  0  0  0  0  0  0  0  0  0  0  0
   -8.9648    6.6433    1.1569 H   0  0  0  0  0  0  0  0  0  0  0  0
   -8.5987    9.3472   -0.1632 H   0  0  0  0  0  0  0  0  0  0  0  0
   -7.4156    8.4045    0.8265 H   0  0  0  0  0  0  0  0  0  0  0  0
   -7.1923    6.1596    0.4004 H   0  0  0  0  0  0  0  0  0  0  0  0
   -7.8630    5.4180   -1.0918 H   0  0  0  0  0  0  0  0  0  0  0  0
   -6.1951    6.0847   -1.0918 H   0  0  0  0  0  0  0  0  0  0  0  0
  1  2  1  0
  2  3  1  0
  3  4  1  0
  4  5  1  0
  5  6  1  0
  6  7  1  0
  7  8  1  0
  7  9  1  0
  2 10  1  0
 10 11  1  0
 11 12  1  0
 12 13  1  0
 13 14  1  6
 13 15  1  0
 15 16  1  0
 16 17  1  0
 17 18  2  0
 18 19  1  0
 19 20  1  0
 20 21  1  0
 21 22  1  0
 22 23  1  0
 22 24  1  0
 24 25  1  0
 24 26  1  0
 19 27  1  0
 27 28  1  1
 27 29  1  0
 29 30  1  0
 30 31  1  0
 31 32  1  1
  7  5  1  0
 31 10  1  0
 31 13  1  0
 27 15  1  0
 24 18  1  0
  1 33  1  0
  1 34  1  0
  1 35  1  0
  2 36  1  1
  3 37  1  0
  3 38  1  0
  4 39  1  0
  4 40  1  0
  5 41  1  1
  8 42  1  0
  8 43  1  0
  8 44  1  0
  9 45  1  0
  9 46  1  0
  9 47  1  0
 10 48  1  6
 11 49  1  0
 11 50  1  0
 12 51  1  0
 12 52  1  0
 14 53  1  0
 14 54  1  0
 14 55  1  0
 15 56  1  1
 16 57  1  0
 16 58  1  0
 17 59  1  0
 19 60  1  6
 20 61  1  0
 20 62  1  0
 21 63  1  0
 21 64  1  0
 22 65  1  6
 23 66  1  0
 25 67  1  0
 25 68  1  0
 25 69  1  0
 26 70  1  0
 26 71  1  0
 26 72  1  0
 28 73  1  0
 28 74  1  0
 28 75  1  0
 29 76  1  0
 29 77  1  0
 30 78  1  0
 30 79  1  0
 32 80  1  0
 32 81  1  0
 32 82  1  0
M  END
>  <meeko>  (11) 
{"is_sidechain": [false], "intermolecular_energy": 2.731, "internal_energy": -0.839}

$$$$
EPH_relaxed_0001_pdb2pqr_Repair_186_r2_0001_out
     RDKit          3D

 82 86  0  0  0  0  0  0  0  0999 V2000
  -10.4660    8.6720   -3.3670 C   0  0  0  0  0  0  0  0  0  0  0  0
  -10.2370    7.5800   -2.3190 C   0  0  2  0  0  0  0  0  0  0  0  0
  -11.4330    7.4390   -1.3560 C   0  0  0  0  0  0  0  0  0  0  0  0
  -12.6400    8.2990   -1.7440 C   0  0  0  0  0  0  0  0  0  0  0  0
  -13.2950    8.9080   -0.5410 C   0  0  2  0  0  0  0  0  0  0  0  0
  -12.9930    8.2570    0.7000 O   0  0  0  0  0  0  0  0  0  0  0  0
  -14.3640    8.2050    0.2750 C   0  0  0  0  0  0  0  0  0  0  0  0
  -14.8400    6.8310   -0.0800 C   0  0  0  0  0  0  0  0  0  0  0  0
  -15.2860    9.0360    1.1120 C   0  0  0  0  0  0  0  0  0  0  0  0
   -8.9660    7.8730   -1.5320 C   0  0  1  0  0  0  0  0  0  0  0  0
   -9.1250    7.5930   -0.0140 C   0  0  0  0  0  0  0  0  0  0  0  0
   -7.7590    7.0610    0.4890 C   0  0  0  0  0  0  0  0  0  0  0  0
   -6.7740    7.3630   -0.6650 C   0  0  1  0  0  0  0  0  0  0  0  0
   -6.3970    8.8670   -0.4870 C   0  0  0  0  0  0  0  0  0  0  0  0
   -5.5040    6.4550   -0.7450 C   0  0  2  0  0  0  0  0  0  0  0  0
   -4.5620    6.5420    0.4680 C   0  0  0  0  0  0  0  0  0  0  0  0
   -3.4860    7.5730    0.3670 C   0  0  0  0  0  0  0  0  0  0  0  0
   -3.1060    8.1990   -0.7620 C   0  0  0  0  0  0  0  0  0  0  0  0
   -3.7140    7.8160   -2.1180 C   0  0  1  0  0  0  0  0  0  0  0  0
   -2.5830    7.6650   -3.1680 C   0  0  0  0  0  0  0  0  0  0  0  0
   -1.6960    8.9030   -3.2550 C   0  0  0  0  0  0  0  0  0  0  0  0
   -1.0640    9.2180   -1.9020 C   0  0  2  0  0  0  0  0  0  0  0  0
   -0.1470    8.1720   -1.5680 O   0  0  0  0  0  0  0  0  0  0  0  0
   -2.1080    9.3820   -0.7620 C   0  0  0  0  0  0  0  0  0  0  0  0
   -2.9060   10.6920   -0.9720 C   0  0  0  0  0  0  0  0  0  0  0  0
   -1.3330    9.5550    0.5730 C   0  0  0  0  0  0  0  0  0  0  0  0
   -4.7070    6.5740   -2.1060 C   0  0  1  0  0  0  0  0  0  0  0  0
   -3.9020    5.2480   -2.2690 C   0  0  0  0  0  0  0  0  0  0  0  0
   -5.6630    6.6690   -3.3540 C   0  0  0  0  0  0  0  0  0  0  0  0
   -6.9600    7.4820   -3.1750 C   0  0  0  0  0  0  0  0  0  0  0  0
   -7.6980    7.0620   -1.9000 C   0  0  2  0  0  0  0  0  0  0  0  0
   -8.1100    5.5590   -2.0600 C   0  0  0  0  0  0  0  0  0  0  0  0
  -10.6666    9.6285   -2.8621 H   0  0  0  0  0  0  0  0  0  0  0  0
   -9.5690    8.7705   -3.9960 H   0  0  0  0  0  0  0  0  0  0  0  0
  -11.3270    8.4018   -3.9960 H   0  0  0  0  0  0  0  0  0  0  0  0
  -10.1304    6.6250   -2.8544 H   0  0  0  0  0  0  0  0  0  0  0  0
  -11.7470    6.3848   -1.3441 H   0  0  0  0  0  0  0  0  0  0  0  0
  -11.0941    7.7868   -0.3690 H   0  0  0  0  0  0  0  0  0  0  0  0
  -12.3036    9.1046   -2.4132 H   0  0  0  0  0  0  0  0  0  0  0  0
  -13.3755    7.6525   -2.2451 H   0  0  0  0  0  0  0  0  0  0  0  0
  -13.2520    9.9089   -0.9954 H   0  0  0  0  0  0  0  0  0  0  0  0
  -15.0371    6.2620    0.8405 H   0  0  0  0  0  0  0  0  0  0  0  0
  -15.7650    6.9046   -0.6707 H   0  0  0  0  0  0  0  0  0  0  0  0
  -14.0677    6.3166   -0.6707 H   0  0  0  0  0  0  0  0  0  0  0  0
  -15.0811    8.8513    2.1769 H   0  0  0  0  0  0  0  0  0  0  0  0
  -15.1259   10.1008    0.8871 H   0  0  0  0  0  0  0  0  0  0  0  0
  -16.3285    8.7665    0.8871 H   0  0  0  0  0  0  0  0  0  0  0  0
   -8.8261    8.9315   -1.7967 H   0  0  0  0  0  0  0  0  0  0  0  0
   -9.3889    8.5198    0.5164 H   0  0  0  0  0  0  0  0  0  0  0  0
   -9.9255    6.8615    0.1706 H   0  0  0  0  0  0  0  0  0  0  0  0
   -7.4531    7.5834    1.4074 H   0  0  0  0  0  0  0  0  0  0  0  0
   -7.7943    5.9901    0.7379 H   0  0  0  0  0  0  0  0  0  0  0  0
   -6.3372    9.1056    0.5851 H   0  0  0  0  0  0  0  0  0  0  0  0
   -5.4229    9.0593   -0.9603 H   0  0  0  0  0  0  0  0  0  0  0  0
   -7.1652    9.4961   -0.9603 H   0  0  0  0  0  0  0  0  0  0  0  0
   -5.9353    5.4435   -0.7155 H   0  0  0  0  0  0  0  0  0  0  0  0
   -5.1705    6.7714    1.3552 H   0  0  0  0  0  0  0  0  0  0  0  0
   -4.0487    5.5708    0.5252 H   0  0  0  0  0  0  0  0  0  0  0  0
   -2.9595    7.8435    1.2942 H   0  0  0  0  0  0  0  0  0  0  0  0
   -4.3765    8.6473   -2.4009 H   0  0  0  0  0  0  0  0  0  0  0  0
   -1.9585    6.8026   -2.8919 H   0  0  0  0  0  0  0  0  0  0  0  0
   -3.0566    7.5241   -4.1508 H   0  0  0  0  0  0  0  0  0  0  0  0
   -0.8989    8.7236   -3.9915 H   0  0  0  0  0  0  0  0  0  0  0  0
   -2.3165    9.7585   -3.5601 H   0  0  0  0  0  0  0  0  0  0  0  0
   -0.5474   10.1846   -1.9953 H   0  0  0  0  0  0  0  0  0  0  0  0
    0.7190    8.4090   -1.9410 H   0  0  0  0  0  0  0  0  0  0  0  0
   -3.1682   11.1224    0.0058 H   0  0  0  0  0  0  0  0  0  0  0  0
   -2.2914   11.4094   -1.5355 H   0  0  0  0  0  0  0  0  0  0  0  0
   -3.8254   10.4749   -1.5355 H   0  0  0  0  0  0  0  0  0  0  0  0
   -2.0200    9.4016    1.4183 H   0  0  0  0  0  0  0  0  0  0  0  0
   -0.5194    8.8164    0.6230 H   0  0  0  0  0  0  0  0  0  0  0  0
   -0.9108   10.5695    0.6230 H   0  0  0  0  0  0  0  0  0  0  0  0
   -3.6565    4.8436   -1.2759 H   0  0  0  0  0  0  0  0  0  0  0  0
   -4.5086    4.5165   -2.8230 H   0  0  0  0  0  0  0  0  0  0  0  0
   -2.9731    5.4487   -2.8230 H   0  0  0  0  0  0  0  0  0  0  0  0
   -5.0933    7.1278   -4.1755 H   0  0  0  0  0  0  0  0  0  0  0  0
   -5.9937    5.6370   -3.5427 H   0  0  0  0  0  0  0  0  0  0  0  0
   -6.7087    8.5509   -3.1099 H   0  0  0  0  0  0  0  0  0  0  0  0
   -7.6150    7.2926   -4.0382 H   0  0  0  0  0  0  0  0  0  0  0  0
   -8.2344    5.1051   -1.0658 H   0  0  0  0  0  0  0  0  0  0  0  0
   -9.0586    5.4957   -2.6133 H   0  0  0  0  0  0  0  0  0  0  0  0
   -7.3262    5.0209   -2.6133 H   0  0  0  0  0  0  0  0  0  0  0  0
  1  2  1  0
  2  3  1  0
  3  4  1  0
  4  5  1  0
  5  6  1  0
  6  7  1  0
  7  8  1  0
  7  9  1  0
  2 10  1  0
 10 11  1  0
 11 12  1  0
 12 13  1  0
 13 14  1  6
 13 15  1  0
 15 16  1  0
 16 17  1  0
 17 18  2  0
 18 19  1  0
 19 20  1  0
 20 21  1  0
 21 22  1  0
 22 23  1  0
 22 24  1  0
 24 25  1  0
 24 26  1  0
 19 27  1  0
 27 28  1  6
 27 29  1  0
 29 30  1  0
 30 31  1  0
 31 32  1  6
  7  5  1  0
 31 10  1  0
 31 13  1  0
 27 15  1  0
 24 18  1  0
  1 33  1  0
  1 34  1  0
  1 35  1  0
  2 36  1  6
  3 37  1  0
  3 38  1  0
  4 39  1  0
  4 40  1  0
  5 41  1  1
  8 42  1  0
  8 43  1  0
  8 44  1  0
  9 45  1  0
  9 46  1  0
  9 47  1  0
 10 48  1  1
 11 49  1  0
 11 50  1  0
 12 51  1  0
 12 52  1  0
 14 53  1  0
 14 54  1  0
 14 55  1  0
 15 56  1  6
 16 57  1  0
 16 58  1  0
 17 59  1  0
 19 60  1  6
 20 61  1  0
 20 62  1  0
 21 63  1  0
 21 64  1  0
 22 65  1  6
 23 66  1  0
 25 67  1  0
 25 68  1  0
 25 69  1  0
 26 70  1  0
 26 71  1  0
 26 72  1  0
 28 73  1  0
 28 74  1  0
 28 75  1  0
 29 76  1  0
 29 77  1  0
 30 78  1  0
 30 79  1  0
 32 80  1  0
 32 81  1  0
 32 82  1  0
M  END
>  <meeko>  (12) 
{"is_sidechain": [false], "intermolecular_energy": 2.731, "internal_energy": -0.839}

$$$$
EPH_relaxed_0001_pdb2pqr_Repair_186_r2_0001_out
     RDKit          3D

 82 86  0  0  0  0  0  0  0  0999 V2000
   -5.5720    5.1740   -0.6930 C   0  0  0  0  0  0  0  0  0  0  0  0
   -5.2570    6.5690   -1.2400 C   0  0  2  0  0  0  0  0  0  0  0  0
   -4.0580    7.2180   -0.5200 C   0  0  0  0  0  0  0  0  0  0  0  0
   -3.3980    8.3460   -1.3170 C   0  0  0  0  0  0  0  0  0  0  0  0
   -2.6030    9.2580   -0.4320 C   0  0  2  0  0  0  0  0  0  0  0  0
   -2.2480   10.5120   -1.0300 O   0  0  0  0  0  0  0  0  0  0  0  0
   -1.1580    9.6350   -0.7020 C   0  0  0  0  0  0  0  0  0  0  0  0
   -0.4230    9.1060   -1.8920 C   0  0  0  0  0  0  0  0  0  0  0  0
   -0.3200   10.1180    0.4410 C   0  0  0  0  0  0  0  0  0  0  0  0
   -6.4840    7.4650   -1.1200 C   0  0  1  0  0  0  0  0  0  0  0  0
   -6.2660    8.8650   -1.7510 C   0  0  0  0  0  0  0  0  0  0  0  0
   -7.6230    9.2960   -2.3630 C   0  0  0  0  0  0  0  0  0  0  0  0
   -8.6490    8.2950   -1.7820 C   0  0  1  0  0  0  0  0  0  0  0  0
   -8.9760    8.8380   -0.3560 C   0  0  0  0  0  0  0  0  0  0  0  0
   -9.9460    8.0670   -2.6250 C   0  0  2  0  0  0  0  0  0  0  0  0
  -10.8320    9.3110   -2.8090 C   0  0  0  0  0  0  0  0  0  0  0  0
  -11.8810    9.5070   -1.7660 C   0  0  0  0  0  0  0  0  0  0  0  0
  -12.2930    8.5760   -0.8860 C   0  0  0  0  0  0  0  0  0  0  0  0
  -11.7560    7.1400   -0.9500 C   0  0  1  0  0  0  0  0  0  0  0  0
  -12.9360    6.1400   -0.8300 C   0  0  0  0  0  0  0  0  0  0  0  0
  -13.7910    6.3890    0.4080 C   0  0  0  0  0  0  0  0  0  0  0  0
  -14.3540    7.8080    0.4070 C   0  0  2  0  0  0  0  0  0  0  0  0
  -15.2840    7.9330   -0.6730 O   0  0  0  0  0  0  0  0  0  0  0  0
  -13.2570    8.9020    0.2810 C   0  0  0  0  0  0  0  0  0  0  0  0
  -12.4330    8.9650    1.5900 C   0  0  0  0  0  0  0  0  0  0  0  0
  -13.9680   10.2760    0.1490 C   0  0  0  0  0  0  0  0  0  0  0  0
  -10.7990    6.8120   -2.1750 C   0  0  1  0  0  0  0  0  0  0  0  0
  -11.6460    6.3830   -3.4120 C   0  0  0  0  0  0  0  0  0  0  0  0
   -9.8960    5.5760   -1.8060 C   0  0  0  0  0  0  0  0  0  0  0  0
   -8.5700    5.8760   -1.0800 C   0  0  0  0  0  0  0  0  0  0  0  0
   -7.7880    6.9790   -1.8000 C   0  0  2  0  0  0  0  0  0  0  0  0
   -7.4260    6.4520   -3.2300 C   0  0  0  0  0  0  0  0  0  0  0  0
   -5.5658    5.2013    0.4066 H   0  0  0  0  0  0  0  0  0  0  0  0
   -6.5643    4.8571   -1.0463 H   0  0  0  0  0  0  0  0  0  0  0  0
   -4.8121    4.4614   -1.0463 H   0  0  0  0  0  0  0  0  0  0  0  0
   -4.9835    6.4543   -2.2993 H   0  0  0  0  0  0  0  0  0  0  0  0
   -4.4093    7.6292    0.4378 H   0  0  0  0  0  0  0  0  0  0  0  0
   -3.2996    6.4324   -0.3869 H   0  0  0  0  0  0  0  0  0  0  0  0
   -2.7274    7.9057   -2.0696 H   0  0  0  0  0  0  0  0  0  0  0  0
   -4.1921    8.9383   -1.7952 H   0  0  0  0  0  0  0  0  0  0  0  0
   -3.1090    8.8691    0.4640 H   0  0  0  0  0  0  0  0  0  0  0  0
    0.4271    8.4942   -1.5557 H   0  0  0  0  0  0  0  0  0  0  0  0
   -1.1024    8.4884   -2.4978 H   0  0  0  0  0  0  0  0  0  0  0  0
   -0.0530    9.9463   -2.4978 H   0  0  0  0  0  0  0  0  0  0  0  0
   -0.8007    9.8409    1.3908 H   0  0  0  0  0  0  0  0  0  0  0  0
    0.6767    9.6558    0.3859 H   0  0  0  0  0  0  0  0  0  0  0  0
   -0.2203   11.2121    0.3859 H   0  0  0  0  0  0  0  0  0  0  0  0
   -6.6067    7.4639   -0.0269 H   0  0  0  0  0  0  0  0  0  0  0  0
   -5.9532    9.5837   -0.9793 H   0  0  0  0  0  0  0  0  0  0  0  0
   -5.4787    8.8339   -2.5186 H   0  0  0  0  0  0  0  0  0  0  0  0
   -7.8735   10.3251   -2.0660 H   0  0  0  0  0  0  0  0  0  0  0  0
   -7.6066    9.2852   -3.4628 H   0  0  0  0  0  0  0  0  0  0  0  0
   -8.5639    8.1537    0.4003 H   0  0  0  0  0  0  0  0  0  0  0  0
   -8.5279    9.8348   -0.2316 H   0  0  0  0  0  0  0  0  0  0  0  0
  -10.0667    8.9082   -0.2316 H   0  0  0  0  0  0  0  0  0  0  0  0
   -9.5417    7.8381   -3.6221 H   0  0  0  0  0  0  0  0  0  0  0  0
  -10.1794   10.1965   -2.8052 H   0  0  0  0  0  0  0  0  0  0  0  0
  -11.3698    9.1637   -3.7572 H   0  0  0  0  0  0  0  0  0  0  0  0
  -12.3581   10.4967   -1.7119 H   0  0  0  0  0  0  0  0  0  0  0  0
  -11.0833    7.0278   -0.0869 H   0  0  0  0  0  0  0  0  0  0  0  0
  -13.5717    6.2362   -1.7226 H   0  0  0  0  0  0  0  0  0  0  0  0
  -12.5095    5.1298   -0.7432 H   0  0  0  0  0  0  0  0  0  0  0  0
  -14.6245    5.6712    0.4200 H   0  0  0  0  0  0  0  0  0  0  0  0
  -13.1608    6.2624    1.3007 H   0  0  0  0  0  0  0  0  0  0  0  0
  -14.8470    7.9687    1.3771 H   0  0  0  0  0  0  0  0  0  0  0  0
  -15.0660    8.7470   -1.1570 H   0  0  0  0  0  0  0  0  0  0  0  0
  -13.1122    8.9131    2.4537 H   0  0  0  0  0  0  0  0  0  0  0  0
  -11.7322    8.1178    1.6232 H   0  0  0  0  0  0  0  0  0  0  0  0
  -11.8691    9.9089    1.6232 H   0  0  0  0  0  0  0  0  0  0  0  0
  -14.1764   10.6788    1.1512 H   0  0  0  0  0  0  0  0  0  0  0  0
  -13.3180   10.9741   -0.3988 H   0  0  0  0  0  0  0  0  0  0  0  0
  -14.9133   10.1485   -0.3988 H   0  0  0  0  0  0  0  0  0  0  0  0
  -12.5791    5.9104   -3.0714 H   0  0  0  0  0  0  0  0  0  0  0  0
  -11.8840    7.2692   -4.0186 H   0  0  0  0  0  0  0  0  0  0  0  0
  -11.0724    5.6668   -4.0186 H   0  0  0  0  0  0  0  0  0  0  0  0
  -10.4879    4.9133   -1.1575 H   0  0  0  0  0  0  0  0  0  0  0  0
   -9.6028    5.1357   -2.7705 H   0  0  0  0  0  0  0  0  0  0  0  0
   -8.7882    6.2018   -0.0523 H   0  0  0  0  0  0  0  0  0  0  0  0
   -7.9595    4.9610   -1.0725 H   0  0  0  0  0  0  0  0  0  0  0  0
   -6.8052    5.5482   -3.1414 H   0  0  0  0  0  0  0  0  0  0  0  0
   -8.3496    6.2103   -3.7764 H   0  0  0  0  0  0  0  0  0  0  0  0
   -6.8690    7.2274   -3.7764 H   0  0  0  0  0  0  0  0  0  0  0  0
  1  2  1  0
  2  3  1  0
  3  4  1  0
  4  5  1  0
  5  6  1  0
  6  7  1  0
  7  8  1  0
  7  9  1  0
  2 10  1  0
 10 11  1  0
 11 12  1  0
 12 13  1  0
 13 14  1  1
 13 15  1  0
 15 16  1  0
 16 17  1  0
 17 18  2  0
 18 19  1  0
 19 20  1  0
 20 21  1  0
 21 22  1  0
 22 23  1  0
 22 24  1  0
 24 25  1  0
 24 26  1  0
 19 27  1  0
 27 28  1  6
 27 29  1  0
 29 30  1  0
 30 31  1  0
 31 32  1  6
  7  5  1  0
 31 10  1  0
 31 13  1  0
 27 15  1  0
 24 18  1  0
  1 33  1  0
  1 34  1  0
  1 35  1  0
  2 36  1  6
  3 37  1  0
  3 38  1  0
  4 39  1  0
  4 40  1  0
  5 41  1  1
  8 42  1  0
  8 43  1  0
  8 44  1  0
  9 45  1  0
  9 46  1  0
  9 47  1  0
 10 48  1  1
 11 49  1  0
 11 50  1  0
 12 51  1  0
 12 52  1  0
 14 53  1  0
 14 54  1  0
 14 55  1  0
 15 56  1  6
 16 57  1  0
 16 58  1  0
 17 59  1  0
 19 60  1  1
 20 61  1  0
 20 62  1  0
 21 63  1  0
 21 64  1  0
 22 65  1  1
 23 66  1  0
 25 67  1  0
 25 68  1  0
 25 69  1  0
 26 70  1  0
 26 71  1  0
 26 72  1  0
 28 73  1  0
 28 74  1  0
 28 75  1  0
 29 76  1  0
 29 77  1  0
 30 78  1  0
 30 79  1  0
 32 80  1  0
 32 81  1  0
 32 82  1  0
M  END
>  <meeko>  (13) 
{"is_sidechain": [false], "intermolecular_energy": 2.731, "internal_energy": -0.839}

$$$$
EPH_relaxed_0001_pdb2pqr_Repair_186_r2_0001_out
     RDKit          3D

 82 86  0  0  0  0  0  0  0  0999 V2000
   -4.8970    4.7180   -2.5850 C   0  0  0  0  0  0  0  0  0  0  0  0
   -5.6100    6.0590   -2.7760 C   0  0  2  0  0  0  0  0  0  0  0  0
   -4.6470    7.2550   -2.6260 C   0  0  0  0  0  0  0  0  0  0  0  0
   -3.1840    6.8460   -2.4330 C   0  0  0  0  0  0  0  0  0  0  0  0
   -2.2500    7.9840   -2.7140 C   0  0  2  0  0  0  0  0  0  0  0  0
   -0.9770    7.8870   -2.0610 O   0  0  0  0  0  0  0  0  0  0  0  0
   -1.8120    8.9860   -1.6620 C   0  0  0  0  0  0  0  0  0  0  0  0
   -2.2990    8.8980   -0.2490 C   0  0  0  0  0  0  0  0  0  0  0  0
   -1.3080   10.3220   -2.1120 C   0  0  0  0  0  0  0  0  0  0  0  0
   -6.7560    6.1860   -1.7800 C   0  0  1  0  0  0  0  0  0  0  0  0
   -6.2730    6.5870   -0.3610 C   0  0  0  0  0  0  0  0  0  0  0  0
   -7.3710    7.4980    0.2450 C   0  0  0  0  0  0  0  0  0  0  0  0
   -8.5860    7.3240   -0.6970 C   0  0  1  0  0  0  0  0  0  0  0  0
   -9.2600    5.9930   -0.2390 C   0  0  0  0  0  0  0  0  0  0  0  0
   -9.6080    8.5060   -0.7320 C   0  0  2  0  0  0  0  0  0  0  0  0
  -10.3180    8.7960    0.6020 C   0  0  0  0  0  0  0  0  0  0  0  0
  -11.6010    8.0630    0.8140 C   0  0  0  0  0  0  0  0  0  0  0  0
  -12.3060    7.4290   -0.1410 C   0  0  0  0  0  0  0  0  0  0  0  0
  -11.8740    7.4910   -1.6110 C   0  0  1  0  0  0  0  0  0  0  0  0
  -13.1070    7.8000   -2.5000 C   0  0  0  0  0  0  0  0  0  0  0  0
  -14.2550    6.8220   -2.2700 C   0  0  0  0  0  0  0  0  0  0  0  0
  -14.6950    6.8320   -0.8080 C   0  0  2  0  0  0  0  0  0  0  0  0
  -15.2750    8.1050   -0.5100 O   0  0  0  0  0  0  0  0  0  0  0  0
  -13.5330    6.5410    0.1830 C   0  0  0  0  0  0  0  0  0  0  0  0
  -13.1060    5.0580    0.0630 C   0  0  0  0  0  0  0  0  0  0  0  0
  -14.0800    6.7200    1.6250 C   0  0  0  0  0  0  0  0  0  0  0  0
  -10.6380    8.4370   -1.9320 C   0  0  1  0  0  0  0  0  0  0  0  0
  -11.1330    9.8940   -2.1780 C   0  0  0  0  0  0  0  0  0  0  0  0
   -9.9630    7.9640   -3.2730 C   0  0  0  0  0  0  0  0  0  0  0  0
   -8.8760    6.8780   -3.1590 C   0  0  0  0  0  0  0  0  0  0  0  0
   -7.8490    7.2410   -2.0830 C   0  0  2  0  0  0  0  0  0  0  0  0
   -7.1380    8.5650   -2.5270 C   0  0  0  0  0  0  0  0  0  0  0  0
   -4.7870    4.5110   -1.5103 H   0  0  0  0  0  0  0  0  0  0  0  0
   -5.4889    3.9180   -3.0537 H   0  0  0  0  0  0  0  0  0  0  0  0
   -3.9028    4.7613   -3.0537 H   0  0  0  0  0  0  0  0  0  0  0  0
   -6.0058    6.0795   -3.8021 H   0  0  0  0  0  0  0  0  0  0  0  0
   -4.7180    7.8740   -3.5325 H   0  0  0  0  0  0  0  0  0  0  0  0
   -4.9506    7.8010   -1.7206 H   0  0  0  0  0  0  0  0  0  0  0  0
   -3.0403    6.5148   -1.3939 H   0  0  0  0  0  0  0  0  0  0  0  0
   -2.9583    6.0338   -3.1397 H   0  0  0  0  0  0  0  0  0  0  0  0
   -2.6680    8.1099   -3.7237 H   0  0  0  0  0  0  0  0  0  0  0  0
   -1.4551    9.0505    0.4399 H   0  0  0  0  0  0  0  0  0  0  0  0
   -3.0596    9.6733   -0.0743 H   0  0  0  0  0  0  0  0  0  0  0  0
   -2.7402    7.9056   -0.0743 H   0  0  0  0  0  0  0  0  0  0  0  0
   -1.0745   10.9409   -1.2331 H   0  0  0  0  0  0  0  0  0  0  0  0
   -0.3992   10.1864   -2.7168 H   0  0  0  0  0  0  0  0  0  0  0  0
   -2.0799   10.8204   -2.7168 H   0  0  0  0  0  0  0  0  0  0  0  0
   -7.1791    5.1736   -1.8571 H   0  0  0  0  0  0  0  0  0  0  0  0
   -6.1394    5.6898    0.2612 H   0  0  0  0  0  0  0  0  0  0  0  0
   -5.3065    7.1104   -0.4063 H   0  0  0  0  0  0  0  0  0  0  0  0
   -7.6223    7.1764    1.2665 H   0  0  0  0  0  0  0  0  0  0  0  0
   -7.0482    8.5469    0.3202 H   0  0  0  0  0  0  0  0  0  0  0  0
   -9.2809    5.9518    0.8600 H   0  0  0  0  0  0  0  0  0  0  0  0
  -10.2884    5.9503   -0.6271 H   0  0  0  0  0  0  0  0  0  0  0  0
   -8.6858    5.1388   -0.6271 H   0  0  0  0  0  0  0  0  0  0  0  0
   -8.9578    9.3735   -0.9182 H   0  0  0  0  0  0  0  0  0  0  0  0
   -9.6324    8.5241    1.4181 H   0  0  0  0  0  0  0  0  0  0  0  0
  -10.5778    9.8647    0.5824 H   0  0  0  0  0  0  0  0  0  0  0  0
  -12.0042    8.0391    1.8372 H   0  0  0  0  0  0  0  0  0  0  0  0
  -11.4787    6.4936   -1.8538 H   0  0  0  0  0  0  0  0  0  0  0  0
  -13.4594    8.8169   -2.2727 H   0  0  0  0  0  0  0  0  0  0  0  0
  -12.7933    7.7050   -3.5500 H   0  0  0  0  0  0  0  0  0  0  0  0
  -15.1062    7.1104   -2.9042 H   0  0  0  0  0  0  0  0  0  0  0  0
  -13.9105    5.8093   -2.5263 H   0  0  0  0  0  0  0  0  0  0  0  0
  -15.4279    6.0221   -0.6780 H   0  0  0  0  0  0  0  0  0  0  0  0
  -16.1090    8.1720   -1.0060 H   0  0  0  0  0  0  0  0  0  0  0  0
  -12.9826    4.6295    1.0685 H   0  0  0  0  0  0  0  0  0  0  0  0
  -13.8791    4.4968   -0.4824 H   0  0  0  0  0  0  0  0  0  0  0  0
  -12.1529    4.9938   -0.4824 H   0  0  0  0  0  0  0  0  0  0  0  0
  -13.2937    6.4627    2.3500 H   0  0  0  0  0  0  0  0  0  0  0  0
  -14.3876    7.7657    1.7733 H   0  0  0  0  0  0  0  0  0  0  0  0
  -14.9462    6.0585    1.7733 H   0  0  0  0  0  0  0  0  0  0  0  0
  -11.3021   10.3918   -1.2118 H   0  0  0  0  0  0  0  0  0  0  0  0
  -10.3727   10.4482   -2.7479 H   0  0  0  0  0  0  0  0  0  0  0  0
  -12.0735    9.8704   -2.7479 H   0  0  0  0  0  0  0  0  0  0  0  0
  -10.7575    7.5723   -3.9252 H   0  0  0  0  0  0  0  0  0  0  0  0
   -9.4428    8.8518   -3.6618 H   0  0  0  0  0  0  0  0  0  0  0  0
   -9.3499    5.9209   -2.8958 H   0  0  0  0  0  0  0  0  0  0  0  0
   -8.3575    6.7980   -4.1258 H   0  0  0  0  0  0  0  0  0  0  0  0
   -6.8326    9.1337   -1.6363 H   0  0  0  0  0  0  0  0  0  0  0  0
   -6.2499    8.3204   -3.1282 H   0  0  0  0  0  0  0  0  0  0  0  0
   -7.8324    9.1703   -3.1282 H   0  0  0  0  0  0  0  0  0  0  0  0
  1  2  1  0
  2  3  1  0
  3  4  1  0
  4  5  1  0
  5  6  1  0
  6  7  1  0
  7  8  1  0
  7  9  1  0
  2 10  1  0
 10 11  1  0
 11 12  1  0
 12 13  1  0
 13 14  1  1
 13 15  1  0
 15 16  1  0
 16 17  1  0
 17 18  2  0
 18 19  1  0
 19 20  1  0
 20 21  1  0
 21 22  1  0
 22 23  1  0
 22 24  1  0
 24 25  1  0
 24 26  1  0
 19 27  1  0
 27 28  1  6
 27 29  1  0
 29 30  1  0
 30 31  1  0
 31 32  1  6
  7  5  1  0
 31 10  1  0
 31 13  1  0
 27 15  1  0
 24 18  1  0
  1 33  1  0
  1 34  1  0
  1 35  1  0
  2 36  1  6
  3 37  1  0
  3 38  1  0
  4 39  1  0
  4 40  1  0
  5 41  1  6
  8 42  1  0
  8 43  1  0
  8 44  1  0
  9 45  1  0
  9 46  1  0
  9 47  1  0
 10 48  1  1
 11 49  1  0
 11 50  1  0
 12 51  1  0
 12 52  1  0
 14 53  1  0
 14 54  1  0
 14 55  1  0
 15 56  1  6
 16 57  1  0
 16 58  1  0
 17 59  1  0
 19 60  1  6
 20 61  1  0
 20 62  1  0
 21 63  1  0
 21 64  1  0
 22 65  1  6
 23 66  1  0
 25 67  1  0
 25 68  1  0
 25 69  1  0
 26 70  1  0
 26 71  1  0
 26 72  1  0
 28 73  1  0
 28 74  1  0
 28 75  1  0
 29 76  1  0
 29 77  1  0
 30 78  1  0
 30 79  1  0
 32 80  1  0
 32 81  1  0
 32 82  1  0
M  END
>  <meeko>  (14) 
{"is_sidechain": [false], "intermolecular_energy": 2.731, "internal_energy": -0.839}

$$$$
EPH_relaxed_0001_pdb2pqr_Repair_186_r2_0001_out
     RDKit          3D

 82 86  0  0  0  0  0  0  0  0999 V2000
  -13.9670    6.3350    0.5050 C   0  0  0  0  0  0  0  0  0  0  0  0
  -13.4810    7.2750   -0.6020 C   0  0  2  0  0  0  0  0  0  0  0  0
  -14.5710    7.5390   -1.6590 C   0  0  0  0  0  0  0  0  0  0  0  0
  -15.2810    8.8850   -1.4880 C   0  0  0  0  0  0  0  0  0  0  0  0
  -15.2870    9.6750   -2.7620 C   0  0  2  0  0  0  0  0  0  0  0  0
  -13.9870    9.9970   -3.2720 O   0  0  0  0  0  0  0  0  0  0  0  0
  -14.8000   11.1080   -2.8600 C   0  0  0  0  0  0  0  0  0  0  0  0
  -14.2720   11.8360   -1.6630 C   0  0  0  0  0  0  0  0  0  0  0  0
  -15.2860   11.9540   -3.9950 C   0  0  0  0  0  0  0  0  0  0  0  0
  -12.2390    6.6940   -1.2680 C   0  0  1  0  0  0  0  0  0  0  0  0
  -12.5500    6.0280   -2.6340 C   0  0  0  0  0  0  0  0  0  0  0  0
  -11.3260    6.2890   -3.5480 C   0  0  0  0  0  0  0  0  0  0  0  0
  -10.2250    6.8000   -2.5900 C   0  0  1  0  0  0  0  0  0  0  0  0
   -9.6260    5.5110   -1.9430 C   0  0  0  0  0  0  0  0  0  0  0  0
   -9.1140    7.6950   -3.2280 C   0  0  2  0  0  0  0  0  0  0  0  0
   -8.2590    7.0050   -4.3060 C   0  0  0  0  0  0  0  0  0  0  0  0
   -7.0290    6.3240   -3.8050 C   0  0  0  0  0  0  0  0  0  0  0  0
   -6.4740    6.5040   -2.5930 C   0  0  0  0  0  0  0  0  0  0  0  0
   -7.0350    7.5460   -1.6160 C   0  0  1  0  0  0  0  0  0  0  0  0
   -5.8700    8.3770   -1.0190 C   0  0  0  0  0  0  0  0  0  0  0  0
   -4.7930    7.5030   -0.3840 C   0  0  0  0  0  0  0  0  0  0  0  0
   -4.2180    6.5200   -1.4010 C   0  0  2  0  0  0  0  0  0  0  0  0
   -3.5060    7.2560   -2.4000 O   0  0  0  0  0  0  0  0  0  0  0  0
   -5.3010    5.6340   -2.0760 C   0  0  0  0  0  0  0  0  0  0  0  0
   -5.8640    4.6230   -1.0460 C   0  0  0  0  0  0  0  0  0  0  0  0
   -4.6080    4.7900   -3.1790 C   0  0  0  0  0  0  0  0  0  0  0  0
   -8.2110    8.4570   -2.1750 C   0  0  1  0  0  0  0  0  0  0  0  0
   -7.6190    9.6970   -2.9120 C   0  0  0  0  0  0  0  0  0  0  0  0
   -9.0470    9.0180   -0.9650 C   0  0  0  0  0  0  0  0  0  0  0  0
  -10.2070    8.1400   -0.4570 C   0  0  0  0  0  0  0  0  0  0  0  0
  -11.0940    7.6770   -1.6170 C   0  0  2  0  0  0  0  0  0  0  0  0
  -11.7280    8.9510   -2.2730 C   0  0  0  0  0  0  0  0  0  0  0  0
  -13.7391    6.7759    1.4867 H   0  0  0  0  0  0  0  0  0  0  0  0
  -15.0533    6.1895    0.4117 H   0  0  0  0  0  0  0  0  0  0  0  0
  -13.4577    5.3645    0.4117 H   0  0  0  0  0  0  0  0  0  0  0  0
  -13.2352    8.2395   -0.1337 H   0  0  0  0  0  0  0  0  0  0  0  0
  -14.1024    7.5175   -2.6540 H   0  0  0  0  0  0  0  0  0  0  0  0
  -15.3335    6.7555   -1.5372 H   0  0  0  0  0  0  0  0  0  0  0  0
  -16.3202    8.7028   -1.1767 H   0  0  0  0  0  0  0  0  0  0  0  0
  -14.7375    9.4650   -0.7276 H   0  0  0  0  0  0  0  0  0  0  0  0
  -16.2189    9.1891   -3.0867 H   0  0  0  0  0  0  0  0  0  0  0  0
  -14.6295   11.3431   -0.7469 H   0  0  0  0  0  0  0  0  0  0  0  0
  -13.1722   11.8226   -1.6813 H   0  0  0  0  0  0  0  0  0  0  0  0
  -14.6263   12.8772   -1.6813 H   0  0  0  0  0  0  0  0  0  0  0  0
  -15.7968   12.8432   -3.5970 H   0  0  0  0  0  0  0  0  0  0  0  0
  -14.4304   12.2677   -4.6111 H   0  0  0  0  0  0  0  0  0  0  0  0
  -15.9880   11.3729   -4.6111 H   0  0  0  0  0  0  0  0  0  0  0  0
  -11.9130    6.0015   -0.4780 H   0  0  0  0  0  0  0  0  0  0  0  0
  -12.7006    4.9463   -2.5024 H   0  0  0  0  0  0  0  0  0  0  0  0
  -13.4681    6.4428   -3.0756 H   0  0  0  0  0  0  0  0  0  0  0  0
  -11.0078    5.3608   -4.0452 H   0  0  0  0  0  0  0  0  0  0  0  0
  -11.5495    7.0096   -4.3485 H   0  0  0  0  0  0  0  0  0  0  0  0
   -9.6664    5.5980   -0.8472 H   0  0  0  0  0  0  0  0  0  0  0  0
  -10.2093    4.6350   -2.2630 H   0  0  0  0  0  0  0  0  0  0  0  0
   -8.5803    5.3920   -2.2630 H   0  0  0  0  0  0  0  0  0  0  0  0
   -9.7022    8.4594   -3.7568 H   0  0  0  0  0  0  0  0  0  0  0  0
   -8.8853    6.2512   -4.8055 H   0  0  0  0  0  0  0  0  0  0  0  0
   -7.9122    7.8046   -4.9771 H   0  0  0  0  0  0  0  0  0  0  0  0
   -6.5343    5.6146   -4.4847 H   0  0  0  0  0  0  0  0  0  0  0  0
   -7.5337    6.9768   -0.8177 H   0  0  0  0  0  0  0  0  0  0  0  0
   -5.4125    8.9715   -1.8236 H   0  0  0  0  0  0  0  0  0  0  0  0
   -6.2880    9.0183   -0.2291 H   0  0  0  0  0  0  0  0  0  0  0  0
   -3.9837    8.1457   -0.0072 H   0  0  0  0  0  0  0  0  0  0  0  0
   -5.2454    6.9314    0.4398 H   0  0  0  0  0  0  0  0  0  0  0  0
   -3.5484    5.8365   -0.8584 H   0  0  0  0  0  0  0  0  0  0  0  0
   -3.0860    6.6120   -2.9960 H   0  0  0  0  0  0  0  0  0  0  0  0
   -5.6618    4.9861   -0.0275 H   0  0  0  0  0  0  0  0  0  0  0  0
   -6.9497    4.5195   -1.1896 H   0  0  0  0  0  0  0  0  0  0  0  0
   -5.3803    3.6455   -1.1896 H   0  0  0  0  0  0  0  0  0  0  0  0
   -3.9766    4.0210   -2.7099 H   0  0  0  0  0  0  0  0  0  0  0  0
   -5.3723    4.3055   -3.8044 H   0  0  0  0  0  0  0  0  0  0  0  0
   -3.9840    5.4454   -3.8044 H   0  0  0  0  0  0  0  0  0  0  0  0
   -7.2686   10.4310   -2.1714 H   0  0  0  0  0  0  0  0  0  0  0  0
   -6.7749    9.3805   -3.5423 H   0  0  0  0  0  0  0  0  0  0  0  0
   -8.3959   10.1544   -3.5423 H   0  0  0  0  0  0  0  0  0  0  0  0
   -8.3540    9.1730   -0.1249 H   0  0  0  0  0  0  0  0  0  0  0  0
   -9.5234    9.9343   -1.3439 H   0  0  0  0  0  0  0  0  0  0  0  0
   -9.7935    7.2580    0.0539 H   0  0  0  0  0  0  0  0  0  0  0  0
  -10.8193    8.7352    0.2364 H   0  0  0  0  0  0  0  0  0  0  0  0
  -12.0698    9.6378   -1.4847 H   0  0  0  0  0  0  0  0  0  0  0  0
  -10.9756    9.4549   -2.8974 H   0  0  0  0  0  0  0  0  0  0  0  0
  -12.5837    8.6546   -2.8974 H   0  0  0  0  0  0  0  0  0  0  0  0
  1  2  1  0
  2  3  1  0
  3  4  1  0
  4  5  1  0
  5  6  1  0
  6  7  1  0
  7  8  1  0
  7  9  1  0
  2 10  1  0
 10 11  1  0
 11 12  1  0
 12 13  1  0
 13 14  1  1
 13 15  1  0
 15 16  1  0
 16 17  1  0
 17 18  2  0
 18 19  1  0
 19 20  1  0
 20 21  1  0
 21 22  1  0
 22 23  1  0
 22 24  1  0
 24 25  1  0
 24 26  1  0
 19 27  1  0
 27 28  1  6
 27 29  1  0
 29 30  1  0
 30 31  1  0
 31 32  1  6
  7  5  1  0
 31 10  1  0
 31 13  1  0
 27 15  1  0
 24 18  1  0
  1 33  1  0
  1 34  1  0
  1 35  1  0
  2 36  1  1
  3 37  1  0
  3 38  1  0
  4 39  1  0
  4 40  1  0
  5 41  1  6
  8 42  1  0
  8 43  1  0
  8 44  1  0
  9 45  1  0
  9 46  1  0
  9 47  1  0
 10 48  1  1
 11 49  1  0
 11 50  1  0
 12 51  1  0
 12 52  1  0
 14 53  1  0
 14 54  1  0
 14 55  1  0
 15 56  1  6
 16 57  1  0
 16 58  1  0
 17 59  1  0
 19 60  1  1
 20 61  1  0
 20 62  1  0
 21 63  1  0
 21 64  1  0
 22 65  1  1
 23 66  1  0
 25 67  1  0
 25 68  1  0
 25 69  1  0
 26 70  1  0
 26 71  1  0
 26 72  1  0
 28 73  1  0
 28 74  1  0
 28 75  1  0
 29 76  1  0
 29 77  1  0
 30 78  1  0
 30 79  1  0
 32 80  1  0
 32 81  1  0
 32 82  1  0
M  END
>  <meeko>  (15) 
{"is_sidechain": [false], "intermolecular_energy": 2.731, "internal_energy": -0.839}

$$$$
EPH_relaxed_0001_pdb2pqr_Repair_186_r2_0001_out
     RDKit          3D

 82 86  0  0  0  0  0  0  0  0999 V2000
   -6.3650    4.8660   -0.9010 C   0  0  0  0  0  0  0  0  0  0  0  0
   -6.2040    6.3150   -1.3700 C   0  0  2  0  0  0  0  0  0  0  0  0
   -6.9930    6.5970   -2.6640 C   0  0  0  0  0  0  0  0  0  0  0  0
   -8.3430    5.8790   -2.7310 C   0  0  0  0  0  0  0  0  0  0  0  0
   -9.4880    6.8470   -2.7100 C   0  0  2  0  0  0  0  0  0  0  0  0
   -9.1600    8.1500   -2.2100 O   0  0  0  0  0  0  0  0  0  0  0  0
  -10.1000    7.3900   -1.4320 C   0  0  0  0  0  0  0  0  0  0  0  0
   -9.5870    6.9840   -0.0870 C   0  0  0  0  0  0  0  0  0  0  0  0
  -11.4960    7.9280   -1.4800 C   0  0  0  0  0  0  0  0  0  0  0  0
   -4.7280    6.6330   -1.5790 C   0  0  1  0  0  0  0  0  0  0  0  0
   -4.2400    6.2880   -3.0120 C   0  0  0  0  0  0  0  0  0  0  0  0
   -3.1840    7.3570   -3.3940 C   0  0  0  0  0  0  0  0  0  0  0  0
   -2.8580    8.0760   -2.0640 C   0  0  1  0  0  0  0  0  0  0  0  0
   -1.8350    7.1420   -1.3440 C   0  0  0  0  0  0  0  0  0  0  0  0
   -2.3190    9.5390   -2.1840 C   0  0  2  0  0  0  0  0  0  0  0  0
   -0.9780    9.6810   -2.9250 C   0  0  0  0  0  0  0  0  0  0  0  0
    0.2390    9.6020   -2.0640 C   0  0  0  0  0  0  0  0  0  0  0  0
    0.2550    9.7090   -0.7220 C   0  0  0  0  0  0  0  0  0  0  0  0
   -1.0260   10.0290    0.0590 C   0  0  1  0  0  0  0  0  0  0  0  0
   -0.7330   11.1400    1.1010 C   0  0  0  0  0  0  0  0  0  0  0  0
    0.4360   10.7900    2.0170 C   0  0  0  0  0  0  0  0  0  0  0  0
    1.7050   10.5350    1.2080 C   0  0  2  0  0  0  0  0  0  0  0  0
    2.1150   11.7620    0.5950 O   0  0  0  0  0  0  0  0  0  0  0  0
    1.5280    9.4410    0.1180 C   0  0  0  0  0  0  0  0  0  0  0  0
    1.3820    8.0540    0.7930 C   0  0  0  0  0  0  0  0  0  0  0  0
    2.8360    9.3820   -0.7160 C   0  0  0  0  0  0  0  0  0  0  0  0
   -2.3130   10.3410   -0.8200 C   0  0  1  0  0  0  0  0  0  0  0  0
   -2.3490   11.8540   -1.1930 C   0  0  0  0  0  0  0  0  0  0  0  0
   -3.6020   10.0650    0.0410 C   0  0  0  0  0  0  0  0  0  0  0  0
   -4.1560    8.6280    0.0240 C   0  0  0  0  0  0  0  0  0  0  0  0
   -4.2880    8.1090   -1.4110 C   0  0  2  0  0  0  0  0  0  0  0  0
   -5.3270    9.0160   -2.1540 C   0  0  0  0  0  0  0  0  0  0  0  0
   -6.3685    4.8347    0.1986 H   0  0  0  0  0  0  0  0  0  0  0  0
   -7.3137    4.4604   -1.2823 H   0  0  0  0  0  0  0  0  0  0  0  0
   -5.5284    4.2621   -1.2823 H   0  0  0  0  0  0  0  0  0  0  0  0
   -6.6160    6.9652   -0.5842 H   0  0  0  0  0  0  0  0  0  0  0  0
   -7.1721    7.6802   -2.7323 H   0  0  0  0  0  0  0  0  0  0  0  0
   -6.3859    6.2181   -3.4994 H   0  0  0  0  0  0  0  0  0  0  0  0
   -8.3891    5.2926   -3.6605 H   0  0  0  0  0  0  0  0  0  0  0  0
   -8.4288    5.2274   -1.8489 H   0  0  0  0  0  0  0  0  0  0  0  0
   -9.9332    6.3775   -3.5996 H   0  0  0  0  0  0  0  0  0  0  0  0
  -10.1925    7.4632    0.6964 H   0  0  0  0  0  0  0  0  0  0  0  0
   -9.6530    5.8908    0.0159 H   0  0  0  0  0  0  0  0  0  0  0  0
   -8.5382    7.2994    0.0159 H   0  0  0  0  0  0  0  0  0  0  0  0
  -11.8690    8.0717   -0.4552 H   0  0  0  0  0  0  0  0  0  0  0  0
  -11.4995    8.8919   -2.0100 H   0  0  0  0  0  0  0  0  0  0  0  0
  -12.1454    7.2157   -2.0100 H   0  0  0  0  0  0  0  0  0  0  0  0
   -4.2911    6.0169   -0.7793 H   0  0  0  0  0  0  0  0  0  0  0  0
   -3.7870    5.2857   -3.0269 H   0  0  0  0  0  0  0  0  0  0  0  0
   -5.0775    6.2874   -3.7252 H   0  0  0  0  0  0  0  0  0  0  0  0
   -2.2831    6.8818   -3.8095 H   0  0  0  0  0  0  0  0  0  0  0  0
   -3.5524    8.0509   -4.1639 H   0  0  0  0  0  0  0  0  0  0  0  0
   -1.9480    7.2451   -0.2547 H   0  0  0  0  0  0  0  0  0  0  0  0
   -2.0237    6.0981   -1.6350 H   0  0  0  0  0  0  0  0  0  0  0  0
   -0.8125    7.4247   -1.6350 H   0  0  0  0  0  0  0  0  0  0  0  0
   -3.0702   10.0153   -2.8312 H   0  0  0  0  0  0  0  0  0  0  0  0
   -0.9170    8.8776   -3.6739 H   0  0  0  0  0  0  0  0  0  0  0  0
   -0.9770   10.6911   -3.3605 H   0  0  0  0  0  0  0  0  0  0  0  0
    1.2036    9.4430   -2.5683 H   0  0  0  0  0  0  0  0  0  0  0  0
   -1.3089    9.0994    0.5745 H   0  0  0  0  0  0  0  0  0  0  0  0
   -0.4951   12.0712    0.5660 H   0  0  0  0  0  0  0  0  0  0  0  0
   -1.6282   11.2518    1.7303 H   0  0  0  0  0  0  0  0  0  0  0  0
    0.6128   11.6254    2.7104 H   0  0  0  0  0  0  0  0  0  0  0  0
    0.1845    9.8752    2.5736 H   0  0  0  0  0  0  0  0  0  0  0  0
    2.4706   10.1627    1.9046 H   0  0  0  0  0  0  0  0  0  0  0  0
    1.4740   12.4470    0.8510 H   0  0  0  0  0  0  0  0  0  0  0  0
    1.3947    8.1751    1.8862 H   0  0  0  0  0  0  0  0  0  0  0  0
    0.4306    7.5951    0.4860 H   0  0  0  0  0  0  0  0  0  0  0  0
    2.2170    7.4071    0.4860 H   0  0  0  0  0  0  0  0  0  0  0  0
    3.7015    9.3430   -0.0383 H   0  0  0  0  0  0  0  0  0  0  0  0
    2.8262    8.4834   -1.3503 H   0  0  0  0  0  0  0  0  0  0  0  0
    2.9071   10.2779   -1.3503 H   0  0  0  0  0  0  0  0  0  0  0  0
   -2.3634   12.4580   -0.2738 H   0  0  0  0  0  0  0  0  0  0  0  0
   -1.4566   12.1072   -1.7842 H   0  0  0  0  0  0  0  0  0  0  0  0
   -3.2524   12.0645   -1.7842 H   0  0  0  0  0  0  0  0  0  0  0  0
   -3.3648   10.3175    1.0850 H   0  0  0  0  0  0  0  0  0  0  0  0
   -4.3899   10.6818   -0.4159 H   0  0  0  0  0  0  0  0  0  0  0  0
   -3.4722    7.9720    0.5826 H   0  0  0  0  0  0  0  0  0  0  0  0
   -5.1527    8.6305    0.4895 H   0  0  0  0  0  0  0  0  0  0  0  0
   -5.9407    9.5518   -1.4149 H   0  0  0  0  0  0  0  0  0  0  0  0
   -4.7943    9.7432   -2.7844 H   0  0  0  0  0  0  0  0  0  0  0  0
   -5.9756    8.3899   -2.7844 H   0  0  0  0  0  0  0  0  0  0  0  0
  1  2  1  0
  2  3  1  0
  3  4  1  0
  4  5  1  0
  5  6  1  0
  6  7  1  0
  7  8  1  0
  7  9  1  0
  2 10  1  0
 10 11  1  0
 11 12  1  0
 12 13  1  0
 13 14  1  1
 13 15  1  0
 15 16  1  0
 16 17  1  0
 17 18  2  0
 18 19  1  0
 19 20  1  0
 20 21  1  0
 21 22  1  0
 22 23  1  0
 22 24  1  0
 24 25  1  0
 24 26  1  0
 19 27  1  0
 27 28  1  6
 27 29  1  0
 29 30  1  0
 30 31  1  0
 31 32  1  6
  7  5  1  0
 31 10  1  0
 31 13  1  0
 27 15  1  0
 24 18  1  0
  1 33  1  0
  1 34  1  0
  1 35  1  0
  2 36  1  1
  3 37  1  0
  3 38  1  0
  4 39  1  0
  4 40  1  0
  5 41  1  6
  8 42  1  0
  8 43  1  0
  8 44  1  0
  9 45  1  0
  9 46  1  0
  9 47  1  0
 10 48  1  1
 11 49  1  0
 11 50  1  0
 12 51  1  0
 12 52  1  0
 14 53  1  0
 14 54  1  0
 14 55  1  0
 15 56  1  6
 16 57  1  0
 16 58  1  0
 17 59  1  0
 19 60  1  1
 20 61  1  0
 20 62  1  0
 21 63  1  0
 21 64  1  0
 22 65  1  1
 23 66  1  0
 25 67  1  0
 25 68  1  0
 25 69  1  0
 26 70  1  0
 26 71  1  0
 26 72  1  0
 28 73  1  0
 28 74  1  0
 28 75  1  0
 29 76  1  0
 29 77  1  0
 30 78  1  0
 30 79  1  0
 32 80  1  0
 32 81  1  0
 32 82  1  0
M  END
>  <meeko>  (16) 
{"is_sidechain": [false], "intermolecular_energy": 2.731, "internal_energy": -0.839}

$$$$
EPH_relaxed_0001_pdb2pqr_Repair_186_r2_0001_out
     RDKit          3D

 82 86  0  0  0  0  0  0  0  0999 V2000
   -1.0580   12.1480   -1.5390 C   0  0  0  0  0  0  0  0  0  0  0  0
   -1.2070   10.7890   -0.8490 C   0  0  2  0  0  0  0  0  0  0  0  0
    0.1520   10.0890   -0.6460 C   0  0  0  0  0  0  0  0  0  0  0  0
    0.8470   10.4600    0.6660 C   0  0  0  0  0  0  0  0  0  0  0  0
    0.0490   11.4550    1.4540 C   0  0  2  0  0  0  0  0  0  0  0  0
    0.5050   12.8100    1.3440 O   0  0  0  0  0  0  0  0  0  0  0  0
    0.6000   12.2130    2.6470 C   0  0  0  0  0  0  0  0  0  0  0  0
    2.0040   12.0070    3.1210 C   0  0  0  0  0  0  0  0  0  0  0  0
   -0.3650   12.7800    3.6420 C   0  0  0  0  0  0  0  0  0  0  0  0
   -2.1390    9.8950   -1.6580 C   0  0  1  0  0  0  0  0  0  0  0  0
   -1.3860    9.0610   -2.7290 C   0  0  0  0  0  0  0  0  0  0  0  0
   -2.1140    7.6960   -2.8250 C   0  0  0  0  0  0  0  0  0  0  0  0
   -3.4420    7.9070   -2.0620 C   0  0  1  0  0  0  0  0  0  0  0  0
   -4.3820    8.6220   -3.0830 C   0  0  0  0  0  0  0  0  0  0  0  0
   -4.1080    6.6240   -1.4660 C   0  0  2  0  0  0  0  0  0  0  0  0
   -4.5360    5.5690   -2.5010 C   0  0  0  0  0  0  0  0  0  0  0  0
   -5.9290    5.7110   -3.0180 C   0  0  0  0  0  0  0  0  0  0  0  0
   -6.8960    6.4670   -2.4650 C   0  0  0  0  0  0  0  0  0  0  0  0
   -6.6570    7.2040   -1.1410 C   0  0  1  0  0  0  0  0  0  0  0  0
   -7.8680    6.9780   -0.1970 C   0  0  0  0  0  0  0  0  0  0  0  0
   -9.1950    7.3590   -0.8470 C   0  0  0  0  0  0  0  0  0  0  0  0
   -9.4230    6.5630   -2.1290 C   0  0  2  0  0  0  0  0  0  0  0  0
   -9.5990    5.1840   -1.7900 O   0  0  0  0  0  0  0  0  0  0  0  0
   -8.2620    6.7050   -3.1530 C   0  0  0  0  0  0  0  0  0  0  0  0
   -8.2640    8.1360   -3.7470 C   0  0  0  0  0  0  0  0  0  0  0  0
   -8.5500    5.7430   -4.3370 C   0  0  0  0  0  0  0  0  0  0  0  0
   -5.2660    6.9180   -0.4280 C   0  0  1  0  0  0  0  0  0  0  0  0
   -5.3830    5.6540    0.4780 C   0  0  0  0  0  0  0  0  0  0  0  0
   -4.9220    8.1200    0.5290 C   0  0  0  0  0  0  0  0  0  0  0  0
   -4.1580    9.3050   -0.0920 C   0  0  0  0  0  0  0  0  0  0  0  0
   -2.9400    8.8180   -0.8840 C   0  0  2  0  0  0  0  0  0  0  0  0
   -1.9660    8.1140    0.1210 C   0  0  0  0  0  0  0  0  0  0  0  0
   -0.9714   12.9379   -0.7784 H   0  0  0  0  0  0  0  0  0  0  0  0
   -0.1550   12.1433   -2.1671 H   0  0  0  0  0  0  0  0  0  0  0  0
   -1.9406   12.3390   -2.1671 H   0  0  0  0  0  0  0  0  0  0  0  0
   -1.6373   10.9685    0.1473 H   0  0  0  0  0  0  0  0  0  0  0  0
   -0.0130    9.0015   -0.6558 H   0  0  0  0  0  0  0  0  0  0  0  0
    0.8095   10.4220   -1.4626 H   0  0  0  0  0  0  0  0  0  0  0  0
    0.9782    9.5499    1.2697 H   0  0  0  0  0  0  0  0  0  0  0  0
    1.8185   10.9150    0.4228 H   0  0  0  0  0  0  0  0  0  0  0  0
   -0.8686   10.8645    1.3148 H   0  0  0  0  0  0  0  0  0  0  0  0
    2.0230   12.0042    4.2208 H   0  0  0  0  0  0  0  0  0  0  0  0
    2.3803   11.0440    2.7453 H   0  0  0  0  0  0  0  0  0  0  0  0
    2.6410   12.8213    2.7453 H   0  0  0  0  0  0  0  0  0  0  0  0
   -0.0072   12.5698    4.6607 H   0  0  0  0  0  0  0  0  0  0  0  0
   -0.4433   13.8677    3.4981 H   0  0  0  0  0  0  0  0  0  0  0  0
   -1.3533   12.3190    3.4981 H   0  0  0  0  0  0  0  0  0  0  0  0
   -2.8231   10.6570   -2.0598 H   0  0  0  0  0  0  0  0  0  0  0  0
   -1.4165    9.5759   -3.7006 H   0  0  0  0  0  0  0  0  0  0  0  0
   -0.3293    8.9269   -2.4545 H   0  0  0  0  0  0  0  0  0  0  0  0
   -2.3074    7.4322   -3.8752 H   0  0  0  0  0  0  0  0  0  0  0  0
   -1.5167    6.8744   -2.4029 H   0  0  0  0  0  0  0  0  0  0  0  0
   -5.1426    9.2005   -2.5382 H   0  0  0  0  0  0  0  0  0  0  0  0
   -3.7891    9.2995   -3.7151 H   0  0  0  0  0  0  0  0  0  0  0  0
   -4.8766    7.8698   -3.7151 H   0  0  0  0  0  0  0  0  0  0  0  0
   -3.2803    6.1695   -0.9018 H   0  0  0  0  0  0  0  0  0  0  0  0
   -3.8477    5.6336   -3.3566 H   0  0  0  0  0  0  0  0  0  0  0  0
   -4.5021    4.6007   -1.9802 H   0  0  0  0  0  0  0  0  0  0  0  0
   -6.1875    5.1502   -3.9283 H   0  0  0  0  0  0  0  0  0  0  0  0
   -6.5767    8.2706   -1.3975 H   0  0  0  0  0  0  0  0  0  0  0  0
   -7.9043    5.9145    0.0818 H   0  0  0  0  0  0  0  0  0  0  0  0
   -7.7301    7.6226    0.6836 H   0  0  0  0  0  0  0  0  0  0  0  0
  -10.0139    7.1498   -0.1429 H   0  0  0  0  0  0  0  0  0  0  0  0
   -9.1680    8.4295   -1.0986 H   0  0  0  0  0  0  0  0  0  0  0  0
  -10.3216    6.9707   -2.6151 H   0  0  0  0  0  0  0  0  0  0  0  0
  -10.1730    4.7860   -2.4660 H   0  0  0  0  0  0  0  0  0  0  0  0
   -8.2650    8.8722   -2.9297 H   0  0  0  0  0  0  0  0  0  0  0  0
   -7.3661    8.2771   -4.3665 H   0  0  0  0  0  0  0  0  0  0  0  0
   -9.1623    8.2746   -4.3665 H   0  0  0  0  0  0  0  0  0  0  0  0
   -8.8449    4.7581   -3.9458 H   0  0  0  0  0  0  0  0  0  0  0  0
   -9.3650    6.1522   -4.9520 H   0  0  0  0  0  0  0  0  0  0  0  0
   -7.6442    5.6371   -4.9520 H   0  0  0  0  0  0  0  0  0  0  0  0
   -5.3550    5.9567    1.5351 H   0  0  0  0  0  0  0  0  0  0  0  0
   -6.3326    5.1396    0.2689 H   0  0  0  0  0  0  0  0  0  0  0  0
   -4.5440    4.9741    0.2689 H   0  0  0  0  0  0  0  0  0  0  0  0
   -5.8700    8.5084    0.9296 H   0  0  0  0  0  0  0  0  0  0  0  0
   -4.2400    7.7013    1.2837 H   0  0  0  0  0  0  0  0  0  0  0  0
   -4.8312    9.8526   -0.7679 H   0  0  0  0  0  0  0  0  0  0  0  0
   -3.8094    9.9612    0.7191 H   0  0  0  0  0  0  0  0  0  0  0  0
   -2.2772    8.3390    1.1518 H   0  0  0  0  0  0  0  0  0  0  0  0
   -1.9946    7.0265   -0.0416 H   0  0  0  0  0  0  0  0  0  0  0  0
   -0.9423    8.4823   -0.0416 H   0  0  0  0  0  0  0  0  0  0  0  0
  1  2  1  0
  2  3  1  0
  3  4  1  0
  4  5  1  0
  5  6  1  0
  6  7  1  0
  7  8  1  0
  7  9  1  0
  2 10  1  0
 10 11  1  0
 11 12  1  0
 12 13  1  0
 13 14  1  6
 13 15  1  0
 15 16  1  0
 16 17  1  0
 17 18  2  0
 18 19  1  0
 19 20  1  0
 20 21  1  0
 21 22  1  0
 22 23  1  0
 22 24  1  0
 24 25  1  0
 24 26  1  0
 19 27  1  0
 27 28  1  1
 27 29  1  0
 29 30  1  0
 30 31  1  0
 31 32  1  1
  7  5  1  0
 31 10  1  0
 31 13  1  0
 27 15  1  0
 24 18  1  0
  1 33  1  0
  1 34  1  0
  1 35  1  0
  2 36  1  1
  3 37  1  0
  3 38  1  0
  4 39  1  0
  4 40  1  0
  5 41  1  1
  8 42  1  0
  8 43  1  0
  8 44  1  0
  9 45  1  0
  9 46  1  0
  9 47  1  0
 10 48  1  6
 11 49  1  0
 11 50  1  0
 12 51  1  0
 12 52  1  0
 14 53  1  0
 14 54  1  0
 14 55  1  0
 15 56  1  1
 16 57  1  0
 16 58  1  0
 17 59  1  0
 19 60  1  6
 20 61  1  0
 20 62  1  0
 21 63  1  0
 21 64  1  0
 22 65  1  6
 23 66  1  0
 25 67  1  0
 25 68  1  0
 25 69  1  0
 26 70  1  0
 26 71  1  0
 26 72  1  0
 28 73  1  0
 28 74  1  0
 28 75  1  0
 29 76  1  0
 29 77  1  0
 30 78  1  0
 30 79  1  0
 32 80  1  0
 32 81  1  0
 32 82  1  0
M  END
>  <meeko>  (17) 
{"is_sidechain": [false], "intermolecular_energy": 2.731, "internal_energy": -0.839}

$$$$
EPH_relaxed_0001_pdb2pqr_Repair_186_r2_0001_out
     RDKit          3D

 82 86  0  0  0  0  0  0  0  0999 V2000
   -3.7300    5.5820   -2.7760 C   0  0  0  0  0  0  0  0  0  0  0  0
   -3.6090    7.1020   -2.6380 C   0  0  2  0  0  0  0  0  0  0  0  0
   -2.5730    7.5080   -1.5710 C   0  0  0  0  0  0  0  0  0  0  0  0
   -1.6240    8.6200   -2.0260 C   0  0  0  0  0  0  0  0  0  0  0  0
   -1.5290    9.7180   -1.0100 C   0  0  2  0  0  0  0  0  0  0  0  0
   -0.6790   10.8100   -1.3870 O   0  0  0  0  0  0  0  0  0  0  0  0
   -0.2580   10.0430   -0.2470 C   0  0  0  0  0  0  0  0  0  0  0  0
    1.0040    9.2700   -0.4660 C   0  0  0  0  0  0  0  0  0  0  0  0
   -0.3730   10.7810    1.0510 C   0  0  0  0  0  0  0  0  0  0  0  0
   -4.9680    7.7030   -2.2990 C   0  0  1  0  0  0  0  0  0  0  0  0
   -5.2640    9.0000   -3.0980 C   0  0  0  0  0  0  0  0  0  0  0  0
   -6.7870    9.0090   -3.3870 C   0  0  0  0  0  0  0  0  0  0  0  0
   -7.3650    7.9040   -2.4710 C   0  0  1  0  0  0  0  0  0  0  0  0
   -7.4990    8.5750   -1.0690 C   0  0  0  0  0  0  0  0  0  0  0  0
   -8.7120    7.2580   -2.9340 C   0  0  2  0  0  0  0  0  0  0  0  0
   -9.9070    8.2240   -3.0080 C   0  0  0  0  0  0  0  0  0  0  0  0
  -10.7150    8.3370   -1.7580 C   0  0  0  0  0  0  0  0  0  0  0  0
  -10.6670    7.4860   -0.7170 C   0  0  0  0  0  0  0  0  0  0  0  0
   -9.8050    6.2180   -0.7740 C   0  0  1  0  0  0  0  0  0  0  0  0
  -10.6300    5.0070   -0.2650 C   0  0  0  0  0  0  0  0  0  0  0  0
  -11.2260    5.2450    1.1190 C   0  0  0  0  0  0  0  0  0  0  0  0
  -12.1230    6.4810    1.1220 C   0  0  2  0  0  0  0  0  0  0  0  0
  -13.2680    6.2200    0.3050 O   0  0  0  0  0  0  0  0  0  0  0  0
  -11.4020    7.7620    0.6180 C   0  0  0  0  0  0  0  0  0  0  0  0
  -10.3540    8.2160    1.6650 C   0  0  0  0  0  0  0  0  0  0  0  0
  -12.4540    8.9010    0.5370 C   0  0  0  0  0  0  0  0  0  0  0  0
   -9.0900    5.9280   -2.1640 C   0  0  1  0  0  0  0  0  0  0  0  0
  -10.0490    5.1300   -3.0990 C   0  0  0  0  0  0  0  0  0  0  0  0
   -7.8400    5.0040   -1.9160 C   0  0  0  0  0  0  0  0  0  0  0  0
   -6.5110    5.7080   -1.5800 C   0  0  0  0  0  0  0  0  0  0  0  0
   -6.2200    6.8330   -2.5780 C   0  0  2  0  0  0  0  0  0  0  0  0
   -6.0570    6.1850   -3.9950 C   0  0  0  0  0  0  0  0  0  0  0  0
   -3.7664    5.1248   -1.7762 H   0  0  0  0  0  0  0  0  0  0  0  0
   -4.6506    5.3358   -3.3255 H   0  0  0  0  0  0  0  0  0  0  0  0
   -2.8600    5.1933   -3.3255 H   0  0  0  0  0  0  0  0  0  0  0  0
   -3.2590    7.4947   -3.6041 H   0  0  0  0  0  0  0  0  0  0  0  0
   -3.1126    7.8559   -0.6778 H   0  0  0  0  0  0  0  0  0  0  0  0
   -1.9550    6.6207   -1.3691 H   0  0  0  0  0  0  0  0  0  0  0  0
   -0.6229    8.1921   -2.1832 H   0  0  0  0  0  0  0  0  0  0  0  0
   -2.0202    9.0488   -2.9583 H   0  0  0  0  0  0  0  0  0  0  0  0
   -2.5618    9.5344   -0.6791 H   0  0  0  0  0  0  0  0  0  0  0  0
    1.4428    9.0012    0.5062 H   0  0  0  0  0  0  0  0  0  0  0  0
    0.7795    8.3543   -1.0326 H   0  0  0  0  0  0  0  0  0  0  0  0
    1.7177    9.8861   -1.0326 H   0  0  0  0  0  0  0  0  0  0  0  0
   -0.2628   10.0735    1.8861 H   0  0  0  0  0  0  0  0  0  0  0  0
    0.4171   11.5441    1.1102 H   0  0  0  0  0  0  0  0  0  0  0  0
   -1.3578   11.2675    1.1102 H   0  0  0  0  0  0  0  0  0  0  0  0
   -4.8418    7.8446   -1.2155 H   0  0  0  0  0  0  0  0  0  0  0  0
   -4.9859    9.8829   -2.5037 H   0  0  0  0  0  0  0  0  0  0  0  0
   -4.6843    9.0294   -4.0324 H   0  0  0  0  0  0  0  0  0  0  0  0
   -7.2237    9.9874   -3.1381 H   0  0  0  0  0  0  0  0  0  0  0  0
   -7.0110    8.8298   -4.4489 H   0  0  0  0  0  0  0  0  0  0  0  0
   -7.3480    7.8187   -0.2846 H   0  0  0  0  0  0  0  0  0  0  0  0
   -6.7410    9.3656   -0.9669 H   0  0  0  0  0  0  0  0  0  0  0  0
   -8.5025    9.0138   -0.9669 H   0  0  0  0  0  0  0  0  0  0  0  0
   -8.4934    6.9740   -3.9740 H   0  0  0  0  0  0  0  0  0  0  0  0
   -9.5207    9.2240   -3.2544 H   0  0  0  0  0  0  0  0  0  0  0  0
  -10.5838    7.8123   -3.7712 H   0  0  0  0  0  0  0  0  0  0  0  0
  -11.4081    9.1877   -1.6815 H   0  0  0  0  0  0  0  0  0  0  0  0
   -8.9538    6.3987   -0.1011 H   0  0  0  0  0  0  0  0  0  0  0  0
  -11.4494    4.8158   -0.9736 H   0  0  0  0  0  0  0  0  0  0  0  0
   -9.9489    4.1464   -0.1916 H   0  0  0  0  0  0  0  0  0  0  0  0
  -11.8216    4.3673    1.4102 H   0  0  0  0  0  0  0  0  0  0  0  0
  -10.4041    5.4060    1.8322 H   0  0  0  0  0  0  0  0  0  0  0  0
  -12.4146    6.6755    2.1647 H   0  0  0  0  0  0  0  0  0  0  0  0
  -12.9570    5.7860   -0.5080 H   0  0  0  0  0  0  0  0  0  0  0  0
  -10.7491    8.0449    2.6772 H   0  0  0  0  0  0  0  0  0  0  0  0
   -9.4274    7.6386    1.5305 H   0  0  0  0  0  0  0  0  0  0  0  0
  -10.1415    9.2869    1.5305 H   0  0  0  0  0  0  0  0  0  0  0  0
  -12.7392    9.2097    1.5536 H   0  0  0  0  0  0  0  0  0  0  0  0
  -12.0243    9.7595    0.0000 H   0  0  0  0  0  0  0  0  0  0  0  0
  -13.3439    8.5407    0.0000 H   0  0  0  0  0  0  0  0  0  0  0  0
  -10.7526    4.5445   -2.4890 H   0  0  0  0  0  0  0  0  0  0  0  0
  -10.6100    5.8316   -3.7338 H   0  0  0  0  0  0  0  0  0  0  0  0
   -9.4610    4.4508   -3.7338 H   0  0  0  0  0  0  0  0  0  0  0  0
   -8.0826    4.3338   -1.0782 H   0  0  0  0  0  0  0  0  0  0  0  0
   -7.6623    4.4967   -2.8757 H   0  0  0  0  0  0  0  0  0  0  0  0
   -6.5745    6.1327   -0.5673 H   0  0  0  0  0  0  0  0  0  0  0  0
   -5.6981    4.9691   -1.6369 H   0  0  0  0  0  0  0  0  0  0  0  0
   -5.7900    5.1236   -3.8843 H   0  0  0  0  0  0  0  0  0  0  0  0
   -7.0043    6.2691   -4.5478 H   0  0  0  0  0  0  0  0  0  0  0  0
   -5.2623    6.7073   -4.5478 H   0  0  0  0  0  0  0  0  0  0  0  0
  1  2  1  0
  2  3  1  0
  3  4  1  0
  4  5  1  0
  5  6  1  0
  6  7  1  0
  7  8  1  0
  7  9  1  0
  2 10  1  0
 10 11  1  0
 11 12  1  0
 12 13  1  0
 13 14  1  1
 13 15  1  0
 15 16  1  0
 16 17  1  0
 17 18  2  0
 18 19  1  0
 19 20  1  0
 20 21  1  0
 21 22  1  0
 22 23  1  0
 22 24  1  0
 24 25  1  0
 24 26  1  0
 19 27  1  0
 27 28  1  6
 27 29  1  0
 29 30  1  0
 30 31  1  0
 31 32  1  6
  7  5  1  0
 31 10  1  0
 31 13  1  0
 27 15  1  0
 24 18  1  0
  1 33  1  0
  1 34  1  0
  1 35  1  0
  2 36  1  6
  3 37  1  0
  3 38  1  0
  4 39  1  0
  4 40  1  0
  5 41  1  1
  8 42  1  0
  8 43  1  0
  8 44  1  0
  9 45  1  0
  9 46  1  0
  9 47  1  0
 10 48  1  1
 11 49  1  0
 11 50  1  0
 12 51  1  0
 12 52  1  0
 14 53  1  0
 14 54  1  0
 14 55  1  0
 15 56  1  6
 16 57  1  0
 16 58  1  0
 17 59  1  0
 19 60  1  1
 20 61  1  0
 20 62  1  0
 21 63  1  0
 21 64  1  0
 22 65  1  1
 23 66  1  0
 25 67  1  0
 25 68  1  0
 25 69  1  0
 26 70  1  0
 26 71  1  0
 26 72  1  0
 28 73  1  0
 28 74  1  0
 28 75  1  0
 29 76  1  0
 29 77  1  0
 30 78  1  0
 30 79  1  0
 32 80  1  0
 32 81  1  0
 32 82  1  0
M  END
>  <meeko>  (18) 
{"is_sidechain": [false], "intermolecular_energy": 2.731, "internal_energy": -0.839}

$$$$
EPH_relaxed_0001_pdb2pqr_Repair_186_r2_0001_out
     RDKit          3D

 82 86  0  0  0  0  0  0  0  0999 V2000
    7.2850   16.8270    4.0040 C   0  0  0  0  0  0  0  0  0  0  0  0
    6.8150   18.2730    3.8180 C   0  0  2  0  0  0  0  0  0  0  0  0
    7.0600   19.1290    5.0770 C   0  0  0  0  0  0  0  0  0  0  0  0
    7.0850   18.3210    6.3760 C   0  0  0  0  0  0  0  0  0  0  0  0
    6.0270   18.7780    7.3350 C   0  0  2  0  0  0  0  0  0  0  0  0
    5.7680   20.1880    7.3120 O   0  0  0  0  0  0  0  0  0  0  0  0
    6.3110   19.6620    8.5340 C   0  0  0  0  0  0  0  0  0  0  0  0
    7.6950   20.1410    8.8410 C   0  0  0  0  0  0  0  0  0  0  0  0
    5.3390   19.6570    9.6730 C   0  0  0  0  0  0  0  0  0  0  0  0
    5.3350   18.2950    3.4530 C   0  0  1  0  0  0  0  0  0  0  0  0
    4.4990   19.1940    4.4030 C   0  0  0  0  0  0  0  0  0  0  0  0
    3.3850   19.8410    3.5400 C   0  0  0  0  0  0  0  0  0  0  0  0
    3.4090   19.0470    2.2130 C   0  0  1  0  0  0  0  0  0  0  0  0
    2.5990   17.7460    2.5090 C   0  0  0  0  0  0  0  0  0  0  0  0
    2.8620   19.7930    0.9520 C   0  0  2  0  0  0  0  0  0  0  0  0
    1.3780   20.1920    1.0220 C   0  0  0  0  0  0  0  0  0  0  0  0
    0.4190   19.1790    0.4910 C   0  0  0  0  0  0  0  0  0  0  0  0
    0.7440   18.1230   -0.2780 C   0  0  0  0  0  0  0  0  0  0  0  0
    2.1820   17.9200   -0.7710 C   0  0  1  0  0  0  0  0  0  0  0  0
    2.1670   17.5760   -2.2840 C   0  0  0  0  0  0  0  0  0  0  0  0
    1.2670   16.3860   -2.6040 C   0  0  0  0  0  0  0  0  0  0  0  0
   -0.1660   16.6490   -2.1510 C   0  0  2  0  0  0  0  0  0  0  0  0
   -0.7140   17.7070   -2.9450 O   0  0  0  0  0  0  0  0  0  0  0  0
   -0.2760   17.0160   -0.6450 C   0  0  0  0  0  0  0  0  0  0  0  0
    0.0310   15.7670    0.2190 C   0  0  0  0  0  0  0  0  0  0  0  0
   -1.7520   17.3950   -0.3510 C   0  0  0  0  0  0  0  0  0  0  0  0
    3.2060   19.0840   -0.4200 C   0  0  1  0  0  0  0  0  0  0  0  0
    3.1520   20.1890   -1.5190 C   0  0  0  0  0  0  0  0  0  0  0  0
    4.6700   18.5050   -0.4450 C   0  0  0  0  0  0  0  0  0  0  0  0
    5.1950   17.8890    0.8660 C   0  0  0  0  0  0  0  0  0  0  0  0
    4.9570   18.8320    2.0490 C   0  0  2  0  0  0  0  0  0  0  0  0
    5.7780   20.1410    1.7910 C   0  0  0  0  0  0  0  0  0  0  0  0
    7.3586   16.6006    5.0779 H   0  0  0  0  0  0  0  0  0  0  0  0
    6.5628   16.1434    3.5338 H   0  0  0  0  0  0  0  0  0  0  0  0
    8.2711   16.6986    3.5338 H   0  0  0  0  0  0  0  0  0  0  0  0
    7.4062   18.7113    3.0005 H   0  0  0  0  0  0  0  0  0  0  0  0
    8.0283   19.6391    4.9669 H   0  0  0  0  0  0  0  0  0  0  0  0
    6.2197   19.8346    5.1540 H   0  0  0  0  0  0  0  0  0  0  0  0
    6.9168   17.2601    6.1390 H   0  0  0  0  0  0  0  0  0  0  0  0
    8.0656   18.4684    6.8522 H   0  0  0  0  0  0  0  0  0  0  0  0
    5.4885   17.8243    7.2330 H   0  0  0  0  0  0  0  0  0  0  0  0
    7.8331   20.1888    9.9313 H   0  0  0  0  0  0  0  0  0  0  0  0
    8.4284   19.4444    8.4087 H   0  0  0  0  0  0  0  0  0  0  0  0
    7.8409   21.1419    8.4087 H   0  0  0  0  0  0  0  0  0  0  0  0
    5.8899   19.6598   10.6251 H   0  0  0  0  0  0  0  0  0  0  0  0
    4.7019   20.5519    9.6153 H   0  0  0  0  0  0  0  0  0  0  0  0
    4.7112   18.7556    9.6153 H   0  0  0  0  0  0  0  0  0  0  0  0
    5.1127   17.2196    3.5172 H   0  0  0  0  0  0  0  0  0  0  0  0
    4.0529   18.5867    5.2044 H   0  0  0  0  0  0  0  0  0  0  0  0
    5.1286   19.9619    4.8763 H   0  0  0  0  0  0  0  0  0  0  0  0
    2.4064   19.7441    4.0329 H   0  0  0  0  0  0  0  0  0  0  0  0
    3.5495   20.9175    3.3851 H   0  0  0  0  0  0  0  0  0  0  0  0
    2.5127   17.6073    3.5968 H   0  0  0  0  0  0  0  0  0  0  0  0
    1.5943   17.8316    2.0694 H   0  0  0  0  0  0  0  0  0  0  0  0
    3.1192   16.8822    2.0694 H   0  0  0  0  0  0  0  0  0  0  0  0
    3.4258   20.7373    0.9737 H   0  0  0  0  0  0  0  0  0  0  0  0
    1.1258   20.3788    2.0763 H   0  0  0  0  0  0  0  0  0  0  0  0
    1.2709   21.0782    0.3793 H   0  0  0  0  0  0  0  0  0  0  0  0
   -0.6425   19.3060    0.7498 H   0  0  0  0  0  0  0  0  0  0  0  0
    2.5826   17.0702   -0.1989 H   0  0  0  0  0  0  0  0  0  0  0  0
    1.8045   18.4523   -2.8414 H   0  0  0  0  0  0  0  0  0  0  0  0
    3.1929   17.3070   -2.5757 H   0  0  0  0  0  0  0  0  0  0  0  0
    1.2748   16.2104   -3.6899 H   0  0  0  0  0  0  0  0  0  0  0  0
    1.6481   15.5036   -2.0690 H   0  0  0  0  0  0  0  0  0  0  0  0
   -0.7310   15.7152   -2.2879 H   0  0  0  0  0  0  0  0  0  0  0  0
   -1.5990   17.9070   -2.5970 H   0  0  0  0  0  0  0  0  0  0  0  0
   -0.0344   16.0330    1.2843 H   0  0  0  0  0  0  0  0  0  0  0  0
   -0.6995   14.9763   -0.0070 H   0  0  0  0  0  0  0  0  0  0  0  0
    1.0449   15.4050   -0.0070 H   0  0  0  0  0  0  0  0  0  0  0  0
   -1.9104   17.4357    0.7368 H   0  0  0  0  0  0  0  0  0  0  0  0
   -1.9725   18.3789   -0.7907 H   0  0  0  0  0  0  0  0  0  0  0  0
   -2.4192   16.6390   -0.7907 H   0  0  0  0  0  0  0  0  0  0  0  0
    3.1036   21.1788   -1.0416 H   0  0  0  0  0  0  0  0  0  0  0  0
    4.0542   20.1276   -2.1453 H   0  0  0  0  0  0  0  0  0  0  0  0
    2.2601   20.0400   -2.1453 H   0  0  0  0  0  0  0  0  0  0  0  0
    4.7057   17.7231   -1.2179 H   0  0  0  0  0  0  0  0  0  0  0  0
    5.3195   19.3719   -0.6365 H   0  0  0  0  0  0  0  0  0  0  0  0
    4.6720   16.9393    1.0520 H   0  0  0  0  0  0  0  0  0  0  0  0
    6.2772   17.7194    0.7650 H   0  0  0  0  0  0  0  0  0  0  0  0
    6.0609   20.5921    2.7535 H   0  0  0  0  0  0  0  0  0  0  0  0
    6.6857   19.8978    1.2191 H   0  0  0  0  0  0  0  0  0  0  0  0
    5.1639   20.8523    1.2191 H   0  0  0  0  0  0  0  0  0  0  0  0
  1  2  1  0
  2  3  1  0
  3  4  1  0
  4  5  1  0
  5  6  1  0
  6  7  1  0
  7  8  1  0
  7  9  1  0
  2 10  1  0
 10 11  1  0
 11 12  1  0
 12 13  1  0
 13 14  1  1
 13 15  1  0
 15 16  1  0
 16 17  1  0
 17 18  2  0
 18 19  1  0
 19 20  1  0
 20 21  1  0
 21 22  1  0
 22 23  1  0
 22 24  1  0
 24 25  1  0
 24 26  1  0
 19 27  1  0
 27 28  1  6
 27 29  1  0
 29 30  1  0
 30 31  1  0
 31 32  1  6
  7  5  1  0
 31 10  1  0
 31 13  1  0
 27 15  1  0
 24 18  1  0
  1 33  1  0
  1 34  1  0
  1 35  1  0
  2 36  1  6
  3 37  1  0
  3 38  1  0
  4 39  1  0
  4 40  1  0
  5 41  1  1
  8 42  1  0
  8 43  1  0
  8 44  1  0
  9 45  1  0
  9 46  1  0
  9 47  1  0
 10 48  1  6
 11 49  1  0
 11 50  1  0
 12 51  1  0
 12 52  1  0
 14 53  1  0
 14 54  1  0
 14 55  1  0
 15 56  1  6
 16 57  1  0
 16 58  1  0
 17 59  1  0
 19 60  1  1
 20 61  1  0
 20 62  1  0
 21 63  1  0
 21 64  1  0
 22 65  1  1
 23 66  1  0
 25 67  1  0
 25 68  1  0
 25 69  1  0
 26 70  1  0
 26 71  1  0
 26 72  1  0
 28 73  1  0
 28 74  1  0
 28 75  1  0
 29 76  1  0
 29 77  1  0
 30 78  1  0
 30 79  1  0
 32 80  1  0
 32 81  1  0
 32 82  1  0
M  END
>  <meeko>  (19) 
{"is_sidechain": [false], "intermolecular_energy": 2.731, "internal_energy": -0.839}

$$$$
