EPH_relaxed_0001_pdb2pqr_Repair_112_r2_0001_out
     RDKit          3D

 82 86  0  0  0  0  0  0  0  0999 V2000
   -1.5520    8.5780   -1.8980 C   0  0  0  0  0  0  0  0  0  0  0  0
   -1.9260    9.0730   -0.4980 C   0  0  2  0  0  0  0  0  0  0  0  0
   -3.4290    9.3980   -0.3790 C   0  0  0  0  0  0  0  0  0  0  0  0
   -4.3260    8.1580   -0.3390 C   0  0  0  0  0  0  0  0  0  0  0  0
   -5.6040    8.3740   -1.0910 C   0  0  2  0  0  0  0  0  0  0  0  0
   -6.5930    7.3550   -0.8950 O   0  0  0  0  0  0  0  0  0  0  0  0
   -6.0680    7.4810   -2.2260 C   0  0  0  0  0  0  0  0  0  0  0  0
   -5.2590    6.3050   -2.6750 C   0  0  0  0  0  0  0  0  0  0  0  0
   -7.0520    8.0300   -3.2130 C   0  0  0  0  0  0  0  0  0  0  0  0
   -1.0970   10.3020   -0.1420 C   0  0  1  0  0  0  0  0  0  0  0  0
   -0.0620   10.0200    0.9790 C   0  0  0  0  0  0  0  0  0  0  0  0
    1.1880   10.8790    0.6590 C   0  0  0  0  0  0  0  0  0  0  0  0
    0.7150   11.8660   -0.4330 C   0  0  1  0  0  0  0  0  0  0  0  0
   -0.0220   13.0020    0.3440 C   0  0  0  0  0  0  0  0  0  0  0  0
    1.8230   12.4370   -1.3760 C   0  0  2  0  0  0  0  0  0  0  0  0
    2.9040   13.2790   -0.6770 C   0  0  0  0  0  0  0  0  0  0  0  0
    2.6180   14.7420   -0.5920 C   0  0  0  0  0  0  0  0  0  0  0  0
    1.6810   15.3980   -1.3010 C   0  0  0  0  0  0  0  0  0  0  0  0
    0.8560   14.6750   -2.3740 C   0  0  1  0  0  0  0  0  0  0  0  0
    0.8110   15.5390   -3.6620 C   0  0  0  0  0  0  0  0  0  0  0  0
    0.3120   16.9560   -3.3990 C   0  0  0  0  0  0  0  0  0  0  0  0
    1.1920   17.6620   -2.3700 C   0  0  2  0  0  0  0  0  0  0  0  0
    2.4910   17.8640   -2.9350 O   0  0  0  0  0  0  0  0  0  0  0  0
    1.3190   16.8800   -1.0330 C   0  0  0  0  0  0  0  0  0  0  0  0
   -0.0300   16.9220   -0.2750 C   0  0  0  0  0  0  0  0  0  0  0  0
    2.3440   17.6280   -0.1380 C   0  0  0  0  0  0  0  0  0  0  0  0
    1.2650   13.1670   -2.6650 C   0  0  1  0  0  0  0  0  0  0  0  0
    2.4030   13.1210   -3.7300 C   0  0  0  0  0  0  0  0  0  0  0  0
    0.0350   12.4130   -3.2950 C   0  0  0  0  0  0  0  0  0  0  0  0
   -0.9610   11.7670   -2.3130 C   0  0  0  0  0  0  0  0  0  0  0  0
   -0.2290   10.9230   -1.2650 C   0  0  2  0  0  0  0  0  0  0  0  0
    0.5030    9.7590   -2.0150 C   0  0  0  0  0  0  0  0  0  0  0  0
   -0.8909    7.7030   -1.8130 H   0  0  0  0  0  0  0  0  0  0  0  0
   -2.4648    8.2963   -2.4433 H   0  0  0  0  0  0  0  0  0  0  0  0
   -1.0316    9.3792   -2.4433 H   0  0  0  0  0  0  0  0  0  0  0  0
   -1.7073    8.2598    0.2097 H   0  0  0  0  0  0  0  0  0  0  0  0
   -3.5880    9.9715    0.5461 H   0  0  0  0  0  0  0  0  0  0  0  0
   -3.7069    9.9666   -1.2787 H   0  0  0  0  0  0  0  0  0  0  0  0
   -3.7857    7.3125   -0.7897 H   0  0  0  0  0  0  0  0  0  0  0  0
   -4.5772    7.9502    0.7116 H   0  0  0  0  0  0  0  0  0  0  0  0
   -5.4959    9.4655   -1.0081 H   0  0  0  0  0  0  0  0  0  0  0  0
   -4.8844    5.7604   -1.7957 H   0  0  0  0  0  0  0  0  0  0  0  0
   -5.8889    5.6360   -3.2797 H   0  0  0  0  0  0  0  0  0  0  0  0
   -4.4090    6.6541   -3.2797 H   0  0  0  0  0  0  0  0  0  0  0  0
   -7.8896    8.4973   -2.6745 H   0  0  0  0  0  0  0  0  0  0  0  0
   -6.5569    8.7822   -3.8447 H   0  0  0  0  0  0  0  0  0  0  0  0
   -7.4321    7.2136   -3.8447 H   0  0  0  0  0  0  0  0  0  0  0  0
   -1.9043   10.9953    0.1366 H   0  0  0  0  0  0  0  0  0  0  0  0
   -0.4765   10.3039    1.9576 H   0  0  0  0  0  0  0  0  0  0  0  0
    0.1934    8.9509    1.0213 H   0  0  0  0  0  0  0  0  0  0  0  0
    1.5249   11.4226    1.5540 H   0  0  0  0  0  0  0  0  0  0  0  0
    2.0401   10.2675    0.3273 H   0  0  0  0  0  0  0  0  0  0  0  0
    0.0858   12.8358    1.4260 H   0  0  0  0  0  0  0  0  0  0  0  0
    0.4179   13.9741    0.0767 H   0  0  0  0  0  0  0  0  0  0  0  0
   -1.0890   12.9965    0.0767 H   0  0  0  0  0  0  0  0  0  0  0  0
    2.3316   11.5248   -1.7213 H   0  0  0  0  0  0  0  0  0  0  0  0
    3.0234   12.8961    0.3473 H   0  0  0  0  0  0  0  0  0  0  0  0
    3.8104   13.1817   -1.2926 H   0  0  0  0  0  0  0  0  0  0  0  0
    3.2245   15.3336    0.1095 H   0  0  0  0  0  0  0  0  0  0  0  0
   -0.1572   14.5702   -1.9587 H   0  0  0  0  0  0  0  0  0  0  0  0
    1.8251   15.5951   -4.0845 H   0  0  0  0  0  0  0  0  0  0  0  0
    0.1073   15.0615   -4.3597 H   0  0  0  0  0  0  0  0  0  0  0  0
    0.3313   17.5250   -4.3402 H   0  0  0  0  0  0  0  0  0  0  0  0
   -0.7134   16.8997   -3.0047 H   0  0  0  0  0  0  0  0  0  0  0  0
    0.7112   18.6212   -2.1275 H   0  0  0  0  0  0  0  0  0  0  0  0
    3.1030   18.0550   -2.2050 H   0  0  0  0  0  0  0  0  0  0  0  0
    0.1581   16.9161    0.8088 H   0  0  0  0  0  0  0  0  0  0  0  0
   -0.5754   17.8376   -0.5476 H   0  0  0  0  0  0  0  0  0  0  0  0
   -0.6313   16.0421   -0.5476 H   0  0  0  0  0  0  0  0  0  0  0  0
    2.1032   17.4523    0.9208 H   0  0  0  0  0  0  0  0  0  0  0  0
    3.3569   17.2553   -0.3504 H   0  0  0  0  0  0  0  0  0  0  0  0
    2.2980   18.7063   -0.3504 H   0  0  0  0  0  0  0  0  0  0  0  0
    3.3784   13.0816   -3.2229 H   0  0  0  0  0  0  0  0  0  0  0  0
    2.2804   12.2271   -4.3592 H   0  0  0  0  0  0  0  0  0  0  0  0
    2.3530   14.0219   -4.3592 H   0  0  0  0  0  0  0  0  0  0  0  0
   -0.5227   13.1383   -3.9057 H   0  0  0  0  0  0  0  0  0  0  0  0
    0.4694   11.5738   -3.8581 H   0  0  0  0  0  0  0  0  0  0  0  0
   -1.5294   12.5593   -1.8038 H   0  0  0  0  0  0  0  0  0  0  0  0
   -1.6378   11.1115   -2.8806 H   0  0  0  0  0  0  0  0  0  0  0  0
    0.9387    9.0661   -1.2801 H   0  0  0  0  0  0  0  0  0  0  0  0
   -0.2181    9.2186   -2.6458 H   0  0  0  0  0  0  0  0  0  0  0  0
    1.3025   10.1748   -2.6458 H   0  0  0  0  0  0  0  0  0  0  0  0
  1  2  1  0
  2  3  1  0
  3  4  1  0
  4  5  1  0
  5  6  1  0
  6  7  1  0
  7  8  1  0
  7  9  1  0
  2 10  1  0
 10 11  1  0
 11 12  1  0
 12 13  1  0
 13 14  1  1
 13 15  1  0
 15 16  1  0
 16 17  1  0
 17 18  2  0
 18 19  1  0
 19 20  1  0
 20 21  1  0
 21 22  1  0
 22 23  1  0
 22 24  1  0
 24 25  1  0
 24 26  1  0
 19 27  1  0
 27 28  1  6
 27 29  1  0
 29 30  1  0
 30 31  1  0
 31 32  1  6
  7  5  1  0
 31 10  1  0
 31 13  1  0
 27 15  1  0
 24 18  1  0
  1 33  1  0
  1 34  1  0
  1 35  1  0
  2 36  1  1
  3 37  1  0
  3 38  1  0
  4 39  1  0
  4 40  1  0
  5 41  1  6
  8 42  1  0
  8 43  1  0
  8 44  1  0
  9 45  1  0
  9 46  1  0
  9 47  1  0
 10 48  1  1
 11 49  1  0
 11 50  1  0
 12 51  1  0
 12 52  1  0
 14 53  1  0
 14 54  1  0
 14 55  1  0
 15 56  1  6
 16 57  1  0
 16 58  1  0
 17 59  1  0
 19 60  1  1
 20 61  1  0
 20 62  1  0
 21 63  1  0
 21 64  1  0
 22 65  1  1
 23 66  1  0
 25 67  1  0
 25 68  1  0
 25 69  1  0
 26 70  1  0
 26 71  1  0
 26 72  1  0
 28 73  1  0
 28 74  1  0
 28 75  1  0
 29 76  1  0
 29 77  1  0
 30 78  1  0
 30 79  1  0
 32 80  1  0
 32 81  1  0
 32 82  1  0
M  END
>  <meeko>  (1) 
{"is_sidechain": [false], "intermolecular_energy": 2.731, "internal_energy": -0.839}

$$$$
EPH_relaxed_0001_pdb2pqr_Repair_112_r2_0001_out
     RDKit          3D

 82 86  0  0  0  0  0  0  0  0999 V2000
    4.2050   17.5550   -0.0660 C   0  0  0  0  0  0  0  0  0  0  0  0
    2.7940   18.1480   -0.1110 C   0  0  2  0  0  0  0  0  0  0  0  0
    2.5250   19.0980    1.0730 C   0  0  0  0  0  0  0  0  0  0  0  0
    3.7740   19.8320    1.5690 C   0  0  0  0  0  0  0  0  0  0  0  0
    4.3150   19.2180    2.8250 C   0  0  2  0  0  0  0  0  0  0  0  0
    5.0850   20.1090    3.6430 O   0  0  0  0  0  0  0  0  0  0  0  0
    5.7940   18.9950    3.0780 C   0  0  0  0  0  0  0  0  0  0  0  0
    6.8260   19.3810    2.0640 C   0  0  0  0  0  0  0  0  0  0  0  0
    6.2000   17.9650    4.0850 C   0  0  0  0  0  0  0  0  0  0  0  0
    1.7600   17.0270   -0.1250 C   0  0  1  0  0  0  0  0  0  0  0  0
    0.3310   17.5370   -0.4520 C   0  0  0  0  0  0  0  0  0  0  0  0
   -0.3630   16.4220   -1.2760 C   0  0  0  0  0  0  0  0  0  0  0  0
    0.5540   15.1880   -1.1130 C   0  0  1  0  0  0  0  0  0  0  0  0
    0.1680   14.5800    0.2720 C   0  0  0  0  0  0  0  0  0  0  0  0
    0.4840   14.1190   -2.2520 C   0  0  2  0  0  0  0  0  0  0  0  0
   -0.8860   13.4390   -2.4240 C   0  0  0  0  0  0  0  0  0  0  0  0
   -1.0840   12.1930   -1.6270 C   0  0  0  0  0  0  0  0  0  0  0  0
   -0.1090   11.4840   -1.0270 C   0  0  0  0  0  0  0  0  0  0  0  0
    1.3660   11.8690   -1.2030 C   0  0  1  0  0  0  0  0  0  0  0  0
    2.1980   10.5990   -1.5180 C   0  0  0  0  0  0  0  0  0  0  0  0
    2.0020    9.4980   -0.4800 C   0  0  0  0  0  0  0  0  0  0  0  0
    0.5310    9.1020   -0.3760 C   0  0  2  0  0  0  0  0  0  0  0  0
    0.1330    8.4810   -1.6030 O   0  0  0  0  0  0  0  0  0  0  0  0
   -0.4060   10.3030   -0.0700 C   0  0  0  0  0  0  0  0  0  0  0  0
   -0.1770   10.7860    1.3830 C   0  0  0  0  0  0  0  0  0  0  0  0
   -1.8710    9.7930   -0.1320 C   0  0  0  0  0  0  0  0  0  0  0  0
    1.6560   13.0570   -2.2180 C   0  0  1  0  0  0  0  0  0  0  0  0
    1.7920   12.4970   -3.6670 C   0  0  0  0  0  0  0  0  0  0  0  0
    3.0440   13.7090   -1.8620 C   0  0  0  0  0  0  0  0  0  0  0  0
    3.0330   14.8410   -0.8170 C   0  0  0  0  0  0  0  0  0  0  0  0
    1.9630   15.8850   -1.1520 C   0  0  2  0  0  0  0  0  0  0  0  0
    2.3370   16.5290   -2.5300 C   0  0  0  0  0  0  0  0  0  0  0  0
    4.5148   17.4248    0.9814 H   0  0  0  0  0  0  0  0  0  0  0  0
    4.2090   16.5791   -0.5735 H   0  0  0  0  0  0  0  0  0  0  0  0
    4.9049   18.2351   -0.5735 H   0  0  0  0  0  0  0  0  0  0  0  0
    2.7132   18.7407   -1.0341 H   0  0  0  0  0  0  0  0  0  0  0  0
    1.7848   19.8473    0.7558 H   0  0  0  0  0  0  0  0  0  0  0  0
    2.1638   18.4782    1.9069 H   0  0  0  0  0  0  0  0  0  0  0  0
    4.5476   19.7872    0.7883 H   0  0  0  0  0  0  0  0  0  0  0  0
    3.4957   20.8734    1.7883 H   0  0  0  0  0  0  0  0  0  0  0  0
    3.4447   18.5496    2.9010 H   0  0  0  0  0  0  0  0  0  0  0  0
    7.7365   19.7215    2.5788 H   0  0  0  0  0  0  0  0  0  0  0  0
    7.0645   18.5113    1.4341 H   0  0  0  0  0  0  0  0  0  0  0  0
    6.4352   20.1937    1.4341 H   0  0  0  0  0  0  0  0  0  0  0  0
    6.0436   18.3619    5.0989 H   0  0  0  0  0  0  0  0  0  0  0  0
    5.5918   17.0587    3.9481 H   0  0  0  0  0  0  0  0  0  0  0  0
    7.2630   17.7174    3.9481 H   0  0  0  0  0  0  0  0  0  0  0  0
    1.8920   16.6412    0.8966 H   0  0  0  0  0  0  0  0  0  0  0  0
   -0.2266   17.7241    0.4776 H   0  0  0  0  0  0  0  0  0  0  0  0
    0.3674   18.4808   -1.0158 H   0  0  0  0  0  0  0  0  0  0  0  0
   -1.3677   16.2142   -0.8792 H   0  0  0  0  0  0  0  0  0  0  0  0
   -0.4976   16.7051   -2.3304 H   0  0  0  0  0  0  0  0  0  0  0  0
    0.5705   15.2140    1.0758 H   0  0  0  0  0  0  0  0  0  0  0  0
   -0.9275   14.5302    0.3581 H   0  0  0  0  0  0  0  0  0  0  0  0
    0.5890   13.5674    0.3581 H   0  0  0  0  0  0  0  0  0  0  0  0
    0.6321   14.7276   -3.1563 H   0  0  0  0  0  0  0  0  0  0  0  0
   -1.6626   14.1593   -2.1272 H   0  0  0  0  0  0  0  0  0  0  0  0
   -0.9454   13.1372   -3.4801 H   0  0  0  0  0  0  0  0  0  0  0  0
   -2.1141   11.8221   -1.5206 H   0  0  0  0  0  0  0  0  0  0  0  0
    1.6864   12.2955   -0.2410 H   0  0  0  0  0  0  0  0  0  0  0  0
    1.8939   10.2136   -2.5024 H   0  0  0  0  0  0  0  0  0  0  0  0
    3.2603   10.8844   -1.5051 H   0  0  0  0  0  0  0  0  0  0  0  0
    2.5921    8.6173   -0.7735 H   0  0  0  0  0  0  0  0  0  0  0  0
    2.3343    9.8747    0.4986 H   0  0  0  0  0  0  0  0  0  0  0  0
    0.4353    8.4062    0.4706 H   0  0  0  0  0  0  0  0  0  0  0  0
    0.4740    9.0260   -2.3320 H   0  0  0  0  0  0  0  0  0  0  0  0
   -0.5397   10.0209    2.0852 H   0  0  0  0  0  0  0  0  0  0  0  0
    0.8973   10.9554    1.5481 H   0  0  0  0  0  0  0  0  0  0  0  0
   -0.7258   11.7249    1.5481 H   0  0  0  0  0  0  0  0  0  0  0  0
   -2.2561    9.6589    0.8896 H   0  0  0  0  0  0  0  0  0  0  0  0
   -2.4927   10.5276   -0.6648 H   0  0  0  0  0  0  0  0  0  0  0  0
   -1.9022    8.8311   -0.6648 H   0  0  0  0  0  0  0  0  0  0  0  0
    2.0514   11.4289   -3.6244 H   0  0  0  0  0  0  0  0  0  0  0  0
    0.8375   12.6216   -4.1993 H   0  0  0  0  0  0  0  0  0  0  0  0
    2.5830   13.0455   -4.1993 H   0  0  0  0  0  0  0  0  0  0  0  0
    3.6984   12.9111   -1.4811 H   0  0  0  0  0  0  0  0  0  0  0  0
    3.3871   14.1816   -2.7942 H   0  0  0  0  0  0  0  0  0  0  0  0
    2.8213   14.4138    0.1743 H   0  0  0  0  0  0  0  0  0  0  0  0
    4.0170   15.3327   -0.8217 H   0  0  0  0  0  0  0  0  0  0  0  0
    2.8827   17.4687   -2.3595 H   0  0  0  0  0  0  0  0  0  0  0  0
    2.9721   15.8342   -3.0991 H   0  0  0  0  0  0  0  0  0  0  0  0
    1.4188   16.7363   -3.0991 H   0  0  0  0  0  0  0  0  0  0  0  0
  1  2  1  0
  2  3  1  0
  3  4  1  0
  4  5  1  0
  5  6  1  0
  6  7  1  0
  7  8  1  0
  7  9  1  0
  2 10  1  0
 10 11  1  0
 11 12  1  0
 12 13  1  0
 13 14  1  1
 13 15  1  0
 15 16  1  0
 16 17  1  0
 17 18  2  0
 18 19  1  0
 19 20  1  0
 20 21  1  0
 21 22  1  0
 22 23  1  0
 22 24  1  0
 24 25  1  0
 24 26  1  0
 19 27  1  0
 27 28  1  6
 27 29  1  0
 29 30  1  0
 30 31  1  0
 31 32  1  6
  7  5  1  0
 31 10  1  0
 31 13  1  0
 27 15  1  0
 24 18  1  0
  1 33  1  0
  1 34  1  0
  1 35  1  0
  2 36  1  6
  3 37  1  0
  3 38  1  0
  4 39  1  0
  4 40  1  0
  5 41  1  1
  8 42  1  0
  8 43  1  0
  8 44  1  0
  9 45  1  0
  9 46  1  0
  9 47  1  0
 10 48  1  1
 11 49  1  0
 11 50  1  0
 12 51  1  0
 12 52  1  0
 14 53  1  0
 14 54  1  0
 14 55  1  0
 15 56  1  6
 16 57  1  0
 16 58  1  0
 17 59  1  0
 19 60  1  1
 20 61  1  0
 20 62  1  0
 21 63  1  0
 21 64  1  0
 22 65  1  1
 23 66  1  0
 25 67  1  0
 25 68  1  0
 25 69  1  0
 26 70  1  0
 26 71  1  0
 26 72  1  0
 28 73  1  0
 28 74  1  0
 28 75  1  0
 29 76  1  0
 29 77  1  0
 30 78  1  0
 30 79  1  0
 32 80  1  0
 32 81  1  0
 32 82  1  0
M  END
>  <meeko>  (2) 
{"is_sidechain": [false], "intermolecular_energy": 2.731, "internal_energy": -0.839}

$$$$
EPH_relaxed_0001_pdb2pqr_Repair_112_r2_0001_out
     RDKit          3D

 82 86  0  0  0  0  0  0  0  0999 V2000
    2.3680   18.0070   -2.7080 C   0  0  0  0  0  0  0  0  0  0  0  0
    1.0580   17.6360   -2.0050 C   0  0  2  0  0  0  0  0  0  0  0  0
    1.1800   17.7150   -0.4700 C   0  0  0  0  0  0  0  0  0  0  0  0
    0.8690   19.1000    0.1020 C   0  0  0  0  0  0  0  0  0  0  0  0
   -0.5640   19.2170    0.5240 C   0  0  2  0  0  0  0  0  0  0  0  0
   -1.4450   18.2590   -0.0770 O   0  0  0  0  0  0  0  0  0  0  0  0
   -1.6810   19.6350   -0.4140 C   0  0  0  0  0  0  0  0  0  0  0  0
   -1.4130   19.9660   -1.8480 C   0  0  0  0  0  0  0  0  0  0  0  0
   -2.9390   20.1930    0.1760 C   0  0  0  0  0  0  0  0  0  0  0  0
    0.6230   16.2360   -2.4220 C   0  0  1  0  0  0  0  0  0  0  0  0
    0.7410   16.0050   -3.9520 C   0  0  0  0  0  0  0  0  0  0  0  0
    1.1520   14.5230   -4.1510 C   0  0  0  0  0  0  0  0  0  0  0  0
    0.9350   13.8700   -2.7660 C   0  0  1  0  0  0  0  0  0  0  0  0
   -0.5950   13.5670   -2.7000 C   0  0  0  0  0  0  0  0  0  0  0  0
    1.7890   12.5950   -2.4610 C   0  0  2  0  0  0  0  0  0  0  0  0
    1.5260   11.3970   -3.3900 C   0  0  0  0  0  0  0  0  0  0  0  0
    0.4650   10.4530   -2.9280 C   0  0  0  0  0  0  0  0  0  0  0  0
   -0.0490   10.4020   -1.6850 C   0  0  0  0  0  0  0  0  0  0  0  0
    0.5080   11.2900   -0.5650 C   0  0  1  0  0  0  0  0  0  0  0  0
    0.7230   10.4380    0.7130 C   0  0  0  0  0  0  0  0  0  0  0  0
   -0.5370    9.6880    1.1350 C   0  0  0  0  0  0  0  0  0  0  0  0
   -1.0270    8.7720    0.0160 C   0  0  2  0  0  0  0  0  0  0  0  0
   -0.0670    7.7300   -0.1800 O   0  0  0  0  0  0  0  0  0  0  0  0
   -1.2690    9.5190   -1.3250 C   0  0  0  0  0  0  0  0  0  0  0  0
   -2.5110   10.4350   -1.1950 C   0  0  0  0  0  0  0  0  0  0  0  0
   -1.6230    8.4600   -2.4040 C   0  0  0  0  0  0  0  0  0  0  0  0
    1.7840   12.1600   -0.9400 C   0  0  1  0  0  0  0  0  0  0  0  0
    3.0820   11.3270   -0.7110 C   0  0  0  0  0  0  0  0  0  0  0  0
    1.8700   13.3930    0.0350 C   0  0  0  0  0  0  0  0  0  0  0  0
    1.1020   14.6630   -0.3800 C   0  0  0  0  0  0  0  0  0  0  0  0
    1.4120   15.0410   -1.8310 C   0  0  2  0  0  0  0  0  0  0  0  0
    2.9410   15.3720   -1.9230 C   0  0  0  0  0  0  0  0  0  0  0  0
    3.1393   18.2254   -1.9547 H   0  0  0  0  0  0  0  0  0  0  0  0
    2.6973   17.1668   -3.3370 H   0  0  0  0  0  0  0  0  0  0  0  0
    2.2078   18.8951   -3.3370 H   0  0  0  0  0  0  0  0  0  0  0  0
    0.2978   18.3687   -2.3134 H   0  0  0  0  0  0  0  0  0  0  0  0
    0.4789   16.9916   -0.0283 H   0  0  0  0  0  0  0  0  0  0  0  0
    2.2275   17.4917   -0.2191 H   0  0  0  0  0  0  0  0  0  0  0  0
    1.5134   19.2777    0.9756 H   0  0  0  0  0  0  0  0  0  0  0  0
    1.0565   19.8456   -0.6847 H   0  0  0  0  0  0  0  0  0  0  0  0
   -0.2659   19.5730    1.5212 H   0  0  0  0  0  0  0  0  0  0  0  0
   -0.7217   20.8198   -1.9042 H   0  0  0  0  0  0  0  0  0  0  0  0
   -0.9621   19.0956   -2.3471 H   0  0  0  0  0  0  0  0  0  0  0  0
   -2.3581   20.2260   -2.3471 H   0  0  0  0  0  0  0  0  0  0  0  0
   -2.8735   20.1639    1.2737 H   0  0  0  0  0  0  0  0  0  0  0  0
   -3.0697   21.2335   -0.1561 H   0  0  0  0  0  0  0  0  0  0  0  0
   -3.7980   19.5915   -0.1561 H   0  0  0  0  0  0  0  0  0  0  0  0
   -0.4053   16.2380   -2.0313 H   0  0  0  0  0  0  0  0  0  0  0  0
   -0.2257   16.1987   -4.4399 H   0  0  0  0  0  0  0  0  0  0  0  0
    1.4832   16.6837   -4.3975 H   0  0  0  0  0  0  0  0  0  0  0  0
    0.5179   14.0426   -4.9107 H   0  0  0  0  0  0  0  0  0  0  0  0
    2.1891   14.4209   -4.5030 H   0  0  0  0  0  0  0  0  0  0  0  0
   -0.9113   13.5044   -1.6483 H   0  0  0  0  0  0  0  0  0  0  0  0
   -1.1503   14.3726   -3.2026 H   0  0  0  0  0  0  0  0  0  0  0  0
   -0.8014   12.6105   -3.2026 H   0  0  0  0  0  0  0  0  0  0  0  0
    2.8099   12.9335   -2.6918 H   0  0  0  0  0  0  0  0  0  0  0  0
    1.2278   11.7886   -4.3737 H   0  0  0  0  0  0  0  0  0  0  0  0
    2.4607   10.8175   -3.4117 H   0  0  0  0  0  0  0  0  0  0  0  0
    0.0702    9.7390   -3.6658 H   0  0  0  0  0  0  0  0  0  0  0  0
   -0.2568   12.0580   -0.3772 H   0  0  0  0  0  0  0  0  0  0  0  0
    1.5207    9.7059    0.5187 H   0  0  0  0  0  0  0  0  0  0  0  0
    0.9929   11.1235    1.5298 H   0  0  0  0  0  0  0  0  0  0  0  0
   -0.3138    9.0814    2.0251 H   0  0  0  0  0  0  0  0  0  0  0  0
   -1.3249   10.4225    1.3579 H   0  0  0  0  0  0  0  0  0  0  0  0
   -1.9996    8.3626    0.3266 H   0  0  0  0  0  0  0  0  0  0  0  0
   -0.4360    7.1080   -0.8300 H   0  0  0  0  0  0  0  0  0  0  0  0
   -2.7350   10.6002   -0.1308 H   0  0  0  0  0  0  0  0  0  0  0  0
   -2.3070   11.4005   -1.6809 H   0  0  0  0  0  0  0  0  0  0  0  0
   -3.3732    9.9549   -1.6809 H   0  0  0  0  0  0  0  0  0  0  0  0
   -1.9351    7.5264   -1.9130 H   0  0  0  0  0  0  0  0  0  0  0  0
   -2.4442    8.8364   -3.0317 H   0  0  0  0  0  0  0  0  0  0  0  0
   -0.7405    8.2669   -3.0317 H   0  0  0  0  0  0  0  0  0  0  0  0
    3.2590   11.2134    0.3687 H   0  0  0  0  0  0  0  0  0  0  0  0
    2.9662   10.3341   -1.1701 H   0  0  0  0  0  0  0  0  0  0  0  0
    3.9364   11.8459   -1.1701 H   0  0  0  0  0  0  0  0  0  0  0  0
    1.4793   13.0724    1.0120 H   0  0  0  0  0  0  0  0  0  0  0  0
    2.9304   13.6856    0.0355 H   0  0  0  0  0  0  0  0  0  0  0  0
    0.0221   14.4798   -0.2787 H   0  0  0  0  0  0  0  0  0  0  0  0
    1.4148   15.4912    0.2728 H   0  0  0  0  0  0  0  0  0  0  0  0
    3.3582   15.4623   -0.9092 H   0  0  0  0  0  0  0  0  0  0  0  0
    3.4590   14.5652   -2.4622 H   0  0  0  0  0  0  0  0  0  0  0  0
    3.0790   16.3208   -2.4622 H   0  0  0  0  0  0  0  0  0  0  0  0
  1  2  1  0
  2  3  1  0
  3  4  1  0
  4  5  1  0
  5  6  1  0
  6  7  1  0
  7  8  1  0
  7  9  1  0
  2 10  1  0
 10 11  1  0
 11 12  1  0
 12 13  1  0
 13 14  1  1
 13 15  1  0
 15 16  1  0
 16 17  1  0
 17 18  2  0
 18 19  1  0
 19 20  1  0
 20 21  1  0
 21 22  1  0
 22 23  1  0
 22 24  1  0
 24 25  1  0
 24 26  1  0
 19 27  1  0
 27 28  1  6
 27 29  1  0
 29 30  1  0
 30 31  1  0
 31 32  1  1
  7  5  1  0
 31 10  1  0
 31 13  1  0
 27 15  1  0
 24 18  1  0
  1 33  1  0
  1 34  1  0
  1 35  1  0
  2 36  1  6
  3 37  1  0
  3 38  1  0
  4 39  1  0
  4 40  1  0
  5 41  1  1
  8 42  1  0
  8 43  1  0
  8 44  1  0
  9 45  1  0
  9 46  1  0
  9 47  1  0
 10 48  1  1
 11 49  1  0
 11 50  1  0
 12 51  1  0
 12 52  1  0
 14 53  1  0
 14 54  1  0
 14 55  1  0
 15 56  1  6
 16 57  1  0
 16 58  1  0
 17 59  1  0
 19 60  1  1
 20 61  1  0
 20 62  1  0
 21 63  1  0
 21 64  1  0
 22 65  1  1
 23 66  1  0
 25 67  1  0
 25 68  1  0
 25 69  1  0
 26 70  1  0
 26 71  1  0
 26 72  1  0
 28 73  1  0
 28 74  1  0
 28 75  1  0
 29 76  1  0
 29 77  1  0
 30 78  1  0
 30 79  1  0
 32 80  1  0
 32 81  1  0
 32 82  1  0
M  END
>  <meeko>  (3) 
{"is_sidechain": [false], "intermolecular_energy": 2.731, "internal_energy": -0.839}

$$$$
EPH_relaxed_0001_pdb2pqr_Repair_112_r2_0001_out
     RDKit          3D

 82 86  0  0  0  0  0  0  0  0999 V2000
    0.3520   18.4590   -0.0520 C   0  0  0  0  0  0  0  0  0  0  0  0
    1.4450   17.4040   -0.2430 C   0  0  2  0  0  0  0  0  0  0  0  0
    2.6690   17.9650   -0.9950 C   0  0  0  0  0  0  0  0  0  0  0  0
    3.9060   18.1410   -0.1100 C   0  0  0  0  0  0  0  0  0  0  0  0
    3.5450   18.6320    1.2590 C   0  0  2  0  0  0  0  0  0  0  0  0
    3.8060   20.0230    1.4840 O   0  0  0  0  0  0  0  0  0  0  0  0
    4.5680   19.0990    2.2770 C   0  0  0  0  0  0  0  0  0  0  0  0
    6.0320   19.0960    1.9700 C   0  0  0  0  0  0  0  0  0  0  0  0
    4.1890   19.0930    3.7260 C   0  0  0  0  0  0  0  0  0  0  0  0
    0.8810   16.2020   -0.9910 C   0  0  1  0  0  0  0  0  0  0  0  0
    0.7330   16.4610   -2.5140 C   0  0  0  0  0  0  0  0  0  0  0  0
    1.0350   15.1180   -3.2280 C   0  0  0  0  0  0  0  0  0  0  0  0
    1.0190   14.0630   -2.0970 C   0  0  1  0  0  0  0  0  0  0  0  0
   -0.4910   13.7450   -1.8660 C   0  0  0  0  0  0  0  0  0  0  0  0
    1.8500   12.7630   -2.3520 C   0  0  2  0  0  0  0  0  0  0  0  0
    1.3800   11.9130   -3.5460 C   0  0  0  0  0  0  0  0  0  0  0  0
    0.3670   10.8660   -3.2230 C   0  0  0  0  0  0  0  0  0  0  0  0
    0.0640   10.4250   -1.9880 C   0  0  0  0  0  0  0  0  0  0  0  0
    0.8400   10.9220   -0.7620 C   0  0  1  0  0  0  0  0  0  0  0  0
    1.2230    9.7150    0.1340 C   0  0  0  0  0  0  0  0  0  0  0  0
    0.0160    8.8620    0.5140 C   0  0  0  0  0  0  0  0  0  0  0  0
   -0.6950    8.3380   -0.7310 C   0  0  2  0  0  0  0  0  0  0  0  0
    0.1690    7.4160   -1.4020 O   0  0  0  0  0  0  0  0  0  0  0  0
   -1.1200    9.4650   -1.7140 C   0  0  0  0  0  0  0  0  0  0  0  0
   -2.2780   10.2860   -1.0950 C   0  0  0  0  0  0  0  0  0  0  0  0
   -1.6980    8.7940   -2.9890 C   0  0  0  0  0  0  0  0  0  0  0  0
    2.0760   11.8750   -1.0630 C   0  0  1  0  0  0  0  0  0  0  0  0
    3.3530   11.0200   -1.3300 C   0  0  0  0  0  0  0  0  0  0  0  0
    2.3810   12.7420    0.2160 C   0  0  0  0  0  0  0  0  0  0  0  0
    1.6160   14.0720    0.3510 C   0  0  0  0  0  0  0  0  0  0  0  0
    1.6990   14.8870   -0.9430 C   0  0  2  0  0  0  0  0  0  0  0  0
    3.2050   15.2400   -1.1900 C   0  0  0  0  0  0  0  0  0  0  0  0
    0.1833   18.6218    1.0227 H   0  0  0  0  0  0  0  0  0  0  0  0
    0.6674   19.4028   -0.5208 H   0  0  0  0  0  0  0  0  0  0  0  0
   -0.5801   18.1104   -0.5208 H   0  0  0  0  0  0  0  0  0  0  0  0
    1.7849   17.0948    0.7564 H   0  0  0  0  0  0  0  0  0  0  0  0
    2.9219   17.2733   -1.8121 H   0  0  0  0  0  0  0  0  0  0  0  0
    2.3912   18.9639   -1.3624 H   0  0  0  0  0  0  0  0  0  0  0  0
    4.4183   17.1720   -0.0172 H   0  0  0  0  0  0  0  0  0  0  0  0
    4.5597   18.8901   -0.5808 H   0  0  0  0  0  0  0  0  0  0  0  0
    2.7151   17.9129    1.3236 H   0  0  0  0  0  0  0  0  0  0  0  0
    6.6037   19.0948    2.9098 H   0  0  0  0  0  0  0  0  0  0  0  0
    6.2826   18.1973    1.3872 H   0  0  0  0  0  0  0  0  0  0  0  0
    6.2863   19.9936    1.3872 H   0  0  0  0  0  0  0  0  0  0  0  0
    5.0994   19.1074    4.3432 H   0  0  0  0  0  0  0  0  0  0  0  0
    3.5804   19.9816    3.9495 H   0  0  0  0  0  0  0  0  0  0  0  0
    3.6088   18.1856    3.9495 H   0  0  0  0  0  0  0  0  0  0  0  0
   -0.0673   16.0757   -0.4481 H   0  0  0  0  0  0  0  0  0  0  0  0
   -0.2909   16.7905   -2.7444 H   0  0  0  0  0  0  0  0  0  0  0  0
    1.4223   17.2500   -2.8491 H   0  0  0  0  0  0  0  0  0  0  0  0
    0.2623   14.8947   -3.9784 H   0  0  0  0  0  0  0  0  0  0  0  0
    1.9940   15.1381   -3.7664 H   0  0  0  0  0  0  0  0  0  0  0  0
   -0.6956   13.7019   -0.7861 H   0  0  0  0  0  0  0  0  0  0  0  0
   -1.1061   14.5333   -2.3245 H   0  0  0  0  0  0  0  0  0  0  0  0
   -0.7359   12.7756   -2.3245 H   0  0  0  0  0  0  0  0  0  0  0  0
    2.8336   13.1634   -2.6389 H   0  0  0  0  0  0  0  0  0  0  0  0
    0.9423   12.5903   -4.2941 H   0  0  0  0  0  0  0  0  0  0  0  0
    2.2696   11.3753   -3.9059 H   0  0  0  0  0  0  0  0  0  0  0  0
   -0.1784   10.4164   -4.0658 H   0  0  0  0  0  0  0  0  0  0  0  0
    0.1536   11.5873   -0.2178 H   0  0  0  0  0  0  0  0  0  0  0  0
    1.9421    9.0856   -0.4108 H   0  0  0  0  0  0  0  0  0  0  0  0
    1.6563   10.1133    1.0633 H   0  0  0  0  0  0  0  0  0  0  0  0
    0.3544    8.0094    1.1210 H   0  0  0  0  0  0  0  0  0  0  0  0
   -0.6885    9.4848    1.0848 H   0  0  0  0  0  0  0  0  0  0  0  0
   -1.6208    7.8454   -0.3989 H   0  0  0  0  0  0  0  0  0  0  0  0
    0.4250    6.7330   -0.7590 H   0  0  0  0  0  0  0  0  0  0  0  0
   -2.2140   10.2406    0.0022 H   0  0  0  0  0  0  0  0  0  0  0  0
   -2.2018   11.3330   -1.4238 H   0  0  0  0  0  0  0  0  0  0  0  0
   -3.2407    9.8676   -1.4238 H   0  0  0  0  0  0  0  0  0  0  0  0
   -2.3904    7.9902   -2.6985 H   0  0  0  0  0  0  0  0  0  0  0  0
   -2.2371    9.5444   -3.5860 H   0  0  0  0  0  0  0  0  0  0  0  0
   -0.8761    8.3720   -3.5860 H   0  0  0  0  0  0  0  0  0  0  0  0
    3.8007   10.7203   -0.3710 H   0  0  0  0  0  0  0  0  0  0  0  0
    3.0797   10.1221   -1.9037 H   0  0  0  0  0  0  0  0  0  0  0  0
    4.0791   11.6147   -1.9037 H   0  0  0  0  0  0  0  0  0  0  0  0
    2.1423   12.1296    1.0980 H   0  0  0  0  0  0  0  0  0  0  0  0
    3.4398   13.0264    0.1257 H   0  0  0  0  0  0  0  0  0  0  0  0
    0.5603   13.8586    0.5746 H   0  0  0  0  0  0  0  0  0  0  0  0
    2.0715   14.6572    1.1634 H   0  0  0  0  0  0  0  0  0  0  0  0
    3.7167   15.3599   -0.2237 H   0  0  0  0  0  0  0  0  0  0  0  0
    3.6829   14.4295   -1.7599 H   0  0  0  0  0  0  0  0  0  0  0  0
    3.2730   16.1784   -1.7599 H   0  0  0  0  0  0  0  0  0  0  0  0
  1  2  1  0
  2  3  1  0
  3  4  1  0
  4  5  1  0
  5  6  1  0
  6  7  1  0
  7  8  1  0
  7  9  1  0
  2 10  1  0
 10 11  1  0
 11 12  1  0
 12 13  1  0
 13 14  1  1
 13 15  1  0
 15 16  1  0
 16 17  1  0
 17 18  2  0
 18 19  1  0
 19 20  1  0
 20 21  1  0
 21 22  1  0
 22 23  1  0
 22 24  1  0
 24 25  1  0
 24 26  1  0
 19 27  1  0
 27 28  1  6
 27 29  1  0
 29 30  1  0
 30 31  1  0
 31 32  1  6
  7  5  1  0
 31 10  1  0
 31 13  1  0
 27 15  1  0
 24 18  1  0
  1 33  1  0
  1 34  1  0
  1 35  1  0
  2 36  1  1
  3 37  1  0
  3 38  1  0
  4 39  1  0
  4 40  1  0
  5 41  1  1
  8 42  1  0
  8 43  1  0
  8 44  1  0
  9 45  1  0
  9 46  1  0
  9 47  1  0
 10 48  1  1
 11 49  1  0
 11 50  1  0
 12 51  1  0
 12 52  1  0
 14 53  1  0
 14 54  1  0
 14 55  1  0
 15 56  1  6
 16 57  1  0
 16 58  1  0
 17 59  1  0
 19 60  1  1
 20 61  1  0
 20 62  1  0
 21 63  1  0
 21 64  1  0
 22 65  1  1
 23 66  1  0
 25 67  1  0
 25 68  1  0
 25 69  1  0
 26 70  1  0
 26 71  1  0
 26 72  1  0
 28 73  1  0
 28 74  1  0
 28 75  1  0
 29 76  1  0
 29 77  1  0
 30 78  1  0
 30 79  1  0
 32 80  1  0
 32 81  1  0
 32 82  1  0
M  END
>  <meeko>  (4) 
{"is_sidechain": [false], "intermolecular_energy": 2.731, "internal_energy": -0.839}

$$$$
EPH_relaxed_0001_pdb2pqr_Repair_112_r2_0001_out
     RDKit          3D

 82 86  0  0  0  0  0  0  0  0999 V2000
   -4.7020    6.4460   -2.8040 C   0  0  0  0  0  0  0  0  0  0  0  0
   -5.2590    7.7890   -2.3240 C   0  0  2  0  0  0  0  0  0  0  0  0
   -5.0830    7.9810   -0.8050 C   0  0  0  0  0  0  0  0  0  0  0  0
   -4.0230    9.0220   -0.4350 C   0  0  0  0  0  0  0  0  0  0  0  0
   -2.6480    8.5770   -0.8290 C   0  0  2  0  0  0  0  0  0  0  0  0
   -1.6180    8.9090    0.1120 O   0  0  0  0  0  0  0  0  0  0  0  0
   -1.5250    9.5360   -1.1770 C   0  0  0  0  0  0  0  0  0  0  0  0
   -1.7290   11.0190   -1.1490 C   0  0  0  0  0  0  0  0  0  0  0  0
   -0.3880    9.0350   -2.0120 C   0  0  0  0  0  0  0  0  0  0  0  0
   -6.7330    7.9030   -2.6960 C   0  0  1  0  0  0  0  0  0  0  0  0
   -7.0660    7.2000   -4.0400 C   0  0  0  0  0  0  0  0  0  0  0  0
   -8.4910    6.6070   -3.8930 C   0  0  0  0  0  0  0  0  0  0  0  0
   -9.0570    7.2640   -2.6120 C   0  0  1  0  0  0  0  0  0  0  0  0
   -9.5530    8.6720   -3.0690 C   0  0  0  0  0  0  0  0  0  0  0  0
  -10.1790    6.4710   -1.8660 C   0  0  2  0  0  0  0  0  0  0  0  0
  -11.4710    6.2530   -2.6730 C   0  0  0  0  0  0  0  0  0  0  0  0
  -12.5070    7.3160   -2.5160 C   0  0  0  0  0  0  0  0  0  0  0  0
  -12.5290    8.2500   -1.5470 C   0  0  0  0  0  0  0  0  0  0  0  0
  -11.4900    8.2390   -0.4190 C   0  0  1  0  0  0  0  0  0  0  0  0
  -12.2030    8.4390    0.9440 C   0  0  0  0  0  0  0  0  0  0  0  0
  -13.0770    9.6890    0.9690 C   0  0  0  0  0  0  0  0  0  0  0  0
  -14.1350    9.6360   -0.1300 C   0  0  2  0  0  0  0  0  0  0  0  0
  -15.0530    8.5790    0.1640 O   0  0  0  0  0  0  0  0  0  0  0  0
  -13.5350    9.4280   -1.5490 C   0  0  0  0  0  0  0  0  0  0  0  0
  -12.7840   10.7080   -1.9890 C   0  0  0  0  0  0  0  0  0  0  0  0
  -14.7130    9.2510   -2.5450 C   0  0  0  0  0  0  0  0  0  0  0  0
  -10.4900    7.0030   -0.4090 C   0  0  1  0  0  0  0  0  0  0  0  0
  -11.1230    5.8130    0.3740 C   0  0  0  0  0  0  0  0  0  0  0  0
   -9.1840    7.4050    0.3730 C   0  0  0  0  0  0  0  0  0  0  0  0
   -8.0640    8.0770   -0.4440 C   0  0  0  0  0  0  0  0  0  0  0  0
   -7.7630    7.2840   -1.7190 C   0  0  2  0  0  0  0  0  0  0  0  0
   -7.2410    5.8700   -1.2910 C   0  0  0  0  0  0  0  0  0  0  0  0
   -4.4441    5.8241   -1.9341 H   0  0  0  0  0  0  0  0  0  0  0  0
   -5.4605    5.9305   -3.4114 H   0  0  0  0  0  0  0  0  0  0  0  0
   -3.8013    6.6186   -3.4114 H   0  0  0  0  0  0  0  0  0  0  0  0
   -4.6863    8.5830   -2.8255 H   0  0  0  0  0  0  0  0  0  0  0  0
   -6.0465    8.3008   -0.3814 H   0  0  0  0  0  0  0  0  0  0  0  0
   -4.7439    7.0177   -0.3963 H   0  0  0  0  0  0  0  0  0  0  0  0
   -4.2541    9.9652   -0.9516 H   0  0  0  0  0  0  0  0  0  0  0  0
   -4.0404    9.1559    0.6567 H   0  0  0  0  0  0  0  0  0  0  0  0
   -3.0568    7.6991   -1.3508 H   0  0  0  0  0  0  0  0  0  0  0  0
   -1.7763   11.3630   -0.1052 H   0  0  0  0  0  0  0  0  0  0  0  0
   -0.8905   11.5142   -1.6606 H   0  0  0  0  0  0  0  0  0  0  0  0
   -2.6700   11.2694   -1.6606 H   0  0  0  0  0  0  0  0  0  0  0  0
    0.4198    8.6790   -1.3557 H   0  0  0  0  0  0  0  0  0  0  0  0
   -0.7363    8.2070   -2.6469 H   0  0  0  0  0  0  0  0  0  0  0  0
   -0.0120    9.8508   -2.6469 H   0  0  0  0  0  0  0  0  0  0  0  0
   -6.8362    8.9981   -2.7071 H   0  0  0  0  0  0  0  0  0  0  0  0
   -7.0417    7.9278   -4.8645 H   0  0  0  0  0  0  0  0  0  0  0  0
   -6.3319    6.4128   -4.2667 H   0  0  0  0  0  0  0  0  0  0  0  0
   -9.1097    6.8620   -4.7661 H   0  0  0  0  0  0  0  0  0  0  0  0
   -8.4813    5.5089   -3.8292 H   0  0  0  0  0  0  0  0  0  0  0  0
   -9.7704    9.2890   -2.1847 H   0  0  0  0  0  0  0  0  0  0  0  0
   -8.7719    9.1579   -3.6722 H   0  0  0  0  0  0  0  0  0  0  0  0
  -10.4662    8.5611   -3.6722 H   0  0  0  0  0  0  0  0  0  0  0  0
   -9.7269    5.4748   -1.7516 H   0  0  0  0  0  0  0  0  0  0  0  0
  -11.2012    6.1958   -3.7379 H   0  0  0  0  0  0  0  0  0  0  0  0
  -11.9216    5.3285   -2.2828 H   0  0  0  0  0  0  0  0  0  0  0  0
  -13.3216    7.3380   -3.2549 H   0  0  0  0  0  0  0  0  0  0  0  0
  -10.8180    9.0871   -0.6167 H   0  0  0  0  0  0  0  0  0  0  0  0
  -12.8363    7.5619    1.1427 H   0  0  0  0  0  0  0  0  0  0  0  0
  -11.4257    8.5596    1.7129 H   0  0  0  0  0  0  0  0  0  0  0  0
  -13.5764    9.7598    1.9465 H   0  0  0  0  0  0  0  0  0  0  0  0
  -12.4379   10.5681    0.7995 H   0  0  0  0  0  0  0  0  0  0  0  0
  -14.6439   10.6111   -0.1448 H   0  0  0  0  0  0  0  0  0  0  0  0
  -15.5950    8.8610    0.9200 H   0  0  0  0  0  0  0  0  0  0  0  0
  -12.4569   11.2655   -1.0989 H   0  0  0  0  0  0  0  0  0  0  0  0
  -11.9060   10.4296   -2.5904 H   0  0  0  0  0  0  0  0  0  0  0  0
  -13.4553   11.3386   -2.5904 H   0  0  0  0  0  0  0  0  0  0  0  0
  -15.6490    9.1104   -1.9846 H   0  0  0  0  0  0  0  0  0  0  0  0
  -14.7957   10.1468   -3.1780 H   0  0  0  0  0  0  0  0  0  0  0  0
  -14.5288    8.3705   -3.1780 H   0  0  0  0  0  0  0  0  0  0  0  0
  -11.0272    5.9930    1.4549 H   0  0  0  0  0  0  0  0  0  0  0  0
  -12.1872    5.7249    0.1098 H   0  0  0  0  0  0  0  0  0  0  0  0
  -10.6013    4.8813    0.1098 H   0  0  0  0  0  0  0  0  0  0  0  0
   -9.4761    8.1014    1.1728 H   0  0  0  0  0  0  0  0  0  0  0  0
   -8.7543    6.4549    0.7231 H   0  0  0  0  0  0  0  0  0  0  0  0
   -8.3802    9.0940   -0.7192 H   0  0  0  0  0  0  0  0  0  0  0  0
   -7.1529    8.1098    0.1714 H   0  0  0  0  0  0  0  0  0  0  0  0
   -7.2170    5.8049   -0.1932 H   0  0  0  0  0  0  0  0  0  0  0  0
   -7.9124    5.0952   -1.6897 H   0  0  0  0  0  0  0  0  0  0  0  0
   -6.2272    5.7173   -1.6897 H   0  0  0  0  0  0  0  0  0  0  0  0
  1  2  1  0
  2  3  1  0
  3  4  1  0
  4  5  1  0
  5  6  1  0
  6  7  1  0
  7  8  1  0
  7  9  1  0
  2 10  1  0
 10 11  1  0
 11 12  1  0
 12 13  1  0
 13 14  1  6
 13 15  1  0
 15 16  1  0
 16 17  1  0
 17 18  2  0
 18 19  1  0
 19 20  1  0
 20 21  1  0
 21 22  1  0
 22 23  1  0
 22 24  1  0
 24 25  1  0
 24 26  1  0
 19 27  1  0
 27 28  1  1
 27 29  1  0
 29 30  1  0
 30 31  1  0
 31 32  1  1
  7  5  1  0
 31 10  1  0
 31 13  1  0
 27 15  1  0
 24 18  1  0
  1 33  1  0
  1 34  1  0
  1 35  1  0
  2 36  1  6
  3 37  1  0
  3 38  1  0
  4 39  1  0
  4 40  1  0
  5 41  1  6
  8 42  1  0
  8 43  1  0
  8 44  1  0
  9 45  1  0
  9 46  1  0
  9 47  1  0
 10 48  1  6
 11 49  1  0
 11 50  1  0
 12 51  1  0
 12 52  1  0
 14 53  1  0
 14 54  1  0
 14 55  1  0
 15 56  1  1
 16 57  1  0
 16 58  1  0
 17 59  1  0
 19 60  1  6
 20 61  1  0
 20 62  1  0
 21 63  1  0
 21 64  1  0
 22 65  1  6
 23 66  1  0
 25 67  1  0
 25 68  1  0
 25 69  1  0
 26 70  1  0
 26 71  1  0
 26 72  1  0
 28 73  1  0
 28 74  1  0
 28 75  1  0
 29 76  1  0
 29 77  1  0
 30 78  1  0
 30 79  1  0
 32 80  1  0
 32 81  1  0
 32 82  1  0
M  END
>  <meeko>  (5) 
{"is_sidechain": [false], "intermolecular_energy": 2.731, "internal_energy": -0.839}

$$$$
EPH_relaxed_0001_pdb2pqr_Repair_112_r2_0001_out
     RDKit          3D

 82 86  0  0  0  0  0  0  0  0999 V2000
    3.6110   18.0800    0.9020 C   0  0  0  0  0  0  0  0  0  0  0  0
    2.7630   18.4660   -0.3130 C   0  0  2  0  0  0  0  0  0  0  0  0
    2.0210   19.8010   -0.1030 C   0  0  0  0  0  0  0  0  0  0  0  0
    0.9610   19.7490    1.0000 C   0  0  0  0  0  0  0  0  0  0  0  0
   -0.3820   20.1860    0.4990 C   0  0  2  0  0  0  0  0  0  0  0  0
   -1.4210   20.1780    1.4870 O   0  0  0  0  0  0  0  0  0  0  0  0
   -1.5790   19.2580    0.3950 C   0  0  0  0  0  0  0  0  0  0  0  0
   -1.4870   17.8190    0.7940 C   0  0  0  0  0  0  0  0  0  0  0  0
   -2.6860   19.6220   -0.5450 C   0  0  0  0  0  0  0  0  0  0  0  0
    1.7640   17.3580   -0.6230 C   0  0  1  0  0  0  0  0  0  0  0  0
    0.6690   17.8050   -1.6280 C   0  0  0  0  0  0  0  0  0  0  0  0
    0.3320   16.5690   -2.5010 C   0  0  0  0  0  0  0  0  0  0  0  0
    0.9900   15.3790   -1.7640 C   0  0  1  0  0  0  0  0  0  0  0  0
   -0.0130   15.0080   -0.6270 C   0  0  0  0  0  0  0  0  0  0  0  0
    1.3530   14.1380   -2.6420 C   0  0  2  0  0  0  0  0  0  0  0  0
    0.1560   13.4370   -3.3080 C   0  0  0  0  0  0  0  0  0  0  0  0
   -0.4650   12.3390   -2.5100 C   0  0  0  0  0  0  0  0  0  0  0  0
    0.0900   11.7400   -1.4400 C   0  0  0  0  0  0  0  0  0  0  0  0
    1.5130   12.0920   -0.9900 C   0  0  1  0  0  0  0  0  0  0  0  0
    2.3050   10.7880   -0.7080 C   0  0  0  0  0  0  0  0  0  0  0  0
    1.5900    9.8730    0.2820 C   0  0  0  0  0  0  0  0  0  0  0  0
    0.2000    9.4980   -0.2280 C   0  0  2  0  0  0  0  0  0  0  0  0
    0.3420    8.6830   -1.3960 O   0  0  0  0  0  0  0  0  0  0  0  0
   -0.6860   10.7320   -0.5560 C   0  0  0  0  0  0  0  0  0  0  0  0
   -1.0890   11.4470    0.7570 C   0  0  0  0  0  0  0  0  0  0  0  0
   -2.0050   10.2170   -1.1920 C   0  0  0  0  0  0  0  0  0  0  0  0
    2.3090   13.0970   -1.9300 C   0  0  1  0  0  0  0  0  0  0  0  0
    3.0310   12.3070   -3.0640 C   0  0  0  0  0  0  0  0  0  0  0  0
    3.4390   13.8010   -1.0900 C   0  0  0  0  0  0  0  0  0  0  0  0
    3.0490   15.0890   -0.3410 C   0  0  0  0  0  0  0  0  0  0  0  0
    2.3170   16.0630   -1.2700 C   0  0  2  0  0  0  0  0  0  0  0  0
    3.3080   16.4720   -2.4110 C   0  0  0  0  0  0  0  0  0  0  0  0
    3.0651   18.3285    1.8241 H   0  0  0  0  0  0  0  0  0  0  0  0
    3.8165   16.9996    0.8774 H   0  0  0  0  0  0  0  0  0  0  0  0
    4.5607   18.6345    0.8774 H   0  0  0  0  0  0  0  0  0  0  0  0
    3.4466   18.5989   -1.1645 H   0  0  0  0  0  0  0  0  0  0  0  0
    2.7603   20.5713    0.1619 H   0  0  0  0  0  0  0  0  0  0  0  0
    1.4962   20.0283   -1.0426 H   0  0  0  0  0  0  0  0  0  0  0  0
    0.8841   18.7167    1.3721 H   0  0  0  0  0  0  0  0  0  0  0  0
    1.2676   20.4356    1.8029 H   0  0  0  0  0  0  0  0  0  0  0  0
    0.0843   20.8727   -0.2228 H   0  0  0  0  0  0  0  0  0  0  0  0
   -1.4821   17.7424    1.8913 H   0  0  0  0  0  0  0  0  0  0  0  0
   -2.3519   17.2710    0.3920 H   0  0  0  0  0  0  0  0  0  0  0  0
   -0.5593   17.3856    0.3920 H   0  0  0  0  0  0  0  0  0  0  0  0
   -3.5757   19.9145    0.0320 H   0  0  0  0  0  0  0  0  0  0  0  0
   -2.3673   20.4627   -1.1788 H   0  0  0  0  0  0  0  0  0  0  0  0
   -2.9284   18.7562   -1.1788 H   0  0  0  0  0  0  0  0  0  0  0  0
    1.4017   17.1462    0.3938 H   0  0  0  0  0  0  0  0  0  0  0  0
   -0.2272   18.1421   -1.0866 H   0  0  0  0  0  0  0  0  0  0  0  0
    1.0203   18.6428   -2.2482 H   0  0  0  0  0  0  0  0  0  0  0  0
   -0.7567   16.4283   -2.5709 H   0  0  0  0  0  0  0  0  0  0  0  0
    0.6987   16.6747   -3.5327 H   0  0  0  0  0  0  0  0  0  0  0  0
    0.4599   15.1829    0.3506 H   0  0  0  0  0  0  0  0  0  0  0  0
   -0.9145   15.6322   -0.7152 H   0  0  0  0  0  0  0  0  0  0  0  0
   -0.2913   13.9474   -0.7152 H   0  0  0  0  0  0  0  0  0  0  0  0
    1.9287   14.5907   -3.4627 H   0  0  0  0  0  0  0  0  0  0  0  0
   -0.6170   14.1952   -3.5019 H   0  0  0  0  0  0  0  0  0  0  0  0
    0.5491   12.9650   -4.2205 H   0  0  0  0  0  0  0  0  0  0  0  0
   -1.4602   11.9899   -2.8227 H   0  0  0  0  0  0  0  0  0  0  0  0
    1.4031   12.6706   -0.0610 H   0  0  0  0  0  0  0  0  0  0  0  0
    2.4404   10.2456   -1.6553 H   0  0  0  0  0  0  0  0  0  0  0  0
    3.2701   11.0725   -0.2635 H   0  0  0  0  0  0  0  0  0  0  0  0
    2.1829    8.9566    0.4183 H   0  0  0  0  0  0  0  0  0  0  0  0
    1.4814   10.4062    1.2380 H   0  0  0  0  0  0  0  0  0  0  0  0
   -0.3108    8.9512    0.5783 H   0  0  0  0  0  0  0  0  0  0  0  0
    0.1250    9.2340   -2.1670 H   0  0  0  0  0  0  0  0  0  0  0  0
   -0.7526   10.8502    1.6176 H   0  0  0  0  0  0  0  0  0  0  0  0
   -0.6179   12.4404    0.7931 H   0  0  0  0  0  0  0  0  0  0  0  0
   -2.1828   11.5584    0.7931 H   0  0  0  0  0  0  0  0  0  0  0  0
   -2.7124    9.9408   -0.3962 H   0  0  0  0  0  0  0  0  0  0  0  0
   -2.4453   11.0093   -1.8153 H   0  0  0  0  0  0  0  0  0  0  0  0
   -1.7920    9.3360   -1.8153 H   0  0  0  0  0  0  0  0  0  0  0  0
    3.7096   11.5645   -2.6188 H   0  0  0  0  0  0  0  0  0  0  0  0
    2.2834   11.7937   -3.6866 H   0  0  0  0  0  0  0  0  0  0  0  0
    3.6093   13.0055   -3.6866 H   0  0  0  0  0  0  0  0  0  0  0  0
    3.7976   13.0776   -0.3430 H   0  0  0  0  0  0  0  0  0  0  0  0
    4.1922   14.1146   -1.8278 H   0  0  0  0  0  0  0  0  0  0  0  0
    2.3898   14.8303    0.5007 H   0  0  0  0  0  0  0  0  0  0  0  0
    3.9664   15.5743    0.0236 H   0  0  0  0  0  0  0  0  0  0  0  0
    4.2387   16.8561   -1.9681 H   0  0  0  0  0  0  0  0  0  0  0  0
    3.5334   15.5934   -3.0333 H   0  0  0  0  0  0  0  0  0  0  0  0
    2.8481   17.2538   -3.0333 H   0  0  0  0  0  0  0  0  0  0  0  0
  1  2  1  0
  2  3  1  0
  3  4  1  0
  4  5  1  0
  5  6  1  0
  6  7  1  0
  7  8  1  0
  7  9  1  0
  2 10  1  0
 10 11  1  0
 11 12  1  0
 12 13  1  0
 13 14  1  1
 13 15  1  0
 15 16  1  0
 16 17  1  0
 17 18  2  0
 18 19  1  0
 19 20  1  0
 20 21  1  0
 21 22  1  0
 22 23  1  0
 22 24  1  0
 24 25  1  0
 24 26  1  0
 19 27  1  0
 27 28  1  6
 27 29  1  0
 29 30  1  0
 30 31  1  0
 31 32  1  6
  7  5  1  0
 31 10  1  0
 31 13  1  0
 27 15  1  0
 24 18  1  0
  1 33  1  0
  1 34  1  0
  1 35  1  0
  2 36  1  6
  3 37  1  0
  3 38  1  0
  4 39  1  0
  4 40  1  0
  5 41  1  6
  8 42  1  0
  8 43  1  0
  8 44  1  0
  9 45  1  0
  9 46  1  0
  9 47  1  0
 10 48  1  1
 11 49  1  0
 11 50  1  0
 12 51  1  0
 12 52  1  0
 14 53  1  0
 14 54  1  0
 14 55  1  0
 15 56  1  6
 16 57  1  0
 16 58  1  0
 17 59  1  0
 19 60  1  1
 20 61  1  0
 20 62  1  0
 21 63  1  0
 21 64  1  0
 22 65  1  1
 23 66  1  0
 25 67  1  0
 25 68  1  0
 25 69  1  0
 26 70  1  0
 26 71  1  0
 26 72  1  0
 28 73  1  0
 28 74  1  0
 28 75  1  0
 29 76  1  0
 29 77  1  0
 30 78  1  0
 30 79  1  0
 32 80  1  0
 32 81  1  0
 32 82  1  0
M  END
>  <meeko>  (6) 
{"is_sidechain": [false], "intermolecular_energy": 2.731, "internal_energy": -0.839}

$$$$
EPH_relaxed_0001_pdb2pqr_Repair_112_r2_0001_out
     RDKit          3D

 82 86  0  0  0  0  0  0  0  0999 V2000
  -14.0430    5.5610    0.3290 C   0  0  0  0  0  0  0  0  0  0  0  0
  -13.5790    7.0060    0.1220 C   0  0  2  0  0  0  0  0  0  0  0  0
  -14.7570    7.9600   -0.1570 C   0  0  0  0  0  0  0  0  0  0  0  0
  -14.4210    9.4360    0.0700 C   0  0  0  0  0  0  0  0  0  0  0  0
  -15.1750   10.3280   -0.8700 C   0  0  2  0  0  0  0  0  0  0  0  0
  -15.0120   10.0090   -2.2580 O   0  0  0  0  0  0  0  0  0  0  0  0
  -14.5020   11.2840   -1.8370 C   0  0  0  0  0  0  0  0  0  0  0  0
  -13.0110   11.3980   -1.9110 C   0  0  0  0  0  0  0  0  0  0  0  0
  -15.2880   12.4480   -2.3540 C   0  0  0  0  0  0  0  0  0  0  0  0
  -12.5750    7.0700   -1.0240 C   0  0  1  0  0  0  0  0  0  0  0  0
  -13.0000    8.0650   -2.1360 C   0  0  0  0  0  0  0  0  0  0  0  0
  -11.6990    8.7020   -2.6870 C   0  0  0  0  0  0  0  0  0  0  0  0
  -10.5620    7.8230   -2.1160 C   0  0  1  0  0  0  0  0  0  0  0  0
  -10.5020    6.5810   -3.0600 C   0  0  0  0  0  0  0  0  0  0  0  0
   -9.1630    8.5080   -1.9750 C   0  0  2  0  0  0  0  0  0  0  0  0
   -8.5290    8.9760   -3.2970 C   0  0  0  0  0  0  0  0  0  0  0  0
   -7.6570    7.9730   -3.9760 C   0  0  0  0  0  0  0  0  0  0  0  0
   -7.1630    6.8560   -3.4110 C   0  0  0  0  0  0  0  0  0  0  0  0
   -7.3930    6.5580   -1.9240 C   0  0  1  0  0  0  0  0  0  0  0  0
   -6.0560    6.1160   -1.2720 C   0  0  0  0  0  0  0  0  0  0  0  0
   -5.4040    4.9490   -2.0070 C   0  0  0  0  0  0  0  0  0  0  0  0
   -5.1390    5.3040   -3.4680 C   0  0  2  0  0  0  0  0  0  0  0  0
   -4.1430    6.3300   -3.5190 O   0  0  0  0  0  0  0  0  0  0  0  0
   -6.4120    5.7740   -4.2250 C   0  0  0  0  0  0  0  0  0  0  0  0
   -7.3670    4.5720   -4.4330 C   0  0  0  0  0  0  0  0  0  0  0  0
   -5.9810    6.2360   -5.6440 C   0  0  0  0  0  0  0  0  0  0  0  0
   -8.1300    7.6960   -1.0940 C   0  0  1  0  0  0  0  0  0  0  0  0
   -7.0870    8.7280   -0.5650 C   0  0  0  0  0  0  0  0  0  0  0  0
   -8.8020    7.0520    0.1760 C   0  0  0  0  0  0  0  0  0  0  0  0
  -10.2290    6.5010    0.0030 C   0  0  0  0  0  0  0  0  0  0  0  0
  -11.1350    7.5290   -0.6820 C   0  0  2  0  0  0  0  0  0  0  0  0
  -11.2320    8.7810    0.2550 C   0  0  0  0  0  0  0  0  0  0  0  0
  -14.1112    5.3485    1.4061 H   0  0  0  0  0  0  0  0  0  0  0  0
  -15.0306    5.4230   -0.1352 H   0  0  0  0  0  0  0  0  0  0  0  0
  -13.3204    4.8738   -0.1352 H   0  0  0  0  0  0  0  0  0  0  0  0
  -13.1004    7.3367    1.0556 H   0  0  0  0  0  0  0  0  0  0  0  0
  -15.0671    7.8316   -1.2045 H   0  0  0  0  0  0  0  0  0  0  0  0
  -15.5563    7.6996    0.5525 H   0  0  0  0  0  0  0  0  0  0  0  0
  -14.6820    9.7060    1.1039 H   0  0  0  0  0  0  0  0  0  0  0  0
  -13.3455    9.5748   -0.1145 H   0  0  0  0  0  0  0  0  0  0  0  0
  -15.9766   10.4697   -0.1301 H   0  0  0  0  0  0  0  0  0  0  0  0
  -12.5947   11.4298   -0.8933 H   0  0  0  0  0  0  0  0  0  0  0  0
  -12.6029   10.5284   -2.4470 H   0  0  0  0  0  0  0  0  0  0  0  0
  -12.7399   12.3195   -2.4470 H   0  0  0  0  0  0  0  0  0  0  0  0
  -15.6810   13.0301   -1.5074 H   0  0  0  0  0  0  0  0  0  0  0  0
  -14.6360   13.0873   -2.9673 H   0  0  0  0  0  0  0  0  0  0  0  0
  -16.1247   12.0821   -2.9673 H   0  0  0  0  0  0  0  0  0  0  0  0
  -12.5714    6.0122   -1.3258 H   0  0  0  0  0  0  0  0  0  0  0  0
  -13.5303    7.5319   -2.9389 H   0  0  0  0  0  0  0  0  0  0  0  0
  -13.6791    8.8341   -1.7394 H   0  0  0  0  0  0  0  0  0  0  0  0
  -11.6916    8.6803   -3.7868 H   0  0  0  0  0  0  0  0  0  0  0  0
  -11.5960    9.7579   -2.3963 H   0  0  0  0  0  0  0  0  0  0  0  0
  -10.4576    5.6629   -2.4557 H   0  0  0  0  0  0  0  0  0  0  0  0
  -11.4001    6.5591   -3.6947 H   0  0  0  0  0  0  0  0  0  0  0  0
   -9.6059    6.6458   -3.6947 H   0  0  0  0  0  0  0  0  0  0  0  0
   -9.4047    9.4257   -1.4188 H   0  0  0  0  0  0  0  0  0  0  0  0
   -9.3421    9.2428   -3.9882 H   0  0  0  0  0  0  0  0  0  0  0  0
   -7.8753    9.8220   -3.0383 H   0  0  0  0  0  0  0  0  0  0  0  0
   -7.3959    8.1629   -5.0276 H   0  0  0  0  0  0  0  0  0  0  0  0
   -8.1176    5.7311   -1.8881 H   0  0  0  0  0  0  0  0  0  0  0  0
   -5.3616    6.9691   -1.2787 H   0  0  0  0  0  0  0  0  0  0  0  0
   -6.2784    5.7828   -0.2475 H   0  0  0  0  0  0  0  0  0  0  0  0
   -4.4501    4.7031   -1.5175 H   0  0  0  0  0  0  0  0  0  0  0  0
   -6.0869    4.0873   -1.9734 H   0  0  0  0  0  0  0  0  0  0  0  0
   -4.7942    4.3894   -3.9726 H   0  0  0  0  0  0  0  0  0  0  0  0
   -3.4320    6.0220   -4.1060 H   0  0  0  0  0  0  0  0  0  0  0  0
   -7.6796    4.1785   -3.4545 H   0  0  0  0  0  0  0  0  0  0  0  0
   -8.2529    4.9007   -4.9961 H   0  0  0  0  0  0  0  0  0  0  0  0
   -6.8465    3.7833   -4.9961 H   0  0  0  0  0  0  0  0  0  0  0  0
   -5.2330    7.0378   -5.5571 H   0  0  0  0  0  0  0  0  0  0  0  0
   -5.5457    5.3860   -6.1899 H   0  0  0  0  0  0  0  0  0  0  0  0
   -6.8591    6.6113   -6.1899 H   0  0  0  0  0  0  0  0  0  0  0  0
   -7.0918    8.7232    0.5350 H   0  0  0  0  0  0  0  0  0  0  0  0
   -6.0851    8.4559   -0.9284 H   0  0  0  0  0  0  0  0  0  0  0  0
   -7.3485    9.7328   -0.9284 H   0  0  0  0  0  0  0  0  0  0  0  0
   -8.1619    6.2202    0.5053 H   0  0  0  0  0  0  0  0  0  0  0  0
   -8.8974    7.8752    0.8994 H   0  0  0  0  0  0  0  0  0  0  0  0
  -10.1906    5.5894   -0.6114 H   0  0  0  0  0  0  0  0  0  0  0  0
  -10.6416    6.2780    0.9980 H   0  0  0  0  0  0  0  0  0  0  0  0
  -11.2068    8.4556    1.3055 H   0  0  0  0  0  0  0  0  0  0  0  0
  -10.3832    9.4526    0.0587 H   0  0  0  0  0  0  0  0  0  0  0  0
  -12.1741    9.3138    0.0587 H   0  0  0  0  0  0  0  0  0  0  0  0
  1  2  1  0
  2  3  1  0
  3  4  1  0
  4  5  1  0
  5  6  1  0
  6  7  1  0
  7  8  1  0
  7  9  1  0
  2 10  1  0
 10 11  1  0
 11 12  1  0
 12 13  1  0
 13 14  1  6
 13 15  1  0
 15 16  1  0
 16 17  1  0
 17 18  2  0
 18 19  1  0
 19 20  1  0
 20 21  1  0
 21 22  1  0
 22 23  1  0
 22 24  1  0
 24 25  1  0
 24 26  1  0
 19 27  1  0
 27 28  1  1
 27 29  1  0
 29 30  1  0
 30 31  1  0
 31 32  1  1
  7  5  1  0
 31 10  1  0
 31 13  1  0
 27 15  1  0
 24 18  1  0
  1 33  1  0
  1 34  1  0
  1 35  1  0
  2 36  1  1
  3 37  1  0
  3 38  1  0
  4 39  1  0
  4 40  1  0
  5 41  1  1
  8 42  1  0
  8 43  1  0
  8 44  1  0
  9 45  1  0
  9 46  1  0
  9 47  1  0
 10 48  1  6
 11 49  1  0
 11 50  1  0
 12 51  1  0
 12 52  1  0
 14 53  1  0
 14 54  1  0
 14 55  1  0
 15 56  1  1
 16 57  1  0
 16 58  1  0
 17 59  1  0
 19 60  1  6
 20 61  1  0
 20 62  1  0
 21 63  1  0
 21 64  1  0
 22 65  1  6
 23 66  1  0
 25 67  1  0
 25 68  1  0
 25 69  1  0
 26 70  1  0
 26 71  1  0
 26 72  1  0
 28 73  1  0
 28 74  1  0
 28 75  1  0
 29 76  1  0
 29 77  1  0
 30 78  1  0
 30 79  1  0
 32 80  1  0
 32 81  1  0
 32 82  1  0
M  END
>  <meeko>  (7) 
{"is_sidechain": [false], "intermolecular_energy": 2.731, "internal_energy": -0.839}

$$$$
EPH_relaxed_0001_pdb2pqr_Repair_112_r2_0001_out
     RDKit          3D

 82 86  0  0  0  0  0  0  0  0999 V2000
    0.4230    8.8730   -2.5390 C   0  0  0  0  0  0  0  0  0  0  0  0
    1.1840   10.0340   -3.1860 C   0  0  2  0  0  0  0  0  0  0  0  0
    2.6770   10.0360   -2.8010 C   0  0  0  0  0  0  0  0  0  0  0  0
    3.5920   10.6070   -3.8880 C   0  0  0  0  0  0  0  0  0  0  0  0
    4.9810   10.8420   -3.3760 C   0  0  2  0  0  0  0  0  0  0  0  0
    5.5980   12.0460   -3.8500 O   0  0  0  0  0  0  0  0  0  0  0  0
    6.2140   10.8150   -4.2600 C   0  0  0  0  0  0  0  0  0  0  0  0
    6.1160   10.5450   -5.7280 C   0  0  0  0  0  0  0  0  0  0  0  0
    7.5460   10.5660   -3.6230 C   0  0  0  0  0  0  0  0  0  0  0  0
    0.5430   11.3590   -2.7910 C   0  0  1  0  0  0  0  0  0  0  0  0
   -0.8350   11.1740   -2.1010 C   0  0  0  0  0  0  0  0  0  0  0  0
   -0.9530   12.2920   -1.0330 C   0  0  0  0  0  0  0  0  0  0  0  0
    0.1960   13.2720   -1.3650 C   0  0  1  0  0  0  0  0  0  0  0  0
   -0.3530   14.1540   -2.5310 C   0  0  0  0  0  0  0  0  0  0  0  0
    0.7230   14.1450   -0.1800 C   0  0  2  0  0  0  0  0  0  0  0  0
   -0.3090   15.1080    0.4310 C   0  0  0  0  0  0  0  0  0  0  0  0
   -0.3540   16.4690   -0.1820 C   0  0  0  0  0  0  0  0  0  0  0  0
    0.5890   16.9960   -0.9860 C   0  0  0  0  0  0  0  0  0  0  0  0
    1.8910   16.2380   -1.2740 C   0  0  1  0  0  0  0  0  0  0  0  0
    3.0960   17.2040   -1.1230 C   0  0  0  0  0  0  0  0  0  0  0  0
    2.9500   18.4600   -1.9760 C   0  0  0  0  0  0  0  0  0  0  0  0
    1.6730   19.2160   -1.6200 C   0  0  2  0  0  0  0  0  0  0  0  0
    1.7960   19.7280   -0.2890 O   0  0  0  0  0  0  0  0  0  0  0  0
    0.3930   18.3410   -1.7270 C   0  0  0  0  0  0  0  0  0  0  0  0
    0.0930   18.0370   -3.2160 C   0  0  0  0  0  0  0  0  0  0  0  0
   -0.8050   19.1810   -1.2060 C   0  0  0  0  0  0  0  0  0  0  0  0
    2.0940   14.8790   -0.4760 C   0  0  1  0  0  0  0  0  0  0  0  0
    2.7520   15.1680    0.9080 C   0  0  0  0  0  0  0  0  0  0  0  0
    3.1040   13.9650   -1.2660 C   0  0  0  0  0  0  0  0  0  0  0  0
    2.5070   13.0380   -2.3410 C   0  0  0  0  0  0  0  0  0  0  0  0
    1.3150   12.2520   -1.7870 C   0  0  2  0  0  0  0  0  0  0  0  0
    1.8410   11.3390   -0.6280 C   0  0  0  0  0  0  0  0  0  0  0  0
    0.4810    8.9615   -1.4441 H   0  0  0  0  0  0  0  0  0  0  0  0
   -0.6304    8.9042   -2.8541 H   0  0  0  0  0  0  0  0  0  0  0  0
    0.8719    7.9195   -2.8541 H   0  0  0  0  0  0  0  0  0  0  0  0
    1.1245    9.9021   -4.2764 H   0  0  0  0  0  0  0  0  0  0  0  0
    2.8001   10.6408   -1.8904 H   0  0  0  0  0  0  0  0  0  0  0  0
    2.9718    8.9869   -2.6509 H   0  0  0  0  0  0  0  0  0  0  0  0
    3.6365    9.8961   -4.7262 H   0  0  0  0  0  0  0  0  0  0  0  0
    3.1779   11.5731   -4.2122 H   0  0  0  0  0  0  0  0  0  0  0  0
    4.7419   10.3390   -2.4274 H   0  0  0  0  0  0  0  0  0  0  0  0
    5.7447    9.5221   -5.8887 H   0  0  0  0  0  0  0  0  0  0  0  0
    5.4214   11.2636   -6.1874 H   0  0  0  0  0  0  0  0  0  0  0  0
    7.1099   10.6507   -6.1874 H   0  0  0  0  0  0  0  0  0  0  0  0
    7.4385   10.5861   -2.5285 H   0  0  0  0  0  0  0  0  0  0  0  0
    7.9240    9.5816   -3.9363 H   0  0  0  0  0  0  0  0  0  0  0  0
    8.2541   11.3473   -3.9363 H   0  0  0  0  0  0  0  0  0  0  0  0
    0.5064   11.8466   -3.7763 H   0  0  0  0  0  0  0  0  0  0  0  0
   -1.6445   11.2686   -2.8398 H   0  0  0  0  0  0  0  0  0  0  0  0
   -0.9165   10.1779   -1.6414 H   0  0  0  0  0  0  0  0  0  0  0  0
   -1.9274   12.7972   -1.1058 H   0  0  0  0  0  0  0  0  0  0  0  0
   -0.8826   11.8987   -0.0081 H   0  0  0  0  0  0  0  0  0  0  0  0
   -0.8911   15.0185   -2.1148 H   0  0  0  0  0  0  0  0  0  0  0  0
    0.4852   14.5070   -3.1497 H   0  0  0  0  0  0  0  0  0  0  0  0
   -1.0398   13.5578   -3.1497 H   0  0  0  0  0  0  0  0  0  0  0  0
    0.9242   13.3920    0.5962 H   0  0  0  0  0  0  0  0  0  0  0  0
   -1.3045   14.6531    0.3216 H   0  0  0  0  0  0  0  0  0  0  0  0
   -0.0042   15.2560    1.4775 H   0  0  0  0  0  0  0  0  0  0  0  0
   -1.2313   17.0936    0.0421 H   0  0  0  0  0  0  0  0  0  0  0  0
    1.8176   15.8921   -2.3156 H   0  0  0  0  0  0  0  0  0  0  0  0
    3.1785   17.5024   -0.0675 H   0  0  0  0  0  0  0  0  0  0  0  0
    3.9956   16.6712   -1.4649 H   0  0  0  0  0  0  0  0  0  0  0  0
    3.8164   19.1153   -1.8030 H   0  0  0  0  0  0  0  0  0  0  0  0
    2.8982   18.1619   -3.0336 H   0  0  0  0  0  0  0  0  0  0  0  0
    1.5577   20.0308   -2.3500 H   0  0  0  0  0  0  0  0  0  0  0  0
    2.7440   19.8470   -0.1070 H   0  0  0  0  0  0  0  0  0  0  0  0
   -0.6782   17.2555   -3.2825 H   0  0  0  0  0  0  0  0  0  0  0  0
   -0.2672   18.9507   -3.7114 H   0  0  0  0  0  0  0  0  0  0  0  0
    1.0114   17.6890   -3.7114 H   0  0  0  0  0  0  0  0  0  0  0  0
   -0.8030   19.1796   -0.1060 H   0  0  0  0  0  0  0  0  0  0  0  0
   -0.7146   20.2146   -1.5715 H   0  0  0  0  0  0  0  0  0  0  0  0
   -1.7459   18.7438   -1.5715 H   0  0  0  0  0  0  0  0  0  0  0  0
    2.0640   14.8658    1.7113 H   0  0  0  0  0  0  0  0  0  0  0  0
    3.6892   14.5987    0.9944 H   0  0  0  0  0  0  0  0  0  0  0  0
    2.9669   16.2433    0.9944 H   0  0  0  0  0  0  0  0  0  0  0  0
    3.8315   14.6243   -1.7619 H   0  0  0  0  0  0  0  0  0  0  0  0
    3.5332   13.2905   -0.5105 H   0  0  0  0  0  0  0  0  0  0  0  0
    2.1719   13.6458   -3.1944 H   0  0  0  0  0  0  0  0  0  0  0  0
    3.2814   12.3237   -2.6573 H   0  0  0  0  0  0  0  0  0  0  0  0
    1.5811   11.7902    0.3409 H   0  0  0  0  0  0  0  0  0  0  0  0
    1.3774   10.3445   -0.7055 H   0  0  0  0  0  0  0  0  0  0  0  0
    2.9339   11.2412   -0.7055 H   0  0  0  0  0  0  0  0  0  0  0  0
  1  2  1  0
  2  3  1  0
  3  4  1  0
  4  5  1  0
  5  6  1  0
  6  7  1  0
  7  8  1  0
  7  9  1  0
  2 10  1  0
 10 11  1  0
 11 12  1  0
 12 13  1  0
 13 14  1  6
 13 15  1  0
 15 16  1  0
 16 17  1  0
 17 18  2  0
 18 19  1  0
 19 20  1  0
 20 21  1  0
 21 22  1  0
 22 23  1  0
 22 24  1  0
 24 25  1  0
 24 26  1  0
 19 27  1  0
 27 28  1  1
 27 29  1  0
 29 30  1  0
 30 31  1  0
 31 32  1  1
  7  5  1  0
 31 10  1  0
 31 13  1  0
 27 15  1  0
 24 18  1  0
  1 33  1  0
  1 34  1  0
  1 35  1  0
  2 36  1  6
  3 37  1  0
  3 38  1  0
  4 39  1  0
  4 40  1  0
  5 41  1  1
  8 42  1  0
  8 43  1  0
  8 44  1  0
  9 45  1  0
  9 46  1  0
  9 47  1  0
 10 48  1  6
 11 49  1  0
 11 50  1  0
 12 51  1  0
 12 52  1  0
 14 53  1  0
 14 54  1  0
 14 55  1  0
 15 56  1  1
 16 57  1  0
 16 58  1  0
 17 59  1  0
 19 60  1  6
 20 61  1  0
 20 62  1  0
 21 63  1  0
 21 64  1  0
 22 65  1  6
 23 66  1  0
 25 67  1  0
 25 68  1  0
 25 69  1  0
 26 70  1  0
 26 71  1  0
 26 72  1  0
 28 73  1  0
 28 74  1  0
 28 75  1  0
 29 76  1  0
 29 77  1  0
 30 78  1  0
 30 79  1  0
 32 80  1  0
 32 81  1  0
 32 82  1  0
M  END
>  <meeko>  (8) 
{"is_sidechain": [false], "intermolecular_energy": 2.731, "internal_energy": -0.839}

$$$$
EPH_relaxed_0001_pdb2pqr_Repair_112_r2_0001_out
     RDKit          3D

 82 86  0  0  0  0  0  0  0  0999 V2000
    3.4120   17.9200    0.5170 C   0  0  0  0  0  0  0  0  0  0  0  0
    2.9110   17.3500   -0.8130 C   0  0  2  0  0  0  0  0  0  0  0  0
    2.3190   18.4430   -1.7260 C   0  0  0  0  0  0  0  0  0  0  0  0
    1.9880   19.7450   -0.9920 C   0  0  0  0  0  0  0  0  0  0  0  0
    0.7250   19.6270   -0.1940 C   0  0  2  0  0  0  0  0  0  0  0  0
   -0.1170   18.5270   -0.5670 O   0  0  0  0  0  0  0  0  0  0  0  0
   -0.6580   19.8410   -0.7810 C   0  0  0  0  0  0  0  0  0  0  0  0
   -0.8480   20.1930   -2.2230 C   0  0  0  0  0  0  0  0  0  0  0  0
   -1.7820   20.1880    0.1450 C   0  0  0  0  0  0  0  0  0  0  0  0
    1.8700   16.2670   -0.5550 C   0  0  1  0  0  0  0  0  0  0  0  0
    0.4370   16.8420   -0.3950 C   0  0  0  0  0  0  0  0  0  0  0  0
   -0.5330   15.8010   -1.0110 C   0  0  0  0  0  0  0  0  0  0  0  0
    0.3270   14.5300   -1.2010 C   0  0  1  0  0  0  0  0  0  0  0  0
    0.3600   13.8540    0.2050 C   0  0  0  0  0  0  0  0  0  0  0  0
   -0.1470   13.5350   -2.3090 C   0  0  2  0  0  0  0  0  0  0  0  0
   -1.5340   12.9110   -2.0770 C   0  0  0  0  0  0  0  0  0  0  0  0
   -1.5360   11.6260   -1.3160 C   0  0  0  0  0  0  0  0  0  0  0  0
   -0.4600   10.8520   -1.0860 C   0  0  0  0  0  0  0  0  0  0  0  0
    0.9050   11.1990   -1.6960 C   0  0  1  0  0  0  0  0  0  0  0  0
    1.5340    9.9230   -2.3150 C   0  0  0  0  0  0  0  0  0  0  0  0
    1.6150    8.7690   -1.3210 C   0  0  0  0  0  0  0  0  0  0  0  0
    0.2320    8.4160   -0.7800 C   0  0  2  0  0  0  0  0  0  0  0  0
   -0.5580    7.8830   -1.8480 O   0  0  0  0  0  0  0  0  0  0  0  0
   -0.5040    9.6260   -0.1410 C   0  0  0  0  0  0  0  0  0  0  0  0
    0.1900   10.0130    1.1890 C   0  0  0  0  0  0  0  0  0  0  0  0
   -1.9390    9.1690    0.2350 C   0  0  0  0  0  0  0  0  0  0  0  0
    0.9240   12.4350   -2.6940 C   0  0  1  0  0  0  0  0  0  0  0  0
    0.5750   11.9590   -4.1370 C   0  0  0  0  0  0  0  0  0  0  0  0
    2.3850   13.0200   -2.7600 C   0  0  0  0  0  0  0  0  0  0  0  0
    2.7540   14.0870   -1.7120 C   0  0  0  0  0  0  0  0  0  0  0  0
    1.6860   15.1830   -1.6460 C   0  0  2  0  0  0  0  0  0  0  0  0
    1.6460   15.8960   -3.0400 C   0  0  0  0  0  0  0  0  0  0  0  0
    2.9373   17.3799    1.3494 H   0  0  0  0  0  0  0  0  0  0  0  0
    4.5039   17.8018    0.5785 H   0  0  0  0  0  0  0  0  0  0  0  0
    3.1547   18.9877    0.5785 H   0  0  0  0  0  0  0  0  0  0  0  0
    3.7768   16.9164   -1.3349 H   0  0  0  0  0  0  0  0  0  0  0  0
    3.0488   18.6667   -2.5181 H   0  0  0  0  0  0  0  0  0  0  0  0
    1.3727   18.0500   -2.1261 H   0  0  0  0  0  0  0  0  0  0  0  0
    2.8171   19.9916   -0.3124 H   0  0  0  0  0  0  0  0  0  0  0  0
    1.8455   20.5352   -1.7438 H   0  0  0  0  0  0  0  0  0  0  0  0
    1.2202   20.0403    0.6970 H   0  0  0  0  0  0  0  0  0  0  0  0
   -1.3692   21.1587   -2.2991 H   0  0  0  0  0  0  0  0  0  0  0  0
    0.1331   20.2662   -2.7149 H   0  0  0  0  0  0  0  0  0  0  0  0
   -1.4476   19.4129   -2.7149 H   0  0  0  0  0  0  0  0  0  0  0  0
   -1.4444   20.0838    1.1867 H   0  0  0  0  0  0  0  0  0  0  0  0
   -2.0988   21.2258   -0.0357 H   0  0  0  0  0  0  0  0  0  0  0  0
   -2.6287   19.5094   -0.0357 H   0  0  0  0  0  0  0  0  0  0  0  0
    2.2938   15.8170    0.3549 H   0  0  0  0  0  0  0  0  0  0  0  0
    0.2056   16.9920    0.6699 H   0  0  0  0  0  0  0  0  0  0  0  0
    0.3433   17.8158   -0.8980 H   0  0  0  0  0  0  0  0  0  0  0  0
   -1.3735   15.6027   -0.3296 H   0  0  0  0  0  0  0  0  0  0  0  0
   -0.9745   16.1507   -1.9559 H   0  0  0  0  0  0  0  0  0  0  0  0
    0.3222   14.6285    0.9852 H   0  0  0  0  0  0  0  0  0  0  0  0
   -0.5065   13.1847    0.3105 H   0  0  0  0  0  0  0  0  0  0  0  0
    1.2876   13.2723    0.3105 H   0  0  0  0  0  0  0  0  0  0  0  0
   -0.2582   14.1930   -3.1835 H   0  0  0  0  0  0  0  0  0  0  0  0
   -2.1445   13.6369   -1.5199 H   0  0  0  0  0  0  0  0  0  0  0  0
   -1.9321   12.6745   -3.0748 H   0  0  0  0  0  0  0  0  0  0  0  0
   -2.4988   11.2834   -0.9091 H   0  0  0  0  0  0  0  0  0  0  0  0
    1.5289   11.5566   -0.8636 H   0  0  0  0  0  0  0  0  0  0  0  0
    0.9206    9.6077   -3.1719 H   0  0  0  0  0  0  0  0  0  0  0  0
    2.5607   10.1721   -2.6215 H   0  0  0  0  0  0  0  0  0  0  0  0
    2.0395    7.8886   -1.8256 H   0  0  0  0  0  0  0  0  0  0  0  0
    2.2533    9.0753   -0.4791 H   0  0  0  0  0  0  0  0  0  0  0  0
    0.3710    7.6750    0.0210 H   0  0  0  0  0  0  0  0  0  0  0  0
   -0.2150    8.2520   -2.6800 H   0  0  0  0  0  0  0  0  0  0  0  0
   -0.4233    9.6710    2.0357 H   0  0  0  0  0  0  0  0  0  0  0  0
    1.1805    9.5370    1.2378 H   0  0  0  0  0  0  0  0  0  0  0  0
    0.3056   11.1058    1.2378 H   0  0  0  0  0  0  0  0  0  0  0  0
   -2.0386    9.1373    1.3300 H   0  0  0  0  0  0  0  0  0  0  0  0
   -2.6702    9.8787   -0.1793 H   0  0  0  0  0  0  0  0  0  0  0  0
   -2.1251    8.1671   -0.1793 H   0  0  0  0  0  0  0  0  0  0  0  0
   -0.0747   11.0729   -4.0837 H   0  0  0  0  0  0  0  0  0  0  0  0
    0.0524   12.7652   -4.6727 H   0  0  0  0  0  0  0  0  0  0  0  0
    1.5010   11.7030   -4.6727 H   0  0  0  0  0  0  0  0  0  0  0  0
    3.0854   12.1802   -2.6407 H   0  0  0  0  0  0  0  0  0  0  0  0
    2.4448   13.5361   -3.7296 H   0  0  0  0  0  0  0  0  0  0  0  0
    2.8395   13.6080   -0.7255 H   0  0  0  0  0  0  0  0  0  0  0  0
    3.7107   14.5465   -2.0011 H   0  0  0  0  0  0  0  0  0  0  0  0
    1.5849   16.9845   -2.8935 H   0  0  0  0  0  0  0  0  0  0  0  0
    2.5592   15.6524   -3.6028 H   0  0  0  0  0  0  0  0  0  0  0  0
    0.7658   15.5518   -3.6028 H   0  0  0  0  0  0  0  0  0  0  0  0
  1  2  1  0
  2  3  1  0
  3  4  1  0
  4  5  1  0
  5  6  1  0
  6  7  1  0
  7  8  1  0
  7  9  1  0
  2 10  1  0
 10 11  1  0
 11 12  1  0
 12 13  1  0
 13 14  1  1
 13 15  1  0
 15 16  1  0
 16 17  1  0
 17 18  2  0
 18 19  1  0
 19 20  1  0
 20 21  1  0
 21 22  1  0
 22 23  1  0
 22 24  1  0
 24 25  1  0
 24 26  1  0
 19 27  1  0
 27 28  1  6
 27 29  1  0
 29 30  1  0
 30 31  1  0
 31 32  1  6
  7  5  1  0
 31 10  1  0
 31 13  1  0
 27 15  1  0
 24 18  1  0
  1 33  1  0
  1 34  1  0
  1 35  1  0
  2 36  1  6
  3 37  1  0
  3 38  1  0
  4 39  1  0
  4 40  1  0
  5 41  1  1
  8 42  1  0
  8 43  1  0
  8 44  1  0
  9 45  1  0
  9 46  1  0
  9 47  1  0
 10 48  1  1
 11 49  1  0
 11 50  1  0
 12 51  1  0
 12 52  1  0
 14 53  1  0
 14 54  1  0
 14 55  1  0
 15 56  1  6
 16 57  1  0
 16 58  1  0
 17 59  1  0
 19 60  1  1
 20 61  1  0
 20 62  1  0
 21 63  1  0
 21 64  1  0
 22 65  1  1
 23 66  1  0
 25 67  1  0
 25 68  1  0
 25 69  1  0
 26 70  1  0
 26 71  1  0
 26 72  1  0
 28 73  1  0
 28 74  1  0
 28 75  1  0
 29 76  1  0
 29 77  1  0
 30 78  1  0
 30 79  1  0
 32 80  1  0
 32 81  1  0
 32 82  1  0
M  END
>  <meeko>  (9) 
{"is_sidechain": [false], "intermolecular_energy": 2.731, "internal_energy": -0.839}

$$$$
EPH_relaxed_0001_pdb2pqr_Repair_112_r2_0001_out
     RDKit          3D

 82 86  0  0  0  0  0  0  0  0999 V2000
    2.2980   19.6480   -1.1280 C   0  0  0  0  0  0  0  0  0  0  0  0
    2.1170   18.6250   -2.2520 C   0  0  2  0  0  0  0  0  0  0  0  0
    0.6690   18.5950   -2.7830 C   0  0  0  0  0  0  0  0  0  0  0  0
   -0.2100   19.7230   -2.2360 C   0  0  0  0  0  0  0  0  0  0  0  0
   -1.3770   19.1900   -1.4610 C   0  0  2  0  0  0  0  0  0  0  0  0
   -2.2620   20.1930   -0.9460 O   0  0  0  0  0  0  0  0  0  0  0  0
   -1.5600   19.4060    0.0290 C   0  0  0  0  0  0  0  0  0  0  0  0
   -0.5640   20.1810    0.8340 C   0  0  0  0  0  0  0  0  0  0  0  0
   -2.4400   18.4600    0.7870 C   0  0  0  0  0  0  0  0  0  0  0  0
    2.5220   17.2390   -1.7640 C   0  0  1  0  0  0  0  0  0  0  0  0
    3.3400   17.2860   -0.4460 C   0  0  0  0  0  0  0  0  0  0  0  0
    2.9420   16.0300    0.3720 C   0  0  0  0  0  0  0  0  0  0  0  0
    2.1710   15.1400   -0.6310 C   0  0  1  0  0  0  0  0  0  0  0  0
    3.2780   14.4080   -1.4520 C   0  0  0  0  0  0  0  0  0  0  0  0
    1.1480   14.1310   -0.0140 C   0  0  2  0  0  0  0  0  0  0  0  0
    1.7610   13.0620    0.9080 C   0  0  0  0  0  0  0  0  0  0  0  0
    2.1740   11.7970    0.2310 C   0  0  0  0  0  0  0  0  0  0  0  0
    1.8020   11.4140   -1.0050 C   0  0  0  0  0  0  0  0  0  0  0  0
    0.8000   12.2430   -1.8190 C   0  0  1  0  0  0  0  0  0  0  0  0
   -0.2680   11.3040   -2.4380 C   0  0  0  0  0  0  0  0  0  0  0  0
    0.3500   10.1720   -3.2520 C   0  0  0  0  0  0  0  0  0  0  0  0
    1.2950    9.3350   -2.3940 C   0  0  2  0  0  0  0  0  0  0  0  0
    0.5280    8.6510   -1.3970 O   0  0  0  0  0  0  0  0  0  0  0  0
    2.4090   10.1760   -1.7100 C   0  0  0  0  0  0  0  0  0  0  0  0
    3.4170   10.6700   -2.7770 C   0  0  0  0  0  0  0  0  0  0  0  0
    3.2040    9.2360   -0.7640 C   0  0  0  0  0  0  0  0  0  0  0  0
    0.1570   13.4870   -1.0670 C   0  0  1  0  0  0  0  0  0  0  0  0
   -1.1050   13.0330   -0.2710 C   0  0  0  0  0  0  0  0  0  0  0  0
   -0.3430   14.5310   -2.1340 C   0  0  0  0  0  0  0  0  0  0  0  0
    0.6810   15.5770   -2.6150 C   0  0  0  0  0  0  0  0  0  0  0  0
    1.3840   16.2430   -1.4290 C   0  0  2  0  0  0  0  0  0  0  0  0
    0.2980   17.0050   -0.5960 C   0  0  0  0  0  0  0  0  0  0  0  0
    2.2087   19.1431   -0.1548 H   0  0  0  0  0  0  0  0  0  0  0  0
    3.2921   20.1116   -1.2107 H   0  0  0  0  0  0  0  0  0  0  0  0
    1.5233   20.4245   -1.2107 H   0  0  0  0  0  0  0  0  0  0  0  0
    2.7674   18.9303   -3.0849 H   0  0  0  0  0  0  0  0  0  0  0  0
    0.6992   18.6787   -3.8794 H   0  0  0  0  0  0  0  0  0  0  0  0
    0.2226   17.6475   -2.4469 H   0  0  0  0  0  0  0  0  0  0  0  0
    0.3967   20.3589   -1.5746 H   0  0  0  0  0  0  0  0  0  0  0  0
   -0.5988   20.2990   -3.0886 H   0  0  0  0  0  0  0  0  0  0  0  0
   -1.4076   18.2843   -2.0846 H   0  0  0  0  0  0  0  0  0  0  0  0
   -0.7602   20.0283    1.9055 H   0  0  0  0  0  0  0  0  0  0  0  0
    0.4516   19.8333    0.5940 H   0  0  0  0  0  0  0  0  0  0  0  0
   -0.6515   21.2509    0.5940 H   0  0  0  0  0  0  0  0  0  0  0  0
   -2.2980   18.6127    1.8671 H   0  0  0  0  0  0  0  0  0  0  0  0
   -3.4917   18.6480    0.5253 H   0  0  0  0  0  0  0  0  0  0  0  0
   -2.1765   17.4246    0.5253 H   0  0  0  0  0  0  0  0  0  0  0  0
    3.0810   16.8887   -2.6443 H   0  0  0  0  0  0  0  0  0  0  0  0
    4.4173   17.2680   -0.6678 H   0  0  0  0  0  0  0  0  0  0  0  0
    3.1296   18.2073    0.1170 H   0  0  0  0  0  0  0  0  0  0  0  0
    3.8366   15.5098    0.7449 H   0  0  0  0  0  0  0  0  0  0  0  0
    2.3382   16.2819    1.2563 H   0  0  0  0  0  0  0  0  0  0  0  0
    3.9932   13.9351   -0.7629 H   0  0  0  0  0  0  0  0  0  0  0  0
    2.8152   13.6373   -2.0859 H   0  0  0  0  0  0  0  0  0  0  0  0
    3.8059   15.1356   -2.0859 H   0  0  0  0  0  0  0  0  0  0  0  0
    0.5435   14.7776    0.6391 H   0  0  0  0  0  0  0  0  0  0  0  0
    2.6502   13.4966    1.3881 H   0  0  0  0  0  0  0  0  0  0  0  0
    0.9691   12.7825    1.6185 H   0  0  0  0  0  0  0  0  0  0  0  0
    2.8383   11.1208    0.7891 H   0  0  0  0  0  0  0  0  0  0  0  0
    1.3823   12.7235   -2.6190 H   0  0  0  0  0  0  0  0  0  0  0  0
   -0.8674   10.8676   -1.6254 H   0  0  0  0  0  0  0  0  0  0  0  0
   -0.8872   11.9059   -3.1194 H   0  0  0  0  0  0  0  0  0  0  0  0
   -0.4527    9.5264   -3.6379 H   0  0  0  0  0  0  0  0  0  0  0  0
    0.9244   10.6097   -4.0817 H   0  0  0  0  0  0  0  0  0  0  0  0
    1.8042    8.6241   -3.0614 H   0  0  0  0  0  0  0  0  0  0  0  0
    1.1400    8.0990   -0.8830 H   0  0  0  0  0  0  0  0  0  0  0  0
    4.2972   11.1014   -2.2779 H   0  0  0  0  0  0  0  0  0  0  0  0
    3.7301    9.8232   -3.4055 H   0  0  0  0  0  0  0  0  0  0  0  0
    2.9396   11.4362   -3.4055 H   0  0  0  0  0  0  0  0  0  0  0  0
    2.9837    9.4965    0.2818 H   0  0  0  0  0  0  0  0  0  0  0  0
    2.9100    8.1928   -0.9518 H   0  0  0  0  0  0  0  0  0  0  0  0
    4.2816    9.3527   -0.9518 H   0  0  0  0  0  0  0  0  0  0  0  0
   -0.9036   13.1054    0.8080 H   0  0  0  0  0  0  0  0  0  0  0  0
   -1.9548   13.6818   -0.5298 H   0  0  0  0  0  0  0  0  0  0  0  0
   -1.3467   11.9916   -0.5298 H   0  0  0  0  0  0  0  0  0  0  0  0
   -0.6835   13.9685   -3.0159 H   0  0  0  0  0  0  0  0  0  0  0  0
   -1.1281   15.1094   -1.6250 H   0  0  0  0  0  0  0  0  0  0  0  0
    1.4328   15.0806   -3.2462 H   0  0  0  0  0  0  0  0  0  0  0  0
    0.1485   16.3515   -3.1865 H   0  0  0  0  0  0  0  0  0  0  0  0
    0.4952   16.8666    0.4773 H   0  0  0  0  0  0  0  0  0  0  0  0
    0.3340   18.0770   -0.8402 H   0  0  0  0  0  0  0  0  0  0  0  0
   -0.6978   16.6065   -0.8402 H   0  0  0  0  0  0  0  0  0  0  0  0
  1  2  1  0
  2  3  1  0
  3  4  1  0
  4  5  1  0
  5  6  1  0
  6  7  1  0
  7  8  1  0
  7  9  1  0
  2 10  1  0
 10 11  1  0
 11 12  1  0
 12 13  1  0
 13 14  1  6
 13 15  1  0
 15 16  1  0
 16 17  1  0
 17 18  2  0
 18 19  1  0
 19 20  1  0
 20 21  1  0
 21 22  1  0
 22 23  1  0
 22 24  1  0
 24 25  1  0
 24 26  1  0
 19 27  1  0
 27 28  1  1
 27 29  1  0
 29 30  1  0
 30 31  1  0
 31 32  1  1
  7  5  1  0
 31 10  1  0
 31 13  1  0
 27 15  1  0
 24 18  1  0
  1 33  1  0
  1 34  1  0
  1 35  1  0
  2 36  1  6
  3 37  1  0
  3 38  1  0
  4 39  1  0
  4 40  1  0
  5 41  1  1
  8 42  1  0
  8 43  1  0
  8 44  1  0
  9 45  1  0
  9 46  1  0
  9 47  1  0
 10 48  1  6
 11 49  1  0
 11 50  1  0
 12 51  1  0
 12 52  1  0
 14 53  1  0
 14 54  1  0
 14 55  1  0
 15 56  1  1
 16 57  1  0
 16 58  1  0
 17 59  1  0
 19 60  1  6
 20 61  1  0
 20 62  1  0
 21 63  1  0
 21 64  1  0
 22 65  1  6
 23 66  1  0
 25 67  1  0
 25 68  1  0
 25 69  1  0
 26 70  1  0
 26 71  1  0
 26 72  1  0
 28 73  1  0
 28 74  1  0
 28 75  1  0
 29 76  1  0
 29 77  1  0
 30 78  1  0
 30 79  1  0
 32 80  1  0
 32 81  1  0
 32 82  1  0
M  END
>  <meeko>  (10) 
{"is_sidechain": [false], "intermolecular_energy": 2.731, "internal_energy": -0.839}

$$$$
EPH_relaxed_0001_pdb2pqr_Repair_112_r2_0001_out
     RDKit          3D

 82 86  0  0  0  0  0  0  0  0999 V2000
   -4.0960    7.1750   -3.3410 C   0  0  0  0  0  0  0  0  0  0  0  0
   -3.9690    7.2460   -1.8170 C   0  0  2  0  0  0  0  0  0  0  0  0
   -5.3210    7.0180   -1.1110 C   0  0  0  0  0  0  0  0  0  0  0  0
   -6.4430    6.5780   -2.0550 C   0  0  0  0  0  0  0  0  0  0  0  0
   -7.3920    7.7000   -2.3490 C   0  0  2  0  0  0  0  0  0  0  0  0
   -8.6770    7.2870   -2.8300 O   0  0  0  0  0  0  0  0  0  0  0  0
   -7.8720    8.0470   -3.7460 C   0  0  0  0  0  0  0  0  0  0  0  0
   -7.4150    7.2720   -4.9420 C   0  0  0  0  0  0  0  0  0  0  0  0
   -8.3910    9.4270   -4.0020 C   0  0  0  0  0  0  0  0  0  0  0  0
   -3.3870    8.5930   -1.4060 C   0  0  1  0  0  0  0  0  0  0  0  0
   -4.0060    9.1350   -0.0900 C   0  0  0  0  0  0  0  0  0  0  0  0
   -2.8760    9.8860    0.6600 C   0  0  0  0  0  0  0  0  0  0  0  0
   -1.7470   10.0380   -0.3860 C   0  0  1  0  0  0  0  0  0  0  0  0
   -2.1640   11.2690   -1.2500 C   0  0  0  0  0  0  0  0  0  0  0  0
   -0.2980   10.1930    0.1780 C   0  0  2  0  0  0  0  0  0  0  0  0
   -0.0640   11.4470    1.0390 C   0  0  0  0  0  0  0  0  0  0  0  0
    0.3990   12.6550    0.2930 C   0  0  0  0  0  0  0  0  0  0  0  0
    0.8900   12.6600   -0.9600 C   0  0  0  0  0  0  0  0  0  0  0  0
    1.1110   11.3480   -1.7240 C   0  0  1  0  0  0  0  0  0  0  0  0
    2.5120   11.3660   -2.3900 C   0  0  0  0  0  0  0  0  0  0  0  0
    2.7280   12.5960   -3.2670 C   0  0  0  0  0  0  0  0  0  0  0  0
    2.5570   13.8790   -2.4580 C   0  0  2  0  0  0  0  0  0  0  0  0
    3.6140   13.9630   -1.4970 O   0  0  0  0  0  0  0  0  0  0  0  0
    1.1850   13.9690   -1.7330 C   0  0  0  0  0  0  0  0  0  0  0  0
    0.0590   14.1820   -2.7750 C   0  0  0  0  0  0  0  0  0  0  0  0
    1.1970   15.2400   -0.8420 C   0  0  0  0  0  0  0  0  0  0  0  0
    0.8420   10.0140   -0.9040 C   0  0  1  0  0  0  0  0  0  0  0  0
    2.1300    9.5970   -0.1300 C   0  0  0  0  0  0  0  0  0  0  0  0
    0.5320    8.8440   -1.9120 C   0  0  0  0  0  0  0  0  0  0  0  0
   -0.9370    8.6680   -2.3400 C   0  0  0  0  0  0  0  0  0  0  0  0
   -1.8650    8.6530   -1.1210 C   0  0  2  0  0  0  0  0  0  0  0  0
   -1.4840    7.4110   -0.2440 C   0  0  0  0  0  0  0  0  0  0  0  0
   -5.0276    6.6542   -3.6074 H   0  0  0  0  0  0  0  0  0  0  0  0
   -4.1141    8.1938   -3.7553 H   0  0  0  0  0  0  0  0  0  0  0  0
   -3.2376    6.6259   -3.7553 H   0  0  0  0  0  0  0  0  0  0  0  0
   -3.2921    6.4378   -1.5030 H   0  0  0  0  0  0  0  0  0  0  0  0
   -5.1860    6.2394   -0.3458 H   0  0  0  0  0  0  0  0  0  0  0  0
   -5.6246    7.9832   -0.6796 H   0  0  0  0  0  0  0  0  0  0  0  0
   -5.9986    6.2303   -2.9993 H   0  0  0  0  0  0  0  0  0  0  0  0
   -7.0073    5.7713   -1.5643 H   0  0  0  0  0  0  0  0  0  0  0  0
   -6.9532    8.3115   -1.5468 H   0  0  0  0  0  0  0  0  0  0  0  0
   -6.8821    6.3682   -4.6116 H   0  0  0  0  0  0  0  0  0  0  0  0
   -8.2872    6.9829   -5.5467 H   0  0  0  0  0  0  0  0  0  0  0  0
   -6.7399    7.8953   -5.5467 H   0  0  0  0  0  0  0  0  0  0  0  0
   -8.5806    9.9312   -3.0429 H   0  0  0  0  0  0  0  0  0  0  0  0
   -7.6463    9.9983   -4.5756 H   0  0  0  0  0  0  0  0  0  0  0  0
   -9.3276    9.3659   -4.5756 H   0  0  0  0  0  0  0  0  0  0  0  0
   -3.6249    9.1788   -2.3061 H   0  0  0  0  0  0  0  0  0  0  0  0
   -4.8333    9.8238   -0.3161 H   0  0  0  0  0  0  0  0  0  0  0  0
   -4.4101    8.3159    0.5229 H   0  0  0  0  0  0  0  0  0  0  0  0
   -3.2248   10.8720    1.0008 H   0  0  0  0  0  0  0  0  0  0  0  0
   -2.5420    9.3467    1.5587 H   0  0  0  0  0  0  0  0  0  0  0  0
   -2.4462   12.1020   -0.5893 H   0  0  0  0  0  0  0  0  0  0  0  0
   -1.3192   11.5745   -1.8848 H   0  0  0  0  0  0  0  0  0  0  0  0
   -3.0205   10.9982   -1.8848 H   0  0  0  0  0  0  0  0  0  0  0  0
   -0.2206    9.3386    0.8665 H   0  0  0  0  0  0  0  0  0  0  0  0
   -1.0114   11.6982    1.5384 H   0  0  0  0  0  0  0  0  0  0  0  0
    0.7469   11.1905    1.7366 H   0  0  0  0  0  0  0  0  0  0  0  0
    0.3331   13.6228    0.8117 H   0  0  0  0  0  0  0  0  0  0  0  0
    0.3303   11.3121   -2.4981 H   0  0  0  0  0  0  0  0  0  0  0  0
    3.2778   11.3572   -1.6004 H   0  0  0  0  0  0  0  0  0  0  0  0
    2.5858   10.4787   -3.0359 H   0  0  0  0  0  0  0  0  0  0  0  0
    3.7453   12.5664   -3.6845 H   0  0  0  0  0  0  0  0  0  0  0  0
    1.9808   12.5875   -4.0743 H   0  0  0  0  0  0  0  0  0  0  0  0
    2.5942   14.7209   -3.1650 H   0  0  0  0  0  0  0  0  0  0  0  0
    3.4610   13.2730   -0.8300 H   0  0  0  0  0  0  0  0  0  0  0  0
   -0.8931   14.3621   -2.2544 H   0  0  0  0  0  0  0  0  0  0  0  0
    0.3021   15.0501   -3.4053 H   0  0  0  0  0  0  0  0  0  0  0  0
   -0.0317   13.2851   -3.4053 H   0  0  0  0  0  0  0  0  0  0  0  0
    1.1942   14.9450    0.2177 H   0  0  0  0  0  0  0  0  0  0  0  0
    2.1007   15.8294   -1.0561 H   0  0  0  0  0  0  0  0  0  0  0  0
    0.3045   15.8463   -1.0561 H   0  0  0  0  0  0  0  0  0  0  0  0
    1.9431    9.6575    0.9523 H   0  0  0  0  0  0  0  0  0  0  0  0
    2.4011    8.5652   -0.3982 H   0  0  0  0  0  0  0  0  0  0  0  0
    2.9543   10.2742   -0.3982 H   0  0  0  0  0  0  0  0  0  0  0  0
    1.1246    9.0223   -2.8214 H   0  0  0  0  0  0  0  0  0  0  0  0
    0.7867    7.9214   -1.3698 H   0  0  0  0  0  0  0  0  0  0  0  0
   -1.2221    9.5012   -2.9991 H   0  0  0  0  0  0  0  0  0  0  0  0
   -1.0360    7.7082   -2.8682 H   0  0  0  0  0  0  0  0  0  0  0  0
   -1.5651    7.6752    0.8207 H   0  0  0  0  0  0  0  0  0  0  0  0
   -2.1684    6.5797   -0.4686 H   0  0  0  0  0  0  0  0  0  0  0  0
   -0.4511    7.1065   -0.4686 H   0  0  0  0  0  0  0  0  0  0  0  0
  1  2  1  0
  2  3  1  0
  3  4  1  0
  4  5  1  0
  5  6  1  0
  6  7  1  0
  7  8  1  0
  7  9  1  0
  2 10  1  0
 10 11  1  0
 11 12  1  0
 12 13  1  0
 13 14  1  6
 13 15  1  0
 15 16  1  0
 16 17  1  0
 17 18  2  0
 18 19  1  0
 19 20  1  0
 20 21  1  0
 21 22  1  0
 22 23  1  0
 22 24  1  0
 24 25  1  0
 24 26  1  0
 19 27  1  0
 27 28  1  1
 27 29  1  0
 29 30  1  0
 30 31  1  0
 31 32  1  1
  7  5  1  0
 31 10  1  0
 31 13  1  0
 27 15  1  0
 24 18  1  0
  1 33  1  0
  1 34  1  0
  1 35  1  0
  2 36  1  1
  3 37  1  0
  3 38  1  0
  4 39  1  0
  4 40  1  0
  5 41  1  1
  8 42  1  0
  8 43  1  0
  8 44  1  0
  9 45  1  0
  9 46  1  0
  9 47  1  0
 10 48  1  6
 11 49  1  0
 11 50  1  0
 12 51  1  0
 12 52  1  0
 14 53  1  0
 14 54  1  0
 14 55  1  0
 15 56  1  1
 16 57  1  0
 16 58  1  0
 17 59  1  0
 19 60  1  6
 20 61  1  0
 20 62  1  0
 21 63  1  0
 21 64  1  0
 22 65  1  6
 23 66  1  0
 25 67  1  0
 25 68  1  0
 25 69  1  0
 26 70  1  0
 26 71  1  0
 26 72  1  0
 28 73  1  0
 28 74  1  0
 28 75  1  0
 29 76  1  0
 29 77  1  0
 30 78  1  0
 30 79  1  0
 32 80  1  0
 32 81  1  0
 32 82  1  0
M  END
>  <meeko>  (11) 
{"is_sidechain": [false], "intermolecular_energy": 2.731, "internal_energy": -0.839}

$$$$
EPH_relaxed_0001_pdb2pqr_Repair_112_r2_0001_out
     RDKit          3D

 82 86  0  0  0  0  0  0  0  0999 V2000
    0.1590   17.7230   -2.5530 C   0  0  0  0  0  0  0  0  0  0  0  0
    0.0550   16.9710   -1.2240 C   0  0  2  0  0  0  0  0  0  0  0  0
    0.1830   17.9150   -0.0110 C   0  0  0  0  0  0  0  0  0  0  0  0
    1.0560   19.1440   -0.2770 C   0  0  0  0  0  0  0  0  0  0  0  0
    2.0130   19.3980    0.8480 C   0  0  2  0  0  0  0  0  0  0  0  0
    3.1540   20.1910    0.4960 O   0  0  0  0  0  0  0  0  0  0  0  0
    3.4210   18.8360    0.8920 C   0  0  0  0  0  0  0  0  0  0  0  0
    3.9520   17.9740   -0.2100 C   0  0  0  0  0  0  0  0  0  0  0  0
    4.1040   18.7190    2.2190 C   0  0  0  0  0  0  0  0  0  0  0  0
    1.1250   15.8870   -1.1550 C   0  0  1  0  0  0  0  0  0  0  0  0
    1.3500   15.3610    0.2880 C   0  0  0  0  0  0  0  0  0  0  0  0
    1.6770   13.8500    0.1670 C   0  0  0  0  0  0  0  0  0  0  0  0
    1.9550   13.6300   -1.3380 C   0  0  1  0  0  0  0  0  0  0  0  0
    3.4310   14.0940   -1.5460 C   0  0  0  0  0  0  0  0  0  0  0  0
    1.7240   12.1810   -1.8790 C   0  0  2  0  0  0  0  0  0  0  0  0
    2.6270   11.1010   -1.2590 C   0  0  0  0  0  0  0  0  0  0  0  0
    3.9160   10.8610   -1.9730 C   0  0  0  0  0  0  0  0  0  0  0  0
    4.2090   11.2760   -3.2190 C   0  0  0  0  0  0  0  0  0  0  0  0
    3.1560   11.9840   -4.0820 C   0  0  1  0  0  0  0  0  0  0  0  0
    3.1570   11.3710   -5.5070 C   0  0  0  0  0  0  0  0  0  0  0  0
    4.5410   11.3850   -6.1480 C   0  0  0  0  0  0  0  0  0  0  0  0
    5.5470   10.6220   -5.2900 C   0  0  2  0  0  0  0  0  0  0  0  0
    5.1930    9.2350   -5.2870 O   0  0  0  0  0  0  0  0  0  0  0  0
    5.6270   11.1440   -3.8290 C   0  0  0  0  0  0  0  0  0  0  0  0
    6.2950   12.5410   -3.8110 C   0  0  0  0  0  0  0  0  0  0  0  0
    6.5700   10.2010   -3.0350 C   0  0  0  0  0  0  0  0  0  0  0  0
    1.6970   12.0760   -3.4580 C   0  0  1  0  0  0  0  0  0  0  0  0
    0.8880   10.7880   -3.8050 C   0  0  0  0  0  0  0  0  0  0  0  0
    0.9270   13.2770   -4.1250 C   0  0  0  0  0  0  0  0  0  0  0  0
    1.1010   14.6610   -3.4730 C   0  0  0  0  0  0  0  0  0  0  0  0
    0.8740   14.5870   -1.9600 C   0  0  2  0  0  0  0  0  0  0  0  0
   -0.6100   14.1440   -1.7210 C   0  0  0  0  0  0  0  0  0  0  0  0
    0.3073   18.7952   -2.3570 H   0  0  0  0  0  0  0  0  0  0  0  0
    1.0119   17.3341   -3.1286 H   0  0  0  0  0  0  0  0  0  0  0  0
   -0.7674   17.5802   -3.1286 H   0  0  0  0  0  0  0  0  0  0  0  0
   -0.9435   16.5115   -1.1811 H   0  0  0  0  0  0  0  0  0  0  0  0
   -0.8237   18.2583    0.2696 H   0  0  0  0  0  0  0  0  0  0  0  0
    0.6702   17.3424    0.7919 H   0  0  0  0  0  0  0  0  0  0  0  0
    1.6284   18.9812   -1.2021 H   0  0  0  0  0  0  0  0  0  0  0  0
    0.3965   20.0194   -0.3705 H   0  0  0  0  0  0  0  0  0  0  0  0
    1.1917   19.3880    1.5796 H   0  0  0  0  0  0  0  0  0  0  0  0
    4.4827   17.1126    0.2216 H   0  0  0  0  0  0  0  0  0  0  0  0
    3.1171   17.6169   -0.8308 H   0  0  0  0  0  0  0  0  0  0  0  0
    4.6465   18.5590   -0.8308 H   0  0  0  0  0  0  0  0  0  0  0  0
    3.3652   18.8456    3.0241 H   0  0  0  0  0  0  0  0  0  0  0  0
    4.5727   17.7275    2.3040 H   0  0  0  0  0  0  0  0  0  0  0  0
    4.8760   19.4980    2.3040 H   0  0  0  0  0  0  0  0  0  0  0  0
    1.9738   16.4383   -1.5858 H   0  0  0  0  0  0  0  0  0  0  0  0
    2.1893   15.8938    0.7589 H   0  0  0  0  0  0  0  0  0  0  0  0
    0.4584   15.5236    0.9114 H   0  0  0  0  0  0  0  0  0  0  0  0
    2.5632   13.5953    0.7668 H   0  0  0  0  0  0  0  0  0  0  0  0
    0.8583   13.2152    0.5370 H   0  0  0  0  0  0  0  0  0  0  0  0
    3.9095   14.2444   -0.5670 H   0  0  0  0  0  0  0  0  0  0  0  0
    3.9811   13.3255   -2.1088 H   0  0  0  0  0  0  0  0  0  0  0  0
    3.4424   15.0391   -2.1088 H   0  0  0  0  0  0  0  0  0  0  0  0
    0.7064   11.9568   -1.5264 H   0  0  0  0  0  0  0  0  0  0  0  0
    2.8609   11.4043   -0.2278 H   0  0  0  0  0  0  0  0  0  0  0  0
    2.0631   10.1588   -1.3237 H   0  0  0  0  0  0  0  0  0  0  0  0
    4.6921   10.2970   -1.4348 H   0  0  0  0  0  0  0  0  0  0  0  0
    3.4614   13.0397   -4.1300 H   0  0  0  0  0  0  0  0  0  0  0  0
    2.8083   10.3297   -5.4433 H   0  0  0  0  0  0  0  0  0  0  0  0
    2.4919   11.9826   -6.1344 H   0  0  0  0  0  0  0  0  0  0  0  0
    4.4831   10.9134   -7.1401 H   0  0  0  0  0  0  0  0  0  0  0  0
    4.8761   12.4289   -6.2375 H   0  0  0  0  0  0  0  0  0  0  0  0
    6.5419   10.7769   -5.7329 H   0  0  0  0  0  0  0  0  0  0  0  0
    5.9360    8.7410   -5.6720 H   0  0  0  0  0  0  0  0  0  0  0  0
    6.4480   12.8609   -2.7697 H   0  0  0  0  0  0  0  0  0  0  0  0
    7.2660   12.4898   -4.3252 H   0  0  0  0  0  0  0  0  0  0  0  0
    5.6455   13.2647   -4.3252 H   0  0  0  0  0  0  0  0  0  0  0  0
    6.4176   10.3534   -1.9563 H   0  0  0  0  0  0  0  0  0  0  0  0
    6.3453    9.1556   -3.2930 H   0  0  0  0  0  0  0  0  0  0  0  0
    7.6154   10.4257   -3.2930 H   0  0  0  0  0  0  0  0  0  0  0  0
    0.5752   10.2899   -2.8754 H   0  0  0  0  0  0  0  0  0  0  0  0
   -0.0014   11.0607   -4.3921 H   0  0  0  0  0  0  0  0  0  0  0  0
    1.5198   10.1052   -4.3921 H   0  0  0  0  0  0  0  0  0  0  0  0
    1.2702   13.3546   -5.1672 H   0  0  0  0  0  0  0  0  0  0  0  0
   -0.1398   13.0356   -4.0077 H   0  0  0  0  0  0  0  0  0  0  0  0
    2.1212   15.0242   -3.6664 H   0  0  0  0  0  0  0  0  0  0  0  0
    0.3590   15.3482   -3.9057 H   0  0  0  0  0  0  0  0  0  0  0  0
   -0.8057   14.0856   -0.6401 H   0  0  0  0  0  0  0  0  0  0  0  0
   -1.2899   14.8783   -2.1776 H   0  0  0  0  0  0  0  0  0  0  0  0
   -0.7761   13.1571   -2.1776 H   0  0  0  0  0  0  0  0  0  0  0  0
  1  2  1  0
  2  3  1  0
  3  4  1  0
  4  5  1  0
  5  6  1  0
  6  7  1  0
  7  8  1  0
  7  9  1  0
  2 10  1  0
 10 11  1  0
 11 12  1  0
 12 13  1  0
 13 14  1  1
 13 15  1  0
 15 16  1  0
 16 17  1  0
 17 18  2  0
 18 19  1  0
 19 20  1  0
 20 21  1  0
 21 22  1  0
 22 23  1  0
 22 24  1  0
 24 25  1  0
 24 26  1  0
 19 27  1  0
 27 28  1  1
 27 29  1  0
 29 30  1  0
 30 31  1  0
 31 32  1  6
  7  5  1  0
 31 10  1  0
 31 13  1  0
 27 15  1  0
 24 18  1  0
  1 33  1  0
  1 34  1  0
  1 35  1  0
  2 36  1  6
  3 37  1  0
  3 38  1  0
  4 39  1  0
  4 40  1  0
  5 41  1  1
  8 42  1  0
  8 43  1  0
  8 44  1  0
  9 45  1  0
  9 46  1  0
  9 47  1  0
 10 48  1  6
 11 49  1  0
 11 50  1  0
 12 51  1  0
 12 52  1  0
 14 53  1  0
 14 54  1  0
 14 55  1  0
 15 56  1  1
 16 57  1  0
 16 58  1  0
 17 59  1  0
 19 60  1  6
 20 61  1  0
 20 62  1  0
 21 63  1  0
 21 64  1  0
 22 65  1  6
 23 66  1  0
 25 67  1  0
 25 68  1  0
 25 69  1  0
 26 70  1  0
 26 71  1  0
 26 72  1  0
 28 73  1  0
 28 74  1  0
 28 75  1  0
 29 76  1  0
 29 77  1  0
 30 78  1  0
 30 79  1  0
 32 80  1  0
 32 81  1  0
 32 82  1  0
M  END
>  <meeko>  (12) 
{"is_sidechain": [false], "intermolecular_energy": 2.731, "internal_energy": -0.839}

$$$$
EPH_relaxed_0001_pdb2pqr_Repair_112_r2_0001_out
     RDKit          3D

 82 86  0  0  0  0  0  0  0  0999 V2000
   -2.1920    7.8710   -2.0450 C   0  0  0  0  0  0  0  0  0  0  0  0
   -2.1830    8.5150   -0.6560 C   0  0  2  0  0  0  0  0  0  0  0  0
   -3.5810    8.5130   -0.0060 C   0  0  0  0  0  0  0  0  0  0  0  0
   -4.7300    8.5510   -1.0170 C   0  0  0  0  0  0  0  0  0  0  0  0
   -5.5600    7.3040   -0.9610 C   0  0  2  0  0  0  0  0  0  0  0  0
   -5.5470    6.5230   -2.1630 O   0  0  0  0  0  0  0  0  0  0  0  0
   -6.8120    7.0950   -1.7920 C   0  0  0  0  0  0  0  0  0  0  0  0
   -7.3070    8.1440   -2.7370 C   0  0  0  0  0  0  0  0  0  0  0  0
   -7.8170    6.0860   -1.3290 C   0  0  0  0  0  0  0  0  0  0  0  0
   -1.6540    9.9420   -0.7480 C   0  0  1  0  0  0  0  0  0  0  0  0
   -1.1950   10.4990    0.6260 C   0  0  0  0  0  0  0  0  0  0  0  0
    0.0250   11.4150    0.3530 C   0  0  0  0  0  0  0  0  0  0  0  0
    0.0230   11.6190   -1.1810 C   0  0  1  0  0  0  0  0  0  0  0  0
   -1.0340   12.7390   -1.4350 C   0  0  0  0  0  0  0  0  0  0  0  0
    1.4010   11.9680   -1.8330 C   0  0  2  0  0  0  0  0  0  0  0  0
    2.0280   13.2930   -1.3660 C   0  0  0  0  0  0  0  0  0  0  0  0
    1.6590   14.4920   -2.1750 C   0  0  0  0  0  0  0  0  0  0  0  0
    1.0910   14.4680   -3.3960 C   0  0  0  0  0  0  0  0  0  0  0  0
    0.8520   13.1410   -4.1270 C   0  0  1  0  0  0  0  0  0  0  0  0
    1.3270   13.2670   -5.5980 C   0  0  0  0  0  0  0  0  0  0  0  0
    0.6930   14.4520   -6.3180 C   0  0  0  0  0  0  0  0  0  0  0  0
    1.0020   15.7600   -5.5940 C   0  0  2  0  0  0  0  0  0  0  0  0
    2.4050   16.0210   -5.6920 O   0  0  0  0  0  0  0  0  0  0  0  0
    0.5750   15.7480   -4.0990 C   0  0  0  0  0  0  0  0  0  0  0  0
   -0.9700   15.7690   -3.9980 C   0  0  0  0  0  0  0  0  0  0  0  0
    1.0710   17.0690   -3.4500 C   0  0  0  0  0  0  0  0  0  0  0  0
    1.4220   11.8420   -3.4100 C   0  0  1  0  0  0  0  0  0  0  0  0
    2.9100   11.6180   -3.8190 C   0  0  0  0  0  0  0  0  0  0  0  0
    0.6270   10.5820   -3.9200 C   0  0  0  0  0  0  0  0  0  0  0  0
   -0.6630   10.2200   -3.1600 C   0  0  0  0  0  0  0  0  0  0  0  0
   -0.4170   10.1850   -1.6490 C   0  0  2  0  0  0  0  0  0  0  0  0
    0.6260    9.0520   -1.3600 C   0  0  0  0  0  0  0  0  0  0  0  0
   -2.2073    6.7760   -1.9414 H   0  0  0  0  0  0  0  0  0  0  0  0
   -3.0856    8.1997   -2.5958 H   0  0  0  0  0  0  0  0  0  0  0  0
   -1.2895    8.1746   -2.5958 H   0  0  0  0  0  0  0  0  0  0  0  0
   -1.5205    7.9130   -0.0166 H   0  0  0  0  0  0  0  0  0  0  0  0
   -3.6812    7.6000    0.5994 H   0  0  0  0  0  0  0  0  0  0  0  0
   -3.6552    9.4284    0.5994 H   0  0  0  0  0  0  0  0  0  0  0  0
   -5.3716    9.4164   -0.7949 H   0  0  0  0  0  0  0  0  0  0  0  0
   -4.2969    8.6294   -2.0251 H   0  0  0  0  0  0  0  0  0  0  0  0
   -5.3616    7.1911    0.1151 H   0  0  0  0  0  0  0  0  0  0  0  0
   -7.7079    8.9935   -2.1646 H   0  0  0  0  0  0  0  0  0  0  0  0
   -6.4763    8.4882   -3.3706 H   0  0  0  0  0  0  0  0  0  0  0  0
   -8.1008    7.7216   -3.3706 H   0  0  0  0  0  0  0  0  0  0  0  0
   -7.8368    6.0661   -0.2294 H   0  0  0  0  0  0  0  0  0  0  0  0
   -8.8126    6.3592   -1.7088 H   0  0  0  0  0  0  0  0  0  0  0  0
   -7.5399    5.0915   -1.7088 H   0  0  0  0  0  0  0  0  0  0  0  0
   -2.5364   10.4383   -1.1781 H   0  0  0  0  0  0  0  0  0  0  0  0
   -2.0069   11.0780    1.0902 H   0  0  0  0  0  0  0  0  0  0  0  0
   -0.9296    9.6828    1.3140 H   0  0  0  0  0  0  0  0  0  0  0  0
   -0.0879   12.3777    0.8731 H   0  0  0  0  0  0  0  0  0  0  0  0
    0.9664   10.9756    0.7146 H   0  0  0  0  0  0  0  0  0  0  0  0
   -1.3981   13.1248   -0.4714 H   0  0  0  0  0  0  0  0  0  0  0  0
   -0.5712   13.5572   -2.0063 H   0  0  0  0  0  0  0  0  0  0  0  0
   -1.8776   12.3243   -2.0063 H   0  0  0  0  0  0  0  0  0  0  0  0
    2.0546   11.1750   -1.4407 H   0  0  0  0  0  0  0  0  0  0  0  0
    1.7107   13.4722   -0.3281 H   0  0  0  0  0  0  0  0  0  0  0  0
    3.1155   13.1721   -1.4790 H   0  0  0  0  0  0  0  0  0  0  0  0
    1.8688   15.4789   -1.7368 H   0  0  0  0  0  0  0  0  0  0  0  0
   -0.2343   12.9700   -4.0995 H   0  0  0  0  0  0  0  0  0  0  0  0
    2.4197   13.3931   -5.6060 H   0  0  0  0  0  0  0  0  0  0  0  0
    1.0209   12.3524   -6.1270 H   0  0  0  0  0  0  0  0  0  0  0  0
    1.0902   14.5051   -7.3424 H   0  0  0  0  0  0  0  0  0  0  0  0
   -0.3976   14.3096   -6.3350 H   0  0  0  0  0  0  0  0  0  0  0  0
    0.4160   16.5533   -6.0811 H   0  0  0  0  0  0  0  0  0  0  0  0
    2.6650   16.5320   -4.9070 H   0  0  0  0  0  0  0  0  0  0  0  0
   -1.2682   15.7731   -2.9392 H   0  0  0  0  0  0  0  0  0  0  0  0
   -1.3575   16.6725   -4.4915 H   0  0  0  0  0  0  0  0  0  0  0  0
   -1.3819   14.8764   -4.4915 H   0  0  0  0  0  0  0  0  0  0  0  0
    1.0358   16.9752   -2.3546 H   0  0  0  0  0  0  0  0  0  0  0  0
    2.1051   17.2680   -3.7679 H   0  0  0  0  0  0  0  0  0  0  0  0
    0.4234   17.8994   -3.7679 H   0  0  0  0  0  0  0  0  0  0  0  0
    3.5289   11.5248   -2.9144 H   0  0  0  0  0  0  0  0  0  0  0  0
    2.9917   10.6974   -4.4156 H   0  0  0  0  0  0  0  0  0  0  0  0
    3.2591   12.4737   -4.4156 H   0  0  0  0  0  0  0  0  0  0  0  0
    0.3547   10.7631   -4.9703 H   0  0  0  0  0  0  0  0  0  0  0  0
    1.3042    9.7302   -3.7594 H   0  0  0  0  0  0  0  0  0  0  0  0
   -1.4345   10.9721   -3.3817 H   0  0  0  0  0  0  0  0  0  0  0  0
   -0.9935    9.2224   -3.4849 H   0  0  0  0  0  0  0  0  0  0  0  0
    0.7405    8.9276   -0.2731 H   0  0  0  0  0  0  0  0  0  0  0  0
    0.2741    8.1082   -1.8020 H   0  0  0  0  0  0  0  0  0  0  0  0
    1.5956    9.3248   -1.8020 H   0  0  0  0  0  0  0  0  0  0  0  0
  1  2  1  0
  2  3  1  0
  3  4  1  0
  4  5  1  0
  5  6  1  0
  6  7  1  0
  7  8  1  0
  7  9  1  0
  2 10  1  0
 10 11  1  0
 11 12  1  0
 12 13  1  0
 13 14  1  1
 13 15  1  0
 15 16  1  0
 16 17  1  0
 17 18  2  0
 18 19  1  0
 19 20  1  0
 20 21  1  0
 21 22  1  0
 22 23  1  0
 22 24  1  0
 24 25  1  0
 24 26  1  0
 19 27  1  0
 27 28  1  6
 27 29  1  0
 29 30  1  0
 30 31  1  0
 31 32  1  6
  7  5  1  0
 31 10  1  0
 31 13  1  0
 27 15  1  0
 24 18  1  0
  1 33  1  0
  1 34  1  0
  1 35  1  0
  2 36  1  1
  3 37  1  0
  3 38  1  0
  4 39  1  0
  4 40  1  0
  5 41  1  1
  8 42  1  0
  8 43  1  0
  8 44  1  0
  9 45  1  0
  9 46  1  0
  9 47  1  0
 10 48  1  6
 11 49  1  0
 11 50  1  0
 12 51  1  0
 12 52  1  0
 14 53  1  0
 14 54  1  0
 14 55  1  0
 15 56  1  1
 16 57  1  0
 16 58  1  0
 17 59  1  0
 19 60  1  6
 20 61  1  0
 20 62  1  0
 21 63  1  0
 21 64  1  0
 22 65  1  6
 23 66  1  0
 25 67  1  0
 25 68  1  0
 25 69  1  0
 26 70  1  0
 26 71  1  0
 26 72  1  0
 28 73  1  0
 28 74  1  0
 28 75  1  0
 29 76  1  0
 29 77  1  0
 30 78  1  0
 30 79  1  0
 32 80  1  0
 32 81  1  0
 32 82  1  0
M  END
>  <meeko>  (13) 
{"is_sidechain": [false], "intermolecular_energy": 2.731, "internal_energy": -0.839}

$$$$
EPH_relaxed_0001_pdb2pqr_Repair_112_r2_0001_out
     RDKit          3D

 82 86  0  0  0  0  0  0  0  0999 V2000
   -0.8060   16.3530   -5.8180 C   0  0  0  0  0  0  0  0  0  0  0  0
    0.2720   15.6400   -6.6400 C   0  0  2  0  0  0  0  0  0  0  0  0
   -0.1470   15.4590   -8.1130 C   0  0  0  0  0  0  0  0  0  0  0  0
    0.4740   16.4900   -9.0600 C   0  0  0  0  0  0  0  0  0  0  0  0
    1.8710   16.1140   -9.4510 C   0  0  2  0  0  0  0  0  0  0  0  0
    2.3220   16.6860  -10.6860 O   0  0  0  0  0  0  0  0  0  0  0  0
    2.2000   15.2540  -10.6570 C   0  0  0  0  0  0  0  0  0  0  0  0
    1.1260   14.7170  -11.5480 C   0  0  0  0  0  0  0  0  0  0  0  0
    3.5140   14.5370  -10.6870 C   0  0  0  0  0  0  0  0  0  0  0  0
    0.5880   14.2850   -6.0180 C   0  0  1  0  0  0  0  0  0  0  0  0
    1.8520   13.6260   -6.6320 C   0  0  0  0  0  0  0  0  0  0  0  0
    2.5580   12.8580   -5.4860 C   0  0  0  0  0  0  0  0  0  0  0  0
    1.5170   12.8210   -4.3420 C   0  0  1  0  0  0  0  0  0  0  0  0
    0.5590   11.6450   -4.7100 C   0  0  0  0  0  0  0  0  0  0  0  0
    2.0860   12.6700   -2.8940 C   0  0  2  0  0  0  0  0  0  0  0  0
    2.8530   11.3630   -2.6270 C   0  0  0  0  0  0  0  0  0  0  0  0
    2.0250   10.2300   -2.1180 C   0  0  0  0  0  0  0  0  0  0  0  0
    0.7810   10.3350   -1.6150 C   0  0  0  0  0  0  0  0  0  0  0  0
    0.1200   11.7070   -1.4290 C   0  0  1  0  0  0  0  0  0  0  0  0
   -0.5280   11.7840   -0.0220 C   0  0  0  0  0  0  0  0  0  0  0  0
   -1.4910   10.6310    0.2430 C   0  0  0  0  0  0  0  0  0  0  0  0
   -0.7830    9.2850    0.1060 C   0  0  2  0  0  0  0  0  0  0  0  0
    0.1820    9.1640    1.1560 O   0  0  0  0  0  0  0  0  0  0  0  0
   -0.0840    9.0980   -1.2700 C   0  0  0  0  0  0  0  0  0  0  0  0
   -1.1520    8.9280   -2.3780 C   0  0  0  0  0  0  0  0  0  0  0  0
    0.7100    7.7650   -1.2240 C   0  0  0  0  0  0  0  0  0  0  0  0
    1.0340   12.9670   -1.7500 C   0  0  1  0  0  0  0  0  0  0  0  0
    1.8530   13.3650   -0.4840 C   0  0  0  0  0  0  0  0  0  0  0  0
    0.1130   14.1980   -2.0880 C   0  0  0  0  0  0  0  0  0  0  0  0
   -0.3180   14.3590   -3.5590 C   0  0  0  0  0  0  0  0  0  0  0  0
    0.8870   14.2530   -4.4980 C   0  0  2  0  0  0  0  0  0  0  0  0
    1.8580   15.4360   -4.1670 C   0  0  0  0  0  0  0  0  0  0  0  0
   -0.5998   16.2166   -4.7461 H   0  0  0  0  0  0  0  0  0  0  0  0
   -0.8007   17.4263   -6.0588 H   0  0  0  0  0  0  0  0  0  0  0  0
   -1.7916   15.9281   -6.0588 H   0  0  0  0  0  0  0  0  0  0  0  0
    1.1713   16.2733   -6.6278 H   0  0  0  0  0  0  0  0  0  0  0  0
    0.1617   14.4555   -8.4412 H   0  0  0  0  0  0  0  0  0  0  0  0
   -1.2374   15.5975   -8.1568 H   0  0  0  0  0  0  0  0  0  0  0  0
   -0.1439   16.5579   -9.9675 H   0  0  0  0  0  0  0  0  0  0  0  0
    0.5133   17.4564   -8.5360 H   0  0  0  0  0  0  0  0  0  0  0  0
    2.1742   16.0512   -8.3955 H   0  0  0  0  0  0  0  0  0  0  0  0
    0.3099   14.3089  -10.9336 H   0  0  0  0  0  0  0  0  0  0  0  0
    0.7373   15.5268  -12.1829 H   0  0  0  0  0  0  0  0  0  0  0  0
    1.5407   13.9202  -12.1829 H   0  0  0  0  0  0  0  0  0  0  0  0
    3.8540   14.3515   -9.6575 H   0  0  0  0  0  0  0  0  0  0  0  0
    3.3965   13.5780  -11.2128 H   0  0  0  0  0  0  0  0  0  0  0  0
    4.2569   15.1548  -11.2128 H   0  0  0  0  0  0  0  0  0  0  0  0
   -0.3563   13.7611   -6.2272 H   0  0  0  0  0  0  0  0  0  0  0  0
    1.5646   12.9297   -7.4336 H   0  0  0  0  0  0  0  0  0  0  0  0
    2.5192   14.3834   -7.0692 H   0  0  0  0  0  0  0  0  0  0  0  0
    2.8203   11.8386   -5.8055 H   0  0  0  0  0  0  0  0  0  0  0  0
    3.4985   13.3388   -5.1789 H   0  0  0  0  0  0  0  0  0  0  0  0
    0.1795   11.1792   -3.7886 H   0  0  0  0  0  0  0  0  0  0  0  0
   -0.2852   12.0308   -5.3004 H   0  0  0  0  0  0  0  0  0  0  0  0
    1.1075   10.8963   -5.3004 H   0  0  0  0  0  0  0  0  0  0  0  0
    2.8383   13.4714   -2.8517 H   0  0  0  0  0  0  0  0  0  0  0  0
    3.3211   11.0449   -3.5702 H   0  0  0  0  0  0  0  0  0  0  0  0
    3.5769   11.5923   -1.8311 H   0  0  0  0  0  0  0  0  0  0  0  0
    2.4690    9.2244   -2.1573 H   0  0  0  0  0  0  0  0  0  0  0  0
   -0.6590   11.7757   -2.2026 H   0  0  0  0  0  0  0  0  0  0  0  0
    0.2694   11.7584    0.7352 H   0  0  0  0  0  0  0  0  0  0  0  0
   -1.1051   12.7191    0.0288 H   0  0  0  0  0  0  0  0  0  0  0  0
   -1.8921   10.7244    1.2630 H   0  0  0  0  0  0  0  0  0  0  0  0
   -2.3043   10.6763   -0.4963 H   0  0  0  0  0  0  0  0  0  0  0  0
   -1.5496    8.4994    0.1777 H   0  0  0  0  0  0  0  0  0  0  0  0
   -0.1770    8.5450    1.8150 H   0  0  0  0  0  0  0  0  0  0  0  0
   -2.1379    8.7711   -1.9160 H   0  0  0  0  0  0  0  0  0  0  0  0
   -1.1796    9.8331   -3.0026 H   0  0  0  0  0  0  0  0  0  0  0  0
   -0.8973    8.0591   -3.0026 H   0  0  0  0  0  0  0  0  0  0  0  0
    0.8818    7.4765   -0.1765 H   0  0  0  0  0  0  0  0  0  0  0  0
    0.1338    6.9773   -1.7315 H   0  0  0  0  0  0  0  0  0  0  0  0
    1.6771    7.8965   -1.7315 H   0  0  0  0  0  0  0  0  0  0  0  0
    1.2883   13.0906    0.4192 H   0  0  0  0  0  0  0  0  0  0  0  0
    2.8168   12.8348   -0.4891 H   0  0  0  0  0  0  0  0  0  0  0  0
    2.0316   14.4504   -0.4891 H   0  0  0  0  0  0  0  0  0  0  0  0
   -0.8002   14.1071   -1.4815 H   0  0  0  0  0  0  0  0  0  0  0  0
    0.7253   15.0850   -1.8683 H   0  0  0  0  0  0  0  0  0  0  0  0
   -1.0409   13.5690   -3.8107 H   0  0  0  0  0  0  0  0  0  0  0  0
   -0.7739   15.3522   -3.6842 H   0  0  0  0  0  0  0  0  0  0  0  0
    1.9463   15.5436   -3.0758 H   0  0  0  0  0  0  0  0  0  0  0  0
    2.8492   15.2279   -4.5963 H   0  0  0  0  0  0  0  0  0  0  0  0
    1.4607   16.3676   -4.5963 H   0  0  0  0  0  0  0  0  0  0  0  0
  1  2  1  0
  2  3  1  0
  3  4  1  0
  4  5  1  0
  5  6  1  0
  6  7  1  0
  7  8  1  0
  7  9  1  0
  2 10  1  0
 10 11  1  0
 11 12  1  0
 12 13  1  0
 13 14  1  6
 13 15  1  0
 15 16  1  0
 16 17  1  0
 17 18  2  0
 18 19  1  0
 19 20  1  0
 20 21  1  0
 21 22  1  0
 22 23  1  0
 22 24  1  0
 24 25  1  0
 24 26  1  0
 19 27  1  0
 27 28  1  1
 27 29  1  0
 29 30  1  0
 30 31  1  0
 31 32  1  1
  7  5  1  0
 31 10  1  0
 31 13  1  0
 27 15  1  0
 24 18  1  0
  1 33  1  0
  1 34  1  0
  1 35  1  0
  2 36  1  6
  3 37  1  0
  3 38  1  0
  4 39  1  0
  4 40  1  0
  5 41  1  1
  8 42  1  0
  8 43  1  0
  8 44  1  0
  9 45  1  0
  9 46  1  0
  9 47  1  0
 10 48  1  1
 11 49  1  0
 11 50  1  0
 12 51  1  0
 12 52  1  0
 14 53  1  0
 14 54  1  0
 14 55  1  0
 15 56  1  6
 16 57  1  0
 16 58  1  0
 17 59  1  0
 19 60  1  6
 20 61  1  0
 20 62  1  0
 21 63  1  0
 21 64  1  0
 22 65  1  1
 23 66  1  0
 25 67  1  0
 25 68  1  0
 25 69  1  0
 26 70  1  0
 26 71  1  0
 26 72  1  0
 28 73  1  0
 28 74  1  0
 28 75  1  0
 29 76  1  0
 29 77  1  0
 30 78  1  0
 30 79  1  0
 32 80  1  0
 32 81  1  0
 32 82  1  0
M  END
>  <meeko>  (14) 
{"is_sidechain": [false], "intermolecular_energy": 2.731, "internal_energy": -0.839}

$$$$
EPH_relaxed_0001_pdb2pqr_Repair_112_r2_0001_out
     RDKit          3D

 82 86  0  0  0  0  0  0  0  0999 V2000
    0.4660   18.9470   -2.5080 C   0  0  0  0  0  0  0  0  0  0  0  0
    0.0940   17.9570   -1.4010 C   0  0  2  0  0  0  0  0  0  0  0  0
    0.7360   18.3290   -0.0500 C   0  0  0  0  0  0  0  0  0  0  0  0
    1.7440   19.4770   -0.1430 C   0  0  0  0  0  0  0  0  0  0  0  0
    2.6190   19.5460    1.0720 C   0  0  2  0  0  0  0  0  0  0  0  0
    3.8810   20.1940    0.8650 O   0  0  0  0  0  0  0  0  0  0  0  0
    3.9330   18.7980    1.2010 C   0  0  0  0  0  0  0  0  0  0  0  0
    4.4450   17.9260    0.0980 C   0  0  0  0  0  0  0  0  0  0  0  0
    4.4710   18.5270    2.5710 C   0  0  0  0  0  0  0  0  0  0  0  0
    0.5080   16.5470   -1.8040 C   0  0  1  0  0  0  0  0  0  0  0  0
    1.8810   16.5110   -2.5270 C   0  0  0  0  0  0  0  0  0  0  0  0
    2.5760   15.1910   -2.1030 C   0  0  0  0  0  0  0  0  0  0  0  0
    1.4590   14.3630   -1.4250 C   0  0  1  0  0  0  0  0  0  0  0  0
    0.6680   13.7150   -2.6050 C   0  0  0  0  0  0  0  0  0  0  0  0
    1.9270   13.2920   -0.3870 C   0  0  2  0  0  0  0  0  0  0  0  0
    2.8100   12.1700   -0.9600 C   0  0  0  0  0  0  0  0  0  0  0  0
    2.0750   10.9660   -1.4490 C   0  0  0  0  0  0  0  0  0  0  0  0
    0.7920   10.6680   -1.1730 C   0  0  0  0  0  0  0  0  0  0  0  0
   -0.0300   11.5370   -0.2120 C   0  0  1  0  0  0  0  0  0  0  0  0
   -0.7900   10.6260    0.7880 C   0  0  0  0  0  0  0  0  0  0  0  0
   -1.6380    9.5680    0.0870 C   0  0  0  0  0  0  0  0  0  0  0  0
   -0.7760    8.6880   -0.8150 C   0  0  2  0  0  0  0  0  0  0  0  0
    0.1110    7.9190    0.0030 O   0  0  0  0  0  0  0  0  0  0  0  0
    0.0440    9.4980   -1.8580 C   0  0  0  0  0  0  0  0  0  0  0  0
   -0.9090   10.0880   -2.9260 C   0  0  0  0  0  0  0  0  0  0  0  0
    0.9740    8.5060   -2.6070 C   0  0  0  0  0  0  0  0  0  0  0  0
    0.7620   12.7090    0.5120 C   0  0  1  0  0  0  0  0  0  0  0  0
    1.4310   12.1740    1.8150 C   0  0  0  0  0  0  0  0  0  0  0  0
   -0.2600   13.8190    0.9610 C   0  0  0  0  0  0  0  0  0  0  0  0
   -0.5900   14.9170   -0.0680 C   0  0  0  0  0  0  0  0  0  0  0  0
    0.6890   15.5070   -0.6700 C   0  0  2  0  0  0  0  0  0  0  0  0
    1.4950   16.1850    0.4890 C   0  0  0  0  0  0  0  0  0  0  0  0
    0.8189   19.8861   -2.0567 H   0  0  0  0  0  0  0  0  0  0  0  0
    1.2640   18.5172   -3.1313 H   0  0  0  0  0  0  0  0  0  0  0  0
   -0.4175   19.1490   -3.1313 H   0  0  0  0  0  0  0  0  0  0  0  0
   -0.9974   18.0008   -1.2709 H   0  0  0  0  0  0  0  0  0  0  0  0
   -0.0639   18.6246    0.6449 H   0  0  0  0  0  0  0  0  0  0  0  0
    1.2884   17.4437    0.2980 H   0  0  0  0  0  0  0  0  0  0  0  0
    2.3767   19.3249   -1.0299 H   0  0  0  0  0  0  0  0  0  0  0  0
    1.1834   20.4206   -0.2160 H   0  0  0  0  0  0  0  0  0  0  0  0
    1.7399   19.6118    1.7299 H   0  0  0  0  0  0  0  0  0  0  0  0
    4.9575   17.0531    0.5286 H   0  0  0  0  0  0  0  0  0  0  0  0
    3.6024   17.5872   -0.5227 H   0  0  0  0  0  0  0  0  0  0  0  0
    5.1514   18.4967   -0.5227 H   0  0  0  0  0  0  0  0  0  0  0  0
    3.7549   18.8877    3.3241 H   0  0  0  0  0  0  0  0  0  0  0  0
    4.6227   17.4449    2.6979 H   0  0  0  0  0  0  0  0  0  0  0  0
    5.4308   19.0492    2.6979 H   0  0  0  0  0  0  0  0  0  0  0  0
   -0.3539   16.2743   -2.4307 H   0  0  0  0  0  0  0  0  0  0  0  0
    1.7355   16.5292   -3.6172 H   0  0  0  0  0  0  0  0  0  0  0  0
    2.4929   17.3840   -2.2560 H   0  0  0  0  0  0  0  0  0  0  0  0
    2.9731   14.6615   -2.9816 H   0  0  0  0  0  0  0  0  0  0  0  0
    3.4310   15.3658   -1.4333 H   0  0  0  0  0  0  0  0  0  0  0  0
   -0.1240   13.0661   -2.2029 H   0  0  0  0  0  0  0  0  0  0  0  0
    0.2162   14.5059   -3.2217 H   0  0  0  0  0  0  0  0  0  0  0  0
    1.3546   13.1164   -3.2217 H   0  0  0  0  0  0  0  0  0  0  0  0
    2.5809   13.8765    0.2769 H   0  0  0  0  0  0  0  0  0  0  0  0
    3.3818   12.5847   -1.8032 H   0  0  0  0  0  0  0  0  0  0  0  0
    3.4403   11.8241   -0.1275 H   0  0  0  0  0  0  0  0  0  0  0  0
    2.6289   10.2632   -2.0888 H   0  0  0  0  0  0  0  0  0  0  0  0
   -0.7489   12.0863   -0.8377 H   0  0  0  0  0  0  0  0  0  0  0  0
   -0.0559   10.1197    1.4320 H   0  0  0  0  0  0  0  0  0  0  0  0
   -1.4686   11.2646    1.3725 H   0  0  0  0  0  0  0  0  0  0  0  0
   -2.1262    8.9377    0.8449 H   0  0  0  0  0  0  0  0  0  0  0  0
   -2.3909   10.0759   -0.5336 H   0  0  0  0  0  0  0  0  0  0  0  0
   -1.4537    8.0368   -1.3865 H   0  0  0  0  0  0  0  0  0  0  0  0
    1.0020    8.2950   -0.0950 H   0  0  0  0  0  0  0  0  0  0  0  0
   -1.7430   10.6043   -2.4281 H   0  0  0  0  0  0  0  0  0  0  0  0
   -0.3578   10.8031   -3.5544 H   0  0  0  0  0  0  0  0  0  0  0  0
   -1.3033    9.2758   -3.5544 H   0  0  0  0  0  0  0  0  0  0  0  0
    1.5359    7.9067   -1.8755 H   0  0  0  0  0  0  0  0  0  0  0  0
    0.3673    7.8399   -3.2381 H   0  0  0  0  0  0  0  0  0  0  0  0
    1.6778    9.0685   -3.2381 H   0  0  0  0  0  0  0  0  0  0  0  0
    0.9115   12.5894    2.6911 H   0  0  0  0  0  0  0  0  0  0  0  0
    1.3658   11.0761    1.8365 H   0  0  0  0  0  0  0  0  0  0  0  0
    2.4876   12.4790    1.8365 H   0  0  0  0  0  0  0  0  0  0  0  0
   -1.2022   13.3165    1.2251 H   0  0  0  0  0  0  0  0  0  0  0  0
    0.2321   14.3434    1.7934 H   0  0  0  0  0  0  0  0  0  0  0  0
   -1.2001   14.4831   -0.8740 H   0  0  0  0  0  0  0  0  0  0  0  0
   -1.1408   15.7211    0.4418 H   0  0  0  0  0  0  0  0  0  0  0  0
    1.0964   15.8497    1.4578 H   0  0  0  0  0  0  0  0  0  0  0  0
    2.5555   15.9035    0.4116 H   0  0  0  0  0  0  0  0  0  0  0  0
    1.3992   17.2781    0.4116 H   0  0  0  0  0  0  0  0  0  0  0  0
  1  2  1  0
  2  3  1  0
  3  4  1  0
  4  5  1  0
  5  6  1  0
  6  7  1  0
  7  8  1  0
  7  9  1  0
  2 10  1  0
 10 11  1  0
 11 12  1  0
 12 13  1  0
 13 14  1  6
 13 15  1  0
 15 16  1  0
 16 17  1  0
 17 18  2  0
 18 19  1  0
 19 20  1  0
 20 21  1  0
 21 22  1  0
 22 23  1  0
 22 24  1  0
 24 25  1  0
 24 26  1  0
 19 27  1  0
 27 28  1  1
 27 29  1  0
 29 30  1  0
 30 31  1  0
 31 32  1  1
  7  5  1  0
 31 10  1  0
 31 13  1  0
 27 15  1  0
 24 18  1  0
  1 33  1  0
  1 34  1  0
  1 35  1  0
  2 36  1  1
  3 37  1  0
  3 38  1  0
  4 39  1  0
  4 40  1  0
  5 41  1  1
  8 42  1  0
  8 43  1  0
  8 44  1  0
  9 45  1  0
  9 46  1  0
  9 47  1  0
 10 48  1  6
 11 49  1  0
 11 50  1  0
 12 51  1  0
 12 52  1  0
 14 53  1  0
 14 54  1  0
 14 55  1  0
 15 56  1  1
 16 57  1  0
 16 58  1  0
 17 59  1  0
 19 60  1  6
 20 61  1  0
 20 62  1  0
 21 63  1  0
 21 64  1  0
 22 65  1  6
 23 66  1  0
 25 67  1  0
 25 68  1  0
 25 69  1  0
 26 70  1  0
 26 71  1  0
 26 72  1  0
 28 73  1  0
 28 74  1  0
 28 75  1  0
 29 76  1  0
 29 77  1  0
 30 78  1  0
 30 79  1  0
 32 80  1  0
 32 81  1  0
 32 82  1  0
M  END
>  <meeko>  (15) 
{"is_sidechain": [false], "intermolecular_energy": 2.731, "internal_energy": -0.839}

$$$$
EPH_relaxed_0001_pdb2pqr_Repair_112_r2_0001_out
     RDKit          3D

 82 86  0  0  0  0  0  0  0  0999 V2000
  -13.7640    9.5790    1.4350 C   0  0  0  0  0  0  0  0  0  0  0  0
  -13.1880    9.3500    0.0350 C   0  0  2  0  0  0  0  0  0  0  0  0
  -14.1610    8.5710   -0.8730 C   0  0  0  0  0  0  0  0  0  0  0  0
  -15.2870    9.4330   -1.4500 C   0  0  0  0  0  0  0  0  0  0  0  0
  -15.0120    9.8260   -2.8700 C   0  0  2  0  0  0  0  0  0  0  0  0
  -13.7790   10.5290   -3.0680 O   0  0  0  0  0  0  0  0  0  0  0  0
  -14.9800   11.2660   -3.3480 C   0  0  0  0  0  0  0  0  0  0  0  0
  -15.2270   12.4060   -2.4100 C   0  0  0  0  0  0  0  0  0  0  0  0
  -15.1930   11.5420   -4.8040 C   0  0  0  0  0  0  0  0  0  0  0  0
  -11.8610    8.6070    0.1340 C   0  0  1  0  0  0  0  0  0  0  0  0
  -11.8760    7.4970    1.2180 C   0  0  0  0  0  0  0  0  0  0  0  0
  -10.9950    6.3390    0.6850 C   0  0  0  0  0  0  0  0  0  0  0  0
  -10.2400    6.9460   -0.5210 C   0  0  1  0  0  0  0  0  0  0  0  0
   -9.0470    7.7330    0.1080 C   0  0  0  0  0  0  0  0  0  0  0  0
   -9.7550    5.9370   -1.6120 C   0  0  2  0  0  0  0  0  0  0  0  0
   -8.7320    4.8940   -1.1270 C   0  0  0  0  0  0  0  0  0  0  0  0
   -7.3000    5.2940   -1.2620 C   0  0  0  0  0  0  0  0  0  0  0  0
   -6.8410    6.3160   -2.0070 C   0  0  0  0  0  0  0  0  0  0  0  0
   -7.7890    7.1320   -2.8950 C   0  0  1  0  0  0  0  0  0  0  0  0
   -7.1570    7.3120   -4.3000 C   0  0  0  0  0  0  0  0  0  0  0  0
   -5.7550    7.9110   -4.2390 C   0  0  0  0  0  0  0  0  0  0  0  0
   -4.8270    7.0410   -3.3950 C   0  0  2  0  0  0  0  0  0  0  0  0
   -4.6290    5.7930   -4.0670 O   0  0  0  0  0  0  0  0  0  0  0  0
   -5.3650    6.7830   -1.9600 C   0  0  0  0  0  0  0  0  0  0  0  0
   -5.2950    8.0910   -1.1350 C   0  0  0  0  0  0  0  0  0  0  0  0
   -4.4070    5.7790   -1.2640 C   0  0  0  0  0  0  0  0  0  0  0  0
   -9.2910    6.6170   -2.9630 C   0  0  1  0  0  0  0  0  0  0  0  0
   -9.4320    5.5340   -4.0770 C   0  0  0  0  0  0  0  0  0  0  0  0
  -10.2260    7.8110   -3.3840 C   0  0  0  0  0  0  0  0  0  0  0  0
  -10.7700    8.7010   -2.2490 C   0  0  0  0  0  0  0  0  0  0  0  0
  -11.3740    7.8500   -1.1270 C   0  0  2  0  0  0  0  0  0  0  0  0
  -12.5900    7.0640   -1.7240 C   0  0  0  0  0  0  0  0  0  0  0  0
  -13.0207    9.2835    2.1901 H   0  0  0  0  0  0  0  0  0  0  0  0
  -14.0107   10.6436    1.5603 H   0  0  0  0  0  0  0  0  0  0  0  0
  -14.6744    8.9744    1.5603 H   0  0  0  0  0  0  0  0  0  0  0  0
  -13.0282   10.3375   -0.4224 H   0  0  0  0  0  0  0  0  0  0  0  0
  -13.5885    8.1424   -1.7088 H   0  0  0  0  0  0  0  0  0  0  0  0
  -14.6345    7.7985   -0.2493 H   0  0  0  0  0  0  0  0  0  0  0  0
  -16.2269    8.8628   -1.4136 H   0  0  0  0  0  0  0  0  0  0  0  0
  -15.3592   10.3508   -0.8480 H   0  0  0  0  0  0  0  0  0  0  0  0
  -15.5397    8.9361   -3.2436 H   0  0  0  0  0  0  0  0  0  0  0  0
  -15.1499   12.0501   -1.3720 H   0  0  0  0  0  0  0  0  0  0  0  0
  -14.4785   13.1930   -2.5843 H   0  0  0  0  0  0  0  0  0  0  0  0
  -16.2341   12.8127   -2.5843 H   0  0  0  0  0  0  0  0  0  0  0  0
  -15.8614   12.4081   -4.9191 H   0  0  0  0  0  0  0  0  0  0  0  0
  -14.2260   11.7591   -5.2813 H   0  0  0  0  0  0  0  0  0  0  0  0
  -15.6481   10.6616   -5.2813 H   0  0  0  0  0  0  0  0  0  0  0  0
  -11.1920    9.4538    0.3470 H   0  0  0  0  0  0  0  0  0  0  0  0
  -11.4633    7.8835    2.1615 H   0  0  0  0  0  0  0  0  0  0  0  0
  -12.9018    7.1533    1.4169 H   0  0  0  0  0  0  0  0  0  0  0  0
  -10.2871    6.0027    1.4569 H   0  0  0  0  0  0  0  0  0  0  0  0
  -11.5901    5.4576    0.4038 H   0  0  0  0  0  0  0  0  0  0  0  0
   -9.1156    7.6878    1.2049 H   0  0  0  0  0  0  0  0  0  0  0  0
   -8.0979    7.2831   -0.2189 H   0  0  0  0  0  0  0  0  0  0  0  0
   -9.0871    8.7825   -0.2189 H   0  0  0  0  0  0  0  0  0  0  0  0
  -10.6725    5.3735   -1.8373 H   0  0  0  0  0  0  0  0  0  0  0  0
   -8.9298    4.6928   -0.0638 H   0  0  0  0  0  0  0  0  0  0  0  0
   -8.8644    4.0144   -1.7741 H   0  0  0  0  0  0  0  0  0  0  0  0
   -6.5575    4.7033   -0.7054 H   0  0  0  0  0  0  0  0  0  0  0  0
   -7.8954    8.1114   -2.4056 H   0  0  0  0  0  0  0  0  0  0  0  0
   -7.0992    6.3285   -4.7892 H   0  0  0  0  0  0  0  0  0  0  0  0
   -7.7933    8.0088   -4.8653 H   0  0  0  0  0  0  0  0  0  0  0  0
   -5.3503    7.9849   -5.2592 H   0  0  0  0  0  0  0  0  0  0  0  0
   -5.8184    8.9075   -3.7776 H   0  0  0  0  0  0  0  0  0  0  0  0
   -3.8782    7.5855   -3.2798 H   0  0  0  0  0  0  0  0  0  0  0  0
   -4.1890    5.9810   -4.9130 H   0  0  0  0  0  0  0  0  0  0  0  0
   -5.3080    7.8489   -0.0621 H   0  0  0  0  0  0  0  0  0  0  0  0
   -4.3668    8.6288   -1.3784 H   0  0  0  0  0  0  0  0  0  0  0  0
   -6.1605    8.7248   -1.3784 H   0  0  0  0  0  0  0  0  0  0  0  0
   -4.5017    5.8783   -0.1726 H   0  0  0  0  0  0  0  0  0  0  0  0
   -4.6700    4.7537   -1.5631 H   0  0  0  0  0  0  0  0  0  0  0  0
   -3.3705    5.9937   -1.5631 H   0  0  0  0  0  0  0  0  0  0  0  0
   -9.5607    4.5451   -3.6128 H   0  0  0  0  0  0  0  0  0  0  0  0
  -10.3080    5.7626   -4.7018 H   0  0  0  0  0  0  0  0  0  0  0  0
   -8.5267    5.5307   -4.7018 H   0  0  0  0  0  0  0  0  0  0  0  0
   -9.6547    8.4559   -4.0679 H   0  0  0  0  0  0  0  0  0  0  0  0
  -11.1136    7.3383   -3.8299 H   0  0  0  0  0  0  0  0  0  0  0  0
   -9.9470    9.3051   -1.8394 H   0  0  0  0  0  0  0  0  0  0  0  0
  -11.5571    9.3508   -2.6591 H   0  0  0  0  0  0  0  0  0  0  0  0
  -13.2067    6.6654   -0.9050 H   0  0  0  0  0  0  0  0  0  0  0  0
  -13.1962    7.7416   -2.3432 H   0  0  0  0  0  0  0  0  0  0  0  0
  -12.2211    6.2330   -2.3432 H   0  0  0  0  0  0  0  0  0  0  0  0
  1  2  1  0
  2  3  1  0
  3  4  1  0
  4  5  1  0
  5  6  1  0
  6  7  1  0
  7  8  1  0
  7  9  1  0
  2 10  1  0
 10 11  1  0
 11 12  1  0
 12 13  1  0
 13 14  1  1
 13 15  1  0
 15 16  1  0
 16 17  1  0
 17 18  2  0
 18 19  1  0
 19 20  1  0
 20 21  1  0
 21 22  1  0
 22 23  1  0
 22 24  1  0
 24 25  1  0
 24 26  1  0
 19 27  1  0
 27 28  1  6
 27 29  1  0
 29 30  1  0
 30 31  1  0
 31 32  1  6
  7  5  1  0
 31 10  1  0
 31 13  1  0
 27 15  1  0
 24 18  1  0
  1 33  1  0
  1 34  1  0
  1 35  1  0
  2 36  1  6
  3 37  1  0
  3 38  1  0
  4 39  1  0
  4 40  1  0
  5 41  1  6
  8 42  1  0
  8 43  1  0
  8 44  1  0
  9 45  1  0
  9 46  1  0
  9 47  1  0
 10 48  1  1
 11 49  1  0
 11 50  1  0
 12 51  1  0
 12 52  1  0
 14 53  1  0
 14 54  1  0
 14 55  1  0
 15 56  1  6
 16 57  1  0
 16 58  1  0
 17 59  1  0
 19 60  1  1
 20 61  1  0
 20 62  1  0
 21 63  1  0
 21 64  1  0
 22 65  1  1
 23 66  1  0
 25 67  1  0
 25 68  1  0
 25 69  1  0
 26 70  1  0
 26 71  1  0
 26 72  1  0
 28 73  1  0
 28 74  1  0
 28 75  1  0
 29 76  1  0
 29 77  1  0
 30 78  1  0
 30 79  1  0
 32 80  1  0
 32 81  1  0
 32 82  1  0
M  END
>  <meeko>  (16) 
{"is_sidechain": [false], "intermolecular_energy": 2.731, "internal_energy": -0.839}

$$$$
EPH_relaxed_0001_pdb2pqr_Repair_112_r2_0001_out
     RDKit          3D

 82 86  0  0  0  0  0  0  0  0999 V2000
    1.6750   10.7320   -4.8170 C   0  0  0  0  0  0  0  0  0  0  0  0
    0.9270   10.5890   -3.4890 C   0  0  2  0  0  0  0  0  0  0  0  0
   -0.2450    9.5920   -3.5870 C   0  0  0  0  0  0  0  0  0  0  0  0
   -0.2040    8.4870   -2.5280 C   0  0  0  0  0  0  0  0  0  0  0  0
   -0.0010    9.0460   -1.1520 C   0  0  2  0  0  0  0  0  0  0  0  0
   -0.3400    8.1490   -0.0860 O   0  0  0  0  0  0  0  0  0  0  0  0
   -1.1390    9.3390   -0.1920 C   0  0  0  0  0  0  0  0  0  0  0  0
   -2.5640    9.0830   -0.5700 C   0  0  0  0  0  0  0  0  0  0  0  0
   -0.9070   10.3210    0.9140 C   0  0  0  0  0  0  0  0  0  0  0  0
    0.4160   11.9500   -3.0300 C   0  0  1  0  0  0  0  0  0  0  0  0
   -1.0220   11.8840   -2.4490 C   0  0  0  0  0  0  0  0  0  0  0  0
   -1.0890   12.9260   -1.3030 C   0  0  0  0  0  0  0  0  0  0  0  0
    0.1870   13.7820   -1.4790 C   0  0  1  0  0  0  0  0  0  0  0  0
   -0.1680   14.8060   -2.6020 C   0  0  0  0  0  0  0  0  0  0  0  0
    0.7230   14.4960   -0.1950 C   0  0  2  0  0  0  0  0  0  0  0  0
   -0.2340   15.5300    0.4240 C   0  0  0  0  0  0  0  0  0  0  0  0
   -0.0750   16.9260   -0.0780 C   0  0  0  0  0  0  0  0  0  0  0  0
    0.9790   17.3930   -0.7730 C   0  0  0  0  0  0  0  0  0  0  0  0
    2.2030   16.5060   -1.0370 C   0  0  1  0  0  0  0  0  0  0  0  0
    3.4970   17.3050   -0.7290 C   0  0  0  0  0  0  0  0  0  0  0  0
    3.5610   18.6280   -1.4850 C   0  0  0  0  0  0  0  0  0  0  0  0
    2.3570   19.5060   -1.1530 C   0  0  2  0  0  0  0  0  0  0  0  0
    2.4400   19.9000    0.2210 O   0  0  0  0  0  0  0  0  0  0  0  0
    0.9960   18.8030   -1.4130 C   0  0  0  0  0  0  0  0  0  0  0  0
    0.7750   18.6470   -2.9380 C   0  0  0  0  0  0  0  0  0  0  0  0
   -0.1310   19.7410   -0.9050 C   0  0  0  0  0  0  0  0  0  0  0  0
    2.1870   15.0780   -0.3400 C   0  0  1  0  0  0  0  0  0  0  0  0
    2.7700   15.1830    1.1020 C   0  0  0  0  0  0  0  0  0  0  0  0
    3.1410   14.1080   -1.1340 C   0  0  0  0  0  0  0  0  0  0  0  0
    2.5220   13.3410   -2.3190 C   0  0  0  0  0  0  0  0  0  0  0  0
    1.2090   12.6670   -1.9090 C   0  0  2  0  0  0  0  0  0  0  0  0
    1.5380   11.6150   -0.7960 C   0  0  0  0  0  0  0  0  0  0  0  0
    2.7378   10.9352   -4.6192 H   0  0  0  0  0  0  0  0  0  0  0  0
    1.5810    9.7996   -5.3930 H   0  0  0  0  0  0  0  0  0  0  0  0
    1.2437   11.5640   -5.3930 H   0  0  0  0  0  0  0  0  0  0  0  0
    1.6383   10.1909   -2.7504 H   0  0  0  0  0  0  0  0  0  0  0  0
   -1.1859   10.1498   -3.4705 H   0  0  0  0  0  0  0  0  0  0  0  0
   -0.1670    9.1000   -4.5678 H   0  0  0  0  0  0  0  0  0  0  0  0
   -1.1550    7.9348   -2.5518 H   0  0  0  0  0  0  0  0  0  0  0  0
    0.6427    7.8233   -2.7572 H   0  0  0  0  0  0  0  0  0  0  0  0
    0.8471    9.6549   -1.4984 H   0  0  0  0  0  0  0  0  0  0  0  0
   -3.1710    8.9739    0.3408 H   0  0  0  0  0  0  0  0  0  0  0  0
   -2.9431    9.9274   -1.1644 H   0  0  0  0  0  0  0  0  0  0  0  0
   -2.6254    8.1594   -1.1644 H   0  0  0  0  0  0  0  0  0  0  0  0
   -1.0263    9.8159    1.8839 H   0  0  0  0  0  0  0  0  0  0  0  0
    0.1120   10.7278    0.8354 H   0  0  0  0  0  0  0  0  0  0  0  0
   -1.6362   11.1408    0.8354 H   0  0  0  0  0  0  0  0  0  0  0  0
    0.5097   12.5089   -3.9728 H   0  0  0  0  0  0  0  0  0  0  0  0
   -1.7575   12.1307   -3.2289 H   0  0  0  0  0  0  0  0  0  0  0  0
   -1.2527   10.8742   -2.0789 H   0  0  0  0  0  0  0  0  0  0  0  0
   -1.9906   13.5491   -1.3969 H   0  0  0  0  0  0  0  0  0  0  0  0
   -1.1404   12.4527   -0.3113 H   0  0  0  0  0  0  0  0  0  0  0  0
   -0.4958   15.7517   -2.1456 H   0  0  0  0  0  0  0  0  0  0  0  0
    0.7194   14.9882   -3.2259 H   0  0  0  0  0  0  0  0  0  0  0  0
   -0.9778   14.3998   -3.2259 H   0  0  0  0  0  0  0  0  0  0  0  0
    0.7787   13.6693    0.5285 H   0  0  0  0  0  0  0  0  0  0  0  0
   -1.2646   15.2083    0.2132 H   0  0  0  0  0  0  0  0  0  0  0  0
    0.0064   15.5631    1.4969 H   0  0  0  0  0  0  0  0  0  0  0  0
   -0.8885   17.6341    0.1383 H   0  0  0  0  0  0  0  0  0  0  0  0
    2.1684   16.2492   -2.1060 H   0  0  0  0  0  0  0  0  0  0  0  0
    3.5342   17.5135    0.3504 H   0  0  0  0  0  0  0  0  0  0  0  0
    4.3521   16.6936   -1.0528 H   0  0  0  0  0  0  0  0  0  0  0  0
    4.4822   19.1591   -1.2034 H   0  0  0  0  0  0  0  0  0  0  0  0
    3.5534   18.4159   -2.5643 H   0  0  0  0  0  0  0  0  0  0  0  0
    2.3911   20.3797   -1.8205 H   0  0  0  0  0  0  0  0  0  0  0  0
    2.9150   19.2000    0.7000 H   0  0  0  0  0  0  0  0  0  0  0  0
   -0.1116   18.0212   -3.1179 H   0  0  0  0  0  0  0  0  0  0  0  0
    0.6219   19.6383   -3.3896 H   0  0  0  0  0  0  0  0  0  0  0  0
    1.6577   18.1708   -3.3896 H   0  0  0  0  0  0  0  0  0  0  0  0
   -0.1363   19.7454    0.1950 H   0  0  0  0  0  0  0  0  0  0  0  0
    0.0468   20.7616   -1.2749 H   0  0  0  0  0  0  0  0  0  0  0  0
   -1.1023   19.3809   -1.2749 H   0  0  0  0  0  0  0  0  0  0  0  0
    1.9630   15.0377    1.8352 H   0  0  0  0  0  0  0  0  0  0  0  0
    3.5384   14.4088    1.2441 H   0  0  0  0  0  0  0  0  0  0  0  0
    3.2200   16.1766    1.2441 H   0  0  0  0  0  0  0  0  0  0  0  0
    3.9753   14.7085   -1.5256 H   0  0  0  0  0  0  0  0  0  0  0  0
    3.4314   13.3329   -0.4095 H   0  0  0  0  0  0  0  0  0  0  0  0
    2.3238   14.0458   -3.1399 H   0  0  0  0  0  0  0  0  0  0  0  0
    3.2298   12.5634   -2.6421 H   0  0  0  0  0  0  0  0  0  0  0  0
    1.3951   12.0720    0.1943 H   0  0  0  0  0  0  0  0  0  0  0  0
    0.8678   10.7490   -0.9004 H   0  0  0  0  0  0  0  0  0  0  0  0
    2.5822   11.2852   -0.9004 H   0  0  0  0  0  0  0  0  0  0  0  0
  1  2  1  0
  2  3  1  0
  3  4  1  0
  4  5  1  0
  5  6  1  0
  6  7  1  0
  7  8  1  0
  7  9  1  0
  2 10  1  0
 10 11  1  0
 11 12  1  0
 12 13  1  0
 13 14  1  6
 13 15  1  0
 15 16  1  0
 16 17  1  0
 17 18  2  0
 18 19  1  0
 19 20  1  0
 20 21  1  0
 21 22  1  0
 22 23  1  0
 22 24  1  0
 24 25  1  0
 24 26  1  0
 19 27  1  0
 27 28  1  1
 27 29  1  0
 29 30  1  0
 30 31  1  0
 31 32  1  1
  7  5  1  0
 31 10  1  0
 31 13  1  0
 27 15  1  0
 24 18  1  0
  1 33  1  0
  1 34  1  0
  1 35  1  0
  2 36  1  1
  3 37  1  0
  3 38  1  0
  4 39  1  0
  4 40  1  0
  5 41  1  1
  8 42  1  0
  8 43  1  0
  8 44  1  0
  9 45  1  0
  9 46  1  0
  9 47  1  0
 10 48  1  6
 11 49  1  0
 11 50  1  0
 12 51  1  0
 12 52  1  0
 14 53  1  0
 14 54  1  0
 14 55  1  0
 15 56  1  1
 16 57  1  0
 16 58  1  0
 17 59  1  0
 19 60  1  6
 20 61  1  0
 20 62  1  0
 21 63  1  0
 21 64  1  0
 22 65  1  6
 23 66  1  0
 25 67  1  0
 25 68  1  0
 25 69  1  0
 26 70  1  0
 26 71  1  0
 26 72  1  0
 28 73  1  0
 28 74  1  0
 28 75  1  0
 29 76  1  0
 29 77  1  0
 30 78  1  0
 30 79  1  0
 32 80  1  0
 32 81  1  0
 32 82  1  0
M  END
>  <meeko>  (17) 
{"is_sidechain": [false], "intermolecular_energy": 2.731, "internal_energy": -0.839}

$$$$
EPH_relaxed_0001_pdb2pqr_Repair_112_r2_0001_out
     RDKit          3D

 82 86  0  0  0  0  0  0  0  0999 V2000
    0.9510   14.8820   -2.6160 C   0  0  0  0  0  0  0  0  0  0  0  0
    1.2140   14.2030   -3.9630 C   0  0  2  0  0  0  0  0  0  0  0  0
    0.5200   14.9360   -5.1280 C   0  0  0  0  0  0  0  0  0  0  0  0
    1.1060   14.6000   -6.5020 C   0  0  0  0  0  0  0  0  0  0  0  0
    0.8630   15.6990   -7.4920 C   0  0  2  0  0  0  0  0  0  0  0  0
    0.4100   15.2580   -8.7780 O   0  0  0  0  0  0  0  0  0  0  0  0
    1.6960   15.8960   -8.7450 C   0  0  0  0  0  0  0  0  0  0  0  0
    2.8360   14.9840   -9.0750 C   0  0  0  0  0  0  0  0  0  0  0  0
    1.7160   17.2480   -9.3860 C   0  0  0  0  0  0  0  0  0  0  0  0
    0.7530   12.7510   -3.9120 C   0  0  1  0  0  0  0  0  0  0  0  0
    1.8770   11.7530   -4.3000 C   0  0  0  0  0  0  0  0  0  0  0  0
    1.6700   10.4870   -3.4300 C   0  0  0  0  0  0  0  0  0  0  0  0
    0.2600   10.6590   -2.8190 C   0  0  1  0  0  0  0  0  0  0  0  0
   -0.7220   10.2000   -3.9430 C   0  0  0  0  0  0  0  0  0  0  0  0
   -0.0080    9.9050   -1.4760 C   0  0  2  0  0  0  0  0  0  0  0  0
    0.0850    8.3710   -1.5580 C   0  0  0  0  0  0  0  0  0  0  0  0
   -1.1930    7.6710   -1.8800 C   0  0  0  0  0  0  0  0  0  0  0  0
   -2.4220    8.2170   -1.8150 C   0  0  0  0  0  0  0  0  0  0  0  0
   -2.6230    9.6440   -1.2890 C   0  0  1  0  0  0  0  0  0  0  0  0
   -3.8000    9.6630   -0.2790 C   0  0  0  0  0  0  0  0  0  0  0  0
   -5.0800    9.0700   -0.8610 C   0  0  0  0  0  0  0  0  0  0  0  0
   -4.8550    7.6310   -1.3190 C   0  0  2  0  0  0  0  0  0  0  0  0
   -4.6000    6.8160   -0.1710 O   0  0  0  0  0  0  0  0  0  0  0  0
   -3.6850    7.4870   -2.3330 C   0  0  0  0  0  0  0  0  0  0  0  0
   -4.0900    8.1170   -3.6880 C   0  0  0  0  0  0  0  0  0  0  0  0
   -3.4730    5.9730   -2.6040 C   0  0  0  0  0  0  0  0  0  0  0  0
   -1.3230   10.3650   -0.7260 C   0  0  1  0  0  0  0  0  0  0  0  0
   -1.1260   10.0060    0.7790 C   0  0  0  0  0  0  0  0  0  0  0  0
   -1.5330   11.9240   -0.7870 C   0  0  0  0  0  0  0  0  0  0  0  0
   -1.1380   12.6280   -2.0990 C   0  0  0  0  0  0  0  0  0  0  0  0
    0.2660   12.2070   -2.5460 C   0  0  2  0  0  0  0  0  0  0  0  0
    1.2780   12.6740   -1.4450 C   0  0  0  0  0  0  0  0  0  0  0  0
    1.2175   14.1939   -1.8003 H   0  0  0  0  0  0  0  0  0  0  0  0
    1.5608   15.7944   -2.5400 H   0  0  0  0  0  0  0  0  0  0  0  0
   -0.1143   15.1456   -2.5400 H   0  0  0  0  0  0  0  0  0  0  0  0
    2.2977   14.2424   -4.1475 H   0  0  0  0  0  0  0  0  0  0  0  0
   -0.5447   14.6595   -5.1274 H   0  0  0  0  0  0  0  0  0  0  0  0
    0.6736   16.0133   -4.9674 H   0  0  0  0  0  0  0  0  0  0  0  0
    2.1903   14.4461   -6.3992 H   0  0  0  0  0  0  0  0  0  0  0  0
    0.6121   13.6895   -6.8722 H   0  0  0  0  0  0  0  0  0  0  0  0
    0.5643   16.3881   -6.6883 H   0  0  0  0  0  0  0  0  0  0  0  0
    3.2938   14.6177   -8.1443 H   0  0  0  0  0  0  0  0  0  0  0  0
    2.4649   14.1307   -9.6616 H   0  0  0  0  0  0  0  0  0  0  0  0
    3.5871   15.5333   -9.6616 H   0  0  0  0  0  0  0  0  0  0  0  0
    1.7275   18.0235   -8.6059 H   0  0  0  0  0  0  0  0  0  0  0  0
    2.6157   17.3439  -10.0116 H   0  0  0  0  0  0  0  0  0  0  0  0
    0.8196   17.3705  -10.0116 H   0  0  0  0  0  0  0  0  0  0  0  0
   -0.0882   12.8000   -4.6191 H   0  0  0  0  0  0  0  0  0  0  0  0
    1.8035   11.4957   -5.3670 H   0  0  0  0  0  0  0  0  0  0  0  0
    2.8712   12.1916   -4.1293 H   0  0  0  0  0  0  0  0  0  0  0  0
    1.7168    9.5788   -4.0488 H   0  0  0  0  0  0  0  0  0  0  0  0
    2.4478   10.3788   -2.6597 H   0  0  0  0  0  0  0  0  0  0  0  0
   -1.6289    9.7761   -3.4870 H   0  0  0  0  0  0  0  0  0  0  0  0
   -0.9948   11.0639   -4.5669 H   0  0  0  0  0  0  0  0  0  0  0  0
   -0.2341    9.4366   -4.5669 H   0  0  0  0  0  0  0  0  0  0  0  0
    0.8421   10.2223   -0.8542 H   0  0  0  0  0  0  0  0  0  0  0  0
    0.8179    8.1162   -2.3377 H   0  0  0  0  0  0  0  0  0  0  0  0
    0.3740    8.0296   -0.5530 H   0  0  0  0  0  0  0  0  0  0  0  0
   -1.1252    6.6199   -2.1973 H   0  0  0  0  0  0  0  0  0  0  0  0
   -2.8745   10.2587   -2.1659 H   0  0  0  0  0  0  0  0  0  0  0  0
   -3.5128    9.0797    0.6082 H   0  0  0  0  0  0  0  0  0  0  0  0
   -4.0044   10.7134   -0.0241 H   0  0  0  0  0  0  0  0  0  0  0  0
   -5.8658    9.0842   -0.0914 H   0  0  0  0  0  0  0  0  0  0  0  0
   -5.3825    9.6722   -1.7304 H   0  0  0  0  0  0  0  0  0  0  0  0
   -5.7659    7.3051   -1.8425 H   0  0  0  0  0  0  0  0  0  0  0  0
   -3.7660    6.3400   -0.3270 H   0  0  0  0  0  0  0  0  0  0  0  0
   -4.6767    9.0297   -3.5072 H   0  0  0  0  0  0  0  0  0  0  0  0
   -3.1850    8.3701   -4.2598 H   0  0  0  0  0  0  0  0  0  0  0  0
   -4.6960    7.3988   -4.2598 H   0  0  0  0  0  0  0  0  0  0  0  0
   -3.3978    5.4362   -1.6468 H   0  0  0  0  0  0  0  0  0  0  0  0
   -4.3250    5.5805   -3.1786 H   0  0  0  0  0  0  0  0  0  0  0  0
   -2.5460    5.8296   -3.1786 H   0  0  0  0  0  0  0  0  0  0  0  0
   -1.5611   10.7989    1.4051 H   0  0  0  0  0  0  0  0  0  0  0  0
   -1.6264    9.0509    0.9967 H   0  0  0  0  0  0  0  0  0  0  0  0
   -0.0516    9.9150    0.9967 H   0  0  0  0  0  0  0  0  0  0  0  0
   -2.6005   12.1230   -0.6111 H   0  0  0  0  0  0  0  0  0  0  0  0
   -0.8551   12.3354   -0.0246 H   0  0  0  0  0  0  0  0  0  0  0  0
   -1.8610   12.3595   -2.8833 H   0  0  0  0  0  0  0  0  0  0  0  0
   -1.1408   13.7147   -1.9286 H   0  0  0  0  0  0  0  0  0  0  0  0
    0.8531   12.4779   -0.4495 H   0  0  0  0  0  0  0  0  0  0  0  0
    2.2221   12.1205   -1.5562 H   0  0  0  0  0  0  0  0  0  0  0  0
    1.4694   13.7515   -1.5562 H   0  0  0  0  0  0  0  0  0  0  0  0
  1  2  1  0
  2  3  1  0
  3  4  1  0
  4  5  1  0
  5  6  1  0
  6  7  1  0
  7  8  1  0
  7  9  1  0
  2 10  1  0
 10 11  1  0
 11 12  1  0
 12 13  1  0
 13 14  1  6
 13 15  1  0
 15 16  1  0
 16 17  1  0
 17 18  2  0
 18 19  1  0
 19 20  1  0
 20 21  1  0
 21 22  1  0
 22 23  1  0
 22 24  1  0
 24 25  1  0
 24 26  1  0
 19 27  1  0
 27 28  1  1
 27 29  1  0
 29 30  1  0
 30 31  1  0
 31 32  1  1
  7  5  1  0
 31 10  1  0
 31 13  1  0
 27 15  1  0
 24 18  1  0
  1 33  1  0
  1 34  1  0
  1 35  1  0
  2 36  1  6
  3 37  1  0
  3 38  1  0
  4 39  1  0
  4 40  1  0
  5 41  1  1
  8 42  1  0
  8 43  1  0
  8 44  1  0
  9 45  1  0
  9 46  1  0
  9 47  1  0
 10 48  1  6
 11 49  1  0
 11 50  1  0
 12 51  1  0
 12 52  1  0
 14 53  1  0
 14 54  1  0
 14 55  1  0
 15 56  1  1
 16 57  1  0
 16 58  1  0
 17 59  1  0
 19 60  1  6
 20 61  1  0
 20 62  1  0
 21 63  1  0
 21 64  1  0
 22 65  1  6
 23 66  1  0
 25 67  1  0
 25 68  1  0
 25 69  1  0
 26 70  1  0
 26 71  1  0
 26 72  1  0
 28 73  1  0
 28 74  1  0
 28 75  1  0
 29 76  1  0
 29 77  1  0
 30 78  1  0
 30 79  1  0
 32 80  1  0
 32 81  1  0
 32 82  1  0
M  END
>  <meeko>  (18) 
{"is_sidechain": [false], "intermolecular_energy": 2.731, "internal_energy": -0.839}

$$$$
EPH_relaxed_0001_pdb2pqr_Repair_112_r2_0001_out
     RDKit          3D

 82 86  0  0  0  0  0  0  0  0999 V2000
   -2.6110    7.7130   -0.1840 C   0  0  0  0  0  0  0  0  0  0  0  0
   -3.1540    9.1400   -0.0730 C   0  0  2  0  0  0  0  0  0  0  0  0
   -4.6570    9.2180   -0.4090 C   0  0  0  0  0  0  0  0  0  0  0  0
   -5.2050    7.9510   -1.0730 C   0  0  0  0  0  0  0  0  0  0  0  0
   -6.5760    8.1710   -1.6380 C   0  0  2  0  0  0  0  0  0  0  0  0
   -7.3360    6.9740   -1.8480 O   0  0  0  0  0  0  0  0  0  0  0  0
   -6.9910    7.7190   -3.0260 C   0  0  0  0  0  0  0  0  0  0  0  0
   -6.0340    7.0120   -3.9350 C   0  0  0  0  0  0  0  0  0  0  0  0
   -8.1590    8.3910   -3.6780 C   0  0  0  0  0  0  0  0  0  0  0  0
   -2.3670   10.0690   -0.9900 C   0  0  1  0  0  0  0  0  0  0  0  0
   -2.9800   11.4920   -1.0680 C   0  0  0  0  0  0  0  0  0  0  0  0
   -1.7950   12.4830   -1.2040 C   0  0  0  0  0  0  0  0  0  0  0  0
   -0.5760   11.5900   -1.5320 C   0  0  1  0  0  0  0  0  0  0  0  0
   -0.6830   11.3110   -3.0640 C   0  0  0  0  0  0  0  0  0  0  0  0
    0.8260   12.1650   -1.1470 C   0  0  2  0  0  0  0  0  0  0  0  0
    1.2180   13.4660   -1.8700 C   0  0  0  0  0  0  0  0  0  0  0  0
    1.9580   13.2830   -3.1540 C   0  0  0  0  0  0  0  0  0  0  0  0
    2.5430   12.1420   -3.5640 C   0  0  0  0  0  0  0  0  0  0  0  0
    2.5770   10.9050   -2.6580 C   0  0  1  0  0  0  0  0  0  0  0  0
    4.0070   10.3030   -2.6570 C   0  0  0  0  0  0  0  0  0  0  0  0
    4.5200   10.0110   -4.0640 C   0  0  0  0  0  0  0  0  0  0  0  0
    4.5260   11.2770   -4.9170 C   0  0  2  0  0  0  0  0  0  0  0  0
    5.4970   12.1840   -4.3880 O   0  0  0  0  0  0  0  0  0  0  0  0
    3.1390   11.9770   -4.9840 C   0  0  0  0  0  0  0  0  0  0  0  0
    2.1630   11.1170   -5.8240 C   0  0  0  0  0  0  0  0  0  0  0  0
    3.3160   13.3130   -5.7550 C   0  0  0  0  0  0  0  0  0  0  0  0
    1.9980   11.1030   -1.1920 C   0  0  1  0  0  0  0  0  0  0  0  0
    3.1170   11.6340   -0.2440 C   0  0  0  0  0  0  0  0  0  0  0  0
    1.5580    9.7030   -0.6190 C   0  0  0  0  0  0  0  0  0  0  0  0
    0.1220    9.2440   -0.9340 C   0  0  0  0  0  0  0  0  0  0  0  0
   -0.8890   10.3500   -0.6180 C   0  0  2  0  0  0  0  0  0  0  0  0
   -0.8200   10.6360    0.9210 C   0  0  0  0  0  0  0  0  0  0  0  0
   -2.4542    7.3009    0.8238 H   0  0  0  0  0  0  0  0  0  0  0  0
   -3.3337    7.0869   -0.7278 H   0  0  0  0  0  0  0  0  0  0  0  0
   -1.6549    7.7258   -0.7278 H   0  0  0  0  0  0  0  0  0  0  0  0
   -3.0325    9.4590    0.9727 H   0  0  0  0  0  0  0  0  0  0  0  0
   -5.2133    9.3896    0.5244 H   0  0  0  0  0  0  0  0  0  0  0  0
   -4.7836   10.0395   -1.1294 H   0  0  0  0  0  0  0  0  0  0  0  0
   -4.5274    7.6532   -1.8868 H   0  0  0  0  0  0  0  0  0  0  0  0
   -5.2713    7.1635   -0.3078 H   0  0  0  0  0  0  0  0  0  0  0  0
   -6.6598    9.1382   -1.1208 H   0  0  0  0  0  0  0  0  0  0  0  0
   -5.2933    6.4648   -3.3335 H   0  0  0  0  0  0  0  0  0  0  0  0
   -6.5865    6.3035   -4.5697 H   0  0  0  0  0  0  0  0  0  0  0  0
   -5.5192    7.7483   -4.5697 H   0  0  0  0  0  0  0  0  0  0  0  0
   -8.8366    8.7809   -2.9041 H   0  0  0  0  0  0  0  0  0  0  0  0
   -7.8014    9.2215   -4.3045 H   0  0  0  0  0  0  0  0  0  0  0  0
   -8.6972    7.6645   -4.3045 H   0  0  0  0  0  0  0  0  0  0  0  0
   -2.4169    9.4913   -1.9248 H   0  0  0  0  0  0  0  0  0  0  0  0
   -3.6426   11.5716   -1.9425 H   0  0  0  0  0  0  0  0  0  0  0  0
   -3.5792   11.7135   -0.1725 H   0  0  0  0  0  0  0  0  0  0  0  0
   -1.9804   13.2009   -2.0165 H   0  0  0  0  0  0  0  0  0  0  0  0
   -1.6425   13.0788   -0.2920 H   0  0  0  0  0  0  0  0  0  0  0  0
   -1.0726   10.2950   -3.2253 H   0  0  0  0  0  0  0  0  0  0  0  0
   -1.3645   12.0423   -3.5232 H   0  0  0  0  0  0  0  0  0  0  0  0
    0.3127   11.3991   -3.5232 H   0  0  0  0  0  0  0  0  0  0  0  0
    0.6860   12.4398   -0.0911 H   0  0  0  0  0  0  0  0  0  0  0  0
    0.2962   14.0262   -2.0856 H   0  0  0  0  0  0  0  0  0  0  0  0
    1.9064   13.9946   -1.1942 H   0  0  0  0  0  0  0  0  0  0  0  0
    2.0313   14.1543   -3.8214 H   0  0  0  0  0  0  0  0  0  0  0  0
    1.8695   10.1867   -3.0980 H   0  0  0  0  0  0  0  0  0  0  0  0
    4.6899   11.0173   -2.1739 H   0  0  0  0  0  0  0  0  0  0  0  0
    3.9671    9.3486   -2.1115 H   0  0  0  0  0  0  0  0  0  0  0  0
    5.5446    9.6162   -3.9987 H   0  0  0  0  0  0  0  0  0  0  0  0
    3.8527    9.2740   -4.5347 H   0  0  0  0  0  0  0  0  0  0  0  0
    4.7780   10.9807   -5.9459 H   0  0  0  0  0  0  0  0  0  0  0  0
    5.2950   12.3170   -3.4460 H   0  0  0  0  0  0  0  0  0  0  0  0
    1.5098   10.5414   -5.1517 H   0  0  0  0  0  0  0  0  0  0  0  0
    1.5492   11.7732   -6.4585 H   0  0  0  0  0  0  0  0  0  0  0  0
    2.7367   10.4255   -6.4585 H   0  0  0  0  0  0  0  0  0  0  0  0
    3.4254   14.1390   -5.0369 H   0  0  0  0  0  0  0  0  0  0  0  0
    4.2143   13.2553   -6.3872 H   0  0  0  0  0  0  0  0  0  0  0  0
    2.4336   13.4912   -6.3872 H   0  0  0  0  0  0  0  0  0  0  0  0
    2.8106   11.4886    0.8024 H   0  0  0  0  0  0  0  0  0  0  0  0
    4.0498   11.0825   -0.4329 H   0  0  0  0  0  0  0  0  0  0  0  0
    3.2797   12.7054   -0.4329 H   0  0  0  0  0  0  0  0  0  0  0  0
    2.2457    8.9464   -1.0246 H   0  0  0  0  0  0  0  0  0  0  0  0
    1.5905    9.8165    0.4746 H   0  0  0  0  0  0  0  0  0  0  0  0
    0.0524    8.9871   -2.0013 H   0  0  0  0  0  0  0  0  0  0  0  0
   -0.1107    8.3678   -0.3110 H   0  0  0  0  0  0  0  0  0  0  0  0
   -1.0428    9.7127    1.4759 H   0  0  0  0  0  0  0  0  0  0  0  0
    0.1887   10.9874    1.1838 H   0  0  0  0  0  0  0  0  0  0  0  0
   -1.5575   11.4087    1.1838 H   0  0  0  0  0  0  0  0  0  0  0  0
  1  2  1  0
  2  3  1  0
  3  4  1  0
  4  5  1  0
  5  6  1  0
  6  7  1  0
  7  8  1  0
  7  9  1  0
  2 10  1  0
 10 11  1  0
 11 12  1  0
 12 13  1  0
 13 14  1  6
 13 15  1  0
 15 16  1  0
 16 17  1  0
 17 18  2  0
 18 19  1  0
 19 20  1  0
 20 21  1  0
 21 22  1  0
 22 23  1  0
 22 24  1  0
 24 25  1  0
 24 26  1  0
 19 27  1  0
 27 28  1  1
 27 29  1  0
 29 30  1  0
 30 31  1  0
 31 32  1  1
  7  5  1  0
 31 10  1  0
 31 13  1  0
 27 15  1  0
 24 18  1  0
  1 33  1  0
  1 34  1  0
  1 35  1  0
  2 36  1  1
  3 37  1  0
  3 38  1  0
  4 39  1  0
  4 40  1  0
  5 41  1  1
  8 42  1  0
  8 43  1  0
  8 44  1  0
  9 45  1  0
  9 46  1  0
  9 47  1  0
 10 48  1  6
 11 49  1  0
 11 50  1  0
 12 51  1  0
 12 52  1  0
 14 53  1  0
 14 54  1  0
 14 55  1  0
 15 56  1  1
 16 57  1  0
 16 58  1  0
 17 59  1  0
 19 60  1  6
 20 61  1  0
 20 62  1  0
 21 63  1  0
 21 64  1  0
 22 65  1  6
 23 66  1  0
 25 67  1  0
 25 68  1  0
 25 69  1  0
 26 70  1  0
 26 71  1  0
 26 72  1  0
 28 73  1  0
 28 74  1  0
 28 75  1  0
 29 76  1  0
 29 77  1  0
 30 78  1  0
 30 79  1  0
 32 80  1  0
 32 81  1  0
 32 82  1  0
M  END
>  <meeko>  (19) 
{"is_sidechain": [false], "intermolecular_energy": 2.731, "internal_energy": -0.839}

$$$$
