EPH_relaxed_0001_pdb2pqr_Repair_121_r2_0001_out
     RDKit          3D

 82 86  0  0  0  0  0  0  0  0999 V2000
   -1.2650    8.3870   -1.3350 C   0  0  0  0  0  0  0  0  0  0  0  0
   -1.9300    9.2750   -0.2790 C   0  0  2  0  0  0  0  0  0  0  0  0
   -3.3330    9.7430   -0.7140 C   0  0  0  0  0  0  0  0  0  0  0  0
   -4.4270    8.6950   -0.4920 C   0  0  0  0  0  0  0  0  0  0  0  0
   -4.8900    8.0940   -1.7840 C   0  0  2  0  0  0  0  0  0  0  0  0
   -5.9380    8.8200   -2.4400 O   0  0  0  0  0  0  0  0  0  0  0  0
   -6.2710    7.4990   -1.9830 C   0  0  0  0  0  0  0  0  0  0  0  0
   -7.2770    7.4750   -0.8750 C   0  0  0  0  0  0  0  0  0  0  0  0
   -6.4720    6.5110   -3.0900 C   0  0  0  0  0  0  0  0  0  0  0  0
   -1.0460   10.4810    0.0160 C   0  0  1  0  0  0  0  0  0  0  0  0
    0.0720   10.1660    1.0440 C   0  0  0  0  0  0  0  0  0  0  0  0
    1.3110   11.0000    0.6280 C   0  0  0  0  0  0  0  0  0  0  0  0
    0.7710   12.0080   -0.4130 C   0  0  1  0  0  0  0  0  0  0  0  0
    0.1280   13.1520    0.4320 C   0  0  0  0  0  0  0  0  0  0  0  0
    1.8100   12.5640   -1.4410 C   0  0  2  0  0  0  0  0  0  0  0  0
    2.9650   13.3750   -0.8280 C   0  0  0  0  0  0  0  0  0  0  0  0
    2.7200   14.8420   -0.7070 C   0  0  0  0  0  0  0  0  0  0  0  0
    1.7420   15.5260   -1.3300 C   0  0  0  0  0  0  0  0  0  0  0  0
    0.8140   14.8330   -2.3360 C   0  0  1  0  0  0  0  0  0  0  0  0
    0.6820   15.7100   -3.6090 C   0  0  0  0  0  0  0  0  0  0  0  0
    0.2390   17.1360   -3.2930 C   0  0  0  0  0  0  0  0  0  0  0  0
    1.2180   17.8110   -2.3360 C   0  0  2  0  0  0  0  0  0  0  0  0
    2.4690   17.9900   -3.0060 O   0  0  0  0  0  0  0  0  0  0  0  0
    1.4390   17.0130   -1.0210 C   0  0  0  0  0  0  0  0  0  0  0  0
    0.1580   17.0770   -0.1520 C   0  0  0  0  0  0  0  0  0  0  0  0
    2.5510   17.7290   -0.2080 C   0  0  0  0  0  0  0  0  0  0  0  0
    1.1630   13.3190   -2.6720 C   0  0  1  0  0  0  0  0  0  0  0  0
    2.2060   13.2580   -3.8300 C   0  0  0  0  0  0  0  0  0  0  0  0
   -0.1320   12.5980   -3.2030 C   0  0  0  0  0  0  0  0  0  0  0  0
   -1.0580   11.9650   -2.1460 C   0  0  0  0  0  0  0  0  0  0  0  0
   -0.2600   11.0940   -1.1710 C   0  0  2  0  0  0  0  0  0  0  0  0
    0.3800    9.9220   -1.9890 C   0  0  0  0  0  0  0  0  0  0  0  0
   -0.6772    7.6021   -0.8366 H   0  0  0  0  0  0  0  0  0  0  0  0
   -2.0390    7.9222   -1.9634 H   0  0  0  0  0  0  0  0  0  0  0  0
   -0.6012    8.9990   -1.9634 H   0  0  0  0  0  0  0  0  0  0  0  0
   -2.0520    8.6715    0.6326 H   0  0  0  0  0  0  0  0  0  0  0  0
   -3.5928   10.6437   -0.1384 H   0  0  0  0  0  0  0  0  0  0  0  0
   -3.2868    9.9357   -1.7960 H   0  0  0  0  0  0  0  0  0  0  0  0
   -4.0296    7.8956    0.1507 H   0  0  0  0  0  0  0  0  0  0  0  0
   -5.2863    9.1919   -0.0179 H   0  0  0  0  0  0  0  0  0  0  0  0
   -3.8824    7.7043   -1.9909 H   0  0  0  0  0  0  0  0  0  0  0  0
   -6.7559    7.4874    0.0937 H   0  0  0  0  0  0  0  0  0  0  0  0
   -7.9286    8.3579   -0.9522 H   0  0  0  0  0  0  0  0  0  0  0  0
   -7.8858    6.5621   -0.9522 H   0  0  0  0  0  0  0  0  0  0  0  0
   -6.6741    5.5177   -2.6627 H   0  0  0  0  0  0  0  0  0  0  0  0
   -7.3249    6.8238   -3.7103 H   0  0  0  0  0  0  0  0  0  0  0  0
   -5.5647    6.4657   -3.7103 H   0  0  0  0  0  0  0  0  0  0  0  0
   -1.8116   11.1888    0.3665 H   0  0  0  0  0  0  0  0  0  0  0  0
   -0.2531   10.4497    2.0558 H   0  0  0  0  0  0  0  0  0  0  0  0
    0.3057    9.0912    1.0561 H   0  0  0  0  0  0  0  0  0  0  0  0
    1.7336   11.5271    1.4961 H   0  0  0  0  0  0  0  0  0  0  0  0
    2.1186   10.3732    0.2219 H   0  0  0  0  0  0  0  0  0  0  0  0
    0.2520   12.9313    1.5025 H   0  0  0  0  0  0  0  0  0  0  0  0
    0.6223   14.1055    0.1945 H   0  0  0  0  0  0  0  0  0  0  0  0
   -0.9435   13.2254    0.1945 H   0  0  0  0  0  0  0  0  0  0  0  0
    2.2674   11.6444   -1.8349 H   0  0  0  0  0  0  0  0  0  0  0  0
    3.1612   12.9790    0.1793 H   0  0  0  0  0  0  0  0  0  0  0  0
    3.8144   13.2643   -1.5182 H   0  0  0  0  0  0  0  0  0  0  0  0
    3.3958   15.4130   -0.0533 H   0  0  0  0  0  0  0  0  0  0  0  0
   -0.1635   14.7476   -1.8388 H   0  0  0  0  0  0  0  0  0  0  0  0
    1.6584   15.7477   -4.1142 H   0  0  0  0  0  0  0  0  0  0  0  0
   -0.0877   15.2552   -4.2499 H   0  0  0  0  0  0  0  0  0  0  0  0
    0.1925   17.7142   -4.2277 H   0  0  0  0  0  0  0  0  0  0  0  0
   -0.7509   17.0987   -2.8147 H   0  0  0  0  0  0  0  0  0  0  0  0
    0.7810   18.7779   -2.0460 H   0  0  0  0  0  0  0  0  0  0  0  0
    2.3160   17.8570   -3.9570 H   0  0  0  0  0  0  0  0  0  0  0  0
    0.4358   17.0631    0.9122 H   0  0  0  0  0  0  0  0  0  0  0  0
   -0.3909   18.0037   -0.3756 H   0  0  0  0  0  0  0  0  0  0  0  0
   -0.4805   16.2096   -0.3756 H   0  0  0  0  0  0  0  0  0  0  0  0
    2.3570   17.6041    0.8675 H   0  0  0  0  0  0  0  0  0  0  0  0
    3.5282   17.2900   -0.4577 H   0  0  0  0  0  0  0  0  0  0  0  0
    2.5557   18.8003   -0.4577 H   0  0  0  0  0  0  0  0  0  0  0  0
    3.2199   13.1987   -3.4075 H   0  0  0  0  0  0  0  0  0  0  0  0
    2.0144   12.3695   -4.4496 H   0  0  0  0  0  0  0  0  0  0  0  0
    2.1193   14.1628   -4.4496 H   0  0  0  0  0  0  0  0  0  0  0  0
   -0.7218   13.3409   -3.7600 H   0  0  0  0  0  0  0  0  0  0  0  0
    0.2351   11.7545   -3.8062 H   0  0  0  0  0  0  0  0  0  0  0  0
   -1.5627   12.7648   -1.5841 H   0  0  0  0  0  0  0  0  0  0  0  0
   -1.7960   11.3315   -2.6597 H   0  0  0  0  0  0  0  0  0  0  0  0
    0.7895    9.1721   -1.2962 H   0  0  0  0  0  0  0  0  0  0  0  0
   -0.3882    9.4549   -2.6227 H   0  0  0  0  0  0  0  0  0  0  0  0
    1.1883   10.3158   -2.6227 H   0  0  0  0  0  0  0  0  0  0  0  0
  1  2  1  0
  2  3  1  0
  3  4  1  0
  4  5  1  0
  5  6  1  0
  6  7  1  0
  7  8  1  0
  7  9  1  0
  2 10  1  0
 10 11  1  0
 11 12  1  0
 12 13  1  0
 13 14  1  1
 13 15  1  0
 15 16  1  0
 16 17  1  0
 17 18  2  0
 18 19  1  0
 19 20  1  0
 20 21  1  0
 21 22  1  0
 22 23  1  0
 22 24  1  0
 24 25  1  0
 24 26  1  0
 19 27  1  0
 27 28  1  6
 27 29  1  0
 29 30  1  0
 30 31  1  0
 31 32  1  6
  7  5  1  0
 31 10  1  0
 31 13  1  0
 27 15  1  0
 24 18  1  0
  1 33  1  0
  1 34  1  0
  1 35  1  0
  2 36  1  1
  3 37  1  0
  3 38  1  0
  4 39  1  0
  4 40  1  0
  5 41  1  6
  8 42  1  0
  8 43  1  0
  8 44  1  0
  9 45  1  0
  9 46  1  0
  9 47  1  0
 10 48  1  1
 11 49  1  0
 11 50  1  0
 12 51  1  0
 12 52  1  0
 14 53  1  0
 14 54  1  0
 14 55  1  0
 15 56  1  6
 16 57  1  0
 16 58  1  0
 17 59  1  0
 19 60  1  1
 20 61  1  0
 20 62  1  0
 21 63  1  0
 21 64  1  0
 22 65  1  1
 23 66  1  0
 25 67  1  0
 25 68  1  0
 25 69  1  0
 26 70  1  0
 26 71  1  0
 26 72  1  0
 28 73  1  0
 28 74  1  0
 28 75  1  0
 29 76  1  0
 29 77  1  0
 30 78  1  0
 30 79  1  0
 32 80  1  0
 32 81  1  0
 32 82  1  0
M  END
>  <meeko>  (1) 
{"is_sidechain": [false], "intermolecular_energy": 2.731, "internal_energy": -0.839}

$$$$
EPH_relaxed_0001_pdb2pqr_Repair_121_r2_0001_out
     RDKit          3D

 82 86  0  0  0  0  0  0  0  0999 V2000
    4.1440   17.5600   -0.0730 C   0  0  0  0  0  0  0  0  0  0  0  0
    2.7320   18.1470   -0.1620 C   0  0  2  0  0  0  0  0  0  0  0  0
    2.4310   19.1130    1.0010 C   0  0  0  0  0  0  0  0  0  0  0  0
    3.6620   19.8690    1.5080 C   0  0  0  0  0  0  0  0  0  0  0  0
    4.1850   19.2830    2.7850 C   0  0  2  0  0  0  0  0  0  0  0  0
    4.9390   20.1930    3.5960 O   0  0  0  0  0  0  0  0  0  0  0  0
    5.6610   19.0700    3.0640 C   0  0  0  0  0  0  0  0  0  0  0  0
    6.7070   19.4380    2.0590 C   0  0  0  0  0  0  0  0  0  0  0  0
    6.0540   18.0620    4.0990 C   0  0  0  0  0  0  0  0  0  0  0  0
    1.7030   17.0230   -0.1860 C   0  0  1  0  0  0  0  0  0  0  0  0
    0.2830   17.5210   -0.5630 C   0  0  0  0  0  0  0  0  0  0  0  0
   -0.3840   16.3890   -1.3860 C   0  0  0  0  0  0  0  0  0  0  0  0
    0.5320   15.1610   -1.1750 C   0  0  1  0  0  0  0  0  0  0  0  0
    0.1080   14.5770    0.2090 C   0  0  0  0  0  0  0  0  0  0  0  0
    0.4980   14.0720   -2.2960 C   0  0  2  0  0  0  0  0  0  0  0  0
   -0.8630   13.3840   -2.4960 C   0  0  0  0  0  0  0  0  0  0  0  0
   -1.0810   12.1510   -1.6820 C   0  0  0  0  0  0  0  0  0  0  0  0
   -0.1210   11.4580   -1.0420 C   0  0  0  0  0  0  0  0  0  0  0  0
    1.3570   11.8440   -1.1820 C   0  0  1  0  0  0  0  0  0  0  0  0
    2.2020   10.5720   -1.4500 C   0  0  0  0  0  0  0  0  0  0  0  0
    1.9790    9.4890   -0.3990 C   0  0  0  0  0  0  0  0  0  0  0  0
    0.5070    9.0900   -0.3300 C   0  0  2  0  0  0  0  0  0  0  0  0
    0.1470    8.4450   -1.5560 O   0  0  0  0  0  0  0  0  0  0  0  0
   -0.4420   10.2930   -0.0730 C   0  0  0  0  0  0  0  0  0  0  0  0
   -0.2570   10.8020    1.3780 C   0  0  0  0  0  0  0  0  0  0  0  0
   -1.9030    9.7760   -0.1680 C   0  0  0  0  0  0  0  0  0  0  0  0
    1.6730   13.0150   -2.2090 C   0  0  1  0  0  0  0  0  0  0  0  0
    1.8520   12.4300   -3.6430 C   0  0  0  0  0  0  0  0  0  0  0  0
    3.0480   13.6790   -1.8250 C   0  0  0  0  0  0  0  0  0  0  0  0
    3.0020   14.8290   -0.8020 C   0  0  0  0  0  0  0  0  0  0  0  0
    1.9390   15.8630   -1.1860 C   0  0  2  0  0  0  0  0  0  0  0  0
    2.3510   16.4840   -2.5640 C   0  0  0  0  0  0  0  0  0  0  0  0
    4.4264   17.4426    0.9836 H   0  0  0  0  0  0  0  0  0  0  0  0
    4.1651   16.5786   -0.5694 H   0  0  0  0  0  0  0  0  0  0  0  0
    4.8546   18.2373   -0.5694 H   0  0  0  0  0  0  0  0  0  0  0  0
    2.6718   18.7258   -1.0955 H   0  0  0  0  0  0  0  0  0  0  0  0
    1.6887   19.8487    0.6580 H   0  0  0  0  0  0  0  0  0  0  0  0
    2.0615   18.5026    1.8382 H   0  0  0  0  0  0  0  0  0  0  0  0
    4.4511   19.8190    0.7433 H   0  0  0  0  0  0  0  0  0  0  0  0
    3.3683   20.9109    1.7036 H   0  0  0  0  0  0  0  0  0  0  0  0
    3.3155   18.6136    2.8622 H   0  0  0  0  0  0  0  0  0  0  0  0
    7.6203   19.7593    2.5812 H   0  0  0  0  0  0  0  0  0  0  0  0
    6.9329   18.5654    1.4285 H   0  0  0  0  0  0  0  0  0  0  0  0
    6.3367   20.2598    1.4285 H   0  0  0  0  0  0  0  0  0  0  0  0
    5.8898   18.4831    5.1019 H   0  0  0  0  0  0  0  0  0  0  0  0
    5.4437   17.1549    3.9778 H   0  0  0  0  0  0  0  0  0  0  0  0
    7.1172   17.8074    3.9778 H   0  0  0  0  0  0  0  0  0  0  0  0
    1.8069   16.6565    0.8459 H   0  0  0  0  0  0  0  0  0  0  0  0
   -0.3016   17.7229    0.3467 H   0  0  0  0  0  0  0  0  0  0  0  0
    0.3328   18.4543   -1.1430 H   0  0  0  0  0  0  0  0  0  0  0  0
   -1.3989   16.1848   -1.0141 H   0  0  0  0  0  0  0  0  0  0  0  0
   -0.4896   16.6527   -2.4487 H   0  0  0  0  0  0  0  0  0  0  0  0
    0.5487   15.1839    1.0136 H   0  0  0  0  0  0  0  0  0  0  0  0
   -0.9885   14.5954    0.2944 H   0  0  0  0  0  0  0  0  0  0  0  0
    0.4651   13.5401    0.2944 H   0  0  0  0  0  0  0  0  0  0  0  0
    0.6693   14.6653   -3.2063 H   0  0  0  0  0  0  0  0  0  0  0  0
   -1.6505   14.1066   -2.2357 H   0  0  0  0  0  0  0  0  0  0  0  0
   -0.8895   13.0626   -3.5477 H   0  0  0  0  0  0  0  0  0  0  0  0
   -2.1125   11.7780   -1.5985 H   0  0  0  0  0  0  0  0  0  0  0  0
    1.6478   12.2878   -0.2185 H   0  0  0  0  0  0  0  0  0  0  0  0
    1.9283   10.1682   -2.4359 H   0  0  0  0  0  0  0  0  0  0  0  0
    3.2625   10.8615   -1.4111 H   0  0  0  0  0  0  0  0  0  0  0  0
    2.5796    8.6052   -0.6599 H   0  0  0  0  0  0  0  0  0  0  0  0
    2.2818    9.8842    0.5819 H   0  0  0  0  0  0  0  0  0  0  0  0
    0.3886    8.4097    0.5262 H   0  0  0  0  0  0  0  0  0  0  0  0
   -0.7520    8.0910   -1.4490 H   0  0  0  0  0  0  0  0  0  0  0  0
   -0.5451   10.0093    2.0842 H   0  0  0  0  0  0  0  0  0  0  0  0
    0.7969   11.0723    1.5402 H   0  0  0  0  0  0  0  0  0  0  0  0
   -0.8914   11.6859    1.5402 H   0  0  0  0  0  0  0  0  0  0  0  0
   -2.3078    9.6327    0.8447 H   0  0  0  0  0  0  0  0  0  0  0  0
   -2.5177   10.5112   -0.7080 H   0  0  0  0  0  0  0  0  0  0  0  0
   -1.9185    8.8178   -0.7080 H   0  0  0  0  0  0  0  0  0  0  0  0
    2.1732   11.3803   -3.5733 H   0  0  0  0  0  0  0  0  0  0  0  0
    0.8957   12.4857   -4.1837 H   0  0  0  0  0  0  0  0  0  0  0  0
    2.6134   13.0113   -4.1837 H   0  0  0  0  0  0  0  0  0  0  0  0
    3.6940   12.8909   -1.4109 H   0  0  0  0  0  0  0  0  0  0  0  0
    3.4167   14.1359   -2.7552 H   0  0  0  0  0  0  0  0  0  0  0  0
    2.7628   14.4186    0.1901 H   0  0  0  0  0  0  0  0  0  0  0  0
    3.9839   15.3246   -0.7874 H   0  0  0  0  0  0  0  0  0  0  0  0
    2.9517   17.3895   -2.3932 H   0  0  0  0  0  0  0  0  0  0  0  0
    2.9437   15.7527   -3.1332 H   0  0  0  0  0  0  0  0  0  0  0  0
    1.4469   16.7458   -3.1332 H   0  0  0  0  0  0  0  0  0  0  0  0
  1  2  1  0
  2  3  1  0
  3  4  1  0
  4  5  1  0
  5  6  1  0
  6  7  1  0
  7  8  1  0
  7  9  1  0
  2 10  1  0
 10 11  1  0
 11 12  1  0
 12 13  1  0
 13 14  1  1
 13 15  1  0
 15 16  1  0
 16 17  1  0
 17 18  2  0
 18 19  1  0
 19 20  1  0
 20 21  1  0
 21 22  1  0
 22 23  1  0
 22 24  1  0
 24 25  1  0
 24 26  1  0
 19 27  1  0
 27 28  1  6
 27 29  1  0
 29 30  1  0
 30 31  1  0
 31 32  1  6
  7  5  1  0
 31 10  1  0
 31 13  1  0
 27 15  1  0
 24 18  1  0
  1 33  1  0
  1 34  1  0
  1 35  1  0
  2 36  1  6
  3 37  1  0
  3 38  1  0
  4 39  1  0
  4 40  1  0
  5 41  1  1
  8 42  1  0
  8 43  1  0
  8 44  1  0
  9 45  1  0
  9 46  1  0
  9 47  1  0
 10 48  1  1
 11 49  1  0
 11 50  1  0
 12 51  1  0
 12 52  1  0
 14 53  1  0
 14 54  1  0
 14 55  1  0
 15 56  1  6
 16 57  1  0
 16 58  1  0
 17 59  1  0
 19 60  1  1
 20 61  1  0
 20 62  1  0
 21 63  1  0
 21 64  1  0
 22 65  1  1
 23 66  1  0
 25 67  1  0
 25 68  1  0
 25 69  1  0
 26 70  1  0
 26 71  1  0
 26 72  1  0
 28 73  1  0
 28 74  1  0
 28 75  1  0
 29 76  1  0
 29 77  1  0
 30 78  1  0
 30 79  1  0
 32 80  1  0
 32 81  1  0
 32 82  1  0
M  END
>  <meeko>  (2) 
{"is_sidechain": [false], "intermolecular_energy": 2.731, "internal_energy": -0.839}

$$$$
EPH_relaxed_0001_pdb2pqr_Repair_121_r2_0001_out
     RDKit          3D

 82 86  0  0  0  0  0  0  0  0999 V2000
    2.0510   18.0230   -2.5920 C   0  0  0  0  0  0  0  0  0  0  0  0
    0.5350   17.8310   -2.6820 C   0  0  2  0  0  0  0  0  0  0  0  0
   -0.1890   18.3190   -1.4110 C   0  0  0  0  0  0  0  0  0  0  0  0
    0.5300   17.9470   -0.1120 C   0  0  0  0  0  0  0  0  0  0  0  0
    1.1670   19.1420    0.5310 C   0  0  2  0  0  0  0  0  0  0  0  0
    2.0920   19.8500   -0.3040 O   0  0  0  0  0  0  0  0  0  0  0  0
    2.6450   19.2240    0.8650 C   0  0  0  0  0  0  0  0  0  0  0  0
    3.5760   18.0910    0.5660 C   0  0  0  0  0  0  0  0  0  0  0  0
    3.0880   20.1940    1.9150 C   0  0  0  0  0  0  0  0  0  0  0  0
    0.2110   16.3630   -2.9340 C   0  0  1  0  0  0  0  0  0  0  0  0
    0.2660   15.9890   -4.4390 C   0  0  0  0  0  0  0  0  0  0  0  0
    0.8030   14.5370   -4.5200 C   0  0  0  0  0  0  0  0  0  0  0  0
    0.7250   14.0110   -3.0680 C   0  0  1  0  0  0  0  0  0  0  0  0
   -0.7640   13.5830   -2.8760 C   0  0  0  0  0  0  0  0  0  0  0  0
    1.7100   12.8540   -2.6980 C   0  0  2  0  0  0  0  0  0  0  0  0
    1.5100   11.5490   -3.4890 C   0  0  0  0  0  0  0  0  0  0  0  0
    0.5700   10.5680   -2.8720 C   0  0  0  0  0  0  0  0  0  0  0  0
    0.1320   10.5970   -1.5990 C   0  0  0  0  0  0  0  0  0  0  0  0
    0.6640   11.6400   -0.6070 C   0  0  1  0  0  0  0  0  0  0  0  0
    1.0280   10.9440    0.7300 C   0  0  0  0  0  0  0  0  0  0  0  0
   -0.1310   10.1330    1.3020 C   0  0  0  0  0  0  0  0  0  0  0  0
   -0.5930    9.0680    0.3100 C   0  0  2  0  0  0  0  0  0  0  0  0
    0.4490    8.1000    0.1540 O   0  0  0  0  0  0  0  0  0  0  0  0
   -0.9780    9.6510   -1.0790 C   0  0  0  0  0  0  0  0  0  0  0  0
   -2.2910   10.4630   -0.9570 C   0  0  0  0  0  0  0  0  0  0  0  0
   -1.2890    8.4610   -2.0260 C   0  0  0  0  0  0  0  0  0  0  0  0
    1.8300   12.5770   -1.1450 C   0  0  1  0  0  0  0  0  0  0  0  0
    3.2110   11.8890   -0.9210 C   0  0  0  0  0  0  0  0  0  0  0  0
    1.8530   13.9050   -0.3000 C   0  0  0  0  0  0  0  0  0  0  0  0
    0.9470   15.0530   -0.7850 C   0  0  0  0  0  0  0  0  0  0  0  0
    1.1400   15.3080   -2.2830 C   0  0  2  0  0  0  0  0  0  0  0  0
    2.6240   15.7610   -2.5040 C   0  0  0  0  0  0  0  0  0  0  0  0
    2.3536   18.0613   -1.5351 H   0  0  0  0  0  0  0  0  0  0  0  0
    2.5572   17.1818   -3.0881 H   0  0  0  0  0  0  0  0  0  0  0  0
    2.3315   18.9638   -3.0881 H   0  0  0  0  0  0  0  0  0  0  0  0
    0.1739   18.4415   -3.5228 H   0  0  0  0  0  0  0  0  0  0  0  0
   -0.2745   19.4146   -1.4591 H   0  0  0  0  0  0  0  0  0  0  0  0
   -1.1700   17.8219   -1.3890 H   0  0  0  0  0  0  0  0  0  0  0  0
   -0.1994   17.5124    0.5873 H   0  0  0  0  0  0  0  0  0  0  0  0
    1.3232   17.2243   -0.3540 H   0  0  0  0  0  0  0  0  0  0  0  0
    0.2636   19.3304    1.1296 H   0  0  0  0  0  0  0  0  0  0  0  0
    3.9356   17.6533    1.5089 H   0  0  0  0  0  0  0  0  0  0  0  0
    3.0444   17.3233   -0.0153 H   0  0  0  0  0  0  0  0  0  0  0  0
    4.4322   18.4637   -0.0153 H   0  0  0  0  0  0  0  0  0  0  0  0
    2.8943   19.7698    2.9112 H   0  0  0  0  0  0  0  0  0  0  0  0
    4.1647   20.3895    1.8028 H   0  0  0  0  0  0  0  0  0  0  0  0
    2.5307   21.1357    1.8028 H   0  0  0  0  0  0  0  0  0  0  0  0
   -0.7899   16.3146   -2.4802 H   0  0  0  0  0  0  0  0  0  0  0  0
   -0.7399   16.0460   -4.8804 H   0  0  0  0  0  0  0  0  0  0  0  0
    0.9153   16.6817   -4.9945 H   0  0  0  0  0  0  0  0  0  0  0  0
    0.1763   13.9278   -5.1879 H   0  0  0  0  0  0  0  0  0  0  0  0
    1.8244   14.4919   -4.9258 H   0  0  0  0  0  0  0  0  0  0  0  0
   -0.9911   13.5177   -1.8017 H   0  0  0  0  0  0  0  0  0  0  0  0
   -1.4231   14.3281   -3.3455 H   0  0  0  0  0  0  0  0  0  0  0  0
   -0.9269   12.6017   -3.3455 H   0  0  0  0  0  0  0  0  0  0  0  0
    2.6801   13.2557   -3.0258 H   0  0  0  0  0  0  0  0  0  0  0  0
    1.1228   11.8109   -4.4847 H   0  0  0  0  0  0  0  0  0  0  0  0
    2.4924   11.0548   -3.5146 H   0  0  0  0  0  0  0  0  0  0  0  0
    0.2036    9.7515   -3.5116 H   0  0  0  0  0  0  0  0  0  0  0  0
   -0.1579   12.3528   -0.4448 H   0  0  0  0  0  0  0  0  0  0  0  0
    1.8787   10.2688    0.5558 H   0  0  0  0  0  0  0  0  0  0  0  0
    1.2772   11.7297    1.4584 H   0  0  0  0  0  0  0  0  0  0  0  0
    0.1964    9.6424    2.2305 H   0  0  0  0  0  0  0  0  0  0  0  0
   -0.9711   10.8141    1.5028 H   0  0  0  0  0  0  0  0  0  0  0  0
   -1.5039    8.6076    0.7203 H   0  0  0  0  0  0  0  0  0  0  0  0
    0.1130    7.2510    0.4880 H   0  0  0  0  0  0  0  0  0  0  0  0
   -2.5324   10.6123    0.1058 H   0  0  0  0  0  0  0  0  0  0  0  0
   -2.1642   11.4406   -1.4450 H   0  0  0  0  0  0  0  0  0  0  0  0
   -3.1090    9.9129   -1.4450 H   0  0  0  0  0  0  0  0  0  0  0  0
   -1.5224    7.5678   -1.4279 H   0  0  0  0  0  0  0  0  0  0  0  0
   -2.1514    8.7131   -2.6606 H   0  0  0  0  0  0  0  0  0  0  0  0
   -0.4135    8.2589   -2.6606 H   0  0  0  0  0  0  0  0  0  0  0  0
    3.4024   11.7936    0.1580 H   0  0  0  0  0  0  0  0  0  0  0  0
    3.2020   10.8901   -1.3815 H   0  0  0  0  0  0  0  0  0  0  0  0
    4.0030   12.4979   -1.3815 H   0  0  0  0  0  0  0  0  0  0  0  0
    1.5486   13.6517    0.7262 H   0  0  0  0  0  0  0  0  0  0  0  0
    2.8795   14.2888   -0.3950 H   0  0  0  0  0  0  0  0  0  0  0  0
   -0.1036   14.7860   -0.5978 H   0  0  0  0  0  0  0  0  0  0  0  0
    1.2154   15.9676   -0.2360 H   0  0  0  0  0  0  0  0  0  0  0  0
    3.1111   15.9097   -1.5290 H   0  0  0  0  0  0  0  0  0  0  0  0
    3.1635   14.9866   -3.0691 H   0  0  0  0  0  0  0  0  0  0  0  0
    2.6390   16.7046   -3.0691 H   0  0  0  0  0  0  0  0  0  0  0  0
  1  2  1  0
  2  3  1  0
  3  4  1  0
  4  5  1  0
  5  6  1  0
  6  7  1  0
  7  8  1  0
  7  9  1  0
  2 10  1  0
 10 11  1  0
 11 12  1  0
 12 13  1  0
 13 14  1  1
 13 15  1  0
 15 16  1  0
 16 17  1  0
 17 18  2  0
 18 19  1  0
 19 20  1  0
 20 21  1  0
 21 22  1  0
 22 23  1  0
 22 24  1  0
 24 25  1  0
 24 26  1  0
 19 27  1  0
 27 28  1  6
 27 29  1  0
 29 30  1  0
 30 31  1  0
 31 32  1  1
  7  5  1  0
 31 10  1  0
 31 13  1  0
 27 15  1  0
 24 18  1  0
  1 33  1  0
  1 34  1  0
  1 35  1  0
  2 36  1  6
  3 37  1  0
  3 38  1  0
  4 39  1  0
  4 40  1  0
  5 41  1  1
  8 42  1  0
  8 43  1  0
  8 44  1  0
  9 45  1  0
  9 46  1  0
  9 47  1  0
 10 48  1  1
 11 49  1  0
 11 50  1  0
 12 51  1  0
 12 52  1  0
 14 53  1  0
 14 54  1  0
 14 55  1  0
 15 56  1  6
 16 57  1  0
 16 58  1  0
 17 59  1  0
 19 60  1  1
 20 61  1  0
 20 62  1  0
 21 63  1  0
 21 64  1  0
 22 65  1  1
 23 66  1  0
 25 67  1  0
 25 68  1  0
 25 69  1  0
 26 70  1  0
 26 71  1  0
 26 72  1  0
 28 73  1  0
 28 74  1  0
 28 75  1  0
 29 76  1  0
 29 77  1  0
 30 78  1  0
 30 79  1  0
 32 80  1  0
 32 81  1  0
 32 82  1  0
M  END
>  <meeko>  (3) 
{"is_sidechain": [false], "intermolecular_energy": 2.731, "internal_energy": -0.839}

$$$$
EPH_relaxed_0001_pdb2pqr_Repair_121_r2_0001_out
     RDKit          3D

 82 86  0  0  0  0  0  0  0  0999 V2000
    2.2170   18.0360   -2.8800 C   0  0  0  0  0  0  0  0  0  0  0  0
    0.9800   17.5970   -2.0920 C   0  0  2  0  0  0  0  0  0  0  0  0
    1.1980   17.6920   -0.5690 C   0  0  0  0  0  0  0  0  0  0  0  0
    0.8760   19.0710    0.0140 C   0  0  0  0  0  0  0  0  0  0  0  0
   -0.5470   19.1570    0.4780 C   0  0  2  0  0  0  0  0  0  0  0  0
   -1.4540   18.2820   -0.2050 O   0  0  0  0  0  0  0  0  0  0  0  0
   -1.6770   19.6900   -0.3830 C   0  0  0  0  0  0  0  0  0  0  0  0
   -1.4330   20.1720   -1.7790 C   0  0  0  0  0  0  0  0  0  0  0  0
   -2.9140   20.1940    0.2910 C   0  0  0  0  0  0  0  0  0  0  0  0
    0.5980   16.1720   -2.4750 C   0  0  1  0  0  0  0  0  0  0  0  0
    0.7530   15.9010   -3.9950 C   0  0  0  0  0  0  0  0  0  0  0  0
    1.2140   14.4280   -4.1420 C   0  0  0  0  0  0  0  0  0  0  0  0
    0.9910   13.8080   -2.7430 C   0  0  1  0  0  0  0  0  0  0  0  0
   -0.5300   13.4590   -2.6970 C   0  0  0  0  0  0  0  0  0  0  0  0
    1.8780   12.5720   -2.3850 C   0  0  2  0  0  0  0  0  0  0  0  0
    1.6710   11.3390   -3.2820 C   0  0  0  0  0  0  0  0  0  0  0  0
    0.6320   10.3750   -2.8130 C   0  0  0  0  0  0  0  0  0  0  0  0
    0.0950   10.3440   -1.5790 C   0  0  0  0  0  0  0  0  0  0  0  0
    0.6020   11.2810   -0.4750 C   0  0  1  0  0  0  0  0  0  0  0  0
    0.8180   10.4730    0.8320 C   0  0  0  0  0  0  0  0  0  0  0  0
   -0.4260    9.6960    1.2520 C   0  0  0  0  0  0  0  0  0  0  0  0
   -0.8640    8.7330    0.1520 C   0  0  2  0  0  0  0  0  0  0  0  0
    0.1320    7.7170    0.0050 O   0  0  0  0  0  0  0  0  0  0  0  0
   -1.1030    9.4320   -1.2160 C   0  0  0  0  0  0  0  0  0  0  0  0
   -2.3760   10.3120   -1.1350 C   0  0  0  0  0  0  0  0  0  0  0  0
   -1.4020    8.3320   -2.2690 C   0  0  0  0  0  0  0  0  0  0  0  0
    1.8570   12.1810   -0.8510 C   0  0  1  0  0  0  0  0  0  0  0  0
    3.1760   11.3970   -0.5740 C   0  0  0  0  0  0  0  0  0  0  0  0
    1.8850   13.4430    0.0880 C   0  0  0  0  0  0  0  0  0  0  0  0
    1.0850   14.6750   -0.3790 C   0  0  0  0  0  0  0  0  0  0  0  0
    1.4120   15.0210   -1.8350 C   0  0  2  0  0  0  0  0  0  0  0  0
    2.9310   15.3980   -1.9080 C   0  0  0  0  0  0  0  0  0  0  0  0
    3.0163   18.3197   -2.1796 H   0  0  0  0  0  0  0  0  0  0  0  0
    2.5621   17.2055   -3.5133 H   0  0  0  0  0  0  0  0  0  0  0  0
    1.9613   18.8983   -3.5133 H   0  0  0  0  0  0  0  0  0  0  0  0
    0.1613   18.2841   -2.3521 H   0  0  0  0  0  0  0  0  0  0  0  0
    0.5526   16.9483   -0.0787 H   0  0  0  0  0  0  0  0  0  0  0  0
    2.2665   17.5066   -0.3850 H   0  0  0  0  0  0  0  0  0  0  0  0
    1.5420   19.2614    0.8686 H   0  0  0  0  0  0  0  0  0  0  0  0
    1.0255   19.8214   -0.7763 H   0  0  0  0  0  0  0  0  0  0  0  0
   -0.2231   19.3964    1.5016 H   0  0  0  0  0  0  0  0  0  0  0  0
   -0.9364   21.1530   -1.7467 H   0  0  0  0  0  0  0  0  0  0  0  0
   -0.7903   19.4530   -2.3081 H   0  0  0  0  0  0  0  0  0  0  0  0
   -2.3930   20.2643   -2.3081 H   0  0  0  0  0  0  0  0  0  0  0  0
   -2.7845   20.1412    1.3821 H   0  0  0  0  0  0  0  0  0  0  0  0
   -3.0946   21.2374   -0.0068 H   0  0  0  0  0  0  0  0  0  0  0  0
   -3.7724   19.5739   -0.0068 H   0  0  0  0  0  0  0  0  0  0  0  0
   -0.4370   16.1521   -2.1031 H   0  0  0  0  0  0  0  0  0  0  0  0
   -0.2095   16.0495   -4.5063 H   0  0  0  0  0  0  0  0  0  0  0  0
    1.4819   16.5899   -4.4467 H   0  0  0  0  0  0  0  0  0  0  0  0
    0.6103   13.9058   -4.8989 H   0  0  0  0  0  0  0  0  0  0  0  0
    2.2607   14.3493   -4.4711 H   0  0  0  0  0  0  0  0  0  0  0  0
   -0.8574   13.3839   -1.6496 H   0  0  0  0  0  0  0  0  0  0  0  0
   -1.1030   14.2490   -3.2045 H   0  0  0  0  0  0  0  0  0  0  0  0
   -0.7013   12.4982   -3.2045 H   0  0  0  0  0  0  0  0  0  0  0  0
    2.8916   12.9368   -2.6074 H   0  0  0  0  0  0  0  0  0  0  0  0
    1.3801   11.6918   -4.2825 H   0  0  0  0  0  0  0  0  0  0  0  0
    2.6238   10.7895   -3.2677 H   0  0  0  0  0  0  0  0  0  0  0  0
    0.2753    9.6272   -3.5366 H   0  0  0  0  0  0  0  0  0  0  0  0
   -0.1901   12.0293   -0.3243 H   0  0  0  0  0  0  0  0  0  0  0  0
    1.6418    9.7613    0.6744 H   0  0  0  0  0  0  0  0  0  0  0  0
    1.0501   11.1900    1.6332 H   0  0  0  0  0  0  0  0  0  0  0  0
   -0.2020    9.1231    2.1639 H   0  0  0  0  0  0  0  0  0  0  0  0
   -1.2409   10.4112    1.4379 H   0  0  0  0  0  0  0  0  0  0  0  0
   -1.8292    8.3022    0.4567 H   0  0  0  0  0  0  0  0  0  0  0  0
   -0.1330    7.1500   -0.7400 H   0  0  0  0  0  0  0  0  0  0  0  0
   -2.6326   10.4894   -0.0802 H   0  0  0  0  0  0  0  0  0  0  0  0
   -2.1888   11.2744   -1.6337 H   0  0  0  0  0  0  0  0  0  0  0  0
   -3.2102    9.7968   -1.6337 H   0  0  0  0  0  0  0  0  0  0  0  0
   -1.6572    7.3930   -1.7560 H   0  0  0  0  0  0  0  0  0  0  0  0
   -2.2471    8.6472   -2.8987 H   0  0  0  0  0  0  0  0  0  0  0  0
   -0.5137    8.1760   -2.8987 H   0  0  0  0  0  0  0  0  0  0  0  0
    3.3278   11.3068    0.5117 H   0  0  0  0  0  0  0  0  0  0  0  0
    3.1065   10.3935   -1.0192 H   0  0  0  0  0  0  0  0  0  0  0  0
    4.0243   11.9376   -1.0192 H   0  0  0  0  0  0  0  0  0  0  0  0
    1.4857   13.1384    1.0667 H   0  0  0  0  0  0  0  0  0  0  0  0
    2.9353   13.7696    0.0998 H   0  0  0  0  0  0  0  0  0  0  0  0
    0.0097   14.4596   -0.2930 H   0  0  0  0  0  0  0  0  0  0  0  0
    1.3579   15.5315    0.2550 H   0  0  0  0  0  0  0  0  0  0  0  0
    3.3334   15.4979   -0.8891 H   0  0  0  0  0  0  0  0  0  0  0  0
    3.4794   14.6087   -2.4431 H   0  0  0  0  0  0  0  0  0  0  0  0
    3.0467   16.3521   -2.4431 H   0  0  0  0  0  0  0  0  0  0  0  0
  1  2  1  0
  2  3  1  0
  3  4  1  0
  4  5  1  0
  5  6  1  0
  6  7  1  0
  7  8  1  0
  7  9  1  0
  2 10  1  0
 10 11  1  0
 11 12  1  0
 12 13  1  0
 13 14  1  6
 13 15  1  0
 15 16  1  0
 16 17  1  0
 17 18  2  0
 18 19  1  0
 19 20  1  0
 20 21  1  0
 21 22  1  0
 22 23  1  0
 22 24  1  0
 24 25  1  0
 24 26  1  0
 19 27  1  0
 27 28  1  1
 27 29  1  0
 29 30  1  0
 30 31  1  0
 31 32  1  1
  7  5  1  0
 31 10  1  0
 31 13  1  0
 27 15  1  0
 24 18  1  0
  1 33  1  0
  1 34  1  0
  1 35  1  0
  2 36  1  6
  3 37  1  0
  3 38  1  0
  4 39  1  0
  4 40  1  0
  5 41  1  1
  8 42  1  0
  8 43  1  0
  8 44  1  0
  9 45  1  0
  9 46  1  0
  9 47  1  0
 10 48  1  1
 11 49  1  0
 11 50  1  0
 12 51  1  0
 12 52  1  0
 14 53  1  0
 14 54  1  0
 14 55  1  0
 15 56  1  6
 16 57  1  0
 16 58  1  0
 17 59  1  0
 19 60  1  1
 20 61  1  0
 20 62  1  0
 21 63  1  0
 21 64  1  0
 22 65  1  1
 23 66  1  0
 25 67  1  0
 25 68  1  0
 25 69  1  0
 26 70  1  0
 26 71  1  0
 26 72  1  0
 28 73  1  0
 28 74  1  0
 28 75  1  0
 29 76  1  0
 29 77  1  0
 30 78  1  0
 30 79  1  0
 32 80  1  0
 32 81  1  0
 32 82  1  0
M  END
>  <meeko>  (4) 
{"is_sidechain": [false], "intermolecular_energy": 2.731, "internal_energy": -0.839}

$$$$
EPH_relaxed_0001_pdb2pqr_Repair_121_r2_0001_out
     RDKit          3D

 82 86  0  0  0  0  0  0  0  0999 V2000
   -5.1300    6.0700   -1.6460 C   0  0  0  0  0  0  0  0  0  0  0  0
   -5.4340    7.5520   -1.8830 C   0  0  2  0  0  0  0  0  0  0  0  0
   -5.1650    8.4090   -0.6300 C   0  0  0  0  0  0  0  0  0  0  0  0
   -4.1060    9.4940   -0.8410 C   0  0  0  0  0  0  0  0  0  0  0  0
   -2.7400    9.0200   -0.4450 C   0  0  2  0  0  0  0  0  0  0  0  0
   -2.1410    9.7540    0.6310 O   0  0  0  0  0  0  0  0  0  0  0  0
   -1.4800    9.8420   -0.6420 C   0  0  0  0  0  0  0  0  0  0  0  0
   -1.5250   11.2050   -1.2580 C   0  0  0  0  0  0  0  0  0  0  0  0
   -0.1630    9.1320   -0.6870 C   0  0  0  0  0  0  0  0  0  0  0  0
   -6.8820    7.7200   -2.3290 C   0  0  1  0  0  0  0  0  0  0  0  0
   -7.1850    6.9910   -3.6650 C   0  0  0  0  0  0  0  0  0  0  0  0
   -8.6410    6.4680   -3.5680 C   0  0  0  0  0  0  0  0  0  0  0  0
   -9.2340    7.1910   -2.3360 C   0  0  1  0  0  0  0  0  0  0  0  0
   -9.6430    8.6040   -2.8580 C   0  0  0  0  0  0  0  0  0  0  0  0
  -10.4250    6.4730   -1.6220 C   0  0  2  0  0  0  0  0  0  0  0  0
  -11.6870    6.2880   -2.4820 C   0  0  0  0  0  0  0  0  0  0  0  0
  -12.6790    7.4010   -2.4060 C   0  0  0  0  0  0  0  0  0  0  0  0
  -12.7020    8.3660   -1.4680 C   0  0  0  0  0  0  0  0  0  0  0  0
  -11.7180    8.3440   -0.2910 C   0  0  1  0  0  0  0  0  0  0  0  0
  -12.4830    8.6190    1.0290 C   0  0  0  0  0  0  0  0  0  0  0  0
  -13.2990    9.9080    0.9750 C   0  0  0  0  0  0  0  0  0  0  0  0
  -14.3060    9.8680   -0.1710 C   0  0  2  0  0  0  0  0  0  0  0  0
  -15.2850    8.8630    0.1100 O   0  0  0  0  0  0  0  0  0  0  0  0
  -13.6510    9.5870   -1.5530 C   0  0  0  0  0  0  0  0  0  0  0  0
  -12.8210   10.8180   -1.9950 C   0  0  0  0  0  0  0  0  0  0  0  0
  -14.7880    9.4320   -2.5980 C   0  0  0  0  0  0  0  0  0  0  0  0
  -10.7790    7.0650   -0.1970 C   0  0  1  0  0  0  0  0  0  0  0  0
  -11.5020    5.9300    0.5900 C   0  0  0  0  0  0  0  0  0  0  0  0
   -9.4930    7.4320    0.6340 C   0  0  0  0  0  0  0  0  0  0  0  0
   -8.3060    8.0270   -0.1480 C   0  0  0  0  0  0  0  0  0  0  0  0
   -7.9840    7.1800   -1.3830 C   0  0  2  0  0  0  0  0  0  0  0  0
   -7.5480    5.7590   -0.8890 C   0  0  0  0  0  0  0  0  0  0  0  0
   -5.0895    5.8724   -0.5647 H   0  0  0  0  0  0  0  0  0  0  0  0
   -5.9209    5.4560   -2.1015 H   0  0  0  0  0  0  0  0  0  0  0  0
   -4.1613    5.8170   -2.1015 H   0  0  0  0  0  0  0  0  0  0  0  0
   -4.7573    7.9059   -2.6747 H   0  0  0  0  0  0  0  0  0  0  0  0
   -6.1060    8.8955   -0.3337 H   0  0  0  0  0  0  0  0  0  0  0  0
   -4.7798    7.7311    0.1459 H   0  0  0  0  0  0  0  0  0  0  0  0
   -4.0912    9.7758   -1.9042 H   0  0  0  0  0  0  0  0  0  0  0  0
   -4.3668   10.3554   -0.2085 H   0  0  0  0  0  0  0  0  0  0  0  0
   -2.9948    7.9844   -0.7145 H   0  0  0  0  0  0  0  0  0  0  0  0
   -1.5501   11.9657   -0.4638 H   0  0  0  0  0  0  0  0  0  0  0  0
   -0.6313   11.3553   -1.8815 H   0  0  0  0  0  0  0  0  0  0  0  0
   -2.4266   11.2960   -1.8815 H   0  0  0  0  0  0  0  0  0  0  0  0
    0.1870    8.9433    0.3386 H   0  0  0  0  0  0  0  0  0  0  0  0
   -0.2803    8.1749   -1.2163 H   0  0  0  0  0  0  0  0  0  0  0  0
    0.5721    9.7561   -1.2163 H   0  0  0  0  0  0  0  0  0  0  0  0
   -6.9333    8.8177   -2.3789 H   0  0  0  0  0  0  0  0  0  0  0  0
   -7.0890    7.6904   -4.5086 H   0  0  0  0  0  0  0  0  0  0  0  0
   -6.4786    6.1648   -3.8335 H   0  0  0  0  0  0  0  0  0  0  0  0
   -9.2063    6.7222   -4.4768 H   0  0  0  0  0  0  0  0  0  0  0  0
   -8.6854    5.3732   -3.4706 H   0  0  0  0  0  0  0  0  0  0  0  0
   -9.8355    9.2691   -2.0032 H   0  0  0  0  0  0  0  0  0  0  0  0
   -8.8281    9.0191   -3.4693 H   0  0  0  0  0  0  0  0  0  0  0  0
  -10.5536    8.5196   -3.4693 H   0  0  0  0  0  0  0  0  0  0  0  0
  -10.0248    5.4616   -1.4579 H   0  0  0  0  0  0  0  0  0  0  0  0
  -11.3716    6.1848   -3.5307 H   0  0  0  0  0  0  0  0  0  0  0  0
  -12.1974    5.3977   -2.0859 H   0  0  0  0  0  0  0  0  0  0  0  0
  -13.4573    7.4354   -3.1826 H   0  0  0  0  0  0  0  0  0  0  0  0
  -10.9987    9.1544   -0.4807 H   0  0  0  0  0  0  0  0  0  0  0  0
  -13.1648    7.7779    1.2232 H   0  0  0  0  0  0  0  0  0  0  0  0
  -11.7375    8.7291    1.8303 H   0  0  0  0  0  0  0  0  0  0  0  0
  -13.8394   10.0321    1.9250 H   0  0  0  0  0  0  0  0  0  0  0  0
  -12.6126   10.7516    0.8101 H   0  0  0  0  0  0  0  0  0  0  0  0
  -14.7674   10.8642   -0.2391 H   0  0  0  0  0  0  0  0  0  0  0  0
  -15.9790    9.2720    0.6540 H   0  0  0  0  0  0  0  0  0  0  0  0
  -12.4591   11.3547   -1.1056 H   0  0  0  0  0  0  0  0  0  0  0  0
  -11.9626   10.4846   -2.5966 H   0  0  0  0  0  0  0  0  0  0  0  0
  -13.4519   11.4888   -2.5966 H   0  0  0  0  0  0  0  0  0  0  0  0
  -15.7485    9.3011   -2.0781 H   0  0  0  0  0  0  0  0  0  0  0  0
  -14.8320   10.3325   -3.2283 H   0  0  0  0  0  0  0  0  0  0  0  0
  -14.5894    8.5526   -3.2283 H   0  0  0  0  0  0  0  0  0  0  0  0
  -11.3908    6.1046    1.6703 H   0  0  0  0  0  0  0  0  0  0  0  0
  -12.5702    5.9248    0.3275 H   0  0  0  0  0  0  0  0  0  0  0  0
  -11.0552    4.9597    0.3275 H   0  0  0  0  0  0  0  0  0  0  0  0
   -9.7890    8.1656    1.3983 H   0  0  0  0  0  0  0  0  0  0  0  0
   -9.1246    6.4747    1.0314 H   0  0  0  0  0  0  0  0  0  0  0  0
   -8.5615    9.0479   -0.4683 H   0  0  0  0  0  0  0  0  0  0  0  0
   -7.4238    8.0393    0.5089 H   0  0  0  0  0  0  0  0  0  0  0  0
   -7.5419    5.7391    0.2108 H   0  0  0  0  0  0  0  0  0  0  0  0
   -8.2566    5.0065   -1.2654 H   0  0  0  0  0  0  0  0  0  0  0  0
   -6.5393    5.5335   -1.2654 H   0  0  0  0  0  0  0  0  0  0  0  0
  1  2  1  0
  2  3  1  0
  3  4  1  0
  4  5  1  0
  5  6  1  0
  6  7  1  0
  7  8  1  0
  7  9  1  0
  2 10  1  0
 10 11  1  0
 11 12  1  0
 12 13  1  0
 13 14  1  6
 13 15  1  0
 15 16  1  0
 16 17  1  0
 17 18  2  0
 18 19  1  0
 19 20  1  0
 20 21  1  0
 21 22  1  0
 22 23  1  0
 22 24  1  0
 24 25  1  0
 24 26  1  0
 19 27  1  0
 27 28  1  1
 27 29  1  0
 29 30  1  0
 30 31  1  0
 31 32  1  1
  7  5  1  0
 31 10  1  0
 31 13  1  0
 27 15  1  0
 24 18  1  0
  1 33  1  0
  1 34  1  0
  1 35  1  0
  2 36  1  6
  3 37  1  0
  3 38  1  0
  4 39  1  0
  4 40  1  0
  5 41  1  1
  8 42  1  0
  8 43  1  0
  8 44  1  0
  9 45  1  0
  9 46  1  0
  9 47  1  0
 10 48  1  6
 11 49  1  0
 11 50  1  0
 12 51  1  0
 12 52  1  0
 14 53  1  0
 14 54  1  0
 14 55  1  0
 15 56  1  1
 16 57  1  0
 16 58  1  0
 17 59  1  0
 19 60  1  6
 20 61  1  0
 20 62  1  0
 21 63  1  0
 21 64  1  0
 22 65  1  6
 23 66  1  0
 25 67  1  0
 25 68  1  0
 25 69  1  0
 26 70  1  0
 26 71  1  0
 26 72  1  0
 28 73  1  0
 28 74  1  0
 28 75  1  0
 29 76  1  0
 29 77  1  0
 30 78  1  0
 30 79  1  0
 32 80  1  0
 32 81  1  0
 32 82  1  0
M  END
>  <meeko>  (5) 
{"is_sidechain": [false], "intermolecular_energy": 2.731, "internal_energy": -0.839}

$$$$
EPH_relaxed_0001_pdb2pqr_Repair_121_r2_0001_out
     RDKit          3D

 82 86  0  0  0  0  0  0  0  0999 V2000
    3.8050   11.1840   -4.5620 C   0  0  0  0  0  0  0  0  0  0  0  0
    2.3220   11.1720   -4.9410 C   0  0  2  0  0  0  0  0  0  0  0  0
    2.1140   11.1840   -6.4690 C   0  0  0  0  0  0  0  0  0  0  0  0
    1.1670   12.2850   -6.9530 C   0  0  0  0  0  0  0  0  0  0  0  0
    1.9080   13.5430   -7.2920 C   0  0  2  0  0  0  0  0  0  0  0  0
    1.1520   14.7490   -7.1200 O   0  0  0  0  0  0  0  0  0  0  0  0
    1.5480   14.4360   -8.4650 C   0  0  0  0  0  0  0  0  0  0  0  0
    0.4060   14.1060   -9.3750 C   0  0  0  0  0  0  0  0  0  0  0  0
    2.5950   15.3540   -9.0140 C   0  0  0  0  0  0  0  0  0  0  0  0
    1.6150   12.3660   -4.3100 C   0  0  1  0  0  0  0  0  0  0  0  0
    0.0760   12.1760   -4.2340 C   0  0  0  0  0  0  0  0  0  0  0  0
   -0.3950   12.8630   -2.9270 C   0  0  0  0  0  0  0  0  0  0  0  0
    0.8200   13.7020   -2.4670 C   0  0  1  0  0  0  0  0  0  0  0  0
    0.7540   15.0060   -3.3240 C   0  0  0  0  0  0  0  0  0  0  0  0
    0.9020   14.0200   -0.9380 C   0  0  2  0  0  0  0  0  0  0  0  0
   -0.2580   14.8650   -0.3840 C   0  0  0  0  0  0  0  0  0  0  0  0
   -0.0420   16.3420   -0.4170 C   0  0  0  0  0  0  0  0  0  0  0  0
    1.1400   16.9560   -0.6040 C   0  0  0  0  0  0  0  0  0  0  0  0
    2.4400   16.1470   -0.7120 C   0  0  1  0  0  0  0  0  0  0  0  0
    3.5300   16.7980    0.1790 C   0  0  0  0  0  0  0  0  0  0  0  0
    3.7360   18.2770   -0.1340 C   0  0  0  0  0  0  0  0  0  0  0  0
    2.4360   19.0570    0.0410 C   0  0  2  0  0  0  0  0  0  0  0  0
    2.0800   19.0540    1.4260 O   0  0  0  0  0  0  0  0  0  0  0  0
    1.2610   18.4870   -0.8020 C   0  0  0  0  0  0  0  0  0  0  0  0
    1.5160   18.7650   -2.3050 C   0  0  0  0  0  0  0  0  0  0  0  0
   -0.0230   19.2760   -0.4270 C   0  0  0  0  0  0  0  0  0  0  0  0
    2.3040   14.5830   -0.4680 C   0  0  1  0  0  0  0  0  0  0  0  0
    2.4210   14.2710    1.0560 C   0  0  0  0  0  0  0  0  0  0  0  0
    3.5090   13.8470   -1.1650 C   0  0  0  0  0  0  0  0  0  0  0  0
    3.3210   13.4530   -2.6430 C   0  0  0  0  0  0  0  0  0  0  0  0
    1.9900   12.7250   -2.8510 C   0  0  2  0  0  0  0  0  0  0  0  0
    2.0360   11.3980   -2.0180 C   0  0  0  0  0  0  0  0  0  0  0  0
    3.9035   11.1848   -3.4664 H   0  0  0  0  0  0  0  0  0  0  0  0
    4.2959   10.2898   -4.9736 H   0  0  0  0  0  0  0  0  0  0  0  0
    4.2814   12.0860   -4.9736 H   0  0  0  0  0  0  0  0  0  0  0  0
    1.8889   10.2372   -4.5557 H   0  0  0  0  0  0  0  0  0  0  0  0
    3.0917   11.3302   -6.9513 H   0  0  0  0  0  0  0  0  0  0  0  0
    1.6527   10.2223   -6.7380 H   0  0  0  0  0  0  0  0  0  0  0  0
    0.6369   11.9308   -7.8494 H   0  0  0  0  0  0  0  0  0  0  0  0
    0.4602   12.5112   -6.1411 H   0  0  0  0  0  0  0  0  0  0  0  0
    2.8601   13.0966   -6.9692 H   0  0  0  0  0  0  0  0  0  0  0  0
   -0.4793   13.8502   -8.7744 H   0  0  0  0  0  0  0  0  0  0  0  0
    0.1798   14.9755  -10.0096 H   0  0  0  0  0  0  0  0  0  0  0  0
    0.6784   13.2498  -10.0096 H   0  0  0  0  0  0  0  0  0  0  0  0
    3.1375   15.8297   -8.1837 H   0  0  0  0  0  0  0  0  0  0  0  0
    3.3006   14.7782   -9.6309 H   0  0  0  0  0  0  0  0  0  0  0  0
    2.1164   16.1288   -9.6309 H   0  0  0  0  0  0  0  0  0  0  0  0
    1.9518   13.1613   -4.9912 H   0  0  0  0  0  0  0  0  0  0  0  0
   -0.4071   12.6450   -5.1039 H   0  0  0  0  0  0  0  0  0  0  0  0
   -0.1910   11.1089   -4.2378 H   0  0  0  0  0  0  0  0  0  0  0  0
   -1.2632   13.5103   -3.1197 H   0  0  0  0  0  0  0  0  0  0  0  0
   -0.7123   12.1361   -2.1648 H   0  0  0  0  0  0  0  0  0  0  0  0
    0.7097   15.8805   -2.6582 H   0  0  0  0  0  0  0  0  0  0  0  0
    1.6499   15.0734   -3.9587 H   0  0  0  0  0  0  0  0  0  0  0  0
   -0.1441   14.9826   -3.9587 H   0  0  0  0  0  0  0  0  0  0  0  0
    0.7891   13.0247   -0.4834 H   0  0  0  0  0  0  0  0  0  0  0  0
   -1.1566   14.6393   -0.9769 H   0  0  0  0  0  0  0  0  0  0  0  0
   -0.3523   14.5943    0.6780 H   0  0  0  0  0  0  0  0  0  0  0  0
   -0.9250   16.9828   -0.2764 H   0  0  0  0  0  0  0  0  0  0  0  0
    2.7439   16.1968   -1.7680 H   0  0  0  0  0  0  0  0  0  0  0  0
    3.2294   16.6992    1.2325 H   0  0  0  0  0  0  0  0  0  0  0  0
    4.4789   16.2792   -0.0220 H   0  0  0  0  0  0  0  0  0  0  0  0
    4.4963   18.6868    0.5472 H   0  0  0  0  0  0  0  0  0  0  0  0
    4.0651   18.3725   -1.1793 H   0  0  0  0  0  0  0  0  0  0  0  0
    2.6140   20.0803   -0.3213 H   0  0  0  0  0  0  0  0  0  0  0  0
    1.4430   19.7760    1.5680 H   0  0  0  0  0  0  0  0  0  0  0  0
    2.2563   19.5721   -2.4082 H   0  0  0  0  0  0  0  0  0  0  0  0
    1.8982   17.8530   -2.7869 H   0  0  0  0  0  0  0  0  0  0  0  0
    0.5745   19.0673   -2.7869 H   0  0  0  0  0  0  0  0  0  0  0  0
   -0.1128   19.3312    0.6679 H   0  0  0  0  0  0  0  0  0  0  0  0
    0.0374   20.2931   -0.8417 H   0  0  0  0  0  0  0  0  0  0  0  0
   -0.9031   18.7626   -0.8417 H   0  0  0  0  0  0  0  0  0  0  0  0
    2.0928   15.1463    1.6357 H   0  0  0  0  0  0  0  0  0  0  0  0
    1.7854   13.4080    1.3034 H   0  0  0  0  0  0  0  0  0  0  0  0
    3.4673   14.0387    1.3034 H   0  0  0  0  0  0  0  0  0  0  0  0
    4.3837   14.5114   -1.1063 H   0  0  0  0  0  0  0  0  0  0  0  0
    3.6164   12.8949   -0.6246 H   0  0  0  0  0  0  0  0  0  0  0  0
    3.3346   14.3620   -3.2623 H   0  0  0  0  0  0  0  0  0  0  0  0
    4.1393   12.7775   -2.9328 H   0  0  0  0  0  0  0  0  0  0  0  0
    2.0277   11.6384   -0.9446 H   0  0  0  0  0  0  0  0  0  0  0  0
    1.1587   10.7811   -2.2624 H   0  0  0  0  0  0  0  0  0  0  0  0
    2.9539   10.8433   -2.2624 H   0  0  0  0  0  0  0  0  0  0  0  0
  1  2  1  0
  2  3  1  0
  3  4  1  0
  4  5  1  0
  5  6  1  0
  6  7  1  0
  7  8  1  0
  7  9  1  0
  2 10  1  0
 10 11  1  0
 11 12  1  0
 12 13  1  0
 13 14  1  6
 13 15  1  0
 15 16  1  0
 16 17  1  0
 17 18  2  0
 18 19  1  0
 19 20  1  0
 20 21  1  0
 21 22  1  0
 22 23  1  0
 22 24  1  0
 24 25  1  0
 24 26  1  0
 19 27  1  0
 27 28  1  1
 27 29  1  0
 29 30  1  0
 30 31  1  0
 31 32  1  1
  7  5  1  0
 31 10  1  0
 31 13  1  0
 27 15  1  0
 24 18  1  0
  1 33  1  0
  1 34  1  0
  1 35  1  0
  2 36  1  1
  3 37  1  0
  3 38  1  0
  4 39  1  0
  4 40  1  0
  5 41  1  1
  8 42  1  0
  8 43  1  0
  8 44  1  0
  9 45  1  0
  9 46  1  0
  9 47  1  0
 10 48  1  6
 11 49  1  0
 11 50  1  0
 12 51  1  0
 12 52  1  0
 14 53  1  0
 14 54  1  0
 14 55  1  0
 15 56  1  1
 16 57  1  0
 16 58  1  0
 17 59  1  0
 19 60  1  6
 20 61  1  0
 20 62  1  0
 21 63  1  0
 21 64  1  0
 22 65  1  6
 23 66  1  0
 25 67  1  0
 25 68  1  0
 25 69  1  0
 26 70  1  0
 26 71  1  0
 26 72  1  0
 28 73  1  0
 28 74  1  0
 28 75  1  0
 29 76  1  0
 29 77  1  0
 30 78  1  0
 30 79  1  0
 32 80  1  0
 32 81  1  0
 32 82  1  0
M  END
>  <meeko>  (6) 
{"is_sidechain": [false], "intermolecular_energy": 2.731, "internal_energy": -0.839}

$$$$
EPH_relaxed_0001_pdb2pqr_Repair_121_r2_0001_out
     RDKit          3D

 82 86  0  0  0  0  0  0  0  0999 V2000
   -0.0140   15.0160   -7.3170 C   0  0  0  0  0  0  0  0  0  0  0  0
    0.8290   13.8570   -7.8550 C   0  0  2  0  0  0  0  0  0  0  0  0
    0.2210   13.2380   -9.1300 C   0  0  0  0  0  0  0  0  0  0  0  0
    0.8390   13.7690  -10.4260 C   0  0  0  0  0  0  0  0  0  0  0  0
    0.9160   15.2650  -10.4320 C   0  0  2  0  0  0  0  0  0  0  0  0
    1.9240   15.8100  -11.2940 O   0  0  0  0  0  0  0  0  0  0  0  0
    2.1000   16.0440   -9.8870 C   0  0  0  0  0  0  0  0  0  0  0  0
    3.2870   15.3490   -9.2980 C   0  0  0  0  0  0  0  0  0  0  0  0
    1.8930   17.4710   -9.4840 C   0  0  0  0  0  0  0  0  0  0  0  0
    0.9870   12.7870   -6.7810 C   0  0  1  0  0  0  0  0  0  0  0  0
    2.0300   11.7040   -7.1650 C   0  0  0  0  0  0  0  0  0  0  0  0
    2.7360   11.2770   -5.8520 C   0  0  0  0  0  0  0  0  0  0  0  0
    1.8600   11.8740   -4.7270 C   0  0  1  0  0  0  0  0  0  0  0  0
    0.6750   10.8700   -4.5650 C   0  0  0  0  0  0  0  0  0  0  0  0
    2.5760   12.1450   -3.3640 C   0  0  2  0  0  0  0  0  0  0  0  0
    3.1370   10.8970   -2.6610 C   0  0  0  0  0  0  0  0  0  0  0  0
    2.2000   10.2240   -1.7130 C   0  0  0  0  0  0  0  0  0  0  0  0
    1.0670   10.7590   -1.2210 C   0  0  0  0  0  0  0  0  0  0  0  0
    0.6790   12.2090   -1.5370 C   0  0  1  0  0  0  0  0  0  0  0  0
    0.2400   12.9240   -0.2320 C   0  0  0  0  0  0  0  0  0  0  0  0
   -0.8640   12.1720    0.5040 C   0  0  0  0  0  0  0  0  0  0  0  0
   -0.4190   10.7540    0.8530 C   0  0  2  0  0  0  0  0  0  0  0  0
    0.6370   10.8260    1.8150 O   0  0  0  0  0  0  0  0  0  0  0  0
    0.0550    9.9390   -0.3830 C   0  0  0  0  0  0  0  0  0  0  0  0
   -1.1610    9.6030   -1.2820 C   0  0  0  0  0  0  0  0  0  0  0  0
    0.6080    8.5800    0.1240 C   0  0  0  0  0  0  0  0  0  0  0  0
    1.7460   13.0480   -2.3640 C   0  0  1  0  0  0  0  0  0  0  0  0
    2.7770   13.7010   -1.3930 C   0  0  0  0  0  0  0  0  0  0  0  0
    1.0130   14.2340   -3.0960 C   0  0  0  0  0  0  0  0  0  0  0  0
    0.4300   13.9350   -4.4900 C   0  0  0  0  0  0  0  0  0  0  0  0
    1.4680   13.2480   -5.3820 C   0  0  2  0  0  0  0  0  0  0  0  0
    2.6620   14.2430   -5.5810 C   0  0  0  0  0  0  0  0  0  0  0  0
   -0.0015   14.9988   -6.2172 H   0  0  0  0  0  0  0  0  0  0  0  0
    0.4032   15.9693   -7.6736 H   0  0  0  0  0  0  0  0  0  0  0  0
   -1.0495   14.9127   -7.6736 H   0  0  0  0  0  0  0  0  0  0  0  0
    1.8154   14.2630   -8.1239 H   0  0  0  0  0  0  0  0  0  0  0  0
    0.3723   12.1491   -9.0937 H   0  0  0  0  0  0  0  0  0  0  0  0
   -0.8439   13.5132   -9.1450 H   0  0  0  0  0  0  0  0  0  0  0  0
    1.8546   13.3595  -10.5303 H   0  0  0  0  0  0  0  0  0  0  0  0
    0.1991   13.4557  -11.2640 H   0  0  0  0  0  0  0  0  0  0  0  0
   -0.1662   15.3448  -10.2519 H   0  0  0  0  0  0  0  0  0  0  0  0
    3.2256   15.3850   -8.2003 H   0  0  0  0  0  0  0  0  0  0  0  0
    3.3002   14.3005   -9.6303 H   0  0  0  0  0  0  0  0  0  0  0  0
    4.2078   15.8506   -9.6303 H   0  0  0  0  0  0  0  0  0  0  0  0
    1.8824   17.5442   -8.3865 H   0  0  0  0  0  0  0  0  0  0  0  0
    2.7111   18.0875   -9.8847 H   0  0  0  0  0  0  0  0  0  0  0  0
    0.9334   17.8297   -9.8847 H   0  0  0  0  0  0  0  0  0  0  0  0
   -0.0520   12.4304   -6.7228 H   0  0  0  0  0  0  0  0  0  0  0  0
    1.5272   10.8395   -7.6231 H   0  0  0  0  0  0  0  0  0  0  0  0
    2.7550   12.0949   -7.8941 H   0  0  0  0  0  0  0  0  0  0  0  0
    2.7771   10.1807   -5.7719 H   0  0  0  0  0  0  0  0  0  0  0  0
    3.7763   11.6310   -5.8033 H   0  0  0  0  0  0  0  0  0  0  0  0
    0.4788   10.7038   -3.4955 H   0  0  0  0  0  0  0  0  0  0  0  0
   -0.2249   11.2847   -5.0427 H   0  0  0  0  0  0  0  0  0  0  0  0
    0.9363    9.9142   -5.0427 H   0  0  0  0  0  0  0  0  0  0  0  0
    3.4532   12.7328   -3.6721 H   0  0  0  0  0  0  0  0  0  0  0  0
    3.4186   10.1683   -3.4354 H   0  0  0  0  0  0  0  0  0  0  0  0
    3.9860   11.2451   -2.0543 H   0  0  0  0  0  0  0  0  0  0  0  0
    2.4574    9.2047   -1.3893 H   0  0  0  0  0  0  0  0  0  0  0  0
   -0.1698   12.1515   -2.2343 H   0  0  0  0  0  0  0  0  0  0  0  0
    1.1118   13.0103    0.4332 H   0  0  0  0  0  0  0  0  0  0  0  0
   -0.1567   13.9117   -0.5097 H   0  0  0  0  0  0  0  0  0  0  0  0
   -1.1101   12.7105    1.4311 H   0  0  0  0  0  0  0  0  0  0  0  0
   -1.7453   12.1121   -0.1515 H   0  0  0  0  0  0  0  0  0  0  0  0
   -1.2929   10.2251    1.2612 H   0  0  0  0  0  0  0  0  0  0  0  0
    1.4770   10.8640    1.3280 H   0  0  0  0  0  0  0  0  0  0  0  0
   -2.0289    9.3632   -0.6502 H   0  0  0  0  0  0  0  0  0  0  0  0
   -1.3980   10.4693   -1.9171 H   0  0  0  0  0  0  0  0  0  0  0  0
   -0.9196    8.7379   -1.9171 H   0  0  0  0  0  0  0  0  0  0  0  0
    0.6110    8.5727    1.2240 H   0  0  0  0  0  0  0  0  0  0  0  0
   -0.0295    7.7636   -0.2464 H   0  0  0  0  0  0  0  0  0  0  0  0
    1.6344    8.4406   -0.2464 H   0  0  0  0  0  0  0  0  0  0  0  0
    2.4739   13.5090   -0.3532 H   0  0  0  0  0  0  0  0  0  0  0  0
    3.7727   13.2685   -1.5705 H   0  0  0  0  0  0  0  0  0  0  0  0
    2.8116   14.7860   -1.5705 H   0  0  0  0  0  0  0  0  0  0  0  0
    0.1837   14.5611   -2.4516 H   0  0  0  0  0  0  0  0  0  0  0  0
    1.7913   14.9925   -3.2660 H   0  0  0  0  0  0  0  0  0  0  0  0
   -0.4436   13.2756   -4.3809 H   0  0  0  0  0  0  0  0  0  0  0  0
    0.1381   14.8859   -4.9596 H   0  0  0  0  0  0  0  0  0  0  0  0
    3.0426   14.5602   -4.5989 H   0  0  0  0  0  0  0  0  0  0  0  0
    3.4658   13.7437   -6.1419 H   0  0  0  0  0  0  0  0  0  0  0  0
    2.3158   15.1236   -6.1419 H   0  0  0  0  0  0  0  0  0  0  0  0
  1  2  1  0
  2  3  1  0
  3  4  1  0
  4  5  1  0
  5  6  1  0
  6  7  1  0
  7  8  1  0
  7  9  1  0
  2 10  1  0
 10 11  1  0
 11 12  1  0
 12 13  1  0
 13 14  1  1
 13 15  1  0
 15 16  1  0
 16 17  1  0
 17 18  2  0
 18 19  1  0
 19 20  1  0
 20 21  1  0
 21 22  1  0
 22 23  1  0
 22 24  1  0
 24 25  1  0
 24 26  1  0
 19 27  1  0
 27 28  1  1
 27 29  1  0
 29 30  1  0
 30 31  1  0
 31 32  1  6
  7  5  1  0
 31 10  1  0
 31 13  1  0
 27 15  1  0
 24 18  1  0
  1 33  1  0
  1 34  1  0
  1 35  1  0
  2 36  1  6
  3 37  1  0
  3 38  1  0
  4 39  1  0
  4 40  1  0
  5 41  1  6
  8 42  1  0
  8 43  1  0
  8 44  1  0
  9 45  1  0
  9 46  1  0
  9 47  1  0
 10 48  1  1
 11 49  1  0
 11 50  1  0
 12 51  1  0
 12 52  1  0
 14 53  1  0
 14 54  1  0
 14 55  1  0
 15 56  1  6
 16 57  1  0
 16 58  1  0
 17 59  1  0
 19 60  1  6
 20 61  1  0
 20 62  1  0
 21 63  1  0
 21 64  1  0
 22 65  1  1
 23 66  1  0
 25 67  1  0
 25 68  1  0
 25 69  1  0
 26 70  1  0
 26 71  1  0
 26 72  1  0
 28 73  1  0
 28 74  1  0
 28 75  1  0
 29 76  1  0
 29 77  1  0
 30 78  1  0
 30 79  1  0
 32 80  1  0
 32 81  1  0
 32 82  1  0
M  END
>  <meeko>  (7) 
{"is_sidechain": [false], "intermolecular_energy": 2.731, "internal_energy": -0.839}

$$$$
EPH_relaxed_0001_pdb2pqr_Repair_121_r2_0001_out
     RDKit          3D

 82 86  0  0  0  0  0  0  0  0999 V2000
   -2.9900    7.7850   -0.5700 C   0  0  0  0  0  0  0  0  0  0  0  0
   -3.3490    9.2400   -0.2560 C   0  0  2  0  0  0  0  0  0  0  0  0
   -4.8560    9.5170   -0.4300 C   0  0  0  0  0  0  0  0  0  0  0  0
   -5.4220    9.0220   -1.7640 C   0  0  0  0  0  0  0  0  0  0  0  0
   -6.5810    8.0940   -1.5640 C   0  0  2  0  0  0  0  0  0  0  0  0
   -6.2390    6.8220   -0.9990 O   0  0  0  0  0  0  0  0  0  0  0  0
   -6.7610    6.8010   -2.3380 C   0  0  0  0  0  0  0  0  0  0  0  0
   -5.7690    6.3650   -3.3700 C   0  0  0  0  0  0  0  0  0  0  0  0
   -8.1330    6.2130   -2.4400 C   0  0  0  0  0  0  0  0  0  0  0  0
   -2.5410   10.1790   -1.1440 C   0  0  1  0  0  0  0  0  0  0  0  0
   -3.1000   11.6270   -1.1480 C   0  0  0  0  0  0  0  0  0  0  0  0
   -1.8800   12.5770   -1.2610 C   0  0  0  0  0  0  0  0  0  0  0  0
   -0.7020   11.6540   -1.6510 C   0  0  1  0  0  0  0  0  0  0  0  0
   -0.8450   11.4490   -3.1910 C   0  0  0  0  0  0  0  0  0  0  0  0
    0.7270   12.1580   -1.2650 C   0  0  2  0  0  0  0  0  0  0  0  0
    1.1580   13.4740   -1.9370 C   0  0  0  0  0  0  0  0  0  0  0  0
    1.8690   13.3220   -3.2400 C   0  0  0  0  0  0  0  0  0  0  0  0
    2.4030   12.1790   -3.7110 C   0  0  0  0  0  0  0  0  0  0  0  0
    2.4040   10.9020   -2.8620 C   0  0  1  0  0  0  0  0  0  0  0  0
    3.8090   10.2470   -2.9140 C   0  0  0  0  0  0  0  0  0  0  0  0
    4.2870    9.9990   -4.3410 C   0  0  0  0  0  0  0  0  0  0  0  0
    4.3280   11.3020   -5.1360 C   0  0  2  0  0  0  0  0  0  0  0  0
    5.3430   12.1470   -4.5850 O   0  0  0  0  0  0  0  0  0  0  0  0
    2.9690   12.0560   -5.1470 C   0  0  0  0  0  0  0  0  0  0  0  0
    1.9460   11.2730   -6.0070 C   0  0  0  0  0  0  0  0  0  0  0  0
    3.1840   13.4170   -5.8610 C   0  0  0  0  0  0  0  0  0  0  0  0
    1.8560   11.0550   -1.3780 C   0  0  1  0  0  0  0  0  0  0  0  0
    3.0100   11.5000   -0.4280 C   0  0  0  0  0  0  0  0  0  0  0  0
    1.3720    9.6490   -0.8610 C   0  0  0  0  0  0  0  0  0  0  0  0
   -0.0860    9.2590   -1.1700 C   0  0  0  0  0  0  0  0  0  0  0  0
   -1.0480   10.3870   -0.7870 C   0  0  2  0  0  0  0  0  0  0  0  0
   -0.9430   10.6010    0.7620 C   0  0  0  0  0  0  0  0  0  0  0  0
   -2.8531    7.2301    0.3699 H   0  0  0  0  0  0  0  0  0  0  0  0
   -3.8015    7.3247   -1.1527 H   0  0  0  0  0  0  0  0  0  0  0  0
   -2.0575    7.7550   -1.1527 H   0  0  0  0  0  0  0  0  0  0  0  0
   -3.0996    9.4212    0.7999 H   0  0  0  0  0  0  0  0  0  0  0  0
   -5.3979    9.0150    0.3850 H   0  0  0  0  0  0  0  0  0  0  0  0
   -4.9869   10.6090   -0.4102 H   0  0  0  0  0  0  0  0  0  0  0  0
   -5.7568    9.8887   -2.3528 H   0  0  0  0  0  0  0  0  0  0  0  0
   -4.6284    8.4710   -2.2899 H   0  0  0  0  0  0  0  0  0  0  0  0
   -7.2569    8.9411   -1.3755 H   0  0  0  0  0  0  0  0  0  0  0  0
   -4.8711    5.9704   -2.8719 H   0  0  0  0  0  0  0  0  0  0  0  0
   -6.2147    5.5798   -3.9984 H   0  0  0  0  0  0  0  0  0  0  0  0
   -5.4919    7.2243   -3.9984 H   0  0  0  0  0  0  0  0  0  0  0  0
   -8.5342    6.0410   -1.4303 H   0  0  0  0  0  0  0  0  0  0  0  0
   -8.7905    6.9083   -2.9823 H   0  0  0  0  0  0  0  0  0  0  0  0
   -8.0829    5.2573   -2.9823 H   0  0  0  0  0  0  0  0  0  0  0  0
   -2.6279    9.6457   -2.1022 H   0  0  0  0  0  0  0  0  0  0  0  0
   -3.7729   11.7709   -2.0062 H   0  0  0  0  0  0  0  0  0  0  0  0
   -3.6758   11.8307   -0.2331 H   0  0  0  0  0  0  0  0  0  0  0  0
   -2.0507   13.3377   -2.0370 H   0  0  0  0  0  0  0  0  0  0  0  0
   -1.6894   13.1244   -0.3261 H   0  0  0  0  0  0  0  0  0  0  0  0
   -1.4643   10.5612   -3.3868 H   0  0  0  0  0  0  0  0  0  0  0  0
   -1.3224   12.3345   -3.6360 H   0  0  0  0  0  0  0  0  0  0  0  0
    0.1509   11.3068   -3.6360 H   0  0  0  0  0  0  0  0  0  0  0  0
    0.6143   12.3908   -0.1959 H   0  0  0  0  0  0  0  0  0  0  0  0
    0.2554   14.0782   -2.1109 H   0  0  0  0  0  0  0  0  0  0  0  0
    1.8779   13.9442   -1.2509 H   0  0  0  0  0  0  0  0  0  0  0  0
    1.9651   14.2193   -3.8689 H   0  0  0  0  0  0  0  0  0  0  0  0
    1.6624   10.2314   -3.3206 H   0  0  0  0  0  0  0  0  0  0  0  0
    4.5270   10.9125   -2.4124 H   0  0  0  0  0  0  0  0  0  0  0  0
    3.7410    9.2713   -2.4107 H   0  0  0  0  0  0  0  0  0  0  0  0
    5.2964    9.5629   -4.3120 H   0  0  0  0  0  0  0  0  0  0  0  0
    3.5846    9.3095   -4.8322 H   0  0  0  0  0  0  0  0  0  0  0  0
    4.5514   11.0434   -6.1816 H   0  0  0  0  0  0  0  0  0  0  0  0
    6.0810   12.1700   -5.2170 H   0  0  0  0  0  0  0  0  0  0  0  0
    1.2466   10.7377   -5.3480 H   0  0  0  0  0  0  0  0  0  0  0  0
    1.3866   11.9758   -6.6419 H   0  0  0  0  0  0  0  0  0  0  0  0
    2.4783   10.5494   -6.6419 H   0  0  0  0  0  0  0  0  0  0  0  0
    3.3093   14.2099   -5.1089 H   0  0  0  0  0  0  0  0  0  0  0  0
    4.0847   13.3628   -6.4901 H   0  0  0  0  0  0  0  0  0  0  0  0
    2.3104   13.6431   -6.4901 H   0  0  0  0  0  0  0  0  0  0  0  0
    2.6919   11.3773    0.6178 H   0  0  0  0  0  0  0  0  0  0  0  0
    3.8992   10.8803   -0.6159 H   0  0  0  0  0  0  0  0  0  0  0  0
    3.2529   12.5563   -0.6159 H   0  0  0  0  0  0  0  0  0  0  0  0
    2.0233    8.8862   -1.3127 H   0  0  0  0  0  0  0  0  0  0  0  0
    1.4267    9.7114    0.2359 H   0  0  0  0  0  0  0  0  0  0  0  0
   -0.1831    9.0532   -2.2462 H   0  0  0  0  0  0  0  0  0  0  0  0
   -0.3420    8.3650   -0.5824 H   0  0  0  0  0  0  0  0  0  0  0  0
   -1.3699    9.7308    1.2821 H   0  0  0  0  0  0  0  0  0  0  0  0
    0.1136   10.7156    1.0455 H   0  0  0  0  0  0  0  0  0  0  0  0
   -1.4990   11.5068    1.0455 H   0  0  0  0  0  0  0  0  0  0  0  0
  1  2  1  0
  2  3  1  0
  3  4  1  0
  4  5  1  0
  5  6  1  0
  6  7  1  0
  7  8  1  0
  7  9  1  0
  2 10  1  0
 10 11  1  0
 11 12  1  0
 12 13  1  0
 13 14  1  6
 13 15  1  0
 15 16  1  0
 16 17  1  0
 17 18  2  0
 18 19  1  0
 19 20  1  0
 20 21  1  0
 21 22  1  0
 22 23  1  0
 22 24  1  0
 24 25  1  0
 24 26  1  0
 19 27  1  0
 27 28  1  1
 27 29  1  0
 29 30  1  0
 30 31  1  0
 31 32  1  1
  7  5  1  0
 31 10  1  0
 31 13  1  0
 27 15  1  0
 24 18  1  0
  1 33  1  0
  1 34  1  0
  1 35  1  0
  2 36  1  1
  3 37  1  0
  3 38  1  0
  4 39  1  0
  4 40  1  0
  5 41  1  1
  8 42  1  0
  8 43  1  0
  8 44  1  0
  9 45  1  0
  9 46  1  0
  9 47  1  0
 10 48  1  6
 11 49  1  0
 11 50  1  0
 12 51  1  0
 12 52  1  0
 14 53  1  0
 14 54  1  0
 14 55  1  0
 15 56  1  1
 16 57  1  0
 16 58  1  0
 17 59  1  0
 19 60  1  6
 20 61  1  0
 20 62  1  0
 21 63  1  0
 21 64  1  0
 22 65  1  6
 23 66  1  0
 25 67  1  0
 25 68  1  0
 25 69  1  0
 26 70  1  0
 26 71  1  0
 26 72  1  0
 28 73  1  0
 28 74  1  0
 28 75  1  0
 29 76  1  0
 29 77  1  0
 30 78  1  0
 30 79  1  0
 32 80  1  0
 32 81  1  0
 32 82  1  0
M  END
>  <meeko>  (8) 
{"is_sidechain": [false], "intermolecular_energy": 2.731, "internal_energy": -0.839}

$$$$
EPH_relaxed_0001_pdb2pqr_Repair_121_r2_0001_out
     RDKit          3D

 82 86  0  0  0  0  0  0  0  0999 V2000
    2.4230   16.2530   -8.0970 C   0  0  0  0  0  0  0  0  0  0  0  0
    2.3220   14.8050   -7.6090 C   0  0  2  0  0  0  0  0  0  0  0  0
    1.4430   13.9410   -8.5340 C   0  0  0  0  0  0  0  0  0  0  0  0
    0.3930   14.7410   -9.3100 C   0  0  0  0  0  0  0  0  0  0  0  0
    0.3430   14.3370  -10.7520 C   0  0  2  0  0  0  0  0  0  0  0  0
    1.3030   13.3420  -11.1290 O   0  0  0  0  0  0  0  0  0  0  0  0
    1.4540   14.6320  -11.7430 C   0  0  0  0  0  0  0  0  0  0  0  0
    2.6940   15.3610  -11.3300 C   0  0  0  0  0  0  0  0  0  0  0  0
    1.1250   14.6470  -13.2030 C   0  0  0  0  0  0  0  0  0  0  0  0
    1.7730   14.7730   -6.1880 C   0  0  1  0  0  0  0  0  0  0  0  0
    0.4350   15.5470   -6.0460 C   0  0  0  0  0  0  0  0  0  0  0  0
   -0.4160   14.7810   -5.0020 C   0  0  0  0  0  0  0  0  0  0  0  0
    0.5740   13.7960   -4.3370 C   0  0  1  0  0  0  0  0  0  0  0  0
    1.3370   14.6500   -3.2760 C   0  0  0  0  0  0  0  0  0  0  0  0
   -0.0510   12.5110   -3.7040 C   0  0  2  0  0  0  0  0  0  0  0  0
   -1.0270   12.7640   -2.5420 C   0  0  0  0  0  0  0  0  0  0  0  0
   -0.4090   12.7930   -1.1830 C   0  0  0  0  0  0  0  0  0  0  0  0
    0.8220   12.3440   -0.8750 C   0  0  0  0  0  0  0  0  0  0  0  0
    1.6930   11.6470   -1.9280 C   0  0  1  0  0  0  0  0  0  0  0  0
    2.3070   10.3580   -1.3210 C   0  0  0  0  0  0  0  0  0  0  0  0
    3.0620   10.6250   -0.0220 C   0  0  0  0  0  0  0  0  0  0  0  0
    2.1470   11.2650    1.0190 C   0  0  2  0  0  0  0  0  0  0  0  0
    1.1490   10.3140    1.4020 O   0  0  0  0  0  0  0  0  0  0  0  0
    1.4640   12.5670    0.5170 C   0  0  0  0  0  0  0  0  0  0  0  0
    2.5200   13.6930    0.3900 C   0  0  0  0  0  0  0  0  0  0  0  0
    0.4630   13.0320    1.6080 C   0  0  0  0  0  0  0  0  0  0  0  0
    1.0050   11.3900   -3.3370 C   0  0  1  0  0  0  0  0  0  0  0  0
    0.2280   10.0380   -3.3120 C   0  0  0  0  0  0  0  0  0  0  0  0
    2.1230   11.2400   -4.4350 C   0  0  0  0  0  0  0  0  0  0  0  0
    2.6140   12.5350   -5.1090 C   0  0  0  0  0  0  0  0  0  0  0  0
    1.4330   13.3850   -5.5880 C   0  0  2  0  0  0  0  0  0  0  0  0
    0.6590   12.5620   -6.6730 C   0  0  0  0  0  0  0  0  0  0  0  0
    2.4702   16.9294   -7.2308 H   0  0  0  0  0  0  0  0  0  0  0  0
    3.3317   16.3724   -8.7054 H   0  0  0  0  0  0  0  0  0  0  0  0
    1.5397   16.4974   -8.7054 H   0  0  0  0  0  0  0  0  0  0  0  0
    3.3358   14.3784   -7.6250 H   0  0  0  0  0  0  0  0  0  0  0  0
    2.0964   13.4320   -9.2579 H   0  0  0  0  0  0  0  0  0  0  0  0
    0.8978   13.2344   -7.8910 H   0  0  0  0  0  0  0  0  0  0  0  0
   -0.5941   14.5675   -8.8567 H   0  0  0  0  0  0  0  0  0  0  0  0
    0.6675   15.8051   -9.2612 H   0  0  0  0  0  0  0  0  0  0  0  0
   -0.7426   14.5112  -10.7871 H   0  0  0  0  0  0  0  0  0  0  0  0
    2.7511   15.3946  -10.2320 H   0  0  0  0  0  0  0  0  0  0  0  0
    3.5764   14.8379  -11.7272 H   0  0  0  0  0  0  0  0  0  0  0  0
    2.6660   16.3864  -11.7272 H   0  0  0  0  0  0  0  0  0  0  0  0
    0.0338   14.6968  -13.3325 H   0  0  0  0  0  0  0  0  0  0  0  0
    1.5906   15.5248  -13.6748 H   0  0  0  0  0  0  0  0  0  0  0  0
    1.5088   13.7304  -13.6748 H   0  0  0  0  0  0  0  0  0  0  0  0
    2.6247   15.2170   -5.6518 H   0  0  0  0  0  0  0  0  0  0  0  0
    0.6261   16.5733   -5.6994 H   0  0  0  0  0  0  0  0  0  0  0  0
   -0.0883   15.6115   -7.0114 H   0  0  0  0  0  0  0  0  0  0  0  0
   -0.8329   15.4745   -4.2569 H   0  0  0  0  0  0  0  0  0  0  0  0
   -1.2726   14.2650   -5.4603 H   0  0  0  0  0  0  0  0  0  0  0  0
    1.0466   14.3250   -2.2660 H   0  0  0  0  0  0  0  0  0  0  0  0
    2.4208   14.5150   -3.4072 H   0  0  0  0  0  0  0  0  0  0  0  0
    1.0812   15.7118   -3.4072 H   0  0  0  0  0  0  0  0  0  0  0  0
   -0.6634   12.1165   -4.5282 H   0  0  0  0  0  0  0  0  0  0  0  0
   -1.5153   13.7346   -2.7138 H   0  0  0  0  0  0  0  0  0  0  0  0
   -1.7243   11.9133   -2.5404 H   0  0  0  0  0  0  0  0  0  0  0  0
   -1.0101   13.2168   -0.3650 H   0  0  0  0  0  0  0  0  0  0  0  0
    2.4929   12.3586   -2.1804 H   0  0  0  0  0  0  0  0  0  0  0  0
    1.4960    9.6434   -1.1170 H   0  0  0  0  0  0  0  0  0  0  0  0
    3.0270    9.9562   -2.0491 H   0  0  0  0  0  0  0  0  0  0  0  0
    3.4464    9.6731    0.3731 H   0  0  0  0  0  0  0  0  0  0  0  0
    3.8910   11.3164   -0.2334 H   0  0  0  0  0  0  0  0  0  0  0  0
    2.7729   11.5511    1.8771 H   0  0  0  0  0  0  0  0  0  0  0  0
    0.4590   10.7930    1.8920 H   0  0  0  0  0  0  0  0  0  0  0  0
    2.8281   14.0216    1.3935 H   0  0  0  0  0  0  0  0  0  0  0  0
    3.3960   13.3141   -0.1569 H   0  0  0  0  0  0  0  0  0  0  0  0
    2.0858   14.5429   -0.1569 H   0  0  0  0  0  0  0  0  0  0  0  0
    0.8877   12.8347    2.6033 H   0  0  0  0  0  0  0  0  0  0  0  0
    0.2743   14.1100    1.4970 H   0  0  0  0  0  0  0  0  0  0  0  0
   -0.4825   12.4809    1.4970 H   0  0  0  0  0  0  0  0  0  0  0  0
    0.0536    9.7346   -2.2692 H   0  0  0  0  0  0  0  0  0  0  0  0
   -0.7375   10.1605   -3.8246 H   0  0  0  0  0  0  0  0  0  0  0  0
    0.8199    9.2654   -3.8246 H   0  0  0  0  0  0  0  0  0  0  0  0
    2.9926   10.7614   -3.9610 H   0  0  0  0  0  0  0  0  0  0  0  0
    1.6570   10.6551   -5.2416 H   0  0  0  0  0  0  0  0  0  0  0  0
    3.2052   13.1155   -4.3855 H   0  0  0  0  0  0  0  0  0  0  0  0
    3.2289   12.2657   -5.9804 H   0  0  0  0  0  0  0  0  0  0  0  0
   -0.0143   11.8461   -6.1790 H   0  0  0  0  0  0  0  0  0  0  0  0
    0.0696   13.2463   -7.3010 H   0  0  0  0  0  0  0  0  0  0  0  0
    1.3782   12.0157   -7.3010 H   0  0  0  0  0  0  0  0  0  0  0  0
  1  2  1  0
  2  3  1  0
  3  4  1  0
  4  5  1  0
  5  6  1  0
  6  7  1  0
  7  8  1  0
  7  9  1  0
  2 10  1  0
 10 11  1  0
 11 12  1  0
 12 13  1  0
 13 14  1  1
 13 15  1  0
 15 16  1  0
 16 17  1  0
 17 18  2  0
 18 19  1  0
 19 20  1  0
 20 21  1  0
 21 22  1  0
 22 23  1  0
 22 24  1  0
 24 25  1  0
 24 26  1  0
 19 27  1  0
 27 28  1  1
 27 29  1  0
 29 30  1  0
 30 31  1  0
 31 32  1  6
  7  5  1  0
 31 10  1  0
 31 13  1  0
 27 15  1  0
 24 18  1  0
  1 33  1  0
  1 34  1  0
  1 35  1  0
  2 36  1  1
  3 37  1  0
  3 38  1  0
  4 39  1  0
  4 40  1  0
  5 41  1  6
  8 42  1  0
  8 43  1  0
  8 44  1  0
  9 45  1  0
  9 46  1  0
  9 47  1  0
 10 48  1  1
 11 49  1  0
 11 50  1  0
 12 51  1  0
 12 52  1  0
 14 53  1  0
 14 54  1  0
 14 55  1  0
 15 56  1  6
 16 57  1  0
 16 58  1  0
 17 59  1  0
 19 60  1  6
 20 61  1  0
 20 62  1  0
 21 63  1  0
 21 64  1  0
 22 65  1  1
 23 66  1  0
 25 67  1  0
 25 68  1  0
 25 69  1  0
 26 70  1  0
 26 71  1  0
 26 72  1  0
 28 73  1  0
 28 74  1  0
 28 75  1  0
 29 76  1  0
 29 77  1  0
 30 78  1  0
 30 79  1  0
 32 80  1  0
 32 81  1  0
 32 82  1  0
M  END
>  <meeko>  (9) 
{"is_sidechain": [false], "intermolecular_energy": 2.731, "internal_energy": -0.839}

$$$$
EPH_relaxed_0001_pdb2pqr_Repair_121_r2_0001_out
     RDKit          3D

 82 86  0  0  0  0  0  0  0  0999 V2000
   -1.1490    8.2170   -1.1610 C   0  0  0  0  0  0  0  0  0  0  0  0
   -1.4590    9.4520   -0.3100 C   0  0  2  0  0  0  0  0  0  0  0  0
   -2.9060    9.4430    0.2200 C   0  0  0  0  0  0  0  0  0  0  0  0
   -3.9660    9.4060   -0.8840 C   0  0  0  0  0  0  0  0  0  0  0  0
   -4.6990    8.0990   -0.9060 C   0  0  2  0  0  0  0  0  0  0  0  0
   -4.7130    7.4410   -2.1790 O   0  0  0  0  0  0  0  0  0  0  0  0
   -5.9870    7.8750   -1.6760 C   0  0  0  0  0  0  0  0  0  0  0  0
   -6.6170    8.9700   -2.4780 C   0  0  0  0  0  0  0  0  0  0  0  0
   -6.8840    6.7520   -1.2580 C   0  0  0  0  0  0  0  0  0  0  0  0
   -1.2080   10.7170   -1.1210 C   0  0  1  0  0  0  0  0  0  0  0  0
   -1.3510   12.0090   -0.2730 C   0  0  0  0  0  0  0  0  0  0  0  0
   -0.3050   13.0180   -0.8140 C   0  0  0  0  0  0  0  0  0  0  0  0
    0.1690   12.4070   -2.1530 C   0  0  1  0  0  0  0  0  0  0  0  0
   -0.9320   12.8010   -3.1860 C   0  0  0  0  0  0  0  0  0  0  0  0
    1.5940   12.8290   -2.6390 C   0  0  2  0  0  0  0  0  0  0  0  0
    1.7660   14.3300   -2.9300 C   0  0  0  0  0  0  0  0  0  0  0  0
    1.4710   14.7450   -4.3340 C   0  0  0  0  0  0  0  0  0  0  0  0
    1.3610   13.9150   -5.3880 C   0  0  0  0  0  0  0  0  0  0  0  0
    1.6350   12.4130   -5.2400 C   0  0  1  0  0  0  0  0  0  0  0  0
    2.5440   11.9360   -6.4040 C   0  0  0  0  0  0  0  0  0  0  0  0
    1.9760   12.2930   -7.7740 C   0  0  0  0  0  0  0  0  0  0  0  0
    1.7720   13.8010   -7.9030 C   0  0  2  0  0  0  0  0  0  0  0  0
    3.0510   14.4410   -7.8930 O   0  0  0  0  0  0  0  0  0  0  0  0
    0.8800   14.3970   -6.7790 C   0  0  0  0  0  0  0  0  0  0  0  0
   -0.5840   13.9310   -6.9750 C   0  0  0  0  0  0  0  0  0  0  0  0
    0.8700   15.9400   -6.9450 C   0  0  0  0  0  0  0  0  0  0  0  0
    2.1660   11.9420   -3.8180 C   0  0  1  0  0  0  0  0  0  0  0  0
    3.7190   12.0720   -3.7600 C   0  0  0  0  0  0  0  0  0  0  0  0
    1.8410   10.4130   -3.6290 C   0  0  0  0  0  0  0  0  0  0  0  0
    0.4630   10.0640   -3.0330 C   0  0  0  0  0  0  0  0  0  0  0  0
    0.1900   10.8830   -1.7680 C   0  0  2  0  0  0  0  0  0  0  0  0
    1.2700   10.4910   -0.7020 C   0  0  0  0  0  0  0  0  0  0  0  0
   -0.9345    7.3624   -0.5025 H   0  0  0  0  0  0  0  0  0  0  0  0
   -2.0161    7.9821   -1.7959 H   0  0  0  0  0  0  0  0  0  0  0  0
   -0.2738    8.4194   -1.7959 H   0  0  0  0  0  0  0  0  0  0  0  0
   -0.7889    9.4308    0.5620 H   0  0  0  0  0  0  0  0  0  0  0  0
   -3.0369    8.5558    0.8569 H   0  0  0  0  0  0  0  0  0  0  0  0
   -3.0513   10.3824    0.7735 H   0  0  0  0  0  0  0  0  0  0  0  0
   -4.6888   10.2171   -0.7114 H   0  0  0  0  0  0  0  0  0  0  0  0
   -3.4575    9.5300   -1.8515 H   0  0  0  0  0  0  0  0  0  0  0  0
   -4.4194    7.8983    0.1388 H   0  0  0  0  0  0  0  0  0  0  0  0
   -7.0486    9.7201   -1.7990 H   0  0  0  0  0  0  0  0  0  0  0  0
   -5.8543    9.4453   -3.1123 H   0  0  0  0  0  0  0  0  0  0  0  0
   -7.4113    8.5495   -3.1123 H   0  0  0  0  0  0  0  0  0  0  0  0
   -6.9230    6.7032   -0.1598 H   0  0  0  0  0  0  0  0  0  0  0  0
   -7.8959    6.9243   -1.6535 H   0  0  0  0  0  0  0  0  0  0  0  0
   -6.4923    5.8032   -1.6535 H   0  0  0  0  0  0  0  0  0  0  0  0
   -1.9711   10.5878   -1.9027 H   0  0  0  0  0  0  0  0  0  0  0  0
   -2.3652   12.4214   -0.3793 H   0  0  0  0  0  0  0  0  0  0  0  0
   -1.1838   11.8012    0.7942 H   0  0  0  0  0  0  0  0  0  0  0  0
   -0.7648   14.0037   -0.9780 H   0  0  0  0  0  0  0  0  0  0  0  0
    0.5254   13.1761   -0.1101 H   0  0  0  0  0  0  0  0  0  0  0  0
   -1.8372   13.1249   -2.6515 H   0  0  0  0  0  0  0  0  0  0  0  0
   -0.5649   13.6235   -3.8174 H   0  0  0  0  0  0  0  0  0  0  0  0
   -1.1701   11.9323   -3.8174 H   0  0  0  0  0  0  0  0  0  0  0  0
    2.2153   12.6232   -1.7549 H   0  0  0  0  0  0  0  0  0  0  0  0
    1.0908   14.8853   -2.2623 H   0  0  0  0  0  0  0  0  0  0  0  0
    2.8304   14.5524   -2.7640 H   0  0  0  0  0  0  0  0  0  0  0  0
    1.3319   15.8197   -4.5227 H   0  0  0  0  0  0  0  0  0  0  0  0
    0.6554   11.9167   -5.3038 H   0  0  0  0  0  0  0  0  0  0  0  0
    3.5311   12.4095   -6.2973 H   0  0  0  0  0  0  0  0  0  0  0  0
    2.6124   10.8396   -6.3464 H   0  0  0  0  0  0  0  0  0  0  0  0
    2.6759   11.9563   -8.5530 H   0  0  0  0  0  0  0  0  0  0  0  0
    1.0021   11.7952   -7.8914 H   0  0  0  0  0  0  0  0  0  0  0  0
    1.2442   13.9829   -8.8508 H   0  0  0  0  0  0  0  0  0  0  0  0
    3.6140   13.9860   -8.5430 H   0  0  0  0  0  0  0  0  0  0  0  0
   -1.0556   13.7809   -5.9926 H   0  0  0  0  0  0  0  0  0  0  0  0
   -1.1405   14.6964   -7.5358 H   0  0  0  0  0  0  0  0  0  0  0  0
   -0.5956   12.9847   -7.5358 H   0  0  0  0  0  0  0  0  0  0  0  0
    0.8669   16.4155   -5.9531 H   0  0  0  0  0  0  0  0  0  0  0  0
    1.7661   16.2549   -7.4998 H   0  0  0  0  0  0  0  0  0  0  0  0
   -0.0301   16.2433   -7.4998 H   0  0  0  0  0  0  0  0  0  0  0  0
    4.0457   12.0993   -2.7100 H   0  0  0  0  0  0  0  0  0  0  0  0
    4.1783   11.2092   -4.2646 H   0  0  0  0  0  0  0  0  0  0  0  0
    4.0284   12.9992   -4.2646 H   0  0  0  0  0  0  0  0  0  0  0  0
    1.9072    9.9341   -4.6171 H   0  0  0  0  0  0  0  0  0  0  0  0
    2.5733   10.0520   -2.8918 H   0  0  0  0  0  0  0  0  0  0  0  0
   -0.3168   10.2814   -3.7778 H   0  0  0  0  0  0  0  0  0  0  0  0
    0.4554    8.9964   -2.7683 H   0  0  0  0  0  0  0  0  0  0  0  0
    0.8596   10.6400    0.3076 H   0  0  0  0  0  0  0  0  0  0  0  0
    1.5478    9.4347   -0.8327 H   0  0  0  0  0  0  0  0  0  0  0  0
    2.1606   11.1232   -0.8327 H   0  0  0  0  0  0  0  0  0  0  0  0
  1  2  1  0
  2  3  1  0
  3  4  1  0
  4  5  1  0
  5  6  1  0
  6  7  1  0
  7  8  1  0
  7  9  1  0
  2 10  1  0
 10 11  1  0
 11 12  1  0
 12 13  1  0
 13 14  1  6
 13 15  1  0
 15 16  1  0
 16 17  1  0
 17 18  2  0
 18 19  1  0
 19 20  1  0
 20 21  1  0
 21 22  1  0
 22 23  1  0
 22 24  1  0
 24 25  1  0
 24 26  1  0
 19 27  1  0
 27 28  1  6
 27 29  1  0
 29 30  1  0
 30 31  1  0
 31 32  1  1
  7  5  1  0
 31 10  1  0
 31 13  1  0
 27 15  1  0
 24 18  1  0
  1 33  1  0
  1 34  1  0
  1 35  1  0
  2 36  1  1
  3 37  1  0
  3 38  1  0
  4 39  1  0
  4 40  1  0
  5 41  1  1
  8 42  1  0
  8 43  1  0
  8 44  1  0
  9 45  1  0
  9 46  1  0
  9 47  1  0
 10 48  1  6
 11 49  1  0
 11 50  1  0
 12 51  1  0
 12 52  1  0
 14 53  1  0
 14 54  1  0
 14 55  1  0
 15 56  1  1
 16 57  1  0
 16 58  1  0
 17 59  1  0
 19 60  1  6
 20 61  1  0
 20 62  1  0
 21 63  1  0
 21 64  1  0
 22 65  1  6
 23 66  1  0
 25 67  1  0
 25 68  1  0
 25 69  1  0
 26 70  1  0
 26 71  1  0
 26 72  1  0
 28 73  1  0
 28 74  1  0
 28 75  1  0
 29 76  1  0
 29 77  1  0
 30 78  1  0
 30 79  1  0
 32 80  1  0
 32 81  1  0
 32 82  1  0
M  END
>  <meeko>  (10) 
{"is_sidechain": [false], "intermolecular_energy": 2.731, "internal_energy": -0.839}

$$$$
EPH_relaxed_0001_pdb2pqr_Repair_121_r2_0001_out
     RDKit          3D

 82 86  0  0  0  0  0  0  0  0999 V2000
    0.5990    8.9530   -2.0660 C   0  0  0  0  0  0  0  0  0  0  0  0
    1.0110   10.0330   -3.0700 C   0  0  2  0  0  0  0  0  0  0  0  0
    2.5430   10.1750   -3.1740 C   0  0  0  0  0  0  0  0  0  0  0  0
    2.9960   11.2030   -4.2150 C   0  0  0  0  0  0  0  0  0  0  0  0
    4.1830   10.7190   -4.9910 C   0  0  2  0  0  0  0  0  0  0  0  0
    5.0630    9.8540   -4.2620 O   0  0  0  0  0  0  0  0  0  0  0  0
    5.6120   11.1170   -4.6700 C   0  0  0  0  0  0  0  0  0  0  0  0
    5.9280   12.0390   -3.5350 C   0  0  0  0  0  0  0  0  0  0  0  0
    6.6450   11.0060   -5.7480 C   0  0  0  0  0  0  0  0  0  0  0  0
    0.3890   11.3690   -2.6800 C   0  0  1  0  0  0  0  0  0  0  0  0
   -0.9560   11.2030   -1.9240 C   0  0  0  0  0  0  0  0  0  0  0  0
   -1.0260   12.3470   -0.8800 C   0  0  0  0  0  0  0  0  0  0  0  0
    0.1070   13.3170   -1.2880 C   0  0  1  0  0  0  0  0  0  0  0  0
   -0.4940   14.1710   -2.4480 C   0  0  0  0  0  0  0  0  0  0  0  0
    0.6890   14.2180   -0.1500 C   0  0  2  0  0  0  0  0  0  0  0  0
   -0.3150   15.1980    0.4840 C   0  0  0  0  0  0  0  0  0  0  0  0
   -0.3860   16.5430   -0.1610 C   0  0  0  0  0  0  0  0  0  0  0  0
    0.5190   17.0480   -1.0190 C   0  0  0  0  0  0  0  0  0  0  0  0
    1.8070   16.2820   -1.3470 C   0  0  1  0  0  0  0  0  0  0  0  0
    3.0170   17.2490   -1.2740 C   0  0  0  0  0  0  0  0  0  0  0  0
    2.8340   18.4840   -2.1510 C   0  0  0  0  0  0  0  0  0  0  0  0
    1.5740   19.2510   -1.7560 C   0  0  2  0  0  0  0  0  0  0  0  0
    1.7580   19.7950   -0.4460 O   0  0  0  0  0  0  0  0  0  0  0  0
    0.2900   18.3750   -1.7830 C   0  0  0  0  0  0  0  0  0  0  0  0
   -0.0770   18.0350   -3.2490 C   0  0  0  0  0  0  0  0  0  0  0  0
   -0.8820   19.2300   -1.2300 C   0  0  0  0  0  0  0  0  0  0  0  0
    2.0450   14.9430   -0.5260 C   0  0  1  0  0  0  0  0  0  0  0  0
    2.7650   15.2640    0.8200 C   0  0  0  0  0  0  0  0  0  0  0  0
    3.0170   14.0080   -1.3370 C   0  0  0  0  0  0  0  0  0  0  0  0
    2.3720   13.0550   -2.3610 C   0  0  0  0  0  0  0  0  0  0  0  0
    1.2060   12.2850   -1.7350 C   0  0  2  0  0  0  0  0  0  0  0  0
    1.7830   11.4000   -0.5780 C   0  0  0  0  0  0  0  0  0  0  0  0
    0.7427    9.3298   -1.0426 H   0  0  0  0  0  0  0  0  0  0  0  0
   -0.4600    8.6968   -2.2170 H   0  0  0  0  0  0  0  0  0  0  0  0
    1.2183    8.0565   -2.2170 H   0  0  0  0  0  0  0  0  0  0  0  0
    0.6404    9.7248   -4.0588 H   0  0  0  0  0  0  0  0  0  0  0  0
    2.9310   10.4815   -2.1914 H   0  0  0  0  0  0  0  0  0  0  0  0
    2.9357    9.1986   -3.4939 H   0  0  0  0  0  0  0  0  0  0  0  0
    2.1671   11.3929   -4.9128 H   0  0  0  0  0  0  0  0  0  0  0  0
    3.2841   12.1233   -3.6857 H   0  0  0  0  0  0  0  0  0  0  0  0
    3.6057   10.7328   -5.9272 H   0  0  0  0  0  0  0  0  0  0  0  0
    5.7504   11.5207   -2.5812 H   0  0  0  0  0  0  0  0  0  0  0  0
    6.9826   12.3459   -3.5946 H   0  0  0  0  0  0  0  0  0  0  0  0
    5.2834   12.9283   -3.5946 H   0  0  0  0  0  0  0  0  0  0  0  0
    7.6404   10.8990   -5.2923 H   0  0  0  0  0  0  0  0  0  0  0  0
    6.4308   10.1257   -6.3719 H   0  0  0  0  0  0  0  0  0  0  0  0
    6.6227   11.9117   -6.3719 H   0  0  0  0  0  0  0  0  0  0  0  0
    0.3078   11.8323   -3.6744 H   0  0  0  0  0  0  0  0  0  0  0  0
   -1.7981   11.2801   -2.6275 H   0  0  0  0  0  0  0  0  0  0  0  0
   -1.0163   10.2188   -1.4364 H   0  0  0  0  0  0  0  0  0  0  0  0
   -2.0027   12.8513   -0.9214 H   0  0  0  0  0  0  0  0  0  0  0  0
   -0.9097   11.9794    0.1502 H   0  0  0  0  0  0  0  0  0  0  0  0
   -1.0788   15.0019   -2.0266 H   0  0  0  0  0  0  0  0  0  0  0  0
    0.3211   14.5734   -3.0674 H   0  0  0  0  0  0  0  0  0  0  0  0
   -1.1479   13.5396   -3.0674 H   0  0  0  0  0  0  0  0  0  0  0  0
    0.9265   13.4838    0.6339 H   0  0  0  0  0  0  0  0  0  0  0  0
   -1.3148   14.7423    0.4311 H   0  0  0  0  0  0  0  0  0  0  0  0
    0.0358   15.3711    1.5121 H   0  0  0  0  0  0  0  0  0  0  0  0
   -1.2519   17.1746    0.0864 H   0  0  0  0  0  0  0  0  0  0  0  0
    1.6872   15.9115   -2.3758 H   0  0  0  0  0  0  0  0  0  0  0  0
    3.1464   17.5735   -0.2309 H   0  0  0  0  0  0  0  0  0  0  0  0
    3.9002   16.7064   -1.6423 H   0  0  0  0  0  0  0  0  0  0  0  0
    3.7078   19.1418   -2.0335 H   0  0  0  0  0  0  0  0  0  0  0  0
    2.7348   18.1603   -3.1976 H   0  0  0  0  0  0  0  0  0  0  0  0
    1.4254   20.0477   -2.4997 H   0  0  0  0  0  0  0  0  0  0  0  0
    2.4030   20.5190   -0.5160 H   0  0  0  0  0  0  0  0  0  0  0  0
   -0.8839   17.2875   -3.2611 H   0  0  0  0  0  0  0  0  0  0  0  0
   -0.4143   18.9469   -3.7635 H   0  0  0  0  0  0  0  0  0  0  0  0
    0.8065   17.6292   -3.7635 H   0  0  0  0  0  0  0  0  0  0  0  0
   -0.8604   19.2142   -0.1303 H   0  0  0  0  0  0  0  0  0  0  0  0
   -0.7787   20.2664   -1.5839 H   0  0  0  0  0  0  0  0  0  0  0  0
   -1.8373   18.8152   -1.5839 H   0  0  0  0  0  0  0  0  0  0  0  0
    2.1169   14.9751    1.6605 H   0  0  0  0  0  0  0  0  0  0  0  0
    3.7086   14.7013    0.8743 H   0  0  0  0  0  0  0  0  0  0  0  0
    2.9772   16.3420    0.8743 H   0  0  0  0  0  0  0  0  0  0  0  0
    3.7220   14.6534   -1.8814 H   0  0  0  0  0  0  0  0  0  0  0  0
    3.4787   13.3516   -0.5846 H   0  0  0  0  0  0  0  0  0  0  0  0
    1.9992   13.6418   -3.2135 H   0  0  0  0  0  0  0  0  0  0  0  0
    3.1313   12.3319   -2.6936 H   0  0  0  0  0  0  0  0  0  0  0  0
    1.4998   11.8344    0.3921 H   0  0  0  0  0  0  0  0  0  0  0  0
    1.3748   10.3816   -0.6569 H   0  0  0  0  0  0  0  0  0  0  0  0
    2.8795   11.3626   -0.6569 H   0  0  0  0  0  0  0  0  0  0  0  0
  1  2  1  0
  2  3  1  0
  3  4  1  0
  4  5  1  0
  5  6  1  0
  6  7  1  0
  7  8  1  0
  7  9  1  0
  2 10  1  0
 10 11  1  0
 11 12  1  0
 12 13  1  0
 13 14  1  6
 13 15  1  0
 15 16  1  0
 16 17  1  0
 17 18  2  0
 18 19  1  0
 19 20  1  0
 20 21  1  0
 21 22  1  0
 22 23  1  0
 22 24  1  0
 24 25  1  0
 24 26  1  0
 19 27  1  0
 27 28  1  1
 27 29  1  0
 29 30  1  0
 30 31  1  0
 31 32  1  1
  7  5  1  0
 31 10  1  0
 31 13  1  0
 27 15  1  0
 24 18  1  0
  1 33  1  0
  1 34  1  0
  1 35  1  0
  2 36  1  6
  3 37  1  0
  3 38  1  0
  4 39  1  0
  4 40  1  0
  5 41  1  6
  8 42  1  0
  8 43  1  0
  8 44  1  0
  9 45  1  0
  9 46  1  0
  9 47  1  0
 10 48  1  6
 11 49  1  0
 11 50  1  0
 12 51  1  0
 12 52  1  0
 14 53  1  0
 14 54  1  0
 14 55  1  0
 15 56  1  1
 16 57  1  0
 16 58  1  0
 17 59  1  0
 19 60  1  6
 20 61  1  0
 20 62  1  0
 21 63  1  0
 21 64  1  0
 22 65  1  6
 23 66  1  0
 25 67  1  0
 25 68  1  0
 25 69  1  0
 26 70  1  0
 26 71  1  0
 26 72  1  0
 28 73  1  0
 28 74  1  0
 28 75  1  0
 29 76  1  0
 29 77  1  0
 30 78  1  0
 30 79  1  0
 32 80  1  0
 32 81  1  0
 32 82  1  0
M  END
>  <meeko>  (11) 
{"is_sidechain": [false], "intermolecular_energy": 2.731, "internal_energy": -0.839}

$$$$
EPH_relaxed_0001_pdb2pqr_Repair_121_r2_0001_out
     RDKit          3D

 82 86  0  0  0  0  0  0  0  0999 V2000
   -5.1090    7.0510   -3.2250 C   0  0  0  0  0  0  0  0  0  0  0  0
   -5.1250    7.3660   -1.7270 C   0  0  2  0  0  0  0  0  0  0  0  0
   -6.5590    7.4980   -1.1760 C   0  0  0  0  0  0  0  0  0  0  0  0
   -7.4680    6.3200   -1.5380 C   0  0  0  0  0  0  0  0  0  0  0  0
   -8.7890    6.7840   -2.0710 C   0  0  2  0  0  0  0  0  0  0  0  0
   -9.0290    8.1910   -1.9380 O   0  0  0  0  0  0  0  0  0  0  0  0
   -9.9020    7.3260   -1.1940 C   0  0  0  0  0  0  0  0  0  0  0  0
   -9.7440    7.4330    0.2900 C   0  0  0  0  0  0  0  0  0  0  0  0
  -11.3050    7.2930   -1.7150 C   0  0  0  0  0  0  0  0  0  0  0  0
   -4.3430    8.6460   -1.4560 C   0  0  1  0  0  0  0  0  0  0  0  0
   -4.9170    9.4560   -0.2630 C   0  0  0  0  0  0  0  0  0  0  0  0
   -3.7090   10.1120    0.4540 C   0  0  0  0  0  0  0  0  0  0  0  0
   -2.5290    9.9370   -0.5300 C   0  0  1  0  0  0  0  0  0  0  0  0
   -2.6980   11.0880   -1.5690 C   0  0  0  0  0  0  0  0  0  0  0  0
   -1.0980    9.9340    0.1010 C   0  0  2  0  0  0  0  0  0  0  0  0
   -0.6940   11.2410    0.8060 C   0  0  0  0  0  0  0  0  0  0  0  0
   -0.0050   12.2450   -0.0580 C   0  0  0  0  0  0  0  0  0  0  0  0
    0.5310   11.9990   -1.2670 C   0  0  0  0  0  0  0  0  0  0  0  0
    0.5610   10.5760   -1.8410 C   0  0  1  0  0  0  0  0  0  0  0  0
    1.9720   10.2780   -2.4130 C   0  0  0  0  0  0  0  0  0  0  0  0
    2.4260   11.3260   -3.4250 C   0  0  0  0  0  0  0  0  0  0  0  0
    2.4390   12.7180   -2.8010 C   0  0  2  0  0  0  0  0  0  0  0  0
    3.4550   12.7630   -1.7940 O   0  0  0  0  0  0  0  0  0  0  0  0
    1.0720   13.1250   -2.1830 C   0  0  0  0  0  0  0  0  0  0  0  0
    0.0420   13.3700   -3.3130 C   0  0  0  0  0  0  0  0  0  0  0  0
    1.2600   14.4880   -1.4630 C   0  0  0  0  0  0  0  0  0  0  0  0
    0.0400    9.4280   -0.8750 C   0  0  1  0  0  0  0  0  0  0  0  0
    1.2060    8.9200    0.0270 C   0  0  0  0  0  0  0  0  0  0  0  0
   -0.4200    8.1960   -1.7410 C   0  0  0  0  0  0  0  0  0  0  0  0
   -1.8790    8.1990   -2.2350 C   0  0  0  0  0  0  0  0  0  0  0  0
   -2.8460    8.5010   -1.0860 C   0  0  2  0  0  0  0  0  0  0  0  0
   -2.7140    7.3470   -0.0340 C   0  0  0  0  0  0  0  0  0  0  0  0
   -5.0537    5.9620   -3.3701 H   0  0  0  0  0  0  0  0  0  0  0  0
   -6.0279    7.4368   -3.6906 H   0  0  0  0  0  0  0  0  0  0  0  0
   -4.2339    7.5279   -3.6906 H   0  0  0  0  0  0  0  0  0  0  0  0
   -4.6482    6.5221   -1.2070 H   0  0  0  0  0  0  0  0  0  0  0  0
   -6.5046    7.5707   -0.0798 H   0  0  0  0  0  0  0  0  0  0  0  0
   -6.9984    8.3961   -1.6346 H   0  0  0  0  0  0  0  0  0  0  0  0
   -6.9698    5.7072   -2.3037 H   0  0  0  0  0  0  0  0  0  0  0  0
   -7.6525    5.7354   -0.6246 H   0  0  0  0  0  0  0  0  0  0  0  0
   -8.7744    6.0053   -2.8478 H   0  0  0  0  0  0  0  0  0  0  0  0
  -10.5570    6.8824    0.7859 H   0  0  0  0  0  0  0  0  0  0  0  0
   -8.7758    7.0040    0.5875 H   0  0  0  0  0  0  0  0  0  0  0  0
   -9.7831    8.4913    0.5875 H   0  0  0  0  0  0  0  0  0  0  0  0
  -12.0095    7.2764   -0.8704 H   0  0  0  0  0  0  0  0  0  0  0  0
  -11.4893    8.1871   -2.3287 H   0  0  0  0  0  0  0  0  0  0  0  0
  -11.4471    6.3913   -2.3287 H   0  0  0  0  0  0  0  0  0  0  0  0
   -4.4419    9.1327   -2.4375 H   0  0  0  0  0  0  0  0  0  0  0  0
   -5.6072   10.2307   -0.6282 H   0  0  0  0  0  0  0  0  0  0  0  0
   -5.4779    8.8047    0.4234 H   0  0  0  0  0  0  0  0  0  0  0  0
   -3.9020   11.1783    0.6432 H   0  0  0  0  0  0  0  0  0  0  0  0
   -3.5066    9.6543    1.4336 H   0  0  0  0  0  0  0  0  0  0  0  0
   -2.8381   12.0421   -1.0397 H   0  0  0  0  0  0  0  0  0  0  0  0
   -1.7989   11.1473   -2.2000 H   0  0  0  0  0  0  0  0  0  0  0  0
   -3.5762   10.8863   -2.2000 H   0  0  0  0  0  0  0  0  0  0  0  0
   -1.1925    9.1812    0.8975 H   0  0  0  0  0  0  0  0  0  0  0  0
   -1.6062   11.7068    1.2072 H   0  0  0  0  0  0  0  0  0  0  0  0
    0.0329   10.9566    1.5811 H   0  0  0  0  0  0  0  0  0  0  0  0
    0.0707   13.2728    0.3266 H   0  0  0  0  0  0  0  0  0  0  0  0
   -0.1818   10.5597   -2.6521 H   0  0  0  0  0  0  0  0  0  0  0  0
    2.6920   10.2553   -1.5817 H   0  0  0  0  0  0  0  0  0  0  0  0
    1.9240    9.3100   -2.9332 H   0  0  0  0  0  0  0  0  0  0  0  0
    3.4402   11.0770   -3.7704 H   0  0  0  0  0  0  0  0  0  0  0  0
    1.7210   11.3267   -4.2694 H   0  0  0  0  0  0  0  0  0  0  0  0
    2.6461   13.4383   -3.6061 H   0  0  0  0  0  0  0  0  0  0  0  0
    3.8600   13.6460   -1.8250 H   0  0  0  0  0  0  0  0  0  0  0  0
   -0.9382   13.6031   -2.8715 H   0  0  0  0  0  0  0  0  0  0  0  0
    0.3741   14.2142   -3.9351 H   0  0  0  0  0  0  0  0  0  0  0  0
   -0.0416   12.4667   -3.9351 H   0  0  0  0  0  0  0  0  0  0  0  0
    1.2387   14.3335   -0.3741 H   0  0  0  0  0  0  0  0  0  0  0  0
    2.2270   14.9253   -1.7524 H   0  0  0  0  0  0  0  0  0  0  0  0
    0.4475   15.1707   -1.7524 H   0  0  0  0  0  0  0  0  0  0  0  0
    0.9302    9.0402    1.0851 H   0  0  0  0  0  0  0  0  0  0  0  0
    1.3965    7.8573   -0.1839 H   0  0  0  0  0  0  0  0  0  0  0  0
    2.1139    9.5041   -0.1839 H   0  0  0  0  0  0  0  0  0  0  0  0
    0.2309    8.1504   -2.6266 H   0  0  0  0  0  0  0  0  0  0  0  0
   -0.3460    7.3285   -1.0687 H   0  0  0  0  0  0  0  0  0  0  0  0
   -1.9938    8.9677   -3.0134 H   0  0  0  0  0  0  0  0  0  0  0  0
   -2.1146    7.2035   -2.6393 H   0  0  0  0  0  0  0  0  0  0  0  0
   -2.7622    7.7687    0.9808 H   0  0  0  0  0  0  0  0  0  0  0  0
   -3.5359    6.6291   -0.1722 H   0  0  0  0  0  0  0  0  0  0  0  0
   -1.7512    6.8332   -0.1722 H   0  0  0  0  0  0  0  0  0  0  0  0
  1  2  1  0
  2  3  1  0
  3  4  1  0
  4  5  1  0
  5  6  1  0
  6  7  1  0
  7  8  1  0
  7  9  1  0
  2 10  1  0
 10 11  1  0
 11 12  1  0
 12 13  1  0
 13 14  1  6
 13 15  1  0
 15 16  1  0
 16 17  1  0
 17 18  2  0
 18 19  1  0
 19 20  1  0
 20 21  1  0
 21 22  1  0
 22 23  1  0
 22 24  1  0
 24 25  1  0
 24 26  1  0
 19 27  1  0
 27 28  1  1
 27 29  1  0
 29 30  1  0
 30 31  1  0
 31 32  1  1
  7  5  1  0
 31 10  1  0
 31 13  1  0
 27 15  1  0
 24 18  1  0
  1 33  1  0
  1 34  1  0
  1 35  1  0
  2 36  1  1
  3 37  1  0
  3 38  1  0
  4 39  1  0
  4 40  1  0
  5 41  1  6
  8 42  1  0
  8 43  1  0
  8 44  1  0
  9 45  1  0
  9 46  1  0
  9 47  1  0
 10 48  1  6
 11 49  1  0
 11 50  1  0
 12 51  1  0
 12 52  1  0
 14 53  1  0
 14 54  1  0
 14 55  1  0
 15 56  1  1
 16 57  1  0
 16 58  1  0
 17 59  1  0
 19 60  1  6
 20 61  1  0
 20 62  1  0
 21 63  1  0
 21 64  1  0
 22 65  1  6
 23 66  1  0
 25 67  1  0
 25 68  1  0
 25 69  1  0
 26 70  1  0
 26 71  1  0
 26 72  1  0
 28 73  1  0
 28 74  1  0
 28 75  1  0
 29 76  1  0
 29 77  1  0
 30 78  1  0
 30 79  1  0
 32 80  1  0
 32 81  1  0
 32 82  1  0
M  END
>  <meeko>  (12) 
{"is_sidechain": [false], "intermolecular_energy": 2.731, "internal_energy": -0.839}

$$$$
EPH_relaxed_0001_pdb2pqr_Repair_121_r2_0001_out
     RDKit          3D

 82 86  0  0  0  0  0  0  0  0999 V2000
    2.7580   18.2330   -3.4910 C   0  0  0  0  0  0  0  0  0  0  0  0
    2.0480   18.0240   -2.1510 C   0  0  2  0  0  0  0  0  0  0  0  0
    2.4410   19.0930   -1.1120 C   0  0  0  0  0  0  0  0  0  0  0  0
    2.0340   18.7380    0.3200 C   0  0  0  0  0  0  0  0  0  0  0  0
    2.5950   19.7100    1.3130 C   0  0  2  0  0  0  0  0  0  0  0  0
    3.9080   20.1940    1.0010 O   0  0  0  0  0  0  0  0  0  0  0  0
    3.7910   19.4060    2.1970 C   0  0  0  0  0  0  0  0  0  0  0  0
    4.4970   18.0880    2.1290 C   0  0  0  0  0  0  0  0  0  0  0  0
    3.9680   20.1940    3.4570 C   0  0  0  0  0  0  0  0  0  0  0  0
    2.3580   16.6330   -1.6100 C   0  0  1  0  0  0  0  0  0  0  0  0
    3.1380   16.6740   -0.2700 C   0  0  0  0  0  0  0  0  0  0  0  0
    2.6450   15.4690    0.5720 C   0  0  0  0  0  0  0  0  0  0  0  0
    1.8530   14.5930   -0.4270 C   0  0  1  0  0  0  0  0  0  0  0  0
    2.9400   13.7750   -1.1920 C   0  0  0  0  0  0  0  0  0  0  0  0
    0.7560   13.6630    0.1870 C   0  0  2  0  0  0  0  0  0  0  0  0
    1.2800   12.5900    1.1580 C   0  0  0  0  0  0  0  0  0  0  0  0
    1.6380   11.2840    0.5320 C   0  0  0  0  0  0  0  0  0  0  0  0
    1.2810   10.8840   -0.7030 C   0  0  0  0  0  0  0  0  0  0  0  0
    0.3530   11.7430   -1.5710 C   0  0  1  0  0  0  0  0  0  0  0  0
   -0.7480   10.8470   -2.1950 C   0  0  0  0  0  0  0  0  0  0  0  0
   -0.1730    9.6570   -2.9570 C   0  0  0  0  0  0  0  0  0  0  0  0
    0.6960    8.7950   -2.0450 C   0  0  2  0  0  0  0  0  0  0  0  0
   -0.1370    8.1870   -1.0530 O   0  0  0  0  0  0  0  0  0  0  0  0
    1.8360    9.5920   -1.3520 C   0  0  0  0  0  0  0  0  0  0  0  0
    2.9020    9.9950   -2.4010 C   0  0  0  0  0  0  0  0  0  0  0  0
    2.5480    8.6390   -0.3550 C   0  0  0  0  0  0  0  0  0  0  0  0
   -0.2390   13.0440   -0.8760 C   0  0  1  0  0  0  0  0  0  0  0  0
   -1.5470   12.6880   -0.1070 C   0  0  0  0  0  0  0  0  0  0  0  0
   -0.6460   14.0810   -1.9890 C   0  0  0  0  0  0  0  0  0  0  0  0
    0.4500   15.0520   -2.4690 C   0  0  0  0  0  0  0  0  0  0  0  0
    1.1550   15.7130   -1.2810 C   0  0  2  0  0  0  0  0  0  0  0  0
    0.0910   16.5620   -0.5050 C   0  0  0  0  0  0  0  0  0  0  0  0
    3.7989   18.5394   -3.3105 H   0  0  0  0  0  0  0  0  0  0  0  0
    2.7462   17.2933   -4.0627 H   0  0  0  0  0  0  0  0  0  0  0  0
    2.2390   19.0165   -4.0627 H   0  0  0  0  0  0  0  0  0  0  0  0
    0.9671   18.1208   -2.3309 H   0  0  0  0  0  0  0  0  0  0  0  0
    3.5332   19.2206   -1.1411 H   0  0  0  0  0  0  0  0  0  0  0  0
    1.9035   20.0146   -1.3799 H   0  0  0  0  0  0  0  0  0  0  0  0
    0.9364   18.7488    0.3917 H   0  0  0  0  0  0  0  0  0  0  0  0
    2.4346   17.7404    0.5529 H   0  0  0  0  0  0  0  0  0  0  0  0
    1.5901   20.0965    1.5382 H   0  0  0  0  0  0  0  0  0  0  0  0
    4.6922   17.7236    3.1484 H   0  0  0  0  0  0  0  0  0  0  0  0
    3.8671   17.3618    1.5943 H   0  0  0  0  0  0  0  0  0  0  0  0
    5.4505   18.2100    1.5943 H   0  0  0  0  0  0  0  0  0  0  0  0
    3.8200   19.5352    4.3253 H   0  0  0  0  0  0  0  0  0  0  0  0
    4.9834   20.6162    3.4859 H   0  0  0  0  0  0  0  0  0  0  0  0
    3.2307   21.0098    3.4859 H   0  0  0  0  0  0  0  0  0  0  0  0
    2.9212   16.2250   -2.4622 H   0  0  0  0  0  0  0  0  0  0  0  0
    4.2184   16.5880   -0.4579 H   0  0  0  0  0  0  0  0  0  0  0  0
    2.9644   17.6227    0.2590 H   0  0  0  0  0  0  0  0  0  0  0  0
    3.4971   14.9108    0.9872 H   0  0  0  0  0  0  0  0  0  0  0  0
    2.0315   15.7824    1.4295 H   0  0  0  0  0  0  0  0  0  0  0  0
    3.6015   13.2772   -0.4678 H   0  0  0  0  0  0  0  0  0  0  0  0
    2.4522   13.0180   -1.8237 H   0  0  0  0  0  0  0  0  0  0  0  0
    3.5323   14.4533   -1.8237 H   0  0  0  0  0  0  0  0  0  0  0  0
    0.1705   14.3627    0.8016 H   0  0  0  0  0  0  0  0  0  0  0  0
    2.1789   12.9881    1.6515 H   0  0  0  0  0  0  0  0  0  0  0  0
    0.4534   12.3782    1.8522 H   0  0  0  0  0  0  0  0  0  0  0  0
    2.2452   10.5888    1.1303 H   0  0  0  0  0  0  0  0  0  0  0  0
    0.9849   12.1656   -2.3661 H   0  0  0  0  0  0  0  0  0  0  0  0
   -1.3946   10.4702   -1.3888 H   0  0  0  0  0  0  0  0  0  0  0  0
   -1.3113   11.4618   -2.9125 H   0  0  0  0  0  0  0  0  0  0  0  0
   -0.9999    9.0466   -3.3489 H   0  0  0  0  0  0  0  0  0  0  0  0
    0.4495   10.0350   -3.7814 H   0  0  0  0  0  0  0  0  0  0  0  0
    1.1821    8.0357   -2.6752 H   0  0  0  0  0  0  0  0  0  0  0  0
   -0.5700    8.9010   -0.5550 H   0  0  0  0  0  0  0  0  0  0  0  0
    3.8113   10.3388   -1.8863 H   0  0  0  0  0  0  0  0  0  0  0  0
    3.1435    9.1261   -3.0308 H   0  0  0  0  0  0  0  0  0  0  0  0
    2.5083   10.8063   -3.0308 H   0  0  0  0  0  0  0  0  0  0  0  0
    2.3175    8.9475    0.6754 H   0  0  0  0  0  0  0  0  0  0  0  0
    2.1960    7.6095   -0.5169 H   0  0  0  0  0  0  0  0  0  0  0  0
    3.6351    8.6846   -0.5169 H   0  0  0  0  0  0  0  0  0  0  0  0
   -1.3610   12.7386    0.9760 H   0  0  0  0  0  0  0  0  0  0  0  0
   -2.3375   13.4037   -0.3771 H   0  0  0  0  0  0  0  0  0  0  0  0
   -1.8657   11.6704   -0.3771 H   0  0  0  0  0  0  0  0  0  0  0  0
   -0.9921   13.5112   -2.8640 H   0  0  0  0  0  0  0  0  0  0  0  0
   -1.4108   14.7189   -1.5219 H   0  0  0  0  0  0  0  0  0  0  0  0
    1.1901   14.4946   -3.0620 H   0  0  0  0  0  0  0  0  0  0  0  0
   -0.0198   15.8373   -3.0794 H   0  0  0  0  0  0  0  0  0  0  0  0
    0.2435   16.4403    0.5776 H   0  0  0  0  0  0  0  0  0  0  0  0
    0.2015   17.6229   -0.7739 H   0  0  0  0  0  0  0  0  0  0  0  0
   -0.9189   16.2188   -0.7739 H   0  0  0  0  0  0  0  0  0  0  0  0
  1  2  1  0
  2  3  1  0
  3  4  1  0
  4  5  1  0
  5  6  1  0
  6  7  1  0
  7  8  1  0
  7  9  1  0
  2 10  1  0
 10 11  1  0
 11 12  1  0
 12 13  1  0
 13 14  1  6
 13 15  1  0
 15 16  1  0
 16 17  1  0
 17 18  2  0
 18 19  1  0
 19 20  1  0
 20 21  1  0
 21 22  1  0
 22 23  1  0
 22 24  1  0
 24 25  1  0
 24 26  1  0
 19 27  1  0
 27 28  1  1
 27 29  1  0
 29 30  1  0
 30 31  1  0
 31 32  1  1
  7  5  1  0
 31 10  1  0
 31 13  1  0
 27 15  1  0
 24 18  1  0
  1 33  1  0
  1 34  1  0
  1 35  1  0
  2 36  1  6
  3 37  1  0
  3 38  1  0
  4 39  1  0
  4 40  1  0
  5 41  1  1
  8 42  1  0
  8 43  1  0
  8 44  1  0
  9 45  1  0
  9 46  1  0
  9 47  1  0
 10 48  1  6
 11 49  1  0
 11 50  1  0
 12 51  1  0
 12 52  1  0
 14 53  1  0
 14 54  1  0
 14 55  1  0
 15 56  1  1
 16 57  1  0
 16 58  1  0
 17 59  1  0
 19 60  1  6
 20 61  1  0
 20 62  1  0
 21 63  1  0
 21 64  1  0
 22 65  1  6
 23 66  1  0
 25 67  1  0
 25 68  1  0
 25 69  1  0
 26 70  1  0
 26 71  1  0
 26 72  1  0
 28 73  1  0
 28 74  1  0
 28 75  1  0
 29 76  1  0
 29 77  1  0
 30 78  1  0
 30 79  1  0
 32 80  1  0
 32 81  1  0
 32 82  1  0
M  END
>  <meeko>  (13) 
{"is_sidechain": [false], "intermolecular_energy": 2.731, "internal_energy": -0.839}

$$$$
EPH_relaxed_0001_pdb2pqr_Repair_121_r2_0001_out
     RDKit          3D

 82 86  0  0  0  0  0  0  0  0999 V2000
    2.0190   10.8210   -8.1710 C   0  0  0  0  0  0  0  0  0  0  0  0
    1.2520   11.7440   -7.2210 C   0  0  2  0  0  0  0  0  0  0  0  0
    1.4130   13.2300   -7.6000 C   0  0  0  0  0  0  0  0  0  0  0  0
    0.5110   13.6720   -8.7560 C   0  0  0  0  0  0  0  0  0  0  0  0
    1.2860   13.8480  -10.0270 C   0  0  2  0  0  0  0  0  0  0  0  0
    2.6840   14.1090   -9.8450 O   0  0  0  0  0  0  0  0  0  0  0  0
    1.9160   15.1630  -10.4480 C   0  0  0  0  0  0  0  0  0  0  0  0
    1.7970   16.3910   -9.6010 C   0  0  0  0  0  0  0  0  0  0  0  0
    2.2210   15.3780  -11.8970 C   0  0  0  0  0  0  0  0  0  0  0  0
    1.7180   11.5180   -5.7880 C   0  0  1  0  0  0  0  0  0  0  0  0
    3.2610   11.3990   -5.6730 C   0  0  0  0  0  0  0  0  0  0  0  0
    3.6600   12.0450   -4.3210 C   0  0  0  0  0  0  0  0  0  0  0  0
    2.3240   12.2120   -3.5590 C   0  0  1  0  0  0  0  0  0  0  0  0
    2.0330   10.8070   -2.9460 C   0  0  0  0  0  0  0  0  0  0  0  0
    2.2840   13.3360   -2.4730 C   0  0  2  0  0  0  0  0  0  0  0  0
    3.2620   13.1450   -1.3000 C   0  0  0  0  0  0  0  0  0  0  0  0
    2.7200   12.3870   -0.1340 C   0  0  0  0  0  0  0  0  0  0  0  0
    1.4190   12.1260    0.0920 C   0  0  0  0  0  0  0  0  0  0  0  0
    0.3300   12.6950   -0.8260 C   0  0  1  0  0  0  0  0  0  0  0  0
   -0.8110   13.2980    0.0350 C   0  0  0  0  0  0  0  0  0  0  0  0
   -1.3650   12.3030    1.0500 C   0  0  0  0  0  0  0  0  0  0  0  0
   -0.2640   11.8040    1.9820 C   0  0  2  0  0  0  0  0  0  0  0  0
    0.1830   12.8960    2.7920 O   0  0  0  0  0  0  0  0  0  0  0  0
    0.9440   11.1840    1.2260 C   0  0  0  0  0  0  0  0  0  0  0  0
    0.5250    9.8340    0.5940 C   0  0  0  0  0  0  0  0  0  0  0  0
    2.0420   10.8510    2.2720 C   0  0  0  0  0  0  0  0  0  0  0  0
    0.8300   13.6900   -1.9600 C   0  0  1  0  0  0  0  0  0  0  0  0
    0.8970   15.1440   -1.4000 C   0  0  0  0  0  0  0  0  0  0  0  0
   -0.2270   13.7130   -3.1270 C   0  0  0  0  0  0  0  0  0  0  0  0
   -0.0640   12.6530   -4.2330 C   0  0  0  0  0  0  0  0  0  0  0  0
    1.3780   12.6160   -4.7480 C   0  0  2  0  0  0  0  0  0  0  0  0
    1.6920   14.0100   -5.3910 C   0  0  0  0  0  0  0  0  0  0  0  0
    2.6141   10.1048   -7.5854 H   0  0  0  0  0  0  0  0  0  0  0  0
    1.3063   10.2734   -8.8052 H   0  0  0  0  0  0  0  0  0  0  0  0
    2.6878   11.4214   -8.8052 H   0  0  0  0  0  0  0  0  0  0  0  0
    0.1840   11.4952   -7.3077 H   0  0  0  0  0  0  0  0  0  0  0  0
    1.1717   13.8414   -6.7180 H   0  0  0  0  0  0  0  0  0  0  0  0
    2.4524   13.3658   -7.9334 H   0  0  0  0  0  0  0  0  0  0  0  0
   -0.2653   12.9090   -8.9144 H   0  0  0  0  0  0  0  0  0  0  0  0
    0.0627   14.6408   -8.4904 H   0  0  0  0  0  0  0  0  0  0  0  0
    0.6257   13.1439  -10.5544 H   0  0  0  0  0  0  0  0  0  0  0  0
    1.8245   16.1076   -8.5385 H   0  0  0  0  0  0  0  0  0  0  0  0
    2.6335   17.0706   -9.8210 H   0  0  0  0  0  0  0  0  0  0  0  0
    0.8456   16.8974   -9.8210 H   0  0  0  0  0  0  0  0  0  0  0  0
    3.1166   16.0093  -11.9934 H   0  0  0  0  0  0  0  0  0  0  0  0
    2.4028   14.4073  -12.3814 H   0  0  0  0  0  0  0  0  0  0  0  0
    1.3678   15.8755  -12.3814 H   0  0  0  0  0  0  0  0  0  0  0  0
    1.1637   10.5964   -5.5571 H   0  0  0  0  0  0  0  0  0  0  0  0
    3.5617   10.3410   -5.6907 H   0  0  0  0  0  0  0  0  0  0  0  0
    3.7598   11.9030   -6.5140 H   0  0  0  0  0  0  0  0  0  0  0  0
    4.3452   11.3888   -3.7643 H   0  0  0  0  0  0  0  0  0  0  0  0
    4.1863   13.0016   -4.4549 H   0  0  0  0  0  0  0  0  0  0  0  0
    2.0473   10.8758   -1.8482 H   0  0  0  0  0  0  0  0  0  0  0  0
    1.0438   10.4595   -3.2788 H   0  0  0  0  0  0  0  0  0  0  0  0
    2.8028   10.0952   -3.2788 H   0  0  0  0  0  0  0  0  0  0  0  0
    2.6494   14.2128   -3.0277 H   0  0  0  0  0  0  0  0  0  0  0  0
    4.1430   12.6046   -1.6767 H   0  0  0  0  0  0  0  0  0  0  0  0
    3.4900   14.1544   -0.9269 H   0  0  0  0  0  0  0  0  0  0  0  0
    3.4448   12.0099    0.6026 H   0  0  0  0  0  0  0  0  0  0  0  0
   -0.0525   11.8435   -1.4080 H   0  0  0  0  0  0  0  0  0  0  0  0
   -0.4205   14.1728    0.5755 H   0  0  0  0  0  0  0  0  0  0  0  0
   -1.6312   13.5750   -0.6436 H   0  0  0  0  0  0  0  0  0  0  0  0
   -2.1464   12.7955    1.6473 H   0  0  0  0  0  0  0  0  0  0  0  0
   -1.7815   11.4422    0.5064 H   0  0  0  0  0  0  0  0  0  0  0  0
   -0.6922   11.0007    2.5995 H   0  0  0  0  0  0  0  0  0  0  0  0
    0.2410   13.6810    2.2220 H   0  0  0  0  0  0  0  0  0  0  0  0
    0.3003    9.1100    1.3911 H   0  0  0  0  0  0  0  0  0  0  0  0
   -0.3693    9.9827   -0.0290 H   0  0  0  0  0  0  0  0  0  0  0  0
    1.3463    9.4502   -0.0290 H   0  0  0  0  0  0  0  0  0  0  0  0
    1.6327   10.9751    3.2854 H   0  0  0  0  0  0  0  0  0  0  0  0
    2.3750    9.8115    2.1358 H   0  0  0  0  0  0  0  0  0  0  0  0
    2.8963   11.5305    2.1358 H   0  0  0  0  0  0  0  0  0  0  0  0
    0.8956   15.1138   -0.3004 H   0  0  0  0  0  0  0  0  0  0  0  0
    1.8185   15.6305   -1.7523 H   0  0  0  0  0  0  0  0  0  0  0  0
    0.0241   15.7132   -1.7523 H   0  0  0  0  0  0  0  0  0  0  0  0
   -1.2216   13.5750   -2.6779 H   0  0  0  0  0  0  0  0  0  0  0  0
   -0.0786   14.6796   -3.6307 H   0  0  0  0  0  0  0  0  0  0  0  0
   -0.3264   11.6652   -3.8263 H   0  0  0  0  0  0  0  0  0  0  0  0
   -0.7289   12.9137   -5.0697 H   0  0  0  0  0  0  0  0  0  0  0  0
    1.8590   14.7514   -4.5957 H   0  0  0  0  0  0  0  0  0  0  0  0
    2.5949   13.9313   -6.0143 H   0  0  0  0  0  0  0  0  0  0  0  0
    0.8425   14.3260   -6.0143 H   0  0  0  0  0  0  0  0  0  0  0  0
  1  2  1  0
  2  3  1  0
  3  4  1  0
  4  5  1  0
  5  6  1  0
  6  7  1  0
  7  8  1  0
  7  9  1  0
  2 10  1  0
 10 11  1  0
 11 12  1  0
 12 13  1  0
 13 14  1  1
 13 15  1  0
 15 16  1  0
 16 17  1  0
 17 18  2  0
 18 19  1  0
 19 20  1  0
 20 21  1  0
 21 22  1  0
 22 23  1  0
 22 24  1  0
 24 25  1  0
 24 26  1  0
 19 27  1  0
 27 28  1  1
 27 29  1  0
 29 30  1  0
 30 31  1  0
 31 32  1  6
  7  5  1  0
 31 10  1  0
 31 13  1  0
 27 15  1  0
 24 18  1  0
  1 33  1  0
  1 34  1  0
  1 35  1  0
  2 36  1  1
  3 37  1  0
  3 38  1  0
  4 39  1  0
  4 40  1  0
  5 41  1  6
  8 42  1  0
  8 43  1  0
  8 44  1  0
  9 45  1  0
  9 46  1  0
  9 47  1  0
 10 48  1  1
 11 49  1  0
 11 50  1  0
 12 51  1  0
 12 52  1  0
 14 53  1  0
 14 54  1  0
 14 55  1  0
 15 56  1  6
 16 57  1  0
 16 58  1  0
 17 59  1  0
 19 60  1  6
 20 61  1  0
 20 62  1  0
 21 63  1  0
 21 64  1  0
 22 65  1  1
 23 66  1  0
 25 67  1  0
 25 68  1  0
 25 69  1  0
 26 70  1  0
 26 71  1  0
 26 72  1  0
 28 73  1  0
 28 74  1  0
 28 75  1  0
 29 76  1  0
 29 77  1  0
 30 78  1  0
 30 79  1  0
 32 80  1  0
 32 81  1  0
 32 82  1  0
M  END
>  <meeko>  (14) 
{"is_sidechain": [false], "intermolecular_energy": 2.731, "internal_energy": -0.839}

$$$$
EPH_relaxed_0001_pdb2pqr_Repair_121_r2_0001_out
     RDKit          3D

 82 86  0  0  0  0  0  0  0  0999 V2000
    2.4510   14.2410   -0.9490 C   0  0  0  0  0  0  0  0  0  0  0  0
    1.9740   12.8580   -1.4000 C   0  0  2  0  0  0  0  0  0  0  0  0
    2.6770   11.7220   -0.6310 C   0  0  0  0  0  0  0  0  0  0  0  0
    1.7740   11.0110    0.3800 C   0  0  0  0  0  0  0  0  0  0  0  0
    0.3270   11.3260    0.1480 C   0  0  2  0  0  0  0  0  0  0  0  0
   -0.5900   10.4790    0.8520 O   0  0  0  0  0  0  0  0  0  0  0  0
   -0.6250   10.3960   -0.5820 C   0  0  0  0  0  0  0  0  0  0  0  0
   -0.1660    9.0800   -1.1260 C   0  0  0  0  0  0  0  0  0  0  0  0
   -1.8650   10.9750   -1.1890 C   0  0  0  0  0  0  0  0  0  0  0  0
    2.2010   12.6930   -2.8980 C   0  0  1  0  0  0  0  0  0  0  0  0
    2.0670   11.2180   -3.3630 C   0  0  0  0  0  0  0  0  0  0  0  0
    1.4430   11.2520   -4.7820 C   0  0  0  0  0  0  0  0  0  0  0  0
    1.5450   12.7320   -5.2180 C   0  0  1  0  0  0  0  0  0  0  0  0
    3.0120   12.9010   -5.7230 C   0  0  0  0  0  0  0  0  0  0  0  0
    0.5090   13.2110   -6.2860 C   0  0  2  0  0  0  0  0  0  0  0  0
    0.6010   12.5020   -7.6490 C   0  0  0  0  0  0  0  0  0  0  0  0
    1.5050   13.1500   -8.6450 C   0  0  0  0  0  0  0  0  0  0  0  0
    1.9920   14.4020   -8.5600 C   0  0  0  0  0  0  0  0  0  0  0  0
    1.5600   15.3400   -7.4260 C   0  0  1  0  0  0  0  0  0  0  0  0
    1.2070   16.7330   -8.0120 C   0  0  0  0  0  0  0  0  0  0  0  0
    2.3370   17.3170   -8.8540 C   0  0  0  0  0  0  0  0  0  0  0  0
    2.6980   16.3820  -10.0060 C   0  0  2  0  0  0  0  0  0  0  0  0
    1.5960   16.3260  -10.9170 O   0  0  0  0  0  0  0  0  0  0  0  0
    3.0630   14.9460   -9.5380 C   0  0  0  0  0  0  0  0  0  0  0  0
    4.4250   14.9690   -8.8010 C   0  0  0  0  0  0  0  0  0  0  0  0
    3.2680   14.0690  -10.8020 C   0  0  0  0  0  0  0  0  0  0  0  0
    0.4310   14.7820   -6.4560 C   0  0  1  0  0  0  0  0  0  0  0  0
   -0.9780   15.0980   -7.0430 C   0  0  0  0  0  0  0  0  0  0  0  0
    0.5180   15.5380   -5.0780 C   0  0  0  0  0  0  0  0  0  0  0  0
    1.4710   14.9480   -4.0200 C   0  0  0  0  0  0  0  0  0  0  0  0
    1.2370   13.4430   -3.8500 C   0  0  2  0  0  0  0  0  0  0  0  0
   -0.2250   13.2430   -3.3220 C   0  0  0  0  0  0  0  0  0  0  0  0
    2.4656   14.2834    0.1501 H   0  0  0  0  0  0  0  0  0  0  0  0
    3.4641   14.4238   -1.3365 H   0  0  0  0  0  0  0  0  0  0  0  0
    1.7660   15.0095   -1.3365 H   0  0  0  0  0  0  0  0  0  0  0  0
    0.8988   12.7898   -1.1778 H   0  0  0  0  0  0  0  0  0  0  0  0
    3.0346   10.9793   -1.3594 H   0  0  0  0  0  0  0  0  0  0  0  0
    3.4982   12.1807   -0.0608 H   0  0  0  0  0  0  0  0  0  0  0  0
    1.9217    9.9249    0.2879 H   0  0  0  0  0  0  0  0  0  0  0  0
    2.0442   11.3614    1.3871 H   0  0  0  0  0  0  0  0  0  0  0  0
    0.5551   12.3948    0.0232 H   0  0  0  0  0  0  0  0  0  0  0  0
    0.0707    8.4014   -0.2932 H   0  0  0  0  0  0  0  0  0  0  0  0
   -0.9636    8.6397   -1.7424 H   0  0  0  0  0  0  0  0  0  0  0  0
    0.7324    9.2313   -1.7424 H   0  0  0  0  0  0  0  0  0  0  0  0
   -2.5497   11.2947   -0.3896 H   0  0  0  0  0  0  0  0  0  0  0  0
   -1.5982   11.8417   -1.8117 H   0  0  0  0  0  0  0  0  0  0  0  0
   -2.3582   10.2141   -1.8117 H   0  0  0  0  0  0  0  0  0  0  0  0
    3.2136   13.1151   -2.9790 H   0  0  0  0  0  0  0  0  0  0  0  0
    3.0570   10.7396   -3.3958 H   0  0  0  0  0  0  0  0  0  0  0  0
    1.4390   10.6402   -2.6688 H   0  0  0  0  0  0  0  0  0  0  0  0
    2.0071   10.6049   -5.4698 H   0  0  0  0  0  0  0  0  0  0  0  0
    0.4059   10.8853   -4.7904 H   0  0  0  0  0  0  0  0  0  0  0  0
    3.6900   12.9791   -4.8603 H   0  0  0  0  0  0  0  0  0  0  0  0
    3.2928   12.0293   -6.3323 H   0  0  0  0  0  0  0  0  0  0  0  0
    3.0872   13.8137   -6.3323 H   0  0  0  0  0  0  0  0  0  0  0  0
   -0.4469   12.8903   -5.8462 H   0  0  0  0  0  0  0  0  0  0  0  0
    0.9642   11.4783   -7.4758 H   0  0  0  0  0  0  0  0  0  0  0  0
   -0.4091   12.5435   -8.0825 H   0  0  0  0  0  0  0  0  0  0  0  0
    1.7977   12.5541   -9.5221 H   0  0  0  0  0  0  0  0  0  0  0  0
    2.4279   15.4260   -6.7556 H   0  0  0  0  0  0  0  0  0  0  0  0
    0.3119   16.6333   -8.6436 H   0  0  0  0  0  0  0  0  0  0  0  0
    1.0327   17.4160   -7.1675 H   0  0  0  0  0  0  0  0  0  0  0  0
    2.0168   18.2863   -9.2638 H   0  0  0  0  0  0  0  0  0  0  0  0
    3.2225   17.4439   -8.2139 H   0  0  0  0  0  0  0  0  0  0  0  0
    3.5956   16.7903  -10.4934 H   0  0  0  0  0  0  0  0  0  0  0  0
    1.1840   15.4500  -10.8260 H   0  0  0  0  0  0  0  0  0  0  0  0
    4.2540   14.9661   -7.7144 H   0  0  0  0  0  0  0  0  0  0  0  0
    5.0093   14.0806   -9.0826 H   0  0  0  0  0  0  0  0  0  0  0  0
    4.9790   15.8766   -9.0826 H   0  0  0  0  0  0  0  0  0  0  0  0
    3.5087   13.0394  -10.4988 H   0  0  0  0  0  0  0  0  0  0  0  0
    2.3457   14.0686  -11.4015 H   0  0  0  0  0  0  0  0  0  0  0  0
    4.0949   14.4775  -11.4015 H   0  0  0  0  0  0  0  0  0  0  0  0
   -1.6905   15.2578   -6.2203 H   0  0  0  0  0  0  0  0  0  0  0  0
   -0.9224   16.0060   -7.6615 H   0  0  0  0  0  0  0  0  0  0  0  0
   -1.3154   14.2532   -7.6615 H   0  0  0  0  0  0  0  0  0  0  0  0
    0.8457   16.5677   -5.2836 H   0  0  0  0  0  0  0  0  0  0  0  0
   -0.4871   15.4527   -4.6392 H   0  0  0  0  0  0  0  0  0  0  0  0
    2.5105   15.1170   -4.3377 H   0  0  0  0  0  0  0  0  0  0  0  0
    1.2773   15.4442   -3.0576 H   0  0  0  0  0  0  0  0  0  0  0  0
   -0.2209   13.2436   -2.2220 H   0  0  0  0  0  0  0  0  0  0  0  0
   -0.8619   14.0624   -3.6867 H   0  0  0  0  0  0  0  0  0  0  0  0
   -0.6184   12.2827   -3.6867 H   0  0  0  0  0  0  0  0  0  0  0  0
  1  2  1  0
  2  3  1  0
  3  4  1  0
  4  5  1  0
  5  6  1  0
  6  7  1  0
  7  8  1  0
  7  9  1  0
  2 10  1  0
 10 11  1  0
 11 12  1  0
 12 13  1  0
 13 14  1  6
 13 15  1  0
 15 16  1  0
 16 17  1  0
 17 18  2  0
 18 19  1  0
 19 20  1  0
 20 21  1  0
 21 22  1  0
 22 23  1  0
 22 24  1  0
 24 25  1  0
 24 26  1  0
 19 27  1  0
 27 28  1  6
 27 29  1  0
 29 30  1  0
 30 31  1  0
 31 32  1  1
  7  5  1  0
 31 10  1  0
 31 13  1  0
 27 15  1  0
 24 18  1  0
  1 33  1  0
  1 34  1  0
  1 35  1  0
  2 36  1  6
  3 37  1  0
  3 38  1  0
  4 39  1  0
  4 40  1  0
  5 41  1  6
  8 42  1  0
  8 43  1  0
  8 44  1  0
  9 45  1  0
  9 46  1  0
  9 47  1  0
 10 48  1  1
 11 49  1  0
 11 50  1  0
 12 51  1  0
 12 52  1  0
 14 53  1  0
 14 54  1  0
 14 55  1  0
 15 56  1  1
 16 57  1  0
 16 58  1  0
 17 59  1  0
 19 60  1  1
 20 61  1  0
 20 62  1  0
 21 63  1  0
 21 64  1  0
 22 65  1  6
 23 66  1  0
 25 67  1  0
 25 68  1  0
 25 69  1  0
 26 70  1  0
 26 71  1  0
 26 72  1  0
 28 73  1  0
 28 74  1  0
 28 75  1  0
 29 76  1  0
 29 77  1  0
 30 78  1  0
 30 79  1  0
 32 80  1  0
 32 81  1  0
 32 82  1  0
M  END
>  <meeko>  (15) 
{"is_sidechain": [false], "intermolecular_energy": 2.731, "internal_energy": -0.839}

$$$$
EPH_relaxed_0001_pdb2pqr_Repair_121_r2_0001_out
     RDKit          3D

 82 86  0  0  0  0  0  0  0  0999 V2000
    2.1360   15.8830   -0.5500 C   0  0  0  0  0  0  0  0  0  0  0  0
    1.9460   15.7840   -2.0660 C   0  0  2  0  0  0  0  0  0  0  0  0
    1.3350   17.0690   -2.6600 C   0  0  0  0  0  0  0  0  0  0  0  0
    1.7200   18.3410   -1.9010 C   0  0  0  0  0  0  0  0  0  0  0  0
    0.6170   19.3550   -1.9240 C   0  0  2  0  0  0  0  0  0  0  0  0
    0.5520   20.1940   -0.7630 O   0  0  0  0  0  0  0  0  0  0  0  0
   -0.5690   19.3220   -0.9780 C   0  0  0  0  0  0  0  0  0  0  0  0
   -0.7130   18.2490    0.0560 C   0  0  0  0  0  0  0  0  0  0  0  0
   -1.8230   20.0370   -1.3770 C   0  0  0  0  0  0  0  0  0  0  0  0
    1.0660   14.5850   -2.4020 C   0  0  1  0  0  0  0  0  0  0  0  0
    1.3730   13.9930   -3.8030 C   0  0  0  0  0  0  0  0  0  0  0  0
    1.1720   12.4600   -3.6950 C   0  0  0  0  0  0  0  0  0  0  0  0
    0.4440   12.2560   -2.3460 C   0  0  1  0  0  0  0  0  0  0  0  0
   -1.0570   12.5570   -2.6510 C   0  0  0  0  0  0  0  0  0  0  0  0
    0.6250   10.8600   -1.6660 C   0  0  2  0  0  0  0  0  0  0  0  0
    0.0800    9.6670   -2.4700 C   0  0  0  0  0  0  0  0  0  0  0  0
   -1.3410    9.3050   -2.1900 C   0  0  0  0  0  0  0  0  0  0  0  0
   -2.0600    9.7230   -1.1330 C   0  0  0  0  0  0  0  0  0  0  0  0
   -1.4170   10.5700   -0.0270 C   0  0  1  0  0  0  0  0  0  0  0  0
   -1.8210   10.0050    1.3600 C   0  0  0  0  0  0  0  0  0  0  0  0
   -3.3330    9.8820    1.5240 C   0  0  0  0  0  0  0  0  0  0  0  0
   -3.9280    8.9850    0.4410 C   0  0  2  0  0  0  0  0  0  0  0  0
   -3.4600    7.6480    0.6420 O   0  0  0  0  0  0  0  0  0  0  0  0
   -3.5790    9.4510   -1.0000 C   0  0  0  0  0  0  0  0  0  0  0  0
   -4.3380   10.7620   -1.3210 C   0  0  0  0  0  0  0  0  0  0  0  0
   -4.1190    8.3840   -1.9900 C   0  0  0  0  0  0  0  0  0  0  0  0
    0.1490   10.8060   -0.1580 C   0  0  1  0  0  0  0  0  0  0  0  0
    0.9220    9.6290    0.5120 C   0  0  0  0  0  0  0  0  0  0  0  0
    0.5410   12.1060    0.6400 C   0  0  0  0  0  0  0  0  0  0  0  0
    0.4550   13.4420   -0.1220 C   0  0  0  0  0  0  0  0  0  0  0  0
    1.1670   13.3470   -1.4750 C   0  0  2  0  0  0  0  0  0  0  0  0
    2.6840   13.0670   -1.2000 C   0  0  0  0  0  0  0  0  0  0  0  0
    1.2708   15.4322   -0.0418 H   0  0  0  0  0  0  0  0  0  0  0  0
    3.0519   15.3475   -0.2595 H   0  0  0  0  0  0  0  0  0  0  0  0
    2.2218   16.9405   -0.2595 H   0  0  0  0  0  0  0  0  0  0  0  0
    2.9410   15.6531   -2.5165 H   0  0  0  0  0  0  0  0  0  0  0  0
    1.6783   17.1680   -3.7004 H   0  0  0  0  0  0  0  0  0  0  0  0
    0.2420   16.9691   -2.5864 H   0  0  0  0  0  0  0  0  0  0  0  0
    1.9419   18.0792   -0.8559 H   0  0  0  0  0  0  0  0  0  0  0  0
    2.6004   18.7806   -2.3926 H   0  0  0  0  0  0  0  0  0  0  0  0
    0.6856   19.4406   -3.0185 H   0  0  0  0  0  0  0  0  0  0  0  0
   -0.6530   18.6961    1.0592 H   0  0  0  0  0  0  0  0  0  0  0  0
   -1.6861   17.7507   -0.0657 H   0  0  0  0  0  0  0  0  0  0  0  0
    0.0943   17.5118   -0.0657 H   0  0  0  0  0  0  0  0  0  0  0  0
   -2.3700   20.3489   -0.4751 H   0  0  0  0  0  0  0  0  0  0  0  0
   -1.5651   20.9239   -1.9745 H   0  0  0  0  0  0  0  0  0  0  0  0
   -2.4549   19.3634   -1.9745 H   0  0  0  0  0  0  0  0  0  0  0  0
    0.0742   15.0501   -2.3023 H   0  0  0  0  0  0  0  0  0  0  0  0
    0.6847   14.4134   -4.5509 H   0  0  0  0  0  0  0  0  0  0  0  0
    2.3987   14.2354   -4.1179 H   0  0  0  0  0  0  0  0  0  0  0  0
    0.5568   12.0894   -4.5282 H   0  0  0  0  0  0  0  0  0  0  0  0
    2.1235   11.9102   -3.7428 H   0  0  0  0  0  0  0  0  0  0  0  0
   -1.6083   12.6675   -1.7055 H   0  0  0  0  0  0  0  0  0  0  0  0
   -1.1336   13.4884   -3.2312 H   0  0  0  0  0  0  0  0  0  0  0  0
   -1.4868   11.7272   -3.2312 H   0  0  0  0  0  0  0  0  0  0  0  0
    1.7186   10.7417   -1.6596 H   0  0  0  0  0  0  0  0  0  0  0  0
    0.1642    9.9109   -3.5393 H   0  0  0  0  0  0  0  0  0  0  0  0
    0.6809    8.7966   -2.1679 H   0  0  0  0  0  0  0  0  0  0  0  0
   -1.8423    8.6403   -2.9089 H   0  0  0  0  0  0  0  0  0  0  0  0
   -1.8218   11.5857   -0.1472 H   0  0  0  0  0  0  0  0  0  0  0  0
   -1.3712    9.0083    1.4793 H   0  0  0  0  0  0  0  0  0  0  0  0
   -1.4583   10.7072    2.1251 H   0  0  0  0  0  0  0  0  0  0  0  0
   -3.5541    9.4498    2.5111 H   0  0  0  0  0  0  0  0  0  0  0  0
   -3.7786   10.8837    1.4343 H   0  0  0  0  0  0  0  0  0  0  0  0
   -5.0229    9.0399    0.5311 H   0  0  0  0  0  0  0  0  0  0  0  0
   -3.2510    7.5480    1.5860 H   0  0  0  0  0  0  0  0  0  0  0  0
   -4.6254   11.2585   -0.3824 H   0  0  0  0  0  0  0  0  0  0  0  0
   -3.6866   11.4294   -1.9043 H   0  0  0  0  0  0  0  0  0  0  0  0
   -5.2411   10.5294   -1.9043 H   0  0  0  0  0  0  0  0  0  0  0  0
   -4.5452    7.5419   -1.4250 H   0  0  0  0  0  0  0  0  0  0  0  0
   -4.8986    8.8326   -2.6233 H   0  0  0  0  0  0  0  0  0  0  0  0
   -3.2959    8.0215   -2.6233 H   0  0  0  0  0  0  0  0  0  0  0  0
    0.8591    9.7247    1.6060 H   0  0  0  0  0  0  0  0  0  0  0  0
    0.4753    8.6730    0.2013 H   0  0  0  0  0  0  0  0  0  0  0  0
    1.9768    9.6591    0.2013 H   0  0  0  0  0  0  0  0  0  0  0  0
   -0.1275   12.1761    1.5107 H   0  0  0  0  0  0  0  0  0  0  0  0
    1.6063   11.9828    0.8849 H   0  0  0  0  0  0  0  0  0  0  0  0
   -0.6027   13.6940   -0.2886 H   0  0  0  0  0  0  0  0  0  0  0  0
    0.9458   14.2215    0.4792 H   0  0  0  0  0  0  0  0  0  0  0  0
    2.8600   13.0345   -0.1147 H   0  0  0  0  0  0  0  0  0  0  0  0
    2.9655   12.1017   -1.6461 H   0  0  0  0  0  0  0  0  0  0  0  0
    3.2915   13.8682   -1.6461 H   0  0  0  0  0  0  0  0  0  0  0  0
  1  2  1  0
  2  3  1  0
  3  4  1  0
  4  5  1  0
  5  6  1  0
  6  7  1  0
  7  8  1  0
  7  9  1  0
  2 10  1  0
 10 11  1  0
 11 12  1  0
 12 13  1  0
 13 14  1  6
 13 15  1  0
 15 16  1  0
 16 17  1  0
 17 18  2  0
 18 19  1  0
 19 20  1  0
 20 21  1  0
 21 22  1  0
 22 23  1  0
 22 24  1  0
 24 25  1  0
 24 26  1  0
 19 27  1  0
 27 28  1  1
 27 29  1  0
 29 30  1  0
 30 31  1  0
 31 32  1  1
  7  5  1  0
 31 10  1  0
 31 13  1  0
 27 15  1  0
 24 18  1  0
  1 33  1  0
  1 34  1  0
  1 35  1  0
  2 36  1  6
  3 37  1  0
  3 38  1  0
  4 39  1  0
  4 40  1  0
  5 41  1  6
  8 42  1  0
  8 43  1  0
  8 44  1  0
  9 45  1  0
  9 46  1  0
  9 47  1  0
 10 48  1  6
 11 49  1  0
 11 50  1  0
 12 51  1  0
 12 52  1  0
 14 53  1  0
 14 54  1  0
 14 55  1  0
 15 56  1  1
 16 57  1  0
 16 58  1  0
 17 59  1  0
 19 60  1  1
 20 61  1  0
 20 62  1  0
 21 63  1  0
 21 64  1  0
 22 65  1  6
 23 66  1  0
 25 67  1  0
 25 68  1  0
 25 69  1  0
 26 70  1  0
 26 71  1  0
 26 72  1  0
 28 73  1  0
 28 74  1  0
 28 75  1  0
 29 76  1  0
 29 77  1  0
 30 78  1  0
 30 79  1  0
 32 80  1  0
 32 81  1  0
 32 82  1  0
M  END
>  <meeko>  (16) 
{"is_sidechain": [false], "intermolecular_energy": 2.731, "internal_energy": -0.839}

$$$$
EPH_relaxed_0001_pdb2pqr_Repair_121_r2_0001_out
     RDKit          3D

 82 86  0  0  0  0  0  0  0  0999 V2000
  -15.2820    8.3240    0.3300 C   0  0  0  0  0  0  0  0  0  0  0  0
  -14.4760    8.8740   -0.8490 C   0  0  2  0  0  0  0  0  0  0  0  0
  -14.7240    8.0760   -2.1450 C   0  0  0  0  0  0  0  0  0  0  0  0
  -14.5890    8.9130   -3.4190 C   0  0  0  0  0  0  0  0  0  0  0  0
  -15.2580   10.2470   -3.2790 C   0  0  2  0  0  0  0  0  0  0  0  0
  -14.8890   11.2090   -4.2760 O   0  0  0  0  0  0  0  0  0  0  0  0
  -14.5150   11.5220   -2.9250 C   0  0  0  0  0  0  0  0  0  0  0  0
  -13.0370   11.5240   -2.6870 C   0  0  0  0  0  0  0  0  0  0  0  0
  -15.2870   12.6590   -2.3330 C   0  0  0  0  0  0  0  0  0  0  0  0
  -12.9900    8.8700   -0.5110 C   0  0  1  0  0  0  0  0  0  0  0  0
  -12.7220    9.0650    1.0060 C   0  0  0  0  0  0  0  0  0  0  0  0
  -11.4730    8.2150    1.3520 C   0  0  0  0  0  0  0  0  0  0  0  0
  -10.8700    7.8300   -0.0200 C   0  0  1  0  0  0  0  0  0  0  0  0
  -10.0510    9.0830   -0.4640 C   0  0  0  0  0  0  0  0  0  0  0  0
  -10.0010    6.5310   -0.0530 C   0  0  2  0  0  0  0  0  0  0  0  0
   -8.7330    6.5720    0.8170 C   0  0  0  0  0  0  0  0  0  0  0  0
   -7.5050    7.0740    0.1320 C   0  0  0  0  0  0  0  0  0  0  0  0
   -7.3520    7.2070   -1.1990 C   0  0  0  0  0  0  0  0  0  0  0  0
   -8.4460    6.7430   -2.1680 C   0  0  1  0  0  0  0  0  0  0  0  0
   -7.8040    5.9250   -3.3200 C   0  0  0  0  0  0  0  0  0  0  0  0
   -6.6850    6.6850   -4.0240 C   0  0  0  0  0  0  0  0  0  0  0  0
   -5.5880    7.0790   -3.0380 C   0  0  2  0  0  0  0  0  0  0  0  0
   -4.9420    5.8920   -2.5680 O   0  0  0  0  0  0  0  0  0  0  0  0
   -6.1180    7.9000   -1.8290 C   0  0  0  0  0  0  0  0  0  0  0  0
   -6.5420    9.3110   -2.3030 C   0  0  0  0  0  0  0  0  0  0  0  0
   -4.9380    8.1100   -0.8410 C   0  0  0  0  0  0  0  0  0  0  0  0
   -9.6860    5.9990   -1.5090 C   0  0  1  0  0  0  0  0  0  0  0  0
   -9.3810    4.4760   -1.3710 C   0  0  0  0  0  0  0  0  0  0  0  0
  -10.9270    6.1180   -2.4710 C   0  0  0  0  0  0  0  0  0  0  0  0
  -11.8150    7.3660   -2.3090 C   0  0  0  0  0  0  0  0  0  0  0  0
  -12.1890    7.5860   -0.8400 C   0  0  2  0  0  0  0  0  0  0  0  0
  -13.0330    6.3510   -0.3710 C   0  0  0  0  0  0  0  0  0  0  0  0
  -14.8152    8.6426    1.2737 H   0  0  0  0  0  0  0  0  0  0  0  0
  -16.3113    8.7089    0.2819 H   0  0  0  0  0  0  0  0  0  0  0  0
  -15.2988    7.2252    0.2819 H   0  0  0  0  0  0  0  0  0  0  0  0
  -14.8134    9.9057   -1.0270 H   0  0  0  0  0  0  0  0  0  0  0  0
  -13.9950    7.2535   -2.1911 H   0  0  0  0  0  0  0  0  0  0  0  0
  -15.7624    7.7153   -2.1063 H   0  0  0  0  0  0  0  0  0  0  0  0
  -13.5211    9.0702   -3.6309 H   0  0  0  0  0  0  0  0  0  0  0  0
  -15.0777    8.3687   -4.2405 H   0  0  0  0  0  0  0  0  0  0  0  0
  -16.1599    9.7776   -2.8592 H   0  0  0  0  0  0  0  0  0  0  0  0
  -12.8399   11.5243   -1.6048 H   0  0  0  0  0  0  0  0  0  0  0  0
  -12.5913   10.6265   -3.1407 H   0  0  0  0  0  0  0  0  0  0  0  0
  -12.5938   12.4227   -3.1407 H   0  0  0  0  0  0  0  0  0  0  0  0
  -15.2457   12.5982   -1.2355 H   0  0  0  0  0  0  0  0  0  0  0  0
  -14.8483   13.6118   -2.6642 H   0  0  0  0  0  0  0  0  0  0  0  0
  -16.3345   12.6028   -2.6642 H   0  0  0  0  0  0  0  0  0  0  0  0
  -12.6530    9.6979   -1.1521 H   0  0  0  0  0  0  0  0  0  0  0  0
  -12.5303   10.1261    1.2235 H   0  0  0  0  0  0  0  0  0  0  0  0
  -13.5907    8.7524    1.6040 H   0  0  0  0  0  0  0  0  0  0  0  0
  -10.7539    8.8034    1.9408 H   0  0  0  0  0  0  0  0  0  0  0  0
  -11.7241    7.3330    1.9594 H   0  0  0  0  0  0  0  0  0  0  0  0
   -9.6973    9.6241    0.4260 H   0  0  0  0  0  0  0  0  0  0  0  0
   -9.1876    8.7624   -1.0654 H   0  0  0  0  0  0  0  0  0  0  0  0
  -10.6911    9.7452   -1.0654 H   0  0  0  0  0  0  0  0  0  0  0  0
  -10.6639    5.7918    0.4203 H   0  0  0  0  0  0  0  0  0  0  0  0
   -8.9330    7.2261    1.6785 H   0  0  0  0  0  0  0  0  0  0  0  0
   -8.5212    5.5290    1.0952 H   0  0  0  0  0  0  0  0  0  0  0  0
   -6.6540    7.3591    0.7681 H   0  0  0  0  0  0  0  0  0  0  0  0
   -8.9045    7.6584   -2.5702 H   0  0  0  0  0  0  0  0  0  0  0  0
   -7.3906    4.9944   -2.9038 H   0  0  0  0  0  0  0  0  0  0  0  0
   -8.5891    5.7225   -4.0634 H   0  0  0  0  0  0  0  0  0  0  0  0
   -6.2523    6.0448   -4.8069 H   0  0  0  0  0  0  0  0  0  0  0  0
   -7.1060    7.6007   -4.4647 H   0  0  0  0  0  0  0  0  0  0  0  0
   -4.8810    7.7297   -3.5734 H   0  0  0  0  0  0  0  0  0  0  0  0
   -4.1700    5.7330   -3.1360 H   0  0  0  0  0  0  0  0  0  0  0  0
   -6.7339    9.9495   -1.4280 H   0  0  0  0  0  0  0  0  0  0  0  0
   -5.7366    9.7517   -2.9089 H   0  0  0  0  0  0  0  0  0  0  0  0
   -7.4569    9.2347   -2.9089 H   0  0  0  0  0  0  0  0  0  0  0  0
   -5.3089    8.0440    0.1925 H   0  0  0  0  0  0  0  0  0  0  0  0
   -4.1773    7.3331   -1.0079 H   0  0  0  0  0  0  0  0  0  0  0  0
   -4.4921    9.1016   -1.0079 H   0  0  0  0  0  0  0  0  0  0  0  0
   -9.3273    4.2079   -0.3055 H   0  0  0  0  0  0  0  0  0  0  0  0
  -10.1809    3.8965   -1.8551 H   0  0  0  0  0  0  0  0  0  0  0  0
   -8.4196    4.2492   -1.8551 H   0  0  0  0  0  0  0  0  0  0  0  0
  -10.5490    6.1105   -3.5040 H   0  0  0  0  0  0  0  0  0  0  0  0
  -11.5751    5.2682   -2.2106 H   0  0  0  0  0  0  0  0  0  0  0  0
  -11.2683    8.2468   -2.6769 H   0  0  0  0  0  0  0  0  0  0  0  0
  -12.7386    7.2167   -2.8874 H   0  0  0  0  0  0  0  0  0  0  0  0
  -13.0553    6.3183    0.7283 H   0  0  0  0  0  0  0  0  0  0  0  0
  -14.0595    6.4408   -0.7561 H   0  0  0  0  0  0  0  0  0  0  0  0
  -12.5764    5.4273   -0.7561 H   0  0  0  0  0  0  0  0  0  0  0  0
  1  2  1  0
  2  3  1  0
  3  4  1  0
  4  5  1  0
  5  6  1  0
  6  7  1  0
  7  8  1  0
  7  9  1  0
  2 10  1  0
 10 11  1  0
 11 12  1  0
 12 13  1  0
 13 14  1  6
 13 15  1  0
 15 16  1  0
 16 17  1  0
 17 18  2  0
 18 19  1  0
 19 20  1  0
 20 21  1  0
 21 22  1  0
 22 23  1  0
 22 24  1  0
 24 25  1  0
 24 26  1  0
 19 27  1  0
 27 28  1  1
 27 29  1  0
 29 30  1  0
 30 31  1  0
 31 32  1  1
  7  5  1  0
 31 10  1  0
 31 13  1  0
 27 15  1  0
 24 18  1  0
  1 33  1  0
  1 34  1  0
  1 35  1  0
  2 36  1  6
  3 37  1  0
  3 38  1  0
  4 39  1  0
  4 40  1  0
  5 41  1  1
  8 42  1  0
  8 43  1  0
  8 44  1  0
  9 45  1  0
  9 46  1  0
  9 47  1  0
 10 48  1  6
 11 49  1  0
 11 50  1  0
 12 51  1  0
 12 52  1  0
 14 53  1  0
 14 54  1  0
 14 55  1  0
 15 56  1  1
 16 57  1  0
 16 58  1  0
 17 59  1  0
 19 60  1  6
 20 61  1  0
 20 62  1  0
 21 63  1  0
 21 64  1  0
 22 65  1  6
 23 66  1  0
 25 67  1  0
 25 68  1  0
 25 69  1  0
 26 70  1  0
 26 71  1  0
 26 72  1  0
 28 73  1  0
 28 74  1  0
 28 75  1  0
 29 76  1  0
 29 77  1  0
 30 78  1  0
 30 79  1  0
 32 80  1  0
 32 81  1  0
 32 82  1  0
M  END
>  <meeko>  (17) 
{"is_sidechain": [false], "intermolecular_energy": 2.731, "internal_energy": -0.839}

$$$$
