EPH_relaxed_0001_pdb2pqr_Repair_246_r2_0001_out
     RDKit          3D

 82 86  0  0  0  0  0  0  0  0999 V2000
   -1.7060    8.5890   -1.8770 C   0  0  0  0  0  0  0  0  0  0  0  0
   -2.0870    9.1130   -0.4900 C   0  0  2  0  0  0  0  0  0  0  0  0
   -3.5810    9.4840   -0.4010 C   0  0  0  0  0  0  0  0  0  0  0  0
   -4.5080    8.2740   -0.2570 C   0  0  0  0  0  0  0  0  0  0  0  0
   -5.1980    7.9480   -1.5470 C   0  0  2  0  0  0  0  0  0  0  0  0
   -6.3490    8.7550   -1.8310 O   0  0  0  0  0  0  0  0  0  0  0  0
   -6.5920    7.3540   -1.6230 C   0  0  0  0  0  0  0  0  0  0  0  0
   -7.3790    7.0490   -0.3880 C   0  0  0  0  0  0  0  0  0  0  0  0
   -6.9900    6.6210   -2.8660 C   0  0  0  0  0  0  0  0  0  0  0  0
   -1.2280   10.3220   -0.1370 C   0  0  1  0  0  0  0  0  0  0  0  0
   -0.2000   10.0170    0.9850 C   0  0  0  0  0  0  0  0  0  0  0  0
    1.0710   10.8440    0.6630 C   0  0  0  0  0  0  0  0  0  0  0  0
    0.6220   11.8400   -0.4310 C   0  0  1  0  0  0  0  0  0  0  0  0
   -0.0860   12.9950    0.3440 C   0  0  0  0  0  0  0  0  0  0  0  0
    1.7440   12.3820   -1.3750 C   0  0  2  0  0  0  0  0  0  0  0  0
    2.8460   13.1980   -0.6770 C   0  0  0  0  0  0  0  0  0  0  0  0
    2.5960   14.6680   -0.5950 C   0  0  0  0  0  0  0  0  0  0  0  0
    1.6750   15.3450   -1.3050 C   0  0  0  0  0  0  0  0  0  0  0  0
    0.8330   14.6420   -2.3770 C   0  0  1  0  0  0  0  0  0  0  0  0
    0.8090   15.5040   -3.6660 C   0  0  0  0  0  0  0  0  0  0  0  0
    0.3450   16.9340   -3.4050 C   0  0  0  0  0  0  0  0  0  0  0  0
    1.2430   17.6190   -2.3780 C   0  0  2  0  0  0  0  0  0  0  0  0
    2.5460   17.7880   -2.9440 O   0  0  0  0  0  0  0  0  0  0  0  0
    1.3510   16.8360   -1.0400 C   0  0  0  0  0  0  0  0  0  0  0  0
    0.0030   16.9130   -0.2810 C   0  0  0  0  0  0  0  0  0  0  0  0
    2.3940   17.5600   -0.1460 C   0  0  0  0  0  0  0  0  0  0  0  0
    1.2040   13.1240   -2.6650 C   0  0  1  0  0  0  0  0  0  0  0  0
    2.3400   13.0470   -3.7310 C   0  0  0  0  0  0  0  0  0  0  0  0
   -0.0440   12.3990   -3.2930 C   0  0  0  0  0  0  0  0  0  0  0  0
   -1.0560   11.7800   -2.3100 C   0  0  0  0  0  0  0  0  0  0  0  0
   -0.3450   10.9190   -1.2610 C   0  0  2  0  0  0  0  0  0  0  0  0
    0.3580    9.7360   -2.0100 C   0  0  0  0  0  0  0  0  0  0  0  0
   -1.0622    7.7035   -1.7703 H   0  0  0  0  0  0  0  0  0  0  0  0
   -2.6175    8.3153   -2.4287 H   0  0  0  0  0  0  0  0  0  0  0  0
   -1.1646    9.3717   -2.4287 H   0  0  0  0  0  0  0  0  0  0  0  0
   -1.9037    8.3036    0.2320 H   0  0  0  0  0  0  0  0  0  0  0  0
   -3.7251   10.1377    0.4719 H   0  0  0  0  0  0  0  0  0  0  0  0
   -3.8457    9.9811   -1.3459 H   0  0  0  0  0  0  0  0  0  0  0  0
   -3.9128    7.4044    0.0586 H   0  0  0  0  0  0  0  0  0  0  0  0
   -5.2767    8.5179    0.4911 H   0  0  0  0  0  0  0  0  0  0  0  0
   -4.2445    7.6541   -2.0102 H   0  0  0  0  0  0  0  0  0  0  0  0
   -6.7735    7.2836    0.4999 H   0  0  0  0  0  0  0  0  0  0  0  0
   -8.2957    7.6570   -0.3779 H   0  0  0  0  0  0  0  0  0  0  0  0
   -7.6465    5.9821   -0.3779 H   0  0  0  0  0  0  0  0  0  0  0  0
   -7.4984    5.6846   -2.5926 H   0  0  0  0  0  0  0  0  0  0  0  0
   -7.6713    7.2484   -3.4594 H   0  0  0  0  0  0  0  0  0  0  0  0
   -6.0927    6.3913   -3.4594 H   0  0  0  0  0  0  0  0  0  0  0  0
   -2.0181   11.0356    0.1396 H   0  0  0  0  0  0  0  0  0  0  0  0
   -0.6073   10.3134    1.9629 H   0  0  0  0  0  0  0  0  0  0  0  0
    0.0288    8.9420    1.0298 H   0  0  0  0  0  0  0  0  0  0  0  0
    1.4215   11.3810    1.5567 H   0  0  0  0  0  0  0  0  0  0  0  0
    1.9077   10.2110    0.3326 H   0  0  0  0  0  0  0  0  0  0  0  0
    0.0168   12.8273    1.4263 H   0  0  0  0  0  0  0  0  0  0  0  0
    0.3788   13.9553    0.0760 H   0  0  0  0  0  0  0  0  0  0  0  0
   -1.1526   13.0165    0.0760 H   0  0  0  0  0  0  0  0  0  0  0  0
    2.2298   11.4570   -1.7191 H   0  0  0  0  0  0  0  0  0  0  0  0
    2.9556   12.8141    0.3480 H   0  0  0  0  0  0  0  0  0  0  0  0
    3.7501   13.0768   -1.2918 H   0  0  0  0  0  0  0  0  0  0  0  0
    3.2172   15.2462    0.1049 H   0  0  0  0  0  0  0  0  0  0  0  0
   -0.1827   14.5641   -1.9619 H   0  0  0  0  0  0  0  0  0  0  0  0
    1.8240   15.5343   -4.0889 H   0  0  0  0  0  0  0  0  0  0  0  0
    0.0937   15.0428   -4.3628 H   0  0  0  0  0  0  0  0  0  0  0  0
    0.3777   17.5009   -4.3471 H   0  0  0  0  0  0  0  0  0  0  0  0
   -0.6813   16.9040   -3.0102 H   0  0  0  0  0  0  0  0  0  0  0  0
    0.7867   18.5903   -2.1366 H   0  0  0  0  0  0  0  0  0  0  0  0
    2.4430   18.2710   -3.7810 H   0  0  0  0  0  0  0  0  0  0  0  0
    0.1913   16.9022    0.8027 H   0  0  0  0  0  0  0  0  0  0  0  0
   -0.5186   17.8424   -0.5533 H   0  0  0  0  0  0  0  0  0  0  0  0
   -0.6210   16.0490   -0.5533 H   0  0  0  0  0  0  0  0  0  0  0  0
    2.1498   17.3905    0.9131 H   0  0  0  0  0  0  0  0  0  0  0  0
    3.3977   17.1634   -0.3589 H   0  0  0  0  0  0  0  0  0  0  0  0
    2.3734   18.6390   -0.3589 H   0  0  0  0  0  0  0  0  0  0  0  0
    3.3142   12.9810   -3.2245 H   0  0  0  0  0  0  0  0  0  0  0  0
    2.1927   12.1568   -4.3601 H   0  0  0  0  0  0  0  0  0  0  0  0
    2.3142   13.9490   -4.3601 H   0  0  0  0  0  0  0  0  0  0  0  0
   -0.5836   13.1363   -3.9056 H   0  0  0  0  0  0  0  0  0  0  0  0
    0.3699   11.5478   -3.8535 H   0  0  0  0  0  0  0  0  0  0  0  0
   -1.6039   12.5872   -1.8017 H   0  0  0  0  0  0  0  0  0  0  0  0
   -1.7496   11.1413   -2.8765 H   0  0  0  0  0  0  0  0  0  0  0  0
    0.7758    9.0329   -1.2744 H   0  0  0  0  0  0  0  0  0  0  0  0
   -0.3762    9.2134   -2.6407 H   0  0  0  0  0  0  0  0  0  0  0  0
    1.1680   10.1311   -2.6407 H   0  0  0  0  0  0  0  0  0  0  0  0
  1  2  1  0
  2  3  1  0
  3  4  1  0
  4  5  1  0
  5  6  1  0
  6  7  1  0
  7  8  1  0
  7  9  1  0
  2 10  1  0
 10 11  1  0
 11 12  1  0
 12 13  1  0
 13 14  1  1
 13 15  1  0
 15 16  1  0
 16 17  1  0
 17 18  2  0
 18 19  1  0
 19 20  1  0
 20 21  1  0
 21 22  1  0
 22 23  1  0
 22 24  1  0
 24 25  1  0
 24 26  1  0
 19 27  1  0
 27 28  1  6
 27 29  1  0
 29 30  1  0
 30 31  1  0
 31 32  1  6
  7  5  1  0
 31 10  1  0
 31 13  1  0
 27 15  1  0
 24 18  1  0
  1 33  1  0
  1 34  1  0
  1 35  1  0
  2 36  1  1
  3 37  1  0
  3 38  1  0
  4 39  1  0
  4 40  1  0
  5 41  1  6
  8 42  1  0
  8 43  1  0
  8 44  1  0
  9 45  1  0
  9 46  1  0
  9 47  1  0
 10 48  1  1
 11 49  1  0
 11 50  1  0
 12 51  1  0
 12 52  1  0
 14 53  1  0
 14 54  1  0
 14 55  1  0
 15 56  1  6
 16 57  1  0
 16 58  1  0
 17 59  1  0
 19 60  1  1
 20 61  1  0
 20 62  1  0
 21 63  1  0
 21 64  1  0
 22 65  1  1
 23 66  1  0
 25 67  1  0
 25 68  1  0
 25 69  1  0
 26 70  1  0
 26 71  1  0
 26 72  1  0
 28 73  1  0
 28 74  1  0
 28 75  1  0
 29 76  1  0
 29 77  1  0
 30 78  1  0
 30 79  1  0
 32 80  1  0
 32 81  1  0
 32 82  1  0
M  END
>  <meeko>  (1) 
{"is_sidechain": [false], "intermolecular_energy": 2.731, "internal_energy": -0.839}

$$$$
EPH_relaxed_0001_pdb2pqr_Repair_246_r2_0001_out
     RDKit          3D

 82 86  0  0  0  0  0  0  0  0999 V2000
    2.3520   18.0450   -2.6980 C   0  0  0  0  0  0  0  0  0  0  0  0
    1.0450   17.6570   -2.0000 C   0  0  2  0  0  0  0  0  0  0  0  0
    1.1650   17.7230   -0.4640 C   0  0  0  0  0  0  0  0  0  0  0  0
    0.8200   19.0960    0.1210 C   0  0  0  0  0  0  0  0  0  0  0  0
   -0.6220   19.1820    0.5200 C   0  0  2  0  0  0  0  0  0  0  0  0
   -1.4870   18.2630   -0.1600 O   0  0  0  0  0  0  0  0  0  0  0  0
   -1.7200   19.6580   -0.4130 C   0  0  0  0  0  0  0  0  0  0  0  0
   -1.4230   20.0800   -1.8170 C   0  0  0  0  0  0  0  0  0  0  0  0
   -2.9920   20.1750    0.1850 C   0  0  0  0  0  0  0  0  0  0  0  0
    0.6230   16.2570   -2.4300 C   0  0  1  0  0  0  0  0  0  0  0  0
    0.7840   16.0260   -3.9560 C   0  0  0  0  0  0  0  0  0  0  0  0
    1.2020   14.5450   -4.1430 C   0  0  0  0  0  0  0  0  0  0  0  0
    0.9460   13.8910   -2.7650 C   0  0  1  0  0  0  0  0  0  0  0  0
   -0.5850   13.5870   -2.7430 C   0  0  0  0  0  0  0  0  0  0  0  0
    1.7910   12.6170   -2.4370 C   0  0  2  0  0  0  0  0  0  0  0  0
    1.5560   11.4180   -3.3720 C   0  0  0  0  0  0  0  0  0  0  0  0
    0.4830   10.4740   -2.9410 C   0  0  0  0  0  0  0  0  0  0  0  0
   -0.0660   10.4220   -1.7140 C   0  0  0  0  0  0  0  0  0  0  0  0
    0.4580   11.3100   -0.5780 C   0  0  1  0  0  0  0  0  0  0  0  0
    0.6370   10.4570    0.7060 C   0  0  0  0  0  0  0  0  0  0  0  0
   -0.6340    9.7070    1.0910 C   0  0  0  0  0  0  0  0  0  0  0  0
   -1.0910    8.7910   -0.0410 C   0  0  2  0  0  0  0  0  0  0  0  0
   -0.1250    7.7490   -0.2100 O   0  0  0  0  0  0  0  0  0  0  0  0
   -1.2950    9.5380   -1.3890 C   0  0  0  0  0  0  0  0  0  0  0  0
   -2.5410   10.4530   -1.2930 C   0  0  0  0  0  0  0  0  0  0  0  0
   -1.6180    8.4790   -2.4770 C   0  0  0  0  0  0  0  0  0  0  0  0
    1.7440   12.1810   -0.9160 C   0  0  1  0  0  0  0  0  0  0  0  0
    3.0350   11.3490   -0.6510 C   0  0  0  0  0  0  0  0  0  0  0  0
    1.8010   13.4140    0.0620 C   0  0  0  0  0  0  0  0  0  0  0  0
    1.0440   14.6830   -0.3750 C   0  0  0  0  0  0  0  0  0  0  0  0
    1.3950   15.0620   -1.8170 C   0  0  2  0  0  0  0  0  0  0  0  0
    2.9260   15.3940   -1.8650 C   0  0  0  0  0  0  0  0  0  0  0  0
    3.1180   18.2724   -1.9420 H   0  0  0  0  0  0  0  0  0  0  0  0
    2.6940   17.2096   -3.3267 H   0  0  0  0  0  0  0  0  0  0  0  0
    2.1827   18.9316   -3.3267 H   0  0  0  0  0  0  0  0  0  0  0  0
    0.2788   18.3860   -2.3024 H   0  0  0  0  0  0  0  0  0  0  0  0
    0.4815   16.9785   -0.0297 H   0  0  0  0  0  0  0  0  0  0  0  0
    2.2172   17.5218   -0.2143 H   0  0  0  0  0  0  0  0  0  0  0  0
    1.4464   19.2733    1.0077 H   0  0  0  0  0  0  0  0  0  0  0  0
    1.0077   19.8553   -0.6525 H   0  0  0  0  0  0  0  0  0  0  0  0
   -0.3463   19.4728    1.5444 H   0  0  0  0  0  0  0  0  0  0  0  0
   -0.7900   20.9795   -1.8034 H   0  0  0  0  0  0  0  0  0  0  0  0
   -0.8958   19.2685   -2.3400 H   0  0  0  0  0  0  0  0  0  0  0  0
   -2.3648   20.3023   -2.3400 H   0  0  0  0  0  0  0  0  0  0  0  0
   -2.9198   20.1457    1.2822 H   0  0  0  0  0  0  0  0  0  0  0  0
   -3.1571   21.2116   -0.1440 H   0  0  0  0  0  0  0  0  0  0  0  0
   -3.8334   19.5475   -0.1440 H   0  0  0  0  0  0  0  0  0  0  0  0
   -0.4160   16.2590   -2.0688 H   0  0  0  0  0  0  0  0  0  0  0  0
   -0.1689   16.2185   -4.4708 H   0  0  0  0  0  0  0  0  0  0  0  0
    1.5375   16.7055   -4.3808 H   0  0  0  0  0  0  0  0  0  0  0  0
    0.5906   14.0641   -4.9208 H   0  0  0  0  0  0  0  0  0  0  0  0
    2.2491   14.4443   -4.4648 H   0  0  0  0  0  0  0  0  0  0  0  0
   -0.9303   13.5184   -1.7008 H   0  0  0  0  0  0  0  0  0  0  0  0
   -1.1267   14.3951   -3.2563 H   0  0  0  0  0  0  0  0  0  0  0  0
   -0.7769   12.6332   -3.2563 H   0  0  0  0  0  0  0  0  0  0  0  0
    2.8170   12.9575   -2.6405 H   0  0  0  0  0  0  0  0  0  0  0  0
    1.2866   11.8086   -4.3644 H   0  0  0  0  0  0  0  0  0  0  0  0
    2.4913   10.8391   -3.3654 H   0  0  0  0  0  0  0  0  0  0  0  0
    0.1096    9.7604   -3.6902 H   0  0  0  0  0  0  0  0  0  0  0  0
   -0.3124   12.0774   -0.4118 H   0  0  0  0  0  0  0  0  0  0  0  0
    1.4401    9.7252    0.5342 H   0  0  0  0  0  0  0  0  0  0  0  0
    0.8836   11.1420    1.5306 H   0  0  0  0  0  0  0  0  0  0  0  0
   -0.4367    9.1006    1.9873 H   0  0  0  0  0  0  0  0  0  0  0  0
   -1.4282   10.4415    1.2906 H   0  0  0  0  0  0  0  0  0  0  0  0
   -2.0717    8.3811    0.2422 H   0  0  0  0  0  0  0  0  0  0  0  0
   -0.4710    6.9530    0.2280 H   0  0  0  0  0  0  0  0  0  0  0  0
   -2.7842   10.6316   -0.2352 H   0  0  0  0  0  0  0  0  0  0  0  0
   -2.3303   11.4126   -1.7878 H   0  0  0  0  0  0  0  0  0  0  0  0
   -3.3935    9.9647   -1.7878 H   0  0  0  0  0  0  0  0  0  0  0  0
   -1.9064    7.5336   -1.9943 H   0  0  0  0  0  0  0  0  0  0  0  0
   -2.4473    8.8385   -3.1039 H   0  0  0  0  0  0  0  0  0  0  0  0
   -0.7292    8.3145   -3.1039 H   0  0  0  0  0  0  0  0  0  0  0  0
    3.1905   11.2488    0.4333 H   0  0  0  0  0  0  0  0  0  0  0  0
    2.9263   10.3506   -1.0997 H   0  0  0  0  0  0  0  0  0  0  0  0
    3.8994   11.8605   -1.0997 H   0  0  0  0  0  0  0  0  0  0  0  0
    1.3826   13.0927    1.0273 H   0  0  0  0  0  0  0  0  0  0  0  0
    2.8606   13.7075    0.0937 H   0  0  0  0  0  0  0  0  0  0  0  0
   -0.0381   14.4985   -0.3047 H   0  0  0  0  0  0  0  0  0  0  0  0
    1.3373   15.5115    0.2865 H   0  0  0  0  0  0  0  0  0  0  0  0
    3.3152   15.4784   -0.8396 H   0  0  0  0  0  0  0  0  0  0  0  0
    3.4590   14.5906   -2.3945 H   0  0  0  0  0  0  0  0  0  0  0  0
    3.0783   16.3460   -2.3945 H   0  0  0  0  0  0  0  0  0  0  0  0
  1  2  1  0
  2  3  1  0
  3  4  1  0
  4  5  1  0
  5  6  1  0
  6  7  1  0
  7  8  1  0
  7  9  1  0
  2 10  1  0
 10 11  1  0
 11 12  1  0
 12 13  1  0
 13 14  1  6
 13 15  1  0
 15 16  1  0
 16 17  1  0
 17 18  2  0
 18 19  1  0
 19 20  1  0
 20 21  1  0
 21 22  1  0
 22 23  1  0
 22 24  1  0
 24 25  1  0
 24 26  1  0
 19 27  1  0
 27 28  1  1
 27 29  1  0
 29 30  1  0
 30 31  1  0
 31 32  1  1
  7  5  1  0
 31 10  1  0
 31 13  1  0
 27 15  1  0
 24 18  1  0
  1 33  1  0
  1 34  1  0
  1 35  1  0
  2 36  1  6
  3 37  1  0
  3 38  1  0
  4 39  1  0
  4 40  1  0
  5 41  1  1
  8 42  1  0
  8 43  1  0
  8 44  1  0
  9 45  1  0
  9 46  1  0
  9 47  1  0
 10 48  1  6
 11 49  1  0
 11 50  1  0
 12 51  1  0
 12 52  1  0
 14 53  1  0
 14 54  1  0
 14 55  1  0
 15 56  1  6
 16 57  1  0
 16 58  1  0
 17 59  1  0
 19 60  1  1
 20 61  1  0
 20 62  1  0
 21 63  1  0
 21 64  1  0
 22 65  1  1
 23 66  1  0
 25 67  1  0
 25 68  1  0
 25 69  1  0
 26 70  1  0
 26 71  1  0
 26 72  1  0
 28 73  1  0
 28 74  1  0
 28 75  1  0
 29 76  1  0
 29 77  1  0
 30 78  1  0
 30 79  1  0
 32 80  1  0
 32 81  1  0
 32 82  1  0
M  END
>  <meeko>  (2) 
{"is_sidechain": [false], "intermolecular_energy": 2.731, "internal_energy": -0.839}

$$$$
EPH_relaxed_0001_pdb2pqr_Repair_246_r2_0001_out
     RDKit          3D

 82 86  0  0  0  0  0  0  0  0999 V2000
    0.4310   18.3950    0.0020 C   0  0  0  0  0  0  0  0  0  0  0  0
    1.5170   17.3390   -0.2280 C   0  0  2  0  0  0  0  0  0  0  0  0
    2.7240   17.9070   -1.0010 C   0  0  0  0  0  0  0  0  0  0  0  0
    3.9600   18.1410   -0.1280 C   0  0  0  0  0  0  0  0  0  0  0  0
    3.5870   18.6040    1.2480 C   0  0  2  0  0  0  0  0  0  0  0  0
    3.8350   19.9930    1.5000 O   0  0  0  0  0  0  0  0  0  0  0  0
    4.6010   19.0610    2.2800 C   0  0  0  0  0  0  0  0  0  0  0  0
    6.0670   19.0760    1.9800 C   0  0  0  0  0  0  0  0  0  0  0  0
    4.2150   19.0260    3.7260 C   0  0  0  0  0  0  0  0  0  0  0  0
    0.9320   16.1470   -0.9760 C   0  0  1  0  0  0  0  0  0  0  0  0
    0.7910   16.4090   -2.4990 C   0  0  0  0  0  0  0  0  0  0  0  0
    1.0700   15.0610   -3.2130 C   0  0  0  0  0  0  0  0  0  0  0  0
    1.0340   14.0060   -2.0820 C   0  0  1  0  0  0  0  0  0  0  0  0
   -0.4830   13.7160   -1.8530 C   0  0  0  0  0  0  0  0  0  0  0  0
    1.8410   12.6920   -2.3360 C   0  0  2  0  0  0  0  0  0  0  0  0
    1.3580   11.8500   -3.5300 C   0  0  0  0  0  0  0  0  0  0  0  0
    0.3260   10.8210   -3.2090 C   0  0  0  0  0  0  0  0  0  0  0  0
    0.0130   10.3860   -1.9740 C   0  0  0  0  0  0  0  0  0  0  0  0
    0.7960   10.8690   -0.7470 C   0  0  1  0  0  0  0  0  0  0  0  0
    1.1560    9.6550    0.1490 C   0  0  0  0  0  0  0  0  0  0  0  0
   -0.0670    8.8250    0.5270 C   0  0  0  0  0  0  0  0  0  0  0  0
   -0.7860    8.3140   -0.7190 C   0  0  2  0  0  0  0  0  0  0  0  0
    0.0630    7.3760   -1.3880 O   0  0  0  0  0  0  0  0  0  0  0  0
   -1.1890    9.4480   -1.7020 C   0  0  0  0  0  0  0  0  0  0  0  0
   -2.3330   10.2900   -1.0850 C   0  0  0  0  0  0  0  0  0  0  0  0
   -1.7760    8.7870   -2.9780 C   0  0  0  0  0  0  0  0  0  0  0  0
    2.0500   11.7990   -1.0460 C   0  0  1  0  0  0  0  0  0  0  0  0
    3.3110   10.9220   -1.3110 C   0  0  0  0  0  0  0  0  0  0  0  0
    2.3680   12.6610    0.2320 C   0  0  0  0  0  0  0  0  0  0  0  0
    1.6270   14.0050    0.3670 C   0  0  0  0  0  0  0  0  0  0  0  0
    1.7270   14.8180   -0.9270 C   0  0  2  0  0  0  0  0  0  0  0  0
    3.2390   15.1440   -1.1720 C   0  0  0  0  0  0  0  0  0  0  0  0
    0.2827   18.5392    1.0824 H   0  0  0  0  0  0  0  0  0  0  0  0
    0.7414   19.3459   -0.4556 H   0  0  0  0  0  0  0  0  0  0  0  0
   -0.5108   18.0581   -0.4556 H   0  0  0  0  0  0  0  0  0  0  0  0
    1.8801   17.0161    0.7589 H   0  0  0  0  0  0  0  0  0  0  0  0
    2.9911   17.1973   -1.7978 H   0  0  0  0  0  0  0  0  0  0  0  0
    2.4197   18.8874   -1.3963 H   0  0  0  0  0  0  0  0  0  0  0  0
    4.5227   17.1993   -0.0470 H   0  0  0  0  0  0  0  0  0  0  0  0
    4.5700   18.9252   -0.6002 H   0  0  0  0  0  0  0  0  0  0  0  0
    2.7627   17.8771    1.2949 H   0  0  0  0  0  0  0  0  0  0  0  0
    6.6341   19.0818    2.9225 H   0  0  0  0  0  0  0  0  0  0  0  0
    6.3314   18.1805    1.3985 H   0  0  0  0  0  0  0  0  0  0  0  0
    6.3131   19.9767    1.3985 H   0  0  0  0  0  0  0  0  0  0  0  0
    5.1181   19.1079    4.3487 H   0  0  0  0  0  0  0  0  0  0  0  0
    3.5405   19.8667    3.9459 H   0  0  0  0  0  0  0  0  0  0  0  0
    3.7027   18.0777    3.9459 H   0  0  0  0  0  0  0  0  0  0  0  0
   -0.0191   16.0370   -0.4344 H   0  0  0  0  0  0  0  0  0  0  0  0
   -0.2265   16.7569   -2.7308 H   0  0  0  0  0  0  0  0  0  0  0  0
    1.4948   17.1856   -2.8328 H   0  0  0  0  0  0  0  0  0  0  0  0
    0.2943   14.8516   -3.9643 H   0  0  0  0  0  0  0  0  0  0  0  0
    2.0298   15.0642   -3.7503 H   0  0  0  0  0  0  0  0  0  0  0  0
   -0.6898   13.6765   -0.7733 H   0  0  0  0  0  0  0  0  0  0  0  0
   -1.0826   14.5158   -2.3122 H   0  0  0  0  0  0  0  0  0  0  0  0
   -0.7453   12.7514   -2.3122 H   0  0  0  0  0  0  0  0  0  0  0  0
    2.8314   13.0758   -2.6220 H   0  0  0  0  0  0  0  0  0  0  0  0
    0.9337   12.5347   -4.2791 H   0  0  0  0  0  0  0  0  0  0  0  0
    2.2386   11.2963   -3.8876 H   0  0  0  0  0  0  0  0  0  0  0  0
   -0.2256   10.3807   -4.0528 H   0  0  0  0  0  0  0  0  0  0  0  0
    0.1210   11.5468   -0.2040 H   0  0  0  0  0  0  0  0  0  0  0  0
    1.8639    9.0125   -0.3951 H   0  0  0  0  0  0  0  0  0  0  0  0
    1.5960   10.0446    1.0788 H   0  0  0  0  0  0  0  0  0  0  0  0
    0.2545    7.9663    1.1347 H   0  0  0  0  0  0  0  0  0  0  0  0
   -0.7606    9.4611    1.0965 H   0  0  0  0  0  0  0  0  0  0  0  0
   -1.7215    7.8385   -0.3891 H   0  0  0  0  0  0  0  0  0  0  0  0
    0.9700    7.5220   -1.0710 H   0  0  0  0  0  0  0  0  0  0  0  0
   -2.2711   10.2444    0.0123 H   0  0  0  0  0  0  0  0  0  0  0  0
   -2.2378   11.3352   -1.4145 H   0  0  0  0  0  0  0  0  0  0  0  0
   -3.3026    9.8885   -1.4145 H   0  0  0  0  0  0  0  0  0  0  0  0
   -2.4807    7.9934   -2.6888 H   0  0  0  0  0  0  0  0  0  0  0  0
   -2.3032    9.5460   -3.5747 H   0  0  0  0  0  0  0  0  0  0  0  0
   -0.9601    8.3532   -3.5747 H   0  0  0  0  0  0  0  0  0  0  0  0
    3.7524   10.6150   -0.3513 H   0  0  0  0  0  0  0  0  0  0  0  0
    3.0225   10.0287   -1.8843 H   0  0  0  0  0  0  0  0  0  0  0  0
    4.0481   11.5034   -1.8843 H   0  0  0  0  0  0  0  0  0  0  0  0
    2.1175   12.0531    1.1139 H   0  0  0  0  0  0  0  0  0  0  0  0
    3.4315   12.9271    0.1416 H   0  0  0  0  0  0  0  0  0  0  0  0
    0.5673   13.8110    0.5892 H   0  0  0  0  0  0  0  0  0  0  0  0
    2.0915   14.5816    1.1805 H   0  0  0  0  0  0  0  0  0  0  0  0
    3.7516   15.2545   -0.2050 H   0  0  0  0  0  0  0  0  0  0  0  0
    3.7030   14.3253   -1.7415 H   0  0  0  0  0  0  0  0  0  0  0  0
    3.3244   16.0812   -1.7415 H   0  0  0  0  0  0  0  0  0  0  0  0
  1  2  1  0
  2  3  1  0
  3  4  1  0
  4  5  1  0
  5  6  1  0
  6  7  1  0
  7  8  1  0
  7  9  1  0
  2 10  1  0
 10 11  1  0
 11 12  1  0
 12 13  1  0
 13 14  1  1
 13 15  1  0
 15 16  1  0
 16 17  1  0
 17 18  2  0
 18 19  1  0
 19 20  1  0
 20 21  1  0
 21 22  1  0
 22 23  1  0
 22 24  1  0
 24 25  1  0
 24 26  1  0
 19 27  1  0
 27 28  1  6
 27 29  1  0
 29 30  1  0
 30 31  1  0
 31 32  1  6
  7  5  1  0
 31 10  1  0
 31 13  1  0
 27 15  1  0
 24 18  1  0
  1 33  1  0
  1 34  1  0
  1 35  1  0
  2 36  1  1
  3 37  1  0
  3 38  1  0
  4 39  1  0
  4 40  1  0
  5 41  1  1
  8 42  1  0
  8 43  1  0
  8 44  1  0
  9 45  1  0
  9 46  1  0
  9 47  1  0
 10 48  1  1
 11 49  1  0
 11 50  1  0
 12 51  1  0
 12 52  1  0
 14 53  1  0
 14 54  1  0
 14 55  1  0
 15 56  1  6
 16 57  1  0
 16 58  1  0
 17 59  1  0
 19 60  1  1
 20 61  1  0
 20 62  1  0
 21 63  1  0
 21 64  1  0
 22 65  1  1
 23 66  1  0
 25 67  1  0
 25 68  1  0
 25 69  1  0
 26 70  1  0
 26 71  1  0
 26 72  1  0
 28 73  1  0
 28 74  1  0
 28 75  1  0
 29 76  1  0
 29 77  1  0
 30 78  1  0
 30 79  1  0
 32 80  1  0
 32 81  1  0
 32 82  1  0
M  END
>  <meeko>  (3) 
{"is_sidechain": [false], "intermolecular_energy": 2.731, "internal_energy": -0.839}

$$$$
EPH_relaxed_0001_pdb2pqr_Repair_246_r2_0001_out
     RDKit          3D

 82 86  0  0  0  0  0  0  0  0999 V2000
   -3.4050    9.3180    0.5300 C   0  0  0  0  0  0  0  0  0  0  0  0
   -2.5780    9.6790   -0.7060 C   0  0  2  0  0  0  0  0  0  0  0  0
   -1.9130    8.4420   -1.3430 C   0  0  0  0  0  0  0  0  0  0  0  0
   -2.8340    7.6690   -2.2910 C   0  0  0  0  0  0  0  0  0  0  0  0
   -4.2710    7.7720   -1.8740 C   0  0  2  0  0  0  0  0  0  0  0  0
   -4.8140    6.5770   -1.2980 O   0  0  0  0  0  0  0  0  0  0  0  0
   -5.3930    7.0000   -2.5440 C   0  0  0  0  0  0  0  0  0  0  0  0
   -5.1280    6.0700   -3.6850 C   0  0  0  0  0  0  0  0  0  0  0  0
   -6.7920    7.5160   -2.4130 C   0  0  0  0  0  0  0  0  0  0  0  0
   -1.5160   10.7090   -0.3380 C   0  0  1  0  0  0  0  0  0  0  0  0
   -0.4150   10.1260    0.5880 C   0  0  0  0  0  0  0  0  0  0  0  0
    0.9150   10.8180    0.1920 C   0  0  0  0  0  0  0  0  0  0  0  0
    0.4860   12.0020   -0.7070 C   0  0  1  0  0  0  0  0  0  0  0  0
    0.0530   13.1240    0.2880 C   0  0  0  0  0  0  0  0  0  0  0  0
    1.5530   12.5160   -1.7280 C   0  0  2  0  0  0  0  0  0  0  0  0
    2.8380   13.0820   -1.0990 C   0  0  0  0  0  0  0  0  0  0  0  0
    2.8160   14.5470   -0.8130 C   0  0  0  0  0  0  0  0  0  0  0  0
    1.9250   15.4270   -1.3060 C   0  0  0  0  0  0  0  0  0  0  0  0
    0.8650   14.9880   -2.3250 C   0  0  1  0  0  0  0  0  0  0  0  0
    0.8120   16.0110   -3.4900 C   0  0  0  0  0  0  0  0  0  0  0  0
    0.5960   17.4410   -3.0030 C   0  0  0  0  0  0  0  0  0  0  0  0
    1.7010   17.8610   -2.0370 C   0  0  2  0  0  0  0  0  0  0  0  0
    2.9370   17.9340   -2.7550 O   0  0  0  0  0  0  0  0  0  0  0  0
    1.8550   16.8980   -0.8270 C   0  0  0  0  0  0  0  0  0  0  0  0
    0.6340   17.0460    0.1150 C   0  0  0  0  0  0  0  0  0  0  0  0
    3.0930   17.3550   -0.0080 C   0  0  0  0  0  0  0  0  0  0  0  0
    0.9750   13.4870   -2.8350 C   0  0  1  0  0  0  0  0  0  0  0  0
    1.9500   13.4070   -4.0500 C   0  0  0  0  0  0  0  0  0  0  0  0
   -0.4320   13.0200   -3.3650 C   0  0  0  0  0  0  0  0  0  0  0  0
   -1.3970   12.4100   -2.3300 C   0  0  0  0  0  0  0  0  0  0  0  0
   -0.6970   11.3330   -1.4960 C   0  0  2  0  0  0  0  0  0  0  0  0
   -0.2690   10.1800   -2.4670 C   0  0  0  0  0  0  0  0  0  0  0  0
   -2.8355    9.5666    1.4377 H   0  0  0  0  0  0  0  0  0  0  0  0
   -4.3463    9.8871    0.5204 H   0  0  0  0  0  0  0  0  0  0  0  0
   -3.6277    8.2408    0.5204 H   0  0  0  0  0  0  0  0  0  0  0  0
   -3.2665   10.1037   -1.4514 H   0  0  0  0  0  0  0  0  0  0  0  0
   -1.0311    8.7749   -1.9100 H   0  0  0  0  0  0  0  0  0  0  0  0
   -1.6500    7.7591   -0.5217 H   0  0  0  0  0  0  0  0  0  0  0  0
   -2.7269    8.0796   -3.3058 H   0  0  0  0  0  0  0  0  0  0  0  0
   -2.5436    6.6084   -2.2625 H   0  0  0  0  0  0  0  0  0  0  0  0
   -4.1501    8.8386   -1.6339 H   0  0  0  0  0  0  0  0  0  0  0  0
   -4.8462    5.0811   -3.2942 H   0  0  0  0  0  0  0  0  0  0  0  0
   -6.0352    5.9763   -4.3000 H   0  0  0  0  0  0  0  0  0  0  0  0
   -4.3077    6.4686   -4.3000 H   0  0  0  0  0  0  0  0  0  0  0  0
   -7.0495    7.6110   -1.3478 H   0  0  0  0  0  0  0  0  0  0  0  0
   -6.8665    8.5008   -2.8975 H   0  0  0  0  0  0  0  0  0  0  0  0
   -7.4881    6.8154   -2.8975 H   0  0  0  0  0  0  0  0  0  0  0  0
   -2.1553   11.4750    0.1252 H   0  0  0  0  0  0  0  0  0  0  0  0
   -0.6537   10.3383    1.6406 H   0  0  0  0  0  0  0  0  0  0  0  0
   -0.3412    9.0343    0.4751 H   0  0  0  0  0  0  0  0  0  0  0  0
    1.4451   11.1806    1.0851 H   0  0  0  0  0  0  0  0  0  0  0  0
    1.6051   10.1326   -0.3218 H   0  0  0  0  0  0  0  0  0  0  0  0
    0.1893   12.7708    1.3208 H   0  0  0  0  0  0  0  0  0  0  0  0
    0.6702   14.0193    0.1222 H   0  0  0  0  0  0  0  0  0  0  0  0
   -1.0056   13.3726    0.1222 H   0  0  0  0  0  0  0  0  0  0  0  0
    1.8542   11.5907   -2.2409 H   0  0  0  0  0  0  0  0  0  0  0  0
    3.0137   12.5531   -0.1506 H   0  0  0  0  0  0  0  0  0  0  0  0
    3.6339   12.9290   -1.8427 H   0  0  0  0  0  0  0  0  0  0  0  0
    3.5940   14.9407   -0.1424 H   0  0  0  0  0  0  0  0  0  0  0  0
   -0.0940   14.9867   -1.7861 H   0  0  0  0  0  0  0  0  0  0  0  0
    1.7623   15.9662   -4.0422 H   0  0  0  0  0  0  0  0  0  0  0  0
   -0.0413   15.7438   -4.1307 H   0  0  0  0  0  0  0  0  0  0  0  0
    0.5970   18.1201   -3.8684 H   0  0  0  0  0  0  0  0  0  0  0  0
   -0.3684   17.4907   -2.4763 H   0  0  0  0  0  0  0  0  0  0  0  0
    1.4234   18.8418   -1.6234 H   0  0  0  0  0  0  0  0  0  0  0  0
    2.8680   17.3410   -3.5220 H   0  0  0  0  0  0  0  0  0  0  0  0
    0.9710   17.0051    1.1613 H   0  0  0  0  0  0  0  0  0  0  0  0
    0.1401   18.0106   -0.0737 H   0  0  0  0  0  0  0  0  0  0  0  0
   -0.0761   16.2273   -0.0737 H   0  0  0  0  0  0  0  0  0  0  0  0
    2.8722   17.2735    1.0665 H   0  0  0  0  0  0  0  0  0  0  0  0
    3.9528   16.7150   -0.2552 H   0  0  0  0  0  0  0  0  0  0  0  0
    3.3308   18.4002   -0.2552 H   0  0  0  0  0  0  0  0  0  0  0  0
    2.9843   13.3221   -3.6852 H   0  0  0  0  0  0  0  0  0  0  0  0
    1.7032   12.5261   -4.6608 H   0  0  0  0  0  0  0  0  0  0  0  0
    1.8501   14.3164   -4.6608 H   0  0  0  0  0  0  0  0  0  0  0  0
   -0.9287   13.8963   -3.8070 H   0  0  0  0  0  0  0  0  0  0  0  0
   -0.2171   12.2059   -4.0729 H   0  0  0  0  0  0  0  0  0  0  0  0
   -1.7571   13.2056   -1.6611 H   0  0  0  0  0  0  0  0  0  0  0  0
   -2.2388   11.9469   -2.8656 H   0  0  0  0  0  0  0  0  0  0  0  0
    0.0548    9.3077   -1.8802 H   0  0  0  0  0  0  0  0  0  0  0  0
   -1.1227    9.8989   -3.1012 H   0  0  0  0  0  0  0  0  0  0  0  0
    0.5613   10.5240   -3.1012 H   0  0  0  0  0  0  0  0  0  0  0  0
  1  2  1  0
  2  3  1  0
  3  4  1  0
  4  5  1  0
  5  6  1  0
  6  7  1  0
  7  8  1  0
  7  9  1  0
  2 10  1  0
 10 11  1  0
 11 12  1  0
 12 13  1  0
 13 14  1  1
 13 15  1  0
 15 16  1  0
 16 17  1  0
 17 18  2  0
 18 19  1  0
 19 20  1  0
 20 21  1  0
 21 22  1  0
 22 23  1  0
 22 24  1  0
 24 25  1  0
 24 26  1  0
 19 27  1  0
 27 28  1  6
 27 29  1  0
 29 30  1  0
 30 31  1  0
 31 32  1  6
  7  5  1  0
 31 10  1  0
 31 13  1  0
 27 15  1  0
 24 18  1  0
  1 33  1  0
  1 34  1  0
  1 35  1  0
  2 36  1  6
  3 37  1  0
  3 38  1  0
  4 39  1  0
  4 40  1  0
  5 41  1  1
  8 42  1  0
  8 43  1  0
  8 44  1  0
  9 45  1  0
  9 46  1  0
  9 47  1  0
 10 48  1  1
 11 49  1  0
 11 50  1  0
 12 51  1  0
 12 52  1  0
 14 53  1  0
 14 54  1  0
 14 55  1  0
 15 56  1  6
 16 57  1  0
 16 58  1  0
 17 59  1  0
 19 60  1  1
 20 61  1  0
 20 62  1  0
 21 63  1  0
 21 64  1  0
 22 65  1  1
 23 66  1  0
 25 67  1  0
 25 68  1  0
 25 69  1  0
 26 70  1  0
 26 71  1  0
 26 72  1  0
 28 73  1  0
 28 74  1  0
 28 75  1  0
 29 76  1  0
 29 77  1  0
 30 78  1  0
 30 79  1  0
 32 80  1  0
 32 81  1  0
 32 82  1  0
M  END
>  <meeko>  (4) 
{"is_sidechain": [false], "intermolecular_energy": 2.731, "internal_energy": -0.839}

$$$$
EPH_relaxed_0001_pdb2pqr_Repair_246_r2_0001_out
     RDKit          3D

 82 86  0  0  0  0  0  0  0  0999 V2000
    4.2000   17.5390   -0.6310 C   0  0  0  0  0  0  0  0  0  0  0  0
    2.8460   18.1050   -0.1940 C   0  0  2  0  0  0  0  0  0  0  0  0
    2.9180   18.7790    1.1910 C   0  0  0  0  0  0  0  0  0  0  0  0
    4.2760   18.6260    1.8800 C   0  0  0  0  0  0  0  0  0  0  0  0
    4.2830   19.2590    3.2390 C   0  0  2  0  0  0  0  0  0  0  0  0
    5.3470   20.1950    3.4580 O   0  0  0  0  0  0  0  0  0  0  0  0
    5.3660   19.0110    4.2720 C   0  0  0  0  0  0  0  0  0  0  0  0
    6.5180   18.0980    3.9910 C   0  0  0  0  0  0  0  0  0  0  0  0
    5.0520   19.2650    5.7130 C   0  0  0  0  0  0  0  0  0  0  0  0
    1.7990   16.9970   -0.1800 C   0  0  1  0  0  0  0  0  0  0  0  0
    0.3690   17.5210   -0.4780 C   0  0  0  0  0  0  0  0  0  0  0  0
   -0.3560   16.4110   -1.2810 C   0  0  0  0  0  0  0  0  0  0  0  0
    0.5510   15.1670   -1.1340 C   0  0  1  0  0  0  0  0  0  0  0  0
    0.1880   14.5690    0.2620 C   0  0  0  0  0  0  0  0  0  0  0  0
    0.4430   14.0950   -2.2660 C   0  0  2  0  0  0  0  0  0  0  0  0
   -0.9370   13.4300   -2.4060 C   0  0  0  0  0  0  0  0  0  0  0  0
   -1.1320   12.1890   -1.5990 C   0  0  0  0  0  0  0  0  0  0  0  0
   -0.1530   11.4720   -1.0180 C   0  0  0  0  0  0  0  0  0  0  0  0
    1.3220   11.8390   -1.2270 C   0  0  1  0  0  0  0  0  0  0  0  0
    2.1330   10.5580   -1.5560 C   0  0  0  0  0  0  0  0  0  0  0  0
    1.9470    9.4630   -0.5090 C   0  0  0  0  0  0  0  0  0  0  0  0
    0.4750    9.0850   -0.3710 C   0  0  2  0  0  0  0  0  0  0  0  0
    0.0430    8.4640   -1.5860 O   0  0  0  0  0  0  0  0  0  0  0  0
   -0.4420   10.2980   -0.0500 C   0  0  0  0  0  0  0  0  0  0  0  0
   -0.1750   10.7840    1.3960 C   0  0  0  0  0  0  0  0  0  0  0  0
   -1.9140    9.8050   -0.0770 C   0  0  0  0  0  0  0  0  0  0  0  0
    1.6040   13.0190   -2.2540 C   0  0  1  0  0  0  0  0  0  0  0  0
    1.7020   12.4520   -3.7030 C   0  0  0  0  0  0  0  0  0  0  0  0
    3.0070   13.6570   -1.9310 C   0  0  0  0  0  0  0  0  0  0  0  0
    3.0310   14.7930   -0.8910 C   0  0  0  0  0  0  0  0  0  0  0  0
    1.9660   15.8480   -1.2060 C   0  0  2  0  0  0  0  0  0  0  0  0
    2.3180   16.4820   -2.5950 C   0  0  0  0  0  0  0  0  0  0  0  0
    4.7973   17.2893    0.2583 H   0  0  0  0  0  0  0  0  0  0  0  0
    4.0413   16.6319   -1.2326 H   0  0  0  0  0  0  0  0  0  0  0  0
    4.7341   18.2892   -1.2326 H   0  0  0  0  0  0  0  0  0  0  0  0
    2.5599   18.8776   -0.9228 H   0  0  0  0  0  0  0  0  0  0  0  0
    2.7109   19.8521    1.0662 H   0  0  0  0  0  0  0  0  0  0  0  0
    2.1751   18.2797    1.8304 H   0  0  0  0  0  0  0  0  0  0  0  0
    4.5040   17.5550    1.9845 H   0  0  0  0  0  0  0  0  0  0  0  0
    5.0327   19.1318    1.2623 H   0  0  0  0  0  0  0  0  0  0  0  0
    3.1856   19.2083    3.2941 H   0  0  0  0  0  0  0  0  0  0  0  0
    6.9529   17.7534    4.9408 H   0  0  0  0  0  0  0  0  0  0  0  0
    6.1661   17.2309    3.4128 H   0  0  0  0  0  0  0  0  0  0  0  0
    7.2818   18.6387    3.4128 H   0  0  0  0  0  0  0  0  0  0  0  0
    5.7515   18.6992    6.3459 H   0  0  0  0  0  0  0  0  0  0  0  0
    5.1517   20.3395    5.9261 H   0  0  0  0  0  0  0  0  0  0  0  0
    4.0220   18.9430    5.9261 H   0  0  0  0  0  0  0  0  0  0  0  0
    1.9490   16.6153    0.8407 H   0  0  0  0  0  0  0  0  0  0  0  0
   -0.1657   17.7185    0.4628 H   0  0  0  0  0  0  0  0  0  0  0  0
    0.4038   18.4615   -1.0474 H   0  0  0  0  0  0  0  0  0  0  0  0
   -1.3535   16.2161   -0.8604 H   0  0  0  0  0  0  0  0  0  0  0  0
   -0.5117   16.6916   -2.3332 H   0  0  0  0  0  0  0  0  0  0  0  0
    0.5839   15.2212    1.0544 H   0  0  0  0  0  0  0  0  0  0  0  0
   -0.9056   14.4983    0.3575 H   0  0  0  0  0  0  0  0  0  0  0  0
    0.6300   13.5662    0.3575 H   0  0  0  0  0  0  0  0  0  0  0  0
    0.5772   14.6994   -3.1752 H   0  0  0  0  0  0  0  0  0  0  0  0
   -1.6991   14.1602   -2.0961 H   0  0  0  0  0  0  0  0  0  0  0  0
   -1.0220   13.1244   -3.4593 H   0  0  0  0  0  0  0  0  0  0  0  0
   -2.1637   11.8305   -1.4684 H   0  0  0  0  0  0  0  0  0  0  0  0
    1.6670   12.2651   -0.2734 H   0  0  0  0  0  0  0  0  0  0  0  0
    1.8029   10.1725   -2.5319 H   0  0  0  0  0  0  0  0  0  0  0  0
    3.1985   10.8311   -1.5682 H   0  0  0  0  0  0  0  0  0  0  0  0
    2.5201    8.5742   -0.8118 H   0  0  0  0  0  0  0  0  0  0  0  0
    2.3052    9.8396    0.4605 H   0  0  0  0  0  0  0  0  0  0  0  0
    0.3905    8.3941    0.4808 H   0  0  0  0  0  0  0  0  0  0  0  0
    0.8260    8.3390   -2.1470 H   0  0  0  0  0  0  0  0  0  0  0  0
   -0.5780   10.0504    2.1097 H   0  0  0  0  0  0  0  0  0  0  0  0
    0.9085   10.8910    1.5527 H   0  0  0  0  0  0  0  0  0  0  0  0
   -0.6658   11.7559    1.5527 H   0  0  0  0  0  0  0  0  0  0  0  0
   -2.2787    9.6828    0.9536 H   0  0  0  0  0  0  0  0  0  0  0  0
   -2.5383   10.5431   -0.6018 H   0  0  0  0  0  0  0  0  0  0  0  0
   -1.9679    8.8398   -0.6018 H   0  0  0  0  0  0  0  0  0  0  0  0
    1.8892   11.3689   -3.6610 H   0  0  0  0  0  0  0  0  0  0  0  0
    0.7579   12.6406   -4.2352 H   0  0  0  0  0  0  0  0  0  0  0  0
    2.5280   12.9465   -4.2352 H   0  0  0  0  0  0  0  0  0  0  0  0
    3.6607   12.8534   -1.5610 H   0  0  0  0  0  0  0  0  0  0  0  0
    3.3352   14.1219   -2.8724 H   0  0  0  0  0  0  0  0  0  0  0  0
    2.8362   14.3718    0.1063 H   0  0  0  0  0  0  0  0  0  0  0  0
    4.0200   15.2738   -0.9198 H   0  0  0  0  0  0  0  0  0  0  0  0
    2.8466   17.4341   -2.4401 H   0  0  0  0  0  0  0  0  0  0  0  0
    2.9625   15.7925   -3.1600 H   0  0  0  0  0  0  0  0  0  0  0  0
    1.3920   16.6644   -3.1600 H   0  0  0  0  0  0  0  0  0  0  0  0
  1  2  1  0
  2  3  1  0
  3  4  1  0
  4  5  1  0
  5  6  1  0
  6  7  1  0
  7  8  1  0
  7  9  1  0
  2 10  1  0
 10 11  1  0
 11 12  1  0
 12 13  1  0
 13 14  1  1
 13 15  1  0
 15 16  1  0
 16 17  1  0
 17 18  2  0
 18 19  1  0
 19 20  1  0
 20 21  1  0
 21 22  1  0
 22 23  1  0
 22 24  1  0
 24 25  1  0
 24 26  1  0
 19 27  1  0
 27 28  1  6
 27 29  1  0
 29 30  1  0
 30 31  1  0
 31 32  1  6
  7  5  1  0
 31 10  1  0
 31 13  1  0
 27 15  1  0
 24 18  1  0
  1 33  1  0
  1 34  1  0
  1 35  1  0
  2 36  1  6
  3 37  1  0
  3 38  1  0
  4 39  1  0
  4 40  1  0
  5 41  1  1
  8 42  1  0
  8 43  1  0
  8 44  1  0
  9 45  1  0
  9 46  1  0
  9 47  1  0
 10 48  1  1
 11 49  1  0
 11 50  1  0
 12 51  1  0
 12 52  1  0
 14 53  1  0
 14 54  1  0
 14 55  1  0
 15 56  1  6
 16 57  1  0
 16 58  1  0
 17 59  1  0
 19 60  1  1
 20 61  1  0
 20 62  1  0
 21 63  1  0
 21 64  1  0
 22 65  1  1
 23 66  1  0
 25 67  1  0
 25 68  1  0
 25 69  1  0
 26 70  1  0
 26 71  1  0
 26 72  1  0
 28 73  1  0
 28 74  1  0
 28 75  1  0
 29 76  1  0
 29 77  1  0
 30 78  1  0
 30 79  1  0
 32 80  1  0
 32 81  1  0
 32 82  1  0
M  END
>  <meeko>  (5) 
{"is_sidechain": [false], "intermolecular_energy": 2.731, "internal_energy": -0.839}

$$$$
EPH_relaxed_0001_pdb2pqr_Repair_246_r2_0001_out
     RDKit          3D

 82 86  0  0  0  0  0  0  0  0999 V2000
    3.8010   17.7360    0.7170 C   0  0  0  0  0  0  0  0  0  0  0  0
    2.8380   18.1120   -0.4130 C   0  0  2  0  0  0  0  0  0  0  0  0
    2.1550   19.4720   -0.1650 C   0  0  0  0  0  0  0  0  0  0  0  0
    1.0750   19.4290    0.9190 C   0  0  0  0  0  0  0  0  0  0  0  0
   -0.2030   20.0590    0.4530 C   0  0  2  0  0  0  0  0  0  0  0  0
   -1.2110   20.1880    1.4650 O   0  0  0  0  0  0  0  0  0  0  0  0
   -1.5210   19.3120    0.3690 C   0  0  0  0  0  0  0  0  0  0  0  0
   -1.6270   17.8690    0.7540 C   0  0  0  0  0  0  0  0  0  0  0  0
   -2.5860   19.8400   -0.5420 C   0  0  0  0  0  0  0  0  0  0  0  0
    1.7850   17.0230   -0.5820 C   0  0  1  0  0  0  0  0  0  0  0  0
    0.5510   17.5060   -1.3900 C   0  0  0  0  0  0  0  0  0  0  0  0
    0.0600   16.2950   -2.2230 C   0  0  0  0  0  0  0  0  0  0  0  0
    0.8080   15.0810   -1.6250 C   0  0  1  0  0  0  0  0  0  0  0  0
   -0.0060   14.6950   -0.3500 C   0  0  0  0  0  0  0  0  0  0  0  0
    1.0070   13.8550   -2.5750 C   0  0  2  0  0  0  0  0  0  0  0  0
   -0.2910   13.1840   -3.0550 C   0  0  0  0  0  0  0  0  0  0  0  0
   -0.7940   12.0760   -2.1910 C   0  0  0  0  0  0  0  0  0  0  0  0
   -0.0860   11.4460   -1.2350 C   0  0  0  0  0  0  0  0  0  0  0  0
    1.3970   11.7700   -1.0120 C   0  0  1  0  0  0  0  0  0  0  0  0
    2.2030   10.4510   -0.8860 C   0  0  0  0  0  0  0  0  0  0  0  0
    1.6400    9.5220    0.1860 C   0  0  0  0  0  0  0  0  0  0  0  0
    0.1820    9.1760   -0.1030 C   0  0  2  0  0  0  0  0  0  0  0  0
    0.1230    8.3860   -1.2950 O   0  0  0  0  0  0  0  0  0  0  0  0
   -0.7260   10.4280   -0.2600 C   0  0  0  0  0  0  0  0  0  0  0  0
   -0.9030   11.1180    1.1150 C   0  0  0  0  0  0  0  0  0  0  0  0
   -2.1370    9.9440   -0.6880 C   0  0  0  0  0  0  0  0  0  0  0  0
    2.0480   12.7870   -2.0450 C   0  0  1  0  0  0  0  0  0  0  0  0
    2.5680   12.0140   -3.2960 C   0  0  0  0  0  0  0  0  0  0  0  0
    3.3090   13.4570   -1.3830 C   0  0  0  0  0  0  0  0  0  0  0  0
    3.0630   14.7330   -0.5550 C   0  0  0  0  0  0  0  0  0  0  0  0
    2.2070   15.7360   -1.3340 C   0  0  2  0  0  0  0  0  0  0  0  0
    3.0110   16.1590   -2.6110 C   0  0  0  0  0  0  0  0  0  0  0  0
    3.3188   17.9243    1.6876 H   0  0  0  0  0  0  0  0  0  0  0  0
    4.0613   16.6702    0.6375 H   0  0  0  0  0  0  0  0  0  0  0  0
    4.7146   18.3435    0.6375 H   0  0  0  0  0  0  0  0  0  0  0  0
    3.4296   18.2033   -1.3359 H   0  0  0  0  0  0  0  0  0  0  0  0
    2.9244   20.1967    0.1397 H   0  0  0  0  0  0  0  0  0  0  0  0
    1.6576   19.7581   -1.1035 H   0  0  0  0  0  0  0  0  0  0  0  0
    0.8789   18.3800    1.1856 H   0  0  0  0  0  0  0  0  0  0  0  0
    1.4393   19.9951    1.7890 H   0  0  0  0  0  0  0  0  0  0  0  0
    0.3405   20.6809   -0.2736 H   0  0  0  0  0  0  0  0  0  0  0  0
   -1.6334   17.7816    1.8505 H   0  0  0  0  0  0  0  0  0  0  0  0
   -2.5585   17.4484    0.3472 H   0  0  0  0  0  0  0  0  0  0  0  0
   -0.7670   17.3168    0.3472 H   0  0  0  0  0  0  0  0  0  0  0  0
   -3.4119   20.2495    0.0581 H   0  0  0  0  0  0  0  0  0  0  0  0
   -2.1652   20.6338   -1.1766 H   0  0  0  0  0  0  0  0  0  0  0  0
   -2.9631   19.0245   -1.1766 H   0  0  0  0  0  0  0  0  0  0  0  0
    1.5864   16.7928    0.4752 H   0  0  0  0  0  0  0  0  0  0  0  0
   -0.2422   17.8416   -0.7057 H   0  0  0  0  0  0  0  0  0  0  0  0
    0.8122   18.3533   -2.0411 H   0  0  0  0  0  0  0  0  0  0  0  0
   -1.0280   16.1693   -2.1213 H   0  0  0  0  0  0  0  0  0  0  0  0
    0.2593   16.4197   -3.2976 H   0  0  0  0  0  0  0  0  0  0  0  0
    0.5681   14.9673    0.5479 H   0  0  0  0  0  0  0  0  0  0  0  0
   -0.9647   15.2344   -0.3498 H   0  0  0  0  0  0  0  0  0  0  0  0
   -0.1950   13.6114   -0.3498 H   0  0  0  0  0  0  0  0  0  0  0  0
    1.4513   14.3184   -3.4682 H   0  0  0  0  0  0  0  0  0  0  0  0
   -1.0731   13.9557   -3.1075 H   0  0  0  0  0  0  0  0  0  0  0  0
   -0.0556   12.7279   -4.0279 H   0  0  0  0  0  0  0  0  0  0  0  0
   -1.8314   11.7461   -2.3488 H   0  0  0  0  0  0  0  0  0  0  0  0
    1.4463   12.3287   -0.0657 H   0  0  0  0  0  0  0  0  0  0  0  0
    2.1783    9.9287   -1.8538 H   0  0  0  0  0  0  0  0  0  0  0  0
    3.2305   10.7138   -0.5943 H   0  0  0  0  0  0  0  0  0  0  0  0
    2.2326    8.5955    0.2068 H   0  0  0  0  0  0  0  0  0  0  0  0
    1.6932   10.0345    1.1579 H   0  0  0  0  0  0  0  0  0  0  0  0
   -0.2020    8.6173    0.7633 H   0  0  0  0  0  0  0  0  0  0  0  0
    0.9100    7.8160   -1.3090 H   0  0  0  0  0  0  0  0  0  0  0  0
   -0.7161   10.3894    1.9176 H   0  0  0  0  0  0  0  0  0  0  0  0
   -0.1893   11.9505    1.2020 H   0  0  0  0  0  0  0  0  0  0  0  0
   -1.9293   11.5042    1.2020 H   0  0  0  0  0  0  0  0  0  0  0  0
   -2.7409    9.7368    0.2077 H   0  0  0  0  0  0  0  0  0  0  0  0
   -2.6265   10.7256   -1.2876 H   0  0  0  0  0  0  0  0  0  0  0  0
   -2.0437    9.0265   -1.2876 H   0  0  0  0  0  0  0  0  0  0  0  0
    3.1545   11.1421   -2.9706 H   0  0  0  0  0  0  0  0  0  0  0  0
    1.7129   11.6761   -3.8998 H   0  0  0  0  0  0  0  0  0  0  0  0
    3.2033   12.6787   -3.8998 H   0  0  0  0  0  0  0  0  0  0  0  0
    3.7709   12.7125   -0.7179 H   0  0  0  0  0  0  0  0  0  0  0  0
    3.9403   13.7773   -2.2249 H   0  0  0  0  0  0  0  0  0  0  0  0
    2.5431   14.4631    0.3760 H   0  0  0  0  0  0  0  0  0  0  0  0
    4.0342   15.1993   -0.3327 H   0  0  0  0  0  0  0  0  0  0  0  0
    3.9470   16.6514   -2.3086 H   0  0  0  0  0  0  0  0  0  0  0  0
    3.2434   15.2664   -3.2104 H   0  0  0  0  0  0  0  0  0  0  0  0
    2.4070   16.8561   -3.2104 H   0  0  0  0  0  0  0  0  0  0  0  0
  1  2  1  0
  2  3  1  0
  3  4  1  0
  4  5  1  0
  5  6  1  0
  6  7  1  0
  7  8  1  0
  7  9  1  0
  2 10  1  0
 10 11  1  0
 11 12  1  0
 12 13  1  0
 13 14  1  1
 13 15  1  0
 15 16  1  0
 16 17  1  0
 17 18  2  0
 18 19  1  0
 19 20  1  0
 20 21  1  0
 21 22  1  0
 22 23  1  0
 22 24  1  0
 24 25  1  0
 24 26  1  0
 19 27  1  0
 27 28  1  6
 27 29  1  0
 29 30  1  0
 30 31  1  0
 31 32  1  6
  7  5  1  0
 31 10  1  0
 31 13  1  0
 27 15  1  0
 24 18  1  0
  1 33  1  0
  1 34  1  0
  1 35  1  0
  2 36  1  6
  3 37  1  0
  3 38  1  0
  4 39  1  0
  4 40  1  0
  5 41  1  6
  8 42  1  0
  8 43  1  0
  8 44  1  0
  9 45  1  0
  9 46  1  0
  9 47  1  0
 10 48  1  1
 11 49  1  0
 11 50  1  0
 12 51  1  0
 12 52  1  0
 14 53  1  0
 14 54  1  0
 14 55  1  0
 15 56  1  6
 16 57  1  0
 16 58  1  0
 17 59  1  0
 19 60  1  1
 20 61  1  0
 20 62  1  0
 21 63  1  0
 21 64  1  0
 22 65  1  1
 23 66  1  0
 25 67  1  0
 25 68  1  0
 25 69  1  0
 26 70  1  0
 26 71  1  0
 26 72  1  0
 28 73  1  0
 28 74  1  0
 28 75  1  0
 29 76  1  0
 29 77  1  0
 30 78  1  0
 30 79  1  0
 32 80  1  0
 32 81  1  0
 32 82  1  0
M  END
>  <meeko>  (6) 
{"is_sidechain": [false], "intermolecular_energy": 2.731, "internal_energy": -0.839}

$$$$
EPH_relaxed_0001_pdb2pqr_Repair_246_r2_0001_out
     RDKit          3D

 82 86  0  0  0  0  0  0  0  0999 V2000
   -5.2370    5.7430   -1.5650 C   0  0  0  0  0  0  0  0  0  0  0  0
   -5.4690    7.2440   -1.7620 C   0  0  2  0  0  0  0  0  0  0  0  0
   -5.1990    8.0470   -0.4730 C   0  0  0  0  0  0  0  0  0  0  0  0
   -4.2380    9.2230   -0.6710 C   0  0  0  0  0  0  0  0  0  0  0  0
   -2.8160    8.8280   -0.4090 C   0  0  2  0  0  0  0  0  0  0  0  0
   -2.1730    9.5660    0.6370 O   0  0  0  0  0  0  0  0  0  0  0  0
   -1.6320    9.7360   -0.6830 C   0  0  0  0  0  0  0  0  0  0  0  0
   -1.8160   11.1110   -1.2440 C   0  0  0  0  0  0  0  0  0  0  0  0
   -0.2820    9.1150   -0.8660 C   0  0  0  0  0  0  0  0  0  0  0  0
   -6.8950    7.4920   -2.2400 C   0  0  1  0  0  0  0  0  0  0  0  0
   -7.2010    6.7940   -3.5920 C   0  0  0  0  0  0  0  0  0  0  0  0
   -8.6840    6.3460   -3.5380 C   0  0  0  0  0  0  0  0  0  0  0  0
   -9.2700    7.0830   -2.3120 C   0  0  1  0  0  0  0  0  0  0  0  0
   -9.5930    8.5220   -2.8250 C   0  0  0  0  0  0  0  0  0  0  0  0
  -10.5140    6.4190   -1.6350 C   0  0  2  0  0  0  0  0  0  0  0  0
  -11.7620    6.3100   -2.5290 C   0  0  0  0  0  0  0  0  0  0  0  0
  -12.6970    7.4710   -2.4630 C   0  0  0  0  0  0  0  0  0  0  0  0
  -12.6940    8.4250   -1.5130 C   0  0  0  0  0  0  0  0  0  0  0  0
  -11.7420    8.3390   -0.3140 C   0  0  1  0  0  0  0  0  0  0  0  0
  -12.5260    8.6380    0.9920 C   0  0  0  0  0  0  0  0  0  0  0  0
  -13.2730    9.9670    0.9340 C   0  0  0  0  0  0  0  0  0  0  0  0
  -14.2520    9.9920   -0.2370 C   0  0  2  0  0  0  0  0  0  0  0  0
  -15.2870    9.0350    0.0070 O   0  0  0  0  0  0  0  0  0  0  0  0
  -13.5770    9.6940   -1.6060 C   0  0  0  0  0  0  0  0  0  0  0  0
  -12.6750   10.8850   -2.0120 C   0  0  0  0  0  0  0  0  0  0  0  0
  -14.6950    9.6090   -2.6800 C   0  0  0  0  0  0  0  0  0  0  0  0
  -10.8720    7.0130   -0.2130 C   0  0  1  0  0  0  0  0  0  0  0  0
  -11.6720    5.9070    0.5420 C   0  0  0  0  0  0  0  0  0  0  0  0
   -9.5900    7.3030    0.6540 C   0  0  0  0  0  0  0  0  0  0  0  0
   -8.3560    7.8460   -0.0910 C   0  0  0  0  0  0  0  0  0  0  0  0
   -8.0460    6.9980   -1.3290 C   0  0  2  0  0  0  0  0  0  0  0  0
   -7.6960    5.5500   -0.8420 C   0  0  0  0  0  0  0  0  0  0  0  0
   -5.2018    5.5155   -0.4894 H   0  0  0  0  0  0  0  0  0  0  0  0
   -6.0589    5.1805   -2.0321 H   0  0  0  0  0  0  0  0  0  0  0  0
   -4.2837    5.4549   -2.0321 H   0  0  0  0  0  0  0  0  0  0  0  0
   -4.7559    7.5915   -2.5240 H   0  0  0  0  0  0  0  0  0  0  0  0
   -6.1569    8.4399   -0.1014 H   0  0  0  0  0  0  0  0  0  0  0  0
   -4.7227    7.3589    0.2409 H   0  0  0  0  0  0  0  0  0  0  0  0
   -4.3230    9.5820   -1.7073 H   0  0  0  0  0  0  0  0  0  0  0  0
   -4.5114   10.0130    0.0440 H   0  0  0  0  0  0  0  0  0  0  0  0
   -3.0282    7.7865   -0.6924 H   0  0  0  0  0  0  0  0  0  0  0  0
   -1.9127   11.8333   -0.4200 H   0  0  0  0  0  0  0  0  0  0  0  0
   -0.9451   11.3744   -1.8622 H   0  0  0  0  0  0  0  0  0  0  0  0
   -2.7255   11.1361   -1.8622 H   0  0  0  0  0  0  0  0  0  0  0  0
    0.1638    8.9099    0.1185 H   0  0  0  0  0  0  0  0  0  0  0  0
   -0.3843    8.1734   -1.4255 H   0  0  0  0  0  0  0  0  0  0  0  0
    0.3664    9.8054   -1.4255 H   0  0  0  0  0  0  0  0  0  0  0  0
   -6.8893    8.5914   -2.2762 H   0  0  0  0  0  0  0  0  0  0  0  0
   -7.0475    7.4966   -4.4244 H   0  0  0  0  0  0  0  0  0  0  0  0
   -6.5341    5.9341   -3.7526 H   0  0  0  0  0  0  0  0  0  0  0  0
   -9.2122    6.6403   -4.4569 H   0  0  0  0  0  0  0  0  0  0  0  0
   -8.7870    5.2539   -3.4565 H   0  0  0  0  0  0  0  0  0  0  0  0
   -9.7435    9.1924   -1.9659 H   0  0  0  0  0  0  0  0  0  0  0  0
   -8.7552    8.8904   -3.4352 H   0  0  0  0  0  0  0  0  0  0  0  0
  -10.5079    8.4970   -3.4352 H   0  0  0  0  0  0  0  0  0  0  0  0
  -10.1714    5.3864   -1.4723 H   0  0  0  0  0  0  0  0  0  0  0  0
  -11.4255    6.2035   -3.5708 H   0  0  0  0  0  0  0  0  0  0  0  0
  -12.3274    5.4426   -2.1576 H   0  0  0  0  0  0  0  0  0  0  0  0
  -13.4528    7.5545   -3.2579 H   0  0  0  0  0  0  0  0  0  0  0  0
  -10.9775    9.1131   -0.4765 H   0  0  0  0  0  0  0  0  0  0  0  0
  -13.2545    7.8309    1.1587 H   0  0  0  0  0  0  0  0  0  0  0  0
  -11.7964    8.7003    1.8129 H   0  0  0  0  0  0  0  0  0  0  0  0
  -13.8300   10.1081    1.8720 H   0  0  0  0  0  0  0  0  0  0  0  0
  -12.5403   10.7758    0.7964 H   0  0  0  0  0  0  0  0  0  0  0  0
  -14.6609   11.0110   -0.3037 H   0  0  0  0  0  0  0  0  0  0  0  0
  -16.1390    9.4790   -0.1450 H   0  0  0  0  0  0  0  0  0  0  0  0
  -12.2972   11.3839   -1.1074 H   0  0  0  0  0  0  0  0  0  0  0  0
  -11.8275   10.5164   -2.6086 H   0  0  0  0  0  0  0  0  0  0  0  0
  -13.2595   11.6009   -2.6086 H   0  0  0  0  0  0  0  0  0  0  0  0
  -15.6744    9.5345   -2.1847 H   0  0  0  0  0  0  0  0  0  0  0  0
  -14.6695   10.5117   -3.3081 H   0  0  0  0  0  0  0  0  0  0  0  0
  -14.5333    8.7206   -3.3081 H   0  0  0  0  0  0  0  0  0  0  0  0
  -11.5659    6.0537    1.6270 H   0  0  0  0  0  0  0  0  0  0  0  0
  -12.7349    5.9700    0.2657 H   0  0  0  0  0  0  0  0  0  0  0  0
  -11.2794    4.9173    0.2657 H   0  0  0  0  0  0  0  0  0  0  0  0
   -9.8670    8.0411    1.4211 H   0  0  0  0  0  0  0  0  0  0  0  0
   -9.2808    6.3233    1.0472 H   0  0  0  0  0  0  0  0  0  0  0  0
   -8.5518    8.8821   -0.4043 H   0  0  0  0  0  0  0  0  0  0  0  0
   -7.4909    7.8060    0.5873 H   0  0  0  0  0  0  0  0  0  0  0  0
   -7.6898    5.5245    0.2577 H   0  0  0  0  0  0  0  0  0  0  0  0
   -8.4493    4.8436   -1.2209 H   0  0  0  0  0  0  0  0  0  0  0  0
   -6.7033    5.2656   -1.2209 H   0  0  0  0  0  0  0  0  0  0  0  0
  1  2  1  0
  2  3  1  0
  3  4  1  0
  4  5  1  0
  5  6  1  0
  6  7  1  0
  7  8  1  0
  7  9  1  0
  2 10  1  0
 10 11  1  0
 11 12  1  0
 12 13  1  0
 13 14  1  6
 13 15  1  0
 15 16  1  0
 16 17  1  0
 17 18  2  0
 18 19  1  0
 19 20  1  0
 20 21  1  0
 21 22  1  0
 22 23  1  0
 22 24  1  0
 24 25  1  0
 24 26  1  0
 19 27  1  0
 27 28  1  1
 27 29  1  0
 29 30  1  0
 30 31  1  0
 31 32  1  1
  7  5  1  0
 31 10  1  0
 31 13  1  0
 27 15  1  0
 24 18  1  0
  1 33  1  0
  1 34  1  0
  1 35  1  0
  2 36  1  6
  3 37  1  0
  3 38  1  0
  4 39  1  0
  4 40  1  0
  5 41  1  1
  8 42  1  0
  8 43  1  0
  8 44  1  0
  9 45  1  0
  9 46  1  0
  9 47  1  0
 10 48  1  6
 11 49  1  0
 11 50  1  0
 12 51  1  0
 12 52  1  0
 14 53  1  0
 14 54  1  0
 14 55  1  0
 15 56  1  1
 16 57  1  0
 16 58  1  0
 17 59  1  0
 19 60  1  6
 20 61  1  0
 20 62  1  0
 21 63  1  0
 21 64  1  0
 22 65  1  6
 23 66  1  0
 25 67  1  0
 25 68  1  0
 25 69  1  0
 26 70  1  0
 26 71  1  0
 26 72  1  0
 28 73  1  0
 28 74  1  0
 28 75  1  0
 29 76  1  0
 29 77  1  0
 30 78  1  0
 30 79  1  0
 32 80  1  0
 32 81  1  0
 32 82  1  0
M  END
>  <meeko>  (7) 
{"is_sidechain": [false], "intermolecular_energy": 2.731, "internal_energy": -0.839}

$$$$
EPH_relaxed_0001_pdb2pqr_Repair_246_r2_0001_out
     RDKit          3D

 82 86  0  0  0  0  0  0  0  0999 V2000
    0.4060    8.8370   -2.4820 C   0  0  0  0  0  0  0  0  0  0  0  0
    1.1580    9.9890   -3.1540 C   0  0  2  0  0  0  0  0  0  0  0  0
    2.6560    9.9940   -2.7920 C   0  0  0  0  0  0  0  0  0  0  0  0
    3.5490   10.6080   -3.8750 C   0  0  0  0  0  0  0  0  0  0  0  0
    4.9450   10.8360   -3.3790 C   0  0  2  0  0  0  0  0  0  0  0  0
    5.5570   12.0430   -3.8490 O   0  0  0  0  0  0  0  0  0  0  0  0
    6.1660   10.8150   -4.2790 C   0  0  0  0  0  0  0  0  0  0  0  0
    6.0480   10.5590   -5.7490 C   0  0  0  0  0  0  0  0  0  0  0  0
    7.5050   10.5580   -3.6620 C   0  0  0  0  0  0  0  0  0  0  0  0
    0.5230   11.3200   -2.7670 C   0  0  1  0  0  0  0  0  0  0  0  0
   -0.8540   11.1450   -2.0730 C   0  0  0  0  0  0  0  0  0  0  0  0
   -0.9650   12.2690   -1.0110 C   0  0  0  0  0  0  0  0  0  0  0  0
    0.1880   13.2430   -1.3510 C   0  0  1  0  0  0  0  0  0  0  0  0
   -0.3600   14.1200   -2.5200 C   0  0  0  0  0  0  0  0  0  0  0  0
    0.7220   14.1200   -0.1720 C   0  0  2  0  0  0  0  0  0  0  0  0
   -0.3050   15.0910    0.4360 C   0  0  0  0  0  0  0  0  0  0  0  0
   -0.3450   16.4480   -0.1850 C   0  0  0  0  0  0  0  0  0  0  0  0
    0.5990   16.9660   -0.9940 C   0  0  0  0  0  0  0  0  0  0  0  0
    1.8970   16.2010   -1.2800 C   0  0  1  0  0  0  0  0  0  0  0  0
    3.1070   17.1620   -1.1360 C   0  0  0  0  0  0  0  0  0  0  0  0
    2.9650   18.4140   -1.9970 C   0  0  0  0  0  0  0  0  0  0  0  0
    1.6920   19.1780   -1.6420 C   0  0  2  0  0  0  0  0  0  0  0  0
    1.8200   19.6970   -0.3150 O   0  0  0  0  0  0  0  0  0  0  0  0
    0.4070   18.3080   -1.7420 C   0  0  0  0  0  0  0  0  0  0  0  0
    0.1030   17.9970   -3.2280 C   0  0  0  0  0  0  0  0  0  0  0  0
   -0.7850   19.1570   -1.2230 C   0  0  0  0  0  0  0  0  0  0  0  0
    2.0950   14.8460   -0.4740 C   0  0  1  0  0  0  0  0  0  0  0  0
    2.7570   15.1390    0.9070 C   0  0  0  0  0  0  0  0  0  0  0  0
    3.0990   13.9220   -1.2610 C   0  0  0  0  0  0  0  0  0  0  0  0
    2.4960   12.9920   -2.3300 C   0  0  0  0  0  0  0  0  0  0  0  0
    1.3010   12.2140   -1.7690 C   0  0  2  0  0  0  0  0  0  0  0  0
    1.8250   11.3060   -0.6050 C   0  0  0  0  0  0  0  0  0  0  0  0
    0.4747    8.9423   -1.3892 H   0  0  0  0  0  0  0  0  0  0  0  0
   -0.6506    8.8615   -2.7870 H   0  0  0  0  0  0  0  0  0  0  0  0
    0.8536    7.8796   -2.7870 H   0  0  0  0  0  0  0  0  0  0  0  0
    1.0825    9.8438   -4.2418 H   0  0  0  0  0  0  0  0  0  0  0  0
    2.7874   10.5714   -1.8650 H   0  0  0  0  0  0  0  0  0  0  0  0
    2.9631    8.9438   -2.6793 H   0  0  0  0  0  0  0  0  0  0  0  0
    3.5840    9.9258   -4.7372 H   0  0  0  0  0  0  0  0  0  0  0  0
    3.1229   11.5814   -4.1595 H   0  0  0  0  0  0  0  0  0  0  0  0
    4.7176   10.3244   -2.4321 H   0  0  0  0  0  0  0  0  0  0  0  0
    5.5927    9.5713   -5.9138 H   0  0  0  0  0  0  0  0  0  0  0  0
    5.4166   11.3348   -6.2068 H   0  0  0  0  0  0  0  0  0  0  0  0
    7.0479   10.5828   -6.2068 H   0  0  0  0  0  0  0  0  0  0  0  0
    7.4132   10.5756   -2.5660 H   0  0  0  0  0  0  0  0  0  0  0  0
    7.8737    9.5727   -3.9833 H   0  0  0  0  0  0  0  0  0  0  0  0
    8.2123   11.3368   -3.9833 H   0  0  0  0  0  0  0  0  0  0  0  0
    0.4860   11.8022   -3.7550 H   0  0  0  0  0  0  0  0  0  0  0  0
   -1.6647   11.2391   -2.8105 H   0  0  0  0  0  0  0  0  0  0  0  0
   -0.9387   10.1519   -1.6077 H   0  0  0  0  0  0  0  0  0  0  0  0
   -1.9375   12.7778   -1.0844 H   0  0  0  0  0  0  0  0  0  0  0  0
   -0.8939   11.8810    0.0158 H   0  0  0  0  0  0  0  0  0  0  0  0
   -0.9004   14.9848   -2.1075 H   0  0  0  0  0  0  0  0  0  0  0  0
    0.4787   14.4726   -3.1382 H   0  0  0  0  0  0  0  0  0  0  0  0
   -1.0446   13.5207   -3.1382 H   0  0  0  0  0  0  0  0  0  0  0  0
    0.9223   13.3701    0.6074 H   0  0  0  0  0  0  0  0  0  0  0  0
   -1.3027   14.6398    0.3314 H   0  0  0  0  0  0  0  0  0  0  0  0
    0.0021   15.2436    1.4812 H   0  0  0  0  0  0  0  0  0  0  0  0
   -1.2191   17.0779    0.0369 H   0  0  0  0  0  0  0  0  0  0  0  0
    1.8204   15.8502   -2.3198 H   0  0  0  0  0  0  0  0  0  0  0  0
    3.1923   17.4663   -0.0824 H   0  0  0  0  0  0  0  0  0  0  0  0
    4.0039   16.6231   -1.4753 H   0  0  0  0  0  0  0  0  0  0  0  0
    3.8348   19.0663   -1.8302 H   0  0  0  0  0  0  0  0  0  0  0  0
    2.9095   18.1100   -3.0527 H   0  0  0  0  0  0  0  0  0  0  0  0
    1.5791   19.9894   -2.3761 H   0  0  0  0  0  0  0  0  0  0  0  0
    2.1700   20.6010   -0.3850 H   0  0  0  0  0  0  0  0  0  0  0  0
   -0.6647   17.2116   -3.2886 H   0  0  0  0  0  0  0  0  0  0  0  0
   -0.2634   18.9071   -3.7256 H   0  0  0  0  0  0  0  0  0  0  0  0
    1.0212   17.6514   -3.7256 H   0  0  0  0  0  0  0  0  0  0  0  0
   -0.7841   19.1564   -0.1230 H   0  0  0  0  0  0  0  0  0  0  0  0
   -0.6866   20.1896   -1.5892 H   0  0  0  0  0  0  0  0  0  0  0  0
   -1.7287   18.7265   -1.5892 H   0  0  0  0  0  0  0  0  0  0  0  0
    2.0727   14.8361    1.7133 H   0  0  0  0  0  0  0  0  0  0  0  0
    3.6961   14.5725    0.9910 H   0  0  0  0  0  0  0  0  0  0  0  0
    2.9691   16.2151    0.9910 H   0  0  0  0  0  0  0  0  0  0  0  0
    3.8291   14.5748   -1.7617 H   0  0  0  0  0  0  0  0  0  0  0  0
    3.5254   13.2493   -0.5023 H   0  0  0  0  0  0  0  0  0  0  0  0
    2.1619   13.5967   -3.1860 H   0  0  0  0  0  0  0  0  0  0  0  0
    3.2666   12.2727   -2.6442 H   0  0  0  0  0  0  0  0  0  0  0  0
    1.5625   11.7609    0.3615 H   0  0  0  0  0  0  0  0  0  0  0  0
    1.3623   10.3108   -0.6796 H   0  0  0  0  0  0  0  0  0  0  0  0
    2.9181   11.2087   -0.6796 H   0  0  0  0  0  0  0  0  0  0  0  0
  1  2  1  0
  2  3  1  0
  3  4  1  0
  4  5  1  0
  5  6  1  0
  6  7  1  0
  7  8  1  0
  7  9  1  0
  2 10  1  0
 10 11  1  0
 11 12  1  0
 12 13  1  0
 13 14  1  6
 13 15  1  0
 15 16  1  0
 16 17  1  0
 17 18  2  0
 18 19  1  0
 19 20  1  0
 20 21  1  0
 21 22  1  0
 22 23  1  0
 22 24  1  0
 24 25  1  0
 24 26  1  0
 19 27  1  0
 27 28  1  1
 27 29  1  0
 29 30  1  0
 30 31  1  0
 31 32  1  1
  7  5  1  0
 31 10  1  0
 31 13  1  0
 27 15  1  0
 24 18  1  0
  1 33  1  0
  1 34  1  0
  1 35  1  0
  2 36  1  6
  3 37  1  0
  3 38  1  0
  4 39  1  0
  4 40  1  0
  5 41  1  1
  8 42  1  0
  8 43  1  0
  8 44  1  0
  9 45  1  0
  9 46  1  0
  9 47  1  0
 10 48  1  6
 11 49  1  0
 11 50  1  0
 12 51  1  0
 12 52  1  0
 14 53  1  0
 14 54  1  0
 14 55  1  0
 15 56  1  1
 16 57  1  0
 16 58  1  0
 17 59  1  0
 19 60  1  6
 20 61  1  0
 20 62  1  0
 21 63  1  0
 21 64  1  0
 22 65  1  6
 23 66  1  0
 25 67  1  0
 25 68  1  0
 25 69  1  0
 26 70  1  0
 26 71  1  0
 26 72  1  0
 28 73  1  0
 28 74  1  0
 28 75  1  0
 29 76  1  0
 29 77  1  0
 30 78  1  0
 30 79  1  0
 32 80  1  0
 32 81  1  0
 32 82  1  0
M  END
>  <meeko>  (8) 
{"is_sidechain": [false], "intermolecular_energy": 2.731, "internal_energy": -0.839}

$$$$
EPH_relaxed_0001_pdb2pqr_Repair_246_r2_0001_out
     RDKit          3D

 82 86  0  0  0  0  0  0  0  0999 V2000
    3.0900   18.6920   -1.1880 C   0  0  0  0  0  0  0  0  0  0  0  0
    2.7110   17.6370   -2.2300 C   0  0  2  0  0  0  0  0  0  0  0  0
    1.3080   17.8820   -2.8220 C   0  0  0  0  0  0  0  0  0  0  0  0
    0.6750   19.2030   -2.3780 C   0  0  0  0  0  0  0  0  0  0  0  0
   -0.6700   18.9920   -1.7530 C   0  0  2  0  0  0  0  0  0  0  0  0
   -1.4250   20.1910   -1.5350 O   0  0  0  0  0  0  0  0  0  0  0  0
   -1.0290   19.4680   -0.3580 C   0  0  0  0  0  0  0  0  0  0  0  0
   -0.0380   20.1940    0.4980 C   0  0  0  0  0  0  0  0  0  0  0  0
   -2.1670   18.8060    0.3540 C   0  0  0  0  0  0  0  0  0  0  0  0
    2.7800   16.2460   -1.6110 C   0  0  1  0  0  0  0  0  0  0  0  0
    3.3960   16.2560   -0.1870 C   0  0  0  0  0  0  0  0  0  0  0  0
    2.6610   15.1600    0.6270 C   0  0  0  0  0  0  0  0  0  0  0  0
    1.8900   14.3390   -0.4330 C   0  0  1  0  0  0  0  0  0  0  0  0
    2.9490   13.3620   -1.0320 C   0  0  0  0  0  0  0  0  0  0  0  0
    0.6210   13.5770    0.0720 C   0  0  2  0  0  0  0  0  0  0  0  0
    0.8890   12.4970    1.1340 C   0  0  0  0  0  0  0  0  0  0  0  0
    1.1530   11.1280    0.5990 C   0  0  0  0  0  0  0  0  0  0  0  0
    0.8970   10.7160   -0.6560 C   0  0  0  0  0  0  0  0  0  0  0  0
    0.1920   11.6390   -1.6590 C   0  0  1  0  0  0  0  0  0  0  0  0
   -0.9320   10.8530   -2.3840 C   0  0  0  0  0  0  0  0  0  0  0  0
   -0.4240    9.5680   -3.0310 C   0  0  0  0  0  0  0  0  0  0  0  0
    0.2180    8.6520   -1.9920 C   0  0  2  0  0  0  0  0  0  0  0  0
   -0.7950    8.1950   -1.0910 O   0  0  0  0  0  0  0  0  0  0  0  0
    1.3590    9.3380   -1.1910 C   0  0  0  0  0  0  0  0  0  0  0  0
    2.5830    9.5610   -2.1140 C   0  0  0  0  0  0  0  0  0  0  0  0
    1.8250    8.3550   -0.0830 C   0  0  0  0  0  0  0  0  0  0  0  0
   -0.3110   13.0320   -1.0840 C   0  0  1  0  0  0  0  0  0  0  0  0
   -1.7350   12.8720   -0.4700 C   0  0  0  0  0  0  0  0  0  0  0  0
   -0.4530   14.0570   -2.2720 C   0  0  0  0  0  0  0  0  0  0  0  0
    0.8040   14.8660   -2.6450 C   0  0  0  0  0  0  0  0  0  0  0  0
    1.4420   15.4940   -1.4020 C   0  0  2  0  0  0  0  0  0  0  0  0
    0.4080   16.4990   -0.7900 C   0  0  0  0  0  0  0  0  0  0  0  0
    2.9421   18.2802   -0.1788 H   0  0  0  0  0  0  0  0  0  0  0  0
    4.1454   18.9733   -1.3182 H   0  0  0  0  0  0  0  0  0  0  0  0
    2.4549   19.5807   -1.3182 H   0  0  0  0  0  0  0  0  0  0  0  0
    3.4346   17.7127   -3.0550 H   0  0  0  0  0  0  0  0  0  0  0  0
    1.3900   17.8876   -3.9189 H   0  0  0  0  0  0  0  0  0  0  0  0
    0.6582   17.0744   -2.4539 H   0  0  0  0  0  0  0  0  0  0  0  0
    1.3369   19.6863   -1.6443 H   0  0  0  0  0  0  0  0  0  0  0  0
    0.5434   19.8357   -3.2681 H   0  0  0  0  0  0  0  0  0  0  0  0
   -0.7718   18.0151   -2.2482 H   0  0  0  0  0  0  0  0  0  0  0  0
   -0.2736   20.0214    1.5585 H   0  0  0  0  0  0  0  0  0  0  0  0
    0.9746   19.8225    0.2822 H   0  0  0  0  0  0  0  0  0  0  0  0
   -0.0870   21.2715    0.2822 H   0  0  0  0  0  0  0  0  0  0  0  0
   -2.0193   18.8919    1.4407 H   0  0  0  0  0  0  0  0  0  0  0  0
   -3.1106   19.2961    0.0723 H   0  0  0  0  0  0  0  0  0  0  0  0
   -2.2074   17.7434    0.0723 H   0  0  0  0  0  0  0  0  0  0  0  0
    3.3844   15.7341   -2.3743 H   0  0  0  0  0  0  0  0  0  0  0  0
    4.4718   16.0322   -0.2382 H   0  0  0  0  0  0  0  0  0  0  0  0
    3.2810   17.2425    0.2858 H   0  0  0  0  0  0  0  0  0  0  0  0
    3.3819   14.5242    1.1619 H   0  0  0  0  0  0  0  0  0  0  0  0
    1.9944   15.5847    1.3921 H   0  0  0  0  0  0  0  0  0  0  0  0
    3.4905   12.8625   -0.2151 H   0  0  0  0  0  0  0  0  0  0  0  0
    2.4425   12.6073   -1.6516 H   0  0  0  0  0  0  0  0  0  0  0  0
    3.6606   13.9275   -1.6516 H   0  0  0  0  0  0  0  0  0  0  0  0
    0.0591   14.3701    0.5870 H   0  0  0  0  0  0  0  0  0  0  0  0
    1.7660   12.8076    1.7208 H   0  0  0  0  0  0  0  0  0  0  0  0
   -0.0334   12.4189    1.7281 H   0  0  0  0  0  0  0  0  0  0  0  0
    1.5942   10.3942    1.2895 H   0  0  0  0  0  0  0  0  0  0  0  0
    0.9610   11.9448   -2.3837 H   0  0  0  0  0  0  0  0  0  0  0  0
   -1.7107   10.5948   -1.6512 H   0  0  0  0  0  0  0  0  0  0  0  0
   -1.3263   11.4964   -3.1843 H   0  0  0  0  0  0  0  0  0  0  0  0
   -1.2687    9.0431   -3.5011 H   0  0  0  0  0  0  0  0  0  0  0  0
    0.3332    9.8295   -3.7848 H   0  0  0  0  0  0  0  0  0  0  0  0
    0.6769    7.8114   -2.5330 H   0  0  0  0  0  0  0  0  0  0  0  0
   -0.9470    7.2520   -1.2720 H   0  0  0  0  0  0  0  0  0  0  0  0
    3.4806    9.7245   -1.4996 H   0  0  0  0  0  0  0  0  0  0  0  0
    2.7297    8.6748   -2.7489 H   0  0  0  0  0  0  0  0  0  0  0  0
    2.4078   10.4420   -2.7489 H   0  0  0  0  0  0  0  0  0  0  0  0
    1.6180    8.7916    0.9052 H   0  0  0  0  0  0  0  0  0  0  0  0
    1.2820    7.4038   -0.1846 H   0  0  0  0  0  0  0  0  0  0  0  0
    2.9051    8.1733   -0.1846 H   0  0  0  0  0  0  0  0  0  0  0  0
   -1.6640   12.8800    0.6277 H   0  0  0  0  0  0  0  0  0  0  0  0
   -2.3732   13.7041   -0.8022 H   0  0  0  0  0  0  0  0  0  0  0  0
   -2.1726   11.9190   -0.8022 H   0  0  0  0  0  0  0  0  0  0  0  0
   -0.7620   13.4921   -3.1638 H   0  0  0  0  0  0  0  0  0  0  0  0
   -1.1825   14.8028   -1.9233 H   0  0  0  0  0  0  0  0  0  0  0  0
    1.5334   14.1966   -3.1244 H   0  0  0  0  0  0  0  0  0  0  0  0
    0.5102   15.6723   -3.3332 H   0  0  0  0  0  0  0  0  0  0  0  0
    0.4565   16.4518    0.3079 H   0  0  0  0  0  0  0  0  0  0  0  0
    0.6467   17.5195   -1.1241 H   0  0  0  0  0  0  0  0  0  0  0  0
   -0.6053   16.2314   -1.1241 H   0  0  0  0  0  0  0  0  0  0  0  0
  1  2  1  0
  2  3  1  0
  3  4  1  0
  4  5  1  0
  5  6  1  0
  6  7  1  0
  7  8  1  0
  7  9  1  0
  2 10  1  0
 10 11  1  0
 11 12  1  0
 12 13  1  0
 13 14  1  6
 13 15  1  0
 15 16  1  0
 16 17  1  0
 17 18  2  0
 18 19  1  0
 19 20  1  0
 20 21  1  0
 21 22  1  0
 22 23  1  0
 22 24  1  0
 24 25  1  0
 24 26  1  0
 19 27  1  0
 27 28  1  1
 27 29  1  0
 29 30  1  0
 30 31  1  0
 31 32  1  1
  7  5  1  0
 31 10  1  0
 31 13  1  0
 27 15  1  0
 24 18  1  0
  1 33  1  0
  1 34  1  0
  1 35  1  0
  2 36  1  6
  3 37  1  0
  3 38  1  0
  4 39  1  0
  4 40  1  0
  5 41  1  6
  8 42  1  0
  8 43  1  0
  8 44  1  0
  9 45  1  0
  9 46  1  0
  9 47  1  0
 10 48  1  6
 11 49  1  0
 11 50  1  0
 12 51  1  0
 12 52  1  0
 14 53  1  0
 14 54  1  0
 14 55  1  0
 15 56  1  1
 16 57  1  0
 16 58  1  0
 17 59  1  0
 19 60  1  6
 20 61  1  0
 20 62  1  0
 21 63  1  0
 21 64  1  0
 22 65  1  6
 23 66  1  0
 25 67  1  0
 25 68  1  0
 25 69  1  0
 26 70  1  0
 26 71  1  0
 26 72  1  0
 28 73  1  0
 28 74  1  0
 28 75  1  0
 29 76  1  0
 29 77  1  0
 30 78  1  0
 30 79  1  0
 32 80  1  0
 32 81  1  0
 32 82  1  0
M  END
>  <meeko>  (9) 
{"is_sidechain": [false], "intermolecular_energy": 2.731, "internal_energy": -0.839}

$$$$
EPH_relaxed_0001_pdb2pqr_Repair_246_r2_0001_out
     RDKit          3D

 82 86  0  0  0  0  0  0  0  0999 V2000
   -3.7430    7.2190   -3.4140 C   0  0  0  0  0  0  0  0  0  0  0  0
   -3.7600    7.2940   -1.8840 C   0  0  2  0  0  0  0  0  0  0  0  0
   -5.1730    7.0720   -1.3080 C   0  0  0  0  0  0  0  0  0  0  0  0
   -6.2930    7.2510   -2.3370 C   0  0  0  0  0  0  0  0  0  0  0  0
   -7.6210    7.4720   -1.6780 C   0  0  2  0  0  0  0  0  0  0  0  0
   -8.2150    6.2940   -1.1200 O   0  0  0  0  0  0  0  0  0  0  0  0
   -8.9230    6.9040   -2.2110 C   0  0  0  0  0  0  0  0  0  0  0  0
   -8.9610    6.0710   -3.4530 C   0  0  0  0  0  0  0  0  0  0  0  0
  -10.2070    7.5580   -1.8050 C   0  0  0  0  0  0  0  0  0  0  0  0
   -3.2150    8.6400   -1.4230 C   0  0  1  0  0  0  0  0  0  0  0  0
   -3.8290    9.1040   -0.0760 C   0  0  0  0  0  0  0  0  0  0  0  0
   -2.7120    9.8580    0.6900 C   0  0  0  0  0  0  0  0  0  0  0  0
   -1.6060   10.0930   -0.3660 C   0  0  1  0  0  0  0  0  0  0  0  0
   -2.0770   11.3460   -1.1690 C   0  0  0  0  0  0  0  0  0  0  0  0
   -0.1530   10.2710    0.1830 C   0  0  2  0  0  0  0  0  0  0  0  0
    0.0550   11.4940    1.0940 C   0  0  0  0  0  0  0  0  0  0  0  0
    0.4660   12.7470    0.3950 C   0  0  0  0  0  0  0  0  0  0  0  0
    0.9360   12.8220   -0.8640 C   0  0  0  0  0  0  0  0  0  0  0  0
    1.1860   11.5530   -1.6890 C   0  0  1  0  0  0  0  0  0  0  0  0
    2.5750   11.6460   -2.3740 C   0  0  0  0  0  0  0  0  0  0  0  0
    2.7360   12.9190   -3.1990 C   0  0  0  0  0  0  0  0  0  0  0  0
    2.5380   14.1600   -2.3320 C   0  0  2  0  0  0  0  0  0  0  0  0
    3.6080   14.2370   -1.3850 O   0  0  0  0  0  0  0  0  0  0  0  0
    1.1750   14.1730   -1.5830 C   0  0  0  0  0  0  0  0  0  0  0  0
    0.0260   14.3930   -2.5980 C   0  0  0  0  0  0  0  0  0  0  0  0
    1.1620   15.4040   -0.6380 C   0  0  0  0  0  0  0  0  0  0  0  0
    0.9740   10.1760   -0.9240 C   0  0  1  0  0  0  0  0  0  0  0  0
    2.2870    9.7690   -0.1880 C   0  0  0  0  0  0  0  0  0  0  0  0
    0.6850    9.0420   -1.9770 C   0  0  0  0  0  0  0  0  0  0  0  0
   -0.7850    8.8360   -2.3900 C   0  0  0  0  0  0  0  0  0  0  0  0
   -1.6910    8.7380   -1.1590 C   0  0  2  0  0  0  0  0  0  0  0  0
   -1.2560    7.4730   -0.3440 C   0  0  0  0  0  0  0  0  0  0  0  0
   -3.5100    6.1909   -3.7281 H   0  0  0  0  0  0  0  0  0  0  0  0
   -4.7293    7.5076   -3.8062 H   0  0  0  0  0  0  0  0  0  0  0  0
   -2.9775    7.9047   -3.8062 H   0  0  0  0  0  0  0  0  0  0  0  0
   -3.1182    6.4846   -1.5059 H   0  0  0  0  0  0  0  0  0  0  0  0
   -5.2284    6.0484   -0.9091 H   0  0  0  0  0  0  0  0  0  0  0  0
   -5.3264    7.8347   -0.5304 H   0  0  0  0  0  0  0  0  0  0  0  0
   -6.0601    8.1200   -2.9699 H   0  0  0  0  0  0  0  0  0  0  0  0
   -6.3570    6.3317   -2.9377 H   0  0  0  0  0  0  0  0  0  0  0  0
   -7.3286    8.4881   -1.3746 H   0  0  0  0  0  0  0  0  0  0  0  0
   -9.0096    5.0067   -3.1793 H   0  0  0  0  0  0  0  0  0  0  0  0
   -9.8479    6.3378   -4.0465 H   0  0  0  0  0  0  0  0  0  0  0  0
   -8.0535    6.2560   -4.0465 H   0  0  0  0  0  0  0  0  0  0  0  0
  -10.2709    7.5905   -0.7073 H   0  0  0  0  0  0  0  0  0  0  0  0
  -10.2392    8.5823   -2.2047 H   0  0  0  0  0  0  0  0  0  0  0  0
  -11.0544    6.9817   -2.2047 H   0  0  0  0  0  0  0  0  0  0  0  0
   -3.4867    9.2559   -2.2930 H   0  0  0  0  0  0  0  0  0  0  0  0
   -4.6813    9.7748   -0.2595 H   0  0  0  0  0  0  0  0  0  0  0  0
   -4.1966    8.2462    0.5062 H   0  0  0  0  0  0  0  0  0  0  0  0
   -3.0868   10.8159    1.0798 H   0  0  0  0  0  0  0  0  0  0  0  0
   -2.3460    9.2913    1.5589 H   0  0  0  0  0  0  0  0  0  0  0  0
   -2.3754   12.1397   -0.4683 H   0  0  0  0  0  0  0  0  0  0  0  0
   -1.2531   11.7067   -1.8023 H   0  0  0  0  0  0  0  0  0  0  0  0
   -2.9345   11.0746   -1.8023 H   0  0  0  0  0  0  0  0  0  0  0  0
   -0.0366    9.3913    0.8331 H   0  0  0  0  0  0  0  0  0  0  0  0
   -0.8914   11.6921    1.6184 H   0  0  0  0  0  0  0  0  0  0  0  0
    0.8855   11.2345    1.7669 H   0  0  0  0  0  0  0  0  0  0  0  0
    0.3773   13.6889    0.9562 H   0  0  0  0  0  0  0  0  0  0  0  0
    0.3945   11.5255   -2.4523 H   0  0  0  0  0  0  0  0  0  0  0  0
    3.3533   11.6286   -1.5969 H   0  0  0  0  0  0  0  0  0  0  0  0
    2.6677   10.7902   -3.0588 H   0  0  0  0  0  0  0  0  0  0  0  0
    3.7463   12.9409   -3.6336 H   0  0  0  0  0  0  0  0  0  0  0  0
    1.9753   12.9209   -3.9936 H   0  0  0  0  0  0  0  0  0  0  0  0
    2.5367   15.0330   -3.0013 H   0  0  0  0  0  0  0  0  0  0  0  0
    4.3300   14.7390   -1.7980 H   0  0  0  0  0  0  0  0  0  0  0  0
   -0.9135   14.5729   -2.0549 H   0  0  0  0  0  0  0  0  0  0  0  0
    0.2566   15.2633   -3.2300 H   0  0  0  0  0  0  0  0  0  0  0  0
   -0.0812   13.4991   -3.2300 H   0  0  0  0  0  0  0  0  0  0  0  0
    1.1656   15.0634    0.4079 H   0  0  0  0  0  0  0  0  0  0  0  0
    2.0537   16.0201   -0.8261 H   0  0  0  0  0  0  0  0  0  0  0  0
    0.2575   16.0011   -0.8261 H   0  0  0  0  0  0  0  0  0  0  0  0
    2.1282    9.8182    0.8994 H   0  0  0  0  0  0  0  0  0  0  0  0
    2.5636    8.7429   -0.4721 H   0  0  0  0  0  0  0  0  0  0  0  0
    3.0955   10.4587   -0.4721 H   0  0  0  0  0  0  0  0  0  0  0  0
    1.2562    9.2791   -2.8867 H   0  0  0  0  0  0  0  0  0  0  0  0
    0.9782    8.1057   -1.4796 H   0  0  0  0  0  0  0  0  0  0  0  0
   -1.1080    9.6869   -3.0078 H   0  0  0  0  0  0  0  0  0  0  0  0
   -0.8618    7.8971   -2.9580 H   0  0  0  0  0  0  0  0  0  0  0  0
   -1.3296    7.6872    0.7324 H   0  0  0  0  0  0  0  0  0  0  0  0
   -1.9158    6.6297   -0.5961 H   0  0  0  0  0  0  0  0  0  0  0  0
   -0.2171    7.2138   -0.5961 H   0  0  0  0  0  0  0  0  0  0  0  0
  1  2  1  0
  2  3  1  0
  3  4  1  0
  4  5  1  0
  5  6  1  0
  6  7  1  0
  7  8  1  0
  7  9  1  0
  2 10  1  0
 10 11  1  0
 11 12  1  0
 12 13  1  0
 13 14  1  6
 13 15  1  0
 15 16  1  0
 16 17  1  0
 17 18  2  0
 18 19  1  0
 19 20  1  0
 20 21  1  0
 21 22  1  0
 22 23  1  0
 22 24  1  0
 24 25  1  0
 24 26  1  0
 19 27  1  0
 27 28  1  1
 27 29  1  0
 29 30  1  0
 30 31  1  0
 31 32  1  1
  7  5  1  0
 31 10  1  0
 31 13  1  0
 27 15  1  0
 24 18  1  0
  1 33  1  0
  1 34  1  0
  1 35  1  0
  2 36  1  1
  3 37  1  0
  3 38  1  0
  4 39  1  0
  4 40  1  0
  5 41  1  1
  8 42  1  0
  8 43  1  0
  8 44  1  0
  9 45  1  0
  9 46  1  0
  9 47  1  0
 10 48  1  6
 11 49  1  0
 11 50  1  0
 12 51  1  0
 12 52  1  0
 14 53  1  0
 14 54  1  0
 14 55  1  0
 15 56  1  1
 16 57  1  0
 16 58  1  0
 17 59  1  0
 19 60  1  6
 20 61  1  0
 20 62  1  0
 21 63  1  0
 21 64  1  0
 22 65  1  6
 23 66  1  0
 25 67  1  0
 25 68  1  0
 25 69  1  0
 26 70  1  0
 26 71  1  0
 26 72  1  0
 28 73  1  0
 28 74  1  0
 28 75  1  0
 29 76  1  0
 29 77  1  0
 30 78  1  0
 30 79  1  0
 32 80  1  0
 32 81  1  0
 32 82  1  0
M  END
>  <meeko>  (10) 
{"is_sidechain": [false], "intermolecular_energy": 2.731, "internal_energy": -0.839}

$$$$
EPH_relaxed_0001_pdb2pqr_Repair_246_r2_0001_out
     RDKit          3D

 82 86  0  0  0  0  0  0  0  0999 V2000
   -0.8610   16.3480   -5.8420 C   0  0  0  0  0  0  0  0  0  0  0  0
    0.2300   15.6500   -6.6590 C   0  0  2  0  0  0  0  0  0  0  0  0
   -0.1740   15.4730   -8.1360 C   0  0  0  0  0  0  0  0  0  0  0  0
    0.4660   16.4970   -9.0760 C   0  0  0  0  0  0  0  0  0  0  0  0
    1.8650   16.1090   -9.4490 C   0  0  2  0  0  0  0  0  0  0  0  0
    2.3280   16.6590  -10.6890 O   0  0  0  0  0  0  0  0  0  0  0  0
    2.2000   15.2290  -10.6380 C   0  0  0  0  0  0  0  0  0  0  0  0
    1.1300   14.6810  -11.5300 C   0  0  0  0  0  0  0  0  0  0  0  0
    3.5110   14.5060  -10.6460 C   0  0  0  0  0  0  0  0  0  0  0  0
    0.5550   14.2950   -6.0410 C   0  0  1  0  0  0  0  0  0  0  0  0
    1.8270   13.6490   -6.6520 C   0  0  0  0  0  0  0  0  0  0  0  0
    2.5330   12.8810   -5.5050 C   0  0  0  0  0  0  0  0  0  0  0  0
    1.4870   12.8310   -4.3670 C   0  0  1  0  0  0  0  0  0  0  0  0
    0.5400   11.6490   -4.7450 C   0  0  0  0  0  0  0  0  0  0  0  0
    2.0500   12.6780   -2.9170 C   0  0  2  0  0  0  0  0  0  0  0  0
    2.8270   11.3760   -2.6520 C   0  0  0  0  0  0  0  0  0  0  0  0
    2.0060   10.2340   -2.1520 C   0  0  0  0  0  0  0  0  0  0  0  0
    0.7580   10.3270   -1.6540 C   0  0  0  0  0  0  0  0  0  0  0  0
    0.0850   11.6920   -1.4660 C   0  0  1  0  0  0  0  0  0  0  0  0
   -0.5700   11.7570   -0.0610 C   0  0  0  0  0  0  0  0  0  0  0  0
   -1.5260   10.5950    0.1930 C   0  0  0  0  0  0  0  0  0  0  0  0
   -0.8050    9.2560    0.0540 C   0  0  2  0  0  0  0  0  0  0  0  0
    0.1550    9.1370    1.1080 O   0  0  0  0  0  0  0  0  0  0  0  0
   -0.0980    9.0810   -1.3190 C   0  0  0  0  0  0  0  0  0  0  0  0
   -1.1600    8.9070   -2.4330 C   0  0  0  0  0  0  0  0  0  0  0  0
    0.7060    7.7540   -1.2760 C   0  0  0  0  0  0  0  0  0  0  0  0
    0.9900   12.9600   -1.7760 C   0  0  1  0  0  0  0  0  0  0  0  0
    1.8000   13.3600   -0.5050 C   0  0  0  0  0  0  0  0  0  0  0  0
    0.0610   14.1860   -2.1140 C   0  0  0  0  0  0  0  0  0  0  0  0
   -0.3650   14.3500   -3.5860 C   0  0  0  0  0  0  0  0  0  0  0  0
    0.8460   14.2580   -4.5200 C   0  0  2  0  0  0  0  0  0  0  0  0
    1.8060   15.4480   -4.1780 C   0  0  0  0  0  0  0  0  0  0  0  0
   -0.6561   16.2169   -4.7692 H   0  0  0  0  0  0  0  0  0  0  0  0
   -0.8712   17.4208   -6.0850 H   0  0  0  0  0  0  0  0  0  0  0  0
   -1.8393   15.9077   -6.0850 H   0  0  0  0  0  0  0  0  0  0  0  0
    1.1226   16.2924   -6.6364 H   0  0  0  0  0  0  0  0  0  0  0  0
    0.1290   14.4666   -8.4607 H   0  0  0  0  0  0  0  0  0  0  0  0
   -1.2624   15.6220   -8.1915 H   0  0  0  0  0  0  0  0  0  0  0  0
   -0.1401   16.5684   -9.9912 H   0  0  0  0  0  0  0  0  0  0  0  0
    0.5062   17.4640   -8.5533 H   0  0  0  0  0  0  0  0  0  0  0  0
    2.1595   16.0618   -8.3902 H   0  0  0  0  0  0  0  0  0  0  0  0
    0.3179   14.2651  -10.9156 H   0  0  0  0  0  0  0  0  0  0  0  0
    0.7335   15.4870  -12.1649 H   0  0  0  0  0  0  0  0  0  0  0  0
    1.5523   13.8882  -12.1649 H   0  0  0  0  0  0  0  0  0  0  0  0
    3.8369   14.3263   -9.6109 H   0  0  0  0  0  0  0  0  0  0  0  0
    3.3959   13.5438  -11.1665 H   0  0  0  0  0  0  0  0  0  0  0  0
    4.2634   15.1167  -11.1665 H   0  0  0  0  0  0  0  0  0  0  0  0
   -0.3840   13.7644   -6.2571 H   0  0  0  0  0  0  0  0  0  0  0  0
    1.5491   12.9543   -7.4583 H   0  0  0  0  0  0  0  0  0  0  0  0
    2.4905   14.4134   -7.0827 H   0  0  0  0  0  0  0  0  0  0  0  0
    2.8047   11.8651   -5.8276 H   0  0  0  0  0  0  0  0  0  0  0  0
    3.4681   13.3678   -5.1909 H   0  0  0  0  0  0  0  0  0  0  0  0
    0.1605   11.1754   -3.8276 H   0  0  0  0  0  0  0  0  0  0  0  0
   -0.3049   12.0309   -5.3369 H   0  0  0  0  0  0  0  0  0  0  0  0
    1.0970   10.9078   -5.3369 H   0  0  0  0  0  0  0  0  0  0  0  0
    2.7947   13.4861   -2.8679 H   0  0  0  0  0  0  0  0  0  0  0  0
    3.3023   11.0660   -3.5944 H   0  0  0  0  0  0  0  0  0  0  0  0
    3.5452   11.6078   -1.8517 H   0  0  0  0  0  0  0  0  0  0  0  0
    2.4583    9.2322   -2.1938 H   0  0  0  0  0  0  0  0  0  0  0  0
   -0.6905   11.7581   -2.2433 H   0  0  0  0  0  0  0  0  0  0  0  0
    0.2241   11.7331    0.6998 H   0  0  0  0  0  0  0  0  0  0  0  0
   -1.1539   12.6877   -0.0074 H   0  0  0  0  0  0  0  0  0  0  0  0
   -1.9342   10.6803    1.2109 H   0  0  0  0  0  0  0  0  0  0  0  0
   -2.3357   10.6371   -0.5504 H   0  0  0  0  0  0  0  0  0  0  0  0
   -1.5655    8.4638    0.1187 H   0  0  0  0  0  0  0  0  0  0  0  0
   -0.3330    9.1070    1.9480 H   0  0  0  0  0  0  0  0  0  0  0  0
   -2.1475    8.7452   -1.9762 H   0  0  0  0  0  0  0  0  0  0  0  0
   -1.1886    9.8124   -3.0570 H   0  0  0  0  0  0  0  0  0  0  0  0
   -0.8981    8.0398   -3.0570 H   0  0  0  0  0  0  0  0  0  0  0  0
    0.8810    7.4651   -0.2291 H   0  0  0  0  0  0  0  0  0  0  0  0
    0.1352    6.9628   -1.7842 H   0  0  0  0  0  0  0  0  0  0  0  0
    1.6715    7.8936   -1.7842 H   0  0  0  0  0  0  0  0  0  0  0  0
    1.2325   13.0798    0.3947 H   0  0  0  0  0  0  0  0  0  0  0  0
    2.7671   12.8359   -0.5065 H   0  0  0  0  0  0  0  0  0  0  0  0
    1.9718   14.4465   -0.5065 H   0  0  0  0  0  0  0  0  0  0  0  0
   -0.8541   14.0860   -1.5119 H   0  0  0  0  0  0  0  0  0  0  0  0
    0.6662   15.0765   -1.8886 H   0  0  0  0  0  0  0  0  0  0  0  0
   -1.0802   13.5552   -3.8445 H   0  0  0  0  0  0  0  0  0  0  0  0
   -0.8289   15.3398   -3.7091 H   0  0  0  0  0  0  0  0  0  0  0  0
    1.8885   15.5503   -3.0859 H   0  0  0  0  0  0  0  0  0  0  0  0
    2.8008   15.2507   -4.6040 H   0  0  0  0  0  0  0  0  0  0  0  0
    1.4027   16.3785   -4.6040 H   0  0  0  0  0  0  0  0  0  0  0  0
  1  2  1  0
  2  3  1  0
  3  4  1  0
  4  5  1  0
  5  6  1  0
  6  7  1  0
  7  8  1  0
  7  9  1  0
  2 10  1  0
 10 11  1  0
 11 12  1  0
 12 13  1  0
 13 14  1  6
 13 15  1  0
 15 16  1  0
 16 17  1  0
 17 18  2  0
 18 19  1  0
 19 20  1  0
 20 21  1  0
 21 22  1  0
 22 23  1  0
 22 24  1  0
 24 25  1  0
 24 26  1  0
 19 27  1  0
 27 28  1  1
 27 29  1  0
 29 30  1  0
 30 31  1  0
 31 32  1  1
  7  5  1  0
 31 10  1  0
 31 13  1  0
 27 15  1  0
 24 18  1  0
  1 33  1  0
  1 34  1  0
  1 35  1  0
  2 36  1  6
  3 37  1  0
  3 38  1  0
  4 39  1  0
  4 40  1  0
  5 41  1  1
  8 42  1  0
  8 43  1  0
  8 44  1  0
  9 45  1  0
  9 46  1  0
  9 47  1  0
 10 48  1  1
 11 49  1  0
 11 50  1  0
 12 51  1  0
 12 52  1  0
 14 53  1  0
 14 54  1  0
 14 55  1  0
 15 56  1  1
 16 57  1  0
 16 58  1  0
 17 59  1  0
 19 60  1  6
 20 61  1  0
 20 62  1  0
 21 63  1  0
 21 64  1  0
 22 65  1  1
 23 66  1  0
 25 67  1  0
 25 68  1  0
 25 69  1  0
 26 70  1  0
 26 71  1  0
 26 72  1  0
 28 73  1  0
 28 74  1  0
 28 75  1  0
 29 76  1  0
 29 77  1  0
 30 78  1  0
 30 79  1  0
 32 80  1  0
 32 81  1  0
 32 82  1  0
M  END
>  <meeko>  (11) 
{"is_sidechain": [false], "intermolecular_energy": 2.731, "internal_energy": -0.839}

$$$$
EPH_relaxed_0001_pdb2pqr_Repair_246_r2_0001_out
     RDKit          3D

 82 86  0  0  0  0  0  0  0  0999 V2000
   -0.2970   15.1190   -7.6140 C   0  0  0  0  0  0  0  0  0  0  0  0
    1.0820   15.0890   -6.9470 C   0  0  2  0  0  0  0  0  0  0  0  0
    2.2260   15.1730   -7.9770 C   0  0  0  0  0  0  0  0  0  0  0  0
    2.2530   16.4880   -8.7610 C   0  0  0  0  0  0  0  0  0  0  0  0
    1.8490   16.2880  -10.1910 C   0  0  2  0  0  0  0  0  0  0  0  0
    1.1900   15.0440  -10.4590 O   0  0  0  0  0  0  0  0  0  0  0  0
    2.4640   15.2360  -11.0950 C   0  0  0  0  0  0  0  0  0  0  0  0
    3.5350   14.3140  -10.6030 C   0  0  0  0  0  0  0  0  0  0  0  0
    2.3750   15.4260  -12.5770 C   0  0  0  0  0  0  0  0  0  0  0  0
    1.2260   13.8240   -6.1100 C   0  0  1  0  0  0  0  0  0  0  0  0
    2.6580   13.2280   -6.1690 C   0  0  0  0  0  0  0  0  0  0  0  0
    2.9500   12.6230   -4.7720 C   0  0  0  0  0  0  0  0  0  0  0  0
    1.5740   12.5920   -4.0660 C   0  0  1  0  0  0  0  0  0  0  0  0
    0.8710   11.3100   -4.6130 C   0  0  0  0  0  0  0  0  0  0  0  0
    1.5990   12.6130   -2.5030 C   0  0  2  0  0  0  0  0  0  0  0  0
    2.2880   11.4060   -1.8440 C   0  0  0  0  0  0  0  0  0  0  0  0
    1.3930   10.2510   -1.5340 C   0  0  0  0  0  0  0  0  0  0  0  0
    0.0480   10.2890   -1.5110 C   0  0  0  0  0  0  0  0  0  0  0  0
   -0.7070   11.6090   -1.7180 C   0  0  1  0  0  0  0  0  0  0  0  0
   -1.8150   11.7470   -0.6420 C   0  0  0  0  0  0  0  0  0  0  0  0
   -2.7490   10.5400   -0.6050 C   0  0  0  0  0  0  0  0  0  0  0  0
   -1.9690    9.2550   -0.3390 C   0  0  2  0  0  0  0  0  0  0  0  0
   -1.4360    9.3070    0.9880 O   0  0  0  0  0  0  0  0  0  0  0  0
   -0.8180    9.0150   -1.3550 C   0  0  0  0  0  0  0  0  0  0  0  0
   -1.4130    8.6600   -2.7410 C   0  0  0  0  0  0  0  0  0  0  0  0
   -0.0240    7.7640   -0.8910 C   0  0  0  0  0  0  0  0  0  0  0  0
    0.1950   12.9120   -1.8360 C   0  0  1  0  0  0  0  0  0  0  0  0
    0.4890   13.4860   -0.4160 C   0  0  0  0  0  0  0  0  0  0  0  0
   -0.6090   14.0250   -2.6070 C   0  0  0  0  0  0  0  0  0  0  0  0
   -0.4970   14.0250   -4.1440 C   0  0  0  0  0  0  0  0  0  0  0  0
    0.9670   13.9450   -4.5870 C   0  0  2  0  0  0  0  0  0  0  0  0
    1.6940   15.2330   -4.0700 C   0  0  0  0  0  0  0  0  0  0  0  0
   -1.0784   15.1360   -6.8400 H   0  0  0  0  0  0  0  0  0  0  0  0
   -0.3818   16.0192   -8.2405 H   0  0  0  0  0  0  0  0  0  0  0  0
   -0.4209   14.2233   -8.2405 H   0  0  0  0  0  0  0  0  0  0  0  0
    1.1563   15.9742   -6.2983 H   0  0  0  0  0  0  0  0  0  0  0  0
    3.1821   15.0671   -7.4435 H   0  0  0  0  0  0  0  0  0  0  0  0
    2.0612   14.3668   -8.7070 H   0  0  0  0  0  0  0  0  0  0  0  0
    1.5578   17.1985   -8.2899 H   0  0  0  0  0  0  0  0  0  0  0  0
    3.2823   16.8758   -8.7459 H   0  0  0  0  0  0  0  0  0  0  0  0
    1.6864   17.3682  -10.3203 H   0  0  0  0  0  0  0  0  0  0  0  0
    3.5390   14.3105   -9.5030 H   0  0  0  0  0  0  0  0  0  0  0  0
    3.3407   13.2962  -10.9722 H   0  0  0  0  0  0  0  0  0  0  0  0
    4.5126   14.6575  -10.9722 H   0  0  0  0  0  0  0  0  0  0  0  0
    1.9176   16.4024  -12.7947 H   0  0  0  0  0  0  0  0  0  0  0  0
    3.3843   15.3886  -13.0127 H   0  0  0  0  0  0  0  0  0  0  0  0
    1.7577   14.6266  -13.0127 H   0  0  0  0  0  0  0  0  0  0  0  0
    0.4457   13.2050   -6.5769 H   0  0  0  0  0  0  0  0  0  0  0  0
    2.7105   12.4445   -6.9393 H   0  0  0  0  0  0  0  0  0  0  0  0
    3.3968   14.0014   -6.4261 H   0  0  0  0  0  0  0  0  0  0  0  0
    3.3610   11.6071   -4.8668 H   0  0  0  0  0  0  0  0  0  0  0  0
    3.6941   13.2076   -4.2110 H   0  0  0  0  0  0  0  0  0  0  0  0
    0.5312   10.6903   -3.7701 H   0  0  0  0  0  0  0  0  0  0  0  0
    0.0057   11.6000   -5.2272 H   0  0  0  0  0  0  0  0  0  0  0  0
    1.5808   10.7364   -5.2272 H   0  0  0  0  0  0  0  0  0  0  0  0
    2.2448   13.4777   -2.2902 H   0  0  0  0  0  0  0  0  0  0  0  0
    3.0767   11.0518   -2.5241 H   0  0  0  0  0  0  0  0  0  0  0  0
    2.6688   11.7641   -0.8761 H   0  0  0  0  0  0  0  0  0  0  0  0
    1.8737    9.2884   -1.3053 H   0  0  0  0  0  0  0  0  0  0  0  0
   -1.1636   11.5444   -2.7166 H   0  0  0  0  0  0  0  0  0  0  0  0
   -1.3381   11.8541    0.3434 H   0  0  0  0  0  0  0  0  0  0  0  0
   -2.4200   12.6295   -0.8972 H   0  0  0  0  0  0  0  0  0  0  0  0
   -3.4907   10.6831    0.1946 H   0  0  0  0  0  0  0  0  0  0  0  0
   -3.2483   10.4521   -1.5812 H   0  0  0  0  0  0  0  0  0  0  0  0
   -2.6688    8.4141   -0.4543 H   0  0  0  0  0  0  0  0  0  0  0  0
   -0.6560    8.7260    1.0150 H   0  0  0  0  0  0  0  0  0  0  0  0
   -2.3504    8.1007   -2.6052 H   0  0  0  0  0  0  0  0  0  0  0  0
   -1.6157    9.5849   -3.3008 H   0  0  0  0  0  0  0  0  0  0  0  0
   -0.6953    8.0423   -3.3008 H   0  0  0  0  0  0  0  0  0  0  0  0
   -0.0026    7.7302    0.2083 H   0  0  0  0  0  0  0  0  0  0  0  0
   -0.5118    6.8564   -1.2763 H   0  0  0  0  0  0  0  0  0  0  0  0
    1.0049    7.8190   -1.2763 H   0  0  0  0  0  0  0  0  0  0  0  0
    0.1277   12.7805    0.3467 H   0  0  0  0  0  0  0  0  0  0  0  0
    1.5727   13.6317   -0.2966 H   0  0  0  0  0  0  0  0  0  0  0  0
   -0.0260   14.4506   -0.2966 H   0  0  0  0  0  0  0  0  0  0  0  0
   -1.6720   13.9052   -2.3509 H   0  0  0  0  0  0  0  0  0  0  0  0
   -0.1617   14.9773   -2.2861 H   0  0  0  0  0  0  0  0  0  0  0  0
   -1.0421   13.1575   -4.5445 H   0  0  0  0  0  0  0  0  0  0  0  0
   -0.9287   14.9614   -4.5271 H   0  0  0  0  0  0  0  0  0  0  0  0
    1.6959   15.2364   -2.9700 H   0  0  0  0  0  0  0  0  0  0  0  0
    2.7304   15.2420   -4.4385 H   0  0  0  0  0  0  0  0  0  0  0  0
    1.1661   16.1249   -4.4385 H   0  0  0  0  0  0  0  0  0  0  0  0
  1  2  1  0
  2  3  1  0
  3  4  1  0
  4  5  1  0
  5  6  1  0
  6  7  1  0
  7  8  1  0
  7  9  1  0
  2 10  1  0
 10 11  1  0
 11 12  1  0
 12 13  1  0
 13 14  1  1
 13 15  1  0
 15 16  1  0
 16 17  1  0
 17 18  2  0
 18 19  1  0
 19 20  1  0
 20 21  1  0
 21 22  1  0
 22 23  1  0
 22 24  1  0
 24 25  1  0
 24 26  1  0
 19 27  1  0
 27 28  1  1
 27 29  1  0
 29 30  1  0
 30 31  1  0
 31 32  1  1
  7  5  1  0
 31 10  1  0
 31 13  1  0
 27 15  1  0
 24 18  1  0
  1 33  1  0
  1 34  1  0
  1 35  1  0
  2 36  1  1
  3 37  1  0
  3 38  1  0
  4 39  1  0
  4 40  1  0
  5 41  1  6
  8 42  1  0
  8 43  1  0
  8 44  1  0
  9 45  1  0
  9 46  1  0
  9 47  1  0
 10 48  1  6
 11 49  1  0
 11 50  1  0
 12 51  1  0
 12 52  1  0
 14 53  1  0
 14 54  1  0
 14 55  1  0
 15 56  1  6
 16 57  1  0
 16 58  1  0
 17 59  1  0
 19 60  1  6
 20 61  1  0
 20 62  1  0
 21 63  1  0
 21 64  1  0
 22 65  1  1
 23 66  1  0
 25 67  1  0
 25 68  1  0
 25 69  1  0
 26 70  1  0
 26 71  1  0
 26 72  1  0
 28 73  1  0
 28 74  1  0
 28 75  1  0
 29 76  1  0
 29 77  1  0
 30 78  1  0
 30 79  1  0
 32 80  1  0
 32 81  1  0
 32 82  1  0
M  END
>  <meeko>  (12) 
{"is_sidechain": [false], "intermolecular_energy": 2.731, "internal_energy": -0.839}

$$$$
EPH_relaxed_0001_pdb2pqr_Repair_246_r2_0001_out
     RDKit          3D

 82 86  0  0  0  0  0  0  0  0999 V2000
   -2.0690    7.7830   -2.1840 C   0  0  0  0  0  0  0  0  0  0  0  0
   -2.2110    8.4490   -0.8120 C   0  0  2  0  0  0  0  0  0  0  0  0
   -3.6700    8.4480   -0.3140 C   0  0  0  0  0  0  0  0  0  0  0  0
   -4.6720    7.9230   -1.3460 C   0  0  0  0  0  0  0  0  0  0  0  0
   -5.8090    7.1960   -0.6940 C   0  0  2  0  0  0  0  0  0  0  0  0
   -6.3260    6.0930   -1.4500 O   0  0  0  0  0  0  0  0  0  0  0  0
   -7.2250    7.1950   -1.2410 C   0  0  0  0  0  0  0  0  0  0  0  0
   -7.5790    7.9370   -2.4910 C   0  0  0  0  0  0  0  0  0  0  0  0
   -8.3520    6.8840   -0.3070 C   0  0  0  0  0  0  0  0  0  0  0  0
   -1.6810    9.8760   -0.8700 C   0  0  1  0  0  0  0  0  0  0  0  0
   -1.2320   10.4040    0.5190 C   0  0  0  0  0  0  0  0  0  0  0  0
   -0.0100   11.3260    0.2740 C   0  0  0  0  0  0  0  0  0  0  0  0
   -0.0000   11.5630   -1.2540 C   0  0  1  0  0  0  0  0  0  0  0  0
   -1.0550   12.6880   -1.4920 C   0  0  0  0  0  0  0  0  0  0  0  0
    1.3820   11.9240   -1.8890 C   0  0  2  0  0  0  0  0  0  0  0  0
    2.0050   13.2400   -1.3890 C   0  0  0  0  0  0  0  0  0  0  0  0
    1.6430   14.4560   -2.1750 C   0  0  0  0  0  0  0  0  0  0  0  0
    1.0840   14.4580   -3.4000 C   0  0  0  0  0  0  0  0  0  0  0  0
    0.8490   13.1470   -4.1610 C   0  0  1  0  0  0  0  0  0  0  0  0
    1.3350   13.3040   -5.6260 C   0  0  0  0  0  0  0  0  0  0  0  0
    0.7060   14.5050   -6.3250 C   0  0  0  0  0  0  0  0  0  0  0  0
    1.0100   15.7970   -5.5700 C   0  0  2  0  0  0  0  0  0  0  0  0
    2.4140   16.0590   -5.6520 O   0  0  0  0  0  0  0  0  0  0  0  0
    0.5730   15.7530   -4.0790 C   0  0  0  0  0  0  0  0  0  0  0  0
   -0.9730   15.7720   -3.9890 C   0  0  0  0  0  0  0  0  0  0  0  0
    1.0640   17.0590   -3.3990 C   0  0  0  0  0  0  0  0  0  0  0  0
    1.4140   11.8330   -3.4680 C   0  0  1  0  0  0  0  0  0  0  0  0
    2.9050   11.6180   -3.8710 C   0  0  0  0  0  0  0  0  0  0  0  0
    0.6230   10.5840   -4.0110 C   0  0  0  0  0  0  0  0  0  0  0  0
   -0.6720   10.2060   -3.2680 C   0  0  0  0  0  0  0  0  0  0  0  0
   -0.4370   10.1380   -1.7560 C   0  0  2  0  0  0  0  0  0  0  0  0
    0.6040    8.9990   -1.4840 C   0  0  0  0  0  0  0  0  0  0  0  0
   -1.8413    6.7150   -2.0514 H   0  0  0  0  0  0  0  0  0  0  0  0
   -3.0103    7.8906   -2.7430 H   0  0  0  0  0  0  0  0  0  0  0  0
   -1.2535    8.2651   -2.7430 H   0  0  0  0  0  0  0  0  0  0  0  0
   -1.6180    7.8612   -0.0959 H   0  0  0  0  0  0  0  0  0  0  0  0
   -3.7305    7.8138    0.5827 H   0  0  0  0  0  0  0  0  0  0  0  0
   -3.9399    9.4941   -0.1070 H   0  0  0  0  0  0  0  0  0  0  0  0
   -5.0732    8.7727   -1.9178 H   0  0  0  0  0  0  0  0  0  0  0  0
   -4.1467    7.2169   -2.0060 H   0  0  0  0  0  0  0  0  0  0  0  0
   -5.4046    7.4114    0.3060 H   0  0  0  0  0  0  0  0  0  0  0  0
   -8.0389    8.9009   -2.2275 H   0  0  0  0  0  0  0  0  0  0  0  0
   -6.6686    8.1146   -3.0823 H   0  0  0  0  0  0  0  0  0  0  0  0
   -8.2898    7.3411   -3.0823 H   0  0  0  0  0  0  0  0  0  0  0  0
   -8.0042    6.9800    0.7321 H   0  0  0  0  0  0  0  0  0  0  0  0
   -9.1791    7.5875   -0.4833 H   0  0  0  0  0  0  0  0  0  0  0  0
   -8.7012    5.8559   -0.4833 H   0  0  0  0  0  0  0  0  0  0  0  0
   -2.5601   10.3811   -1.2966 H   0  0  0  0  0  0  0  0  0  0  0  0
   -2.0474   10.9730    0.9895 H   0  0  0  0  0  0  0  0  0  0  0  0
   -0.9713    9.5735    1.1916 H   0  0  0  0  0  0  0  0  0  0  0  0
   -0.1270   12.2773    0.8137 H   0  0  0  0  0  0  0  0  0  0  0  0
    0.9286   10.8785    0.6328 H   0  0  0  0  0  0  0  0  0  0  0  0
   -1.4111   13.0677   -0.5230 H   0  0  0  0  0  0  0  0  0  0  0  0
   -0.5936   13.5090   -2.0604 H   0  0  0  0  0  0  0  0  0  0  0  0
   -1.9039   12.2803   -2.0604 H   0  0  0  0  0  0  0  0  0  0  0  0
    2.0325   11.1217   -1.5106 H   0  0  0  0  0  0  0  0  0  0  0  0
    1.6790   13.3972   -0.3503 H   0  0  0  0  0  0  0  0  0  0  0  0
    3.0933   13.1214   -1.4961 H   0  0  0  0  0  0  0  0  0  0  0  0
    1.8504   15.4333   -1.7146 H   0  0  0  0  0  0  0  0  0  0  0  0
   -0.2376   12.9763   -4.1449 H   0  0  0  0  0  0  0  0  0  0  0  0
    2.4278   13.4299   -5.6235 H   0  0  0  0  0  0  0  0  0  0  0  0
    1.0329   12.4010   -6.1767 H   0  0  0  0  0  0  0  0  0  0  0  0
    1.1107   14.5804   -7.3451 H   0  0  0  0  0  0  0  0  0  0  0  0
   -0.3845   14.3632   -6.3532 H   0  0  0  0  0  0  0  0  0  0  0  0
    0.4273   16.6007   -6.0438 H   0  0  0  0  0  0  0  0  0  0  0  0
    2.5640   16.6170   -6.4350 H   0  0  0  0  0  0  0  0  0  0  0  0
   -1.2788   15.7758   -2.9324 H   0  0  0  0  0  0  0  0  0  0  0  0
   -1.3581   16.6749   -4.4854 H   0  0  0  0  0  0  0  0  0  0  0  0
   -1.3802   14.8788   -4.4854 H   0  0  0  0  0  0  0  0  0  0  0  0
    1.0201   16.9422   -2.3061 H   0  0  0  0  0  0  0  0  0  0  0  0
    2.1006   17.2641   -3.7045 H   0  0  0  0  0  0  0  0  0  0  0  0
    0.4192   17.8962   -3.7045 H   0  0  0  0  0  0  0  0  0  0  0  0
    3.5209   11.5292   -2.9639 H   0  0  0  0  0  0  0  0  0  0  0  0
    2.9948   10.6976   -4.4667 H   0  0  0  0  0  0  0  0  0  0  0  0
    3.2511   12.4755   -4.4667 H   0  0  0  0  0  0  0  0  0  0  0  0
    0.3581   10.7877   -5.0590 H   0  0  0  0  0  0  0  0  0  0  0  0
    1.2992    9.7289   -3.8645 H   0  0  0  0  0  0  0  0  0  0  0  0
   -1.4418   10.9630   -3.4788 H   0  0  0  0  0  0  0  0  0  0  0  0
   -1.0000    9.2156   -3.6167 H   0  0  0  0  0  0  0  0  0  0  0  0
    0.7261    8.8654   -0.3990 H   0  0  0  0  0  0  0  0  0  0  0  0
    0.2454    8.0601   -1.9310 H   0  0  0  0  0  0  0  0  0  0  0  0
    1.5713    9.2719   -1.9310 H   0  0  0  0  0  0  0  0  0  0  0  0
  1  2  1  0
  2  3  1  0
  3  4  1  0
  4  5  1  0
  5  6  1  0
  6  7  1  0
  7  8  1  0
  7  9  1  0
  2 10  1  0
 10 11  1  0
 11 12  1  0
 12 13  1  0
 13 14  1  1
 13 15  1  0
 15 16  1  0
 16 17  1  0
 17 18  2  0
 18 19  1  0
 19 20  1  0
 20 21  1  0
 21 22  1  0
 22 23  1  0
 22 24  1  0
 24 25  1  0
 24 26  1  0
 19 27  1  0
 27 28  1  6
 27 29  1  0
 29 30  1  0
 30 31  1  0
 31 32  1  6
  7  5  1  0
 31 10  1  0
 31 13  1  0
 27 15  1  0
 24 18  1  0
  1 33  1  0
  1 34  1  0
  1 35  1  0
  2 36  1  1
  3 37  1  0
  3 38  1  0
  4 39  1  0
  4 40  1  0
  5 41  1  1
  8 42  1  0
  8 43  1  0
  8 44  1  0
  9 45  1  0
  9 46  1  0
  9 47  1  0
 10 48  1  6
 11 49  1  0
 11 50  1  0
 12 51  1  0
 12 52  1  0
 14 53  1  0
 14 54  1  0
 14 55  1  0
 15 56  1  1
 16 57  1  0
 16 58  1  0
 17 59  1  0
 19 60  1  6
 20 61  1  0
 20 62  1  0
 21 63  1  0
 21 64  1  0
 22 65  1  6
 23 66  1  0
 25 67  1  0
 25 68  1  0
 25 69  1  0
 26 70  1  0
 26 71  1  0
 26 72  1  0
 28 73  1  0
 28 74  1  0
 28 75  1  0
 29 76  1  0
 29 77  1  0
 30 78  1  0
 30 79  1  0
 32 80  1  0
 32 81  1  0
 32 82  1  0
M  END
>  <meeko>  (13) 
{"is_sidechain": [false], "intermolecular_energy": 2.731, "internal_energy": -0.839}

$$$$
EPH_relaxed_0001_pdb2pqr_Repair_246_r2_0001_out
     RDKit          3D

 82 86  0  0  0  0  0  0  0  0999 V2000
    0.0940    9.5500   -3.0320 C   0  0  0  0  0  0  0  0  0  0  0  0
    1.1850   10.5790   -3.3450 C   0  0  2  0  0  0  0  0  0  0  0  0
    2.5840    9.9370   -3.4220 C   0  0  0  0  0  0  0  0  0  0  0  0
    3.5940   10.7570   -4.2290 C   0  0  0  0  0  0  0  0  0  0  0  0
    4.9320   10.8080   -3.5540 C   0  0  2  0  0  0  0  0  0  0  0  0
    5.6850   12.0020   -3.8070 O   0  0  0  0  0  0  0  0  0  0  0  0
    6.2500   10.7780   -4.3050 C   0  0  0  0  0  0  0  0  0  0  0  0
    6.2940   10.6920   -5.7990 C   0  0  0  0  0  0  0  0  0  0  0  0
    7.4800   10.3410   -3.5740 C   0  0  0  0  0  0  0  0  0  0  0  0
    1.1750   11.6820   -2.2930 C   0  0  1  0  0  0  0  0  0  0  0  0
    2.2300   11.4530   -1.1770 C   0  0  0  0  0  0  0  0  0  0  0  0
    2.7500   12.8520   -0.7590 C   0  0  0  0  0  0  0  0  0  0  0  0
    1.7530   13.8460   -1.4000 C   0  0  1  0  0  0  0  0  0  0  0  0
    0.5320   13.8720   -0.4290 C   0  0  0  0  0  0  0  0  0  0  0  0
    2.2970   15.2850   -1.6810 C   0  0  2  0  0  0  0  0  0  0  0  0
    2.7290   16.0750   -0.4340 C   0  0  0  0  0  0  0  0  0  0  0  0
    1.6610   16.9060    0.1970 C   0  0  0  0  0  0  0  0  0  0  0  0
    0.4900   17.2400   -0.3760 C   0  0  0  0  0  0  0  0  0  0  0  0
    0.1840   16.8520   -1.8280 C   0  0  1  0  0  0  0  0  0  0  0  0
   -0.3980   18.0780   -2.5800 C   0  0  0  0  0  0  0  0  0  0  0  0
   -1.6070   18.6790   -1.8700 C   0  0  0  0  0  0  0  0  0  0  0  0
   -1.2490   19.1060   -0.4490 C   0  0  2  0  0  0  0  0  0  0  0  0
   -0.3230   20.1940   -0.5140 O   0  0  0  0  0  0  0  0  0  0  0  0
   -0.6430   17.9540    0.4020 C   0  0  0  0  0  0  0  0  0  0  0  0
   -1.7420   16.9130    0.7260 C   0  0  0  0  0  0  0  0  0  0  0  0
   -0.1950   18.5510    1.7640 C   0  0  0  0  0  0  0  0  0  0  0  0
    1.3700   16.1550   -2.6240 C   0  0  1  0  0  0  0  0  0  0  0  0
    2.2860   17.2390   -3.2710 C   0  0  0  0  0  0  0  0  0  0  0  0
    0.7690   15.3160   -3.8120 C   0  0  0  0  0  0  0  0  0  0  0  0
    0.3610   13.8630   -3.5000 C   0  0  0  0  0  0  0  0  0  0  0  0
    1.4860   13.1230   -2.7700 C   0  0  2  0  0  0  0  0  0  0  0  0
    2.7220   13.0620   -3.7310 C   0  0  0  0  0  0  0  0  0  0  0  0
   -0.0130    9.4491   -1.9419 H   0  0  0  0  0  0  0  0  0  0  0  0
   -0.8604    9.8844   -3.4647 H   0  0  0  0  0  0  0  0  0  0  0  0
    0.3721    8.5777   -3.4647 H   0  0  0  0  0  0  0  0  0  0  0  0
    0.9636   11.0061   -4.3342 H   0  0  0  0  0  0  0  0  0  0  0  0
    2.9697    9.8211   -2.3984 H   0  0  0  0  0  0  0  0  0  0  0  0
    2.4672    8.9727   -3.9383 H   0  0  0  0  0  0  0  0  0  0  0  0
    3.7128   10.2990   -5.2220 H   0  0  0  0  0  0  0  0  0  0  0  0
    3.2124   11.7853   -4.3125 H   0  0  0  0  0  0  0  0  0  0  0  0
    4.5528   10.2191   -2.7059 H   0  0  0  0  0  0  0  0  0  0  0  0
    6.7762    9.7496   -6.0980 H   0  0  0  0  0  0  0  0  0  0  0  0
    5.2695   10.7225   -6.1984 H   0  0  0  0  0  0  0  0  0  0  0  0
    6.8687   11.5407   -6.1984 H   0  0  0  0  0  0  0  0  0  0  0  0
    7.3040   10.4035   -2.4900 H   0  0  0  0  0  0  0  0  0  0  0  0
    7.7195    9.3028   -3.8473 H   0  0  0  0  0  0  0  0  0  0  0  0
    8.3209   10.9954   -3.8473 H   0  0  0  0  0  0  0  0  0  0  0  0
    0.1279   11.6124   -1.9632 H   0  0  0  0  0  0  0  0  0  0  0  0
    1.7673   10.9482   -0.3162 H   0  0  0  0  0  0  0  0  0  0  0  0
    3.0526   10.8170   -1.5358 H   0  0  0  0  0  0  0  0  0  0  0  0
    2.7509   12.9547    0.3362 H   0  0  0  0  0  0  0  0  0  0  0  0
    3.7847   13.0281   -1.0882 H   0  0  0  0  0  0  0  0  0  0  0  0
    0.8903   13.8644    0.6110 H   0  0  0  0  0  0  0  0  0  0  0  0
   -0.0585   14.7829   -0.6067 H   0  0  0  0  0  0  0  0  0  0  0  0
   -0.0967   12.9870   -0.6067 H   0  0  0  0  0  0  0  0  0  0  0  0
    3.2221   15.0822   -2.2405 H   0  0  0  0  0  0  0  0  0  0  0  0
    3.0876   15.3554    0.3167 H   0  0  0  0  0  0  0  0  0  0  0  0
    3.5020   16.7801   -0.7735 H   0  0  0  0  0  0  0  0  0  0  0  0
    1.8470   17.2764    1.2159 H   0  0  0  0  0  0  0  0  0  0  0  0
   -0.5702   16.0529   -1.7767 H   0  0  0  0  0  0  0  0  0  0  0  0
    0.3839   18.8478   -2.6580 H   0  0  0  0  0  0  0  0  0  0  0  0
   -0.7289   17.7356   -3.5716 H   0  0  0  0  0  0  0  0  0  0  0  0
   -1.9550   19.5576   -2.4330 H   0  0  0  0  0  0  0  0  0  0  0  0
   -2.3984   17.9168   -1.8185 H   0  0  0  0  0  0  0  0  0  0  0  0
   -2.1818   19.4079    0.0498 H   0  0  0  0  0  0  0  0  0  0  0  0
   -0.5300   20.7100   -1.3120 H   0  0  0  0  0  0  0  0  0  0  0  0
   -1.8447   16.8157    1.8169 H   0  0  0  0  0  0  0  0  0  0  0  0
   -2.6987   17.2439    0.2957 H   0  0  0  0  0  0  0  0  0  0  0  0
   -1.4635   15.9397    0.2957 H   0  0  0  0  0  0  0  0  0  0  0  0
   -0.6351   17.9645    2.5840 H   0  0  0  0  0  0  0  0  0  0  0  0
    0.9021   18.5166    1.8363 H   0  0  0  0  0  0  0  0  0  0  0  0
   -0.5347   19.5947    1.8363 H   0  0  0  0  0  0  0  0  0  0  0  0
    2.7790   17.8224   -2.4794 H   0  0  0  0  0  0  0  0  0  0  0  0
    3.0485   16.7498   -3.8949 H   0  0  0  0  0  0  0  0  0  0  0  0
    1.6765   17.9092   -3.8949 H   0  0  0  0  0  0  0  0  0  0  0  0
   -0.1268   15.8432   -4.1719 H   0  0  0  0  0  0  0  0  0  0  0  0
    1.5828   15.2348   -4.5476 H   0  0  0  0  0  0  0  0  0  0  0  0
   -0.5369   13.8698   -2.8646 H   0  0  0  0  0  0  0  0  0  0  0  0
    0.1573   13.3443   -4.4484 H   0  0  0  0  0  0  0  0  0  0  0  0
    3.6466   13.0164   -3.1368 H   0  0  0  0  0  0  0  0  0  0  0  0
    2.6493   12.1663   -4.3654 H   0  0  0  0  0  0  0  0  0  0  0  0
    2.7379   13.9605   -4.3654 H   0  0  0  0  0  0  0  0  0  0  0  0
  1  2  1  0
  2  3  1  0
  3  4  1  0
  4  5  1  0
  5  6  1  0
  6  7  1  0
  7  8  1  0
  7  9  1  0
  2 10  1  0
 10 11  1  0
 11 12  1  0
 12 13  1  0
 13 14  1  1
 13 15  1  0
 15 16  1  0
 16 17  1  0
 17 18  2  0
 18 19  1  0
 19 20  1  0
 20 21  1  0
 21 22  1  0
 22 23  1  0
 22 24  1  0
 24 25  1  0
 24 26  1  0
 19 27  1  0
 27 28  1  6
 27 29  1  0
 29 30  1  0
 30 31  1  0
 31 32  1  6
  7  5  1  0
 31 10  1  0
 31 13  1  0
 27 15  1  0
 24 18  1  0
  1 33  1  0
  1 34  1  0
  1 35  1  0
  2 36  1  6
  3 37  1  0
  3 38  1  0
  4 39  1  0
  4 40  1  0
  5 41  1  1
  8 42  1  0
  8 43  1  0
  8 44  1  0
  9 45  1  0
  9 46  1  0
  9 47  1  0
 10 48  1  1
 11 49  1  0
 11 50  1  0
 12 51  1  0
 12 52  1  0
 14 53  1  0
 14 54  1  0
 14 55  1  0
 15 56  1  6
 16 57  1  0
 16 58  1  0
 17 59  1  0
 19 60  1  1
 20 61  1  0
 20 62  1  0
 21 63  1  0
 21 64  1  0
 22 65  1  1
 23 66  1  0
 25 67  1  0
 25 68  1  0
 25 69  1  0
 26 70  1  0
 26 71  1  0
 26 72  1  0
 28 73  1  0
 28 74  1  0
 28 75  1  0
 29 76  1  0
 29 77  1  0
 30 78  1  0
 30 79  1  0
 32 80  1  0
 32 81  1  0
 32 82  1  0
M  END
>  <meeko>  (14) 
{"is_sidechain": [false], "intermolecular_energy": 2.731, "internal_energy": -0.839}

$$$$
EPH_relaxed_0001_pdb2pqr_Repair_246_r2_0001_out
     RDKit          3D

 82 86  0  0  0  0  0  0  0  0999 V2000
    0.1880   19.2850   -2.3300 C   0  0  0  0  0  0  0  0  0  0  0  0
   -0.0740   18.2750   -1.2100 C   0  0  2  0  0  0  0  0  0  0  0  0
    0.5830   18.6990    0.1190 C   0  0  0  0  0  0  0  0  0  0  0  0
    1.7940   19.6180   -0.0580 C   0  0  0  0  0  0  0  0  0  0  0  0
    2.6780   19.6110    1.1520 C   0  0  2  0  0  0  0  0  0  0  0  0
    3.9720   20.1940    0.9520 O   0  0  0  0  0  0  0  0  0  0  0  0
    3.9490   18.7890    1.2550 C   0  0  0  0  0  0  0  0  0  0  0  0
    4.4070   17.9160    0.1290 C   0  0  0  0  0  0  0  0  0  0  0  0
    4.4790   18.4580    2.6150 C   0  0  0  0  0  0  0  0  0  0  0  0
    0.4290   16.8970   -1.6240 C   0  0  1  0  0  0  0  0  0  0  0  0
    1.8610   16.9390   -2.2220 C   0  0  0  0  0  0  0  0  0  0  0  0
    2.5670   15.6310   -1.7850 C   0  0  0  0  0  0  0  0  0  0  0  0
    1.4300   14.7370   -1.2390 C   0  0  1  0  0  0  0  0  0  0  0  0
    0.7710   14.1060   -2.5060 C   0  0  0  0  0  0  0  0  0  0  0  0
    1.8470   13.6440   -0.2010 C   0  0  2  0  0  0  0  0  0  0  0  0
    2.8210   12.5780   -0.7320 C   0  0  0  0  0  0  0  0  0  0  0  0
    2.1790   11.3680   -1.3260 C   0  0  0  0  0  0  0  0  0  0  0  0
    0.8900   11.0130   -1.1770 C   0  0  0  0  0  0  0  0  0  0  0  0
   -0.0460   11.8130   -0.2620 C   0  0  1  0  0  0  0  0  0  0  0  0
   -0.8540   10.8370    0.6340 C   0  0  0  0  0  0  0  0  0  0  0  0
   -1.5950    9.7780   -0.1760 C   0  0  0  0  0  0  0  0  0  0  0  0
   -0.6240    8.9650   -1.0290 C   0  0  2  0  0  0  0  0  0  0  0  0
    0.2180    8.1970   -0.1630 O   0  0  0  0  0  0  0  0  0  0  0  0
    0.2520    9.8430   -1.9650 C   0  0  0  0  0  0  0  0  0  0  0  0
   -0.6280   10.4390   -3.0920 C   0  0  0  0  0  0  0  0  0  0  0  0
    1.2820    8.9150   -2.6640 C   0  0  0  0  0  0  0  0  0  0  0  0
    0.6320   12.9850    0.5700 C   0  0  1  0  0  0  0  0  0  0  0  0
    1.2060   12.4250    1.9080 C   0  0  0  0  0  0  0  0  0  0  0  0
   -0.4680   14.0390    0.9660 C   0  0  0  0  0  0  0  0  0  0  0  0
   -0.7510   15.1630   -0.0500 C   0  0  0  0  0  0  0  0  0  0  0  0
    0.5510   15.8220   -0.5150 C   0  0  2  0  0  0  0  0  0  0  0  0
    1.2260   16.4840    0.7350 C   0  0  0  0  0  0  0  0  0  0  0  0
    0.4413   20.2614   -1.8913 H   0  0  0  0  0  0  0  0  0  0  0  0
    1.0249   18.9342   -2.9518 H   0  0  0  0  0  0  0  0  0  0  0  0
   -0.7139   19.3852   -2.9518 H   0  0  0  0  0  0  0  0  0  0  0  0
   -1.1608   18.2390   -1.0443 H   0  0  0  0  0  0  0  0  0  0  0  0
   -0.1681   19.2274    0.7245 H   0  0  0  0  0  0  0  0  0  0  0  0
    0.9449   17.7812    0.6055 H   0  0  0  0  0  0  0  0  0  0  0  0
    2.3763   19.2767   -0.9266 H   0  0  0  0  0  0  0  0  0  0  0  0
    1.4264   20.6439   -0.2076 H   0  0  0  0  0  0  0  0  0  0  0  0
    1.8074   19.7096    1.8171 H   0  0  0  0  0  0  0  0  0  0  0  0
    4.8817   17.0111    0.5363 H   0  0  0  0  0  0  0  0  0  0  0  0
    3.5426   17.6303   -0.4885 H   0  0  0  0  0  0  0  0  0  0  0  0
    5.1333   18.4649   -0.4885 H   0  0  0  0  0  0  0  0  0  0  0  0
    3.8095   18.8761    3.3812 H   0  0  0  0  0  0  0  0  0  0  0  0
    4.5327   17.3655    2.7317 H   0  0  0  0  0  0  0  0  0  0  0  0
    5.4843   18.8891    2.7317 H   0  0  0  0  0  0  0  0  0  0  0  0
   -0.3628   16.6171   -2.3344 H   0  0  0  0  0  0  0  0  0  0  0  0
    1.8116   16.9942   -3.3195 H   0  0  0  0  0  0  0  0  0  0  0  0
    2.4115   17.8225   -1.8664 H   0  0  0  0  0  0  0  0  0  0  0  0
    3.0604   15.1509   -2.6429 H   0  0  0  0  0  0  0  0  0  0  0  0
    3.3519   15.8112   -1.0357 H   0  0  0  0  0  0  0  0  0  0  0  0
    0.0084   13.3758   -2.1975 H   0  0  0  0  0  0  0  0  0  0  0  0
    0.2990   14.8975   -3.1066 H   0  0  0  0  0  0  0  0  0  0  0  0
    1.5413   13.6001   -3.1066 H   0  0  0  0  0  0  0  0  0  0  0  0
    2.4160   14.2260    0.5389 H   0  0  0  0  0  0  0  0  0  0  0  0
    3.4475   13.0452   -1.5061 H   0  0  0  0  0  0  0  0  0  0  0  0
    3.3901   12.2238    0.1402 H   0  0  0  0  0  0  0  0  0  0  0  0
    2.8143   10.7106   -1.9378 H   0  0  0  0  0  0  0  0  0  0  0  0
   -0.7288   12.3593   -0.9294 H   0  0  0  0  0  0  0  0  0  0  0  0
   -0.1595   10.3328    1.3221 H   0  0  0  0  0  0  0  0  0  0  0  0
   -1.6054   11.4276    1.1786 H   0  0  0  0  0  0  0  0  0  0  0  0
   -2.1223    9.1016    0.5128 H   0  0  0  0  0  0  0  0  0  0  0  0
   -2.3102   10.2824   -0.8424 H   0  0  0  0  0  0  0  0  0  0  0  0
   -1.2237    8.3132   -1.6812 H   0  0  0  0  0  0  0  0  0  0  0  0
    0.7680    7.6220   -0.7220 H   0  0  0  0  0  0  0  0  0  0  0  0
   -1.4610   11.0032   -2.6472 H   0  0  0  0  0  0  0  0  0  0  0  0
   -0.0203   11.1122   -3.7145 H   0  0  0  0  0  0  0  0  0  0  0  0
   -1.0276    9.6249   -3.7145 H   0  0  0  0  0  0  0  0  0  0  0  0
    1.8721    8.3833   -1.9030 H   0  0  0  0  0  0  0  0  0  0  0  0
    0.7506    8.1848   -3.2921 H   0  0  0  0  0  0  0  0  0  0  0  0
    1.9530    9.5194   -3.2921 H   0  0  0  0  0  0  0  0  0  0  0  0
    0.7042   12.9146    2.7557 H   0  0  0  0  0  0  0  0  0  0  0  0
    1.0321   11.3399    1.9559 H   0  0  0  0  0  0  0  0  0  0  0  0
    2.2865   12.6256    1.9559 H   0  0  0  0  0  0  0  0  0  0  0  0
   -1.4089   13.4929    1.1288 H   0  0  0  0  0  0  0  0  0  0  0  0
   -0.0710   14.5488    1.8562 H   0  0  0  0  0  0  0  0  0  0  0  0
   -1.2704   14.7379   -0.9215 H   0  0  0  0  0  0  0  0  0  0  0  0
   -1.3763   15.9262    0.4363 H   0  0  0  0  0  0  0  0  0  0  0  0
    0.7934   16.0597    1.6531 H   0  0  0  0  0  0  0  0  0  0  0  0
    2.3081   16.2872    0.7146 H   0  0  0  0  0  0  0  0  0  0  0  0
    1.0503   17.5697    0.7146 H   0  0  0  0  0  0  0  0  0  0  0  0
  1  2  1  0
  2  3  1  0
  3  4  1  0
  4  5  1  0
  5  6  1  0
  6  7  1  0
  7  8  1  0
  7  9  1  0
  2 10  1  0
 10 11  1  0
 11 12  1  0
 12 13  1  0
 13 14  1  6
 13 15  1  0
 15 16  1  0
 16 17  1  0
 17 18  2  0
 18 19  1  0
 19 20  1  0
 20 21  1  0
 21 22  1  0
 22 23  1  0
 22 24  1  0
 24 25  1  0
 24 26  1  0
 19 27  1  0
 27 28  1  1
 27 29  1  0
 29 30  1  0
 30 31  1  0
 31 32  1  1
  7  5  1  0
 31 10  1  0
 31 13  1  0
 27 15  1  0
 24 18  1  0
  1 33  1  0
  1 34  1  0
  1 35  1  0
  2 36  1  1
  3 37  1  0
  3 38  1  0
  4 39  1  0
  4 40  1  0
  5 41  1  1
  8 42  1  0
  8 43  1  0
  8 44  1  0
  9 45  1  0
  9 46  1  0
  9 47  1  0
 10 48  1  6
 11 49  1  0
 11 50  1  0
 12 51  1  0
 12 52  1  0
 14 53  1  0
 14 54  1  0
 14 55  1  0
 15 56  1  1
 16 57  1  0
 16 58  1  0
 17 59  1  0
 19 60  1  6
 20 61  1  0
 20 62  1  0
 21 63  1  0
 21 64  1  0
 22 65  1  6
 23 66  1  0
 25 67  1  0
 25 68  1  0
 25 69  1  0
 26 70  1  0
 26 71  1  0
 26 72  1  0
 28 73  1  0
 28 74  1  0
 28 75  1  0
 29 76  1  0
 29 77  1  0
 30 78  1  0
 30 79  1  0
 32 80  1  0
 32 81  1  0
 32 82  1  0
M  END
>  <meeko>  (15) 
{"is_sidechain": [false], "intermolecular_energy": 2.731, "internal_energy": -0.839}

$$$$
EPH_relaxed_0001_pdb2pqr_Repair_246_r2_0001_out
     RDKit          3D

 82 86  0  0  0  0  0  0  0  0999 V2000
    2.8610   11.4170   -5.4840 C   0  0  0  0  0  0  0  0  0  0  0  0
    1.9290   11.1030   -4.3100 C   0  0  2  0  0  0  0  0  0  0  0  0
    0.8210   10.1040   -4.6990 C   0  0  0  0  0  0  0  0  0  0  0  0
   -0.2620    9.9390   -3.6300 C   0  0  0  0  0  0  0  0  0  0  0  0
    0.1930    9.0490   -2.5130 C   0  0  2  0  0  0  0  0  0  0  0  0
   -0.7320    8.0120   -2.1590 O   0  0  0  0  0  0  0  0  0  0  0  0
   -0.4770    9.0050   -1.1520 C   0  0  0  0  0  0  0  0  0  0  0  0
   -1.6580    9.8680   -0.8360 C   0  0  0  0  0  0  0  0  0  0  0  0
    0.3080    8.4930    0.0150 C   0  0  0  0  0  0  0  0  0  0  0  0
    1.3080   12.3900   -3.7810 C   0  0  1  0  0  0  0  0  0  0  0  0
   -0.2340   12.2930   -3.6340 C   0  0  0  0  0  0  0  0  0  0  0  0
   -0.6180   13.1330   -2.3880 C   0  0  0  0  0  0  0  0  0  0  0  0
    0.6550   13.9470   -2.0590 C   0  0  1  0  0  0  0  0  0  0  0  0
    0.6220   15.1590   -3.0420 C   0  0  0  0  0  0  0  0  0  0  0  0
    0.8130   14.4120   -0.5750 C   0  0  2  0  0  0  0  0  0  0  0  0
   -0.2800   15.3710   -0.0710 C   0  0  0  0  0  0  0  0  0  0  0  0
    0.0080   16.8230   -0.2620 C   0  0  0  0  0  0  0  0  0  0  0  0
    1.2120   17.3500   -0.5530 C   0  0  0  0  0  0  0  0  0  0  0  0
    2.4640   16.4650   -0.6210 C   0  0  1  0  0  0  0  0  0  0  0  0
    3.6200   17.1420    0.1610 C   0  0  0  0  0  0  0  0  0  0  0  0
    3.8880   18.5690   -0.3090 C   0  0  0  0  0  0  0  0  0  0  0  0
    2.6360   19.4320   -0.1710 C   0  0  2  0  0  0  0  0  0  0  0  0
    2.3350   19.5880    1.2190 O   0  0  0  0  0  0  0  0  0  0  0  0
    1.4020   18.8450   -0.9110 C   0  0  0  0  0  0  0  0  0  0  0  0
    1.6110   18.9550   -2.4410 C   0  0  0  0  0  0  0  0  0  0  0  0
    0.1760   19.7360   -0.5750 C   0  0  0  0  0  0  0  0  0  0  0  0
    2.2600   14.9430   -0.2120 C   0  0  1  0  0  0  0  0  0  0  0  0
    2.4200   14.7800    1.3300 C   0  0  0  0  0  0  0  0  0  0  0  0
    3.3970   14.0770   -0.8710 C   0  0  0  0  0  0  0  0  0  0  0  0
    3.1320   13.5470   -2.2930 C   0  0  0  0  0  0  0  0  0  0  0  0
    1.7580   12.8740   -2.3800 C   0  0  2  0  0  0  0  0  0  0  0  0
    1.7700   11.6370   -1.4180 C   0  0  0  0  0  0  0  0  0  0  0  0
    3.8375   11.7460   -5.0991 H   0  0  0  0  0  0  0  0  0  0  0  0
    2.9942   10.5141   -6.0981 H   0  0  0  0  0  0  0  0  0  0  0  0
    2.4207   12.2164   -6.0981 H   0  0  0  0  0  0  0  0  0  0  0  0
    2.5358   10.6321   -3.5226 H   0  0  0  0  0  0  0  0  0  0  0  0
    0.3439   10.4578   -5.6249 H   0  0  0  0  0  0  0  0  0  0  0  0
    1.3022    9.1227   -4.8231 H   0  0  0  0  0  0  0  0  0  0  0  0
   -0.5107   10.9285   -3.2188 H   0  0  0  0  0  0  0  0  0  0  0  0
   -1.1414    9.4757   -4.1012 H   0  0  0  0  0  0  0  0  0  0  0  0
    1.2441    9.1688   -2.8143 H   0  0  0  0  0  0  0  0  0  0  0  0
   -1.7705    9.9502    0.2551 H   0  0  0  0  0  0  0  0  0  0  0  0
   -1.5059   10.8692   -1.2654 H   0  0  0  0  0  0  0  0  0  0  0  0
   -2.5657    9.4189   -1.2654 H   0  0  0  0  0  0  0  0  0  0  0  0
   -0.1770    8.8093    0.9503 H   0  0  0  0  0  0  0  0  0  0  0  0
    0.3483    7.3944   -0.0238 H   0  0  0  0  0  0  0  0  0  0  0  0
    1.3296    8.8990   -0.0238 H   0  0  0  0  0  0  0  0  0  0  0  0
    1.6573   13.0929   -4.5517 H   0  0  0  0  0  0  0  0  0  0  0  0
   -0.7263   12.6981   -4.5304 H   0  0  0  0  0  0  0  0  0  0  0  0
   -0.5550   11.2471   -3.5197 H   0  0  0  0  0  0  0  0  0  0  0  0
   -1.4596   13.8036   -2.6161 H   0  0  0  0  0  0  0  0  0  0  0  0
   -0.9410   12.5048   -1.5448 H   0  0  0  0  0  0  0  0  0  0  0  0
    0.5965   16.0966   -2.4673 H   0  0  0  0  0  0  0  0  0  0  0  0
    1.5209   15.1417   -3.6757 H   0  0  0  0  0  0  0  0  0  0  0  0
   -0.2747   15.0928   -3.6757 H   0  0  0  0  0  0  0  0  0  0  0  0
    0.6677   13.4745   -0.0182 H   0  0  0  0  0  0  0  0  0  0  0  0
   -1.2117   15.1360   -0.6065 H   0  0  0  0  0  0  0  0  0  0  0  0
   -0.3449   15.2141    1.0158 H   0  0  0  0  0  0  0  0  0  0  0  0
   -0.8350   17.5216   -0.1560 H   0  0  0  0  0  0  0  0  0  0  0  0
    2.7270   16.3918   -1.6866 H   0  0  0  0  0  0  0  0  0  0  0  0
    3.3567   17.1661    1.2287 H   0  0  0  0  0  0  0  0  0  0  0  0
    4.5328   16.5547   -0.0179 H   0  0  0  0  0  0  0  0  0  0  0  0
    4.6940   19.0036    0.3005 H   0  0  0  0  0  0  0  0  0  0  0  0
    4.1805   18.5409   -1.3690 H   0  0  0  0  0  0  0  0  0  0  0  0
    2.8507   20.4025   -0.6423 H   0  0  0  0  0  0  0  0  0  0  0  0
    1.7890   20.3870    1.3140 H   0  0  0  0  0  0  0  0  0  0  0  0
    2.5675   19.4584   -2.6452 H   0  0  0  0  0  0  0  0  0  0  0  0
    1.6253   17.9476   -2.8825 H   0  0  0  0  0  0  0  0  0  0  0  0
    0.7887   19.5372   -2.8825 H   0  0  0  0  0  0  0  0  0  0  0  0
    0.0680   19.8145    0.5169 H   0  0  0  0  0  0  0  0  0  0  0  0
    0.3236   20.7390   -1.0019 H   0  0  0  0  0  0  0  0  0  0  0  0
   -0.7324   19.2859   -1.0019 H   0  0  0  0  0  0  0  0  0  0  0  0
    1.7390   15.4738    1.8447 H   0  0  0  0  0  0  0  0  0  0  0  0
    2.1760   13.7464    1.6167 H   0  0  0  0  0  0  0  0  0  0  0  0
    3.4579   15.0048    1.6167 H   0  0  0  0  0  0  0  0  0  0  0  0
    4.3056   14.6957   -0.9106 H   0  0  0  0  0  0  0  0  0  0  0  0
    3.4769   13.1795   -0.2401 H   0  0  0  0  0  0  0  0  0  0  0  0
    3.1669   14.3869   -3.0024 H   0  0  0  0  0  0  0  0  0  0  0  0
    3.9035   12.8027   -2.5395 H   0  0  0  0  0  0  0  0  0  0  0  0
    1.7666   11.9842   -0.3742 H   0  0  0  0  0  0  0  0  0  0  0  0
    0.8778   11.0205   -1.6023 H   0  0  0  0  0  0  0  0  0  0  0  0
    2.6740   11.0380   -1.6023 H   0  0  0  0  0  0  0  0  0  0  0  0
  1  2  1  0
  2  3  1  0
  3  4  1  0
  4  5  1  0
  5  6  1  0
  6  7  1  0
  7  8  1  0
  7  9  1  0
  2 10  1  0
 10 11  1  0
 11 12  1  0
 12 13  1  0
 13 14  1  6
 13 15  1  0
 15 16  1  0
 16 17  1  0
 17 18  2  0
 18 19  1  0
 19 20  1  0
 20 21  1  0
 21 22  1  0
 22 23  1  0
 22 24  1  0
 24 25  1  0
 24 26  1  0
 19 27  1  0
 27 28  1  1
 27 29  1  0
 29 30  1  0
 30 31  1  0
 31 32  1  1
  7  5  1  0
 31 10  1  0
 31 13  1  0
 27 15  1  0
 24 18  1  0
  1 33  1  0
  1 34  1  0
  1 35  1  0
  2 36  1  1
  3 37  1  0
  3 38  1  0
  4 39  1  0
  4 40  1  0
  5 41  1  1
  8 42  1  0
  8 43  1  0
  8 44  1  0
  9 45  1  0
  9 46  1  0
  9 47  1  0
 10 48  1  6
 11 49  1  0
 11 50  1  0
 12 51  1  0
 12 52  1  0
 14 53  1  0
 14 54  1  0
 14 55  1  0
 15 56  1  1
 16 57  1  0
 16 58  1  0
 17 59  1  0
 19 60  1  6
 20 61  1  0
 20 62  1  0
 21 63  1  0
 21 64  1  0
 22 65  1  6
 23 66  1  0
 25 67  1  0
 25 68  1  0
 25 69  1  0
 26 70  1  0
 26 71  1  0
 26 72  1  0
 28 73  1  0
 28 74  1  0
 28 75  1  0
 29 76  1  0
 29 77  1  0
 30 78  1  0
 30 79  1  0
 32 80  1  0
 32 81  1  0
 32 82  1  0
M  END
>  <meeko>  (16) 
{"is_sidechain": [false], "intermolecular_energy": 2.731, "internal_energy": -0.839}

$$$$
EPH_relaxed_0001_pdb2pqr_Repair_246_r2_0001_out
     RDKit          3D

 82 86  0  0  0  0  0  0  0  0999 V2000
    0.9060   14.8990   -2.5930 C   0  0  0  0  0  0  0  0  0  0  0  0
    1.1840   14.2260   -3.9410 C   0  0  2  0  0  0  0  0  0  0  0  0
    0.4950   14.9600   -5.1090 C   0  0  0  0  0  0  0  0  0  0  0  0
    1.0770   14.6140   -6.4820 C   0  0  0  0  0  0  0  0  0  0  0  0
    0.8310   15.7050   -7.4800 C   0  0  2  0  0  0  0  0  0  0  0  0
    0.3880   15.2510   -8.7660 O   0  0  0  0  0  0  0  0  0  0  0  0
    1.6690   15.9010   -8.7290 C   0  0  0  0  0  0  0  0  0  0  0  0
    2.8190   14.9970   -9.0470 C   0  0  0  0  0  0  0  0  0  0  0  0
    1.6800   17.2490   -9.3790 C   0  0  0  0  0  0  0  0  0  0  0  0
    0.7310   12.7720   -3.8990 C   0  0  1  0  0  0  0  0  0  0  0  0
    1.8620   11.7820   -4.2870 C   0  0  0  0  0  0  0  0  0  0  0  0
    1.6580   10.5100   -3.4240 C   0  0  0  0  0  0  0  0  0  0  0  0
    0.2440   10.6720   -2.8180 C   0  0  1  0  0  0  0  0  0  0  0  0
   -0.7300   10.2130   -3.9480 C   0  0  0  0  0  0  0  0  0  0  0  0
   -0.0250    9.9100   -1.4800 C   0  0  2  0  0  0  0  0  0  0  0  0
    0.0770    8.3770   -1.5690 C   0  0  0  0  0  0  0  0  0  0  0  0
   -1.1960    7.6720   -1.9000 C   0  0  0  0  0  0  0  0  0  0  0  0
   -2.4280    8.2100   -1.8380 C   0  0  0  0  0  0  0  0  0  0  0  0
   -2.6390    9.6340   -1.3060 C   0  0  1  0  0  0  0  0  0  0  0  0
   -3.8210    9.6410   -0.3010 C   0  0  0  0  0  0  0  0  0  0  0  0
   -5.0950    9.0440   -0.8910 C   0  0  0  0  0  0  0  0  0  0  0  0
   -4.8600    7.6090   -1.3550 C   0  0  2  0  0  0  0  0  0  0  0  0
   -4.6050    6.7900   -0.2100 O   0  0  0  0  0  0  0  0  0  0  0  0
   -3.6850    7.4750   -2.3650 C   0  0  0  0  0  0  0  0  0  0  0  0
   -4.0880    8.1100   -3.7190 C   0  0  0  0  0  0  0  0  0  0  0  0
   -3.4640    5.9640   -2.6420 C   0  0  0  0  0  0  0  0  0  0  0  0
   -1.3460   10.3590   -0.7330 C   0  0  1  0  0  0  0  0  0  0  0  0
   -1.1540    9.9940    0.7710 C   0  0  0  0  0  0  0  0  0  0  0  0
   -1.5640   11.9170   -0.7880 C   0  0  0  0  0  0  0  0  0  0  0  0
   -1.1670   12.6290   -2.0950 C   0  0  0  0  0  0  0  0  0  0  0  0
    0.2400   12.2180   -2.5370 C   0  0  2  0  0  0  0  0  0  0  0  0
    1.2450   12.6860   -1.4300 C   0  0  0  0  0  0  0  0  0  0  0  0
    1.1878   14.2167   -1.7775 H   0  0  0  0  0  0  0  0  0  0  0  0
    1.4954   15.8246   -2.5168 H   0  0  0  0  0  0  0  0  0  0  0  0
   -0.1648   15.1388   -2.5168 H   0  0  0  0  0  0  0  0  0  0  0  0
    2.2689   14.2718   -4.1167 H   0  0  0  0  0  0  0  0  0  0  0  0
   -0.5719   14.6921   -5.1065 H   0  0  0  0  0  0  0  0  0  0  0  0
    0.6577   16.0366   -4.9529 H   0  0  0  0  0  0  0  0  0  0  0  0
    2.1617   14.4613   -6.3811 H   0  0  0  0  0  0  0  0  0  0  0  0
    0.5820   13.7007   -6.8437 H   0  0  0  0  0  0  0  0  0  0  0  0
    0.5227   16.3971   -6.6826 H   0  0  0  0  0  0  0  0  0  0  0  0
    3.2739   14.6394   -8.1115 H   0  0  0  0  0  0  0  0  0  0  0  0
    2.4590   14.1375   -9.6316 H   0  0  0  0  0  0  0  0  0  0  0  0
    3.5691   15.5497   -9.6316 H   0  0  0  0  0  0  0  0  0  0  0  0
    1.6864   18.0297   -8.6041 H   0  0  0  0  0  0  0  0  0  0  0  0
    2.5790   17.3467  -10.0053 H   0  0  0  0  0  0  0  0  0  0  0  0
    0.7827   17.3614  -10.0053 H   0  0  0  0  0  0  0  0  0  0  0  0
   -0.1073   12.8202   -4.6096 H   0  0  0  0  0  0  0  0  0  0  0  0
    1.7946   11.5297   -5.3556 H   0  0  0  0  0  0  0  0  0  0  0  0
    2.8531   12.2251   -4.1096 H   0  0  0  0  0  0  0  0  0  0  0  0
    1.7120    9.6052   -4.0472 H   0  0  0  0  0  0  0  0  0  0  0  0
    2.4331   10.4017   -2.6510 H   0  0  0  0  0  0  0  0  0  0  0  0
   -1.6380    9.7851   -3.4980 H   0  0  0  0  0  0  0  0  0  0  0  0
   -1.0021   11.0777   -4.5712 H   0  0  0  0  0  0  0  0  0  0  0  0
   -0.2363    9.4528   -4.5712 H   0  0  0  0  0  0  0  0  0  0  0  0
    0.8209   10.2290   -0.8533 H   0  0  0  0  0  0  0  0  0  0  0  0
    0.8146    8.1299   -2.3467 H   0  0  0  0  0  0  0  0  0  0  0  0
    0.3638    8.0321   -0.5646 H   0  0  0  0  0  0  0  0  0  0  0  0
   -1.1209    6.6229   -2.2222 H   0  0  0  0  0  0  0  0  0  0  0  0
   -2.8892   10.2518   -2.1810 H   0  0  0  0  0  0  0  0  0  0  0  0
   -3.5343    9.0548    0.5845 H   0  0  0  0  0  0  0  0  0  0  0  0
   -4.0325   10.6890   -0.0421 H   0  0  0  0  0  0  0  0  0  0  0  0
   -5.8840    9.0500   -0.1246 H   0  0  0  0  0  0  0  0  0  0  0  0
   -5.3974    9.6488   -1.7586 H   0  0  0  0  0  0  0  0  0  0  0  0
   -5.7671    7.2815   -1.8841 H   0  0  0  0  0  0  0  0  0  0  0  0
   -4.0440    6.0490   -0.4960 H   0  0  0  0  0  0  0  0  0  0  0  0
   -4.6692    9.0258   -3.5359 H   0  0  0  0  0  0  0  0  0  0  0  0
   -3.1822    8.3589   -4.2913 H   0  0  0  0  0  0  0  0  0  0  0  0
   -4.6988    7.3963   -4.2913 H   0  0  0  0  0  0  0  0  0  0  0  0
   -3.3850    5.4239   -1.6870 H   0  0  0  0  0  0  0  0  0  0  0  0
   -4.3139    5.5686   -3.2177 H   0  0  0  0  0  0  0  0  0  0  0  0
   -2.5365    5.8286   -3.2177 H   0  0  0  0  0  0  0  0  0  0  0  0
   -1.5745   10.7934    1.3989 H   0  0  0  0  0  0  0  0  0  0  0  0
   -1.6709    9.0475    0.9875 H   0  0  0  0  0  0  0  0  0  0  0  0
   -0.0812    9.8837    0.9875 H   0  0  0  0  0  0  0  0  0  0  0  0
   -2.6333   12.1095   -0.6159 H   0  0  0  0  0  0  0  0  0  0  0  0
   -0.8917   12.3286   -0.0208 H   0  0  0  0  0  0  0  0  0  0  0  0
   -1.8850   12.3600   -2.8838 H   0  0  0  0  0  0  0  0  0  0  0  0
   -1.1766   13.7149   -1.9199 H   0  0  0  0  0  0  0  0  0  0  0  0
    0.8159   12.4862   -0.4370 H   0  0  0  0  0  0  0  0  0  0  0  0
    2.1915   12.1360   -1.5379 H   0  0  0  0  0  0  0  0  0  0  0  0
    1.4332   13.7644   -1.5379 H   0  0  0  0  0  0  0  0  0  0  0  0
  1  2  1  0
  2  3  1  0
  3  4  1  0
  4  5  1  0
  5  6  1  0
  6  7  1  0
  7  8  1  0
  7  9  1  0
  2 10  1  0
 10 11  1  0
 11 12  1  0
 12 13  1  0
 13 14  1  6
 13 15  1  0
 15 16  1  0
 16 17  1  0
 17 18  2  0
 18 19  1  0
 19 20  1  0
 20 21  1  0
 21 22  1  0
 22 23  1  0
 22 24  1  0
 24 25  1  0
 24 26  1  0
 19 27  1  0
 27 28  1  1
 27 29  1  0
 29 30  1  0
 30 31  1  0
 31 32  1  1
  7  5  1  0
 31 10  1  0
 31 13  1  0
 27 15  1  0
 24 18  1  0
  1 33  1  0
  1 34  1  0
  1 35  1  0
  2 36  1  6
  3 37  1  0
  3 38  1  0
  4 39  1  0
  4 40  1  0
  5 41  1  1
  8 42  1  0
  8 43  1  0
  8 44  1  0
  9 45  1  0
  9 46  1  0
  9 47  1  0
 10 48  1  6
 11 49  1  0
 11 50  1  0
 12 51  1  0
 12 52  1  0
 14 53  1  0
 14 54  1  0
 14 55  1  0
 15 56  1  1
 16 57  1  0
 16 58  1  0
 17 59  1  0
 19 60  1  6
 20 61  1  0
 20 62  1  0
 21 63  1  0
 21 64  1  0
 22 65  1  6
 23 66  1  0
 25 67  1  0
 25 68  1  0
 25 69  1  0
 26 70  1  0
 26 71  1  0
 26 72  1  0
 28 73  1  0
 28 74  1  0
 28 75  1  0
 29 76  1  0
 29 77  1  0
 30 78  1  0
 30 79  1  0
 32 80  1  0
 32 81  1  0
 32 82  1  0
M  END
>  <meeko>  (17) 
{"is_sidechain": [false], "intermolecular_energy": 2.731, "internal_energy": -0.839}

$$$$
EPH_relaxed_0001_pdb2pqr_Repair_246_r2_0001_out
     RDKit          3D

 82 86  0  0  0  0  0  0  0  0999 V2000
   -1.7180   14.8360    0.4580 C   0  0  0  0  0  0  0  0  0  0  0  0
   -0.3680   15.5340    0.2740 C   0  0  2  0  0  0  0  0  0  0  0  0
   -0.3990   16.5670   -0.8710 C   0  0  0  0  0  0  0  0  0  0  0  0
   -0.0170   17.9830   -0.4320 C   0  0  0  0  0  0  0  0  0  0  0  0
    1.4200   18.0650   -0.0150 C   0  0  2  0  0  0  0  0  0  0  0  0
    2.0830   19.2820   -0.3860 O   0  0  0  0  0  0  0  0  0  0  0  0
    2.5770   18.0790   -0.9970 C   0  0  0  0  0  0  0  0  0  0  0  0
    2.3470   18.0090   -2.4740 C   0  0  0  0  0  0  0  0  0  0  0  0
    3.9330   17.6700   -0.5120 C   0  0  0  0  0  0  0  0  0  0  0  0
    0.7200   14.4990    0.0120 C   0  0  1  0  0  0  0  0  0  0  0  0
    0.8470   13.4630    1.1600 C   0  0  0  0  0  0  0  0  0  0  0  0
    1.2200   12.1090    0.5020 C   0  0  0  0  0  0  0  0  0  0  0  0
    1.6190   12.4770   -0.9470 C   0  0  1  0  0  0  0  0  0  0  0  0
    3.0940   12.9770   -0.8420 C   0  0  0  0  0  0  0  0  0  0  0  0
    1.4670   11.3450   -2.0140 C   0  0  2  0  0  0  0  0  0  0  0  0
    2.3470   10.1050   -1.7790 C   0  0  0  0  0  0  0  0  0  0  0  0
    3.6920   10.1460   -2.4240 C   0  0  0  0  0  0  0  0  0  0  0  0
    4.0700   11.0030   -3.3920 C   0  0  0  0  0  0  0  0  0  0  0  0
    3.0690   11.9920   -4.0030 C   0  0  1  0  0  0  0  0  0  0  0  0
    3.1950   11.9670   -5.5490 C   0  0  0  0  0  0  0  0  0  0  0  0
    4.6240   12.2150   -6.0230 C   0  0  0  0  0  0  0  0  0  0  0  0
    5.5800   11.1780   -5.4400 C   0  0  2  0  0  0  0  0  0  0  0  0
    5.2610    9.8960   -5.9930 O   0  0  0  0  0  0  0  0  0  0  0  0
    5.5330   11.1040   -3.8890 C   0  0  0  0  0  0  0  0  0  0  0  0
    6.1630   12.3850   -3.2880 C   0  0  0  0  0  0  0  0  0  0  0  0
    6.4370    9.9240   -3.4390 C   0  0  0  0  0  0  0  0  0  0  0  0
    1.5640   11.8480   -3.5110 C   0  0  1  0  0  0  0  0  0  0  0  0
    0.8180   10.7940   -4.3840 C   0  0  0  0  0  0  0  0  0  0  0  0
    0.8180   13.2170   -3.7320 C   0  0  0  0  0  0  0  0  0  0  0  0
    0.9060   14.2480   -2.5910 C   0  0  0  0  0  0  0  0  0  0  0  0
    0.5650   13.6050   -1.2430 C   0  0  2  0  0  0  0  0  0  0  0  0
   -0.9210   13.1130   -1.3110 C   0  0  0  0  0  0  0  0  0  0  0  0
   -1.9306   14.7261    1.5316 H   0  0  0  0  0  0  0  0  0  0  0  0
   -2.5092   15.4380   -0.0127 H   0  0  0  0  0  0  0  0  0  0  0  0
   -1.6842   13.8424   -0.0127 H   0  0  0  0  0  0  0  0  0  0  0  0
   -0.1476   16.0788    1.2039 H   0  0  0  0  0  0  0  0  0  0  0  0
    0.3062   16.2428   -1.6505 H   0  0  0  0  0  0  0  0  0  0  0  0
   -1.4358   16.6119   -1.2358 H   0  0  0  0  0  0  0  0  0  0  0  0
   -0.1846   18.6739   -1.2714 H   0  0  0  0  0  0  0  0  0  0  0  0
   -0.6410   18.2542    0.4323 H   0  0  0  0  0  0  0  0  0  0  0  0
    1.2192   17.4580    0.8801 H   0  0  0  0  0  0  0  0  0  0  0  0
    1.3114   17.6938   -2.6693 H   0  0  0  0  0  0  0  0  0  0  0  0
    2.5188   19.0001   -2.9192 H   0  0  0  0  0  0  0  0  0  0  0  0
    3.0418   17.2816   -2.9192 H   0  0  0  0  0  0  0  0  0  0  0  0
    3.9434   17.6669    0.5879 H   0  0  0  0  0  0  0  0  0  0  0  0
    4.1666   16.6614   -0.8838 H   0  0  0  0  0  0  0  0  0  0  0  0
    4.6853   18.3812   -0.8838 H   0  0  0  0  0  0  0  0  0  0  0  0
    1.5850   15.1679   -0.1078 H   0  0  0  0  0  0  0  0  0  0  0  0
    1.6342   13.7718    1.8635 H   0  0  0  0  0  0  0  0  0  0  0  0
   -0.0937   13.3818    1.7244 H   0  0  0  0  0  0  0  0  0  0  0  0
    2.0633   11.6398    1.0299 H   0  0  0  0  0  0  0  0  0  0  0  0
    0.3917   11.3860    0.5361 H   0  0  0  0  0  0  0  0  0  0  0  0
    3.3744   13.0721    0.2174 H   0  0  0  0  0  0  0  0  0  0  0  0
    3.7618   12.2550   -1.3347 H   0  0  0  0  0  0  0  0  0  0  0  0
    3.1852   13.9562   -1.3347 H   0  0  0  0  0  0  0  0  0  0  0  0
    0.4311   11.0100   -1.8570 H   0  0  0  0  0  0  0  0  0  0  0  0
    2.4934    9.9928   -0.6946 H   0  0  0  0  0  0  0  0  0  0  0  0
    1.8135    9.2614   -2.2413 H   0  0  0  0  0  0  0  0  0  0  0  0
    4.4379    9.4145   -2.0798 H   0  0  0  0  0  0  0  0  0  0  0  0
    3.3502   12.9846   -3.6214 H   0  0  0  0  0  0  0  0  0  0  0  0
    2.8684   10.9819   -5.9136 H   0  0  0  0  0  0  0  0  0  0  0  0
    2.5653   12.7755   -5.9487 H   0  0  0  0  0  0  0  0  0  0  0  0
    4.6545   12.1556   -7.1210 H   0  0  0  0  0  0  0  0  0  0  0  0
    4.9385   13.2127   -5.6828 H   0  0  0  0  0  0  0  0  0  0  0  0
    6.6021   11.4840   -5.7076 H   0  0  0  0  0  0  0  0  0  0  0  0
    4.3830    9.6430   -5.6610 H   0  0  0  0  0  0  0  0  0  0  0  0
    6.1345   12.3271   -2.1899 H   0  0  0  0  0  0  0  0  0  0  0  0
    7.2069   12.4724   -3.6236 H   0  0  0  0  0  0  0  0  0  0  0  0
    5.5950   13.2652   -3.6236 H   0  0  0  0  0  0  0  0  0  0  0  0
    6.4677    9.8840   -2.3402 H   0  0  0  0  0  0  0  0  0  0  0  0
    6.0288    8.9799   -3.8291 H   0  0  0  0  0  0  0  0  0  0  0  0
    7.4548   10.0724   -3.8291 H   0  0  0  0  0  0  0  0  0  0  0  0
    0.3069   10.0719   -3.7302 H   0  0  0  0  0  0  0  0  0  0  0  0
    0.0772   11.3020   -5.0189 H   0  0  0  0  0  0  0  0  0  0  0  0
    1.5434   10.2642   -5.0189 H   0  0  0  0  0  0  0  0  0  0  0  0
    1.2388   13.6833   -4.6350 H   0  0  0  0  0  0  0  0  0  0  0  0
   -0.2482   12.9557   -3.8022 H   0  0  0  0  0  0  0  0  0  0  0  0
    1.9285   14.6515   -2.5488 H   0  0  0  0  0  0  0  0  0  0  0  0
    0.1823   15.0524   -2.7888 H   0  0  0  0  0  0  0  0  0  0  0  0
   -1.3115   12.9837   -0.2908 H   0  0  0  0  0  0  0  0  0  0  0  0
   -1.5297   13.8576   -1.8450 H   0  0  0  0  0  0  0  0  0  0  0  0
   -0.9651   12.1523   -1.8450 H   0  0  0  0  0  0  0  0  0  0  0  0
  1  2  1  0
  2  3  1  0
  3  4  1  0
  4  5  1  0
  5  6  1  0
  6  7  1  0
  7  8  1  0
  7  9  1  0
  2 10  1  0
 10 11  1  0
 11 12  1  0
 12 13  1  0
 13 14  1  1
 13 15  1  0
 15 16  1  0
 16 17  1  0
 17 18  2  0
 18 19  1  0
 19 20  1  0
 20 21  1  0
 21 22  1  0
 22 23  1  0
 22 24  1  0
 24 25  1  0
 24 26  1  0
 19 27  1  0
 27 28  1  6
 27 29  1  0
 29 30  1  0
 30 31  1  0
 31 32  1  6
  7  5  1  0
 31 10  1  0
 31 13  1  0
 27 15  1  0
 24 18  1  0
  1 33  1  0
  1 34  1  0
  1 35  1  0
  2 36  1  1
  3 37  1  0
  3 38  1  0
  4 39  1  0
  4 40  1  0
  5 41  1  1
  8 42  1  0
  8 43  1  0
  8 44  1  0
  9 45  1  0
  9 46  1  0
  9 47  1  0
 10 48  1  6
 11 49  1  0
 11 50  1  0
 12 51  1  0
 12 52  1  0
 14 53  1  0
 14 54  1  0
 14 55  1  0
 15 56  1  6
 16 57  1  0
 16 58  1  0
 17 59  1  0
 19 60  1  1
 20 61  1  0
 20 62  1  0
 21 63  1  0
 21 64  1  0
 22 65  1  1
 23 66  1  0
 25 67  1  0
 25 68  1  0
 25 69  1  0
 26 70  1  0
 26 71  1  0
 26 72  1  0
 28 73  1  0
 28 74  1  0
 28 75  1  0
 29 76  1  0
 29 77  1  0
 30 78  1  0
 30 79  1  0
 32 80  1  0
 32 81  1  0
 32 82  1  0
M  END
>  <meeko>  (18) 
{"is_sidechain": [false], "intermolecular_energy": 2.731, "internal_energy": -0.839}

$$$$
EPH_relaxed_0001_pdb2pqr_Repair_246_r2_0001_out
     RDKit          3D

 82 86  0  0  0  0  0  0  0  0999 V2000
   -2.4490    7.6950   -0.1090 C   0  0  0  0  0  0  0  0  0  0  0  0
   -3.0540    9.1010   -0.0630 C   0  0  2  0  0  0  0  0  0  0  0  0
   -4.5540    9.0990   -0.4190 C   0  0  0  0  0  0  0  0  0  0  0  0
   -5.1750    7.7000   -0.4630 C   0  0  0  0  0  0  0  0  0  0  0  0
   -5.8820    7.4480   -1.7600 C   0  0  2  0  0  0  0  0  0  0  0  0
   -6.7980    8.4780   -2.1520 O   0  0  0  0  0  0  0  0  0  0  0  0
   -7.3740    7.1940   -1.8630 C   0  0  0  0  0  0  0  0  0  0  0  0
   -8.2490    7.1790   -0.6490 C   0  0  0  0  0  0  0  0  0  0  0  0
   -7.8970    6.4820   -3.0720 C   0  0  0  0  0  0  0  0  0  0  0  0
   -2.2950   10.0250   -1.0090 C   0  0  1  0  0  0  0  0  0  0  0  0
   -2.9560   11.4230   -1.1360 C   0  0  0  0  0  0  0  0  0  0  0  0
   -1.8050   12.4480   -1.3030 C   0  0  0  0  0  0  0  0  0  0  0  0
   -0.5550   11.5860   -1.5990 C   0  0  1  0  0  0  0  0  0  0  0  0
   -0.6490   11.2530   -3.1210 C   0  0  0  0  0  0  0  0  0  0  0  0
    0.8250   12.2210   -1.2320 C   0  0  2  0  0  0  0  0  0  0  0  0
    1.1760   13.5090   -1.9970 C   0  0  0  0  0  0  0  0  0  0  0  0
    1.9250   13.3080   -3.2730 C   0  0  0  0  0  0  0  0  0  0  0  0
    2.5490   12.1750   -3.6440 C   0  0  0  0  0  0  0  0  0  0  0  0
    2.6220   10.9700   -2.6970 C   0  0  1  0  0  0  0  0  0  0  0  0
    4.0710   10.4170   -2.6740 C   0  0  0  0  0  0  0  0  0  0  0  0
    4.5970   10.0950   -4.0690 C   0  0  0  0  0  0  0  0  0  0  0  0
    4.5630   11.3320   -4.9640 C   0  0  2  0  0  0  0  0  0  0  0  0
    5.5020   12.2880   -4.4640 O   0  0  0  0  0  0  0  0  0  0  0  0
    3.1540   11.9820   -5.0560 C   0  0  0  0  0  0  0  0  0  0  0  0
    2.2090   11.0630   -5.8690 C   0  0  0  0  0  0  0  0  0  0  0  0
    3.2870   13.2960   -5.8720 C   0  0  0  0  0  0  0  0  0  0  0  0
    2.0320   11.1970   -1.2390 C   0  0  1  0  0  0  0  0  0  0  0  0
    3.1300   11.7970   -0.3080 C   0  0  0  0  0  0  0  0  0  0  0  0
    1.6390    9.8040   -0.6200 C   0  0  0  0  0  0  0  0  0  0  0  0
    0.2190    9.2860   -0.9220 C   0  0  0  0  0  0  0  0  0  0  0  0
   -0.8290   10.3680   -0.6440 C   0  0  2  0  0  0  0  0  0  0  0  0
   -0.7740   10.7070    0.8840 C   0  0  0  0  0  0  0  0  0  0  0  0
   -2.2918    7.3297    0.9166 H   0  0  0  0  0  0  0  0  0  0  0  0
   -3.1353    7.0176   -0.6383 H   0  0  0  0  0  0  0  0  0  0  0  0
   -1.4853    7.7277   -0.6383 H   0  0  0  0  0  0  0  0  0  0  0  0
   -2.9602    9.4682    0.9696 H   0  0  0  0  0  0  0  0  0  0  0  0
   -5.0906    9.6934    0.3351 H   0  0  0  0  0  0  0  0  0  0  0  0
   -4.6447    9.5226   -1.4301 H   0  0  0  0  0  0  0  0  0  0  0  0
   -4.3778    6.9521   -0.3404 H   0  0  0  0  0  0  0  0  0  0  0  0
   -5.9128    7.6266    0.3496 H   0  0  0  0  0  0  0  0  0  0  0  0
   -5.0119    6.9041   -2.1562 H   0  0  0  0  0  0  0  0  0  0  0  0
   -7.6222    7.1897    0.2549 H   0  0  0  0  0  0  0  0  0  0  0  0
   -8.8994    8.0661   -0.6548 H   0  0  0  0  0  0  0  0  0  0  0  0
   -8.8686    6.2701   -0.6548 H   0  0  0  0  0  0  0  0  0  0  0  0
   -8.5208    5.6328   -2.7562 H   0  0  0  0  0  0  0  0  0  0  0  0
   -8.5011    7.1768   -3.6740 H   0  0  0  0  0  0  0  0  0  0  0  0
   -7.0534    6.1134   -3.6740 H   0  0  0  0  0  0  0  0  0  0  0  0
   -2.3216    9.4148   -1.9238 H   0  0  0  0  0  0  0  0  0  0  0  0
   -3.6182   11.4506   -2.0139 H   0  0  0  0  0  0  0  0  0  0  0  0
   -3.5653   11.6540   -0.2497 H   0  0  0  0  0  0  0  0  0  0  0  0
   -2.0122   13.1317   -2.1394 H   0  0  0  0  0  0  0  0  0  0  0  0
   -1.6753   13.0787   -0.4111 H   0  0  0  0  0  0  0  0  0  0  0  0
   -0.9458   10.2015   -3.2486 H   0  0  0  0  0  0  0  0  0  0  0  0
   -1.3981   11.9054   -3.5935 H   0  0  0  0  0  0  0  0  0  0  0  0
    0.3307   11.4174   -3.5935 H   0  0  0  0  0  0  0  0  0  0  0  0
    0.6722   12.5278   -0.1867 H   0  0  0  0  0  0  0  0  0  0  0  0
    0.2370   14.0312   -2.2326 H   0  0  0  0  0  0  0  0  0  0  0  0
    1.8449   14.0820   -1.3381 H   0  0  0  0  0  0  0  0  0  0  0  0
    1.9706   14.1586   -3.9690 H   0  0  0  0  0  0  0  0  0  0  0  0
    1.9404   10.2139   -3.1138 H   0  0  0  0  0  0  0  0  0  0  0  0
    4.7284   11.1698   -2.2145 H   0  0  0  0  0  0  0  0  0  0  0  0
    4.0617    9.4807   -2.0966 H   0  0  0  0  0  0  0  0  0  0  0  0
    5.6340    9.7369   -3.9890 H   0  0  0  0  0  0  0  0  0  0  0  0
    3.9562    9.3206   -4.5158 H   0  0  0  0  0  0  0  0  0  0  0  0
    4.8275   11.0107   -5.9822 H   0  0  0  0  0  0  0  0  0  0  0  0
    5.5830   12.9950   -5.1270 H   0  0  0  0  0  0  0  0  0  0  0  0
    1.5950   10.4659   -5.1788 H   0  0  0  0  0  0  0  0  0  0  0  0
    1.5542   11.6791   -6.5028 H   0  0  0  0  0  0  0  0  0  0  0  0
    2.8066   10.3913   -6.5028 H   0  0  0  0  0  0  0  0  0  0  0  0
    3.3733   14.1487   -5.1824 H   0  0  0  0  0  0  0  0  0  0  0  0
    4.1845   13.2447   -6.5059 H   0  0  0  0  0  0  0  0  0  0  0  0
    2.3974   13.4256   -6.5059 H   0  0  0  0  0  0  0  0  0  0  0  0
    2.8449   11.6412    0.7429 H   0  0  0  0  0  0  0  0  0  0  0  0
    4.0905   11.2983   -0.5051 H   0  0  0  0  0  0  0  0  0  0  0  0
    3.2291   12.8746   -0.5051 H   0  0  0  0  0  0  0  0  0  0  0  0
    2.3531    9.0580   -0.9988 H   0  0  0  0  0  0  0  0  0  0  0  0
    1.6651    9.9550    0.4693 H   0  0  0  0  0  0  0  0  0  0  0  0
    0.1606    8.9917   -1.9803 H   0  0  0  0  0  0  0  0  0  0  0  0
    0.0141    8.4233   -0.2711 H   0  0  0  0  0  0  0  0  0  0  0  0
   -0.9232    9.7876    1.4692 H   0  0  0  0  0  0  0  0  0  0  0  0
    0.2065   11.1419    1.1280 H   0  0  0  0  0  0  0  0  0  0  0  0
   -1.5667   11.4296    1.1280 H   0  0  0  0  0  0  0  0  0  0  0  0
  1  2  1  0
  2  3  1  0
  3  4  1  0
  4  5  1  0
  5  6  1  0
  6  7  1  0
  7  8  1  0
  7  9  1  0
  2 10  1  0
 10 11  1  0
 11 12  1  0
 12 13  1  0
 13 14  1  6
 13 15  1  0
 15 16  1  0
 16 17  1  0
 17 18  2  0
 18 19  1  0
 19 20  1  0
 20 21  1  0
 21 22  1  0
 22 23  1  0
 22 24  1  0
 24 25  1  0
 24 26  1  0
 19 27  1  0
 27 28  1  1
 27 29  1  0
 29 30  1  0
 30 31  1  0
 31 32  1  1
  7  5  1  0
 31 10  1  0
 31 13  1  0
 27 15  1  0
 24 18  1  0
  1 33  1  0
  1 34  1  0
  1 35  1  0
  2 36  1  1
  3 37  1  0
  3 38  1  0
  4 39  1  0
  4 40  1  0
  5 41  1  6
  8 42  1  0
  8 43  1  0
  8 44  1  0
  9 45  1  0
  9 46  1  0
  9 47  1  0
 10 48  1  6
 11 49  1  0
 11 50  1  0
 12 51  1  0
 12 52  1  0
 14 53  1  0
 14 54  1  0
 14 55  1  0
 15 56  1  1
 16 57  1  0
 16 58  1  0
 17 59  1  0
 19 60  1  6
 20 61  1  0
 20 62  1  0
 21 63  1  0
 21 64  1  0
 22 65  1  6
 23 66  1  0
 25 67  1  0
 25 68  1  0
 25 69  1  0
 26 70  1  0
 26 71  1  0
 26 72  1  0
 28 73  1  0
 28 74  1  0
 28 75  1  0
 29 76  1  0
 29 77  1  0
 30 78  1  0
 30 79  1  0
 32 80  1  0
 32 81  1  0
 32 82  1  0
M  END
>  <meeko>  (19) 
{"is_sidechain": [false], "intermolecular_energy": 2.731, "internal_energy": -0.839}

$$$$
