EPH_relaxed_0001_pdb2pqr_Repair_164_r2_0001_out
     RDKit          3D

 82 86  0  0  0  0  0  0  0  0999 V2000
    3.5690   18.1110    0.7110 C   0  0  0  0  0  0  0  0  0  0  0  0
    2.7050   18.4590   -0.5040 C   0  0  2  0  0  0  0  0  0  0  0  0
    1.9150   19.7670   -0.3000 C   0  0  0  0  0  0  0  0  0  0  0  0
    0.8800   19.6910    0.8270 C   0  0  0  0  0  0  0  0  0  0  0  0
   -0.4610   20.1910    0.3820 C   0  0  2  0  0  0  0  0  0  0  0  0
   -1.4670   20.1940    1.4030 O   0  0  0  0  0  0  0  0  0  0  0  0
   -1.6940   19.3120    0.2920 C   0  0  0  0  0  0  0  0  0  0  0  0
   -1.6440   17.8590    0.6480 C   0  0  0  0  0  0  0  0  0  0  0  0
   -2.8160   19.7430   -0.6000 C   0  0  0  0  0  0  0  0  0  0  0  0
    1.7460   17.3130   -0.8050 C   0  0  1  0  0  0  0  0  0  0  0  0
    0.5910   17.7330   -1.7520 C   0  0  0  0  0  0  0  0  0  0  0  0
    0.2750   16.5060   -2.6450 C   0  0  0  0  0  0  0  0  0  0  0  0
    1.0180   15.3300   -1.9690 C   0  0  1  0  0  0  0  0  0  0  0  0
    0.0810   14.8810   -0.8030 C   0  0  0  0  0  0  0  0  0  0  0  0
    1.4020   14.1300   -2.8950 C   0  0  2  0  0  0  0  0  0  0  0  0
    0.2120   13.3910   -3.5320 C   0  0  0  0  0  0  0  0  0  0  0  0
   -0.3240   12.2440   -2.7410 C   0  0  0  0  0  0  0  0  0  0  0  0
    0.3020   11.6450   -1.7110 C   0  0  0  0  0  0  0  0  0  0  0  0
    1.7250   12.0520   -1.3080 C   0  0  1  0  0  0  0  0  0  0  0  0
    2.5870   10.7800   -1.0950 C   0  0  0  0  0  0  0  0  0  0  0  0
    1.9570    9.8060   -0.1030 C   0  0  0  0  0  0  0  0  0  0  0  0
    0.5670    9.3790   -0.5670 C   0  0  2  0  0  0  0  0  0  0  0  0
    0.6980    8.6030   -1.7620 O   0  0  0  0  0  0  0  0  0  0  0  0
   -0.3880   10.5780   -0.8250 C   0  0  0  0  0  0  0  0  0  0  0  0
   -0.7690   11.2390    0.5230 C   0  0  0  0  0  0  0  0  0  0  0  0
   -1.7070   10.0180   -1.4220 C   0  0  0  0  0  0  0  0  0  0  0  0
    2.4330   13.1180   -2.2510 C   0  0  1  0  0  0  0  0  0  0  0  0
    3.1440   12.3930   -3.4350 C   0  0  0  0  0  0  0  0  0  0  0  0
    3.5640   13.8520   -1.4380 C   0  0  0  0  0  0  0  0  0  0  0  0
    3.1450   15.1010   -0.6380 C   0  0  0  0  0  0  0  0  0  0  0  0
    2.3310   16.0620   -1.5090 C   0  0  2  0  0  0  0  0  0  0  0  0
    3.2540   16.5480   -2.6780 C   0  0  0  0  0  0  0  0  0  0  0  0
    3.0125   18.3352    1.6330 H   0  0  0  0  0  0  0  0  0  0  0  0
    3.8221   17.0408    0.6865 H   0  0  0  0  0  0  0  0  0  0  0  0
    4.4932   18.7070    0.6865 H   0  0  0  0  0  0  0  0  0  0  0  0
    3.3815   18.6121   -1.3578 H   0  0  0  0  0  0  0  0  0  0  0  0
    2.6282   20.5703   -0.0632 H   0  0  0  0  0  0  0  0  0  0  0  0
    1.3626   19.9580   -1.2319 H   0  0  0  0  0  0  0  0  0  0  0  0
    0.7810   18.6442    1.1502 H   0  0  0  0  0  0  0  0  0  0  0  0
    1.2263   20.3277    1.6545 H   0  0  0  0  0  0  0  0  0  0  0  0
    0.0077   20.8798   -0.3362 H   0  0  0  0  0  0  0  0  0  0  0  0
   -1.6402   17.7496    1.7425 H   0  0  0  0  0  0  0  0  0  0  0  0
   -2.5251   17.3489    0.2315 H   0  0  0  0  0  0  0  0  0  0  0  0
   -0.7299   17.4107    0.2315 H   0  0  0  0  0  0  0  0  0  0  0  0
   -3.6678   20.0702    0.0143 H   0  0  0  0  0  0  0  0  0  0  0  0
   -2.4803   20.5762   -1.2349 H   0  0  0  0  0  0  0  0  0  0  0  0
   -3.1244   18.8994   -1.2349 H   0  0  0  0  0  0  0  0  0  0  0  0
    1.4364   17.0584    0.2194 H   0  0  0  0  0  0  0  0  0  0  0  0
   -0.2965   18.0132   -1.1656 H   0  0  0  0  0  0  0  0  0  0  0  0
    0.8775   18.6020   -2.3625 H   0  0  0  0  0  0  0  0  0  0  0  0
   -0.8080   16.3156   -2.6743 H   0  0  0  0  0  0  0  0  0  0  0  0
    0.5923   16.6559   -3.6875 H   0  0  0  0  0  0  0  0  0  0  0  0
    0.5593   15.1102    0.1607 H   0  0  0  0  0  0  0  0  0  0  0  0
   -0.8762   15.4182   -0.8742 H   0  0  0  0  0  0  0  0  0  0  0  0
   -0.1000   13.7983   -0.8742 H   0  0  0  0  0  0  0  0  0  0  0  0
    1.9225   14.6300   -3.7251 H   0  0  0  0  0  0  0  0  0  0  0  0
   -0.6026   14.1167   -3.6731 H   0  0  0  0  0  0  0  0  0  0  0  0
    0.5883   12.9624   -4.4726 H   0  0  0  0  0  0  0  0  0  0  0  0
   -1.3136   11.8558   -3.0237 H   0  0  0  0  0  0  0  0  0  0  0  0
    1.6281   12.5997   -0.3590 H   0  0  0  0  0  0  0  0  0  0  0  0
    2.7077   10.2698   -2.0620 H   0  0  0  0  0  0  0  0  0  0  0  0
    3.5555   11.0981   -0.6817 H   0  0  0  0  0  0  0  0  0  0  0  0
    2.5971    8.9156   -0.0165 H   0  0  0  0  0  0  0  0  0  0  0  0
    1.8635   10.3080    0.8713 H   0  0  0  0  0  0  0  0  0  0  0  0
    0.1161    8.7875    0.2435 H   0  0  0  0  0  0  0  0  0  0  0  0
    0.9830    7.7110   -1.5030 H   0  0  0  0  0  0  0  0  0  0  0  0
   -0.4085   10.6135    1.3529 H   0  0  0  0  0  0  0  0  0  0  0  0
   -0.3064   12.2350    0.5867 H   0  0  0  0  0  0  0  0  0  0  0  0
   -1.8627   11.3379    0.5867 H   0  0  0  0  0  0  0  0  0  0  0  0
   -2.3857    9.7299   -0.6057 H   0  0  0  0  0  0  0  0  0  0  0  0
   -2.1860   10.7904   -2.0417 H   0  0  0  0  0  0  0  0  0  0  0  0
   -1.4840    9.1369   -2.0417 H   0  0  0  0  0  0  0  0  0  0  0  0
    3.8623   11.6605   -3.0382 H   0  0  0  0  0  0  0  0  0  0  0  0
    2.3943   11.8747   -4.0509 H   0  0  0  0  0  0  0  0  0  0  0  0
    3.6768   13.1325   -4.0509 H   0  0  0  0  0  0  0  0  0  0  0  0
    3.9863   13.1272   -0.7265 H   0  0  0  0  0  0  0  0  0  0  0  0
    4.2715   14.2193   -2.1960 H   0  0  0  0  0  0  0  0  0  0  0  0
    2.5339   14.7893    0.2219 H   0  0  0  0  0  0  0  0  0  0  0  0
    4.0529   15.6201   -0.2971 H   0  0  0  0  0  0  0  0  0  0  0  0
    4.1547   17.0223   -2.2611 H   0  0  0  0  0  0  0  0  0  0  0  0
    3.5461   15.6868   -3.2968 H   0  0  0  0  0  0  0  0  0  0  0  0
    2.7092   17.2762   -3.2968 H   0  0  0  0  0  0  0  0  0  0  0  0
  1  2  1  0
  2  3  1  0
  3  4  1  0
  4  5  1  0
  5  6  1  0
  6  7  1  0
  7  8  1  0
  7  9  1  0
  2 10  1  0
 10 11  1  0
 11 12  1  0
 12 13  1  0
 13 14  1  1
 13 15  1  0
 15 16  1  0
 16 17  1  0
 17 18  2  0
 18 19  1  0
 19 20  1  0
 20 21  1  0
 21 22  1  0
 22 23  1  0
 22 24  1  0
 24 25  1  0
 24 26  1  0
 19 27  1  0
 27 28  1  6
 27 29  1  0
 29 30  1  0
 30 31  1  0
 31 32  1  6
  7  5  1  0
 31 10  1  0
 31 13  1  0
 27 15  1  0
 24 18  1  0
  1 33  1  0
  1 34  1  0
  1 35  1  0
  2 36  1  6
  3 37  1  0
  3 38  1  0
  4 39  1  0
  4 40  1  0
  5 41  1  6
  8 42  1  0
  8 43  1  0
  8 44  1  0
  9 45  1  0
  9 46  1  0
  9 47  1  0
 10 48  1  1
 11 49  1  0
 11 50  1  0
 12 51  1  0
 12 52  1  0
 14 53  1  0
 14 54  1  0
 14 55  1  0
 15 56  1  6
 16 57  1  0
 16 58  1  0
 17 59  1  0
 19 60  1  1
 20 61  1  0
 20 62  1  0
 21 63  1  0
 21 64  1  0
 22 65  1  1
 23 66  1  0
 25 67  1  0
 25 68  1  0
 25 69  1  0
 26 70  1  0
 26 71  1  0
 26 72  1  0
 28 73  1  0
 28 74  1  0
 28 75  1  0
 29 76  1  0
 29 77  1  0
 30 78  1  0
 30 79  1  0
 32 80  1  0
 32 81  1  0
 32 82  1  0
M  END
>  <meeko>  (1) 
{"is_sidechain": [false], "intermolecular_energy": 2.731, "internal_energy": -0.839}

$$$$
EPH_relaxed_0001_pdb2pqr_Repair_164_r2_0001_out
     RDKit          3D

 82 86  0  0  0  0  0  0  0  0999 V2000
    2.3310   20.1320   -0.8420 C   0  0  0  0  0  0  0  0  0  0  0  0
    2.0920   19.1960    0.3450 C   0  0  2  0  0  0  0  0  0  0  0  0
    3.4100   18.7640    1.0190 C   0  0  0  0  0  0  0  0  0  0  0  0
    3.6660   19.4480    2.3650 C   0  0  0  0  0  0  0  0  0  0  0  0
    5.1280   19.6680    2.6060 C   0  0  2  0  0  0  0  0  0  0  0  0
    5.8630   18.4850    2.9470 O   0  0  0  0  0  0  0  0  0  0  0  0
    5.7870   19.4990    3.9630 C   0  0  0  0  0  0  0  0  0  0  0  0
    4.9980   19.0940    5.1680 C   0  0  0  0  0  0  0  0  0  0  0  0
    7.0880   20.1940    4.2180 C   0  0  0  0  0  0  0  0  0  0  0  0
    1.3140   17.9670   -0.1110 C   0  0  1  0  0  0  0  0  0  0  0  0
    0.1570   18.3190   -1.0840 C   0  0  0  0  0  0  0  0  0  0  0  0
    0.0540   17.1510   -2.0980 C   0  0  0  0  0  0  0  0  0  0  0  0
    0.9180   16.0250   -1.4840 C   0  0  1  0  0  0  0  0  0  0  0  0
   -0.0020   15.3480   -0.4190 C   0  0  0  0  0  0  0  0  0  0  0  0
    1.5040   14.9790   -2.4870 C   0  0  2  0  0  0  0  0  0  0  0  0
    0.4580   14.1530   -3.2550 C   0  0  0  0  0  0  0  0  0  0  0  0
    0.0470   12.8760   -2.6000 C   0  0  0  0  0  0  0  0  0  0  0  0
    0.7000   12.2690   -1.5910 C   0  0  0  0  0  0  0  0  0  0  0  0
    2.0340   12.8210   -1.0720 C   0  0  1  0  0  0  0  0  0  0  0  0
    3.0510   11.6590   -0.9200 C   0  0  0  0  0  0  0  0  0  0  0  0
    2.5140   10.5210   -0.0570 C   0  0  0  0  0  0  0  0  0  0  0  0
    1.2180    9.9610   -0.6370 C   0  0  2  0  0  0  0  0  0  0  0  0
    1.5090    9.3250   -1.8850 O   0  0  0  0  0  0  0  0  0  0  0  0
    0.1220   11.0430   -0.8440 C   0  0  0  0  0  0  0  0  0  0  0  0
   -0.4090   11.5170    0.5310 C   0  0  0  0  0  0  0  0  0  0  0  0
   -1.0800   10.3730   -1.5650 C   0  0  0  0  0  0  0  0  0  0  0  0
    2.6340   14.0550   -1.8750 C   0  0  1  0  0  0  0  0  0  0  0  0
    3.4910   13.5450   -3.0730 C   0  0  0  0  0  0  0  0  0  0  0  0
    3.6140   14.8520   -0.9350 C   0  0  0  0  0  0  0  0  0  0  0  0
    2.9920   15.9530   -0.0550 C   0  0  0  0  0  0  0  0  0  0  0  0
    2.0960   16.8770   -0.8850 C   0  0  2  0  0  0  0  0  0  0  0  0
    2.9980   17.5880   -1.9510 C   0  0  0  0  0  0  0  0  0  0  0  0
    2.5873   21.1356   -0.4718 H   0  0  0  0  0  0  0  0  0  0  0  0
    3.1590   19.7444   -1.4537 H   0  0  0  0  0  0  0  0  0  0  0  0
    1.4185   20.1888   -1.4537 H   0  0  0  0  0  0  0  0  0  0  0  0
    1.5060   19.7519    1.0917 H   0  0  0  0  0  0  0  0  0  0  0  0
    3.3762   17.6768    1.1828 H   0  0  0  0  0  0  0  0  0  0  0  0
    4.2278   19.0618    0.3463 H   0  0  0  0  0  0  0  0  0  0  0  0
    3.1530   20.4210    2.3736 H   0  0  0  0  0  0  0  0  0  0  0  0
    3.2823   18.7928    3.1609 H   0  0  0  0  0  0  0  0  0  0  0  0
    5.1501   20.4870    1.8720 H   0  0  0  0  0  0  0  0  0  0  0  0
    5.5477   19.3762    6.0780 H   0  0  0  0  0  0  0  0  0  0  0  0
    4.0230   19.6031    5.1559 H   0  0  0  0  0  0  0  0  0  0  0  0
    4.8433   18.0050    5.1559 H   0  0  0  0  0  0  0  0  0  0  0  0
    7.2508   20.2810    5.3024 H   0  0  0  0  0  0  0  0  0  0  0  0
    7.9078   19.6137    3.7695 H   0  0  0  0  0  0  0  0  0  0  0  0
    7.0614   21.1981    3.7695 H   0  0  0  0  0  0  0  0  0  0  0  0
    0.9950   17.5778    0.8671 H   0  0  0  0  0  0  0  0  0  0  0  0
   -0.7868   18.4226   -0.5285 H   0  0  0  0  0  0  0  0  0  0  0  0
    0.3496   19.2723   -1.5980 H   0  0  0  0  0  0  0  0  0  0  0  0
   -0.9902   16.8232   -2.2082 H   0  0  0  0  0  0  0  0  0  0  0  0
    0.3965   17.4391   -3.1028 H   0  0  0  0  0  0  0  0  0  0  0  0
    0.3516   15.6082    0.5896 H   0  0  0  0  0  0  0  0  0  0  0  0
   -1.0351   15.7029   -0.5482 H   0  0  0  0  0  0  0  0  0  0  0  0
    0.0295   14.2561   -0.5482 H   0  0  0  0  0  0  0  0  0  0  0  0
    1.9881   15.6203   -3.2382 H   0  0  0  0  0  0  0  0  0  0  0  0
   -0.4405   14.7749   -3.3807 H   0  0  0  0  0  0  0  0  0  0  0  0
    0.9334   13.8681   -4.2052 H   0  0  0  0  0  0  0  0  0  0  0  0
   -0.8665   12.3899   -2.9732 H   0  0  0  0  0  0  0  0  0  0  0  0
    1.8182   13.2604   -0.0869 H   0  0  0  0  0  0  0  0  0  0  0  0
    3.2862   11.2633   -1.9190 H   0  0  0  0  0  0  0  0  0  0  0  0
    3.9461   12.0614   -0.4230 H   0  0  0  0  0  0  0  0  0  0  0  0
    3.2647    9.7182   -0.0121 H   0  0  0  0  0  0  0  0  0  0  0  0
    2.3077   10.9117    0.9504 H   0  0  0  0  0  0  0  0  0  0  0  0
    0.8142    9.2415    0.0905 H   0  0  0  0  0  0  0  0  0  0  0  0
    0.7980    9.5570   -2.5060 H   0  0  0  0  0  0  0  0  0  0  0  0
    0.1523   11.0159    1.3334 H   0  0  0  0  0  0  0  0  0  0  0  0
   -0.2802   12.6059    0.6182 H   0  0  0  0  0  0  0  0  0  0  0  0
   -1.4764   11.2659    0.6182 H   0  0  0  0  0  0  0  0  0  0  0  0
   -1.7841    9.9805   -0.8165 H   0  0  0  0  0  0  0  0  0  0  0  0
   -1.5908   11.1165   -2.1945 H   0  0  0  0  0  0  0  0  0  0  0  0
   -0.7162    9.5475   -2.1945 H   0  0  0  0  0  0  0  0  0  0  0  0
    4.3775   13.0174   -2.6913 H   0  0  0  0  0  0  0  0  0  0  0  0
    2.8908   12.8570   -3.6866 H   0  0  0  0  0  0  0  0  0  0  0  0
    3.8094   14.4007   -3.6866 H   0  0  0  0  0  0  0  0  0  0  0  0
    4.0978   14.1251   -0.2659 H   0  0  0  0  0  0  0  0  0  0  0  0
    4.2986   15.3801   -1.6150 H   0  0  0  0  0  0  0  0  0  0  0  0
    2.3896   15.4835    0.7367 H   0  0  0  0  0  0  0  0  0  0  0  0
    3.8037   16.5523    0.3832 H   0  0  0  0  0  0  0  0  0  0  0  0
    3.7631   18.1911   -1.4403 H   0  0  0  0  0  0  0  0  0  0  0  0
    3.4880   16.8306   -2.5805 H   0  0  0  0  0  0  0  0  0  0  0  0
    2.3760   18.2414   -2.5805 H   0  0  0  0  0  0  0  0  0  0  0  0
  1  2  1  0
  2  3  1  0
  3  4  1  0
  4  5  1  0
  5  6  1  0
  6  7  1  0
  7  8  1  0
  7  9  1  0
  2 10  1  0
 10 11  1  0
 11 12  1  0
 12 13  1  0
 13 14  1  1
 13 15  1  0
 15 16  1  0
 16 17  1  0
 17 18  2  0
 18 19  1  0
 19 20  1  0
 20 21  1  0
 21 22  1  0
 22 23  1  0
 22 24  1  0
 24 25  1  0
 24 26  1  0
 19 27  1  0
 27 28  1  6
 27 29  1  0
 29 30  1  0
 30 31  1  0
 31 32  1  6
  7  5  1  0
 31 10  1  0
 31 13  1  0
 27 15  1  0
 24 18  1  0
  1 33  1  0
  1 34  1  0
  1 35  1  0
  2 36  1  1
  3 37  1  0
  3 38  1  0
  4 39  1  0
  4 40  1  0
  5 41  1  6
  8 42  1  0
  8 43  1  0
  8 44  1  0
  9 45  1  0
  9 46  1  0
  9 47  1  0
 10 48  1  1
 11 49  1  0
 11 50  1  0
 12 51  1  0
 12 52  1  0
 14 53  1  0
 14 54  1  0
 14 55  1  0
 15 56  1  6
 16 57  1  0
 16 58  1  0
 17 59  1  0
 19 60  1  1
 20 61  1  0
 20 62  1  0
 21 63  1  0
 21 64  1  0
 22 65  1  1
 23 66  1  0
 25 67  1  0
 25 68  1  0
 25 69  1  0
 26 70  1  0
 26 71  1  0
 26 72  1  0
 28 73  1  0
 28 74  1  0
 28 75  1  0
 29 76  1  0
 29 77  1  0
 30 78  1  0
 30 79  1  0
 32 80  1  0
 32 81  1  0
 32 82  1  0
M  END
>  <meeko>  (2) 
{"is_sidechain": [false], "intermolecular_energy": 2.731, "internal_energy": -0.839}

$$$$
EPH_relaxed_0001_pdb2pqr_Repair_164_r2_0001_out
     RDKit          3D

 82 86  0  0  0  0  0  0  0  0999 V2000
    2.8590   17.1960    0.3310 C   0  0  0  0  0  0  0  0  0  0  0  0
    2.4350   17.3460   -1.1330 C   0  0  2  0  0  0  0  0  0  0  0  0
    1.7340   18.6930   -1.3990 C   0  0  0  0  0  0  0  0  0  0  0  0
    1.3720   19.4610   -0.1250 C   0  0  0  0  0  0  0  0  0  0  0  0
    0.0110   20.0800   -0.2190 C   0  0  2  0  0  0  0  0  0  0  0  0
   -0.6820   20.1940    1.0310 O   0  0  0  0  0  0  0  0  0  0  0  0
   -1.2740   19.3210    0.0550 C   0  0  0  0  0  0  0  0  0  0  0  0
   -1.2590   17.8760    0.4430 C   0  0  0  0  0  0  0  0  0  0  0  0
   -2.5510   19.8430   -0.5250 C   0  0  0  0  0  0  0  0  0  0  0  0
    1.5190   16.1940   -1.5280 C   0  0  1  0  0  0  0  0  0  0  0  0
    0.7730   16.4560   -2.8640 C   0  0  0  0  0  0  0  0  0  0  0  0
    0.6450   15.0870   -3.5800 C   0  0  0  0  0  0  0  0  0  0  0  0
    1.0160   14.0450   -2.5000 C   0  0  1  0  0  0  0  0  0  0  0  0
   -0.2820   13.8650   -1.6520 C   0  0  0  0  0  0  0  0  0  0  0  0
    1.5610   12.6740   -3.0190 C   0  0  2  0  0  0  0  0  0  0  0  0
    0.5730   11.8620   -3.8750 C   0  0  0  0  0  0  0  0  0  0  0  0
   -0.2940   10.9110   -3.1180 C   0  0  0  0  0  0  0  0  0  0  0  0
   -0.0920   10.5080   -1.8500 C   0  0  0  0  0  0  0  0  0  0  0  0
    1.1600   10.9410   -1.0760 C   0  0  1  0  0  0  0  0  0  0  0  0
    1.7830    9.7100   -0.3670 C   0  0  0  0  0  0  0  0  0  0  0  0
    0.7790    8.9710    0.5130 C   0  0  0  0  0  0  0  0  0  0  0  0
   -0.4240    8.5060   -0.3040 C   0  0  2  0  0  0  0  0  0  0  0  0
    0.0090    7.5050   -1.2310 O   0  0  0  0  0  0  0  0  0  0  0  0
   -1.1270    9.6600   -1.0710 C   0  0  0  0  0  0  0  0  0  0  0  0
   -1.8550   10.5850   -0.0650 C   0  0  0  0  0  0  0  0  0  0  0  0
   -2.2330    9.0350   -1.9650 C   0  0  0  0  0  0  0  0  0  0  0  0
    2.2310   11.7770   -1.9010 C   0  0  1  0  0  0  0  0  0  0  0  0
    3.2100   10.8100   -2.6340 C   0  0  0  0  0  0  0  0  0  0  0  0
    3.1060   12.6210   -0.9010 C   0  0  0  0  0  0  0  0  0  0  0  0
    2.5740   14.0150   -0.5190 C   0  0  0  0  0  0  0  0  0  0  0  0
    2.1760   14.8110   -1.7660 C   0  0  2  0  0  0  0  0  0  0  0  0
    3.4670   15.0270   -2.6270 C   0  0  0  0  0  0  0  0  0  0  0  0
    2.0259   17.4907    0.9861 H   0  0  0  0  0  0  0  0  0  0  0  0
    3.1283   16.1480    0.5292 H   0  0  0  0  0  0  0  0  0  0  0  0
    3.7274   17.8415    0.5292 H   0  0  0  0  0  0  0  0  0  0  0  0
    3.3474   17.3228   -1.7470 H   0  0  0  0  0  0  0  0  0  0  0  0
    2.4054   19.3204   -2.0037 H   0  0  0  0  0  0  0  0  0  0  0  0
    0.7903   18.4673   -1.9172 H   0  0  0  0  0  0  0  0  0  0  0  0
    1.3894   18.7659    0.7274 H   0  0  0  0  0  0  0  0  0  0  0  0
    2.1072   20.2681    0.0095 H   0  0  0  0  0  0  0  0  0  0  0  0
    0.3298   20.7105   -1.0621 H   0  0  0  0  0  0  0  0  0  0  0  0
   -1.2581   17.7908    1.5397 H   0  0  0  0  0  0  0  0  0  0  0  0
   -2.1520   17.3781    0.0373 H   0  0  0  0  0  0  0  0  0  0  0  0
   -0.3558   17.3968    0.0373 H   0  0  0  0  0  0  0  0  0  0  0  0
   -3.2359   20.1230    0.2889 H   0  0  0  0  0  0  0  0  0  0  0  0
   -2.3380   20.7262   -1.1451 H   0  0  0  0  0  0  0  0  0  0  0  0
   -3.0177   19.0635   -1.1451 H   0  0  0  0  0  0  0  0  0  0  0  0
    0.8759   16.1560   -0.6364 H   0  0  0  0  0  0  0  0  0  0  0  0
   -0.2247   16.8743   -2.6651 H   0  0  0  0  0  0  0  0  0  0  0  0
    1.3205   17.1783   -3.4873 H   0  0  0  0  0  0  0  0  0  0  0  0
   -0.3843   14.9290   -3.9345 H   0  0  0  0  0  0  0  0  0  0  0  0
    1.2931   15.0178   -4.4661 H   0  0  0  0  0  0  0  0  0  0  0  0
   -0.0288   13.9001   -0.5821 H   0  0  0  0  0  0  0  0  0  0  0  0
   -0.9893   14.6736   -1.8881 H   0  0  0  0  0  0  0  0  0  0  0  0
   -0.7426   12.8944   -1.8881 H   0  0  0  0  0  0  0  0  0  0  0  0
    2.3652   12.9831   -3.7029 H   0  0  0  0  0  0  0  0  0  0  0  0
   -0.0810   12.5709   -4.4039 H   0  0  0  0  0  0  0  0  0  0  0  0
    1.1878   11.2449   -4.5466 H   0  0  0  0  0  0  0  0  0  0  0  0
   -1.1725   10.5053   -3.6411 H   0  0  0  0  0  0  0  0  0  0  0  0
    0.8166   11.6689   -0.3262 H   0  0  0  0  0  0  0  0  0  0  0  0
    2.1593    9.0153   -1.1324 H   0  0  0  0  0  0  0  0  0  0  0  0
    2.5925   10.0735    0.2831 H   0  0  0  0  0  0  0  0  0  0  0  0
    1.2699    8.0948    0.9616 H   0  0  0  0  0  0  0  0  0  0  0  0
    0.4269    9.6578    1.2968 H   0  0  0  0  0  0  0  0  0  0  0  0
   -1.1656    8.1015    0.4006 H   0  0  0  0  0  0  0  0  0  0  0  0
   -0.4970    6.6950   -1.0470 H   0  0  0  0  0  0  0  0  0  0  0  0
   -1.6107   10.2746    0.9616 H   0  0  0  0  0  0  0  0  0  0  0  0
   -1.5300   11.6242   -0.2210 H   0  0  0  0  0  0  0  0  0  0  0  0
   -2.9415   10.5133   -0.2210 H   0  0  0  0  0  0  0  0  0  0  0  0
   -3.0137    8.5938   -1.3279 H   0  0  0  0  0  0  0  0  0  0  0  0
   -2.6761    9.8162   -2.6001 H   0  0  0  0  0  0  0  0  0  0  0  0
   -1.7924    8.2524   -2.6001 H   0  0  0  0  0  0  0  0  0  0  0  0
    3.7871   10.2399   -1.8911 H   0  0  0  0  0  0  0  0  0  0  0  0
    2.6356   10.1149   -3.2640 H   0  0  0  0  0  0  0  0  0  0  0  0
    3.8980   11.3929   -3.2640 H   0  0  0  0  0  0  0  0  0  0  0  0
    3.2074   12.0379    0.0262 H   0  0  0  0  0  0  0  0  0  0  0  0
    4.0503   12.8091   -1.4329 H   0  0  0  0  0  0  0  0  0  0  0  0
    1.6934   13.8986    0.1298 H   0  0  0  0  0  0  0  0  0  0  0  0
    3.3703   14.5622    0.0069 H   0  0  0  0  0  0  0  0  0  0  0  0
    4.3313   15.1716   -1.9621 H   0  0  0  0  0  0  0  0  0  0  0  0
    3.6363   14.1447   -3.2617 H   0  0  0  0  0  0  0  0  0  0  0  0
    3.3399   15.9164   -3.2617 H   0  0  0  0  0  0  0  0  0  0  0  0
  1  2  1  0
  2  3  1  0
  3  4  1  0
  4  5  1  0
  5  6  1  0
  6  7  1  0
  7  8  1  0
  7  9  1  0
  2 10  1  0
 10 11  1  0
 11 12  1  0
 12 13  1  0
 13 14  1  1
 13 15  1  0
 15 16  1  0
 16 17  1  0
 17 18  2  0
 18 19  1  0
 19 20  1  0
 20 21  1  0
 21 22  1  0
 22 23  1  0
 22 24  1  0
 24 25  1  0
 24 26  1  0
 19 27  1  0
 27 28  1  6
 27 29  1  0
 29 30  1  0
 30 31  1  0
 31 32  1  6
  7  5  1  0
 31 10  1  0
 31 13  1  0
 27 15  1  0
 24 18  1  0
  1 33  1  0
  1 34  1  0
  1 35  1  0
  2 36  1  6
  3 37  1  0
  3 38  1  0
  4 39  1  0
  4 40  1  0
  5 41  1  6
  8 42  1  0
  8 43  1  0
  8 44  1  0
  9 45  1  0
  9 46  1  0
  9 47  1  0
 10 48  1  1
 11 49  1  0
 11 50  1  0
 12 51  1  0
 12 52  1  0
 14 53  1  0
 14 54  1  0
 14 55  1  0
 15 56  1  6
 16 57  1  0
 16 58  1  0
 17 59  1  0
 19 60  1  1
 20 61  1  0
 20 62  1  0
 21 63  1  0
 21 64  1  0
 22 65  1  1
 23 66  1  0
 25 67  1  0
 25 68  1  0
 25 69  1  0
 26 70  1  0
 26 71  1  0
 26 72  1  0
 28 73  1  0
 28 74  1  0
 28 75  1  0
 29 76  1  0
 29 77  1  0
 30 78  1  0
 30 79  1  0
 32 80  1  0
 32 81  1  0
 32 82  1  0
M  END
>  <meeko>  (3) 
{"is_sidechain": [false], "intermolecular_energy": 2.731, "internal_energy": -0.839}

$$$$
EPH_relaxed_0001_pdb2pqr_Repair_164_r2_0001_out
     RDKit          3D

 82 86  0  0  0  0  0  0  0  0999 V2000
   -1.5910    8.7260   -1.9250 C   0  0  0  0  0  0  0  0  0  0  0  0
   -2.0010    9.1900   -0.5240 C   0  0  2  0  0  0  0  0  0  0  0  0
   -3.5080    9.5040   -0.4350 C   0  0  0  0  0  0  0  0  0  0  0  0
   -4.3910    8.2580   -0.3280 C   0  0  0  0  0  0  0  0  0  0  0  0
   -5.1010    7.9700   -1.6160 C   0  0  2  0  0  0  0  0  0  0  0  0
   -6.3190    8.7020   -1.8060 O   0  0  0  0  0  0  0  0  0  0  0  0
   -6.4480    7.2750   -1.6920 C   0  0  0  0  0  0  0  0  0  0  0  0
   -7.1640    6.8250   -0.4580 C   0  0  0  0  0  0  0  0  0  0  0  0
   -6.8340    6.6020   -2.9720 C   0  0  0  0  0  0  0  0  0  0  0  0
   -1.1890   10.4160   -0.1240 C   0  0  1  0  0  0  0  0  0  0  0  0
   -0.2080   10.1280    1.0430 C   0  0  0  0  0  0  0  0  0  0  0  0
    1.0570   10.9870    0.7870 C   0  0  0  0  0  0  0  0  0  0  0  0
    0.6370   11.9800   -0.3220 C   0  0  1  0  0  0  0  0  0  0  0  0
   -0.1350   13.1120    0.4250 C   0  0  0  0  0  0  0  0  0  0  0  0
    1.7890   12.5540   -1.2090 C   0  0  2  0  0  0  0  0  0  0  0  0
    2.8370   13.3910   -0.4550 C   0  0  0  0  0  0  0  0  0  0  0  0
    2.5480   14.8540   -0.3770 C   0  0  0  0  0  0  0  0  0  0  0  0
    1.6460   15.5140   -1.1260 C   0  0  0  0  0  0  0  0  0  0  0  0
    0.8720   14.7980   -2.2400 C   0  0  1  0  0  0  0  0  0  0  0  0
    0.8900   15.6680   -3.5250 C   0  0  0  0  0  0  0  0  0  0  0  0
    0.3800   17.0850   -3.2780 C   0  0  0  0  0  0  0  0  0  0  0  0
    1.2110   17.7840   -2.2060 C   0  0  2  0  0  0  0  0  0  0  0  0
    2.5350   17.9870   -2.7080 O   0  0  0  0  0  0  0  0  0  0  0  0
    1.2750   16.9950   -0.8680 C   0  0  0  0  0  0  0  0  0  0  0  0
   -0.1090   17.0360   -0.1740 C   0  0  0  0  0  0  0  0  0  0  0  0
    2.2560   17.7380    0.0780 C   0  0  0  0  0  0  0  0  0  0  0  0
    1.2940   13.2910   -2.5190 C   0  0  1  0  0  0  0  0  0  0  0  0
    2.4800   13.2480   -3.5300 C   0  0  0  0  0  0  0  0  0  0  0  0
    0.0940   12.5410   -3.2090 C   0  0  0  0  0  0  0  0  0  0  0  0
   -0.9480   11.8920   -2.2790 C   0  0  0  0  0  0  0  0  0  0  0  0
   -0.2680   11.0420   -1.2020 C   0  0  2  0  0  0  0  0  0  0  0  0
    0.4980    9.8800   -1.9220 C   0  0  0  0  0  0  0  0  0  0  0  0
   -0.8647    7.9041   -1.8411 H   0  0  0  0  0  0  0  0  0  0  0  0
   -2.4799    8.3756   -2.4700 H   0  0  0  0  0  0  0  0  0  0  0  0
   -1.1339    9.5651   -2.4700 H   0  0  0  0  0  0  0  0  0  0  0  0
   -1.7939    8.3640    0.1723 H   0  0  0  0  0  0  0  0  0  0  0  0
   -3.6806   10.1293    0.4534 H   0  0  0  0  0  0  0  0  0  0  0  0
   -3.7855   10.0154   -1.3685 H   0  0  0  0  0  0  0  0  0  0  0  0
   -3.7602    7.3952   -0.0679 H   0  0  0  0  0  0  0  0  0  0  0  0
   -5.1488    8.4402    0.4482 H   0  0  0  0  0  0  0  0  0  0  0  0
   -4.1452    7.7848   -2.1280 H   0  0  0  0  0  0  0  0  0  0  0  0
   -6.6152    7.1699    0.4307 H   0  0  0  0  0  0  0  0  0  0  0  0
   -8.1796    7.2475   -0.4487 H   0  0  0  0  0  0  0  0  0  0  0  0
   -7.2237    5.7267   -0.4487 H   0  0  0  0  0  0  0  0  0  0  0  0
   -7.3698    5.6678   -2.7480 H   0  0  0  0  0  0  0  0  0  0  0  0
   -7.4870    7.2687   -3.5543 H   0  0  0  0  0  0  0  0  0  0  0  0
   -5.9288    6.3749   -3.5543 H   0  0  0  0  0  0  0  0  0  0  0  0
   -2.0084   11.1084    0.1191 H   0  0  0  0  0  0  0  0  0  0  0  0
   -0.6680   10.4078    2.0022 H   0  0  0  0  0  0  0  0  0  0  0  0
    0.0444    9.0584    1.0917 H   0  0  0  0  0  0  0  0  0  0  0  0
    1.3515   11.5260    1.6996 H   0  0  0  0  0  0  0  0  0  0  0  0
    1.9234   10.3762    0.4935 H   0  0  0  0  0  0  0  0  0  0  0  0
   -0.0367   12.9678    1.5111 H   0  0  0  0  0  0  0  0  0  0  0  0
    0.2858   14.0891    0.1452 H   0  0  0  0  0  0  0  0  0  0  0  0
   -1.1983   13.0770    0.1452 H   0  0  0  0  0  0  0  0  0  0  0  0
    2.3119   11.6427   -1.5348 H   0  0  0  0  0  0  0  0  0  0  0  0
    2.9072   13.0031    0.5719 H   0  0  0  0  0  0  0  0  0  0  0  0
    3.7719   13.2953   -1.0266 H   0  0  0  0  0  0  0  0  0  0  0  0
    3.1212   15.4420    0.3549 H   0  0  0  0  0  0  0  0  0  0  0  0
   -0.1600   14.6932   -1.8740 H   0  0  0  0  0  0  0  0  0  0  0  0
    1.9232   15.7249   -3.8982 H   0  0  0  0  0  0  0  0  0  0  0  0
    0.2208   15.1948   -4.2586 H   0  0  0  0  0  0  0  0  0  0  0  0
    0.4438   17.6590   -4.2142 H   0  0  0  0  0  0  0  0  0  0  0  0
   -0.6627   17.0278   -2.9325 H   0  0  0  0  0  0  0  0  0  0  0  0
    0.7198   18.7423   -1.9817 H   0  0  0  0  0  0  0  0  0  0  0  0
    3.0310   18.4870   -2.0380 H   0  0  0  0  0  0  0  0  0  0  0  0
    0.0279   17.0319    0.9174 H   0  0  0  0  0  0  0  0  0  0  0  0
   -0.6423   17.9503   -0.4733 H   0  0  0  0  0  0  0  0  0  0  0  0
   -0.6955   16.1548   -0.4733 H   0  0  0  0  0  0  0  0  0  0  0  0
    1.9839   17.5319    1.1237 H   0  0  0  0  0  0  0  0  0  0  0  0
    3.2819   17.3884   -0.1096 H   0  0  0  0  0  0  0  0  0  0  0  0
    2.1974   18.8203   -0.1096 H   0  0  0  0  0  0  0  0  0  0  0  0
    3.4310   13.2135   -2.9783 H   0  0  0  0  0  0  0  0  0  0  0  0
    2.3903   12.3525   -4.1625 H   0  0  0  0  0  0  0  0  0  0  0  0
    2.4554   14.1476   -4.1625 H   0  0  0  0  0  0  0  0  0  0  0  0
   -0.4335   13.2696   -3.8422 H   0  0  0  0  0  0  0  0  0  0  0  0
    0.5540   11.7034   -3.7538 H   0  0  0  0  0  0  0  0  0  0  0  0
   -1.5388   12.6827   -1.7935 H   0  0  0  0  0  0  0  0  0  0  0  0
   -1.5979   11.2403   -2.8814 H   0  0  0  0  0  0  0  0  0  0  0  0
    0.9395    9.2102   -1.1693 H   0  0  0  0  0  0  0  0  0  0  0  0
   -0.2038    9.3127   -2.5510 H   0  0  0  0  0  0  0  0  0  0  0  0
    1.2960   10.3013   -2.5510 H   0  0  0  0  0  0  0  0  0  0  0  0
  1  2  1  0
  2  3  1  0
  3  4  1  0
  4  5  1  0
  5  6  1  0
  6  7  1  0
  7  8  1  0
  7  9  1  0
  2 10  1  0
 10 11  1  0
 11 12  1  0
 12 13  1  0
 13 14  1  1
 13 15  1  0
 15 16  1  0
 16 17  1  0
 17 18  2  0
 18 19  1  0
 19 20  1  0
 20 21  1  0
 21 22  1  0
 22 23  1  0
 22 24  1  0
 24 25  1  0
 24 26  1  0
 19 27  1  0
 27 28  1  6
 27 29  1  0
 29 30  1  0
 30 31  1  0
 31 32  1  6
  7  5  1  0
 31 10  1  0
 31 13  1  0
 27 15  1  0
 24 18  1  0
  1 33  1  0
  1 34  1  0
  1 35  1  0
  2 36  1  1
  3 37  1  0
  3 38  1  0
  4 39  1  0
  4 40  1  0
  5 41  1  6
  8 42  1  0
  8 43  1  0
  8 44  1  0
  9 45  1  0
  9 46  1  0
  9 47  1  0
 10 48  1  1
 11 49  1  0
 11 50  1  0
 12 51  1  0
 12 52  1  0
 14 53  1  0
 14 54  1  0
 14 55  1  0
 15 56  1  6
 16 57  1  0
 16 58  1  0
 17 59  1  0
 19 60  1  1
 20 61  1  0
 20 62  1  0
 21 63  1  0
 21 64  1  0
 22 65  1  1
 23 66  1  0
 25 67  1  0
 25 68  1  0
 25 69  1  0
 26 70  1  0
 26 71  1  0
 26 72  1  0
 28 73  1  0
 28 74  1  0
 28 75  1  0
 29 76  1  0
 29 77  1  0
 30 78  1  0
 30 79  1  0
 32 80  1  0
 32 81  1  0
 32 82  1  0
M  END
>  <meeko>  (4) 
{"is_sidechain": [false], "intermolecular_energy": 2.731, "internal_energy": -0.839}

$$$$
EPH_relaxed_0001_pdb2pqr_Repair_164_r2_0001_out
     RDKit          3D

 82 86  0  0  0  0  0  0  0  0999 V2000
    2.5860   18.0530   -2.2950 C   0  0  0  0  0  0  0  0  0  0  0  0
    1.3650   17.7210   -1.4340 C   0  0  2  0  0  0  0  0  0  0  0  0
    1.7190   17.6270    0.0640 C   0  0  0  0  0  0  0  0  0  0  0  0
    3.0920   18.2090    0.4090 C   0  0  0  0  0  0  0  0  0  0  0  0
    2.9900   19.3050    1.4270 C   0  0  2  0  0  0  0  0  0  0  0  0
    4.1170   20.1880    1.4710 O   0  0  0  0  0  0  0  0  0  0  0  0
    3.8850   19.3980    2.6490 C   0  0  0  0  0  0  0  0  0  0  0  0
    4.9480   18.3790    2.9170 C   0  0  0  0  0  0  0  0  0  0  0  0
    3.4100   20.1940    3.8240 C   0  0  0  0  0  0  0  0  0  0  0  0
    0.7370   16.4140   -1.9040 C   0  0  1  0  0  0  0  0  0  0  0  0
    0.3340   16.4490   -3.4020 C   0  0  0  0  0  0  0  0  0  0  0  0
    0.5720   15.0230   -3.9630 C   0  0  0  0  0  0  0  0  0  0  0  0
    0.7810   14.1420   -2.7090 C   0  0  1  0  0  0  0  0  0  0  0  0
   -0.6580   13.8340   -2.1900 C   0  0  0  0  0  0  0  0  0  0  0  0
    1.6120   12.8330   -2.9160 C   0  0  2  0  0  0  0  0  0  0  0  0
    0.9910   11.8130   -3.8860 C   0  0  0  0  0  0  0  0  0  0  0  0
    0.0870   10.8050   -3.2580 C   0  0  0  0  0  0  0  0  0  0  0  0
    0.0050   10.5410   -1.9400 C   0  0  0  0  0  0  0  0  0  0  0  0
    0.9480   11.2220   -0.9400 C   0  0  1  0  0  0  0  0  0  0  0  0
    1.5180   10.1620    0.0380 C   0  0  0  0  0  0  0  0  0  0  0  0
    0.4240    9.3530    0.7270 C   0  0  0  0  0  0  0  0  0  0  0  0
   -0.4570    8.6430   -0.2980 C   0  0  2  0  0  0  0  0  0  0  0  0
    0.3250    7.6490   -0.9680 O   0  0  0  0  0  0  0  0  0  0  0  0
   -1.0800    9.6100   -1.3440 C   0  0  0  0  0  0  0  0  0  0  0  0
   -2.1550   10.4910   -0.6620 C   0  0  0  0  0  0  0  0  0  0  0  0
   -1.8280    8.7530   -2.4010 C   0  0  0  0  0  0  0  0  0  0  0  0
    2.0790   12.1430   -1.5710 C   0  0  1  0  0  0  0  0  0  0  0  0
    3.3300   11.2810   -1.9240 C   0  0  0  0  0  0  0  0  0  0  0  0
    2.5510   13.1890   -0.4940 C   0  0  0  0  0  0  0  0  0  0  0  0
    1.7640   14.5120   -0.4190 C   0  0  0  0  0  0  0  0  0  0  0  0
    1.6040   15.1340   -1.8100 C   0  0  2  0  0  0  0  0  0  0  0  0
    3.0360   15.4740   -2.3490 C   0  0  0  0  0  0  0  0  0  0  0  0
    3.4415   18.2856   -1.6439 H   0  0  0  0  0  0  0  0  0  0  0  0
    2.8327   17.1893   -2.9300 H   0  0  0  0  0  0  0  0  0  0  0  0
    2.3614   18.9227   -2.9300 H   0  0  0  0  0  0  0  0  0  0  0  0
    0.6438   18.5432   -1.5518 H   0  0  0  0  0  0  0  0  0  0  0  0
    0.9558   18.1747    0.6363 H   0  0  0  0  0  0  0  0  0  0  0  0
    1.7490   16.5579    0.3210 H   0  0  0  0  0  0  0  0  0  0  0  0
    3.7283   17.4069    0.8113 H   0  0  0  0  0  0  0  0  0  0  0  0
    3.5252   18.6329   -0.5090 H   0  0  0  0  0  0  0  0  0  0  0  0
    1.8972   19.3453    1.3082 H   0  0  0  0  0  0  0  0  0  0  0  0
    5.0744   18.2579    4.0030 H   0  0  0  0  0  0  0  0  0  0  0  0
    4.6539   17.4167    2.4725 H   0  0  0  0  0  0  0  0  0  0  0  0
    5.8970   18.7135    2.4725 H   0  0  0  0  0  0  0  0  0  0  0  0
    3.7109   19.6898    4.7542 H   0  0  0  0  0  0  0  0  0  0  0  0
    3.8563   21.1989    3.7907 H   0  0  0  0  0  0  0  0  0  0  0  0
    2.3137   20.2784    3.7907 H   0  0  0  0  0  0  0  0  0  0  0  0
   -0.1049   16.3507   -1.1989 H   0  0  0  0  0  0  0  0  0  0  0  0
   -0.7264   16.7235   -3.5026 H   0  0  0  0  0  0  0  0  0  0  0  0
    0.9266   17.1941   -3.9530 H   0  0  0  0  0  0  0  0  0  0  0  0
   -0.3014   14.6806   -4.5373 H   0  0  0  0  0  0  0  0  0  0  0  0
    1.4301   14.9822   -4.6500 H   0  0  0  0  0  0  0  0  0  0  0  0
   -0.6588   13.8338   -1.0900 H   0  0  0  0  0  0  0  0  0  0  0  0
   -1.3528   14.6038   -2.5571 H   0  0  0  0  0  0  0  0  0  0  0  0
   -0.9768   12.8473   -2.5571 H   0  0  0  0  0  0  0  0  0  0  0  0
    2.5190   13.2049   -3.4150 H   0  0  0  0  0  0  0  0  0  0  0  0
    0.4109   12.3683   -4.6377 H   0  0  0  0  0  0  0  0  0  0  0  0
    1.8322   11.2451   -4.3102 H   0  0  0  0  0  0  0  0  0  0  0  0
   -0.5677   10.2290   -3.9285 H   0  0  0  0  0  0  0  0  0  0  0  0
    0.3333   11.9471   -0.3864 H   0  0  0  0  0  0  0  0  0  0  0  0
    2.1637    9.4729   -0.5262 H   0  0  0  0  0  0  0  0  0  0  0  0
    2.0798   10.6961    0.8185 H   0  0  0  0  0  0  0  0  0  0  0  0
    0.8899    8.6026    1.3826 H   0  0  0  0  0  0  0  0  0  0  0  0
   -0.2037   10.0397    1.3139 H   0  0  0  0  0  0  0  0  0  0  0  0
   -1.2965    8.1871    0.2474 H   0  0  0  0  0  0  0  0  0  0  0  0
   -0.0770    7.4970   -1.8400 H   0  0  0  0  0  0  0  0  0  0  0  0
   -2.0562   10.4101    0.4306 H   0  0  0  0  0  0  0  0  0  0  0  0
   -2.0170   11.5391   -0.9660 H   0  0  0  0  0  0  0  0  0  0  0  0
   -3.1556   10.1498   -0.9660 H   0  0  0  0  0  0  0  0  0  0  0  0
   -2.4688    8.0188   -1.8909 H   0  0  0  0  0  0  0  0  0  0  0  0
   -2.4492    9.4072   -3.0305 H   0  0  0  0  0  0  0  0  0  0  0  0
   -1.0959    8.2260   -3.0305 H   0  0  0  0  0  0  0  0  0  0  0  0
    3.8174   10.9452   -0.9968 H   0  0  0  0  0  0  0  0  0  0  0  0
    3.0179   10.4054   -2.5121 H   0  0  0  0  0  0  0  0  0  0  0  0
    4.0371   11.8845   -2.5121 H   0  0  0  0  0  0  0  0  0  0  0  0
    2.4836   12.7053    0.4917 H   0  0  0  0  0  0  0  0  0  0  0  0
    3.5685   13.4760   -0.7979 H   0  0  0  0  0  0  0  0  0  0  0  0
    0.7678   14.3147    0.0038 H   0  0  0  0  0  0  0  0  0  0  0  0
    2.3201   15.2155    0.2181 H   0  0  0  0  0  0  0  0  0  0  0  0
    3.7180   15.6359   -1.5012 H   0  0  0  0  0  0  0  0  0  0  0  0
    3.4050   14.6385   -2.9620 H   0  0  0  0  0  0  0  0  0  0  0  0
    2.9900   16.3862   -2.9620 H   0  0  0  0  0  0  0  0  0  0  0  0
  1  2  1  0
  2  3  1  0
  3  4  1  0
  4  5  1  0
  5  6  1  0
  6  7  1  0
  7  8  1  0
  7  9  1  0
  2 10  1  0
 10 11  1  0
 11 12  1  0
 12 13  1  0
 13 14  1  1
 13 15  1  0
 15 16  1  0
 16 17  1  0
 17 18  2  0
 18 19  1  0
 19 20  1  0
 20 21  1  0
 21 22  1  0
 22 23  1  0
 22 24  1  0
 24 25  1  0
 24 26  1  0
 19 27  1  0
 27 28  1  6
 27 29  1  0
 29 30  1  0
 30 31  1  0
 31 32  1  6
  7  5  1  0
 31 10  1  0
 31 13  1  0
 27 15  1  0
 24 18  1  0
  1 33  1  0
  1 34  1  0
  1 35  1  0
  2 36  1  1
  3 37  1  0
  3 38  1  0
  4 39  1  0
  4 40  1  0
  5 41  1  1
  8 42  1  0
  8 43  1  0
  8 44  1  0
  9 45  1  0
  9 46  1  0
  9 47  1  0
 10 48  1  1
 11 49  1  0
 11 50  1  0
 12 51  1  0
 12 52  1  0
 14 53  1  0
 14 54  1  0
 14 55  1  0
 15 56  1  6
 16 57  1  0
 16 58  1  0
 17 59  1  0
 19 60  1  1
 20 61  1  0
 20 62  1  0
 21 63  1  0
 21 64  1  0
 22 65  1  1
 23 66  1  0
 25 67  1  0
 25 68  1  0
 25 69  1  0
 26 70  1  0
 26 71  1  0
 26 72  1  0
 28 73  1  0
 28 74  1  0
 28 75  1  0
 29 76  1  0
 29 77  1  0
 30 78  1  0
 30 79  1  0
 32 80  1  0
 32 81  1  0
 32 82  1  0
M  END
>  <meeko>  (5) 
{"is_sidechain": [false], "intermolecular_energy": 2.731, "internal_energy": -0.839}

$$$$
EPH_relaxed_0001_pdb2pqr_Repair_164_r2_0001_out
     RDKit          3D

 82 86  0  0  0  0  0  0  0  0999 V2000
   -2.5140    7.5390   -3.0640 C   0  0  0  0  0  0  0  0  0  0  0  0
   -2.8520    7.8300   -1.5990 C   0  0  2  0  0  0  0  0  0  0  0  0
   -4.3710    7.7900   -1.3350 C   0  0  0  0  0  0  0  0  0  0  0  0
   -5.0840    6.6190   -2.0170 C   0  0  0  0  0  0  0  0  0  0  0  0
   -6.3080    7.0700   -2.7560 C   0  0  2  0  0  0  0  0  0  0  0  0
   -6.8710    8.3020   -2.2850 O   0  0  0  0  0  0  0  0  0  0  0  0
   -7.6880    7.1300   -2.1290 C   0  0  0  0  0  0  0  0  0  0  0  0
   -7.9160    6.7330   -0.7040 C   0  0  0  0  0  0  0  0  0  0  0  0
   -8.8840    7.1050   -3.0280 C   0  0  0  0  0  0  0  0  0  0  0  0
   -2.2890    9.1870   -1.1950 C   0  0  1  0  0  0  0  0  0  0  0  0
   -2.8370    9.6790    0.1710 C   0  0  0  0  0  0  0  0  0  0  0  0
   -1.6850   10.4520    0.8630 C   0  0  0  0  0  0  0  0  0  0  0  0
   -0.6340   10.6660   -0.2520 C   0  0  1  0  0  0  0  0  0  0  0  0
   -1.1490   11.9010   -1.0560 C   0  0  0  0  0  0  0  0  0  0  0  0
    0.8440   10.8590    0.2190 C   0  0  2  0  0  0  0  0  0  0  0  0
    1.0930   12.1020    1.0920 C   0  0  0  0  0  0  0  0  0  0  0  0
    1.4650   13.3410    0.3470 C   0  0  0  0  0  0  0  0  0  0  0  0
    1.8710   13.3900   -0.9360 C   0  0  0  0  0  0  0  0  0  0  0  0
    2.0830   12.1040   -1.7440 C   0  0  1  0  0  0  0  0  0  0  0  0
    3.4360   12.1850   -2.5000 C   0  0  0  0  0  0  0  0  0  0  0  0
    3.5510   13.4410   -3.3600 C   0  0  0  0  0  0  0  0  0  0  0  0
    3.3920   14.6990   -2.5100 C   0  0  2  0  0  0  0  0  0  0  0  0
    4.5080   14.7990   -1.6200 O   0  0  0  0  0  0  0  0  0  0  0  0
    2.0690   14.7250   -1.6950 C   0  0  0  0  0  0  0  0  0  0  0  0
    0.8700   14.9210   -2.6550 C   0  0  0  0  0  0  0  0  0  0  0  0
    2.0990   15.9760   -0.7760 C   0  0  0  0  0  0  0  0  0  0  0  0
    1.9150   10.7430   -0.9400 C   0  0  1  0  0  0  0  0  0  0  0  0
    3.2640   10.3550   -0.2630 C   0  0  0  0  0  0  0  0  0  0  0  0
    1.5770    9.5860   -1.9530 C   0  0  0  0  0  0  0  0  0  0  0  0
    0.0890    9.3680   -2.2870 C   0  0  0  0  0  0  0  0  0  0  0  0
   -0.7550    9.2940   -1.0100 C   0  0  2  0  0  0  0  0  0  0  0  0
   -0.2740    8.0480   -0.1910 C   0  0  0  0  0  0  0  0  0  0  0  0
   -1.6812    6.8220   -3.1127 H   0  0  0  0  0  0  0  0  0  0  0  0
   -3.3950    7.1123   -3.5658 H   0  0  0  0  0  0  0  0  0  0  0  0
   -2.2230    8.4736   -3.5658 H   0  0  0  0  0  0  0  0  0  0  0  0
   -2.3896    7.0397   -0.9894 H   0  0  0  0  0  0  0  0  0  0  0  0
   -4.5329    7.7106   -0.2499 H   0  0  0  0  0  0  0  0  0  0  0  0
   -4.7948    8.7136   -1.7563 H   0  0  0  0  0  0  0  0  0  0  0  0
   -4.3917    6.1459   -2.7290 H   0  0  0  0  0  0  0  0  0  0  0  0
   -5.3961    5.9071   -1.2387 H   0  0  0  0  0  0  0  0  0  0  0  0
   -5.9407    6.6181   -3.6892 H   0  0  0  0  0  0  0  0  0  0  0  0
   -7.4801    7.4920   -0.0377 H   0  0  0  0  0  0  0  0  0  0  0  0
   -8.9966    6.6549   -0.5135 H   0  0  0  0  0  0  0  0  0  0  0  0
   -7.4389    5.7603   -0.5135 H   0  0  0  0  0  0  0  0  0  0  0  0
   -9.8000    7.0859   -2.4192 H   0  0  0  0  0  0  0  0  0  0  0  0
   -8.8844    8.0033   -3.6628 H   0  0  0  0  0  0  0  0  0  0  0  0
   -8.8468    6.2074   -3.6628 H   0  0  0  0  0  0  0  0  0  0  0  0
   -2.6056    9.7834   -2.0634 H   0  0  0  0  0  0  0  0  0  0  0  0
   -3.6996   10.3437    0.0159 H   0  0  0  0  0  0  0  0  0  0  0  0
   -3.1727    8.8335    0.7895 H   0  0  0  0  0  0  0  0  0  0  0  0
   -2.0427   11.4175    1.2500 H   0  0  0  0  0  0  0  0  0  0  0  0
   -1.2740    9.9052    1.7244 H   0  0  0  0  0  0  0  0  0  0  0  0
   -1.4755   12.6841   -0.3559 H   0  0  0  0  0  0  0  0  0  0  0  0
   -0.3382   12.2903   -1.6893 H   0  0  0  0  0  0  0  0  0  0  0  0
   -1.9961   11.5989   -1.6893 H   0  0  0  0  0  0  0  0  0  0  0  0
    0.9955    9.9932    0.8804 H   0  0  0  0  0  0  0  0  0  0  0  0
    0.1730   12.3093    1.6583 H   0  0  0  0  0  0  0  0  0  0  0  0
    1.9569   11.8587    1.7281 H   0  0  0  0  0  0  0  0  0  0  0  0
    1.4022   14.2944    0.8921 H   0  0  0  0  0  0  0  0  0  0  0  0
    1.2534   12.0582   -2.4649 H   0  0  0  0  0  0  0  0  0  0  0  0
    4.2524   12.1863   -1.7628 H   0  0  0  0  0  0  0  0  0  0  0  0
    3.4972   11.3146   -3.1698 H   0  0  0  0  0  0  0  0  0  0  0  0
    4.5382   13.4563   -3.8450 H   0  0  0  0  0  0  0  0  0  0  0  0
    2.7520   13.4240   -4.1159 H   0  0  0  0  0  0  0  0  0  0  0  0
    3.3538   15.5577   -3.1965 H   0  0  0  0  0  0  0  0  0  0  0  0
    5.0840   15.5100   -1.9490 H   0  0  0  0  0  0  0  0  0  0  0  0
   -0.0485   15.0711   -2.0686 H   0  0  0  0  0  0  0  0  0  0  0  0
    1.0483   15.8019   -3.2892 H   0  0  0  0  0  0  0  0  0  0  0  0
    0.7585   14.0292   -3.2892 H   0  0  0  0  0  0  0  0  0  0  0  0
    2.0914   15.6577    0.2769 H   0  0  0  0  0  0  0  0  0  0  0  0
    3.0113   16.5568   -0.9769 H   0  0  0  0  0  0  0  0  0  0  0  0
    1.2156   16.5998   -0.9769 H   0  0  0  0  0  0  0  0  0  0  0  0
    3.1484   10.3882    0.8304 H   0  0  0  0  0  0  0  0  0  0  0  0
    3.5496    9.3383   -0.5708 H   0  0  0  0  0  0  0  0  0  0  0  0
    4.0461   11.0646   -0.5708 H   0  0  0  0  0  0  0  0  0  0  0  0
    2.1009    9.8049   -2.8951 H   0  0  0  0  0  0  0  0  0  0  0  0
    1.8979    8.6612   -1.4512 H   0  0  0  0  0  0  0  0  0  0  0  0
   -0.2672   10.2049   -2.9057 H   0  0  0  0  0  0  0  0  0  0  0  0
   -0.0127    8.4169   -2.8301 H   0  0  0  0  0  0  0  0  0  0  0  0
   -0.3567    8.2622    0.8848 H   0  0  0  0  0  0  0  0  0  0  0  0
   -0.9017    7.1801   -0.4414 H   0  0  0  0  0  0  0  0  0  0  0  0
    0.7741    7.8270   -0.4414 H   0  0  0  0  0  0  0  0  0  0  0  0
  1  2  1  0
  2  3  1  0
  3  4  1  0
  4  5  1  0
  5  6  1  0
  6  7  1  0
  7  8  1  0
  7  9  1  0
  2 10  1  0
 10 11  1  0
 11 12  1  0
 12 13  1  0
 13 14  1  6
 13 15  1  0
 15 16  1  0
 16 17  1  0
 17 18  2  0
 18 19  1  0
 19 20  1  0
 20 21  1  0
 21 22  1  0
 22 23  1  0
 22 24  1  0
 24 25  1  0
 24 26  1  0
 19 27  1  0
 27 28  1  1
 27 29  1  0
 29 30  1  0
 30 31  1  0
 31 32  1  1
  7  5  1  0
 31 10  1  0
 31 13  1  0
 27 15  1  0
 24 18  1  0
  1 33  1  0
  1 34  1  0
  1 35  1  0
  2 36  1  1
  3 37  1  0
  3 38  1  0
  4 39  1  0
  4 40  1  0
  5 41  1  6
  8 42  1  0
  8 43  1  0
  8 44  1  0
  9 45  1  0
  9 46  1  0
  9 47  1  0
 10 48  1  6
 11 49  1  0
 11 50  1  0
 12 51  1  0
 12 52  1  0
 14 53  1  0
 14 54  1  0
 14 55  1  0
 15 56  1  1
 16 57  1  0
 16 58  1  0
 17 59  1  0
 19 60  1  6
 20 61  1  0
 20 62  1  0
 21 63  1  0
 21 64  1  0
 22 65  1  6
 23 66  1  0
 25 67  1  0
 25 68  1  0
 25 69  1  0
 26 70  1  0
 26 71  1  0
 26 72  1  0
 28 73  1  0
 28 74  1  0
 28 75  1  0
 29 76  1  0
 29 77  1  0
 30 78  1  0
 30 79  1  0
 32 80  1  0
 32 81  1  0
 32 82  1  0
M  END
>  <meeko>  (6) 
{"is_sidechain": [false], "intermolecular_energy": 2.731, "internal_energy": -0.839}

$$$$
EPH_relaxed_0001_pdb2pqr_Repair_164_r2_0001_out
     RDKit          3D

 82 86  0  0  0  0  0  0  0  0999 V2000
    3.1070   18.3010   -3.0340 C   0  0  0  0  0  0  0  0  0  0  0  0
    2.0770   17.5910   -2.1510 C   0  0  2  0  0  0  0  0  0  0  0  0
    2.2390   17.9550   -0.6620 C   0  0  0  0  0  0  0  0  0  0  0  0
    1.6520   19.3210   -0.2950 C   0  0  0  0  0  0  0  0  0  0  0  0
    0.2670   19.1980    0.2620 C   0  0  2  0  0  0  0  0  0  0  0  0
   -0.5000   18.1120   -0.2740 O   0  0  0  0  0  0  0  0  0  0  0  0
   -0.9890   19.4330   -0.5570 C   0  0  0  0  0  0  0  0  0  0  0  0
   -0.9170   19.8120   -2.0030 C   0  0  0  0  0  0  0  0  0  0  0  0
   -2.2580   19.7730    0.1600 C   0  0  0  0  0  0  0  0  0  0  0  0
    2.1890   16.0820   -2.3330 C   0  0  1  0  0  0  0  0  0  0  0  0
    3.6400   15.6230   -2.6370 C   0  0  0  0  0  0  0  0  0  0  0  0
    3.8250   14.2430   -1.9540 C   0  0  0  0  0  0  0  0  0  0  0  0
    2.3930   13.8040   -1.5680 C   0  0  1  0  0  0  0  0  0  0  0  0
    1.7870   13.2140   -2.8800 C   0  0  0  0  0  0  0  0  0  0  0  0
    2.2760   12.7990   -0.3760 C   0  0  2  0  0  0  0  0  0  0  0  0
    2.9440   11.4330   -0.6060 C   0  0  0  0  0  0  0  0  0  0  0  0
    2.0650   10.3860   -1.2080 C   0  0  0  0  0  0  0  0  0  0  0  0
    0.7230   10.4440   -1.2870 C   0  0  0  0  0  0  0  0  0  0  0  0
   -0.0550   11.6030   -0.6510 C   0  0  1  0  0  0  0  0  0  0  0  0
   -1.2600   11.0410    0.1480 C   0  0  0  0  0  0  0  0  0  0  0  0
   -2.1510   10.1350   -0.6960 C   0  0  0  0  0  0  0  0  0  0  0  0
   -1.3540    8.9630   -1.2630 C   0  0  2  0  0  0  0  0  0  0  0  0
   -0.9450    8.1180   -0.1830 O   0  0  0  0  0  0  0  0  0  0  0  0
   -0.1090    9.4060   -2.0810 C   0  0  0  0  0  0  0  0  0  0  0  0
   -0.5640   10.0610   -3.4080 C   0  0  0  0  0  0  0  0  0  0  0  0
    0.6820    8.1300   -2.4750 C   0  0  0  0  0  0  0  0  0  0  0  0
    0.8080   12.6370    0.1930 C   0  0  1  0  0  0  0  0  0  0  0  0
    0.9530   12.1340    1.6620 C   0  0  0  0  0  0  0  0  0  0  0  0
    0.0400   14.0090    0.2670 C   0  0  0  0  0  0  0  0  0  0  0  0
    0.2890   15.0080   -0.8800 C   0  0  0  0  0  0  0  0  0  0  0  0
    1.7890   15.1890   -1.1320 C   0  0  2  0  0  0  0  0  0  0  0  0
    2.4220   15.8010    0.1630 C   0  0  0  0  0  0  0  0  0  0  0  0
    3.8460   18.8104   -2.3981 H   0  0  0  0  0  0  0  0  0  0  0  0
    3.6172   17.5618   -3.6691 H   0  0  0  0  0  0  0  0  0  0  0  0
    2.5977   19.0408   -3.6691 H   0  0  0  0  0  0  0  0  0  0  0  0
    1.0798   17.9311   -2.4672 H   0  0  0  0  0  0  0  0  0  0  0  0
    1.7329   17.1863   -0.0595 H   0  0  0  0  0  0  0  0  0  0  0  0
    3.3189   18.0039   -0.4586 H   0  0  0  0  0  0  0  0  0  0  0  0
    2.2981   19.7958    0.4581 H   0  0  0  0  0  0  0  0  0  0  0  0
    1.6004   19.9289   -1.2103 H   0  0  0  0  0  0  0  0  0  0  0  0
    0.5982   19.5918    1.2342 H   0  0  0  0  0  0  0  0  0  0  0  0
   -0.7123   20.8893   -2.0899 H   0  0  0  0  0  0  0  0  0  0  0  0
   -0.1105   19.2450   -2.4909 H   0  0  0  0  0  0  0  0  0  0  0  0
   -1.8752   19.5803   -2.4909 H   0  0  0  0  0  0  0  0  0  0  0  0
   -2.0890   19.7277    1.2460 H   0  0  0  0  0  0  0  0  0  0  0  0
   -2.5764   20.7881   -0.1195 H   0  0  0  0  0  0  0  0  0  0  0  0
   -3.0413   19.0530   -0.1195 H   0  0  0  0  0  0  0  0  0  0  0  0
    1.4760   15.9426   -3.1589 H   0  0  0  0  0  0  0  0  0  0  0  0
    3.7886   15.5311   -3.7230 H   0  0  0  0  0  0  0  0  0  0  0  0
    4.3722   16.3519   -2.2594 H   0  0  0  0  0  0  0  0  0  0  0  0
    4.2776   13.5223   -2.6509 H   0  0  0  0  0  0  0  0  0  0  0  0
    4.4946   14.2950   -1.0828 H   0  0  0  0  0  0  0  0  0  0  0  0
    1.0201   12.4674   -2.6263 H   0  0  0  0  0  0  0  0  0  0  0  0
    1.3304   14.0230   -3.4691 H   0  0  0  0  0  0  0  0  0  0  0  0
    2.5835   12.7359   -3.4691 H   0  0  0  0  0  0  0  0  0  0  0  0
    2.8695   13.2924    0.4078 H   0  0  0  0  0  0  0  0  0  0  0  0
    3.8024   11.5832   -1.2773 H   0  0  0  0  0  0  0  0  0  0  0  0
    3.2236   11.0595    0.3901 H   0  0  0  0  0  0  0  0  0  0  0  0
    2.5559    9.4927   -1.6214 H   0  0  0  0  0  0  0  0  0  0  0  0
   -0.4165   12.2210   -1.4861 H   0  0  0  0  0  0  0  0  0  0  0  0
   -0.8777   10.4628    1.0022 H   0  0  0  0  0  0  0  0  0  0  0  0
   -1.8696   11.8954    0.4773 H   0  0  0  0  0  0  0  0  0  0  0  0
   -2.9666    9.7461   -0.0686 H   0  0  0  0  0  0  0  0  0  0  0  0
   -2.5569   10.7219   -1.5331 H   0  0  0  0  0  0  0  0  0  0  0  0
   -2.0116    8.4247   -1.9614 H   0  0  0  0  0  0  0  0  0  0  0  0
   -1.7420    7.8740    0.3180 H   0  0  0  0  0  0  0  0  0  0  0  0
   -1.1789   10.9462   -3.1880 H   0  0  0  0  0  0  0  0  0  0  0  0
    0.3194   10.3635   -3.9894 H   0  0  0  0  0  0  0  0  0  0  0  0
   -1.1558    9.3387   -3.9894 H   0  0  0  0  0  0  0  0  0  0  0  0
    1.0076    7.6048   -1.5650 H   0  0  0  0  0  0  0  0  0  0  0  0
    0.0361    7.4672   -3.0696 H   0  0  0  0  0  0  0  0  0  0  0  0
    1.5629    8.4137   -3.0696 H   0  0  0  0  0  0  0  0  0  0  0  0
    0.7165   12.9544    2.3555 H   0  0  0  0  0  0  0  0  0  0  0  0
    0.2594   11.2976    1.8333 H   0  0  0  0  0  0  0  0  0  0  0  0
    1.9854   11.7952    1.8333 H   0  0  0  0  0  0  0  0  0  0  0  0
   -1.0371   13.7867    0.2866 H   0  0  0  0  0  0  0  0  0  0  0  0
    0.4249   14.5058    1.1698 H   0  0  0  0  0  0  0  0  0  0  0  0
   -0.1870   14.6297   -1.7967 H   0  0  0  0  0  0  0  0  0  0  0  0
   -0.1396   15.9809   -0.5976 H   0  0  0  0  0  0  0  0  0  0  0  0
    1.9536   15.3482    1.0493 H   0  0  0  0  0  0  0  0  0  0  0  0
    3.5028   15.5967    0.1747 H   0  0  0  0  0  0  0  0  0  0  0  0
    2.2542   16.8881    0.1747 H   0  0  0  0  0  0  0  0  0  0  0  0
  1  2  1  0
  2  3  1  0
  3  4  1  0
  4  5  1  0
  5  6  1  0
  6  7  1  0
  7  8  1  0
  7  9  1  0
  2 10  1  0
 10 11  1  0
 11 12  1  0
 12 13  1  0
 13 14  1  6
 13 15  1  0
 15 16  1  0
 16 17  1  0
 17 18  2  0
 18 19  1  0
 19 20  1  0
 20 21  1  0
 21 22  1  0
 22 23  1  0
 22 24  1  0
 24 25  1  0
 24 26  1  0
 19 27  1  0
 27 28  1  1
 27 29  1  0
 29 30  1  0
 30 31  1  0
 31 32  1  1
  7  5  1  0
 31 10  1  0
 31 13  1  0
 27 15  1  0
 24 18  1  0
  1 33  1  0
  1 34  1  0
  1 35  1  0
  2 36  1  6
  3 37  1  0
  3 38  1  0
  4 39  1  0
  4 40  1  0
  5 41  1  1
  8 42  1  0
  8 43  1  0
  8 44  1  0
  9 45  1  0
  9 46  1  0
  9 47  1  0
 10 48  1  6
 11 49  1  0
 11 50  1  0
 12 51  1  0
 12 52  1  0
 14 53  1  0
 14 54  1  0
 14 55  1  0
 15 56  1  1
 16 57  1  0
 16 58  1  0
 17 59  1  0
 19 60  1  6
 20 61  1  0
 20 62  1  0
 21 63  1  0
 21 64  1  0
 22 65  1  6
 23 66  1  0
 25 67  1  0
 25 68  1  0
 25 69  1  0
 26 70  1  0
 26 71  1  0
 26 72  1  0
 28 73  1  0
 28 74  1  0
 28 75  1  0
 29 76  1  0
 29 77  1  0
 30 78  1  0
 30 79  1  0
 32 80  1  0
 32 81  1  0
 32 82  1  0
M  END
>  <meeko>  (7) 
{"is_sidechain": [false], "intermolecular_energy": 2.731, "internal_energy": -0.839}

$$$$
EPH_relaxed_0001_pdb2pqr_Repair_164_r2_0001_out
     RDKit          3D

 82 86  0  0  0  0  0  0  0  0999 V2000
    0.4810    9.0800   -2.4230 C   0  0  0  0  0  0  0  0  0  0  0  0
    1.2490   10.2420   -3.0600 C   0  0  2  0  0  0  0  0  0  0  0  0
    2.7420   10.2300   -2.6750 C   0  0  0  0  0  0  0  0  0  0  0  0
    3.6760   10.6330   -3.8190 C   0  0  0  0  0  0  0  0  0  0  0  0
    5.0710   10.8890   -3.3330 C   0  0  2  0  0  0  0  0  0  0  0  0
    5.6700   12.0890   -3.8390 O   0  0  0  0  0  0  0  0  0  0  0  0
    6.2900   10.8550   -4.2350 C   0  0  0  0  0  0  0  0  0  0  0  0
    6.1720   10.5560   -5.6970 C   0  0  0  0  0  0  0  0  0  0  0  0
    7.6330   10.6280   -3.6140 C   0  0  0  0  0  0  0  0  0  0  0  0
    0.6170   11.5680   -2.6540 C   0  0  1  0  0  0  0  0  0  0  0  0
   -0.5910   11.3850   -1.6960 C   0  0  0  0  0  0  0  0  0  0  0  0
   -0.5700   12.5870   -0.7170 C   0  0  0  0  0  0  0  0  0  0  0  0
    0.4340   13.5830   -1.3430 C   0  0  1  0  0  0  0  0  0  0  0  0
   -0.3790   14.3330   -2.4450 C   0  0  0  0  0  0  0  0  0  0  0  0
    1.1240   14.5800   -0.3560 C   0  0  2  0  0  0  0  0  0  0  0  0
    0.1710   15.5480    0.3670 C   0  0  0  0  0  0  0  0  0  0  0  0
   -0.0710   16.8450   -0.3310 C   0  0  0  0  0  0  0  0  0  0  0  0
    0.6680   17.3390   -1.3420 C   0  0  0  0  0  0  0  0  0  0  0  0
    1.9350   16.6170   -1.8180 C   0  0  1  0  0  0  0  0  0  0  0  0
    3.0860   17.6430   -1.9810 C   0  0  0  0  0  0  0  0  0  0  0  0
    2.7060   18.8110   -2.8860 C   0  0  0  0  0  0  0  0  0  0  0  0
    1.4770   19.5400   -2.3480 C   0  0  2  0  0  0  0  0  0  0  0  0
    1.8200   20.1720   -1.1120 O   0  0  0  0  0  0  0  0  0  0  0  0
    0.2540   18.6040   -2.1350 C   0  0  0  0  0  0  0  0  0  0  0  0
   -0.3050   18.1560   -3.5080 C   0  0  0  0  0  0  0  0  0  0  0  0
   -0.8700   19.4340   -1.4580 C   0  0  0  0  0  0  0  0  0  0  0  0
    2.3670   15.3440   -0.9700 C   0  0  1  0  0  0  0  0  0  0  0  0
    3.2580   15.7830    0.2320 C   0  0  0  0  0  0  0  0  0  0  0  0
    3.2610   14.4080   -1.8670 C   0  0  0  0  0  0  0  0  0  0  0  0
    2.5260   13.3640   -2.7290 C   0  0  0  0  0  0  0  0  0  0  0  0
    1.5110   12.5790   -1.8930 C   0  0  2  0  0  0  0  0  0  0  0  0
    2.3010   11.7970   -0.7900 C   0  0  0  0  0  0  0  0  0  0  0  0
    0.5350    9.1617   -1.3274 H   0  0  0  0  0  0  0  0  0  0  0  0
   -0.5711    9.1171   -2.7421 H   0  0  0  0  0  0  0  0  0  0  0  0
    0.9275    8.1267   -2.7421 H   0  0  0  0  0  0  0  0  0  0  0  0
    1.1879   10.1206   -4.1516 H   0  0  0  0  0  0  0  0  0  0  0  0
    2.8912   10.9318   -1.8413 H   0  0  0  0  0  0  0  0  0  0  0  0
    2.9954    9.1948   -2.4028 H   0  0  0  0  0  0  0  0  0  0  0  0
    3.7006    9.8218   -4.5615 H   0  0  0  0  0  0  0  0  0  0  0  0
    3.2919   11.5631   -4.2633 H   0  0  0  0  0  0  0  0  0  0  0  0
    4.8509   10.4021   -2.3715 H   0  0  0  0  0  0  0  0  0  0  0  0
    5.7713    9.5406   -5.8324 H   0  0  0  0  0  0  0  0  0  0  0  0
    5.4936   11.2836   -6.1665 H   0  0  0  0  0  0  0  0  0  0  0  0
    7.1645   10.6241   -6.1665 H   0  0  0  0  0  0  0  0  0  0  0  0
    7.5377   10.6441   -2.5183 H   0  0  0  0  0  0  0  0  0  0  0  0
    8.0244    9.6510   -3.9337 H   0  0  0  0  0  0  0  0  0  0  0  0
    8.3238   11.4221   -3.9337 H   0  0  0  0  0  0  0  0  0  0  0  0
    0.3646   11.9643   -3.6486 H   0  0  0  0  0  0  0  0  0  0  0  0
   -1.5306   11.3783   -2.2679 H   0  0  0  0  0  0  0  0  0  0  0  0
   -0.5237   10.4311   -1.1524 H   0  0  0  0  0  0  0  0  0  0  0  0
   -1.5689   13.0408   -0.6379 H   0  0  0  0  0  0  0  0  0  0  0  0
   -0.2820   12.2897    0.3022 H   0  0  0  0  0  0  0  0  0  0  0  0
   -1.1079   15.0054   -1.9691 H   0  0  0  0  0  0  0  0  0  0  0  0
    0.3081   14.9211   -3.0711 H   0  0  0  0  0  0  0  0  0  0  0  0
   -0.9099   13.6008   -3.0711 H   0  0  0  0  0  0  0  0  0  0  0  0
    1.5144   13.9082    0.4226 H   0  0  0  0  0  0  0  0  0  0  0  0
   -0.7981   15.0423    0.4900 H   0  0  0  0  0  0  0  0  0  0  0  0
    0.6598   15.8016    1.3192 H   0  0  0  0  0  0  0  0  0  0  0  0
   -0.9255   17.4482    0.0095 H   0  0  0  0  0  0  0  0  0  0  0  0
    1.6860   16.1784   -2.7955 H   0  0  0  0  0  0  0  0  0  0  0  0
    3.3498   18.0374   -0.9886 H   0  0  0  0  0  0  0  0  0  0  0  0
    3.9342   17.1212   -2.4483 H   0  0  0  0  0  0  0  0  0  0  0  0
    3.5490   19.5158   -2.9374 H   0  0  0  0  0  0  0  0  0  0  0  0
    2.4717   18.4185   -3.8865 H   0  0  0  0  0  0  0  0  0  0  0  0
    1.1767   20.2816   -3.1029 H   0  0  0  0  0  0  0  0  0  0  0  0
    1.6730   19.5270   -0.4000 H   0  0  0  0  0  0  0  0  0  0  0  0
   -1.1548   17.4749   -3.3533 H   0  0  0  0  0  0  0  0  0  0  0  0
   -0.6403   19.0383   -4.0729 H   0  0  0  0  0  0  0  0  0  0  0  0
    0.4831   17.6366   -4.0729 H   0  0  0  0  0  0  0  0  0  0  0  0
   -0.7717   19.3614   -0.3648 H   0  0  0  0  0  0  0  0  0  0  0  0
   -0.7838   20.4868   -1.7648 H   0  0  0  0  0  0  0  0  0  0  0  0
   -1.8509   19.0418   -1.7648 H   0  0  0  0  0  0  0  0  0  0  0  0
    2.7504   15.5329    1.1753 H   0  0  0  0  0  0  0  0  0  0  0  0
    4.2230   15.2572    0.1843 H   0  0  0  0  0  0  0  0  0  0  0  0
    3.4291   16.8686    0.1843 H   0  0  0  0  0  0  0  0  0  0  0  0
    3.8403   15.0515   -2.5455 H   0  0  0  0  0  0  0  0  0  0  0  0
    3.8658   13.8225   -1.1589 H   0  0  0  0  0  0  0  0  0  0  0  0
    1.9983   13.8787   -3.5454 H   0  0  0  0  0  0  0  0  0  0  0  0
    3.2671   12.6589   -3.1335 H   0  0  0  0  0  0  0  0  0  0  0  0
    1.9668   12.1278    0.2044 H   0  0  0  0  0  0  0  0  0  0  0  0
    2.1137   10.7186   -0.8998 H   0  0  0  0  0  0  0  0  0  0  0  0
    3.3774   11.9953   -0.8998 H   0  0  0  0  0  0  0  0  0  0  0  0
  1  2  1  0
  2  3  1  0
  3  4  1  0
  4  5  1  0
  5  6  1  0
  6  7  1  0
  7  8  1  0
  7  9  1  0
  2 10  1  0
 10 11  1  0
 11 12  1  0
 12 13  1  0
 13 14  1  6
 13 15  1  0
 15 16  1  0
 16 17  1  0
 17 18  2  0
 18 19  1  0
 19 20  1  0
 20 21  1  0
 21 22  1  0
 22 23  1  0
 22 24  1  0
 24 25  1  0
 24 26  1  0
 19 27  1  0
 27 28  1  1
 27 29  1  0
 29 30  1  0
 30 31  1  0
 31 32  1  1
  7  5  1  0
 31 10  1  0
 31 13  1  0
 27 15  1  0
 24 18  1  0
  1 33  1  0
  1 34  1  0
  1 35  1  0
  2 36  1  6
  3 37  1  0
  3 38  1  0
  4 39  1  0
  4 40  1  0
  5 41  1  1
  8 42  1  0
  8 43  1  0
  8 44  1  0
  9 45  1  0
  9 46  1  0
  9 47  1  0
 10 48  1  6
 11 49  1  0
 11 50  1  0
 12 51  1  0
 12 52  1  0
 14 53  1  0
 14 54  1  0
 14 55  1  0
 15 56  1  1
 16 57  1  0
 16 58  1  0
 17 59  1  0
 19 60  1  6
 20 61  1  0
 20 62  1  0
 21 63  1  0
 21 64  1  0
 22 65  1  6
 23 66  1  0
 25 67  1  0
 25 68  1  0
 25 69  1  0
 26 70  1  0
 26 71  1  0
 26 72  1  0
 28 73  1  0
 28 74  1  0
 28 75  1  0
 29 76  1  0
 29 77  1  0
 30 78  1  0
 30 79  1  0
 32 80  1  0
 32 81  1  0
 32 82  1  0
M  END
>  <meeko>  (8) 
{"is_sidechain": [false], "intermolecular_energy": 2.731, "internal_energy": -0.839}

$$$$
EPH_relaxed_0001_pdb2pqr_Repair_164_r2_0001_out
     RDKit          3D

 82 86  0  0  0  0  0  0  0  0999 V2000
   -0.6390   10.3460   -2.7220 C   0  0  0  0  0  0  0  0  0  0  0  0
    0.2240   10.1180   -1.4790 C   0  0  2  0  0  0  0  0  0  0  0  0
   -0.4150    9.1090   -0.5040 C   0  0  0  0  0  0  0  0  0  0  0  0
   -1.8540    9.4590   -0.1130 C   0  0  0  0  0  0  0  0  0  0  0  0
   -2.8030    8.3450   -0.4390 C   0  0  2  0  0  0  0  0  0  0  0  0
   -3.2770    8.3400   -1.7920 O   0  0  0  0  0  0  0  0  0  0  0  0
   -4.2660    8.5640   -0.7740 C   0  0  0  0  0  0  0  0  0  0  0  0
   -4.8640    9.9360   -0.7990 C   0  0  0  0  0  0  0  0  0  0  0  0
   -5.2190    7.4240   -0.5980 C   0  0  0  0  0  0  0  0  0  0  0  0
    0.4720   11.4440   -0.7680 C   0  0  1  0  0  0  0  0  0  0  0  0
    1.3650   11.2880    0.4920 C   0  0  0  0  0  0  0  0  0  0  0  0
    2.2350   12.5680    0.5850 C   0  0  0  0  0  0  0  0  0  0  0  0
    1.5880   13.5530   -0.4180 C   0  0  1  0  0  0  0  0  0  0  0  0
    0.3770   14.1690    0.3490 C   0  0  0  0  0  0  0  0  0  0  0  0
    2.5260   14.6600   -1.0010 C   0  0  2  0  0  0  0  0  0  0  0  0
    3.1000   15.6410    0.0360 C   0  0  0  0  0  0  0  0  0  0  0  0
    2.2780   16.8620    0.2830 C   0  0  0  0  0  0  0  0  0  0  0  0
    1.2760   17.3020   -0.5010 C   0  0  0  0  0  0  0  0  0  0  0  0
    0.9450   16.6000   -1.8250 C   0  0  1  0  0  0  0  0  0  0  0  0
    0.7660   17.6610   -2.9420 C   0  0  0  0  0  0  0  0  0  0  0  0
   -0.2600   18.7290   -2.5760 C   0  0  0  0  0  0  0  0  0  0  0  0
    0.1340   19.4440   -1.2860 C   0  0  2  0  0  0  0  0  0  0  0  0
    1.3290   20.1940   -1.5220 O   0  0  0  0  0  0  0  0  0  0  0  0
    0.3510   18.4750   -0.0910 C   0  0  0  0  0  0  0  0  0  0  0  0
   -1.0100   17.8870    0.3580 C   0  0  0  0  0  0  0  0  0  0  0  0
    0.8810   19.3070    1.1080 C   0  0  0  0  0  0  0  0  0  0  0  0
    1.9260   15.4250   -2.2500 C   0  0  1  0  0  0  0  0  0  0  0  0
    3.1390   16.0040   -3.0410 C   0  0  0  0  0  0  0  0  0  0  0  0
    1.1730   14.4580   -3.2380 C   0  0  0  0  0  0  0  0  0  0  0  0
    0.3610   13.3120   -2.6050 C   0  0  0  0  0  0  0  0  0  0  0  0
    1.1970   12.5550   -1.5680 C   0  0  2  0  0  0  0  0  0  0  0  0
    2.4110   11.9060   -2.3150 C   0  0  0  0  0  0  0  0  0  0  0  0
   -1.6602   10.6158   -2.4149 H   0  0  0  0  0  0  0  0  0  0  0  0
   -0.2091   11.1614   -3.3223 H   0  0  0  0  0  0  0  0  0  0  0  0
   -0.6680    9.4247   -3.3223 H   0  0  0  0  0  0  0  0  0  0  0  0
    1.1805    9.6911   -1.8148 H   0  0  0  0  0  0  0  0  0  0  0  0
   -0.4158    8.1177   -0.9809 H   0  0  0  0  0  0  0  0  0  0  0  0
    0.1834    9.1297    0.4187 H   0  0  0  0  0  0  0  0  0  0  0  0
   -1.8920    9.6548    0.9688 H   0  0  0  0  0  0  0  0  0  0  0  0
   -2.1586   10.3478   -0.6850 H   0  0  0  0  0  0  0  0  0  0  0  0
   -2.3024    7.6767    0.2771 H   0  0  0  0  0  0  0  0  0  0  0  0
   -5.0174   10.2880    0.2318 H   0  0  0  0  0  0  0  0  0  0  0  0
   -4.1837   10.6230   -1.3236 H   0  0  0  0  0  0  0  0  0  0  0  0
   -5.8304    9.9053   -1.3236 H   0  0  0  0  0  0  0  0  0  0  0  0
   -5.3743    7.2382    0.4750 H   0  0  0  0  0  0  0  0  0  0  0  0
   -6.1807    7.6739   -1.0698 H   0  0  0  0  0  0  0  0  0  0  0  0
   -4.8026    6.5218   -1.0698 H   0  0  0  0  0  0  0  0  0  0  0  0
   -0.5673   11.7425   -0.5663 H   0  0  0  0  0  0  0  0  0  0  0  0
    0.7383   11.1899    1.3907 H   0  0  0  0  0  0  0  0  0  0  0  0
    1.9932   10.3877    0.4219 H   0  0  0  0  0  0  0  0  0  0  0  0
    2.2114   12.9804    1.6045 H   0  0  0  0  0  0  0  0  0  0  0  0
    3.2924   12.3716    0.3539 H   0  0  0  0  0  0  0  0  0  0  0  0
    0.5468   14.0826    1.4324 H   0  0  0  0  0  0  0  0  0  0  0  0
    0.2724   15.2299    0.0777 H   0  0  0  0  0  0  0  0  0  0  0  0
   -0.5420   13.6288    0.0777 H   0  0  0  0  0  0  0  0  0  0  0  0
    3.3835   14.0755   -1.3658 H   0  0  0  0  0  0  0  0  0  0  0  0
    3.2054   15.1037    0.9900 H   0  0  0  0  0  0  0  0  0  0  0  0
    4.0552   15.9963   -0.3779 H   0  0  0  0  0  0  0  0  0  0  0  0
    2.5106   17.4523    1.1816 H   0  0  0  0  0  0  0  0  0  0  0  0
   -0.0039   16.0687   -1.6597 H   0  0  0  0  0  0  0  0  0  0  0  0
    1.7347   18.1499   -3.1223 H   0  0  0  0  0  0  0  0  0  0  0  0
    0.4010   17.1415   -3.8403 H   0  0  0  0  0  0  0  0  0  0  0  0
   -0.3204   19.4648   -3.3915 H   0  0  0  0  0  0  0  0  0  0  0  0
   -1.2348   18.2424   -2.4243 H   0  0  0  0  0  0  0  0  0  0  0  0
   -0.6999   20.1043   -1.0058 H   0  0  0  0  0  0  0  0  0  0  0  0
    1.8790   19.6850   -2.1420 H   0  0  0  0  0  0  0  0  0  0  0  0
   -1.0562   17.8670    1.4568 H   0  0  0  0  0  0  0  0  0  0  0  0
   -1.8263   18.5127   -0.0320 H   0  0  0  0  0  0  0  0  0  0  0  0
   -1.1139   16.8637   -0.0320 H   0  0  0  0  0  0  0  0  0  0  0  0
    0.5759   18.8280    2.0501 H   0  0  0  0  0  0  0  0  0  0  0  0
    1.9788   19.3587    1.0617 H   0  0  0  0  0  0  0  0  0  0  0  0
    0.4638   20.3238    1.0617 H   0  0  0  0  0  0  0  0  0  0  0  0
    3.8989   16.3667   -2.3332 H   0  0  0  0  0  0  0  0  0  0  0  0
    3.5737   15.2163   -3.6739 H   0  0  0  0  0  0  0  0  0  0  0  0
    2.7999   16.8374   -3.6739 H   0  0  0  0  0  0  0  0  0  0  0  0
    0.4787   15.0673   -3.8353 H   0  0  0  0  0  0  0  0  0  0  0  0
    1.9668   13.9627   -3.8165 H   0  0  0  0  0  0  0  0  0  0  0  0
   -0.5293   13.7308   -2.1131 H   0  0  0  0  0  0  0  0  0  0  0  0
    0.0677   12.6098   -3.3992 H   0  0  0  0  0  0  0  0  0  0  0  0
    3.1314   11.5209   -1.5783 H   0  0  0  0  0  0  0  0  0  0  0  0
    2.0537   11.0786   -2.9456 H   0  0  0  0  0  0  0  0  0  0  0  0
    2.9005   12.6627   -2.9456 H   0  0  0  0  0  0  0  0  0  0  0  0
  1  2  1  0
  2  3  1  0
  3  4  1  0
  4  5  1  0
  5  6  1  0
  6  7  1  0
  7  8  1  0
  7  9  1  0
  2 10  1  0
 10 11  1  0
 11 12  1  0
 12 13  1  0
 13 14  1  1
 13 15  1  0
 15 16  1  0
 16 17  1  0
 17 18  2  0
 18 19  1  0
 19 20  1  0
 20 21  1  0
 21 22  1  0
 22 23  1  0
 22 24  1  0
 24 25  1  0
 24 26  1  0
 19 27  1  0
 27 28  1  6
 27 29  1  0
 29 30  1  0
 30 31  1  0
 31 32  1  6
  7  5  1  0
 31 10  1  0
 31 13  1  0
 27 15  1  0
 24 18  1  0
  1 33  1  0
  1 34  1  0
  1 35  1  0
  2 36  1  6
  3 37  1  0
  3 38  1  0
  4 39  1  0
  4 40  1  0
  5 41  1  1
  8 42  1  0
  8 43  1  0
  8 44  1  0
  9 45  1  0
  9 46  1  0
  9 47  1  0
 10 48  1  1
 11 49  1  0
 11 50  1  0
 12 51  1  0
 12 52  1  0
 14 53  1  0
 14 54  1  0
 14 55  1  0
 15 56  1  6
 16 57  1  0
 16 58  1  0
 17 59  1  0
 19 60  1  1
 20 61  1  0
 20 62  1  0
 21 63  1  0
 21 64  1  0
 22 65  1  1
 23 66  1  0
 25 67  1  0
 25 68  1  0
 25 69  1  0
 26 70  1  0
 26 71  1  0
 26 72  1  0
 28 73  1  0
 28 74  1  0
 28 75  1  0
 29 76  1  0
 29 77  1  0
 30 78  1  0
 30 79  1  0
 32 80  1  0
 32 81  1  0
 32 82  1  0
M  END
>  <meeko>  (9) 
{"is_sidechain": [false], "intermolecular_energy": 2.731, "internal_energy": -0.839}

$$$$
EPH_relaxed_0001_pdb2pqr_Repair_164_r2_0001_out
     RDKit          3D

 82 86  0  0  0  0  0  0  0  0999 V2000
    1.7230   18.3860   -2.9590 C   0  0  0  0  0  0  0  0  0  0  0  0
    1.8400   17.5680   -1.6700 C   0  0  2  0  0  0  0  0  0  0  0  0
    3.0380   18.0120   -0.8070 C   0  0  0  0  0  0  0  0  0  0  0  0
    2.7660   19.2700    0.0220 C   0  0  0  0  0  0  0  0  0  0  0  0
    2.8680   18.9970    1.4920 C   0  0  2  0  0  0  0  0  0  0  0  0
    2.8010   20.1640    2.3240 O   0  0  0  0  0  0  0  0  0  0  0  0
    4.0420   19.4390    2.3460 C   0  0  0  0  0  0  0  0  0  0  0  0
    5.1960   20.1900    1.7570 C   0  0  0  0  0  0  0  0  0  0  0  0
    4.2990   18.7230    3.6350 C   0  0  0  0  0  0  0  0  0  0  0  0
    1.9600   16.0860   -2.0050 C   0  0  1  0  0  0  0  0  0  0  0  0
    3.3710   15.7040   -2.5280 C   0  0  0  0  0  0  0  0  0  0  0  0
    3.6700   14.2760   -2.0050 C   0  0  0  0  0  0  0  0  0  0  0  0
    2.3090   13.7570   -1.4870 C   0  0  1  0  0  0  0  0  0  0  0  0
    1.5540   13.2670   -2.7620 C   0  0  0  0  0  0  0  0  0  0  0  0
    2.3660   12.6460   -0.3880 C   0  0  2  0  0  0  0  0  0  0  0  0
    3.0280   11.3280   -0.8260 C   0  0  0  0  0  0  0  0  0  0  0  0
    2.1030   10.3110   -1.4080 C   0  0  0  0  0  0  0  0  0  0  0  0
    0.7600   10.3310   -1.3140 C   0  0  0  0  0  0  0  0  0  0  0  0
    0.0450   11.4030   -0.4810 C   0  0  1  0  0  0  0  0  0  0  0  0
   -1.0370   10.7320    0.4060 C   0  0  0  0  0  0  0  0  0  0  0  0
   -2.0080    9.8760   -0.4010 C   0  0  0  0  0  0  0  0  0  0  0  0
   -1.2650    8.7860   -1.1700 C   0  0  2  0  0  0  0  0  0  0  0  0
   -0.7040    7.8620   -0.2330 O   0  0  0  0  0  0  0  0  0  0  0  0
   -0.1430    9.3420   -2.0910 C   0  0  0  0  0  0  0  0  0  0  0  0
   -0.7770   10.0980   -3.2850 C   0  0  0  0  0  0  0  0  0  0  0  0
    0.6190    8.1340   -2.6990 C   0  0  0  0  0  0  0  0  0  0  0  0
    0.9860   12.3840    0.3410 C   0  0  1  0  0  0  0  0  0  0  0  0
    1.3270   11.7570    1.7280 C   0  0  0  0  0  0  0  0  0  0  0  0
    0.2040   13.7180    0.6380 C   0  0  0  0  0  0  0  0  0  0  0  0
    0.2840   14.8230   -0.4330 C   0  0  0  0  0  0  0  0  0  0  0  0
    1.7350   15.0760   -0.8520 C   0  0  2  0  0  0  0  0  0  0  0  0
    2.5150   15.5900    0.4060 C   0  0  0  0  0  0  0  0  0  0  0  0
    1.5714   19.4462   -2.7080 H   0  0  0  0  0  0  0  0  0  0  0  0
    2.6459   18.2769   -3.5475 H   0  0  0  0  0  0  0  0  0  0  0  0
    0.8677   18.0226   -3.5475 H   0  0  0  0  0  0  0  0  0  0  0  0
    0.9271   17.7439   -1.0821 H   0  0  0  0  0  0  0  0  0  0  0  0
    3.2941   17.1919   -0.1200 H   0  0  0  0  0  0  0  0  0  0  0  0
    3.8599   18.2531   -1.4972 H   0  0  0  0  0  0  0  0  0  0  0  0
    3.5014   20.0418   -0.2493 H   0  0  0  0  0  0  0  0  0  0  0  0
    1.7419   19.6086   -0.1940 H   0  0  0  0  0  0  0  0  0  0  0  0
    2.3698   18.0239    1.3697 H   0  0  0  0  0  0  0  0  0  0  0  0
    5.8204   20.5964    2.5663 H   0  0  0  0  0  0  0  0  0  0  0  0
    5.7975   19.5099    1.1360 H   0  0  0  0  0  0  0  0  0  0  0  0
    4.8177   21.0154    1.1360 H   0  0  0  0  0  0  0  0  0  0  0  0
    4.0602   19.3882    4.4779 H   0  0  0  0  0  0  0  0  0  0  0  0
    3.6675   17.8239    3.6872 H   0  0  0  0  0  0  0  0  0  0  0  0
    5.3582   18.4307    3.6872 H   0  0  0  0  0  0  0  0  0  0  0  0
    1.1514   15.9982   -2.7455 H   0  0  0  0  0  0  0  0  0  0  0  0
    3.3831   15.7149   -3.6279 H   0  0  0  0  0  0  0  0  0  0  0  0
    4.1293   16.4198   -2.1778 H   0  0  0  0  0  0  0  0  0  0  0  0
    4.0461   13.6360   -2.8168 H   0  0  0  0  0  0  0  0  0  0  0  0
    4.4430   14.2719   -1.2224 H   0  0  0  0  0  0  0  0  0  0  0  0
    0.6659   12.6906   -2.4634 H   0  0  0  0  0  0  0  0  0  0  0  0
    1.2430   14.1359   -3.3606 H   0  0  0  0  0  0  0  0  0  0  0  0
    2.2209   12.6291   -3.3606 H   0  0  0  0  0  0  0  0  0  0  0  0
    3.0432   13.0874    0.3580 H   0  0  0  0  0  0  0  0  0  0  0  0
    3.7905   11.5658   -1.5823 H   0  0  0  0  0  0  0  0  0  0  0  0
    3.4395   10.8762    0.0886 H   0  0  0  0  0  0  0  0  0  0  0  0
    2.5569    9.4749   -1.9602 H   0  0  0  0  0  0  0  0  0  0  0  0
   -0.4323   12.0819   -1.2030 H   0  0  0  0  0  0  0  0  0  0  0  0
   -0.5372   10.0928    1.1487 H   0  0  0  0  0  0  0  0  0  0  0  0
   -1.6183   11.5330    0.8861 H   0  0  0  0  0  0  0  0  0  0  0  0
   -2.7285    9.4057    0.2843 H   0  0  0  0  0  0  0  0  0  0  0  0
   -2.5292   10.5220   -1.1229 H   0  0  0  0  0  0  0  0  0  0  0  0
   -1.9944    8.2912   -1.8282 H   0  0  0  0  0  0  0  0  0  0  0  0
   -0.0500    7.3210   -0.7080 H   0  0  0  0  0  0  0  0  0  0  0  0
   -1.4408   10.8895   -2.9070 H   0  0  0  0  0  0  0  0  0  0  0  0
    0.0180   10.5478   -3.8980 H   0  0  0  0  0  0  0  0  0  0  0  0
   -1.3584    9.3936   -3.8980 H   0  0  0  0  0  0  0  0  0  0  0  0
    1.0157    7.5051   -1.8884 H   0  0  0  0  0  0  0  0  0  0  0  0
   -0.0690    7.5413   -3.3197 H   0  0  0  0  0  0  0  0  0  0  0  0
    1.4503    8.4996   -3.3197 H   0  0  0  0  0  0  0  0  0  0  0  0
    0.9666   12.4197    2.5286 H   0  0  0  0  0  0  0  0  0  0  0  0
    0.8384   10.7755    1.8168 H   0  0  0  0  0  0  0  0  0  0  0  0
    2.4165   11.6337    1.8168 H   0  0  0  0  0  0  0  0  0  0  0  0
   -0.8569   13.4594    0.7708 H   0  0  0  0  0  0  0  0  0  0  0  0
    0.6894   14.1442    1.5284 H   0  0  0  0  0  0  0  0  0  0  0  0
   -0.2962   14.5125   -1.3145 H   0  0  0  0  0  0  0  0  0  0  0  0
   -0.1260   15.7519   -0.0099 H   0  0  0  0  0  0  0  0  0  0  0  0
    2.0023   15.2521    1.3187 H   0  0  0  0  0  0  0  0  0  0  0  0
    3.5394   15.1894    0.3912 H   0  0  0  0  0  0  0  0  0  0  0  0
    2.5510   16.6893    0.3912 H   0  0  0  0  0  0  0  0  0  0  0  0
  1  2  1  0
  2  3  1  0
  3  4  1  0
  4  5  1  0
  5  6  1  0
  6  7  1  0
  7  8  1  0
  7  9  1  0
  2 10  1  0
 10 11  1  0
 11 12  1  0
 12 13  1  0
 13 14  1  6
 13 15  1  0
 15 16  1  0
 16 17  1  0
 17 18  2  0
 18 19  1  0
 19 20  1  0
 20 21  1  0
 21 22  1  0
 22 23  1  0
 22 24  1  0
 24 25  1  0
 24 26  1  0
 19 27  1  0
 27 28  1  1
 27 29  1  0
 29 30  1  0
 30 31  1  0
 31 32  1  1
  7  5  1  0
 31 10  1  0
 31 13  1  0
 27 15  1  0
 24 18  1  0
  1 33  1  0
  1 34  1  0
  1 35  1  0
  2 36  1  1
  3 37  1  0
  3 38  1  0
  4 39  1  0
  4 40  1  0
  5 41  1  1
  8 42  1  0
  8 43  1  0
  8 44  1  0
  9 45  1  0
  9 46  1  0
  9 47  1  0
 10 48  1  6
 11 49  1  0
 11 50  1  0
 12 51  1  0
 12 52  1  0
 14 53  1  0
 14 54  1  0
 14 55  1  0
 15 56  1  1
 16 57  1  0
 16 58  1  0
 17 59  1  0
 19 60  1  6
 20 61  1  0
 20 62  1  0
 21 63  1  0
 21 64  1  0
 22 65  1  6
 23 66  1  0
 25 67  1  0
 25 68  1  0
 25 69  1  0
 26 70  1  0
 26 71  1  0
 26 72  1  0
 28 73  1  0
 28 74  1  0
 28 75  1  0
 29 76  1  0
 29 77  1  0
 30 78  1  0
 30 79  1  0
 32 80  1  0
 32 81  1  0
 32 82  1  0
M  END
>  <meeko>  (10) 
{"is_sidechain": [false], "intermolecular_energy": 2.731, "internal_energy": -0.839}

$$$$
EPH_relaxed_0001_pdb2pqr_Repair_164_r2_0001_out
     RDKit          3D

 82 86  0  0  0  0  0  0  0  0999 V2000
   -4.9640    5.9880   -2.0220 C   0  0  0  0  0  0  0  0  0  0  0  0
   -5.3620    7.4630   -1.9240 C   0  0  2  0  0  0  0  0  0  0  0  0
   -5.1700    8.0230   -0.5000 C   0  0  0  0  0  0  0  0  0  0  0  0
   -4.0860    9.1000   -0.4030 C   0  0  0  0  0  0  0  0  0  0  0  0
   -2.7670    8.6060   -0.9160 C   0  0  2  0  0  0  0  0  0  0  0  0
   -1.6610    8.8240   -0.0300 O   0  0  0  0  0  0  0  0  0  0  0  0
   -1.6160    9.5230   -1.2840 C   0  0  0  0  0  0  0  0  0  0  0  0
   -1.7310   11.0100   -1.1560 C   0  0  0  0  0  0  0  0  0  0  0  0
   -0.5660    9.0130   -2.2220 C   0  0  0  0  0  0  0  0  0  0  0  0
   -6.8110    7.6410   -2.3620 C   0  0  1  0  0  0  0  0  0  0  0  0
   -7.1220    6.9210   -3.7010 C   0  0  0  0  0  0  0  0  0  0  0  0
   -8.5810    6.4040   -3.6030 C   0  0  0  0  0  0  0  0  0  0  0  0
   -9.1660    7.1220   -2.3640 C   0  0  1  0  0  0  0  0  0  0  0  0
   -9.5700    8.5400   -2.8760 C   0  0  0  0  0  0  0  0  0  0  0  0
  -10.3570    6.4060   -1.6490 C   0  0  2  0  0  0  0  0  0  0  0  0
  -11.6240    6.2320   -2.5060 C   0  0  0  0  0  0  0  0  0  0  0  0
  -12.6100    7.3490   -2.4190 C   0  0  0  0  0  0  0  0  0  0  0  0
  -12.6250    8.3090   -1.4750 C   0  0  0  0  0  0  0  0  0  0  0  0
  -11.6360    8.2750   -0.3030 C   0  0  1  0  0  0  0  0  0  0  0  0
  -12.3950    8.5460    1.0230 C   0  0  0  0  0  0  0  0  0  0  0  0
  -13.2050    9.8380    0.9790 C   0  0  0  0  0  0  0  0  0  0  0  0
  -14.2170    9.8100   -0.1640 C   0  0  2  0  0  0  0  0  0  0  0  0
  -15.1990    8.8080    0.1150 O   0  0  0  0  0  0  0  0  0  0  0  0
  -13.5680    9.5340   -1.5490 C   0  0  0  0  0  0  0  0  0  0  0  0
  -12.7350   10.7640   -1.9880 C   0  0  0  0  0  0  0  0  0  0  0  0
  -14.7110    9.3910   -2.5910 C   0  0  0  0  0  0  0  0  0  0  0  0
  -10.7020    6.9910   -0.2200 C   0  0  1  0  0  0  0  0  0  0  0  0
  -11.4280    5.8550    0.5640 C   0  0  0  0  0  0  0  0  0  0  0  0
   -9.4120    7.3470    0.6090 C   0  0  0  0  0  0  0  0  0  0  0  0
   -8.2250    7.9410   -0.1750 C   0  0  0  0  0  0  0  0  0  0  0  0
   -7.9120    7.1000   -1.4160 C   0  0  2  0  0  0  0  0  0  0  0  0
   -7.4810    5.6740   -0.9310 C   0  0  0  0  0  0  0  0  0  0  0  0
   -4.8514    5.5706   -1.0105 H   0  0  0  0  0  0  0  0  0  0  0  0
   -5.7445    5.4328   -2.5630 H   0  0  0  0  0  0  0  0  0  0  0  0
   -4.0102    5.9007   -2.5630 H   0  0  0  0  0  0  0  0  0  0  0  0
   -4.6987    8.0295   -2.5941 H   0  0  0  0  0  0  0  0  0  0  0  0
   -6.1234    8.4589   -0.1668 H   0  0  0  0  0  0  0  0  0  0  0  0
   -4.8474    7.1843    0.1344 H   0  0  0  0  0  0  0  0  0  0  0  0
   -4.3957    9.9722   -0.9974 H   0  0  0  0  0  0  0  0  0  0  0  0
   -3.9632    9.3688    0.6565 H   0  0  0  0  0  0  0  0  0  0  0  0
   -3.2585    7.7849   -1.4585 H   0  0  0  0  0  0  0  0  0  0  0  0
   -1.7523   11.2858   -0.0914 H   0  0  0  0  0  0  0  0  0  0  0  0
   -0.8671   11.4877   -1.6413 H   0  0  0  0  0  0  0  0  0  0  0  0
   -2.6581   11.3492   -1.6413 H   0  0  0  0  0  0  0  0  0  0  0  0
    0.2754    8.6043   -1.6432 H   0  0  0  0  0  0  0  0  0  0  0  0
   -0.9935    8.2221   -2.8559 H   0  0  0  0  0  0  0  0  0  0  0  0
   -0.2087    9.8379   -2.8559 H   0  0  0  0  0  0  0  0  0  0  0  0
   -6.8577    8.7392   -2.4035 H   0  0  0  0  0  0  0  0  0  0  0  0
   -7.0252    7.6248   -4.5409 H   0  0  0  0  0  0  0  0  0  0  0  0
   -6.4203    6.0921   -3.8759 H   0  0  0  0  0  0  0  0  0  0  0  0
   -9.1480    6.6670   -4.5082 H   0  0  0  0  0  0  0  0  0  0  0  0
   -8.6307    5.3088   -3.5131 H   0  0  0  0  0  0  0  0  0  0  0  0
   -9.7581    9.2003   -2.0166 H   0  0  0  0  0  0  0  0  0  0  0  0
   -8.7545    8.9556   -3.4861 H   0  0  0  0  0  0  0  0  0  0  0  0
  -10.4821    8.4634   -3.4861 H   0  0  0  0  0  0  0  0  0  0  0  0
   -9.9612    5.3918   -1.4915 H   0  0  0  0  0  0  0  0  0  0  0  0
  -11.3131    6.1340   -3.5566 H   0  0  0  0  0  0  0  0  0  0  0  0
  -12.1371    5.3415   -2.1139 H   0  0  0  0  0  0  0  0  0  0  0  0
  -13.3913    7.3916   -3.1922 H   0  0  0  0  0  0  0  0  0  0  0  0
  -10.9134    9.0826   -0.4917 H   0  0  0  0  0  0  0  0  0  0  0  0
  -13.0796    7.7068    1.2154 H   0  0  0  0  0  0  0  0  0  0  0  0
  -11.6459    8.6482    1.8220 H   0  0  0  0  0  0  0  0  0  0  0  0
  -13.7414    9.9590    1.9317 H   0  0  0  0  0  0  0  0  0  0  0  0
  -12.5151   10.6791    0.8160 H   0  0  0  0  0  0  0  0  0  0  0  0
  -14.6744   10.8085   -0.2250 H   0  0  0  0  0  0  0  0  0  0  0  0
  -15.7890    8.7510   -0.6560 H   0  0  0  0  0  0  0  0  0  0  0  0
  -12.3730   11.2985   -1.0973 H   0  0  0  0  0  0  0  0  0  0  0  0
  -11.8766   10.4298   -2.5892 H   0  0  0  0  0  0  0  0  0  0  0  0
  -13.3639   11.4371   -2.5892 H   0  0  0  0  0  0  0  0  0  0  0  0
  -15.6712    9.2709   -2.0679 H   0  0  0  0  0  0  0  0  0  0  0  0
  -14.7471   10.2916   -3.2215 H   0  0  0  0  0  0  0  0  0  0  0  0
  -14.5242    8.5092   -3.2215 H   0  0  0  0  0  0  0  0  0  0  0  0
  -11.3179    6.0272    1.6448 H   0  0  0  0  0  0  0  0  0  0  0  0
  -12.4959    5.8519    0.3001 H   0  0  0  0  0  0  0  0  0  0  0  0
  -10.9823    4.8846    0.3001 H   0  0  0  0  0  0  0  0  0  0  0  0
   -9.7018    8.0777    1.3785 H   0  0  0  0  0  0  0  0  0  0  0  0
   -9.0468    6.3862    1.0007 H   0  0  0  0  0  0  0  0  0  0  0  0
   -8.4770    8.9649   -0.4883 H   0  0  0  0  0  0  0  0  0  0  0  0
   -7.3400    7.9451    0.4783 H   0  0  0  0  0  0  0  0  0  0  0  0
   -7.4730    5.6476    0.1687 H   0  0  0  0  0  0  0  0  0  0  0  0
   -8.1934    4.9267   -1.3106 H   0  0  0  0  0  0  0  0  0  0  0  0
   -6.4739    5.4464   -1.3106 H   0  0  0  0  0  0  0  0  0  0  0  0
  1  2  1  0
  2  3  1  0
  3  4  1  0
  4  5  1  0
  5  6  1  0
  6  7  1  0
  7  8  1  0
  7  9  1  0
  2 10  1  0
 10 11  1  0
 11 12  1  0
 12 13  1  0
 13 14  1  6
 13 15  1  0
 15 16  1  0
 16 17  1  0
 17 18  2  0
 18 19  1  0
 19 20  1  0
 20 21  1  0
 21 22  1  0
 22 23  1  0
 22 24  1  0
 24 25  1  0
 24 26  1  0
 19 27  1  0
 27 28  1  1
 27 29  1  0
 29 30  1  0
 30 31  1  0
 31 32  1  1
  7  5  1  0
 31 10  1  0
 31 13  1  0
 27 15  1  0
 24 18  1  0
  1 33  1  0
  1 34  1  0
  1 35  1  0
  2 36  1  6
  3 37  1  0
  3 38  1  0
  4 39  1  0
  4 40  1  0
  5 41  1  6
  8 42  1  0
  8 43  1  0
  8 44  1  0
  9 45  1  0
  9 46  1  0
  9 47  1  0
 10 48  1  6
 11 49  1  0
 11 50  1  0
 12 51  1  0
 12 52  1  0
 14 53  1  0
 14 54  1  0
 14 55  1  0
 15 56  1  1
 16 57  1  0
 16 58  1  0
 17 59  1  0
 19 60  1  6
 20 61  1  0
 20 62  1  0
 21 63  1  0
 21 64  1  0
 22 65  1  6
 23 66  1  0
 25 67  1  0
 25 68  1  0
 25 69  1  0
 26 70  1  0
 26 71  1  0
 26 72  1  0
 28 73  1  0
 28 74  1  0
 28 75  1  0
 29 76  1  0
 29 77  1  0
 30 78  1  0
 30 79  1  0
 32 80  1  0
 32 81  1  0
 32 82  1  0
M  END
>  <meeko>  (11) 
{"is_sidechain": [false], "intermolecular_energy": 2.731, "internal_energy": -0.839}

$$$$
EPH_relaxed_0001_pdb2pqr_Repair_164_r2_0001_out
     RDKit          3D

 82 86  0  0  0  0  0  0  0  0999 V2000
    0.0690    7.7680   -2.4550 C   0  0  0  0  0  0  0  0  0  0  0  0
   -1.2810    8.2170   -1.8880 C   0  0  2  0  0  0  0  0  0  0  0  0
   -2.4650    7.7070   -2.7330 C   0  0  0  0  0  0  0  0  0  0  0  0
   -3.6690    7.2620   -1.9000 C   0  0  0  0  0  0  0  0  0  0  0  0
   -4.7260    6.6240   -2.7500 C   0  0  2  0  0  0  0  0  0  0  0  0
   -5.3190    7.4950   -3.7220 O   0  0  0  0  0  0  0  0  0  0  0  0
   -6.1930    7.0080   -2.6900 C   0  0  0  0  0  0  0  0  0  0  0  0
   -6.6830    8.0710   -1.7580 C   0  0  0  0  0  0  0  0  0  0  0  0
   -7.2110    6.0250   -3.1770 C   0  0  0  0  0  0  0  0  0  0  0  0
   -1.3250    9.7380   -1.7940 C   0  0  1  0  0  0  0  0  0  0  0  0
   -2.6300   10.2580   -1.1340 C   0  0  0  0  0  0  0  0  0  0  0  0
   -2.2460   11.5200   -0.3180 C   0  0  0  0  0  0  0  0  0  0  0  0
   -0.8190   11.8750   -0.7960 C   0  0  1  0  0  0  0  0  0  0  0  0
   -1.0250   12.6500   -2.1350 C   0  0  0  0  0  0  0  0  0  0  0  0
    0.0650   12.6830    0.2080 C   0  0  2  0  0  0  0  0  0  0  0  0
   -0.4720   14.0790    0.5730 C   0  0  0  0  0  0  0  0  0  0  0  0
   -0.0000   15.1920   -0.3030 C   0  0  0  0  0  0  0  0  0  0  0  0
    1.0360   15.1290   -1.1590 C   0  0  0  0  0  0  0  0  0  0  0  0
    1.9170   13.8750   -1.2380 C   0  0  1  0  0  0  0  0  0  0  0  0
    3.4110   14.2910   -1.2380 C   0  0  0  0  0  0  0  0  0  0  0  0
    3.7370   15.3030   -2.3320 C   0  0  0  0  0  0  0  0  0  0  0  0
    2.8830   16.5590   -2.1850 C   0  0  2  0  0  0  0  0  0  0  0  0
    3.2590   17.2340   -0.9800 O   0  0  0  0  0  0  0  0  0  0  0  0
    1.3570   16.2640   -2.1630 C   0  0  0  0  0  0  0  0  0  0  0  0
    0.8940   15.8130   -3.5700 C   0  0  0  0  0  0  0  0  0  0  0  0
    0.6160   17.5960   -1.8680 C   0  0  0  0  0  0  0  0  0  0  0  0
    1.5990   12.7360   -0.1760 C   0  0  1  0  0  0  0  0  0  0  0  0
    2.3800   13.0100    1.1460 C   0  0  0  0  0  0  0  0  0  0  0  0
    2.1270   11.3590   -0.7260 C   0  0  0  0  0  0  0  0  0  0  0  0
    1.1620   10.5510   -1.6150 C   0  0  0  0  0  0  0  0  0  0  0  0
   -0.2170   10.4310   -0.9610 C   0  0  2  0  0  0  0  0  0  0  0  0
   -0.0450    9.6370    0.3780 C   0  0  0  0  0  0  0  0  0  0  0  0
    0.7565    7.5393   -1.6273 H   0  0  0  0  0  0  0  0  0  0  0  0
   -0.0734    6.8688   -3.0724 H   0  0  0  0  0  0  0  0  0  0  0  0
    0.4935    8.5733   -3.0724 H   0  0  0  0  0  0  0  0  0  0  0  0
   -1.3800    7.7791   -0.8838 H   0  0  0  0  0  0  0  0  0  0  0  0
   -2.7872    8.5171   -3.4038 H   0  0  0  0  0  0  0  0  0  0  0  0
   -2.1101    6.8228   -3.2827 H   0  0  0  0  0  0  0  0  0  0  0  0
   -3.3318    6.5358   -1.1457 H   0  0  0  0  0  0  0  0  0  0  0  0
   -4.1040    8.1527   -1.4230 H   0  0  0  0  0  0  0  0  0  0  0  0
   -4.2154    5.6512   -2.6960 H   0  0  0  0  0  0  0  0  0  0  0  0
   -6.5326    7.7448   -0.7183 H   0  0  0  0  0  0  0  0  0  0  0  0
   -6.1226    9.0008   -1.9353 H   0  0  0  0  0  0  0  0  0  0  0  0
   -7.7540    8.2489   -1.9353 H   0  0  0  0  0  0  0  0  0  0  0  0
   -7.7032    5.5497   -2.3157 H   0  0  0  0  0  0  0  0  0  0  0  0
   -7.9629    6.5475   -3.7866 H   0  0  0  0  0  0  0  0  0  0  0  0
   -6.7151    5.2553   -3.7866 H   0  0  0  0  0  0  0  0  0  0  0  0
   -1.2105    9.9925   -2.8580 H   0  0  0  0  0  0  0  0  0  0  0  0
   -3.3685   10.5169   -1.9071 H   0  0  0  0  0  0  0  0  0  0  0  0
   -3.0785    9.4901   -0.4866 H   0  0  0  0  0  0  0  0  0  0  0  0
   -2.9424   12.3451   -0.5284 H   0  0  0  0  0  0  0  0  0  0  0  0
   -2.2906   11.3445    0.7670 H   0  0  0  0  0  0  0  0  0  0  0  0
   -1.3020   13.6919   -1.9167 H   0  0  0  0  0  0  0  0  0  0  0  0
   -0.0911   12.6329   -2.7160 H   0  0  0  0  0  0  0  0  0  0  0  0
   -1.8271   12.1714   -2.7160 H   0  0  0  0  0  0  0  0  0  0  0  0
   -0.0131   12.0831    1.1267 H   0  0  0  0  0  0  0  0  0  0  0  0
   -1.5702   14.0458    0.5187 H   0  0  0  0  0  0  0  0  0  0  0  0
   -0.0876   14.2997    1.5798 H   0  0  0  0  0  0  0  0  0  0  0  0
   -0.5460   16.1451   -0.2435 H   0  0  0  0  0  0  0  0  0  0  0  0
    1.6664   13.3865   -2.1912 H   0  0  0  0  0  0  0  0  0  0  0  0
    3.6528   14.7369   -0.2619 H   0  0  0  0  0  0  0  0  0  0  0  0
    4.0088   13.3878   -1.4301 H   0  0  0  0  0  0  0  0  0  0  0  0
    4.7993   15.5797   -2.2615 H   0  0  0  0  0  0  0  0  0  0  0  0
    3.5228   14.8451   -3.3090 H   0  0  0  0  0  0  0  0  0  0  0  0
    3.0683   17.1883   -3.0680 H   0  0  0  0  0  0  0  0  0  0  0  0
    3.9590   16.7100   -0.5560 H   0  0  0  0  0  0  0  0  0  0  0  0
    0.1093   15.0486   -3.4703 H   0  0  0  0  0  0  0  0  0  0  0  0
    0.4952   16.6784   -4.1197 H   0  0  0  0  0  0  0  0  0  0  0  0
    1.7486   15.3916   -4.1197 H   0  0  0  0  0  0  0  0  0  0  0  0
    0.5368   17.7384   -0.7801 H   0  0  0  0  0  0  0  0  0  0  0  0
    1.1780   18.4333   -2.3074 H   0  0  0  0  0  0  0  0  0  0  0  0
   -0.3918   17.5601   -2.3074 H   0  0  0  0  0  0  0  0  0  0  0  0
    1.7341   12.7834    2.0071 H   0  0  0  0  0  0  0  0  0  0  0  0
    3.2757   12.3724    1.1816 H   0  0  0  0  0  0  0  0  0  0  0  0
    2.6810   14.0674    1.1816 H   0  0  0  0  0  0  0  0  0  0  0  0
    3.0329   11.5615   -1.3162 H   0  0  0  0  0  0  0  0  0  0  0  0
    2.2882   10.7352    0.1656 H   0  0  0  0  0  0  0  0  0  0  0  0
    1.0569   11.0583   -2.5853 H   0  0  0  0  0  0  0  0  0  0  0  0
    1.5743    9.5403   -1.7509 H   0  0  0  0  0  0  0  0  0  0  0  0
   -0.1925   10.3177    1.2294 H   0  0  0  0  0  0  0  0  0  0  0  0
   -0.7887    8.8277    0.4225 H   0  0  0  0  0  0  0  0  0  0  0  0
    0.9669    9.2080    0.4225 H   0  0  0  0  0  0  0  0  0  0  0  0
  1  2  1  0
  2  3  1  0
  3  4  1  0
  4  5  1  0
  5  6  1  0
  6  7  1  0
  7  8  1  0
  7  9  1  0
  2 10  1  0
 10 11  1  0
 11 12  1  0
 12 13  1  0
 13 14  1  6
 13 15  1  0
 15 16  1  0
 16 17  1  0
 17 18  2  0
 18 19  1  0
 19 20  1  0
 20 21  1  0
 21 22  1  0
 22 23  1  0
 22 24  1  0
 24 25  1  0
 24 26  1  0
 19 27  1  0
 27 28  1  1
 27 29  1  0
 29 30  1  0
 30 31  1  0
 31 32  1  1
  7  5  1  0
 31 10  1  0
 31 13  1  0
 27 15  1  0
 24 18  1  0
  1 33  1  0
  1 34  1  0
  1 35  1  0
  2 36  1  1
  3 37  1  0
  3 38  1  0
  4 39  1  0
  4 40  1  0
  5 41  1  6
  8 42  1  0
  8 43  1  0
  8 44  1  0
  9 45  1  0
  9 46  1  0
  9 47  1  0
 10 48  1  6
 11 49  1  0
 11 50  1  0
 12 51  1  0
 12 52  1  0
 14 53  1  0
 14 54  1  0
 14 55  1  0
 15 56  1  1
 16 57  1  0
 16 58  1  0
 17 59  1  0
 19 60  1  6
 20 61  1  0
 20 62  1  0
 21 63  1  0
 21 64  1  0
 22 65  1  6
 23 66  1  0
 25 67  1  0
 25 68  1  0
 25 69  1  0
 26 70  1  0
 26 71  1  0
 26 72  1  0
 28 73  1  0
 28 74  1  0
 28 75  1  0
 29 76  1  0
 29 77  1  0
 30 78  1  0
 30 79  1  0
 32 80  1  0
 32 81  1  0
 32 82  1  0
M  END
>  <meeko>  (12) 
{"is_sidechain": [false], "intermolecular_energy": 2.731, "internal_energy": -0.839}

$$$$
EPH_relaxed_0001_pdb2pqr_Repair_164_r2_0001_out
     RDKit          3D

 82 86  0  0  0  0  0  0  0  0999 V2000
   -1.3650   10.4370    1.6030 C   0  0  0  0  0  0  0  0  0  0  0  0
   -1.9970   10.1260    0.2430 C   0  0  2  0  0  0  0  0  0  0  0  0
   -2.8040    8.8120    0.2650 C   0  0  0  0  0  0  0  0  0  0  0  0
   -4.1730    8.9190   -0.4120 C   0  0  0  0  0  0  0  0  0  0  0  0
   -4.7040    7.5740   -0.8040 C   0  0  2  0  0  0  0  0  0  0  0  0
   -4.8200    7.3640   -2.2170 O   0  0  0  0  0  0  0  0  0  0  0  0
   -6.0500    7.3690   -1.4740 C   0  0  0  0  0  0  0  0  0  0  0  0
   -6.9480    8.5230   -1.7910 C   0  0  0  0  0  0  0  0  0  0  0  0
   -6.7000    6.0240   -1.3760 C   0  0  0  0  0  0  0  0  0  0  0  0
   -0.9150   10.0560   -0.8280 C   0  0  1  0  0  0  0  0  0  0  0  0
   -1.3360    9.1900   -2.0460 C   0  0  0  0  0  0  0  0  0  0  0  0
   -0.7080    9.8490   -3.3010 C   0  0  0  0  0  0  0  0  0  0  0  0
    0.3140   10.8640   -2.7390 C   0  0  1  0  0  0  0  0  0  0  0  0
    1.5780   10.0140   -2.3980 C   0  0  0  0  0  0  0  0  0  0  0  0
    0.6650   12.0750   -3.6630 C   0  0  2  0  0  0  0  0  0  0  0  0
    1.3330   11.7040   -4.9990 C   0  0  0  0  0  0  0  0  0  0  0  0
    2.8250   11.6520   -4.9740 C   0  0  0  0  0  0  0  0  0  0  0  0
    3.6090   12.1660   -4.0080 C   0  0  0  0  0  0  0  0  0  0  0  0
    3.0060   12.9670   -2.8470 C   0  0  1  0  0  0  0  0  0  0  0  0
    3.8300   14.2640   -2.6290 C   0  0  0  0  0  0  0  0  0  0  0  0
    5.3170   13.9860   -2.4360 C   0  0  0  0  0  0  0  0  0  0  0  0
    5.8930   13.2400   -3.6370 C   0  0  2  0  0  0  0  0  0  0  0  0
    5.8590   14.1040   -4.7770 O   0  0  0  0  0  0  0  0  0  0  0  0
    5.1370   11.9200   -3.9580 C   0  0  0  0  0  0  0  0  0  0  0  0
    5.4260   10.8730   -2.8550 C   0  0  0  0  0  0  0  0  0  0  0  0
    5.7270   11.3400   -5.2720 C   0  0  0  0  0  0  0  0  0  0  0  0
    1.4430   13.2440   -2.9330 C   0  0  1  0  0  0  0  0  0  0  0  0
    1.1770   14.5400   -3.7590 C   0  0  0  0  0  0  0  0  0  0  0  0
    0.8890   13.5180   -1.4850 C   0  0  0  0  0  0  0  0  0  0  0  0
    0.4470   12.2910   -0.6660 C   0  0  0  0  0  0  0  0  0  0  0  0
   -0.4800   11.3890   -1.4870 C   0  0  2  0  0  0  0  0  0  0  0  0
   -1.7700   12.2100   -1.8260 C   0  0  0  0  0  0  0  0  0  0  0  0
   -2.0400   10.1049    2.4055 H   0  0  0  0  0  0  0  0  0  0  0  0
   -0.4040    9.9089    1.6901 H   0  0  0  0  0  0  0  0  0  0  0  0
   -1.1971   11.5206    1.6901 H   0  0  0  0  0  0  0  0  0  0  0  0
   -2.6990   10.9400    0.0093 H   0  0  0  0  0  0  0  0  0  0  0  0
   -2.2200    8.0371   -0.2531 H   0  0  0  0  0  0  0  0  0  0  0  0
   -2.9862    8.5644    1.3212 H   0  0  0  0  0  0  0  0  0  0  0  0
   -4.8798    9.3917    0.2858 H   0  0  0  0  0  0  0  0  0  0  0  0
   -4.0579    9.5216   -1.3250 H   0  0  0  0  0  0  0  0  0  0  0  0
   -4.2399    7.1080    0.0778 H   0  0  0  0  0  0  0  0  0  0  0  0
   -7.3030    8.9792   -0.8551 H   0  0  0  0  0  0  0  0  0  0  0  0
   -6.3918    9.2707   -2.3755 H   0  0  0  0  0  0  0  0  0  0  0  0
   -7.8094    8.1675   -2.3755 H   0  0  0  0  0  0  0  0  0  0  0  0
   -6.8297    5.7557   -0.3171 H   0  0  0  0  0  0  0  0  0  0  0  0
   -7.6826    6.0548   -1.8694 H   0  0  0  0  0  0  0  0  0  0  0  0
   -6.0653    5.2732   -1.8694 H   0  0  0  0  0  0  0  0  0  0  0  0
   -0.0886    9.6447   -0.2297 H   0  0  0  0  0  0  0  0  0  0  0  0
   -0.9597    8.1630   -1.9289 H   0  0  0  0  0  0  0  0  0  0  0  0
   -2.4312    9.1371   -2.1336 H   0  0  0  0  0  0  0  0  0  0  0  0
   -0.2043    9.0955   -3.9242 H   0  0  0  0  0  0  0  0  0  0  0  0
   -1.4625   10.3285   -3.9419 H   0  0  0  0  0  0  0  0  0  0  0  0
    1.6869    9.9408   -1.3059 H   0  0  0  0  0  0  0  0  0  0  0  0
    1.4677    9.0058   -2.8239 H   0  0  0  0  0  0  0  0  0  0  0  0
    2.4701   10.4964   -2.8239 H   0  0  0  0  0  0  0  0  0  0  0  0
   -0.3287   12.4678   -3.9242 H   0  0  0  0  0  0  0  0  0  0  0  0
    0.9635   10.7126   -5.2999 H   0  0  0  0  0  0  0  0  0  0  0  0
    1.0685   12.5058   -5.7041 H   0  0  0  0  0  0  0  0  0  0  0  0
    3.3257   11.1515   -5.8159 H   0  0  0  0  0  0  0  0  0  0  0  0
    3.0843   12.3215   -1.9597 H   0  0  0  0  0  0  0  0  0  0  0  0
    3.7038   14.9139   -3.5075 H   0  0  0  0  0  0  0  0  0  0  0  0
    3.4585   14.7458   -1.7126 H   0  0  0  0  0  0  0  0  0  0  0  0
    5.8493   14.9412   -2.3165 H   0  0  0  0  0  0  0  0  0  0  0  0
    5.4438   13.3603   -1.5402 H   0  0  0  0  0  0  0  0  0  0  0  0
    6.9256   12.9567   -3.3850 H   0  0  0  0  0  0  0  0  0  0  0  0
    6.2640   13.6270   -5.5200 H   0  0  0  0  0  0  0  0  0  0  0  0
    5.2978   11.3373   -1.8661 H   0  0  0  0  0  0  0  0  0  0  0  0
    4.7270   10.0299   -2.9576 H   0  0  0  0  0  0  0  0  0  0  0  0
    6.4585   10.5078   -2.9576 H   0  0  0  0  0  0  0  0  0  0  0  0
    6.4922   10.5878   -5.0297 H   0  0  0  0  0  0  0  0  0  0  0  0
    4.9238   10.8702   -5.8586 H   0  0  0  0  0  0  0  0  0  0  0  0
    6.1830   12.1512   -5.8586 H   0  0  0  0  0  0  0  0  0  0  0  0
    1.0040   15.3827   -3.0735 H   0  0  0  0  0  0  0  0  0  0  0  0
    2.0495   14.7562   -4.3930 H   0  0  0  0  0  0  0  0  0  0  0  0
    0.2899   14.3951   -4.3930 H   0  0  0  0  0  0  0  0  0  0  0  0
    1.6804   14.0293   -0.9173 H   0  0  0  0  0  0  0  0  0  0  0  0
   -0.0268   14.1088   -1.6346 H   0  0  0  0  0  0  0  0  0  0  0  0
    1.3371   11.7170   -0.3688 H   0  0  0  0  0  0  0  0  0  0  0  0
   -0.0998   12.6405    0.2222 H   0  0  0  0  0  0  0  0  0  0  0  0
   -2.2614   12.5227   -0.8929 H   0  0  0  0  0  0  0  0  0  0  0  0
   -1.4951   13.0996   -2.4116 H   0  0  0  0  0  0  0  0  0  0  0  0
   -2.4595   11.5842   -2.4116 H   0  0  0  0  0  0  0  0  0  0  0  0
  1  2  1  0
  2  3  1  0
  3  4  1  0
  4  5  1  0
  5  6  1  0
  6  7  1  0
  7  8  1  0
  7  9  1  0
  2 10  1  0
 10 11  1  0
 11 12  1  0
 12 13  1  0
 13 14  1  1
 13 15  1  0
 15 16  1  0
 16 17  1  0
 17 18  2  0
 18 19  1  0
 19 20  1  0
 20 21  1  0
 21 22  1  0
 22 23  1  0
 22 24  1  0
 24 25  1  0
 24 26  1  0
 19 27  1  0
 27 28  1  6
 27 29  1  0
 29 30  1  0
 30 31  1  0
 31 32  1  6
  7  5  1  0
 31 10  1  0
 31 13  1  0
 27 15  1  0
 24 18  1  0
  1 33  1  0
  1 34  1  0
  1 35  1  0
  2 36  1  6
  3 37  1  0
  3 38  1  0
  4 39  1  0
  4 40  1  0
  5 41  1  1
  8 42  1  0
  8 43  1  0
  8 44  1  0
  9 45  1  0
  9 46  1  0
  9 47  1  0
 10 48  1  1
 11 49  1  0
 11 50  1  0
 12 51  1  0
 12 52  1  0
 14 53  1  0
 14 54  1  0
 14 55  1  0
 15 56  1  6
 16 57  1  0
 16 58  1  0
 17 59  1  0
 19 60  1  1
 20 61  1  0
 20 62  1  0
 21 63  1  0
 21 64  1  0
 22 65  1  1
 23 66  1  0
 25 67  1  0
 25 68  1  0
 25 69  1  0
 26 70  1  0
 26 71  1  0
 26 72  1  0
 28 73  1  0
 28 74  1  0
 28 75  1  0
 29 76  1  0
 29 77  1  0
 30 78  1  0
 30 79  1  0
 32 80  1  0
 32 81  1  0
 32 82  1  0
M  END
>  <meeko>  (13) 
{"is_sidechain": [false], "intermolecular_energy": 2.731, "internal_energy": -0.839}

$$$$
EPH_relaxed_0001_pdb2pqr_Repair_164_r2_0001_out
     RDKit          3D

 82 86  0  0  0  0  0  0  0  0999 V2000
    2.8870   10.4710   -3.2710 C   0  0  0  0  0  0  0  0  0  0  0  0
    3.4910   10.8180   -1.9070 C   0  0  2  0  0  0  0  0  0  0  0  0
    2.6190   10.3140   -0.7400 C   0  0  0  0  0  0  0  0  0  0  0  0
    1.5370    9.3180   -1.1670 C   0  0  0  0  0  0  0  0  0  0  0  0
    0.3130    9.4280   -0.3090 C   0  0  2  0  0  0  0  0  0  0  0  0
   -0.3840    8.1930   -0.0980 O   0  0  0  0  0  0  0  0  0  0  0  0
   -1.0950    9.2050   -0.8280 C   0  0  0  0  0  0  0  0  0  0  0  0
   -1.3530    8.8550   -2.2600 C   0  0  0  0  0  0  0  0  0  0  0  0
   -2.2400    9.8020   -0.0710 C   0  0  0  0  0  0  0  0  0  0  0  0
    3.6900   12.3250   -1.7950 C   0  0  1  0  0  0  0  0  0  0  0  0
    4.8570   12.8410   -2.6790 C   0  0  0  0  0  0  0  0  0  0  0  0
    4.4450   14.2460   -3.1890 C   0  0  0  0  0  0  0  0  0  0  0  0
    3.2200   14.6300   -2.3260 C   0  0  1  0  0  0  0  0  0  0  0  0
    3.8220   15.1550   -0.9850 C   0  0  0  0  0  0  0  0  0  0  0  0
    2.2270   15.6610   -2.9560 C   0  0  2  0  0  0  0  0  0  0  0  0
    2.8240   17.0500   -3.2430 C   0  0  0  0  0  0  0  0  0  0  0  0
    2.7040   18.0380   -2.1310 C   0  0  0  0  0  0  0  0  0  0  0  0
    1.8950   17.9170   -1.0610 C   0  0  0  0  0  0  0  0  0  0  0  0
    0.9170   16.7420   -0.9420 C   0  0  1  0  0  0  0  0  0  0  0  0
   -0.4770   17.2700   -0.5130 C   0  0  0  0  0  0  0  0  0  0  0  0
   -0.4180   18.1110    0.7580 C   0  0  0  0  0  0  0  0  0  0  0  0
    0.5200   19.3030    0.5810 C   0  0  2  0  0  0  0  0  0  0  0  0
   -0.0460   20.1940   -0.3850 O   0  0  0  0  0  0  0  0  0  0  0  0
    1.9530   18.8940    0.1390 C   0  0  0  0  0  0  0  0  0  0  0  0
    2.6750   18.1830    1.3100 C   0  0  0  0  0  0  0  0  0  0  0  0
    2.7550   20.1930   -0.1400 C   0  0  0  0  0  0  0  0  0  0  0  0
    0.8420   15.7720   -2.1990 C   0  0  1  0  0  0  0  0  0  0  0  0
   -0.1880   16.3210   -3.2330 C   0  0  0  0  0  0  0  0  0  0  0  0
    0.2990   14.3690   -1.7340 C   0  0  0  0  0  0  0  0  0  0  0  0
    1.3430   13.3520   -1.2340 C   0  0  0  0  0  0  0  0  0  0  0  0
    2.5080   13.2320   -2.2210 C   0  0  2  0  0  0  0  0  0  0  0  0
    1.9360   12.6850   -3.5730 C   0  0  0  0  0  0  0  0  0  0  0  0
    1.9415    9.9278   -3.1259 H   0  0  0  0  0  0  0  0  0  0  0  0
    2.6954   11.3967   -3.8334 H   0  0  0  0  0  0  0  0  0  0  0  0
    3.5902    9.8392   -3.8334 H   0  0  0  0  0  0  0  0  0  0  0  0
    4.4631   10.3080   -1.8366 H   0  0  0  0  0  0  0  0  0  0  0  0
    3.2730    9.8226   -0.0046 H   0  0  0  0  0  0  0  0  0  0  0  0
    2.1027   11.1907   -0.3219 H   0  0  0  0  0  0  0  0  0  0  0  0
    1.2592    9.5197   -2.2120 H   0  0  0  0  0  0  0  0  0  0  0  0
    1.9433    8.3018   -1.0564 H   0  0  0  0  0  0  0  0  0  0  0  0
    0.7649   10.2460    0.2713 H   0  0  0  0  0  0  0  0  0  0  0  0
   -2.0050    7.9705   -2.3095 H   0  0  0  0  0  0  0  0  0  0  0  0
   -1.8448    9.7016   -2.7615 H   0  0  0  0  0  0  0  0  0  0  0  0
   -0.3988    8.6357   -2.7615 H   0  0  0  0  0  0  0  0  0  0  0  0
   -2.0554    9.7058    1.0091 H   0  0  0  0  0  0  0  0  0  0  0  0
   -2.3378   10.8659   -0.3329 H   0  0  0  0  0  0  0  0  0  0  0  0
   -3.1683    9.2731   -0.3329 H   0  0  0  0  0  0  0  0  0  0  0  0
    3.8572   12.4088   -0.7110 H   0  0  0  0  0  0  0  0  0  0  0  0
    5.7804   12.9094   -2.0851 H   0  0  0  0  0  0  0  0  0  0  0  0
    5.0486   12.1567   -3.5187 H   0  0  0  0  0  0  0  0  0  0  0  0
    5.2632   14.9669   -3.0447 H   0  0  0  0  0  0  0  0  0  0  0  0
    4.2151   14.2487   -4.2647 H   0  0  0  0  0  0  0  0  0  0  0  0
    3.2919   14.6927   -0.1393 H   0  0  0  0  0  0  0  0  0  0  0  0
    4.8895   14.8942   -0.9353 H   0  0  0  0  0  0  0  0  0  0  0  0
    3.7089   16.2480   -0.9353 H   0  0  0  0  0  0  0  0  0  0  0  0
    2.0179   15.2168   -3.9404 H   0  0  0  0  0  0  0  0  0  0  0  0
    3.8928   16.9205   -3.4686 H   0  0  0  0  0  0  0  0  0  0  0  0
    2.2435   17.4633   -4.0810 H   0  0  0  0  0  0  0  0  0  0  0  0
    3.3290   18.9413   -2.1902 H   0  0  0  0  0  0  0  0  0  0  0  0
    1.3245   16.0854   -0.1592 H   0  0  0  0  0  0  0  0  0  0  0  0
   -0.8855   17.8880   -1.3261 H   0  0  0  0  0  0  0  0  0  0  0  0
   -1.1154   16.3982   -0.3072 H   0  0  0  0  0  0  0  0  0  0  0  0
   -1.4275   18.4792    0.9932 H   0  0  0  0  0  0  0  0  0  0  0  0
   -0.0370   17.4831    1.5769 H   0  0  0  0  0  0  0  0  0  0  0  0
    0.6221   19.7921    1.5610 H   0  0  0  0  0  0  0  0  0  0  0  0
   -0.5930   20.8390    0.0950 H   0  0  0  0  0  0  0  0  0  0  0  0
    2.2872   18.5649    2.2659 H   0  0  0  0  0  0  0  0  0  0  0  0
    2.4952   17.0996    1.2480 H   0  0  0  0  0  0  0  0  0  0  0  0
    3.7555   18.3795    1.2480 H   0  0  0  0  0  0  0  0  0  0  0  0
    3.0424   20.6586    0.8143 H   0  0  0  0  0  0  0  0  0  0  0  0
    3.6597   19.9488   -0.7160 H   0  0  0  0  0  0  0  0  0  0  0  0
    2.1313   20.8924   -0.7160 H   0  0  0  0  0  0  0  0  0  0  0  0
   -1.0371   16.7736   -2.6999 H   0  0  0  0  0  0  0  0  0  0  0  0
    0.2957   17.0809   -3.8643 H   0  0  0  0  0  0  0  0  0  0  0  0
   -0.5492   15.4958   -3.8643 H   0  0  0  0  0  0  0  0  0  0  0  0
   -0.4150   14.5429   -0.9155 H   0  0  0  0  0  0  0  0  0  0  0  0
   -0.1366   13.9150   -2.6363 H   0  0  0  0  0  0  0  0  0  0  0  0
    1.7300   13.6834   -0.2591 H   0  0  0  0  0  0  0  0  0  0  0  0
    0.8586   12.3687   -1.1419 H   0  0  0  0  0  0  0  0  0  0  0  0
    1.1553   11.9384   -3.3655 H   0  0  0  0  0  0  0  0  0  0  0  0
    1.5048   13.5154   -4.1514 H   0  0  0  0  0  0  0  0  0  0  0  0
    2.7463   12.2172   -4.1514 H   0  0  0  0  0  0  0  0  0  0  0  0
  1  2  1  0
  2  3  1  0
  3  4  1  0
  4  5  1  0
  5  6  1  0
  6  7  1  0
  7  8  1  0
  7  9  1  0
  2 10  1  0
 10 11  1  0
 11 12  1  0
 12 13  1  0
 13 14  1  1
 13 15  1  0
 15 16  1  0
 16 17  1  0
 17 18  2  0
 18 19  1  0
 19 20  1  0
 20 21  1  0
 21 22  1  0
 22 23  1  0
 22 24  1  0
 24 25  1  0
 24 26  1  0
 19 27  1  0
 27 28  1  6
 27 29  1  0
 29 30  1  0
 30 31  1  0
 31 32  1  6
  7  5  1  0
 31 10  1  0
 31 13  1  0
 27 15  1  0
 24 18  1  0
  1 33  1  0
  1 34  1  0
  1 35  1  0
  2 36  1  6
  3 37  1  0
  3 38  1  0
  4 39  1  0
  4 40  1  0
  5 41  1  1
  8 42  1  0
  8 43  1  0
  8 44  1  0
  9 45  1  0
  9 46  1  0
  9 47  1  0
 10 48  1  1
 11 49  1  0
 11 50  1  0
 12 51  1  0
 12 52  1  0
 14 53  1  0
 14 54  1  0
 14 55  1  0
 15 56  1  6
 16 57  1  0
 16 58  1  0
 17 59  1  0
 19 60  1  1
 20 61  1  0
 20 62  1  0
 21 63  1  0
 21 64  1  0
 22 65  1  1
 23 66  1  0
 25 67  1  0
 25 68  1  0
 25 69  1  0
 26 70  1  0
 26 71  1  0
 26 72  1  0
 28 73  1  0
 28 74  1  0
 28 75  1  0
 29 76  1  0
 29 77  1  0
 30 78  1  0
 30 79  1  0
 32 80  1  0
 32 81  1  0
 32 82  1  0
M  END
>  <meeko>  (14) 
{"is_sidechain": [false], "intermolecular_energy": 2.731, "internal_energy": -0.839}

$$$$
EPH_relaxed_0001_pdb2pqr_Repair_164_r2_0001_out
     RDKit          3D

 82 86  0  0  0  0  0  0  0  0999 V2000
   -1.4660    9.6840    0.3180 C   0  0  0  0  0  0  0  0  0  0  0  0
   -0.5390   10.3980   -0.6690 C   0  0  2  0  0  0  0  0  0  0  0  0
    0.6910    9.5420   -1.0330 C   0  0  0  0  0  0  0  0  0  0  0  0
    0.7040    9.0690   -2.4890 C   0  0  0  0  0  0  0  0  0  0  0  0
    0.1180   10.0970   -3.4100 C   0  0  2  0  0  0  0  0  0  0  0  0
    0.2470    9.7920   -4.8050 O   0  0  0  0  0  0  0  0  0  0  0  0
    0.9520   10.9560   -4.3430 C   0  0  0  0  0  0  0  0  0  0  0  0
    2.4420   10.8270   -4.4000 C   0  0  0  0  0  0  0  0  0  0  0  0
    0.3740   12.2460   -4.8350 C   0  0  0  0  0  0  0  0  0  0  0  0
   -0.0910   11.7340   -0.0890 C   0  0  1  0  0  0  0  0  0  0  0  0
    0.8250   11.5690    1.1530 C   0  0  0  0  0  0  0  0  0  0  0  0
    1.8580   12.7240    1.1030 C   0  0  0  0  0  0  0  0  0  0  0  0
    1.3050   13.6970    0.0360 C   0  0  1  0  0  0  0  0  0  0  0  0
    0.2170   14.5330    0.7800 C   0  0  0  0  0  0  0  0  0  0  0  0
    2.3540   14.6150   -0.6730 C   0  0  2  0  0  0  0  0  0  0  0  0
    3.0940   15.5950    0.2540 C   0  0  0  0  0  0  0  0  0  0  0  0
    2.4490   16.9320    0.4140 C   0  0  0  0  0  0  0  0  0  0  0  0
    1.4810   17.4330   -0.3770 C   0  0  0  0  0  0  0  0  0  0  0  0
    1.0070   16.6710   -1.6210 C   0  0  1  0  0  0  0  0  0  0  0  0
    0.9220   17.6460   -2.8240 C   0  0  0  0  0  0  0  0  0  0  0  0
    0.0600   18.8700   -2.5260 C   0  0  0  0  0  0  0  0  0  0  0  0
    0.5970   19.6330   -1.3180 C   0  0  2  0  0  0  0  0  0  0  0  0
    1.8700   20.1940   -1.6550 O   0  0  0  0  0  0  0  0  0  0  0  0
    0.7360   18.7500   -0.0470 C   0  0  0  0  0  0  0  0  0  0  0  0
   -0.6700   18.3900    0.4930 C   0  0  0  0  0  0  0  0  0  0  0  0
    1.4190   19.6030    1.0560 C   0  0  0  0  0  0  0  0  0  0  0  0
    1.8080   15.3430   -1.9670 C   0  0  1  0  0  0  0  0  0  0  0  0
    3.0520   15.6850   -2.8430 C   0  0  0  0  0  0  0  0  0  0  0  0
    0.8940   14.4050   -2.8410 C   0  0  0  0  0  0  0  0  0  0  0  0
   -0.0340   13.4360   -2.0830 C   0  0  0  0  0  0  0  0  0  0  0  0
    0.7390   12.6660   -1.0080 C   0  0  2  0  0  0  0  0  0  0  0  0
    1.8260   11.7980   -1.7290 C   0  0  0  0  0  0  0  0  0  0  0  0
   -1.1583    9.9210    1.3471 H   0  0  0  0  0  0  0  0  0  0  0  0
   -2.5010   10.0205    0.1581 H   0  0  0  0  0  0  0  0  0  0  0  0
   -1.4049    8.5974    0.1581 H   0  0  0  0  0  0  0  0  0  0  0  0
   -1.1088   10.5677   -1.5945 H   0  0  0  0  0  0  0  0  0  0  0  0
    1.5960   10.1413   -0.8547 H   0  0  0  0  0  0  0  0  0  0  0  0
    0.6527    8.6410   -0.4032 H   0  0  0  0  0  0  0  0  0  0  0  0
    1.7432    8.8710   -2.7905 H   0  0  0  0  0  0  0  0  0  0  0  0
    0.0932    8.1569   -2.5593 H   0  0  0  0  0  0  0  0  0  0  0  0
   -0.6604   10.3481   -2.6745 H   0  0  0  0  0  0  0  0  0  0  0  0
    2.8464   10.7920   -3.3776 H   0  0  0  0  0  0  0  0  0  0  0  0
    2.7099    9.9023   -4.9321 H   0  0  0  0  0  0  0  0  0  0  0  0
    2.8648   11.6919   -4.9321 H   0  0  0  0  0  0  0  0  0  0  0  0
    0.0930   12.8731   -3.9761 H   0  0  0  0  0  0  0  0  0  0  0  0
    1.1217   12.7737   -5.4453 H   0  0  0  0  0  0  0  0  0  0  0  0
   -0.5175   12.0392   -5.4453 H   0  0  0  0  0  0  0  0  0  0  0  0
   -1.0733   12.1848    0.1157 H   0  0  0  0  0  0  0  0  0  0  0  0
    0.2285   11.6338    2.0750 H   0  0  0  0  0  0  0  0  0  0  0  0
    1.3264   10.5899    1.1469 H   0  0  0  0  0  0  0  0  0  0  0  0
    1.9316   13.2216    2.0812 H   0  0  0  0  0  0  0  0  0  0  0  0
    2.8697   12.3681    0.8583 H   0  0  0  0  0  0  0  0  0  0  0  0
    0.3534   14.4282    1.8665 H   0  0  0  0  0  0  0  0  0  0  0  0
    0.3126   15.5922    0.4989 H   0  0  0  0  0  0  0  0  0  0  0  0
   -0.7818   14.1678    0.4989 H   0  0  0  0  0  0  0  0  0  0  0  0
    3.1118   13.8924   -1.0099 H   0  0  0  0  0  0  0  0  0  0  0  0
    3.1676   15.1319    1.2490 H   0  0  0  0  0  0  0  0  0  0  0  0
    4.0698   15.7824   -0.2180 H   0  0  0  0  0  0  0  0  0  0  0  0
    2.7935   17.5608    1.2482 H   0  0  0  0  0  0  0  0  0  0  0  0
    0.0045   16.2880   -1.3798 H   0  0  0  0  0  0  0  0  0  0  0  0
    1.9380   17.9834   -3.0768 H   0  0  0  0  0  0  0  0  0  0  0  0
    0.4552   17.1046   -3.6601 H   0  0  0  0  0  0  0  0  0  0  0  0
    0.0631   19.5348   -3.4024 H   0  0  0  0  0  0  0  0  0  0  0  0
   -0.9632   18.5335   -2.3028 H   0  0  0  0  0  0  0  0  0  0  0  0
   -0.1324   20.4197   -1.0750 H   0  0  0  0  0  0  0  0  0  0  0  0
    2.0230   20.0270   -2.6010 H   0  0  0  0  0  0  0  0  0  0  0  0
   -0.6526   18.3945    1.5929 H   0  0  0  0  0  0  0  0  0  0  0  0
   -1.4009   19.1300    0.1349 H   0  0  0  0  0  0  0  0  0  0  0  0
   -0.9553   17.3898    0.1349 H   0  0  0  0  0  0  0  0  0  0  0  0
    1.1198   19.2293    2.0464 H   0  0  0  0  0  0  0  0  0  0  0  0
    2.5116   19.5306    0.9515 H   0  0  0  0  0  0  0  0  0  0  0  0
    1.1094   20.6534    0.9515 H   0  0  0  0  0  0  0  0  0  0  0  0
    3.9062   15.9198   -2.1910 H   0  0  0  0  0  0  0  0  0  0  0  0
    3.3017   14.8222   -3.4780 H   0  0  0  0  0  0  0  0  0  0  0  0
    2.8255   16.5542   -3.4780 H   0  0  0  0  0  0  0  0  0  0  0  0
    0.2610   15.0488   -3.4693 H   0  0  0  0  0  0  0  0  0  0  0  0
    1.5911   13.7604   -3.3964 H   0  0  0  0  0  0  0  0  0  0  0  0
   -0.8407   14.0105   -1.6043 H   0  0  0  0  0  0  0  0  0  0  0  0
   -0.4499   12.7141   -2.8013 H   0  0  0  0  0  0  0  0  0  0  0  0
    2.4533   11.2971   -0.9770 H   0  0  0  0  0  0  0  0  0  0  0  0
    1.3335   11.0419   -2.3581 H   0  0  0  0  0  0  0  0  0  0  0  0
    2.4544   12.4456   -2.3581 H   0  0  0  0  0  0  0  0  0  0  0  0
  1  2  1  0
  2  3  1  0
  3  4  1  0
  4  5  1  0
  5  6  1  0
  6  7  1  0
  7  8  1  0
  7  9  1  0
  2 10  1  0
 10 11  1  0
 11 12  1  0
 12 13  1  0
 13 14  1  1
 13 15  1  0
 15 16  1  0
 16 17  1  0
 17 18  2  0
 18 19  1  0
 19 20  1  0
 20 21  1  0
 21 22  1  0
 22 23  1  0
 22 24  1  0
 24 25  1  0
 24 26  1  0
 19 27  1  0
 27 28  1  6
 27 29  1  0
 29 30  1  0
 30 31  1  0
 31 32  1  6
  7  5  1  0
 31 10  1  0
 31 13  1  0
 27 15  1  0
 24 18  1  0
  1 33  1  0
  1 34  1  0
  1 35  1  0
  2 36  1  6
  3 37  1  0
  3 38  1  0
  4 39  1  0
  4 40  1  0
  5 41  1  1
  8 42  1  0
  8 43  1  0
  8 44  1  0
  9 45  1  0
  9 46  1  0
  9 47  1  0
 10 48  1  1
 11 49  1  0
 11 50  1  0
 12 51  1  0
 12 52  1  0
 14 53  1  0
 14 54  1  0
 14 55  1  0
 15 56  1  6
 16 57  1  0
 16 58  1  0
 17 59  1  0
 19 60  1  1
 20 61  1  0
 20 62  1  0
 21 63  1  0
 21 64  1  0
 22 65  1  1
 23 66  1  0
 25 67  1  0
 25 68  1  0
 25 69  1  0
 26 70  1  0
 26 71  1  0
 26 72  1  0
 28 73  1  0
 28 74  1  0
 28 75  1  0
 29 76  1  0
 29 77  1  0
 30 78  1  0
 30 79  1  0
 32 80  1  0
 32 81  1  0
 32 82  1  0
M  END
>  <meeko>  (15) 
{"is_sidechain": [false], "intermolecular_energy": 2.731, "internal_energy": -0.839}

$$$$
EPH_relaxed_0001_pdb2pqr_Repair_164_r2_0001_out
     RDKit          3D

 82 86  0  0  0  0  0  0  0  0999 V2000
   -0.2030    9.6290   -4.1410 C   0  0  0  0  0  0  0  0  0  0  0  0
    0.9450   10.5540   -3.7260 C   0  0  2  0  0  0  0  0  0  0  0  0
    1.8780    9.8930   -2.6920 C   0  0  0  0  0  0  0  0  0  0  0  0
    1.1600    8.9320   -1.7410 C   0  0  0  0  0  0  0  0  0  0  0  0
    1.2010    9.4210   -0.3240 C   0  0  2  0  0  0  0  0  0  0  0  0
    0.6600    8.5090    0.6400 O   0  0  0  0  0  0  0  0  0  0  0  0
   -0.0410    9.7530    0.4820 C   0  0  0  0  0  0  0  0  0  0  0  0
   -1.4120    9.6090   -0.1020 C   0  0  0  0  0  0  0  0  0  0  0  0
    0.0920   10.6730    1.6550 C   0  0  0  0  0  0  0  0  0  0  0  0
    0.3860   11.8570   -3.1660 C   0  0  1  0  0  0  0  0  0  0  0  0
   -0.8040   11.6290   -2.1970 C   0  0  0  0  0  0  0  0  0  0  0  0
   -0.7030   12.7190   -1.0990 C   0  0  0  0  0  0  0  0  0  0  0  0
    0.3310   13.7290   -1.6480 C   0  0  1  0  0  0  0  0  0  0  0  0
   -0.4720   14.6260   -2.6410 C   0  0  0  0  0  0  0  0  0  0  0  0
    1.0930   14.5850   -0.5840 C   0  0  2  0  0  0  0  0  0  0  0  0
    0.2050   15.5130    0.2640 C   0  0  0  0  0  0  0  0  0  0  0  0
    0.0070   16.8860   -0.2880 C   0  0  0  0  0  0  0  0  0  0  0  0
    0.7430   17.4500   -1.2640 C   0  0  0  0  0  0  0  0  0  0  0  0
    1.9620   16.7260   -1.8500 C   0  0  1  0  0  0  0  0  0  0  0  0
    3.1570   17.7120   -1.9390 C   0  0  0  0  0  0  0  0  0  0  0  0
    2.8100   18.9840   -2.7060 C   0  0  0  0  0  0  0  0  0  0  0  0
    1.6300   19.7060   -2.0590 C   0  0  2  0  0  0  0  0  0  0  0  0
    2.0340   20.1890   -0.7740 O   0  0  0  0  0  0  0  0  0  0  0  0
    0.3710   18.8080   -1.9080 C   0  0  0  0  0  0  0  0  0  0  0  0
   -0.2430   18.5330   -3.3030 C   0  0  0  0  0  0  0  0  0  0  0  0
   -0.6960   19.6120   -1.1150 C   0  0  0  0  0  0  0  0  0  0  0  0
    2.3550   15.3530   -1.1520 C   0  0  1  0  0  0  0  0  0  0  0  0
    3.2950   15.6230    0.0630 C   0  0  0  0  0  0  0  0  0  0  0  0
    3.1810   14.4780   -2.1670 C   0  0  0  0  0  0  0  0  0  0  0  0
    2.3760   13.5640   -3.1110 C   0  0  0  0  0  0  0  0  0  0  0  0
    1.3460   12.7410   -2.3310 C   0  0  2  0  0  0  0  0  0  0  0  0
    2.1260   11.8130   -1.3390 C   0  0  0  0  0  0  0  0  0  0  0  0
   -0.6966    9.2312   -3.2421 H   0  0  0  0  0  0  0  0  0  0  0  0
   -0.9319   10.1951   -4.7395 H   0  0  0  0  0  0  0  0  0  0  0  0
    0.1951    8.7963   -4.7395 H   0  0  0  0  0  0  0  0  0  0  0  0
    1.5438   10.7625   -4.6249 H   0  0  0  0  0  0  0  0  0  0  0  0
    2.6536    9.3312   -3.2332 H   0  0  0  0  0  0  0  0  0  0  0  0
    2.2984   10.7012   -2.0754 H   0  0  0  0  0  0  0  0  0  0  0  0
    0.1101    8.8373   -2.0553 H   0  0  0  0  0  0  0  0  0  0  0  0
    1.6731    7.9599   -1.7835 H   0  0  0  0  0  0  0  0  0  0  0  0
    2.1259    9.9833   -0.5198 H   0  0  0  0  0  0  0  0  0  0  0  0
   -2.1501    9.5315    0.7099 H   0  0  0  0  0  0  0  0  0  0  0  0
   -1.6404   10.4881   -0.7225 H   0  0  0  0  0  0  0  0  0  0  0  0
   -1.4528    8.7016   -0.7225 H   0  0  0  0  0  0  0  0  0  0  0  0
    0.0083   10.0939    2.5865 H   0  0  0  0  0  0  0  0  0  0  0  0
    1.0716   11.1721    1.6203 H   0  0  0  0  0  0  0  0  0  0  0  0
   -0.7062   11.4291    1.6203 H   0  0  0  0  0  0  0  0  0  0  0  0
    0.1270   12.3661   -4.1061 H   0  0  0  0  0  0  0  0  0  0  0  0
   -1.7568   11.7241   -2.7384 H   0  0  0  0  0  0  0  0  0  0  0  0
   -0.7674   10.6214   -1.7573 H   0  0  0  0  0  0  0  0  0  0  0  0
   -1.6772   13.2058   -0.9439 H   0  0  0  0  0  0  0  0  0  0  0  0
   -0.4051   12.3041   -0.1248 H   0  0  0  0  0  0  0  0  0  0  0  0
   -1.1008   15.3284   -2.0742 H   0  0  0  0  0  0  0  0  0  0  0  0
    0.2286   15.1900   -3.2743 H   0  0  0  0  0  0  0  0  0  0  0  0
   -1.1098   13.9919   -3.2743 H   0  0  0  0  0  0  0  0  0  0  0  0
    1.4713   13.8184    0.1082 H   0  0  0  0  0  0  0  0  0  0  0  0
   -0.7835   15.0406    0.3627 H   0  0  0  0  0  0  0  0  0  0  0  0
    0.7289   15.6431    1.2224 H   0  0  0  0  0  0  0  0  0  0  0  0
   -0.8091   17.4875    0.1388 H   0  0  0  0  0  0  0  0  0  0  0  0
    1.6676   16.4040   -2.8598 H   0  0  0  0  0  0  0  0  0  0  0  0
    3.4633   17.9877   -0.9191 H   0  0  0  0  0  0  0  0  0  0  0  0
    3.9682   17.2053   -2.4824 H   0  0  0  0  0  0  0  0  0  0  0  0
    3.6836   19.6525   -2.7087 H   0  0  0  0  0  0  0  0  0  0  0  0
    2.5329   18.7095   -3.7345 H   0  0  0  0  0  0  0  0  0  0  0  0
    1.3455   20.5352   -2.7235 H   0  0  0  0  0  0  0  0  0  0  0  0
    2.7550   20.8260   -0.9130 H   0  0  0  0  0  0  0  0  0  0  0  0
   -1.2409   18.0861   -3.1828 H   0  0  0  0  0  0  0  0  0  0  0  0
   -0.3292   19.4785   -3.8585 H   0  0  0  0  0  0  0  0  0  0  0  0
    0.4050   17.8391   -3.8585 H   0  0  0  0  0  0  0  0  0  0  0  0
   -0.5250   19.4832   -0.0360 H   0  0  0  0  0  0  0  0  0  0  0  0
   -0.6187   20.6783   -1.3738 H   0  0  0  0  0  0  0  0  0  0  0  0
   -1.6997   19.2437   -1.3738 H   0  0  0  0  0  0  0  0  0  0  0  0
    2.7395   15.4634    0.9989 H   0  0  0  0  0  0  0  0  0  0  0  0
    4.1522   14.9347    0.0235 H   0  0  0  0  0  0  0  0  0  0  0  0
    3.6563   16.6612    0.0235 H   0  0  0  0  0  0  0  0  0  0  0  0
    3.7732   15.1628   -2.7917 H   0  0  0  0  0  0  0  0  0  0  0  0
    3.7747   13.7949   -1.5417 H   0  0  0  0  0  0  0  0  0  0  0  0
    1.8530   14.1847   -3.8534 H   0  0  0  0  0  0  0  0  0  0  0  0
    3.0726   12.8733   -3.6087 H   0  0  0  0  0  0  0  0  0  0  0  0
    1.8860   12.0985   -0.3042 H   0  0  0  0  0  0  0  0  0  0  0  0
    1.8323   10.7665   -1.5081 H   0  0  0  0  0  0  0  0  0  0  0  0
    3.2074   11.9223   -1.5081 H   0  0  0  0  0  0  0  0  0  0  0  0
  1  2  1  0
  2  3  1  0
  3  4  1  0
  4  5  1  0
  5  6  1  0
  6  7  1  0
  7  8  1  0
  7  9  1  0
  2 10  1  0
 10 11  1  0
 11 12  1  0
 12 13  1  0
 13 14  1  6
 13 15  1  0
 15 16  1  0
 16 17  1  0
 17 18  2  0
 18 19  1  0
 19 20  1  0
 20 21  1  0
 21 22  1  0
 22 23  1  0
 22 24  1  0
 24 25  1  0
 24 26  1  0
 19 27  1  0
 27 28  1  1
 27 29  1  0
 29 30  1  0
 30 31  1  0
 31 32  1  1
  7  5  1  0
 31 10  1  0
 31 13  1  0
 27 15  1  0
 24 18  1  0
  1 33  1  0
  1 34  1  0
  1 35  1  0
  2 36  1  6
  3 37  1  0
  3 38  1  0
  4 39  1  0
  4 40  1  0
  5 41  1  1
  8 42  1  0
  8 43  1  0
  8 44  1  0
  9 45  1  0
  9 46  1  0
  9 47  1  0
 10 48  1  6
 11 49  1  0
 11 50  1  0
 12 51  1  0
 12 52  1  0
 14 53  1  0
 14 54  1  0
 14 55  1  0
 15 56  1  1
 16 57  1  0
 16 58  1  0
 17 59  1  0
 19 60  1  6
 20 61  1  0
 20 62  1  0
 21 63  1  0
 21 64  1  0
 22 65  1  6
 23 66  1  0
 25 67  1  0
 25 68  1  0
 25 69  1  0
 26 70  1  0
 26 71  1  0
 26 72  1  0
 28 73  1  0
 28 74  1  0
 28 75  1  0
 29 76  1  0
 29 77  1  0
 30 78  1  0
 30 79  1  0
 32 80  1  0
 32 81  1  0
 32 82  1  0
M  END
>  <meeko>  (16) 
{"is_sidechain": [false], "intermolecular_energy": 2.731, "internal_energy": -0.839}

$$$$
EPH_relaxed_0001_pdb2pqr_Repair_164_r2_0001_out
     RDKit          3D

 82 86  0  0  0  0  0  0  0  0999 V2000
    3.8030   17.6720   -3.6660 C   0  0  0  0  0  0  0  0  0  0  0  0
    2.6430   17.6240   -2.6680 C   0  0  2  0  0  0  0  0  0  0  0  0
    2.6900   18.7930   -1.6650 C   0  0  0  0  0  0  0  0  0  0  0  0
    1.5420   19.7920   -1.8290 C   0  0  0  0  0  0  0  0  0  0  0  0
    0.2380   19.2200   -1.3600 C   0  0  2  0  0  0  0  0  0  0  0  0
   -0.7700   20.1940   -1.0620 O   0  0  0  0  0  0  0  0  0  0  0  0
   -0.3010   19.4090    0.0460 C   0  0  0  0  0  0  0  0  0  0  0  0
    0.4540   20.1950    1.0720 C   0  0  0  0  0  0  0  0  0  0  0  0
   -1.3100   18.4310    0.5630 C   0  0  0  0  0  0  0  0  0  0  0  0
    2.6550   16.2950   -1.9210 C   0  0  1  0  0  0  0  0  0  0  0  0
    3.0500   16.4530   -0.4280 C   0  0  0  0  0  0  0  0  0  0  0  0
    2.2310   15.4030    0.3650 C   0  0  0  0  0  0  0  0  0  0  0  0
    1.6500   14.4630   -0.7180 C   0  0  1  0  0  0  0  0  0  0  0  0
    2.8140   13.4810   -1.0620 C   0  0  0  0  0  0  0  0  0  0  0  0
    0.3420   13.6960   -0.3380 C   0  0  2  0  0  0  0  0  0  0  0  0
    0.4760   12.7230    0.8460 C   0  0  0  0  0  0  0  0  0  0  0  0
    0.8550   11.3250    0.4840 C   0  0  0  0  0  0  0  0  0  0  0  0
    0.8030   10.7970   -0.7530 C   0  0  0  0  0  0  0  0  0  0  0  0
    0.2320   11.5990   -1.9290 C   0  0  1  0  0  0  0  0  0  0  0  0
   -0.7480   10.7080   -2.7370 C   0  0  0  0  0  0  0  0  0  0  0  0
   -0.1130    9.3940   -3.1810 C   0  0  0  0  0  0  0  0  0  0  0  0
    0.3900    8.5980   -1.9800 C   0  0  2  0  0  0  0  0  0  0  0  0
   -0.7350    8.1800   -1.2000 O   0  0  0  0  0  0  0  0  0  0  0  0
    1.3780    9.3980   -1.0850 C   0  0  0  0  0  0  0  0  0  0  0  0
    2.7200    9.5890   -1.8340 C   0  0  0  0  0  0  0  0  0  0  0  0
    1.6980    8.5330    0.1640 C   0  0  0  0  0  0  0  0  0  0  0  0
   -0.3900   13.0160   -1.5650 C   0  0  1  0  0  0  0  0  0  0  0  0
   -1.8860   12.8510   -1.1550 C   0  0  0  0  0  0  0  0  0  0  0  0
   -0.3790   13.9270   -2.8490 C   0  0  0  0  0  0  0  0  0  0  0  0
    0.8970   14.7520   -3.1050 C   0  0  0  0  0  0  0  0  0  0  0  0
    1.3220   15.5100   -1.8430 C   0  0  2  0  0  0  0  0  0  0  0  0
    0.1800   16.5210   -1.4850 C   0  0  0  0  0  0  0  0  0  0  0  0
    4.7563   17.7114   -3.1186 H   0  0  0  0  0  0  0  0  0  0  0  0
    3.7802   16.7721   -4.2982 H   0  0  0  0  0  0  0  0  0  0  0  0
    3.7060   18.5669   -4.2982 H   0  0  0  0  0  0  0  0  0  0  0  0
    1.7093   17.7199   -3.2415 H   0  0  0  0  0  0  0  0  0  0  0  0
    2.6469   18.3788   -0.6469 H   0  0  0  0  0  0  0  0  0  0  0  0
    3.6236   19.3425   -1.8558 H   0  0  0  0  0  0  0  0  0  0  0  0
    1.7676   20.6940   -1.2412 H   0  0  0  0  0  0  0  0  0  0  0  0
    1.4464   20.0320   -2.8982 H   0  0  0  0  0  0  0  0  0  0  0  0
    0.3807   18.3235   -1.9812 H   0  0  0  0  0  0  0  0  0  0  0  0
    0.1465   19.8749    2.0785 H   0  0  0  0  0  0  0  0  0  0  0  0
    1.5329   20.0217    0.9458 H   0  0  0  0  0  0  0  0  0  0  0  0
    0.2374   21.2661    0.9458 H   0  0  0  0  0  0  0  0  0  0  0  0
   -1.3000   18.4407    1.6629 H   0  0  0  0  0  0  0  0  0  0  0  0
   -2.3108   18.7118    0.2030 H   0  0  0  0  0  0  0  0  0  0  0  0
   -1.0606   17.4220    0.2030 H   0  0  0  0  0  0  0  0  0  0  0  0
    3.3802   15.7438   -2.5377 H   0  0  0  0  0  0  0  0  0  0  0  0
    4.1269   16.2691   -0.2996 H   0  0  0  0  0  0  0  0  0  0  0  0
    2.8390   17.4713   -0.0694 H   0  0  0  0  0  0  0  0  0  0  0  0
    2.8802   14.8451    1.0559 H   0  0  0  0  0  0  0  0  0  0  0  0
    1.4459   15.8650    0.9815 H   0  0  0  0  0  0  0  0  0  0  0  0
    3.2620   13.1030   -0.1312 H   0  0  0  0  0  0  0  0  0  0  0  0
    2.4209   12.6376   -1.6486 H   0  0  0  0  0  0  0  0  0  0  0  0
    3.5792   14.0105   -1.6486 H   0  0  0  0  0  0  0  0  0  0  0  0
   -0.3123   14.5068    0.0150 H   0  0  0  0  0  0  0  0  0  0  0  0
    1.2455   13.1185    1.5253 H   0  0  0  0  0  0  0  0  0  0  0  0
   -0.5234   12.6588    1.3012 H   0  0  0  0  0  0  0  0  0  0  0  0
    1.2062   10.6717    1.2963 H   0  0  0  0  0  0  0  0  0  0  0  0
    1.0928   11.8714   -2.5574 H   0  0  0  0  0  0  0  0  0  0  0  0
   -1.6210   10.4826   -2.1068 H   0  0  0  0  0  0  0  0  0  0  0  0
   -1.0349   11.2630   -3.6424 H   0  0  0  0  0  0  0  0  0  0  0  0
   -0.8623    8.7963   -3.7207 H   0  0  0  0  0  0  0  0  0  0  0  0
    0.7420    9.6206   -3.8350 H   0  0  0  0  0  0  0  0  0  0  0  0
    0.9481    7.7330   -2.3678 H   0  0  0  0  0  0  0  0  0  0  0  0
   -0.6610    7.2200   -1.0680 H   0  0  0  0  0  0  0  0  0  0  0  0
    3.5343    9.7049   -1.1036 H   0  0  0  0  0  0  0  0  0  0  0  0
    2.9160    8.7097   -2.4652 H   0  0  0  0  0  0  0  0  0  0  0  0
    2.6629   10.4881   -2.4652 H   0  0  0  0  0  0  0  0  0  0  0  0
    1.4841    9.1112    1.0750 H   0  0  0  0  0  0  0  0  0  0  0  0
    1.0760    7.6259    0.1509 H   0  0  0  0  0  0  0  0  0  0  0  0
    2.7607    8.2491    0.1509 H   0  0  0  0  0  0  0  0  0  0  0  0
   -1.9667   12.8421   -0.0580 H   0  0  0  0  0  0  0  0  0  0  0  0
   -2.4716   13.6900   -1.5589 H   0  0  0  0  0  0  0  0  0  0  0  0
   -2.2747   11.9045   -1.5589 H   0  0  0  0  0  0  0  0  0  0  0  0
   -0.5340   13.2747   -3.7211 H   0  0  0  0  0  0  0  0  0  0  0  0
   -1.1730   14.6697   -2.6816 H   0  0  0  0  0  0  0  0  0  0  0  0
    1.7088   14.0745   -3.4084 H   0  0  0  0  0  0  0  0  0  0  0  0
    0.6885   15.4831   -3.9000 H   0  0  0  0  0  0  0  0  0  0  0  0
    0.0902   16.6005   -0.3916 H   0  0  0  0  0  0  0  0  0  0  0  0
    0.4193   17.5086   -1.9060 H   0  0  0  0  0  0  0  0  0  0  0  0
   -0.7713   16.1637   -1.9060 H   0  0  0  0  0  0  0  0  0  0  0  0
  1  2  1  0
  2  3  1  0
  3  4  1  0
  4  5  1  0
  5  6  1  0
  6  7  1  0
  7  8  1  0
  7  9  1  0
  2 10  1  0
 10 11  1  0
 11 12  1  0
 12 13  1  0
 13 14  1  6
 13 15  1  0
 15 16  1  0
 16 17  1  0
 17 18  2  0
 18 19  1  0
 19 20  1  0
 20 21  1  0
 21 22  1  0
 22 23  1  0
 22 24  1  0
 24 25  1  0
 24 26  1  0
 19 27  1  0
 27 28  1  1
 27 29  1  0
 29 30  1  0
 30 31  1  0
 31 32  1  1
  7  5  1  0
 31 10  1  0
 31 13  1  0
 27 15  1  0
 24 18  1  0
  1 33  1  0
  1 34  1  0
  1 35  1  0
  2 36  1  6
  3 37  1  0
  3 38  1  0
  4 39  1  0
  4 40  1  0
  5 41  1  6
  8 42  1  0
  8 43  1  0
  8 44  1  0
  9 45  1  0
  9 46  1  0
  9 47  1  0
 10 48  1  6
 11 49  1  0
 11 50  1  0
 12 51  1  0
 12 52  1  0
 14 53  1  0
 14 54  1  0
 14 55  1  0
 15 56  1  1
 16 57  1  0
 16 58  1  0
 17 59  1  0
 19 60  1  6
 20 61  1  0
 20 62  1  0
 21 63  1  0
 21 64  1  0
 22 65  1  6
 23 66  1  0
 25 67  1  0
 25 68  1  0
 25 69  1  0
 26 70  1  0
 26 71  1  0
 26 72  1  0
 28 73  1  0
 28 74  1  0
 28 75  1  0
 29 76  1  0
 29 77  1  0
 30 78  1  0
 30 79  1  0
 32 80  1  0
 32 81  1  0
 32 82  1  0
M  END
>  <meeko>  (17) 
{"is_sidechain": [false], "intermolecular_energy": 2.731, "internal_energy": -0.839}

$$$$
