EPH_relaxed_0001_pdb2pqr_Repair_7_r2_0001_out
     RDKit          3D

 82 86  0  0  0  0  0  0  0  0999 V2000
   -1.5850    8.5340   -1.8020 C   0  0  0  0  0  0  0  0  0  0  0  0
   -1.9880    9.1090   -0.4420 C   0  0  2  0  0  0  0  0  0  0  0  0
   -3.4780    9.5040   -0.3960 C   0  0  0  0  0  0  0  0  0  0  0  0
   -4.4280    8.3090   -0.2780 C   0  0  0  0  0  0  0  0  0  0  0  0
   -5.0790    7.9870   -1.5890 C   0  0  2  0  0  0  0  0  0  0  0  0
   -6.3270    8.6540   -1.8170 O   0  0  0  0  0  0  0  0  0  0  0  0
   -6.3840    7.2230   -1.7100 C   0  0  0  0  0  0  0  0  0  0  0  0
   -7.1150    6.7320   -0.5000 C   0  0  0  0  0  0  0  0  0  0  0  0
   -6.6920    6.5330   -3.0020 C   0  0  0  0  0  0  0  0  0  0  0  0
   -1.1190   10.3170   -0.1100 C   0  0  1  0  0  0  0  0  0  0  0  0
   -0.0450   10.0030    0.9660 C   0  0  0  0  0  0  0  0  0  0  0  0
    1.2100   10.8380    0.6020 C   0  0  0  0  0  0  0  0  0  0  0  0
    0.7140   11.8440   -0.4620 C   0  0  1  0  0  0  0  0  0  0  0  0
    0.0350   12.9890    0.3530 C   0  0  0  0  0  0  0  0  0  0  0  0
    1.7960   12.3990   -1.4450 C   0  0  2  0  0  0  0  0  0  0  0  0
    2.9230   13.2120   -0.7830 C   0  0  0  0  0  0  0  0  0  0  0  0
    2.6720   14.6790   -0.6750 C   0  0  0  0  0  0  0  0  0  0  0  0
    1.7220   15.3620   -1.3410 C   0  0  0  0  0  0  0  0  0  0  0  0
    0.8390   14.6660   -2.3850 C   0  0  1  0  0  0  0  0  0  0  0  0
    0.7610   15.5420   -3.6630 C   0  0  0  0  0  0  0  0  0  0  0  0
    0.3050   16.9680   -3.3690 C   0  0  0  0  0  0  0  0  0  0  0  0
    1.2410   17.6450   -2.3710 C   0  0  2  0  0  0  0  0  0  0  0  0
    2.5200   17.8240   -2.9870 O   0  0  0  0  0  0  0  0  0  0  0  0
    1.4050   16.8490   -1.0470 C   0  0  0  0  0  0  0  0  0  0  0  0
    0.0880   16.9130   -0.2340 C   0  0  0  0  0  0  0  0  0  0  0  0
    2.4810   17.5660   -0.1880 C   0  0  0  0  0  0  0  0  0  0  0  0
    1.2030   13.1530   -2.7040 C   0  0  1  0  0  0  0  0  0  0  0  0
    2.2950   13.0900   -3.8150 C   0  0  0  0  0  0  0  0  0  0  0  0
   -0.0680   12.4300   -3.2890 C   0  0  0  0  0  0  0  0  0  0  0  0
   -1.0380   11.7980   -2.2730 C   0  0  0  0  0  0  0  0  0  0  0  0
   -0.2830   10.9290   -1.2620 C   0  0  2  0  0  0  0  0  0  0  0  0
    0.3930    9.7560   -2.0510 C   0  0  0  0  0  0  0  0  0  0  0  0
   -0.9596    7.6416   -1.6520 H   0  0  0  0  0  0  0  0  0  0  0  0
   -2.4884    8.2581   -2.3657 H   0  0  0  0  0  0  0  0  0  0  0  0
   -1.0174    9.2890   -2.3657 H   0  0  0  0  0  0  0  0  0  0  0  0
   -1.8322    8.3206    0.3091 H   0  0  0  0  0  0  0  0  0  0  0  0
   -3.6366   10.1608    0.4720 H   0  0  0  0  0  0  0  0  0  0  0  0
   -3.7075   10.0044   -1.3483 H   0  0  0  0  0  0  0  0  0  0  0  0
   -3.8573    7.4321    0.0616 H   0  0  0  0  0  0  0  0  0  0  0  0
   -5.2177    8.5685    0.4425 H   0  0  0  0  0  0  0  0  0  0  0  0
   -4.0987    7.8535   -2.0698 H   0  0  0  0  0  0  0  0  0  0  0  0
   -6.5980    7.0793    0.4067 H   0  0  0  0  0  0  0  0  0  0  0  0
   -8.1429    7.1235   -0.5087 H   0  0  0  0  0  0  0  0  0  0  0  0
   -7.1414    5.6323   -0.5087 H   0  0  0  0  0  0  0  0  0  0  0  0
   -7.1324    5.5465   -2.7949 H   0  0  0  0  0  0  0  0  0  0  0  0
   -7.4051    7.1388   -3.5803 H   0  0  0  0  0  0  0  0  0  0  0  0
   -5.7649    6.4066   -3.5803 H   0  0  0  0  0  0  0  0  0  0  0  0
   -1.8996   11.0245    0.2064 H   0  0  0  0  0  0  0  0  0  0  0  0
   -0.4131   10.2872    1.9629 H   0  0  0  0  0  0  0  0  0  0  0  0
    0.1886    8.9283    0.9892 H   0  0  0  0  0  0  0  0  0  0  0  0
    1.5947   11.3666    1.4866 H   0  0  0  0  0  0  0  0  0  0  0  0
    2.0347   10.2115    0.2313 H   0  0  0  0  0  0  0  0  0  0  0  0
    0.1517   12.7922    1.4289 H   0  0  0  0  0  0  0  0  0  0  0  0
    0.5099   13.9490    0.1022 H   0  0  0  0  0  0  0  0  0  0  0  0
   -1.0351   13.0327    0.1022 H   0  0  0  0  0  0  0  0  0  0  0  0
    2.2697   11.4789   -1.8179 H   0  0  0  0  0  0  0  0  0  0  0  0
    3.0752   12.8176    0.2325 H   0  0  0  0  0  0  0  0  0  0  0  0
    3.8018   13.1009   -1.4352 H   0  0  0  0  0  0  0  0  0  0  0  0
    3.3183   15.2511    0.0069 H   0  0  0  0  0  0  0  0  0  0  0  0
   -0.1586   14.5789   -1.9299 H   0  0  0  0  0  0  0  0  0  0  0  0
    1.7580   15.5792   -4.1262 H   0  0  0  0  0  0  0  0  0  0  0  0
    0.0187   15.0863   -4.3349 H   0  0  0  0  0  0  0  0  0  0  0  0
    0.2995   17.5446   -4.3057 H   0  0  0  0  0  0  0  0  0  0  0  0
   -0.7048   16.9312   -2.9342 H   0  0  0  0  0  0  0  0  0  0  0  0
    0.7914   18.6119   -2.1010 H   0  0  0  0  0  0  0  0  0  0  0  0
    2.8340   18.7150   -2.7590 H   0  0  0  0  0  0  0  0  0  0  0  0
    0.3199   16.9017    0.8412 H   0  0  0  0  0  0  0  0  0  0  0  0
   -0.4520   17.8384   -0.4829 H   0  0  0  0  0  0  0  0  0  0  0  0
   -0.5392   16.0443   -0.4829 H   0  0  0  0  0  0  0  0  0  0  0  0
    2.2576   17.4171    0.8787 H   0  0  0  0  0  0  0  0  0  0  0  0
    3.4720   17.1471   -0.4170 H   0  0  0  0  0  0  0  0  0  0  0  0
    2.4759   18.6419   -0.4170 H   0  0  0  0  0  0  0  0  0  0  0  0
    3.2896   13.0326   -3.3487 H   0  0  0  0  0  0  0  0  0  0  0  0
    2.1312   12.1998   -4.4401 H   0  0  0  0  0  0  0  0  0  0  0  0
    2.2346   13.9931   -4.4401 H   0  0  0  0  0  0  0  0  0  0  0  0
   -0.6337   13.1717   -3.8719 H   0  0  0  0  0  0  0  0  0  0  0  0
    0.3255   11.5857   -3.8741 H   0  0  0  0  0  0  0  0  0  0  0  0
   -1.5676   12.5982   -1.7352 H   0  0  0  0  0  0  0  0  0  0  0  0
   -1.7519   11.1627   -2.8177 H   0  0  0  0  0  0  0  0  0  0  0  0
    0.8119    9.0291   -1.3396 H   0  0  0  0  0  0  0  0  0  0  0  0
   -0.3574    9.2593   -2.6836 H   0  0  0  0  0  0  0  0  0  0  0  0
    1.1990   10.1562   -2.6836 H   0  0  0  0  0  0  0  0  0  0  0  0
  1  2  1  0
  2  3  1  0
  3  4  1  0
  4  5  1  0
  5  6  1  0
  6  7  1  0
  7  8  1  0
  7  9  1  0
  2 10  1  0
 10 11  1  0
 11 12  1  0
 12 13  1  0
 13 14  1  1
 13 15  1  0
 15 16  1  0
 16 17  1  0
 17 18  2  0
 18 19  1  0
 19 20  1  0
 20 21  1  0
 21 22  1  0
 22 23  1  0
 22 24  1  0
 24 25  1  0
 24 26  1  0
 19 27  1  0
 27 28  1  6
 27 29  1  0
 29 30  1  0
 30 31  1  0
 31 32  1  6
  7  5  1  0
 31 10  1  0
 31 13  1  0
 27 15  1  0
 24 18  1  0
  1 33  1  0
  1 34  1  0
  1 35  1  0
  2 36  1  1
  3 37  1  0
  3 38  1  0
  4 39  1  0
  4 40  1  0
  5 41  1  6
  8 42  1  0
  8 43  1  0
  8 44  1  0
  9 45  1  0
  9 46  1  0
  9 47  1  0
 10 48  1  1
 11 49  1  0
 11 50  1  0
 12 51  1  0
 12 52  1  0
 14 53  1  0
 14 54  1  0
 14 55  1  0
 15 56  1  6
 16 57  1  0
 16 58  1  0
 17 59  1  0
 19 60  1  1
 20 61  1  0
 20 62  1  0
 21 63  1  0
 21 64  1  0
 22 65  1  1
 23 66  1  0
 25 67  1  0
 25 68  1  0
 25 69  1  0
 26 70  1  0
 26 71  1  0
 26 72  1  0
 28 73  1  0
 28 74  1  0
 28 75  1  0
 29 76  1  0
 29 77  1  0
 30 78  1  0
 30 79  1  0
 32 80  1  0
 32 81  1  0
 32 82  1  0
M  END
>  <meeko>  (1) 
{"is_sidechain": [false], "intermolecular_energy": 2.731, "internal_energy": -0.839}

$$$$
EPH_relaxed_0001_pdb2pqr_Repair_7_r2_0001_out
     RDKit          3D

 82 86  0  0  0  0  0  0  0  0999 V2000
    2.1070   19.6280   -0.6230 C   0  0  0  0  0  0  0  0  0  0  0  0
    2.4550   18.4310    0.2660 C   0  0  2  0  0  0  0  0  0  0  0  0
    3.9030   17.9460    0.0480 C   0  0  0  0  0  0  0  0  0  0  0  0
    4.8480   18.2940    1.2010 C   0  0  0  0  0  0  0  0  0  0  0  0
    4.1200   18.9430    2.3390 C   0  0  2  0  0  0  0  0  0  0  0  0
    4.6770   20.1920    2.7710 O   0  0  0  0  0  0  0  0  0  0  0  0
    4.7160   19.1170    3.7230 C   0  0  0  0  0  0  0  0  0  0  0  0
    6.0980   18.6380    4.0440 C   0  0  0  0  0  0  0  0  0  0  0  0
    3.7890   19.3040    4.8830 C   0  0  0  0  0  0  0  0  0  0  0  0
    1.4790   17.2890    0.0060 C   0  0  1  0  0  0  0  0  0  0  0  0
    0.1830   17.7620   -0.7040 C   0  0  0  0  0  0  0  0  0  0  0  0
   -0.2510   16.6150   -1.6530 C   0  0  0  0  0  0  0  0  0  0  0  0
    0.6080   15.4040   -1.2200 C   0  0  1  0  0  0  0  0  0  0  0  0
   -0.1260   14.8180    0.0270 C   0  0  0  0  0  0  0  0  0  0  0  0
    0.8600   14.3110   -2.3080 C   0  0  2  0  0  0  0  0  0  0  0  0
   -0.4040   13.5990   -2.8230 C   0  0  0  0  0  0  0  0  0  0  0  0
   -0.7890   12.3660   -2.0750 C   0  0  0  0  0  0  0  0  0  0  0  0
    0.0000   11.6910   -1.2190 C   0  0  0  0  0  0  0  0  0  0  0  0
    1.4620   12.1020   -1.0040 C   0  0  1  0  0  0  0  0  0  0  0  0
    2.3670   10.8430   -1.0540 C   0  0  0  0  0  0  0  0  0  0  0  0
    1.9170    9.7600   -0.0780 C   0  0  0  0  0  0  0  0  0  0  0  0
    0.4780    9.3360   -0.3600 C   0  0  2  0  0  0  0  0  0  0  0  0
    0.4310    8.6820   -1.6310 O   0  0  0  0  0  0  0  0  0  0  0  0
   -0.5250   10.5240   -0.3460 C   0  0  0  0  0  0  0  0  0  0  0  0
   -0.6990   11.0410    1.1030 C   0  0  0  0  0  0  0  0  0  0  0  0
   -1.9130    9.9820   -0.7830 C   0  0  0  0  0  0  0  0  0  0  0  0
    1.9960   13.2740   -1.9360 C   0  0  1  0  0  0  0  0  0  0  0  0
    2.5220   12.6870   -3.2810 C   0  0  0  0  0  0  0  0  0  0  0  0
    3.2290   13.9630   -1.2390 C   0  0  0  0  0  0  0  0  0  0  0  0
    2.9220   15.1160   -0.2650 C   0  0  0  0  0  0  0  0  0  0  0  0
    1.9650   16.1300   -0.9000 C   0  0  2  0  0  0  0  0  0  0  0  0
    2.6850   16.7530   -2.1440 C   0  0  0  0  0  0  0  0  0  0  0  0
    1.8556   20.4929    0.0085 H   0  0  0  0  0  0  0  0  0  0  0  0
    2.9702   19.8763   -1.2581 H   0  0  0  0  0  0  0  0  0  0  0  0
    1.2453   19.3748   -1.2581 H   0  0  0  0  0  0  0  0  0  0  0  0
    2.3715   18.7611    1.3120 H   0  0  0  0  0  0  0  0  0  0  0  0
    3.8889   16.8526   -0.0716 H   0  0  0  0  0  0  0  0  0  0  0  0
    4.2835   18.4608   -0.8465 H   0  0  0  0  0  0  0  0  0  0  0  0
    5.3239   17.3706    1.5628 H   0  0  0  0  0  0  0  0  0  0  0  0
    5.5994   19.0043    0.8255 H   0  0  0  0  0  0  0  0  0  0  0  0
    3.1621   18.5253    1.9955 H   0  0  0  0  0  0  0  0  0  0  0  0
    6.2263   18.5935    5.1356 H   0  0  0  0  0  0  0  0  0  0  0  0
    6.2473   17.6357    3.6161 H   0  0  0  0  0  0  0  0  0  0  0  0
    6.8356   19.3329    3.6161 H   0  0  0  0  0  0  0  0  0  0  0  0
    4.3498   19.1909    5.8225 H   0  0  0  0  0  0  0  0  0  0  0  0
    3.3455   20.3097    4.8395 H   0  0  0  0  0  0  0  0  0  0  0  0
    2.9903   18.5489    4.8395 H   0  0  0  0  0  0  0  0  0  0  0  0
    1.3389   16.9279    1.0355 H   0  0  0  0  0  0  0  0  0  0  0  0
   -0.6051   17.9587    0.0377 H   0  0  0  0  0  0  0  0  0  0  0  0
    0.3563   18.6932   -1.2633 H   0  0  0  0  0  0  0  0  0  0  0  0
   -1.3219   16.3947   -1.5315 H   0  0  0  0  0  0  0  0  0  0  0  0
   -0.1049   16.8724   -2.7124 H   0  0  0  0  0  0  0  0  0  0  0  0
    0.3490   15.1972    0.9438 H   0  0  0  0  0  0  0  0  0  0  0  0
   -1.1825   15.1238    0.0079 H   0  0  0  0  0  0  0  0  0  0  0  0
   -0.0617   13.7200    0.0079 H   0  0  0  0  0  0  0  0  0  0  0  0
    1.2352   14.9045   -3.1547 H   0  0  0  0  0  0  0  0  0  0  0  0
   -1.2423   14.3087   -2.7635 H   0  0  0  0  0  0  0  0  0  0  0  0
   -0.1747   13.2743   -3.8487 H   0  0  0  0  0  0  0  0  0  0  0  0
   -1.8045   11.9757   -2.2374 H   0  0  0  0  0  0  0  0  0  0  0  0
    1.5068   12.5540   -0.0022 H   0  0  0  0  0  0  0  0  0  0  0  0
    2.3422   10.4312   -2.0737 H   0  0  0  0  0  0  0  0  0  0  0  0
    3.3832   11.1505   -0.7663 H   0  0  0  0  0  0  0  0  0  0  0  0
    2.5767    8.8858   -0.1809 H   0  0  0  0  0  0  0  0  0  0  0  0
    1.9705   10.1637    0.9438 H   0  0  0  0  0  0  0  0  0  0  0  0
    0.1701    8.6562    0.4482 H   0  0  0  0  0  0  0  0  0  0  0  0
   -0.2000    9.1670   -2.1890 H   0  0  0  0  0  0  0  0  0  0  0  0
   -0.4306   10.2435    1.8115 H   0  0  0  0  0  0  0  0  0  0  0  0
   -0.0438   11.9099    1.2635 H   0  0  0  0  0  0  0  0  0  0  0  0
   -1.7462   11.3369    1.2635 H   0  0  0  0  0  0  0  0  0  0  0  0
   -2.5126    9.7479    0.1090 H   0  0  0  0  0  0  0  0  0  0  0  0
   -2.4315   10.7437   -1.3838 H   0  0  0  0  0  0  0  0  0  0  0  0
   -1.7781    9.0705   -1.3838 H   0  0  0  0  0  0  0  0  0  0  0  0
    3.2428   11.8826   -3.0730 H   0  0  0  0  0  0  0  0  0  0  0  0
    1.6783   12.2827   -3.8595 H   0  0  0  0  0  0  0  0  0  0  0  0
    3.0160   13.4815   -3.8595 H   0  0  0  0  0  0  0  0  0  0  0  0
    3.7694   13.1874   -0.6765 H   0  0  0  0  0  0  0  0  0  0  0  0
    3.8021   14.4229   -2.0576 H   0  0  0  0  0  0  0  0  0  0  0  0
    2.4594   14.7052    0.6445 H   0  0  0  0  0  0  0  0  0  0  0  0
    3.8640   15.6285   -0.0200 H   0  0  0  0  0  0  0  0  0  0  0  0
    3.4763   17.4377   -1.8048 H   0  0  0  0  0  0  0  0  0  0  0  0
    3.1298   15.9502   -2.7503 H   0  0  0  0  0  0  0  0  0  0  0  0
    1.9544   17.3086   -2.7503 H   0  0  0  0  0  0  0  0  0  0  0  0
  1  2  1  0
  2  3  1  0
  3  4  1  0
  4  5  1  0
  5  6  1  0
  6  7  1  0
  7  8  1  0
  7  9  1  0
  2 10  1  0
 10 11  1  0
 11 12  1  0
 12 13  1  0
 13 14  1  1
 13 15  1  0
 15 16  1  0
 16 17  1  0
 17 18  2  0
 18 19  1  0
 19 20  1  0
 20 21  1  0
 21 22  1  0
 22 23  1  0
 22 24  1  0
 24 25  1  0
 24 26  1  0
 19 27  1  0
 27 28  1  6
 27 29  1  0
 29 30  1  0
 30 31  1  0
 31 32  1  6
  7  5  1  0
 31 10  1  0
 31 13  1  0
 27 15  1  0
 24 18  1  0
  1 33  1  0
  1 34  1  0
  1 35  1  0
  2 36  1  1
  3 37  1  0
  3 38  1  0
  4 39  1  0
  4 40  1  0
  5 41  1  1
  8 42  1  0
  8 43  1  0
  8 44  1  0
  9 45  1  0
  9 46  1  0
  9 47  1  0
 10 48  1  1
 11 49  1  0
 11 50  1  0
 12 51  1  0
 12 52  1  0
 14 53  1  0
 14 54  1  0
 14 55  1  0
 15 56  1  6
 16 57  1  0
 16 58  1  0
 17 59  1  0
 19 60  1  1
 20 61  1  0
 20 62  1  0
 21 63  1  0
 21 64  1  0
 22 65  1  1
 23 66  1  0
 25 67  1  0
 25 68  1  0
 25 69  1  0
 26 70  1  0
 26 71  1  0
 26 72  1  0
 28 73  1  0
 28 74  1  0
 28 75  1  0
 29 76  1  0
 29 77  1  0
 30 78  1  0
 30 79  1  0
 32 80  1  0
 32 81  1  0
 32 82  1  0
M  END
>  <meeko>  (2) 
{"is_sidechain": [false], "intermolecular_energy": 2.731, "internal_energy": -0.839}

$$$$
EPH_relaxed_0001_pdb2pqr_Repair_7_r2_0001_out
     RDKit          3D

 82 86  0  0  0  0  0  0  0  0999 V2000
    0.3980   18.4370   -0.0560 C   0  0  0  0  0  0  0  0  0  0  0  0
    1.4860   17.3790   -0.2590 C   0  0  2  0  0  0  0  0  0  0  0  0
    2.7050   17.9390   -1.0190 C   0  0  0  0  0  0  0  0  0  0  0  0
    3.9370   18.1490   -0.1350 C   0  0  0  0  0  0  0  0  0  0  0  0
    3.5610   18.6170    1.2380 C   0  0  2  0  0  0  0  0  0  0  0  0
    3.7960   20.0100    1.4820 O   0  0  0  0  0  0  0  0  0  0  0  0
    4.5710   19.0900    2.2670 C   0  0  0  0  0  0  0  0  0  0  0  0
    6.0370   19.1180    1.9660 C   0  0  0  0  0  0  0  0  0  0  0  0
    4.1870   19.0600    3.7140 C   0  0  0  0  0  0  0  0  0  0  0  0
    0.9120   16.1810   -1.0060 C   0  0  1  0  0  0  0  0  0  0  0  0
    0.7660   16.4400   -2.5300 C   0  0  0  0  0  0  0  0  0  0  0  0
    1.0570   15.0950   -3.2420 C   0  0  0  0  0  0  0  0  0  0  0  0
    1.0320   14.0410   -2.1110 C   0  0  1  0  0  0  0  0  0  0  0  0
   -0.4810   13.7360   -1.8800 C   0  0  0  0  0  0  0  0  0  0  0  0
    1.8520   12.7340   -2.3660 C   0  0  2  0  0  0  0  0  0  0  0  0
    1.3750   11.8870   -3.5590 C   0  0  0  0  0  0  0  0  0  0  0  0
    0.3530   10.8480   -3.2350 C   0  0  0  0  0  0  0  0  0  0  0  0
    0.0460   10.4110   -2.0000 C   0  0  0  0  0  0  0  0  0  0  0  0
    0.8260   10.9020   -0.7740 C   0  0  1  0  0  0  0  0  0  0  0  0
    1.1980    9.6920    0.1220 C   0  0  0  0  0  0  0  0  0  0  0  0
   -0.0160    8.8500    0.5020 C   0  0  0  0  0  0  0  0  0  0  0  0
   -0.7310    8.3320   -0.7420 C   0  0  2  0  0  0  0  0  0  0  0  0
    0.1250    7.4010   -1.4120 O   0  0  0  0  0  0  0  0  0  0  0  0
   -1.1460    9.4610   -1.7260 C   0  0  0  0  0  0  0  0  0  0  0  0
   -2.2980   10.2930   -1.1070 C   0  0  0  0  0  0  0  0  0  0  0  0
   -1.7290    8.7940   -3.0010 C   0  0  0  0  0  0  0  0  0  0  0  0
    2.0700   11.8440   -1.0760 C   0  0  1  0  0  0  0  0  0  0  0  0
    3.3400   10.9790   -1.3410 C   0  0  0  0  0  0  0  0  0  0  0  0
    2.3820   12.7090    0.2020 C   0  0  0  0  0  0  0  0  0  0  0  0
    1.6280   14.0460    0.3370 C   0  0  0  0  0  0  0  0  0  0  0  0
    1.7190   14.8590   -0.9580 C   0  0  2  0  0  0  0  0  0  0  0  0
    3.2280   15.2000   -1.2040 C   0  0  0  0  0  0  0  0  0  0  0  0
    0.2360   18.5945    1.0205 H   0  0  0  0  0  0  0  0  0  0  0  0
    0.7143   19.3822   -0.5214 H   0  0  0  0  0  0  0  0  0  0  0  0
   -0.5380   18.0944   -0.5214 H   0  0  0  0  0  0  0  0  0  0  0  0
    1.8332   17.0651    0.7365 H   0  0  0  0  0  0  0  0  0  0  0  0
    2.9688   17.2334   -1.8206 H   0  0  0  0  0  0  0  0  0  0  0  0
    2.4159   18.9265   -1.4079 H   0  0  0  0  0  0  0  0  0  0  0  0
    4.4815   17.1970   -0.0504 H   0  0  0  0  0  0  0  0  0  0  0  0
    4.5653   18.9225   -0.6007 H   0  0  0  0  0  0  0  0  0  0  0  0
    2.7438   17.8825    1.2894 H   0  0  0  0  0  0  0  0  0  0  0  0
    6.6046   19.1288    2.9082 H   0  0  0  0  0  0  0  0  0  0  0  0
    6.3090   18.2249    1.3843 H   0  0  0  0  0  0  0  0  0  0  0  0
    6.2747   20.0208    1.3843 H   0  0  0  0  0  0  0  0  0  0  0  0
    5.0921   19.1307    4.3351 H   0  0  0  0  0  0  0  0  0  0  0  0
    3.5234   19.9090    3.9349 H   0  0  0  0  0  0  0  0  0  0  0  0
    3.6634   18.1182    3.9349 H   0  0  0  0  0  0  0  0  0  0  0  0
   -0.0369   16.0632   -0.4622 H   0  0  0  0  0  0  0  0  0  0  0  0
   -0.2552   16.7775   -2.7607 H   0  0  0  0  0  0  0  0  0  0  0  0
    1.4615   17.2232   -2.8659 H   0  0  0  0  0  0  0  0  0  0  0  0
    0.2828   14.8776   -3.9925 H   0  0  0  0  0  0  0  0  0  0  0  0
    2.0166   15.1069   -3.7797 H   0  0  0  0  0  0  0  0  0  0  0  0
   -0.6860   13.6947   -0.8001 H   0  0  0  0  0  0  0  0  0  0  0  0
   -1.0892   14.5296   -2.3386 H   0  0  0  0  0  0  0  0  0  0  0  0
   -0.7342   12.7687   -2.3386 H   0  0  0  0  0  0  0  0  0  0  0  0
    2.8385   13.1265   -2.6536 H   0  0  0  0  0  0  0  0  0  0  0  0
    0.9427   12.5672   -4.3076 H   0  0  0  0  0  0  0  0  0  0  0  0
    2.2601   11.3417   -3.9184 H   0  0  0  0  0  0  0  0  0  0  0  0
   -0.1957   10.4018   -4.0776 H   0  0  0  0  0  0  0  0  0  0  0  0
    0.1460   11.5736   -0.2295 H   0  0  0  0  0  0  0  0  0  0  0  0
    1.9115    9.0562   -0.4226 H   0  0  0  0  0  0  0  0  0  0  0  0
    1.6346   10.0866    1.0513 H   0  0  0  0  0  0  0  0  0  0  0  0
    0.3149    7.9947    1.1094 H   0  0  0  0  0  0  0  0  0  0  0  0
   -0.7151    9.4792    1.0724 H   0  0  0  0  0  0  0  0  0  0  0  0
   -1.6614    7.8485   -0.4095 H   0  0  0  0  0  0  0  0  0  0  0  0
   -0.2000    6.5070   -1.2140 H   0  0  0  0  0  0  0  0  0  0  0  0
   -2.2348   10.2473   -0.0098 H   0  0  0  0  0  0  0  0  0  0  0  0
   -2.2125   11.3392   -1.4360 H   0  0  0  0  0  0  0  0  0  0  0  0
   -3.2643    9.8830   -1.4360 H   0  0  0  0  0  0  0  0  0  0  0  0
   -2.4272    7.9952   -2.7104 H   0  0  0  0  0  0  0  0  0  0  0  0
   -2.2627    9.5482   -3.5980 H   0  0  0  0  0  0  0  0  0  0  0  0
   -0.9102    8.3660   -3.5980 H   0  0  0  0  0  0  0  0  0  0  0  0
    3.7843   10.6764   -0.3813 H   0  0  0  0  0  0  0  0  0  0  0  0
    3.0602   10.0829   -1.9143 H   0  0  0  0  0  0  0  0  0  0  0  0
    4.0714   11.5675   -1.9143 H   0  0  0  0  0  0  0  0  0  0  0  0
    2.1384   12.0990    1.0843 H   0  0  0  0  0  0  0  0  0  0  0  0
    3.4430   12.9848    0.1109 H   0  0  0  0  0  0  0  0  0  0  0  0
    0.5704   13.8419    0.5604 H   0  0  0  0  0  0  0  0  0  0  0  0
    2.0875   14.6277    1.1497 H   0  0  0  0  0  0  0  0  0  0  0  0
    3.7401   15.3157   -0.2374 H   0  0  0  0  0  0  0  0  0  0  0  0
    3.6998   14.3858   -1.7737 H   0  0  0  0  0  0  0  0  0  0  0  0
    3.3038   16.1379   -1.7737 H   0  0  0  0  0  0  0  0  0  0  0  0
  1  2  1  0
  2  3  1  0
  3  4  1  0
  4  5  1  0
  5  6  1  0
  6  7  1  0
  7  8  1  0
  7  9  1  0
  2 10  1  0
 10 11  1  0
 11 12  1  0
 12 13  1  0
 13 14  1  1
 13 15  1  0
 15 16  1  0
 16 17  1  0
 17 18  2  0
 18 19  1  0
 19 20  1  0
 20 21  1  0
 21 22  1  0
 22 23  1  0
 22 24  1  0
 24 25  1  0
 24 26  1  0
 19 27  1  0
 27 28  1  6
 27 29  1  0
 29 30  1  0
 30 31  1  0
 31 32  1  6
  7  5  1  0
 31 10  1  0
 31 13  1  0
 27 15  1  0
 24 18  1  0
  1 33  1  0
  1 34  1  0
  1 35  1  0
  2 36  1  1
  3 37  1  0
  3 38  1  0
  4 39  1  0
  4 40  1  0
  5 41  1  1
  8 42  1  0
  8 43  1  0
  8 44  1  0
  9 45  1  0
  9 46  1  0
  9 47  1  0
 10 48  1  1
 11 49  1  0
 11 50  1  0
 12 51  1  0
 12 52  1  0
 14 53  1  0
 14 54  1  0
 14 55  1  0
 15 56  1  6
 16 57  1  0
 16 58  1  0
 17 59  1  0
 19 60  1  1
 20 61  1  0
 20 62  1  0
 21 63  1  0
 21 64  1  0
 22 65  1  1
 23 66  1  0
 25 67  1  0
 25 68  1  0
 25 69  1  0
 26 70  1  0
 26 71  1  0
 26 72  1  0
 28 73  1  0
 28 74  1  0
 28 75  1  0
 29 76  1  0
 29 77  1  0
 30 78  1  0
 30 79  1  0
 32 80  1  0
 32 81  1  0
 32 82  1  0
M  END
>  <meeko>  (3) 
{"is_sidechain": [false], "intermolecular_energy": 2.731, "internal_energy": -0.839}

$$$$
EPH_relaxed_0001_pdb2pqr_Repair_7_r2_0001_out
     RDKit          3D

 82 86  0  0  0  0  0  0  0  0999 V2000
    2.3360   18.0020   -2.7110 C   0  0  0  0  0  0  0  0  0  0  0  0
    1.0540   17.5970   -1.9790 C   0  0  2  0  0  0  0  0  0  0  0  0
    1.2190   17.6510   -0.4470 C   0  0  0  0  0  0  0  0  0  0  0  0
    0.9000   19.0200    0.1600 C   0  0  0  0  0  0  0  0  0  0  0  0
   -0.5410   19.1280    0.5590 C   0  0  2  0  0  0  0  0  0  0  0  0
   -1.4280   18.2600   -0.1590 O   0  0  0  0  0  0  0  0  0  0  0  0
   -1.6240   19.6700   -0.3550 C   0  0  0  0  0  0  0  0  0  0  0  0
   -1.3120   20.1410   -1.7410 C   0  0  0  0  0  0  0  0  0  0  0  0
   -2.8830   20.1940    0.2610 C   0  0  0  0  0  0  0  0  0  0  0  0
    0.6290   16.1980   -2.4090 C   0  0  1  0  0  0  0  0  0  0  0  0
    0.7610   15.9780   -3.9390 C   0  0  0  0  0  0  0  0  0  0  0  0
    1.1800   14.4990   -4.1430 C   0  0  0  0  0  0  0  0  0  0  0  0
    0.9540   13.8360   -2.7650 C   0  0  1  0  0  0  0  0  0  0  0  0
   -0.5750   13.5260   -2.7150 C   0  0  0  0  0  0  0  0  0  0  0  0
    1.8100   12.5630   -2.4610 C   0  0  2  0  0  0  0  0  0  0  0  0
    1.5610   11.3700   -3.4000 C   0  0  0  0  0  0  0  0  0  0  0  0
    0.5000   10.4190   -2.9540 C   0  0  0  0  0  0  0  0  0  0  0  0
   -0.0250   10.3570   -1.7160 C   0  0  0  0  0  0  0  0  0  0  0  0
    0.5190   11.2400   -0.5850 C   0  0  1  0  0  0  0  0  0  0  0  0
    0.7260   10.3800    0.6890 C   0  0  0  0  0  0  0  0  0  0  0  0
   -0.5340    9.6220    1.0950 C   0  0  0  0  0  0  0  0  0  0  0  0
   -1.0100    8.7110   -0.0340 C   0  0  2  0  0  0  0  0  0  0  0  0
   -0.0440    7.6740   -0.2280 O   0  0  0  0  0  0  0  0  0  0  0  0
   -1.2440    9.4660   -1.3720 C   0  0  0  0  0  0  0  0  0  0  0  0
   -2.4910   10.3760   -1.2470 C   0  0  0  0  0  0  0  0  0  0  0  0
   -1.5840    8.4120   -2.4610 C   0  0  0  0  0  0  0  0  0  0  0  0
    1.7940   12.1180   -0.9430 C   0  0  1  0  0  0  0  0  0  0  0  0
    3.0940   11.2890   -0.7080 C   0  0  0  0  0  0  0  0  0  0  0  0
    1.8660   13.3450    0.0410 C   0  0  0  0  0  0  0  0  0  0  0  0
    1.0960   14.6130   -0.3720 C   0  0  0  0  0  0  0  0  0  0  0  0
    1.4170   15.0030   -1.8190 C   0  0  2  0  0  0  0  0  0  0  0  0
    2.9450   15.3410   -1.8950 C   0  0  0  0  0  0  0  0  0  0  0  0
    3.1159   18.2484   -1.9755 H   0  0  0  0  0  0  0  0  0  0  0  0
    2.6772   17.1679   -3.3418 H   0  0  0  0  0  0  0  0  0  0  0  0
    2.1361   18.8807   -3.3418 H   0  0  0  0  0  0  0  0  0  0  0  0
    0.2734   18.3221   -2.2526 H   0  0  0  0  0  0  0  0  0  0  0  0
    0.5441   16.9069    0.0011 H   0  0  0  0  0  0  0  0  0  0  0  0
    2.2773   17.4429   -0.2308 H   0  0  0  0  0  0  0  0  0  0  0  0
    1.5285   19.1704    1.0502 H   0  0  0  0  0  0  0  0  0  0  0  0
    1.1034   19.7880   -0.6008 H   0  0  0  0  0  0  0  0  0  0  0  0
   -0.2603   19.3702    1.5946 H   0  0  0  0  0  0  0  0  0  0  0  0
   -0.7052   21.0570   -1.6891 H   0  0  0  0  0  0  0  0  0  0  0  0
   -0.7520   19.3601   -2.2763 H   0  0  0  0  0  0  0  0  0  0  0  0
   -2.2495   20.3521   -2.2763 H   0  0  0  0  0  0  0  0  0  0  0  0
   -2.7973   20.1583    1.3571 H   0  0  0  0  0  0  0  0  0  0  0  0
   -3.0435   21.2336   -0.0606 H   0  0  0  0  0  0  0  0  0  0  0  0
   -3.7337   19.5752   -0.0606 H   0  0  0  0  0  0  0  0  0  0  0  0
   -0.4026   16.1929   -2.0273 H   0  0  0  0  0  0  0  0  0  0  0  0
   -0.2022   16.1707   -4.4340 H   0  0  0  0  0  0  0  0  0  0  0  0
    1.5037   16.6629   -4.3742 H   0  0  0  0  0  0  0  0  0  0  0  0
    0.5547   14.0207   -4.9113 H   0  0  0  0  0  0  0  0  0  0  0  0
    2.2208   14.4038   -4.4860 H   0  0  0  0  0  0  0  0  0  0  0  0
   -0.9016   13.4598   -1.6667 H   0  0  0  0  0  0  0  0  0  0  0  0
   -1.1289   14.3301   -3.2215 H   0  0  0  0  0  0  0  0  0  0  0  0
   -0.7720   12.5696   -3.2215 H   0  0  0  0  0  0  0  0  0  0  0  0
    2.8312   12.9076   -2.6808 H   0  0  0  0  0  0  0  0  0  0  0  0
    1.2704   11.7666   -4.3840 H   0  0  0  0  0  0  0  0  0  0  0  0
    2.4984   10.7946   -3.4168 H   0  0  0  0  0  0  0  0  0  0  0  0
    0.1146    9.7087   -3.7003 H   0  0  0  0  0  0  0  0  0  0  0  0
   -0.2502   12.0039   -0.3985 H   0  0  0  0  0  0  0  0  0  0  0  0
    1.5284    9.6526    0.4967 H   0  0  0  0  0  0  0  0  0  0  0  0
    0.9855   11.0612    1.5128 H   0  0  0  0  0  0  0  0  0  0  0  0
   -0.3160    9.0108    1.9832 H   0  0  0  0  0  0  0  0  0  0  0  0
   -1.3271   10.3516    1.3156 H   0  0  0  0  0  0  0  0  0  0  0  0
   -1.9833    8.2950    0.2652 H   0  0  0  0  0  0  0  0  0  0  0  0
   -0.5280    6.8500   -0.4060 H   0  0  0  0  0  0  0  0  0  0  0  0
   -2.7186   10.5421   -0.1837 H   0  0  0  0  0  0  0  0  0  0  0  0
   -2.2906   11.3416   -1.7343 H   0  0  0  0  0  0  0  0  0  0  0  0
   -3.3495    9.8906   -1.7343 H   0  0  0  0  0  0  0  0  0  0  0  0
   -1.8875    7.4712   -1.9786 H   0  0  0  0  0  0  0  0  0  0  0  0
   -2.4074    8.7849   -3.0878 H   0  0  0  0  0  0  0  0  0  0  0  0
   -0.6979    8.2335   -3.0878 H   0  0  0  0  0  0  0  0  0  0  0  0
    3.2679   11.1781    0.3725 H   0  0  0  0  0  0  0  0  0  0  0  0
    2.9826   10.2948   -1.1654 H   0  0  0  0  0  0  0  0  0  0  0  0
    3.9484   11.8094   -1.1654 H   0  0  0  0  0  0  0  0  0  0  0  0
    1.4686   13.0161    1.0125 H   0  0  0  0  0  0  0  0  0  0  0  0
    2.9249   13.6426    0.0526 H   0  0  0  0  0  0  0  0  0  0  0  0
    0.0162   14.4237   -0.2814 H   0  0  0  0  0  0  0  0  0  0  0  0
    1.3991   15.4383    0.2891 H   0  0  0  0  0  0  0  0  0  0  0  0
    3.3517   15.4310   -0.8769 H   0  0  0  0  0  0  0  0  0  0  0  0
    3.4720   14.5377   -2.4307 H   0  0  0  0  0  0  0  0  0  0  0  0
    3.0840   16.2916   -2.4307 H   0  0  0  0  0  0  0  0  0  0  0  0
  1  2  1  0
  2  3  1  0
  3  4  1  0
  4  5  1  0
  5  6  1  0
  6  7  1  0
  7  8  1  0
  7  9  1  0
  2 10  1  0
 10 11  1  0
 11 12  1  0
 12 13  1  0
 13 14  1  1
 13 15  1  0
 15 16  1  0
 16 17  1  0
 17 18  2  0
 18 19  1  0
 19 20  1  0
 20 21  1  0
 21 22  1  0
 22 23  1  0
 22 24  1  0
 24 25  1  0
 24 26  1  0
 19 27  1  0
 27 28  1  6
 27 29  1  0
 29 30  1  0
 30 31  1  0
 31 32  1  1
  7  5  1  0
 31 10  1  0
 31 13  1  0
 27 15  1  0
 24 18  1  0
  1 33  1  0
  1 34  1  0
  1 35  1  0
  2 36  1  6
  3 37  1  0
  3 38  1  0
  4 39  1  0
  4 40  1  0
  5 41  1  1
  8 42  1  0
  8 43  1  0
  8 44  1  0
  9 45  1  0
  9 46  1  0
  9 47  1  0
 10 48  1  1
 11 49  1  0
 11 50  1  0
 12 51  1  0
 12 52  1  0
 14 53  1  0
 14 54  1  0
 14 55  1  0
 15 56  1  6
 16 57  1  0
 16 58  1  0
 17 59  1  0
 19 60  1  1
 20 61  1  0
 20 62  1  0
 21 63  1  0
 21 64  1  0
 22 65  1  1
 23 66  1  0
 25 67  1  0
 25 68  1  0
 25 69  1  0
 26 70  1  0
 26 71  1  0
 26 72  1  0
 28 73  1  0
 28 74  1  0
 28 75  1  0
 29 76  1  0
 29 77  1  0
 30 78  1  0
 30 79  1  0
 32 80  1  0
 32 81  1  0
 32 82  1  0
M  END
>  <meeko>  (4) 
{"is_sidechain": [false], "intermolecular_energy": 2.731, "internal_energy": -0.839}

$$$$
EPH_relaxed_0001_pdb2pqr_Repair_7_r2_0001_out
     RDKit          3D

 82 86  0  0  0  0  0  0  0  0999 V2000
   -3.4150    9.3250    0.5170 C   0  0  0  0  0  0  0  0  0  0  0  0
   -2.5820    9.6830   -0.7160 C   0  0  2  0  0  0  0  0  0  0  0  0
   -1.9140    8.4440   -1.3460 C   0  0  0  0  0  0  0  0  0  0  0  0
   -2.8290    7.6700   -2.2990 C   0  0  0  0  0  0  0  0  0  0  0  0
   -4.2690    7.7830   -1.8990 C   0  0  2  0  0  0  0  0  0  0  0  0
   -4.8240    6.5950   -1.3210 O   0  0  0  0  0  0  0  0  0  0  0  0
   -5.3880    7.0120   -2.5750 C   0  0  0  0  0  0  0  0  0  0  0  0
   -5.1150    6.0720   -3.7070 C   0  0  0  0  0  0  0  0  0  0  0  0
   -6.7860    7.5350   -2.4630 C   0  0  0  0  0  0  0  0  0  0  0  0
   -1.5220   10.7140   -0.3460 C   0  0  1  0  0  0  0  0  0  0  0  0
   -0.4220   10.1330    0.5820 C   0  0  0  0  0  0  0  0  0  0  0  0
    0.9070   10.8270    0.1890 C   0  0  0  0  0  0  0  0  0  0  0  0
    0.4790   12.0100   -0.7110 C   0  0  1  0  0  0  0  0  0  0  0  0
    0.0420   13.1310    0.2830 C   0  0  0  0  0  0  0  0  0  0  0  0
    1.5470   12.5250   -1.7300 C   0  0  2  0  0  0  0  0  0  0  0  0
    2.8300   13.0930   -1.0980 C   0  0  0  0  0  0  0  0  0  0  0  0
    2.8050   14.5580   -0.8120 C   0  0  0  0  0  0  0  0  0  0  0  0
    1.9130   15.4370   -1.3070 C   0  0  0  0  0  0  0  0  0  0  0  0
    0.8570   14.9960   -2.3280 C   0  0  1  0  0  0  0  0  0  0  0  0
    0.8040   16.0190   -3.4930 C   0  0  0  0  0  0  0  0  0  0  0  0
    0.5850   17.4490   -3.0070 C   0  0  0  0  0  0  0  0  0  0  0  0
    1.6880   17.8700   -2.0390 C   0  0  2  0  0  0  0  0  0  0  0  0
    2.9250   17.9450   -2.7540 O   0  0  0  0  0  0  0  0  0  0  0  0
    1.8410   16.9080   -0.8280 C   0  0  0  0  0  0  0  0  0  0  0  0
    0.6180   17.0540    0.1110 C   0  0  0  0  0  0  0  0  0  0  0  0
    3.0760   17.3670   -0.0070 C   0  0  0  0  0  0  0  0  0  0  0  0
    0.9690   13.4950   -2.8390 C   0  0  1  0  0  0  0  0  0  0  0  0
    1.9470   13.4180   -4.0510 C   0  0  0  0  0  0  0  0  0  0  0  0
   -0.4360   13.0260   -3.3710 C   0  0  0  0  0  0  0  0  0  0  0  0
   -1.4020   12.4160   -2.3370 C   0  0  0  0  0  0  0  0  0  0  0  0
   -0.7020   11.3390   -1.5020 C   0  0  2  0  0  0  0  0  0  0  0  0
   -0.2710   10.1870   -2.4720 C   0  0  0  0  0  0  0  0  0  0  0  0
   -2.8469    9.5691    1.4268 H   0  0  0  0  0  0  0  0  0  0  0  0
   -4.3530    9.8994    0.5052 H   0  0  0  0  0  0  0  0  0  0  0  0
   -3.6437    8.2491    0.5052 H   0  0  0  0  0  0  0  0  0  0  0  0
   -3.2667   10.1060   -1.4658 H   0  0  0  0  0  0  0  0  0  0  0  0
   -1.0278    8.7748   -1.9074 H   0  0  0  0  0  0  0  0  0  0  0  0
   -1.6577    7.7624   -0.5215 H   0  0  0  0  0  0  0  0  0  0  0  0
   -2.7086    8.0736   -3.3152 H   0  0  0  0  0  0  0  0  0  0  0  0
   -2.5447    6.6081   -2.2603 H   0  0  0  0  0  0  0  0  0  0  0  0
   -4.1452    8.8508   -1.6655 H   0  0  0  0  0  0  0  0  0  0  0  0
   -4.8293    5.0883   -3.3060 H   0  0  0  0  0  0  0  0  0  0  0  0
   -6.0200    5.9679   -4.3235 H   0  0  0  0  0  0  0  0  0  0  0  0
   -4.2950    6.4689   -4.3235 H   0  0  0  0  0  0  0  0  0  0  0  0
   -7.0558    7.6359   -1.4014 H   0  0  0  0  0  0  0  0  0  0  0  0
   -6.8501    8.5179   -2.9527 H   0  0  0  0  0  0  0  0  0  0  0  0
   -7.4795    6.8355   -2.9527 H   0  0  0  0  0  0  0  0  0  0  0  0
   -2.1634   11.4789    0.1162 H   0  0  0  0  0  0  0  0  0  0  0  0
   -0.6633   10.3448    1.6341 H   0  0  0  0  0  0  0  0  0  0  0  0
   -0.3460    9.0415    0.4691 H   0  0  0  0  0  0  0  0  0  0  0  0
    1.4343   11.1905    1.0833 H   0  0  0  0  0  0  0  0  0  0  0  0
    1.5991   10.1425   -0.3234 H   0  0  0  0  0  0  0  0  0  0  0  0
    0.1792   12.7789    1.3161 H   0  0  0  0  0  0  0  0  0  0  0  0
    0.6562   14.0283    0.1168 H   0  0  0  0  0  0  0  0  0  0  0  0
   -1.0174   13.3759    0.1168 H   0  0  0  0  0  0  0  0  0  0  0  0
    1.8511   11.6004   -2.2426 H   0  0  0  0  0  0  0  0  0  0  0  0
    3.0045   12.5643   -0.1493 H   0  0  0  0  0  0  0  0  0  0  0  0
    3.6278   12.9412   -1.8399 H   0  0  0  0  0  0  0  0  0  0  0  0
    3.5811   14.9529   -0.1399 H   0  0  0  0  0  0  0  0  0  0  0  0
   -0.1023   14.9924   -1.7897 H   0  0  0  0  0  0  0  0  0  0  0  0
    1.7552   15.9756   -4.0438 H   0  0  0  0  0  0  0  0  0  0  0  0
   -0.0482   15.7503   -4.1346 H   0  0  0  0  0  0  0  0  0  0  0  0
    0.5869   18.1279   -3.8725 H   0  0  0  0  0  0  0  0  0  0  0  0
   -0.3807   17.4981   -2.4825 H   0  0  0  0  0  0  0  0  0  0  0  0
    1.4080   18.8504   -1.6263 H   0  0  0  0  0  0  0  0  0  0  0  0
    3.6340   17.6840   -2.1420 H   0  0  0  0  0  0  0  0  0  0  0  0
    0.9528   17.0140    1.1580 H   0  0  0  0  0  0  0  0  0  0  0  0
    0.1228   18.0176   -0.0791 H   0  0  0  0  0  0  0  0  0  0  0  0
   -0.0902   16.2340   -0.0791 H   0  0  0  0  0  0  0  0  0  0  0  0
    2.8536   17.2843    1.0671 H   0  0  0  0  0  0  0  0  0  0  0  0
    3.9377   16.7291   -0.2532 H   0  0  0  0  0  0  0  0  0  0  0  0
    3.3119   18.4128   -0.2532 H   0  0  0  0  0  0  0  0  0  0  0  0
    2.9806   13.3366   -3.6835 H   0  0  0  0  0  0  0  0  0  0  0  0
    1.7047   12.5362   -4.6622 H   0  0  0  0  0  0  0  0  0  0  0  0
    1.8457   14.3269   -4.6622 H   0  0  0  0  0  0  0  0  0  0  0  0
   -0.9329   13.9013   -3.8148 H   0  0  0  0  0  0  0  0  0  0  0  0
   -0.2190   12.2115   -4.0778 H   0  0  0  0  0  0  0  0  0  0  0  0
   -1.7631   13.2115   -1.6686 H   0  0  0  0  0  0  0  0  0  0  0  0
   -2.2433   11.9527   -2.8733 H   0  0  0  0  0  0  0  0  0  0  0  0
    0.0549    9.3159   -1.8847 H   0  0  0  0  0  0  0  0  0  0  0  0
   -1.1238    9.9034   -3.1062 H   0  0  0  0  0  0  0  0  0  0  0  0
    0.5586   10.5328   -3.1062 H   0  0  0  0  0  0  0  0  0  0  0  0
  1  2  1  0
  2  3  1  0
  3  4  1  0
  4  5  1  0
  5  6  1  0
  6  7  1  0
  7  8  1  0
  7  9  1  0
  2 10  1  0
 10 11  1  0
 11 12  1  0
 12 13  1  0
 13 14  1  1
 13 15  1  0
 15 16  1  0
 16 17  1  0
 17 18  2  0
 18 19  1  0
 19 20  1  0
 20 21  1  0
 21 22  1  0
 22 23  1  0
 22 24  1  0
 24 25  1  0
 24 26  1  0
 19 27  1  0
 27 28  1  6
 27 29  1  0
 29 30  1  0
 30 31  1  0
 31 32  1  6
  7  5  1  0
 31 10  1  0
 31 13  1  0
 27 15  1  0
 24 18  1  0
  1 33  1  0
  1 34  1  0
  1 35  1  0
  2 36  1  6
  3 37  1  0
  3 38  1  0
  4 39  1  0
  4 40  1  0
  5 41  1  1
  8 42  1  0
  8 43  1  0
  8 44  1  0
  9 45  1  0
  9 46  1  0
  9 47  1  0
 10 48  1  1
 11 49  1  0
 11 50  1  0
 12 51  1  0
 12 52  1  0
 14 53  1  0
 14 54  1  0
 14 55  1  0
 15 56  1  6
 16 57  1  0
 16 58  1  0
 17 59  1  0
 19 60  1  1
 20 61  1  0
 20 62  1  0
 21 63  1  0
 21 64  1  0
 22 65  1  1
 23 66  1  0
 25 67  1  0
 25 68  1  0
 25 69  1  0
 26 70  1  0
 26 71  1  0
 26 72  1  0
 28 73  1  0
 28 74  1  0
 28 75  1  0
 29 76  1  0
 29 77  1  0
 30 78  1  0
 30 79  1  0
 32 80  1  0
 32 81  1  0
 32 82  1  0
M  END
>  <meeko>  (5) 
{"is_sidechain": [false], "intermolecular_energy": 2.731, "internal_energy": -0.839}

$$$$
EPH_relaxed_0001_pdb2pqr_Repair_7_r2_0001_out
     RDKit          3D

 82 86  0  0  0  0  0  0  0  0999 V2000
    3.9980   17.4760   -0.0740 C   0  0  0  0  0  0  0  0  0  0  0  0
    2.7960   17.8450   -0.9490 C   0  0  2  0  0  0  0  0  0  0  0  0
    2.1970   19.2130   -0.5650 C   0  0  0  0  0  0  0  0  0  0  0  0
    1.1840   19.1420    0.5810 C   0  0  0  0  0  0  0  0  0  0  0  0
   -0.0460   19.9450    0.2840 C   0  0  2  0  0  0  0  0  0  0  0  0
   -0.8880   20.1920    1.4180 O   0  0  0  0  0  0  0  0  0  0  0  0
   -1.4530   19.3840    0.3720 C   0  0  0  0  0  0  0  0  0  0  0  0
   -1.7020   17.9630    0.7690 C   0  0  0  0  0  0  0  0  0  0  0  0
   -2.5440   20.0650   -0.3930 C   0  0  0  0  0  0  0  0  0  0  0  0
    1.7280   16.7620   -0.8480 C   0  0  1  0  0  0  0  0  0  0  0  0
    0.3300   17.2570   -1.3060 C   0  0  0  0  0  0  0  0  0  0  0  0
   -0.3680   16.0550   -1.9920 C   0  0  0  0  0  0  0  0  0  0  0  0
    0.5030   14.8320   -1.6160 C   0  0  1  0  0  0  0  0  0  0  0  0
    0.0430   14.4400   -0.1770 C   0  0  0  0  0  0  0  0  0  0  0  0
    0.4420   13.6140   -2.5940 C   0  0  2  0  0  0  0  0  0  0  0  0
   -0.9410   12.9530   -2.7270 C   0  0  0  0  0  0  0  0  0  0  0  0
   -1.2110   11.8390   -1.7700 C   0  0  0  0  0  0  0  0  0  0  0  0
   -0.2830   11.1990   -1.0340 C   0  0  0  0  0  0  0  0  0  0  0  0
    1.2090   11.5150   -1.1990 C   0  0  1  0  0  0  0  0  0  0  0  0
    2.0120   10.1910   -1.2940 C   0  0  0  0  0  0  0  0  0  0  0  0
    1.7390    9.2560   -0.1200 C   0  0  0  0  0  0  0  0  0  0  0  0
    0.2540    8.9180   -0.0250 C   0  0  2  0  0  0  0  0  0  0  0  0
   -0.1160    8.1390   -1.1670 O   0  0  0  0  0  0  0  0  0  0  0  0
   -0.6560   10.1750    0.0670 C   0  0  0  0  0  0  0  0  0  0  0  0
   -0.4680   10.8540    1.4460 C   0  0  0  0  0  0  0  0  0  0  0  0
   -2.1330    9.7010    0.0140 C   0  0  0  0  0  0  0  0  0  0  0  0
    1.5770   12.5370   -2.3590 C   0  0  1  0  0  0  0  0  0  0  0  0
    1.7510   11.7720   -3.7060 C   0  0  0  0  0  0  0  0  0  0  0  0
    2.9710   13.1970   -2.0390 C   0  0  0  0  0  0  0  0  0  0  0  0
    2.9550   14.4670   -1.1670 C   0  0  0  0  0  0  0  0  0  0  0  0
    1.9330   15.4800   -1.6930 C   0  0  2  0  0  0  0  0  0  0  0  0
    2.3820   15.9100   -3.1310 C   0  0  0  0  0  0  0  0  0  0  0  0
    3.7194   17.5615    0.9867 H   0  0  0  0  0  0  0  0  0  0  0  0
    4.3053   16.4422   -0.2902 H   0  0  0  0  0  0  0  0  0  0  0  0
    4.8324   18.1593   -0.2902 H   0  0  0  0  0  0  0  0  0  0  0  0
    3.1524   17.9201   -1.9869 H   0  0  0  0  0  0  0  0  0  0  0  0
    3.0184   19.8788   -0.2616 H   0  0  0  0  0  0  0  0  0  0  0  0
    1.6577   19.5868   -1.4478 H   0  0  0  0  0  0  0  0  0  0  0  0
    0.8953   18.0921    0.7370 H   0  0  0  0  0  0  0  0  0  0  0  0
    1.6564   19.5591    1.4826 H   0  0  0  0  0  0  0  0  0  0  0  0
    0.4787   20.4996   -0.5079 H   0  0  0  0  0  0  0  0  0  0  0  0
   -1.7155   17.8858    1.8662 H   0  0  0  0  0  0  0  0  0  0  0  0
   -2.6714   17.6343    0.3663 H   0  0  0  0  0  0  0  0  0  0  0  0
   -0.9021   17.3242    0.3663 H   0  0  0  0  0  0  0  0  0  0  0  0
   -3.2611   20.5126    0.3109 H   0  0  0  0  0  0  0  0  0  0  0  0
   -2.1109   20.8534   -1.0261 H   0  0  0  0  0  0  0  0  0  0  0  0
   -3.0620   19.3296   -1.0261 H   0  0  0  0  0  0  0  0  0  0  0  0
    1.8080   16.5237    0.2229 H   0  0  0  0  0  0  0  0  0  0  0  0
   -0.2569   17.5905   -0.4375 H   0  0  0  0  0  0  0  0  0  0  0  0
    0.4195   18.1083   -1.9968 H   0  0  0  0  0  0  0  0  0  0  0  0
   -1.3933   15.9330   -1.6127 H   0  0  0  0  0  0  0  0  0  0  0  0
   -0.4535   16.1877   -3.0806 H   0  0  0  0  0  0  0  0  0  0  0  0
    0.6627   14.9681    0.5626 H   0  0  0  0  0  0  0  0  0  0  0  0
   -1.0115   14.7214   -0.0397 H   0  0  0  0  0  0  0  0  0  0  0  0
    0.1536   13.3542   -0.0397 H   0  0  0  0  0  0  0  0  0  0  0  0
    0.6439   14.0831   -3.5682 H   0  0  0  0  0  0  0  0  0  0  0  0
   -1.7049   13.7287   -2.5696 H   0  0  0  0  0  0  0  0  0  0  0  0
   -0.9683   12.5045   -3.7310 H   0  0  0  0  0  0  0  0  0  0  0  0
   -2.2558   11.5140   -1.6569 H   0  0  0  0  0  0  0  0  0  0  0  0
    1.5048   12.0661   -0.2941 H   0  0  0  0  0  0  0  0  0  0  0  0
    1.7351    9.6768   -2.2262 H   0  0  0  0  0  0  0  0  0  0  0  0
    3.0816   10.4470   -1.2753 H   0  0  0  0  0  0  0  0  0  0  0  0
    2.3113    8.3270   -0.2592 H   0  0  0  0  0  0  0  0  0  0  0  0
    2.0440    9.7606    0.8086 H   0  0  0  0  0  0  0  0  0  0  0  0
    0.1037    8.3530    0.9068 H   0  0  0  0  0  0  0  0  0  0  0  0
    0.6840    8.0050   -1.7030 H   0  0  0  0  0  0  0  0  0  0  0  0
   -0.6699   10.1247    2.2444 H   0  0  0  0  0  0  0  0  0  0  0  0
    0.5653   11.2201    1.5366 H   0  0  0  0  0  0  0  0  0  0  0  0
   -1.1658   11.6995    1.5366 H   0  0  0  0  0  0  0  0  0  0  0  0
   -2.5156    9.5782    1.0380 H   0  0  0  0  0  0  0  0  0  0  0  0
   -2.7395   10.4496   -0.5168 H   0  0  0  0  0  0  0  0  0  0  0  0
   -2.1906    8.7392   -0.5168 H   0  0  0  0  0  0  0  0  0  0  0  0
    1.9907   10.7182   -3.5009 H   0  0  0  0  0  0  0  0  0  0  0  0
    0.8168   11.8298   -4.2838 H   0  0  0  0  0  0  0  0  0  0  0  0
    2.5683   12.2282   -4.2838 H   0  0  0  0  0  0  0  0  0  0  0  0
    3.5839   12.4451   -1.5204 H   0  0  0  0  0  0  0  0  0  0  0  0
    3.3658   13.5218   -3.0130 H   0  0  0  0  0  0  0  0  0  0  0  0
    2.6908   14.1919   -0.1352 H   0  0  0  0  0  0  0  0  0  0  0  0
    3.9536   14.9272   -1.1989 H   0  0  0  0  0  0  0  0  0  0  0  0
    3.1746   16.6691   -3.0560 H   0  0  0  0  0  0  0  0  0  0  0  0
    2.7645   15.0328   -3.6733 H   0  0  0  0  0  0  0  0  0  0  0  0
    1.5221   16.3301   -3.6733 H   0  0  0  0  0  0  0  0  0  0  0  0
  1  2  1  0
  2  3  1  0
  3  4  1  0
  4  5  1  0
  5  6  1  0
  6  7  1  0
  7  8  1  0
  7  9  1  0
  2 10  1  0
 10 11  1  0
 11 12  1  0
 12 13  1  0
 13 14  1  1
 13 15  1  0
 15 16  1  0
 16 17  1  0
 17 18  2  0
 18 19  1  0
 19 20  1  0
 20 21  1  0
 21 22  1  0
 22 23  1  0
 22 24  1  0
 24 25  1  0
 24 26  1  0
 19 27  1  0
 27 28  1  6
 27 29  1  0
 29 30  1  0
 30 31  1  0
 31 32  1  6
  7  5  1  0
 31 10  1  0
 31 13  1  0
 27 15  1  0
 24 18  1  0
  1 33  1  0
  1 34  1  0
  1 35  1  0
  2 36  1  6
  3 37  1  0
  3 38  1  0
  4 39  1  0
  4 40  1  0
  5 41  1  6
  8 42  1  0
  8 43  1  0
  8 44  1  0
  9 45  1  0
  9 46  1  0
  9 47  1  0
 10 48  1  1
 11 49  1  0
 11 50  1  0
 12 51  1  0
 12 52  1  0
 14 53  1  0
 14 54  1  0
 14 55  1  0
 15 56  1  6
 16 57  1  0
 16 58  1  0
 17 59  1  0
 19 60  1  1
 20 61  1  0
 20 62  1  0
 21 63  1  0
 21 64  1  0
 22 65  1  1
 23 66  1  0
 25 67  1  0
 25 68  1  0
 25 69  1  0
 26 70  1  0
 26 71  1  0
 26 72  1  0
 28 73  1  0
 28 74  1  0
 28 75  1  0
 29 76  1  0
 29 77  1  0
 30 78  1  0
 30 79  1  0
 32 80  1  0
 32 81  1  0
 32 82  1  0
M  END
>  <meeko>  (6) 
{"is_sidechain": [false], "intermolecular_energy": 2.731, "internal_energy": -0.839}

$$$$
EPH_relaxed_0001_pdb2pqr_Repair_7_r2_0001_out
     RDKit          3D

 82 86  0  0  0  0  0  0  0  0999 V2000
   -5.3260    5.7040   -1.5630 C   0  0  0  0  0  0  0  0  0  0  0  0
   -5.5190    7.2040   -1.8020 C   0  0  2  0  0  0  0  0  0  0  0  0
   -5.2100    8.0370   -0.5420 C   0  0  0  0  0  0  0  0  0  0  0  0
   -4.2130    9.1740   -0.7850 C   0  0  0  0  0  0  0  0  0  0  0  0
   -2.8420    8.8240   -0.2890 C   0  0  2  0  0  0  0  0  0  0  0  0
   -2.3590    9.6590    0.7710 O   0  0  0  0  0  0  0  0  0  0  0  0
   -1.6340    9.7240   -0.4670 C   0  0  0  0  0  0  0  0  0  0  0  0
   -1.7400   11.0440   -1.1660 C   0  0  0  0  0  0  0  0  0  0  0  0
   -0.2700    9.1120   -0.4010 C   0  0  0  0  0  0  0  0  0  0  0  0
   -6.9440    7.4760   -2.2690 C   0  0  1  0  0  0  0  0  0  0  0  0
   -7.2740    6.7790   -3.6160 C   0  0  0  0  0  0  0  0  0  0  0  0
   -8.7650    6.3590   -3.5490 C   0  0  0  0  0  0  0  0  0  0  0  0
   -9.3270    7.1130   -2.3200 C   0  0  1  0  0  0  0  0  0  0  0  0
   -9.6270    8.5550   -2.8370 C   0  0  0  0  0  0  0  0  0  0  0  0
  -10.5780    6.4750   -1.6320 C   0  0  2  0  0  0  0  0  0  0  0  0
  -11.8340    6.3850   -2.5150 C   0  0  0  0  0  0  0  0  0  0  0  0
  -12.7480    7.5650   -2.4460 C   0  0  0  0  0  0  0  0  0  0  0  0
  -12.7190    8.5220   -1.5000 C   0  0  0  0  0  0  0  0  0  0  0  0
  -11.7590    8.4220   -0.3080 C   0  0  1  0  0  0  0  0  0  0  0  0
  -12.5260    8.7410    1.0020 C   0  0  0  0  0  0  0  0  0  0  0  0
  -13.2480   10.0840    0.9460 C   0  0  0  0  0  0  0  0  0  0  0  0
  -14.2360   10.1230   -0.2180 C   0  0  2  0  0  0  0  0  0  0  0  0
  -15.2870    9.1870    0.0390 O   0  0  0  0  0  0  0  0  0  0  0  0
  -13.5780    9.8070   -1.5900 C   0  0  0  0  0  0  0  0  0  0  0  0
  -12.6570   10.9800   -2.0090 C   0  0  0  0  0  0  0  0  0  0  0  0
  -14.7060    9.7400   -2.6560 C   0  0  0  0  0  0  0  0  0  0  0  0
  -10.9130    7.0800   -0.2090 C   0  0  1  0  0  0  0  0  0  0  0  0
  -11.7280    5.9930    0.5570 C   0  0  0  0  0  0  0  0  0  0  0  0
   -9.6190    7.3500    0.6470 C   0  0  0  0  0  0  0  0  0  0  0  0
   -8.3810    7.8660   -0.1100 C   0  0  0  0  0  0  0  0  0  0  0  0
   -8.0970    7.0080   -1.3470 C   0  0  2  0  0  0  0  0  0  0  0  0
   -7.7710    5.5560   -0.8570 C   0  0  0  0  0  0  0  0  0  0  0  0
   -5.3004    5.5054   -0.4814 H   0  0  0  0  0  0  0  0  0  0  0  0
   -6.1603    5.1499   -2.0180 H   0  0  0  0  0  0  0  0  0  0  0  0
   -4.3787    5.3791   -2.0180 H   0  0  0  0  0  0  0  0  0  0  0  0
   -4.8067    7.5094   -2.5826 H   0  0  0  0  0  0  0  0  0  0  0  0
   -6.1508    8.4727   -0.1744 H   0  0  0  0  0  0  0  0  0  0  0  0
   -4.7492    7.3560    0.1886 H   0  0  0  0  0  0  0  0  0  0  0  0
   -4.1604    9.3775   -1.8647 H   0  0  0  0  0  0  0  0  0  0  0  0
   -4.5616   10.0598   -0.2338 H   0  0  0  0  0  0  0  0  0  0  0  0
   -3.0075    7.7591   -0.5092 H   0  0  0  0  0  0  0  0  0  0  0  0
   -1.8047   11.8498   -0.4200 H   0  0  0  0  0  0  0  0  0  0  0  0
   -0.8513   11.1978   -1.7957 H   0  0  0  0  0  0  0  0  0  0  0  0
   -2.6418   11.0541   -1.7957 H   0  0  0  0  0  0  0  0  0  0  0  0
    0.0225    8.9808    0.6513 H   0  0  0  0  0  0  0  0  0  0  0  0
   -0.2826    8.1332   -0.9029 H   0  0  0  0  0  0  0  0  0  0  0  0
    0.4527    9.7721   -0.9029 H   0  0  0  0  0  0  0  0  0  0  0  0
   -6.9179    8.5750   -2.3091 H   0  0  0  0  0  0  0  0  0  0  0  0
   -7.1139    7.4756   -4.4521 H   0  0  0  0  0  0  0  0  0  0  0  0
   -6.6247    5.9060   -3.7784 H   0  0  0  0  0  0  0  0  0  0  0  0
   -9.2948    6.6596   -4.4649 H   0  0  0  0  0  0  0  0  0  0  0  0
   -8.8884    5.2694   -3.4627 H   0  0  0  0  0  0  0  0  0  0  0  0
   -9.7674    9.2300   -1.9799 H   0  0  0  0  0  0  0  0  0  0  0  0
   -8.7832    8.9085   -3.4477 H   0  0  0  0  0  0  0  0  0  0  0  0
  -10.5418    8.5426   -3.4477 H   0  0  0  0  0  0  0  0  0  0  0  0
  -10.2539    5.4365   -1.4693 H   0  0  0  0  0  0  0  0  0  0  0  0
  -11.5079    6.2681   -3.5590 H   0  0  0  0  0  0  0  0  0  0  0  0
  -12.4121    5.5294   -2.1358 H   0  0  0  0  0  0  0  0  0  0  0  0
  -13.5087    7.6596   -3.2349 H   0  0  0  0  0  0  0  0  0  0  0  0
  -10.9810    9.1805   -0.4795 H   0  0  0  0  0  0  0  0  0  0  0  0
  -13.2686    7.9487    1.1775 H   0  0  0  0  0  0  0  0  0  0  0  0
  -11.7883    8.7926    1.8163 H   0  0  0  0  0  0  0  0  0  0  0  0
  -13.7947   10.2386    1.8879 H   0  0  0  0  0  0  0  0  0  0  0  0
  -12.5015   10.8787    0.8004 H   0  0  0  0  0  0  0  0  0  0  0  0
  -14.6261   11.1492   -0.2865 H   0  0  0  0  0  0  0  0  0  0  0  0
  -14.9780    8.3110   -0.2470 H   0  0  0  0  0  0  0  0  0  0  0  0
  -12.2658   11.4783   -1.1097 H   0  0  0  0  0  0  0  0  0  0  0  0
  -11.8192   10.5927   -2.6074 H   0  0  0  0  0  0  0  0  0  0  0  0
  -13.2320   11.7020   -2.6074 H   0  0  0  0  0  0  0  0  0  0  0  0
  -15.6827    9.6820   -2.1532 H   0  0  0  0  0  0  0  0  0  0  0  0
  -14.6703   10.6418   -3.2848 H   0  0  0  0  0  0  0  0  0  0  0  0
  -14.5638    8.8487   -3.2848 H   0  0  0  0  0  0  0  0  0  0  0  0
  -11.6140    6.1450    1.6405 H   0  0  0  0  0  0  0  0  0  0  0  0
  -12.7910    6.0725    0.2854 H   0  0  0  0  0  0  0  0  0  0  0  0
  -11.3538    4.9949    0.2854 H   0  0  0  0  0  0  0  0  0  0  0  0
   -9.8762    8.0969    1.4125 H   0  0  0  0  0  0  0  0  0  0  0  0
   -9.3253    6.3666    1.0428 H   0  0  0  0  0  0  0  0  0  0  0  0
   -8.5594    8.9045   -0.4257 H   0  0  0  0  0  0  0  0  0  0  0  0
   -7.5115    7.8114    0.5616 H   0  0  0  0  0  0  0  0  0  0  0  0
   -7.7658    5.5327    0.2427 H   0  0  0  0  0  0  0  0  0  0  0  0
   -8.5355    4.8612   -1.2349 H   0  0  0  0  0  0  0  0  0  0  0  0
   -6.7828    5.2547   -1.2349 H   0  0  0  0  0  0  0  0  0  0  0  0
  1  2  1  0
  2  3  1  0
  3  4  1  0
  4  5  1  0
  5  6  1  0
  6  7  1  0
  7  8  1  0
  7  9  1  0
  2 10  1  0
 10 11  1  0
 11 12  1  0
 12 13  1  0
 13 14  1  6
 13 15  1  0
 15 16  1  0
 16 17  1  0
 17 18  2  0
 18 19  1  0
 19 20  1  0
 20 21  1  0
 21 22  1  0
 22 23  1  0
 22 24  1  0
 24 25  1  0
 24 26  1  0
 19 27  1  0
 27 28  1  1
 27 29  1  0
 29 30  1  0
 30 31  1  0
 31 32  1  1
  7  5  1  0
 31 10  1  0
 31 13  1  0
 27 15  1  0
 24 18  1  0
  1 33  1  0
  1 34  1  0
  1 35  1  0
  2 36  1  6
  3 37  1  0
  3 38  1  0
  4 39  1  0
  4 40  1  0
  5 41  1  1
  8 42  1  0
  8 43  1  0
  8 44  1  0
  9 45  1  0
  9 46  1  0
  9 47  1  0
 10 48  1  6
 11 49  1  0
 11 50  1  0
 12 51  1  0
 12 52  1  0
 14 53  1  0
 14 54  1  0
 14 55  1  0
 15 56  1  1
 16 57  1  0
 16 58  1  0
 17 59  1  0
 19 60  1  6
 20 61  1  0
 20 62  1  0
 21 63  1  0
 21 64  1  0
 22 65  1  6
 23 66  1  0
 25 67  1  0
 25 68  1  0
 25 69  1  0
 26 70  1  0
 26 71  1  0
 26 72  1  0
 28 73  1  0
 28 74  1  0
 28 75  1  0
 29 76  1  0
 29 77  1  0
 30 78  1  0
 30 79  1  0
 32 80  1  0
 32 81  1  0
 32 82  1  0
M  END
>  <meeko>  (7) 
{"is_sidechain": [false], "intermolecular_energy": 2.731, "internal_energy": -0.839}

$$$$
EPH_relaxed_0001_pdb2pqr_Repair_7_r2_0001_out
     RDKit          3D

 82 86  0  0  0  0  0  0  0  0999 V2000
    0.4070    8.8120   -2.4450 C   0  0  0  0  0  0  0  0  0  0  0  0
    1.1610    9.9610   -3.1200 C   0  0  2  0  0  0  0  0  0  0  0  0
    2.6590    9.9680   -2.7520 C   0  0  0  0  0  0  0  0  0  0  0  0
    3.5570   10.5680   -3.8370 C   0  0  0  0  0  0  0  0  0  0  0  0
    4.9480   10.8080   -3.3350 C   0  0  2  0  0  0  0  0  0  0  0  0
    5.5460   12.0290   -3.7900 O   0  0  0  0  0  0  0  0  0  0  0  0
    6.1720   10.8140   -4.2330 C   0  0  0  0  0  0  0  0  0  0  0  0
    6.0610   10.5730   -5.7050 C   0  0  0  0  0  0  0  0  0  0  0  0
    7.5130   10.5670   -3.6150 C   0  0  0  0  0  0  0  0  0  0  0  0
    0.5250   11.2930   -2.7410 C   0  0  1  0  0  0  0  0  0  0  0  0
   -0.8540   11.1220   -2.0510 C   0  0  0  0  0  0  0  0  0  0  0  0
   -0.9690   12.2520   -0.9950 C   0  0  0  0  0  0  0  0  0  0  0  0
    0.1840   13.2240   -1.3370 C   0  0  1  0  0  0  0  0  0  0  0  0
   -0.3600   14.0950   -2.5130 C   0  0  0  0  0  0  0  0  0  0  0  0
    0.7140   14.1080   -0.1620 C   0  0  2  0  0  0  0  0  0  0  0  0
   -0.3150   15.0820    0.4380 C   0  0  0  0  0  0  0  0  0  0  0  0
   -0.3530   16.4360   -0.1910 C   0  0  0  0  0  0  0  0  0  0  0  0
    0.5920   16.9500   -1.0000 C   0  0  0  0  0  0  0  0  0  0  0  0
    1.8920   16.1840   -1.2780 C   0  0  1  0  0  0  0  0  0  0  0  0
    3.1000   17.1460   -1.1360 C   0  0  0  0  0  0  0  0  0  0  0  0
    2.9610   18.3930   -2.0040 C   0  0  0  0  0  0  0  0  0  0  0  0
    1.6860   19.1580   -1.6570 C   0  0  2  0  0  0  0  0  0  0  0  0
    1.8100   19.6850   -0.3320 O   0  0  0  0  0  0  0  0  0  0  0  0
    0.4020   18.2880   -1.7560 C   0  0  0  0  0  0  0  0  0  0  0  0
    0.1030   17.9680   -3.2410 C   0  0  0  0  0  0  0  0  0  0  0  0
   -0.7920   19.1380   -1.2450 C   0  0  0  0  0  0  0  0  0  0  0  0
    2.0880   14.8330   -0.4640 C   0  0  1  0  0  0  0  0  0  0  0  0
    2.7460   15.1350    0.9170 C   0  0  0  0  0  0  0  0  0  0  0  0
    3.0950   13.9060   -1.2420 C   0  0  0  0  0  0  0  0  0  0  0  0
    2.4950   12.9690   -2.3080 C   0  0  0  0  0  0  0  0  0  0  0  0
    1.2990   12.1940   -1.7470 C   0  0  2  0  0  0  0  0  0  0  0  0
    1.8210   11.2920   -0.5760 C   0  0  0  0  0  0  0  0  0  0  0  0
    0.4773    8.9191   -1.3525 H   0  0  0  0  0  0  0  0  0  0  0  0
   -0.6499    8.8385   -2.7488 H   0  0  0  0  0  0  0  0  0  0  0  0
    0.8519    7.8530   -2.7488 H   0  0  0  0  0  0  0  0  0  0  0  0
    1.0892    9.8108   -4.2073 H   0  0  0  0  0  0  0  0  0  0  0  0
    2.7875   10.5555   -1.8309 H   0  0  0  0  0  0  0  0  0  0  0  0
    2.9639    8.9186   -2.6268 H   0  0  0  0  0  0  0  0  0  0  0  0
    3.6003    9.8729   -4.6885 H   0  0  0  0  0  0  0  0  0  0  0  0
    3.1299   11.5356   -4.1392 H   0  0  0  0  0  0  0  0  0  0  0  0
    4.7251   10.2824   -2.3948 H   0  0  0  0  0  0  0  0  0  0  0  0
    5.6068    9.5869   -5.8819 H   0  0  0  0  0  0  0  0  0  0  0  0
    5.4315   11.3532   -6.1578 H   0  0  0  0  0  0  0  0  0  0  0  0
    7.0631   10.6017   -6.1578 H   0  0  0  0  0  0  0  0  0  0  0  0
    7.4204   10.5841   -2.5190 H   0  0  0  0  0  0  0  0  0  0  0  0
    7.8893    9.5844   -3.9359 H   0  0  0  0  0  0  0  0  0  0  0  0
    8.2147   11.3510   -3.9359 H   0  0  0  0  0  0  0  0  0  0  0  0
    0.4916   11.7692   -3.7320 H   0  0  0  0  0  0  0  0  0  0  0  0
   -1.6621   11.2122   -2.7919 H   0  0  0  0  0  0  0  0  0  0  0  0
   -0.9402   10.1314   -1.5805 H   0  0  0  0  0  0  0  0  0  0  0  0
   -1.9415   12.7599   -1.0741 H   0  0  0  0  0  0  0  0  0  0  0  0
   -0.9010   11.8697    0.0342 H   0  0  0  0  0  0  0  0  0  0  0  0
   -0.9016   14.9621   -2.1070 H   0  0  0  0  0  0  0  0  0  0  0  0
    0.4809   14.4441   -3.1303 H   0  0  0  0  0  0  0  0  0  0  0  0
   -1.0426   13.4925   -3.1303 H   0  0  0  0  0  0  0  0  0  0  0  0
    0.9122   13.3624    0.6221 H   0  0  0  0  0  0  0  0  0  0  0  0
   -1.3124   14.6302    0.3329 H   0  0  0  0  0  0  0  0  0  0  0  0
   -0.0113   15.2401    1.4833 H   0  0  0  0  0  0  0  0  0  0  0  0
   -1.2277   17.0669    0.0253 H   0  0  0  0  0  0  0  0  0  0  0  0
    1.8193   15.8275   -2.3161 H   0  0  0  0  0  0  0  0  0  0  0  0
    3.1817   17.4562   -0.0838 H   0  0  0  0  0  0  0  0  0  0  0  0
    3.9979   16.6055   -1.4700 H   0  0  0  0  0  0  0  0  0  0  0  0
    3.8300   19.0466   -1.8375 H   0  0  0  0  0  0  0  0  0  0  0  0
    2.9098   18.0838   -3.0584 H   0  0  0  0  0  0  0  0  0  0  0  0
    1.5747   19.9648   -2.3964 H   0  0  0  0  0  0  0  0  0  0  0  0
    2.1370   20.5970   -0.4080 H   0  0  0  0  0  0  0  0  0  0  0  0
   -0.6469   17.1654   -3.2993 H   0  0  0  0  0  0  0  0  0  0  0  0
   -0.2845   18.8688   -3.7394 H   0  0  0  0  0  0  0  0  0  0  0  0
    1.0280   17.6424   -3.7394 H   0  0  0  0  0  0  0  0  0  0  0  0
   -0.7959   19.1408   -0.1450 H   0  0  0  0  0  0  0  0  0  0  0  0
   -0.6923   20.1695   -1.6139 H   0  0  0  0  0  0  0  0  0  0  0  0
   -1.7340   18.7061   -1.6139 H   0  0  0  0  0  0  0  0  0  0  0  0
    2.0659   14.8229    1.7233 H   0  0  0  0  0  0  0  0  0  0  0  0
    3.6928   14.5813    1.0010 H   0  0  0  0  0  0  0  0  0  0  0  0
    2.9435   16.2139    1.0010 H   0  0  0  0  0  0  0  0  0  0  0  0
    3.8261   14.5566   -1.7443 H   0  0  0  0  0  0  0  0  0  0  0  0
    3.5203   13.2382   -0.4783 H   0  0  0  0  0  0  0  0  0  0  0  0
    2.1634   13.5687   -3.1685 H   0  0  0  0  0  0  0  0  0  0  0  0
    3.2669   12.2480   -2.6153 H   0  0  0  0  0  0  0  0  0  0  0  0
    1.5551   11.7515    0.3874 H   0  0  0  0  0  0  0  0  0  0  0  0
    1.3598   10.2959   -0.6468 H   0  0  0  0  0  0  0  0  0  0  0  0
    2.9145   11.1956   -0.6468 H   0  0  0  0  0  0  0  0  0  0  0  0
  1  2  1  0
  2  3  1  0
  3  4  1  0
  4  5  1  0
  5  6  1  0
  6  7  1  0
  7  8  1  0
  7  9  1  0
  2 10  1  0
 10 11  1  0
 11 12  1  0
 12 13  1  0
 13 14  1  6
 13 15  1  0
 15 16  1  0
 16 17  1  0
 17 18  2  0
 18 19  1  0
 19 20  1  0
 20 21  1  0
 21 22  1  0
 22 23  1  0
 22 24  1  0
 24 25  1  0
 24 26  1  0
 19 27  1  0
 27 28  1  1
 27 29  1  0
 29 30  1  0
 30 31  1  0
 31 32  1  1
  7  5  1  0
 31 10  1  0
 31 13  1  0
 27 15  1  0
 24 18  1  0
  1 33  1  0
  1 34  1  0
  1 35  1  0
  2 36  1  6
  3 37  1  0
  3 38  1  0
  4 39  1  0
  4 40  1  0
  5 41  1  1
  8 42  1  0
  8 43  1  0
  8 44  1  0
  9 45  1  0
  9 46  1  0
  9 47  1  0
 10 48  1  6
 11 49  1  0
 11 50  1  0
 12 51  1  0
 12 52  1  0
 14 53  1  0
 14 54  1  0
 14 55  1  0
 15 56  1  1
 16 57  1  0
 16 58  1  0
 17 59  1  0
 19 60  1  6
 20 61  1  0
 20 62  1  0
 21 63  1  0
 21 64  1  0
 22 65  1  6
 23 66  1  0
 25 67  1  0
 25 68  1  0
 25 69  1  0
 26 70  1  0
 26 71  1  0
 26 72  1  0
 28 73  1  0
 28 74  1  0
 28 75  1  0
 29 76  1  0
 29 77  1  0
 30 78  1  0
 30 79  1  0
 32 80  1  0
 32 81  1  0
 32 82  1  0
M  END
>  <meeko>  (8) 
{"is_sidechain": [false], "intermolecular_energy": 2.731, "internal_energy": -0.839}

$$$$
EPH_relaxed_0001_pdb2pqr_Repair_7_r2_0001_out
     RDKit          3D

 82 86  0  0  0  0  0  0  0  0999 V2000
   -1.0960   16.4160   -5.8780 C   0  0  0  0  0  0  0  0  0  0  0  0
    0.0580   15.6860   -6.5720 C   0  0  2  0  0  0  0  0  0  0  0  0
   -0.2690   15.3450   -8.0390 C   0  0  0  0  0  0  0  0  0  0  0  0
    0.3090   16.3440   -9.0460 C   0  0  0  0  0  0  0  0  0  0  0  0
    1.7360   16.0300   -9.3810 C   0  0  2  0  0  0  0  0  0  0  0  0
    2.2310   16.6780  -10.5600 O   0  0  0  0  0  0  0  0  0  0  0  0
    2.1540   15.2440  -10.6090 C   0  0  0  0  0  0  0  0  0  0  0  0
    1.1450   14.7200  -11.5810 C   0  0  0  0  0  0  0  0  0  0  0  0
    3.4900   14.5680  -10.6050 C   0  0  0  0  0  0  0  0  0  0  0  0
    0.4020   14.4140   -5.8060 C   0  0  1  0  0  0  0  0  0  0  0  0
    1.4920   13.5660   -6.5150 C   0  0  0  0  0  0  0  0  0  0  0  0
    2.3490   12.9150   -5.4000 C   0  0  0  0  0  0  0  0  0  0  0  0
    1.5340   13.1340   -4.1040 C   0  0  1  0  0  0  0  0  0  0  0  0
    0.4570   12.0040   -4.1110 C   0  0  0  0  0  0  0  0  0  0  0  0
    2.3480   13.1470   -2.7690 C   0  0  2  0  0  0  0  0  0  0  0  0
    3.0730   11.8320   -2.4340 C   0  0  0  0  0  0  0  0  0  0  0  0
    2.2860   10.8610   -1.6170 C   0  0  0  0  0  0  0  0  0  0  0  0
    1.1640   11.1450   -0.9310 C   0  0  0  0  0  0  0  0  0  0  0  0
    0.6290   12.5810   -0.8550 C   0  0  1  0  0  0  0  0  0  0  0  0
    0.2550   12.9170    0.6130 C   0  0  0  0  0  0  0  0  0  0  0  0
   -0.7100   11.9020    1.2180 C   0  0  0  0  0  0  0  0  0  0  0  0
   -0.1190   10.4950    1.1760 C   0  0  2  0  0  0  0  0  0  0  0  0
    1.0120   10.4450    2.0520 O   0  0  0  0  0  0  0  0  0  0  0  0
    0.3050   10.0500   -0.2510 C   0  0  0  0  0  0  0  0  0  0  0  0
   -0.9570    9.8130   -1.1180 C   0  0  0  0  0  0  0  0  0  0  0  0
    1.0130    8.6740   -0.1320 C   0  0  0  0  0  0  0  0  0  0  0  0
    1.5420   13.6970   -1.5230 C   0  0  1  0  0  0  0  0  0  0  0  0
    2.6000   14.2030   -0.4960 C   0  0  0  0  0  0  0  0  0  0  0  0
    0.6480   14.9400   -1.8900 C   0  0  0  0  0  0  0  0  0  0  0  0
   -0.0340   14.9230   -3.2710 C   0  0  0  0  0  0  0  0  0  0  0  0
    0.9710   14.5770   -4.3740 C   0  0  2  0  0  0  0  0  0  0  0  0
    2.0540   15.7080   -4.4060 C   0  0  0  0  0  0  0  0  0  0  0  0
   -0.9751   16.3395   -4.7873 H   0  0  0  0  0  0  0  0  0  0  0  0
   -1.0906   17.4754   -6.1741 H   0  0  0  0  0  0  0  0  0  0  0  0
   -2.0509   15.9573   -6.1741 H   0  0  0  0  0  0  0  0  0  0  0  0
    0.9241   16.3641   -6.5764 H   0  0  0  0  0  0  0  0  0  0  0  0
    0.1402   14.3490   -8.2637 H   0  0  0  0  0  0  0  0  0  0  0  0
   -1.3636   15.3814   -8.1416 H   0  0  0  0  0  0  0  0  0  0  0  0
   -0.2899   16.3079   -9.9679 H   0  0  0  0  0  0  0  0  0  0  0  0
    0.2753   17.3459   -8.5933 H   0  0  0  0  0  0  0  0  0  0  0  0
    1.9864   15.9216   -8.3154 H   0  0  0  0  0  0  0  0  0  0  0  0
    0.2996   14.2810  -11.0310 H   0  0  0  0  0  0  0  0  0  0  0  0
    0.7828   15.5439  -12.2134 H   0  0  0  0  0  0  0  0  0  0  0  0
    1.6106   13.9498  -12.2134 H   0  0  0  0  0  0  0  0  0  0  0  0
    3.8147   14.4037   -9.5669 H   0  0  0  0  0  0  0  0  0  0  0  0
    3.4129   13.6004  -11.1226 H   0  0  0  0  0  0  0  0  0  0  0  0
    4.2239   15.2032  -11.1226 H   0  0  0  0  0  0  0  0  0  0  0  0
   -0.5942   13.9494   -5.7645 H   0  0  0  0  0  0  0  0  0  0  0  0
    1.0227   12.7878   -7.1348 H   0  0  0  0  0  0  0  0  0  0  0  0
    2.1116   14.1915   -7.1744 H   0  0  0  0  0  0  0  0  0  0  0  0
    2.4885   11.8413   -5.5943 H   0  0  0  0  0  0  0  0  0  0  0  0
    3.3562   13.3529   -5.3385 H   0  0  0  0  0  0  0  0  0  0  0  0
    0.2008   11.7352   -3.0756 H   0  0  0  0  0  0  0  0  0  0  0  0
   -0.4445   12.3599   -4.6312 H   0  0  0  0  0  0  0  0  0  0  0  0
    0.8558   11.1206   -4.6312 H   0  0  0  0  0  0  0  0  0  0  0  0
    3.1409   13.8786   -2.9837 H   0  0  0  0  0  0  0  0  0  0  0  0
    3.3412   11.3408   -3.3810 H   0  0  0  0  0  0  0  0  0  0  0  0
    3.9428   12.1112   -1.8212 H   0  0  0  0  0  0  0  0  0  0  0  0
    2.6549    9.8257   -1.5722 H   0  0  0  0  0  0  0  0  0  0  0  0
   -0.2728   12.6036   -1.4844 H   0  0  0  0  0  0  0  0  0  0  0  0
    1.1746   12.9324    1.2164 H   0  0  0  0  0  0  0  0  0  0  0  0
   -0.2464   13.8961    0.6140 H   0  0  0  0  0  0  0  0  0  0  0  0
   -0.9121   12.1765    2.2638 H   0  0  0  0  0  0  0  0  0  0  0  0
   -1.6406   11.9096    0.6316 H   0  0  0  0  0  0  0  0  0  0  0  0
   -0.9049    9.7970    1.5003 H   0  0  0  0  0  0  0  0  0  0  0  0
    0.8080   10.9940    2.8270 H   0  0  0  0  0  0  0  0  0  0  0  0
   -1.8260    9.6498   -0.4637 H   0  0  0  0  0  0  0  0  0  0  0  0
   -1.1362   10.6932   -1.7529 H   0  0  0  0  0  0  0  0  0  0  0  0
   -0.8047    8.9278   -1.7529 H   0  0  0  0  0  0  0  0  0  0  0  0
    1.1439    8.4196    0.9302 H   0  0  0  0  0  0  0  0  0  0  0  0
    0.3998    7.9026   -0.6209 H   0  0  0  0  0  0  0  0  0  0  0  0
    1.9971    8.7245   -0.6209 H   0  0  0  0  0  0  0  0  0  0  0  0
    2.2325   14.0272    0.5258 H   0  0  0  0  0  0  0  0  0  0  0  0
    3.5446   13.6592   -0.6445 H   0  0  0  0  0  0  0  0  0  0  0  0
    2.7695   15.2797   -0.6445 H   0  0  0  0  0  0  0  0  0  0  0  0
   -0.1430   15.0169   -1.1294 H   0  0  0  0  0  0  0  0  0  0  0  0
    1.3416   15.7931   -1.9226 H   0  0  0  0  0  0  0  0  0  0  0  0
   -0.8368   14.1710   -3.2667 H   0  0  0  0  0  0  0  0  0  0  0  0
   -0.4449   15.9234   -3.4718 H   0  0  0  0  0  0  0  0  0  0  0  0
    2.3222   15.9881   -3.3766 H   0  0  0  0  0  0  0  0  0  0  0  0
    2.9489   15.3440   -4.9319 H   0  0  0  0  0  0  0  0  0  0  0  0
    1.6515   16.5863   -4.9319 H   0  0  0  0  0  0  0  0  0  0  0  0
  1  2  1  0
  2  3  1  0
  3  4  1  0
  4  5  1  0
  5  6  1  0
  6  7  1  0
  7  8  1  0
  7  9  1  0
  2 10  1  0
 10 11  1  0
 11 12  1  0
 12 13  1  0
 13 14  1  1
 13 15  1  0
 15 16  1  0
 16 17  1  0
 17 18  2  0
 18 19  1  0
 19 20  1  0
 20 21  1  0
 21 22  1  0
 22 23  1  0
 22 24  1  0
 24 25  1  0
 24 26  1  0
 19 27  1  0
 27 28  1  1
 27 29  1  0
 29 30  1  0
 30 31  1  0
 31 32  1  6
  7  5  1  0
 31 10  1  0
 31 13  1  0
 27 15  1  0
 24 18  1  0
  1 33  1  0
  1 34  1  0
  1 35  1  0
  2 36  1  6
  3 37  1  0
  3 38  1  0
  4 39  1  0
  4 40  1  0
  5 41  1  1
  8 42  1  0
  8 43  1  0
  8 44  1  0
  9 45  1  0
  9 46  1  0
  9 47  1  0
 10 48  1  1
 11 49  1  0
 11 50  1  0
 12 51  1  0
 12 52  1  0
 14 53  1  0
 14 54  1  0
 14 55  1  0
 15 56  1  6
 16 57  1  0
 16 58  1  0
 17 59  1  0
 19 60  1  6
 20 61  1  0
 20 62  1  0
 21 63  1  0
 21 64  1  0
 22 65  1  1
 23 66  1  0
 25 67  1  0
 25 68  1  0
 25 69  1  0
 26 70  1  0
 26 71  1  0
 26 72  1  0
 28 73  1  0
 28 74  1  0
 28 75  1  0
 29 76  1  0
 29 77  1  0
 30 78  1  0
 30 79  1  0
 32 80  1  0
 32 81  1  0
 32 82  1  0
M  END
>  <meeko>  (9) 
{"is_sidechain": [false], "intermolecular_energy": 2.731, "internal_energy": -0.839}

$$$$
EPH_relaxed_0001_pdb2pqr_Repair_7_r2_0001_out
     RDKit          3D

 82 86  0  0  0  0  0  0  0  0999 V2000
   -3.7430    7.2290   -3.4610 C   0  0  0  0  0  0  0  0  0  0  0  0
   -3.7580    7.2940   -1.9310 C   0  0  2  0  0  0  0  0  0  0  0  0
   -5.1690    7.0630   -1.3540 C   0  0  0  0  0  0  0  0  0  0  0  0
   -6.2930    7.2840   -2.3700 C   0  0  0  0  0  0  0  0  0  0  0  0
   -7.6170    7.4860   -1.6960 C   0  0  2  0  0  0  0  0  0  0  0  0
   -8.1860    6.3010   -1.1250 O   0  0  0  0  0  0  0  0  0  0  0  0
   -8.9160    6.8950   -2.2100 C   0  0  0  0  0  0  0  0  0  0  0  0
   -8.9550    6.0560   -3.4490 C   0  0  0  0  0  0  0  0  0  0  0  0
  -10.2060    7.5300   -1.7930 C   0  0  0  0  0  0  0  0  0  0  0  0
   -3.2170    8.6400   -1.4630 C   0  0  1  0  0  0  0  0  0  0  0  0
   -3.8450    9.1010   -0.1200 C   0  0  0  0  0  0  0  0  0  0  0  0
   -2.7340    9.8550    0.6560 C   0  0  0  0  0  0  0  0  0  0  0  0
   -1.6190   10.0920   -0.3890 C   0  0  1  0  0  0  0  0  0  0  0  0
   -2.0830   11.3460   -1.1930 C   0  0  0  0  0  0  0  0  0  0  0  0
   -0.1710   10.2700    0.1740 C   0  0  2  0  0  0  0  0  0  0  0  0
    0.0280   11.4910    1.0890 C   0  0  0  0  0  0  0  0  0  0  0  0
    0.4450   12.7460    0.3960 C   0  0  0  0  0  0  0  0  0  0  0  0
    0.9260   12.8230   -0.8590 C   0  0  0  0  0  0  0  0  0  0  0  0
    1.1840   11.5560   -1.6830 C   0  0  1  0  0  0  0  0  0  0  0  0
    2.5790   11.6510   -2.3550 C   0  0  0  0  0  0  0  0  0  0  0  0
    2.7470   12.9250   -3.1770 C   0  0  0  0  0  0  0  0  0  0  0  0
    2.5400   14.1640   -2.3090 C   0  0  2  0  0  0  0  0  0  0  0  0
    3.6010   14.2400   -1.3530 O   0  0  0  0  0  0  0  0  0  0  0  0
    1.1710   14.1750   -1.5730 C   0  0  0  0  0  0  0  0  0  0  0  0
    0.0310   14.3970   -2.5980 C   0  0  0  0  0  0  0  0  0  0  0  0
    1.1480   15.4050   -0.6260 C   0  0  0  0  0  0  0  0  0  0  0  0
    0.9660   10.1780   -0.9220 C   0  0  1  0  0  0  0  0  0  0  0  0
    2.2730    9.7690   -0.1750 C   0  0  0  0  0  0  0  0  0  0  0  0
    0.6870    9.0450   -1.9800 C   0  0  0  0  0  0  0  0  0  0  0  0
   -0.7790    8.8390   -2.4070 C   0  0  0  0  0  0  0  0  0  0  0  0
   -1.6970    8.7380   -1.1840 C   0  0  2  0  0  0  0  0  0  0  0  0
   -1.2680    7.4720   -0.3670 C   0  0  0  0  0  0  0  0  0  0  0  0
   -3.5064    6.2039   -3.7821 H   0  0  0  0  0  0  0  0  0  0  0  0
   -4.7310    7.5163   -3.8499 H   0  0  0  0  0  0  0  0  0  0  0  0
   -2.9808    7.9202   -3.8499 H   0  0  0  0  0  0  0  0  0  0  0  0
   -3.1130    6.4845   -1.5586 H   0  0  0  0  0  0  0  0  0  0  0  0
   -5.2296    6.0271   -0.9888 H   0  0  0  0  0  0  0  0  0  0  0  0
   -5.3124    7.8003   -0.5504 H   0  0  0  0  0  0  0  0  0  0  0  0
   -6.0596    8.1747   -2.9719 H   0  0  0  0  0  0  0  0  0  0  0  0
   -6.3638    6.3878   -3.0039 H   0  0  0  0  0  0  0  0  0  0  0  0
   -7.3369    8.5080   -1.4010 H   0  0  0  0  0  0  0  0  0  0  0  0
   -9.0044    4.9930   -3.1706 H   0  0  0  0  0  0  0  0  0  0  0  0
   -9.8418    6.3209   -4.0435 H   0  0  0  0  0  0  0  0  0  0  0  0
   -8.0474    6.2375   -4.0435 H   0  0  0  0  0  0  0  0  0  0  0  0
  -10.2628    7.5579   -0.6948 H   0  0  0  0  0  0  0  0  0  0  0  0
  -10.2549    8.5551   -2.1889 H   0  0  0  0  0  0  0  0  0  0  0  0
  -11.0482    6.9435   -2.1889 H   0  0  0  0  0  0  0  0  0  0  0  0
   -3.4794    9.2574   -2.3347 H   0  0  0  0  0  0  0  0  0  0  0  0
   -4.6963    9.7712   -0.3099 H   0  0  0  0  0  0  0  0  0  0  0  0
   -4.2180    8.2424    0.4577 H   0  0  0  0  0  0  0  0  0  0  0  0
   -3.1126   10.8123    1.0436 H   0  0  0  0  0  0  0  0  0  0  0  0
   -2.3750    9.2869    1.5269 H   0  0  0  0  0  0  0  0  0  0  0  0
   -2.3775   12.1419   -0.4932 H   0  0  0  0  0  0  0  0  0  0  0  0
   -1.2570   11.7018   -1.8263 H   0  0  0  0  0  0  0  0  0  0  0  0
   -2.9416   11.0784   -1.8263 H   0  0  0  0  0  0  0  0  0  0  0  0
   -0.0606    9.3891    0.8234 H   0  0  0  0  0  0  0  0  0  0  0  0
   -0.9233   11.6877    1.6050 H   0  0  0  0  0  0  0  0  0  0  0  0
    0.8524   11.2305    1.7690 H   0  0  0  0  0  0  0  0  0  0  0  0
    0.3513   13.6868    0.9582 H   0  0  0  0  0  0  0  0  0  0  0  0
    0.3994   11.5289   -2.4535 H   0  0  0  0  0  0  0  0  0  0  0  0
    3.3501   11.6332   -1.5707 H   0  0  0  0  0  0  0  0  0  0  0  0
    2.6784   10.7962   -3.0401 H   0  0  0  0  0  0  0  0  0  0  0  0
    3.7613   12.9483   -3.6021 H   0  0  0  0  0  0  0  0  0  0  0  0
    1.9943   12.9278   -3.9792 H   0  0  0  0  0  0  0  0  0  0  0  0
    2.5439   15.0383   -2.9765 H   0  0  0  0  0  0  0  0  0  0  0  0
    3.7900   15.1810   -1.1960 H   0  0  0  0  0  0  0  0  0  0  0  0
   -0.9124   14.5807   -2.0630 H   0  0  0  0  0  0  0  0  0  0  0  0
    0.2696   15.2655   -3.2294 H   0  0  0  0  0  0  0  0  0  0  0  0
   -0.0737   13.5024   -3.2294 H   0  0  0  0  0  0  0  0  0  0  0  0
    1.1544   15.0630    0.4195 H   0  0  0  0  0  0  0  0  0  0  0  0
    2.0346   16.0285   -0.8132 H   0  0  0  0  0  0  0  0  0  0  0  0
    0.2387   15.9950   -0.8132 H   0  0  0  0  0  0  0  0  0  0  0  0
    2.1063    9.8212    0.9110 H   0  0  0  0  0  0  0  0  0  0  0  0
    2.5490    8.7416   -0.4546 H   0  0  0  0  0  0  0  0  0  0  0  0
    3.0854   10.4559   -0.4546 H   0  0  0  0  0  0  0  0  0  0  0  0
    1.2665    9.2838   -2.8840 H   0  0  0  0  0  0  0  0  0  0  0  0
    0.9759    8.1081   -1.4813 H   0  0  0  0  0  0  0  0  0  0  0  0
   -1.0967    9.6909   -3.0261 H   0  0  0  0  0  0  0  0  0  0  0  0
   -0.8499    7.9012   -2.9775 H   0  0  0  0  0  0  0  0  0  0  0  0
   -1.3412    7.6879    0.7091 H   0  0  0  0  0  0  0  0  0  0  0  0
   -1.9314    6.6313   -0.6182 H   0  0  0  0  0  0  0  0  0  0  0  0
   -0.2302    7.2078   -0.6182 H   0  0  0  0  0  0  0  0  0  0  0  0
  1  2  1  0
  2  3  1  0
  3  4  1  0
  4  5  1  0
  5  6  1  0
  6  7  1  0
  7  8  1  0
  7  9  1  0
  2 10  1  0
 10 11  1  0
 11 12  1  0
 12 13  1  0
 13 14  1  6
 13 15  1  0
 15 16  1  0
 16 17  1  0
 17 18  2  0
 18 19  1  0
 19 20  1  0
 20 21  1  0
 21 22  1  0
 22 23  1  0
 22 24  1  0
 24 25  1  0
 24 26  1  0
 19 27  1  0
 27 28  1  1
 27 29  1  0
 29 30  1  0
 30 31  1  0
 31 32  1  1
  7  5  1  0
 31 10  1  0
 31 13  1  0
 27 15  1  0
 24 18  1  0
  1 33  1  0
  1 34  1  0
  1 35  1  0
  2 36  1  1
  3 37  1  0
  3 38  1  0
  4 39  1  0
  4 40  1  0
  5 41  1  1
  8 42  1  0
  8 43  1  0
  8 44  1  0
  9 45  1  0
  9 46  1  0
  9 47  1  0
 10 48  1  6
 11 49  1  0
 11 50  1  0
 12 51  1  0
 12 52  1  0
 14 53  1  0
 14 54  1  0
 14 55  1  0
 15 56  1  1
 16 57  1  0
 16 58  1  0
 17 59  1  0
 19 60  1  6
 20 61  1  0
 20 62  1  0
 21 63  1  0
 21 64  1  0
 22 65  1  6
 23 66  1  0
 25 67  1  0
 25 68  1  0
 25 69  1  0
 26 70  1  0
 26 71  1  0
 26 72  1  0
 28 73  1  0
 28 74  1  0
 28 75  1  0
 29 76  1  0
 29 77  1  0
 30 78  1  0
 30 79  1  0
 32 80  1  0
 32 81  1  0
 32 82  1  0
M  END
>  <meeko>  (10) 
{"is_sidechain": [false], "intermolecular_energy": 2.731, "internal_energy": -0.839}

$$$$
EPH_relaxed_0001_pdb2pqr_Repair_7_r2_0001_out
     RDKit          3D

 82 86  0  0  0  0  0  0  0  0999 V2000
   -2.3570    7.8470   -2.3010 C   0  0  0  0  0  0  0  0  0  0  0  0
   -2.2410    8.4110   -0.8820 C   0  0  2  0  0  0  0  0  0  0  0  0
   -3.5880    8.3790   -0.1330 C   0  0  0  0  0  0  0  0  0  0  0  0
   -4.8070    8.4540   -1.0560 C   0  0  0  0  0  0  0  0  0  0  0  0
   -5.5830    7.1710   -1.0540 C   0  0  2  0  0  0  0  0  0  0  0  0
   -5.6670    6.5210   -2.3290 O   0  0  0  0  0  0  0  0  0  0  0  0
   -6.9060    6.9930   -1.7750 C   0  0  0  0  0  0  0  0  0  0  0  0
   -7.5300    8.1120   -2.5480 C   0  0  0  0  0  0  0  0  0  0  0  0
   -7.8230    5.8980   -1.3280 C   0  0  0  0  0  0  0  0  0  0  0  0
   -1.7050    9.8370   -0.9310 C   0  0  1  0  0  0  0  0  0  0  0  0
   -1.2590   10.3560    0.4620 C   0  0  0  0  0  0  0  0  0  0  0  0
   -0.0320   11.2740    0.2260 C   0  0  0  0  0  0  0  0  0  0  0  0
   -0.0170   11.5180   -1.3020 C   0  0  1  0  0  0  0  0  0  0  0  0
   -1.0670   12.6490   -1.5380 C   0  0  0  0  0  0  0  0  0  0  0  0
    1.3690   11.8780   -1.9300 C   0  0  2  0  0  0  0  0  0  0  0  0
    1.9950   13.1880   -1.4220 C   0  0  0  0  0  0  0  0  0  0  0  0
    1.6400   14.4090   -2.2040 C   0  0  0  0  0  0  0  0  0  0  0  0
    1.0850   14.4190   -3.4300 C   0  0  0  0  0  0  0  0  0  0  0  0
    0.8480   13.1130   -4.1980 C   0  0  1  0  0  0  0  0  0  0  0  0
    1.3400   13.2750   -5.6600 C   0  0  0  0  0  0  0  0  0  0  0  0
    0.7170   14.4820   -6.3560 C   0  0  0  0  0  0  0  0  0  0  0  0
    1.0240   15.7690   -5.5940 C   0  0  2  0  0  0  0  0  0  0  0  0
    2.4290   16.0260   -5.6700 O   0  0  0  0  0  0  0  0  0  0  0  0
    0.5820   15.7190   -4.1050 C   0  0  0  0  0  0  0  0  0  0  0  0
   -0.9650   15.7440   -4.0200 C   0  0  0  0  0  0  0  0  0  0  0  0
    1.0750   17.0210   -3.4170 C   0  0  0  0  0  0  0  0  0  0  0  0
    1.4060   11.7930   -3.5100 C   0  0  1  0  0  0  0  0  0  0  0  0
    2.8970   11.5740   -3.9090 C   0  0  0  0  0  0  0  0  0  0  0  0
    0.6120   10.5510   -4.0610 C   0  0  0  0  0  0  0  0  0  0  0  0
   -0.6880   10.1730   -3.3240 C   0  0  0  0  0  0  0  0  0  0  0  0
   -0.4580   10.0980   -1.8120 C   0  0  2  0  0  0  0  0  0  0  0  0
    0.5780    8.9540   -1.5420 C   0  0  0  0  0  0  0  0  0  0  0  0
   -2.5784    6.7707   -2.2508 H   0  0  0  0  0  0  0  0  0  0  0  0
   -3.1677    8.3635   -2.8357 H   0  0  0  0  0  0  0  0  0  0  0  0
   -1.4082    8.0017   -2.8357 H   0  0  0  0  0  0  0  0  0  0  0  0
   -1.5398    7.7701   -0.3274 H   0  0  0  0  0  0  0  0  0  0  0  0
   -3.6441    7.4423    0.4410 H   0  0  0  0  0  0  0  0  0  0  0  0
   -3.6182    9.2691    0.5126 H   0  0  0  0  0  0  0  0  0  0  0  0
   -5.4632    9.2682   -0.7147 H   0  0  0  0  0  0  0  0  0  0  0  0
   -4.4511    8.6382   -2.0804 H   0  0  0  0  0  0  0  0  0  0  0  0
   -5.2708    6.9556   -0.0215 H   0  0  0  0  0  0  0  0  0  0  0  0
   -7.9438    8.8541   -1.8494 H   0  0  0  0  0  0  0  0  0  0  0  0
   -6.7680    8.5897   -3.1814 H   0  0  0  0  0  0  0  0  0  0  0  0
   -8.3369    7.7148   -3.1814 H   0  0  0  0  0  0  0  0  0  0  0  0
   -7.8488    5.8672   -0.2287 H   0  0  0  0  0  0  0  0  0  0  0  0
   -8.8357    6.0876   -1.7134 H   0  0  0  0  0  0  0  0  0  0  0  0
   -7.4585    4.9343   -1.7134 H   0  0  0  0  0  0  0  0  0  0  0  0
   -2.5805   10.3484   -1.3576 H   0  0  0  0  0  0  0  0  0  0  0  0
   -2.0737   10.9262    0.9324 H   0  0  0  0  0  0  0  0  0  0  0  0
   -1.0044    9.5211    1.1314 H   0  0  0  0  0  0  0  0  0  0  0  0
   -0.1465   12.2232    0.7700 H   0  0  0  0  0  0  0  0  0  0  0  0
    0.9037   10.8213    0.5859 H   0  0  0  0  0  0  0  0  0  0  0  0
   -1.4203   13.0295   -0.5683 H   0  0  0  0  0  0  0  0  0  0  0  0
   -0.6021   13.4683   -2.1060 H   0  0  0  0  0  0  0  0  0  0  0  0
   -1.9185   12.2461   -2.1060 H   0  0  0  0  0  0  0  0  0  0  0  0
    2.0160   11.0726   -1.5521 H   0  0  0  0  0  0  0  0  0  0  0  0
    1.6661   13.3417   -0.3836 H   0  0  0  0  0  0  0  0  0  0  0  0
    3.0833   13.0657   -1.5256 H   0  0  0  0  0  0  0  0  0  0  0  0
    1.8499   15.3834   -1.7386 H   0  0  0  0  0  0  0  0  0  0  0  0
   -0.2393   12.9468   -4.1861 H   0  0  0  0  0  0  0  0  0  0  0  0
    2.4332   13.3973   -5.6528 H   0  0  0  0  0  0  0  0  0  0  0  0
    1.0373   12.3755   -6.2161 H   0  0  0  0  0  0  0  0  0  0  0  0
    1.1249   14.5605   -7.3746 H   0  0  0  0  0  0  0  0  0  0  0  0
   -0.3739   14.3446   -6.3884 H   0  0  0  0  0  0  0  0  0  0  0  0
    0.4464   16.5775   -6.0660 H   0  0  0  0  0  0  0  0  0  0  0  0
    2.8200   15.7800   -4.8150 H   0  0  0  0  0  0  0  0  0  0  0  0
   -1.2742   15.7490   -2.9644 H   0  0  0  0  0  0  0  0  0  0  0  0
   -1.3450   16.6484   -4.5177 H   0  0  0  0  0  0  0  0  0  0  0  0
   -1.3740   14.8523   -4.5177 H   0  0  0  0  0  0  0  0  0  0  0  0
    1.0287   16.8987   -2.3248 H   0  0  0  0  0  0  0  0  0  0  0  0
    2.1127   17.2252   -3.7194 H   0  0  0  0  0  0  0  0  0  0  0  0
    0.4328   17.8613   -3.7194 H   0  0  0  0  0  0  0  0  0  0  0  0
    3.5103   11.4839   -3.0003 H   0  0  0  0  0  0  0  0  0  0  0  0
    2.9859   10.6532   -4.5041 H   0  0  0  0  0  0  0  0  0  0  0  0
    3.2469   12.4304   -4.5041 H   0  0  0  0  0  0  0  0  0  0  0  0
    0.3512   10.7612   -5.1088 H   0  0  0  0  0  0  0  0  0  0  0  0
    1.2845    9.6927   -3.9159 H   0  0  0  0  0  0  0  0  0  0  0  0
   -1.4550   10.9330   -3.5342 H   0  0  0  0  0  0  0  0  0  0  0  0
   -1.0179    9.1853   -3.6783 H   0  0  0  0  0  0  0  0  0  0  0  0
    0.7005    8.8188   -0.4572 H   0  0  0  0  0  0  0  0  0  0  0  0
    0.2147    8.0172   -1.9896 H   0  0  0  0  0  0  0  0  0  0  0  0
    1.5462    9.2229   -1.9896 H   0  0  0  0  0  0  0  0  0  0  0  0
  1  2  1  0
  2  3  1  0
  3  4  1  0
  4  5  1  0
  5  6  1  0
  6  7  1  0
  7  8  1  0
  7  9  1  0
  2 10  1  0
 10 11  1  0
 11 12  1  0
 12 13  1  0
 13 14  1  1
 13 15  1  0
 15 16  1  0
 16 17  1  0
 17 18  2  0
 18 19  1  0
 19 20  1  0
 20 21  1  0
 21 22  1  0
 22 23  1  0
 22 24  1  0
 24 25  1  0
 24 26  1  0
 19 27  1  0
 27 28  1  1
 27 29  1  0
 29 30  1  0
 30 31  1  0
 31 32  1  6
  7  5  1  0
 31 10  1  0
 31 13  1  0
 27 15  1  0
 24 18  1  0
  1 33  1  0
  1 34  1  0
  1 35  1  0
  2 36  1  1
  3 37  1  0
  3 38  1  0
  4 39  1  0
  4 40  1  0
  5 41  1  1
  8 42  1  0
  8 43  1  0
  8 44  1  0
  9 45  1  0
  9 46  1  0
  9 47  1  0
 10 48  1  6
 11 49  1  0
 11 50  1  0
 12 51  1  0
 12 52  1  0
 14 53  1  0
 14 54  1  0
 14 55  1  0
 15 56  1  1
 16 57  1  0
 16 58  1  0
 17 59  1  0
 19 60  1  6
 20 61  1  0
 20 62  1  0
 21 63  1  0
 21 64  1  0
 22 65  1  6
 23 66  1  0
 25 67  1  0
 25 68  1  0
 25 69  1  0
 26 70  1  0
 26 71  1  0
 26 72  1  0
 28 73  1  0
 28 74  1  0
 28 75  1  0
 29 76  1  0
 29 77  1  0
 30 78  1  0
 30 79  1  0
 32 80  1  0
 32 81  1  0
 32 82  1  0
M  END
>  <meeko>  (11) 
{"is_sidechain": [false], "intermolecular_energy": 2.731, "internal_energy": -0.839}

$$$$
EPH_relaxed_0001_pdb2pqr_Repair_7_r2_0001_out
     RDKit          3D

 82 86  0  0  0  0  0  0  0  0999 V2000
    2.6540   18.9490   -0.9700 C   0  0  0  0  0  0  0  0  0  0  0  0
    2.4450   17.9570   -2.1170 C   0  0  2  0  0  0  0  0  0  0  0  0
    1.0380   18.0730   -2.7360 C   0  0  0  0  0  0  0  0  0  0  0  0
    0.2930   19.3500   -2.3380 C   0  0  0  0  0  0  0  0  0  0  0  0
   -1.0100   19.0440   -1.6640 C   0  0  2  0  0  0  0  0  0  0  0  0
   -1.8060   20.1950   -1.3510 O   0  0  0  0  0  0  0  0  0  0  0  0
   -1.3220   19.4350   -0.2320 C   0  0  0  0  0  0  0  0  0  0  0  0
   -0.3260   20.1640    0.6140 C   0  0  0  0  0  0  0  0  0  0  0  0
   -2.3940   18.6850    0.4970 C   0  0  0  0  0  0  0  0  0  0  0  0
    2.6820   16.5350   -1.6230 C   0  0  1  0  0  0  0  0  0  0  0  0
    3.7140   16.4680   -0.4660 C   0  0  0  0  0  0  0  0  0  0  0  0
    3.2530   15.3290    0.4790 C   0  0  0  0  0  0  0  0  0  0  0  0
    2.1750   14.5660   -0.3260 C   0  0  1  0  0  0  0  0  0  0  0  0
    2.9770   13.6230   -1.2770 C   0  0  0  0  0  0  0  0  0  0  0  0
    1.1160   13.7770    0.5110 C   0  0  2  0  0  0  0  0  0  0  0  0
    1.6860   12.6400    1.3780 C   0  0  0  0  0  0  0  0  0  0  0  0
    1.7470   11.3030    0.7170 C   0  0  0  0  0  0  0  0  0  0  0  0
    1.1030   10.9600   -0.4150 C   0  0  0  0  0  0  0  0  0  0  0  0
    0.1350   11.9350   -1.0970 C   0  0  1  0  0  0  0  0  0  0  0  0
   -1.1720   11.1880   -1.4720 C   0  0  0  0  0  0  0  0  0  0  0  0
   -0.9130    9.9410   -2.3110 C   0  0  0  0  0  0  0  0  0  0  0  0
    0.0070    8.9700   -1.5750 C   0  0  2  0  0  0  0  0  0  0  0  0
   -0.6810    8.4650   -0.4270 O   0  0  0  0  0  0  0  0  0  0  0  0
    1.3520    9.6130   -1.1380 C   0  0  0  0  0  0  0  0  0  0  0  0
    2.2280    9.8870   -2.3860 C   0  0  0  0  0  0  0  0  0  0  0  0
    2.1250    8.5710   -0.2850 C   0  0  0  0  0  0  0  0  0  0  0  0
   -0.1400   13.2950   -0.3220 C   0  0  1  0  0  0  0  0  0  0  0  0
   -1.3030   13.1000    0.6990 C   0  0  0  0  0  0  0  0  0  0  0  0
   -0.6300   14.3820   -1.3500 C   0  0  0  0  0  0  0  0  0  0  0  0
    0.4600   15.2110   -2.0560 C   0  0  0  0  0  0  0  0  0  0  0  0
    1.4650   15.7710   -1.0440 C   0  0  2  0  0  0  0  0  0  0  0  0
    0.6910   16.7410   -0.0880 C   0  0  0  0  0  0  0  0  0  0  0  0
    2.5439   18.4262   -0.0085 H   0  0  0  0  0  0  0  0  0  0  0  0
    3.6630   19.3816   -1.0387 H   0  0  0  0  0  0  0  0  0  0  0  0
    1.9053   19.7520   -1.0387 H   0  0  0  0  0  0  0  0  0  0  0  0
    3.1725   18.2030   -2.9045 H   0  0  0  0  0  0  0  0  0  0  0  0
    1.1382   18.0567   -3.8313 H   0  0  0  0  0  0  0  0  0  0  0  0
    0.4489   17.2257   -2.3553 H   0  0  0  0  0  0  0  0  0  0  0  0
    0.9235   19.9303   -1.6483 H   0  0  0  0  0  0  0  0  0  0  0  0
    0.0798   19.9221   -3.2530 H   0  0  0  0  0  0  0  0  0  0  0  0
   -1.0922   18.0883   -2.2025 H   0  0  0  0  0  0  0  0  0  0  0  0
   -0.5551   19.9963    1.6767 H   0  0  0  0  0  0  0  0  0  0  0  0
    0.6851   19.7910    0.3936 H   0  0  0  0  0  0  0  0  0  0  0  0
   -0.3758   21.2405    0.3936 H   0  0  0  0  0  0  0  0  0  0  0  0
   -2.2428   18.7908    1.5814 H   0  0  0  0  0  0  0  0  0  0  0  0
   -3.3781   19.0926    0.2225 H   0  0  0  0  0  0  0  0  0  0  0  0
   -2.3484   17.6208    0.2225 H   0  0  0  0  0  0  0  0  0  0  0  0
    3.0083   16.0659   -2.5629 H   0  0  0  0  0  0  0  0  0  0  0  0
    4.7156   16.2479   -0.8640 H   0  0  0  0  0  0  0  0  0  0  0  0
    3.7698   17.4272    0.0695 H   0  0  0  0  0  0  0  0  0  0  0  0
    4.0947   14.6655    0.7268 H   0  0  0  0  0  0  0  0  0  0  0  0
    2.8666   15.7113    1.4353 H   0  0  0  0  0  0  0  0  0  0  0  0
    3.5747   12.9202   -0.6779 H   0  0  0  0  0  0  0  0  0  0  0  0
    2.2765   13.0603   -1.9116 H   0  0  0  0  0  0  0  0  0  0  0  0
    3.6449   14.2240   -1.9116 H   0  0  0  0  0  0  0  0  0  0  0  0
    0.7564   14.5400    1.2171 H   0  0  0  0  0  0  0  0  0  0  0  0
    2.7076   12.9189    1.6755 H   0  0  0  0  0  0  0  0  0  0  0  0
    0.9948   12.5286    2.2264 H   0  0  0  0  0  0  0  0  0  0  0  0
    2.3705   10.5330    1.1948 H   0  0  0  0  0  0  0  0  0  0  0  0
    0.6430   12.2804   -2.0095 H   0  0  0  0  0  0  0  0  0  0  0  0
   -1.6856   10.8896   -0.5462 H   0  0  0  0  0  0  0  0  0  0  0  0
   -1.7872   11.8732   -2.0736 H   0  0  0  0  0  0  0  0  0  0  0  0
   -1.8708    9.4418   -2.5192 H   0  0  0  0  0  0  0  0  0  0  0  0
   -0.4254   10.2440   -3.2493 H   0  0  0  0  0  0  0  0  0  0  0  0
    0.2602    8.1598   -2.2746 H   0  0  0  0  0  0  0  0  0  0  0  0
   -1.5770    8.8400   -0.4310 H   0  0  0  0  0  0  0  0  0  0  0  0
    3.2327   10.2013   -2.0669 H   0  0  0  0  0  0  0  0  0  0  0  0
    2.3048    8.9700   -2.9886 H   0  0  0  0  0  0  0  0  0  0  0  0
    1.7685   10.6843   -2.9886 H   0  0  0  0  0  0  0  0  0  0  0  0
    1.9681    8.7825    0.7830 H   0  0  0  0  0  0  0  0  0  0  0  0
    1.7559    7.5610   -0.5169 H   0  0  0  0  0  0  0  0  0  0  0  0
    3.1986    8.6313   -0.5169 H   0  0  0  0  0  0  0  0  0  0  0  0
   -0.9069   13.1664    1.7231 H   0  0  0  0  0  0  0  0  0  0  0  0
   -2.0597   13.8838    0.5470 H   0  0  0  0  0  0  0  0  0  0  0  0
   -1.7626   12.1123    0.5470 H   0  0  0  0  0  0  0  0  0  0  0  0
   -1.2120   13.8661   -2.1279 H   0  0  0  0  0  0  0  0  0  0  0  0
   -1.2014   15.1072   -0.7520 H   0  0  0  0  0  0  0  0  0  0  0  0
    0.9918   14.5692   -2.7738 H   0  0  0  0  0  0  0  0  0  0  0  0
   -0.0210   16.0531   -2.5752 H   0  0  0  0  0  0  0  0  0  0  0  0
    0.9046   16.4733    0.9573 H   0  0  0  0  0  0  0  0  0  0  0  0
    1.0145   17.7756   -0.2750 H   0  0  0  0  0  0  0  0  0  0  0  0
   -0.3896   16.6552   -0.2750 H   0  0  0  0  0  0  0  0  0  0  0  0
  1  2  1  0
  2  3  1  0
  3  4  1  0
  4  5  1  0
  5  6  1  0
  6  7  1  0
  7  8  1  0
  7  9  1  0
  2 10  1  0
 10 11  1  0
 11 12  1  0
 12 13  1  0
 13 14  1  6
 13 15  1  0
 15 16  1  0
 16 17  1  0
 17 18  2  0
 18 19  1  0
 19 20  1  0
 20 21  1  0
 21 22  1  0
 22 23  1  0
 22 24  1  0
 24 25  1  0
 24 26  1  0
 19 27  1  0
 27 28  1  1
 27 29  1  0
 29 30  1  0
 30 31  1  0
 31 32  1  1
  7  5  1  0
 31 10  1  0
 31 13  1  0
 27 15  1  0
 24 18  1  0
  1 33  1  0
  1 34  1  0
  1 35  1  0
  2 36  1  6
  3 37  1  0
  3 38  1  0
  4 39  1  0
  4 40  1  0
  5 41  1  6
  8 42  1  0
  8 43  1  0
  8 44  1  0
  9 45  1  0
  9 46  1  0
  9 47  1  0
 10 48  1  6
 11 49  1  0
 11 50  1  0
 12 51  1  0
 12 52  1  0
 14 53  1  0
 14 54  1  0
 14 55  1  0
 15 56  1  1
 16 57  1  0
 16 58  1  0
 17 59  1  0
 19 60  1  6
 20 61  1  0
 20 62  1  0
 21 63  1  0
 21 64  1  0
 22 65  1  6
 23 66  1  0
 25 67  1  0
 25 68  1  0
 25 69  1  0
 26 70  1  0
 26 71  1  0
 26 72  1  0
 28 73  1  0
 28 74  1  0
 28 75  1  0
 29 76  1  0
 29 77  1  0
 30 78  1  0
 30 79  1  0
 32 80  1  0
 32 81  1  0
 32 82  1  0
M  END
>  <meeko>  (12) 
{"is_sidechain": [false], "intermolecular_energy": 2.731, "internal_energy": -0.839}

$$$$
EPH_relaxed_0001_pdb2pqr_Repair_7_r2_0001_out
     RDKit          3D

 82 86  0  0  0  0  0  0  0  0999 V2000
    2.1250   10.9120   -5.1400 C   0  0  0  0  0  0  0  0  0  0  0  0
    1.4570   10.7630   -3.7700 C   0  0  2  0  0  0  0  0  0  0  0  0
    0.3370    9.7040   -3.7820 C   0  0  0  0  0  0  0  0  0  0  0  0
    0.4290    8.6960   -2.6330 C   0  0  0  0  0  0  0  0  0  0  0  0
   -0.2510    9.2010   -1.3970 C   0  0  2  0  0  0  0  0  0  0  0  0
   -0.6260    8.1820   -0.4610 O   0  0  0  0  0  0  0  0  0  0  0  0
   -1.7040    8.9150   -1.0650 C   0  0  0  0  0  0  0  0  0  0  0  0
   -2.5640    8.0950   -1.9740 C   0  0  0  0  0  0  0  0  0  0  0  0
   -2.4150    9.8310   -0.1180 C   0  0  0  0  0  0  0  0  0  0  0  0
    0.8990   12.1070   -3.3150 C   0  0  1  0  0  0  0  0  0  0  0  0
   -0.6090   12.0370   -2.9590 C   0  0  0  0  0  0  0  0  0  0  0  0
   -0.8360   13.0160   -1.7780 C   0  0  0  0  0  0  0  0  0  0  0  0
    0.4630   13.8540   -1.7120 C   0  0  1  0  0  0  0  0  0  0  0  0
    0.2920   14.9460   -2.8140 C   0  0  0  0  0  0  0  0  0  0  0  0
    0.8080   14.4850   -0.3230 C   0  0  2  0  0  0  0  0  0  0  0  0
   -0.2180   15.5020    0.2050 C   0  0  0  0  0  0  0  0  0  0  0  0
    0.0300   16.9210   -0.1860 C   0  0  0  0  0  0  0  0  0  0  0  0
    1.1820   17.4030   -0.6890 C   0  0  0  0  0  0  0  0  0  0  0  0
    2.4210   16.5080   -0.8180 C   0  0  1  0  0  0  0  0  0  0  0  0
    3.6640   17.2620   -0.2750 C   0  0  0  0  0  0  0  0  0  0  0  0
    3.8560   18.6240   -0.9360 C   0  0  0  0  0  0  0  0  0  0  0  0
    2.6260   19.5060   -0.7360 C   0  0  2  0  0  0  0  0  0  0  0  0
    2.5070   19.8220    0.6550 O   0  0  0  0  0  0  0  0  0  0  0  0
    1.3110   18.8460   -1.2370 C   0  0  0  0  0  0  0  0  0  0  0  0
    1.3190   18.7790   -2.7840 C   0  0  0  0  0  0  0  0  0  0  0  0
    0.1320   19.7770   -0.8480 C   0  0  0  0  0  0  0  0  0  0  0  0
    2.2850   15.0440   -0.2150 C   0  0  1  0  0  0  0  0  0  0  0  0
    2.6460   15.0570    1.3020 C   0  0  0  0  0  0  0  0  0  0  0  0
    3.3350   14.1010   -0.9130 C   0  0  0  0  0  0  0  0  0  0  0  0
    2.8910   13.4130   -2.2180 C   0  0  0  0  0  0  0  0  0  0  0  0
    1.5240   12.7440   -2.0490 C   0  0  2  0  0  0  0  0  0  0  0  0
    1.6700   11.6250   -0.9610 C   0  0  0  0  0  0  0  0  0  0  0  0
    3.1904   11.1497   -5.0045 H   0  0  0  0  0  0  0  0  0  0  0  0
    2.0277    9.9701   -5.6998 H   0  0  0  0  0  0  0  0  0  0  0  0
    1.6367   11.7233   -5.6998 H   0  0  0  0  0  0  0  0  0  0  0  0
    2.2264   10.4210   -3.0621 H   0  0  0  0  0  0  0  0  0  0  0  0
   -0.6310   10.2218   -3.7127 H   0  0  0  0  0  0  0  0  0  0  0  0
    0.4433    9.1350   -4.7174 H   0  0  0  0  0  0  0  0  0  0  0  0
   -0.0497    7.7558   -2.9444 H   0  0  0  0  0  0  0  0  0  0  0  0
    1.4923    8.5385   -2.3994 H   0  0  0  0  0  0  0  0  0  0  0  0
    0.3276   10.1359   -1.4324 H   0  0  0  0  0  0  0  0  0  0  0  0
   -3.2308    7.4592   -1.3731 H   0  0  0  0  0  0  0  0  0  0  0  0
   -3.1665    8.7615   -2.6086 H   0  0  0  0  0  0  0  0  0  0  0  0
   -1.9270    7.4614   -2.6086 H   0  0  0  0  0  0  0  0  0  0  0  0
   -2.1869    9.5371    0.9172 H   0  0  0  0  0  0  0  0  0  0  0  0
   -2.0808   10.8652   -0.2877 H   0  0  0  0  0  0  0  0  0  0  0  0
   -3.4997    9.7637   -0.2877 H   0  0  0  0  0  0  0  0  0  0  0  0
    1.1386   12.7159   -4.1992 H   0  0  0  0  0  0  0  0  0  0  0  0
   -1.2169   12.3399   -3.8243 H   0  0  0  0  0  0  0  0  0  0  0  0
   -0.9030   11.0130   -2.6851 H   0  0  0  0  0  0  0  0  0  0  0  0
   -1.7055   13.6617   -1.9702 H   0  0  0  0  0  0  0  0  0  0  0  0
   -1.0425   12.4907   -0.8339 H   0  0  0  0  0  0  0  0  0  0  0  0
    0.1385   15.9260   -2.3384 H   0  0  0  0  0  0  0  0  0  0  0  0
    1.1958   14.9798   -3.4401 H   0  0  0  0  0  0  0  0  0  0  0  0
   -0.5789   14.7019   -3.4401 H   0  0  0  0  0  0  0  0  0  0  0  0
    0.7436   13.6191    0.3524 H   0  0  0  0  0  0  0  0  0  0  0  0
   -1.2091   15.2132   -0.1750 H   0  0  0  0  0  0  0  0  0  0  0  0
   -0.1398   15.4710    1.3018 H   0  0  0  0  0  0  0  0  0  0  0  0
   -0.7980   17.6326   -0.0519 H   0  0  0  0  0  0  0  0  0  0  0  0
    2.5432   16.3122   -1.8935 H   0  0  0  0  0  0  0  0  0  0  0  0
    3.5417   17.4096    0.8082 H   0  0  0  0  0  0  0  0  0  0  0  0
    4.5507   16.6521   -0.5024 H   0  0  0  0  0  0  0  0  0  0  0  0
    4.7310   19.1201   -0.4907 H   0  0  0  0  0  0  0  0  0  0  0  0
    4.0075   18.4723   -2.0149 H   0  0  0  0  0  0  0  0  0  0  0  0
    2.7696   20.4148   -1.3388 H   0  0  0  0  0  0  0  0  0  0  0  0
    1.8660   19.2030    1.0430 H   0  0  0  0  0  0  0  0  0  0  0  0
    1.4437   17.7343   -3.1051 H   0  0  0  0  0  0  0  0  0  0  0  0
    0.3677   19.1711   -3.1729 H   0  0  0  0  0  0  0  0  0  0  0  0
    2.1513   19.3840   -3.1729 H   0  0  0  0  0  0  0  0  0  0  0  0
    0.0575   19.8359    0.2479 H   0  0  0  0  0  0  0  0  0  0  0  0
    0.3080   20.7824   -1.2581 H   0  0  0  0  0  0  0  0  0  0  0  0
   -0.8052   19.3727   -1.2581 H   0  0  0  0  0  0  0  0  0  0  0  0
    1.7227   15.0237    1.8989 H   0  0  0  0  0  0  0  0  0  0  0  0
    3.2673   14.1806    1.5386 H   0  0  0  0  0  0  0  0  0  0  0  0
    3.2027   15.9758    1.5386 H   0  0  0  0  0  0  0  0  0  0  0  0
    4.2250   14.7056   -1.1417 H   0  0  0  0  0  0  0  0  0  0  0  0
    3.5054   13.2816   -0.1991 H   0  0  0  0  0  0  0  0  0  0  0  0
    2.8265   14.1658   -3.0174 H   0  0  0  0  0  0  0  0  0  0  0  0
    3.6299   12.6397   -2.4750 H   0  0  0  0  0  0  0  0  0  0  0  0
    1.6110   12.0770    0.0401 H   0  0  0  0  0  0  0  0  0  0  0  0
    0.8601   10.8902   -1.0798 H   0  0  0  0  0  0  0  0  0  0  0  0
    2.6413   11.1226   -1.0798 H   0  0  0  0  0  0  0  0  0  0  0  0
  1  2  1  0
  2  3  1  0
  3  4  1  0
  4  5  1  0
  5  6  1  0
  6  7  1  0
  7  8  1  0
  7  9  1  0
  2 10  1  0
 10 11  1  0
 11 12  1  0
 12 13  1  0
 13 14  1  6
 13 15  1  0
 15 16  1  0
 16 17  1  0
 17 18  2  0
 18 19  1  0
 19 20  1  0
 20 21  1  0
 21 22  1  0
 22 23  1  0
 22 24  1  0
 24 25  1  0
 24 26  1  0
 19 27  1  0
 27 28  1  1
 27 29  1  0
 29 30  1  0
 30 31  1  0
 31 32  1  1
  7  5  1  0
 31 10  1  0
 31 13  1  0
 27 15  1  0
 24 18  1  0
  1 33  1  0
  1 34  1  0
  1 35  1  0
  2 36  1  1
  3 37  1  0
  3 38  1  0
  4 39  1  0
  4 40  1  0
  5 41  1  1
  8 42  1  0
  8 43  1  0
  8 44  1  0
  9 45  1  0
  9 46  1  0
  9 47  1  0
 10 48  1  6
 11 49  1  0
 11 50  1  0
 12 51  1  0
 12 52  1  0
 14 53  1  0
 14 54  1  0
 14 55  1  0
 15 56  1  1
 16 57  1  0
 16 58  1  0
 17 59  1  0
 19 60  1  6
 20 61  1  0
 20 62  1  0
 21 63  1  0
 21 64  1  0
 22 65  1  6
 23 66  1  0
 25 67  1  0
 25 68  1  0
 25 69  1  0
 26 70  1  0
 26 71  1  0
 26 72  1  0
 28 73  1  0
 28 74  1  0
 28 75  1  0
 29 76  1  0
 29 77  1  0
 30 78  1  0
 30 79  1  0
 32 80  1  0
 32 81  1  0
 32 82  1  0
M  END
>  <meeko>  (13) 
{"is_sidechain": [false], "intermolecular_energy": 2.731, "internal_energy": -0.839}

$$$$
EPH_relaxed_0001_pdb2pqr_Repair_7_r2_0001_out
     RDKit          3D

 82 86  0  0  0  0  0  0  0  0999 V2000
    3.1240   14.8270   -7.5030 C   0  0  0  0  0  0  0  0  0  0  0  0
    1.5990   14.8570   -7.3620 C   0  0  2  0  0  0  0  0  0  0  0  0
    0.9780   16.0950   -8.0400 C   0  0  0  0  0  0  0  0  0  0  0  0
    1.9070   16.7760   -9.0480 C   0  0  0  0  0  0  0  0  0  0  0  0
    1.5800   16.3840  -10.4570 C   0  0  2  0  0  0  0  0  0  0  0  0
    0.9920   15.0840  -10.5950 O   0  0  0  0  0  0  0  0  0  0  0  0
    2.2840   15.2630  -11.1980 C   0  0  0  0  0  0  0  0  0  0  0  0
    3.3730   14.4650  -10.5530 C   0  0  0  0  0  0  0  0  0  0  0  0
    2.2550   15.2670  -12.6950 C   0  0  0  0  0  0  0  0  0  0  0  0
    1.2130   14.8220   -5.8880 C   0  0  1  0  0  0  0  0  0  0  0  0
   -0.0480   15.6730   -5.5800 C   0  0  0  0  0  0  0  0  0  0  0  0
   -0.8230   14.9340   -4.4590 C   0  0  0  0  0  0  0  0  0  0  0  0
    0.1710   13.8730   -3.9310 C   0  0  1  0  0  0  0  0  0  0  0  0
    1.1020   14.6500   -2.9480 C   0  0  0  0  0  0  0  0  0  0  0  0
   -0.4580   12.6120   -3.2540 C   0  0  2  0  0  0  0  0  0  0  0  0
   -1.2790   12.8950   -1.9830 C   0  0  0  0  0  0  0  0  0  0  0  0
   -0.5110   12.8510   -0.7040 C   0  0  0  0  0  0  0  0  0  0  0  0
    0.7160   12.3190   -0.5470 C   0  0  0  0  0  0  0  0  0  0  0  0
    1.4160   11.5980   -1.7060 C   0  0  1  0  0  0  0  0  0  0  0  0
    2.0110   10.2580   -1.1970 C   0  0  0  0  0  0  0  0  0  0  0  0
    2.9240   10.4440    0.0110 C   0  0  0  0  0  0  0  0  0  0  0  0
    2.1760   11.1120    1.1620 C   0  0  2  0  0  0  0  0  0  0  0  0
    1.1680   10.2150    1.6390 O   0  0  0  0  0  0  0  0  0  0  0  0
    1.5240   12.4670    0.7660 C   0  0  0  0  0  0  0  0  0  0  0  0
    2.6290   13.5290    0.5400 C   0  0  0  0  0  0  0  0  0  0  0  0
    0.6840   12.9640    1.9730 C   0  0  0  0  0  0  0  0  0  0  0  0
    0.5580   11.4200   -3.0320 C   0  0  1  0  0  0  0  0  0  0  0  0
   -0.2950   10.1180   -2.9430 C   0  0  0  0  0  0  0  0  0  0  0  0
    1.5330   11.2300   -4.2530 C   0  0  0  0  0  0  0  0  0  0  0  0
    2.0260   12.5100   -4.9550 C   0  0  0  0  0  0  0  0  0  0  0  0
    0.8550   13.4430   -5.2790 C   0  0  2  0  0  0  0  0  0  0  0  0
   -0.0870   12.6960   -6.2830 C   0  0  0  0  0  0  0  0  0  0  0  0
    3.5845   14.8179   -6.5041 H   0  0  0  0  0  0  0  0  0  0  0  0
    3.4237   13.9228   -8.0531 H   0  0  0  0  0  0  0  0  0  0  0  0
    3.4590   15.7187   -8.0531 H   0  0  0  0  0  0  0  0  0  0  0  0
    1.2014   13.9670   -7.8717 H   0  0  0  0  0  0  0  0  0  0  0  0
    0.0648   15.7809   -8.5667 H   0  0  0  0  0  0  0  0  0  0  0  0
    0.7737   16.8278   -7.2455 H   0  0  0  0  0  0  0  0  0  0  0  0
    1.8030   17.8665   -8.9482 H   0  0  0  0  0  0  0  0  0  0  0  0
    2.9377   16.4567   -8.8340 H   0  0  0  0  0  0  0  0  0  0  0  0
    1.3743   17.4306  -10.7258 H   0  0  0  0  0  0  0  0  0  0  0  0
    3.2793   14.5337   -9.4592 H   0  0  0  0  0  0  0  0  0  0  0  0
    3.2893   13.4129  -10.8628 H   0  0  0  0  0  0  0  0  0  0  0  0
    4.3510   14.8618  -10.8628 H   0  0  0  0  0  0  0  0  0  0  0  0
    1.2207   15.4097  -13.0413 H   0  0  0  0  0  0  0  0  0  0  0  0
    2.8842   16.0868  -13.0717 H   0  0  0  0  0  0  0  0  0  0  0  0
    2.6387   14.3074  -13.0717 H   0  0  0  0  0  0  0  0  0  0  0  0
    2.1464   15.1986   -5.4443 H   0  0  0  0  0  0  0  0  0  0  0  0
    0.2462   16.6766   -5.2390 H   0  0  0  0  0  0  0  0  0  0  0  0
   -0.6719   15.7942   -6.4778 H   0  0  0  0  0  0  0  0  0  0  0  0
   -1.1071   15.6324   -3.6581 H   0  0  0  0  0  0  0  0  0  0  0  0
   -1.7576   14.4841   -4.8251 H   0  0  0  0  0  0  0  0  0  0  0  0
    0.8193   14.4140   -1.9115 H   0  0  0  0  0  0  0  0  0  0  0  0
    2.1469   14.3522   -3.1199 H   0  0  0  0  0  0  0  0  0  0  0  0
    0.9959   15.7313   -3.1199 H   0  0  0  0  0  0  0  0  0  0  0  0
   -1.1831   12.2760   -4.0099 H   0  0  0  0  0  0  0  0  0  0  0  0
   -1.7203   13.8979   -2.0799 H   0  0  0  0  0  0  0  0  0  0  0  0
   -2.0250   12.0893   -1.9174 H   0  0  0  0  0  0  0  0  0  0  0  0
   -0.9873   13.2900    0.1850 H   0  0  0  0  0  0  0  0  0  0  0  0
    2.2257   12.2658   -2.0353 H   0  0  0  0  0  0  0  0  0  0  0  0
    1.1841    9.5899   -0.9143 H   0  0  0  0  0  0  0  0  0  0  0  0
    2.6165    9.8315   -2.0103 H   0  0  0  0  0  0  0  0  0  0  0  0
    3.2888    9.4603    0.3414 H   0  0  0  0  0  0  0  0  0  0  0  0
    3.7664   11.0881   -0.2813 H   0  0  0  0  0  0  0  0  0  0  0  0
    2.9128   11.3364    1.9473 H   0  0  0  0  0  0  0  0  0  0  0  0
    0.8050   10.5890    2.4590 H   0  0  0  0  0  0  0  0  0  0  0  0
    2.9996   13.8852    1.5125 H   0  0  0  0  0  0  0  0  0  0  0  0
    3.4584   13.0804   -0.0265 H   0  0  0  0  0  0  0  0  0  0  0  0
    2.2136   14.3755   -0.0265 H   0  0  0  0  0  0  0  0  0  0  0  0
    1.1796   12.6708    2.9102 H   0  0  0  0  0  0  0  0  0  0  0  0
    0.5959   14.0597    1.9321 H   0  0  0  0  0  0  0  0  0  0  0  0
   -0.3188   12.5137    1.9321 H   0  0  0  0  0  0  0  0  0  0  0  0
   -0.4632    9.8613   -1.8867 H   0  0  0  0  0  0  0  0  0  0  0  0
   -1.2631   10.2792   -3.4398 H   0  0  0  0  0  0  0  0  0  0  0  0
    0.2394    9.2948   -3.4398 H   0  0  0  0  0  0  0  0  0  0  0  0
    2.4185   10.6874   -3.8903 H   0  0  0  0  0  0  0  0  0  0  0  0
    0.9428   10.6951   -5.0117 H   0  0  0  0  0  0  0  0  0  0  0  0
    2.7315   13.0342   -4.2936 H   0  0  0  0  0  0  0  0  0  0  0  0
    2.5193   12.2261   -5.8963 H   0  0  0  0  0  0  0  0  0  0  0  0
   -0.8284   12.1081   -5.7220 H   0  0  0  0  0  0  0  0  0  0  0  0
   -0.6051   13.4314   -6.9160 H   0  0  0  0  0  0  0  0  0  0  0  0
    0.5110   12.0239   -6.9160 H   0  0  0  0  0  0  0  0  0  0  0  0
  1  2  1  0
  2  3  1  0
  3  4  1  0
  4  5  1  0
  5  6  1  0
  6  7  1  0
  7  8  1  0
  7  9  1  0
  2 10  1  0
 10 11  1  0
 11 12  1  0
 12 13  1  0
 13 14  1  1
 13 15  1  0
 15 16  1  0
 16 17  1  0
 17 18  2  0
 18 19  1  0
 19 20  1  0
 20 21  1  0
 21 22  1  0
 22 23  1  0
 22 24  1  0
 24 25  1  0
 24 26  1  0
 19 27  1  0
 27 28  1  1
 27 29  1  0
 29 30  1  0
 30 31  1  0
 31 32  1  6
  7  5  1  0
 31 10  1  0
 31 13  1  0
 27 15  1  0
 24 18  1  0
  1 33  1  0
  1 34  1  0
  1 35  1  0
  2 36  1  6
  3 37  1  0
  3 38  1  0
  4 39  1  0
  4 40  1  0
  5 41  1  6
  8 42  1  0
  8 43  1  0
  8 44  1  0
  9 45  1  0
  9 46  1  0
  9 47  1  0
 10 48  1  1
 11 49  1  0
 11 50  1  0
 12 51  1  0
 12 52  1  0
 14 53  1  0
 14 54  1  0
 14 55  1  0
 15 56  1  6
 16 57  1  0
 16 58  1  0
 17 59  1  0
 19 60  1  6
 20 61  1  0
 20 62  1  0
 21 63  1  0
 21 64  1  0
 22 65  1  1
 23 66  1  0
 25 67  1  0
 25 68  1  0
 25 69  1  0
 26 70  1  0
 26 71  1  0
 26 72  1  0
 28 73  1  0
 28 74  1  0
 28 75  1  0
 29 76  1  0
 29 77  1  0
 30 78  1  0
 30 79  1  0
 32 80  1  0
 32 81  1  0
 32 82  1  0
M  END
>  <meeko>  (14) 
{"is_sidechain": [false], "intermolecular_energy": 2.731, "internal_energy": -0.839}

$$$$
EPH_relaxed_0001_pdb2pqr_Repair_7_r2_0001_out
     RDKit          3D

 82 86  0  0  0  0  0  0  0  0999 V2000
   -1.7390   14.8130    0.4090 C   0  0  0  0  0  0  0  0  0  0  0  0
   -0.3900   15.5190    0.2430 C   0  0  2  0  0  0  0  0  0  0  0  0
   -0.4150   16.5570   -0.8970 C   0  0  0  0  0  0  0  0  0  0  0  0
   -0.0500   17.9740   -0.4470 C   0  0  0  0  0  0  0  0  0  0  0  0
    1.3810   18.0660   -0.0100 C   0  0  2  0  0  0  0  0  0  0  0  0
    2.0380   19.2900   -0.3650 O   0  0  0  0  0  0  0  0  0  0  0  0
    2.5510   18.0950   -0.9770 C   0  0  0  0  0  0  0  0  0  0  0  0
    2.3410   18.0310   -2.4570 C   0  0  0  0  0  0  0  0  0  0  0  0
    3.9030   17.6930   -0.4760 C   0  0  0  0  0  0  0  0  0  0  0  0
    0.7060   14.4920   -0.0110 C   0  0  1  0  0  0  0  0  0  0  0  0
    0.8480   13.4700    1.1490 C   0  0  0  0  0  0  0  0  0  0  0  0
    1.2310   12.1130    0.5060 C   0  0  0  0  0  0  0  0  0  0  0  0
    1.6200   12.4670   -0.9490 C   0  0  1  0  0  0  0  0  0  0  0  0
    3.0910   12.9810   -0.8580 C   0  0  0  0  0  0  0  0  0  0  0  0
    1.4740   11.3200   -2.0020 C   0  0  2  0  0  0  0  0  0  0  0  0
    2.3670   10.0910   -1.7560 C   0  0  0  0  0  0  0  0  0  0  0  0
    3.7090   10.1380   -2.4080 C   0  0  0  0  0  0  0  0  0  0  0  0
    4.0740   10.9860   -3.3870 C   0  0  0  0  0  0  0  0  0  0  0  0
    3.0610   11.9580   -4.0060 C   0  0  1  0  0  0  0  0  0  0  0  0
    3.1800   11.9160   -5.5520 C   0  0  0  0  0  0  0  0  0  0  0  0
    4.6040   12.1720   -6.0360 C   0  0  0  0  0  0  0  0  0  0  0  0
    5.5730   11.1500   -5.4450 C   0  0  2  0  0  0  0  0  0  0  0  0
    5.2640    9.8600   -5.9800 O   0  0  0  0  0  0  0  0  0  0  0  0
    5.5340   11.0960   -3.8920 C   0  0  0  0  0  0  0  0  0  0  0  0
    6.1540   12.3900   -3.3100 C   0  0  0  0  0  0  0  0  0  0  0  0
    6.4510    9.9300   -3.4330 C   0  0  0  0  0  0  0  0  0  0  0  0
    1.5600   11.8060   -3.5050 C   0  0  1  0  0  0  0  0  0  0  0  0
    0.8190   10.7340   -4.3620 C   0  0  0  0  0  0  0  0  0  0  0  0
    0.8000   13.1640   -3.7400 C   0  0  0  0  0  0  0  0  0  0  0  0
    0.8830   14.2110   -2.6120 C   0  0  0  0  0  0  0  0  0  0  0  0
    0.5540   13.5810   -1.2550 C   0  0  2  0  0  0  0  0  0  0  0  0
   -0.9280   13.0740   -1.3090 C   0  0  0  0  0  0  0  0  0  0  0  0
   -1.9624   14.6961    1.4797 H   0  0  0  0  0  0  0  0  0  0  0  0
   -2.5282   15.4137   -0.0668 H   0  0  0  0  0  0  0  0  0  0  0  0
   -1.6953   13.8222   -0.0668 H   0  0  0  0  0  0  0  0  0  0  0  0
   -0.1820   16.0603    1.1777 H   0  0  0  0  0  0  0  0  0  0  0  0
    0.3024   16.2422   -1.6691 H   0  0  0  0  0  0  0  0  0  0  0  0
   -1.4476   16.5954   -1.2743 H   0  0  0  0  0  0  0  0  0  0  0  0
   -0.2118   18.6671   -1.2857 H   0  0  0  0  0  0  0  0  0  0  0  0
   -0.6877   18.2364    0.4101 H   0  0  0  0  0  0  0  0  0  0  0  0
    1.1736   17.4525    0.8792 H   0  0  0  0  0  0  0  0  0  0  0  0
    1.3082   17.7163   -2.6675 H   0  0  0  0  0  0  0  0  0  0  0  0
    2.5184   19.0240   -2.8958 H   0  0  0  0  0  0  0  0  0  0  0  0
    3.0420   17.3057   -2.8958 H   0  0  0  0  0  0  0  0  0  0  0  0
    3.9015   17.6935    0.6240 H   0  0  0  0  0  0  0  0  0  0  0  0
    4.1446   16.6842   -0.8419 H   0  0  0  0  0  0  0  0  0  0  0  0
    4.6565   18.4060   -0.8419 H   0  0  0  0  0  0  0  0  0  0  0  0
    1.5639   15.1679   -0.1422 H   0  0  0  0  0  0  0  0  0  0  0  0
    1.6352   13.7946    1.8454 H   0  0  0  0  0  0  0  0  0  0  0  0
   -0.0895   13.3863    1.7182 H   0  0  0  0  0  0  0  0  0  0  0  0
    2.0812   11.6584    1.0357 H   0  0  0  0  0  0  0  0  0  0  0  0
    0.4098   11.3826    0.5525 H   0  0  0  0  0  0  0  0  0  0  0  0
    3.3795   13.0818    0.1987 H   0  0  0  0  0  0  0  0  0  0  0  0
    3.7614   12.2638   -1.3543 H   0  0  0  0  0  0  0  0  0  0  0  0
    3.1688   13.9596   -1.3543 H   0  0  0  0  0  0  0  0  0  0  0  0
    0.4421   10.9769   -1.8363 H   0  0  0  0  0  0  0  0  0  0  0  0
    2.5193    9.9931   -0.6710 H   0  0  0  0  0  0  0  0  0  0  0  0
    1.8398    9.2365   -2.2054 H   0  0  0  0  0  0  0  0  0  0  0  0
    4.4638    9.4182   -2.0584 H   0  0  0  0  0  0  0  0  0  0  0  0
    3.3350   12.9579   -3.6383 H   0  0  0  0  0  0  0  0  0  0  0  0
    2.8611   10.9236   -5.9034 H   0  0  0  0  0  0  0  0  0  0  0  0
    2.5407   12.7138   -5.9580 H   0  0  0  0  0  0  0  0  0  0  0  0
    4.6297   12.0999   -7.1333 H   0  0  0  0  0  0  0  0  0  0  0  0
    4.9107   13.1766   -5.7094 H   0  0  0  0  0  0  0  0  0  0  0  0
    6.5911   11.4610   -5.7219 H   0  0  0  0  0  0  0  0  0  0  0  0
    4.3340    9.8720   -6.2620 H   0  0  0  0  0  0  0  0  0  0  0  0
    6.1324   12.3449   -2.2111 H   0  0  0  0  0  0  0  0  0  0  0  0
    7.1950   12.4841   -3.6527 H   0  0  0  0  0  0  0  0  0  0  0  0
    5.5751   13.2603   -3.6527 H   0  0  0  0  0  0  0  0  0  0  0  0
    6.4780    9.8956   -2.3339 H   0  0  0  0  0  0  0  0  0  0  0  0
    6.0563    8.9790   -3.8200 H   0  0  0  0  0  0  0  0  0  0  0  0
    7.4683   10.0894   -3.8200 H   0  0  0  0  0  0  0  0  0  0  0  0
    0.3208   10.0132   -3.6970 H   0  0  0  0  0  0  0  0  0  0  0  0
    0.0680   11.2271   -4.9967 H   0  0  0  0  0  0  0  0  0  0  0  0
    1.5456   10.2057   -4.9967 H   0  0  0  0  0  0  0  0  0  0  0  0
    1.2122   13.6227   -4.6508 H   0  0  0  0  0  0  0  0  0  0  0  0
   -0.2639   12.8915   -3.8020 H   0  0  0  0  0  0  0  0  0  0  0  0
    1.9016   14.6249   -2.5793 H   0  0  0  0  0  0  0  0  0  0  0  0
    0.1511   15.0063   -2.8166 H   0  0  0  0  0  0  0  0  0  0  0  0
   -1.3085   12.9438   -0.2852 H   0  0  0  0  0  0  0  0  0  0  0  0
   -1.5485   13.8110   -1.8399 H   0  0  0  0  0  0  0  0  0  0  0  0
   -0.9671   12.1114   -1.8399 H   0  0  0  0  0  0  0  0  0  0  0  0
  1  2  1  0
  2  3  1  0
  3  4  1  0
  4  5  1  0
  5  6  1  0
  6  7  1  0
  7  8  1  0
  7  9  1  0
  2 10  1  0
 10 11  1  0
 11 12  1  0
 12 13  1  0
 13 14  1  1
 13 15  1  0
 15 16  1  0
 16 17  1  0
 17 18  2  0
 18 19  1  0
 19 20  1  0
 20 21  1  0
 21 22  1  0
 22 23  1  0
 22 24  1  0
 24 25  1  0
 24 26  1  0
 19 27  1  0
 27 28  1  6
 27 29  1  0
 29 30  1  0
 30 31  1  0
 31 32  1  6
  7  5  1  0
 31 10  1  0
 31 13  1  0
 27 15  1  0
 24 18  1  0
  1 33  1  0
  1 34  1  0
  1 35  1  0
  2 36  1  1
  3 37  1  0
  3 38  1  0
  4 39  1  0
  4 40  1  0
  5 41  1  1
  8 42  1  0
  8 43  1  0
  8 44  1  0
  9 45  1  0
  9 46  1  0
  9 47  1  0
 10 48  1  6
 11 49  1  0
 11 50  1  0
 12 51  1  0
 12 52  1  0
 14 53  1  0
 14 54  1  0
 14 55  1  0
 15 56  1  6
 16 57  1  0
 16 58  1  0
 17 59  1  0
 19 60  1  1
 20 61  1  0
 20 62  1  0
 21 63  1  0
 21 64  1  0
 22 65  1  1
 23 66  1  0
 25 67  1  0
 25 68  1  0
 25 69  1  0
 26 70  1  0
 26 71  1  0
 26 72  1  0
 28 73  1  0
 28 74  1  0
 28 75  1  0
 29 76  1  0
 29 77  1  0
 30 78  1  0
 30 79  1  0
 32 80  1  0
 32 81  1  0
 32 82  1  0
M  END
>  <meeko>  (15) 
{"is_sidechain": [false], "intermolecular_energy": 2.731, "internal_energy": -0.839}

$$$$
EPH_relaxed_0001_pdb2pqr_Repair_7_r2_0001_out
     RDKit          3D

 82 86  0  0  0  0  0  0  0  0999 V2000
    0.9770   14.8760   -2.6880 C   0  0  0  0  0  0  0  0  0  0  0  0
    1.2080   14.1920   -4.0380 C   0  0  2  0  0  0  0  0  0  0  0  0
    0.4850   14.9200   -5.1890 C   0  0  0  0  0  0  0  0  0  0  0  0
    1.0520   14.5980   -6.5740 C   0  0  0  0  0  0  0  0  0  0  0  0
    0.8480   15.7300   -7.5340 C   0  0  2  0  0  0  0  0  0  0  0  0
    0.3890   15.3380   -8.8340 O   0  0  0  0  0  0  0  0  0  0  0  0
    1.6940   15.9370   -8.7770 C   0  0  0  0  0  0  0  0  0  0  0  0
    2.8080   15.0010   -9.1260 C   0  0  0  0  0  0  0  0  0  0  0  0
    1.7570   17.3050   -9.3810 C   0  0  0  0  0  0  0  0  0  0  0  0
    0.7500   12.7400   -3.9700 C   0  0  1  0  0  0  0  0  0  0  0  0
    1.8770   11.7400   -4.3450 C   0  0  0  0  0  0  0  0  0  0  0  0
    1.6720   10.4840   -3.4600 C   0  0  0  0  0  0  0  0  0  0  0  0
    0.2610   10.6600   -2.8530 C   0  0  1  0  0  0  0  0  0  0  0  0
   -0.7190   10.1860   -3.9720 C   0  0  0  0  0  0  0  0  0  0  0  0
   -0.0060    9.9220   -1.5010 C   0  0  2  0  0  0  0  0  0  0  0  0
    0.0900    8.3880   -1.5640 C   0  0  0  0  0  0  0  0  0  0  0  0
   -1.1860    7.6810   -1.8790 C   0  0  0  0  0  0  0  0  0  0  0  0
   -2.4160    8.2250   -1.8220 C   0  0  0  0  0  0  0  0  0  0  0  0
   -2.6210    9.6580   -1.3140 C   0  0  1  0  0  0  0  0  0  0  0  0
   -3.7990    9.6860   -0.3050 C   0  0  0  0  0  0  0  0  0  0  0  0
   -5.0770    9.0830   -0.8810 C   0  0  0  0  0  0  0  0  0  0  0  0
   -4.8480    7.6390   -1.3210 C   0  0  2  0  0  0  0  0  0  0  0  0
   -4.5920    6.8390   -0.1630 O   0  0  0  0  0  0  0  0  0  0  0  0
   -3.6780    7.4850   -2.3320 C   0  0  0  0  0  0  0  0  0  0  0  0
   -4.0830    8.0980   -3.6950 C   0  0  0  0  0  0  0  0  0  0  0  0
   -3.4620    5.9690   -2.5850 C   0  0  0  0  0  0  0  0  0  0  0  0
   -1.3240   10.3880   -0.7580 C   0  0  1  0  0  0  0  0  0  0  0  0
   -1.1270   10.0480    0.7510 C   0  0  0  0  0  0  0  0  0  0  0  0
   -1.5370   11.9460   -0.8380 C   0  0  0  0  0  0  0  0  0  0  0  0
   -1.1420   12.6340   -2.1580 C   0  0  0  0  0  0  0  0  0  0  0  0
    0.2630   12.2110   -2.5980 C   0  0  2  0  0  0  0  0  0  0  0  0
    1.2730   12.6950   -1.5030 C   0  0  0  0  0  0  0  0  0  0  0  0
    1.2143   14.1734   -1.8756 H   0  0  0  0  0  0  0  0  0  0  0  0
    1.6263   15.7604   -2.6092 H   0  0  0  0  0  0  0  0  0  0  0  0
   -0.0756   15.1857   -2.6092 H   0  0  0  0  0  0  0  0  0  0  0  0
    2.2869   14.2316   -4.2490 H   0  0  0  0  0  0  0  0  0  0  0  0
   -0.5757   14.6290   -5.1719 H   0  0  0  0  0  0  0  0  0  0  0  0
    0.6273   15.9986   -5.0265 H   0  0  0  0  0  0  0  0  0  0  0  0
    2.1300   14.3999   -6.4805 H   0  0  0  0  0  0  0  0  0  0  0  0
    0.5215   13.7173   -6.9651 H   0  0  0  0  0  0  0  0  0  0  0  0
    0.5656   16.4054   -6.7130 H   0  0  0  0  0  0  0  0  0  0  0  0
    3.2662   14.6160   -8.2030 H   0  0  0  0  0  0  0  0  0  0  0  0
    2.4106   14.1618   -9.7158 H   0  0  0  0  0  0  0  0  0  0  0  0
    3.5662   15.5371   -9.7158 H   0  0  0  0  0  0  0  0  0  0  0  0
    1.7917   18.0582   -8.5801 H   0  0  0  0  0  0  0  0  0  0  0  0
    2.6600   17.3898  -10.0034 H   0  0  0  0  0  0  0  0  0  0  0  0
    0.8656   17.4724  -10.0034 H   0  0  0  0  0  0  0  0  0  0  0  0
   -0.0909   12.7788   -4.6781 H   0  0  0  0  0  0  0  0  0  0  0  0
    1.8053   11.4697   -5.4089 H   0  0  0  0  0  0  0  0  0  0  0  0
    2.8700   12.1830   -4.1786 H   0  0  0  0  0  0  0  0  0  0  0  0
    1.7217    9.5685   -4.0678 H   0  0  0  0  0  0  0  0  0  0  0  0
    2.4491   10.3869   -2.6875 H   0  0  0  0  0  0  0  0  0  0  0  0
   -1.6184    9.7510   -3.5116 H   0  0  0  0  0  0  0  0  0  0  0  0
   -1.0056   11.0450   -4.5964 H   0  0  0  0  0  0  0  0  0  0  0  0
   -0.2235    9.4280   -4.5964 H   0  0  0  0  0  0  0  0  0  0  0  0
    0.8430   10.2489   -0.8827 H   0  0  0  0  0  0  0  0  0  0  0  0
    0.8244    8.1251   -2.3396 H   0  0  0  0  0  0  0  0  0  0  0  0
    0.3781    8.0598   -0.5544 H   0  0  0  0  0  0  0  0  0  0  0  0
   -1.1154    6.6263   -2.1835 H   0  0  0  0  0  0  0  0  0  0  0  0
   -2.8729   10.2614   -2.1985 H   0  0  0  0  0  0  0  0  0  0  0  0
   -3.5110    9.1139    0.5893 H   0  0  0  0  0  0  0  0  0  0  0  0
   -4.0062   10.7388   -0.0626 H   0  0  0  0  0  0  0  0  0  0  0  0
   -5.8637    9.1049   -0.1125 H   0  0  0  0  0  0  0  0  0  0  0  0
   -5.3801    9.6737   -1.7580 H   0  0  0  0  0  0  0  0  0  0  0  0
   -5.7577    7.3046   -1.8411 H   0  0  0  0  0  0  0  0  0  0  0  0
   -5.4510    6.5910    0.2190 H   0  0  0  0  0  0  0  0  0  0  0  0
   -4.6821    9.0048   -3.5257 H   0  0  0  0  0  0  0  0  0  0  0  0
   -3.1779    8.3574   -4.2638 H   0  0  0  0  0  0  0  0  0  0  0  0
   -4.6767    7.3672   -4.2638 H   0  0  0  0  0  0  0  0  0  0  0  0
   -3.3871    5.4435   -1.6215 H   0  0  0  0  0  0  0  0  0  0  0  0
   -4.3121    5.5678   -3.1564 H   0  0  0  0  0  0  0  0  0  0  0  0
   -2.5337    5.8212   -3.1564 H   0  0  0  0  0  0  0  0  0  0  0  0
   -1.5838   10.8364    1.3672 H   0  0  0  0  0  0  0  0  0  0  0  0
   -1.6062    9.0836    0.9752 H   0  0  0  0  0  0  0  0  0  0  0  0
   -0.0520    9.9841    0.9752 H   0  0  0  0  0  0  0  0  0  0  0  0
   -2.6050   12.1451   -0.6655 H   0  0  0  0  0  0  0  0  0  0  0  0
   -0.8610   12.3682   -0.0799 H   0  0  0  0  0  0  0  0  0  0  0  0
   -1.8634   12.3538   -2.9397 H   0  0  0  0  0  0  0  0  0  0  0  0
   -1.1474   13.7228   -2.0012 H   0  0  0  0  0  0  0  0  0  0  0  0
    0.8556   12.4950   -0.5051 H   0  0  0  0  0  0  0  0  0  0  0  0
    2.2245   12.1550   -1.6174 H   0  0  0  0  0  0  0  0  0  0  0  0
    1.4482   13.7749   -1.6174 H   0  0  0  0  0  0  0  0  0  0  0  0
  1  2  1  0
  2  3  1  0
  3  4  1  0
  4  5  1  0
  5  6  1  0
  6  7  1  0
  7  8  1  0
  7  9  1  0
  2 10  1  0
 10 11  1  0
 11 12  1  0
 12 13  1  0
 13 14  1  6
 13 15  1  0
 15 16  1  0
 16 17  1  0
 17 18  2  0
 18 19  1  0
 19 20  1  0
 20 21  1  0
 21 22  1  0
 22 23  1  0
 22 24  1  0
 24 25  1  0
 24 26  1  0
 19 27  1  0
 27 28  1  1
 27 29  1  0
 29 30  1  0
 30 31  1  0
 31 32  1  1
  7  5  1  0
 31 10  1  0
 31 13  1  0
 27 15  1  0
 24 18  1  0
  1 33  1  0
  1 34  1  0
  1 35  1  0
  2 36  1  6
  3 37  1  0
  3 38  1  0
  4 39  1  0
  4 40  1  0
  5 41  1  1
  8 42  1  0
  8 43  1  0
  8 44  1  0
  9 45  1  0
  9 46  1  0
  9 47  1  0
 10 48  1  6
 11 49  1  0
 11 50  1  0
 12 51  1  0
 12 52  1  0
 14 53  1  0
 14 54  1  0
 14 55  1  0
 15 56  1  1
 16 57  1  0
 16 58  1  0
 17 59  1  0
 19 60  1  6
 20 61  1  0
 20 62  1  0
 21 63  1  0
 21 64  1  0
 22 65  1  6
 23 66  1  0
 25 67  1  0
 25 68  1  0
 25 69  1  0
 26 70  1  0
 26 71  1  0
 26 72  1  0
 28 73  1  0
 28 74  1  0
 28 75  1  0
 29 76  1  0
 29 77  1  0
 30 78  1  0
 30 79  1  0
 32 80  1  0
 32 81  1  0
 32 82  1  0
M  END
>  <meeko>  (16) 
{"is_sidechain": [false], "intermolecular_energy": 2.731, "internal_energy": -0.839}

$$$$
EPH_relaxed_0001_pdb2pqr_Repair_7_r2_0001_out
     RDKit          3D

 82 86  0  0  0  0  0  0  0  0999 V2000
  -14.4230    5.4870    0.4340 C   0  0  0  0  0  0  0  0  0  0  0  0
  -13.8530    6.9030    0.3040 C   0  0  2  0  0  0  0  0  0  0  0  0
  -14.9490    7.9450    0.0030 C   0  0  0  0  0  0  0  0  0  0  0  0
  -14.4770    9.3940    0.1470 C   0  0  0  0  0  0  0  0  0  0  0  0
  -15.2240   10.3140   -0.7700 C   0  0  2  0  0  0  0  0  0  0  0  0
  -15.1490    9.9660   -2.1590 O   0  0  0  0  0  0  0  0  0  0  0  0
  -14.5460   11.2150   -1.7850 C   0  0  0  0  0  0  0  0  0  0  0  0
  -13.0570   11.2410   -1.9340 C   0  0  0  0  0  0  0  0  0  0  0  0
  -15.2870   12.4160   -2.2840 C   0  0  0  0  0  0  0  0  0  0  0  0
  -12.7890    6.9360   -0.7870 C   0  0  1  0  0  0  0  0  0  0  0  0
  -13.1500    7.9050   -1.9440 C   0  0  0  0  0  0  0  0  0  0  0  0
  -11.8180    8.5260   -2.4400 C   0  0  0  0  0  0  0  0  0  0  0  0
  -10.7170    7.6580   -1.7870 C   0  0  1  0  0  0  0  0  0  0  0  0
  -10.6110    6.3930   -2.6960 C   0  0  0  0  0  0  0  0  0  0  0  0
   -9.3250    8.3420   -1.5880 C   0  0  2  0  0  0  0  0  0  0  0  0
   -8.6200    8.7770   -2.8840 C   0  0  0  0  0  0  0  0  0  0  0  0
   -7.7160    7.7550   -3.4910 C   0  0  0  0  0  0  0  0  0  0  0  0
   -7.2570    6.6510   -2.8730 C   0  0  0  0  0  0  0  0  0  0  0  0
   -7.5680    6.3900   -1.3940 C   0  0  1  0  0  0  0  0  0  0  0  0
   -6.2700    5.9600   -0.6610 C   0  0  0  0  0  0  0  0  0  0  0  0
   -5.5840    4.7740   -1.3310 C   0  0  0  0  0  0  0  0  0  0  0  0
   -5.2390    5.0930   -2.7840 C   0  0  2  0  0  0  0  0  0  0  0  0
   -4.2380    6.1150   -2.8060 O   0  0  0  0  0  0  0  0  0  0  0  0
   -6.4680    5.5470   -3.6200 C   0  0  0  0  0  0  0  0  0  0  0  0
   -7.4150    4.3430   -3.8490 C   0  0  0  0  0  0  0  0  0  0  0  0
   -5.9590    5.9730   -5.0230 C   0  0  0  0  0  0  0  0  0  0  0  0
   -8.3440    7.5490   -0.6330 C   0  0  1  0  0  0  0  0  0  0  0  0
   -7.3280    8.5910   -0.0740 C   0  0  0  0  0  0  0  0  0  0  0  0
   -9.0850    6.9390    0.6140 C   0  0  0  0  0  0  0  0  0  0  0  0
  -10.5040    6.3870    0.3780 C   0  0  0  0  0  0  0  0  0  0  0  0
  -11.3680    7.4000   -0.3800 C   0  0  2  0  0  0  0  0  0  0  0  0
  -11.5100    8.6750    0.5200 C   0  0  0  0  0  0  0  0  0  0  0  0
  -14.5266    5.2297    1.4985 H   0  0  0  0  0  0  0  0  0  0  0  0
  -15.4090    5.4427   -0.0516 H   0  0  0  0  0  0  0  0  0  0  0  0
  -13.7427    4.7719   -0.0516 H   0  0  0  0  0  0  0  0  0  0  0  0
  -13.4022    7.1688    1.2716 H   0  0  0  0  0  0  0  0  0  0  0  0
  -15.2973    7.7942   -1.0295 H   0  0  0  0  0  0  0  0  0  0  0  0
  -15.7490    7.7926    0.7424 H   0  0  0  0  0  0  0  0  0  0  0  0
  -14.6364    9.7193    1.1857 H   0  0  0  0  0  0  0  0  0  0  0  0
  -13.4107    9.4354   -0.1199 H   0  0  0  0  0  0  0  0  0  0  0  0
  -15.9784   10.5127    0.0055 H   0  0  0  0  0  0  0  0  0  0  0  0
  -12.5890   11.2492   -0.9386 H   0  0  0  0  0  0  0  0  0  0  0  0
  -12.7281   10.3485   -2.4865 H   0  0  0  0  0  0  0  0  0  0  0  0
  -12.7595   12.1445   -2.4865 H   0  0  0  0  0  0  0  0  0  0  0  0
  -15.6501   13.0044   -1.4285 H   0  0  0  0  0  0  0  0  0  0  0  0
  -14.6134   13.0347   -2.8951 H   0  0  0  0  0  0  0  0  0  0  0  0
  -16.1421   12.0915   -2.8951 H   0  0  0  0  0  0  0  0  0  0  0  0
  -12.7731    5.8710   -1.0618 H   0  0  0  0  0  0  0  0  0  0  0  0
  -13.6384    7.3539   -2.7612 H   0  0  0  0  0  0  0  0  0  0  0  0
  -13.8465    8.6851   -1.6029 H   0  0  0  0  0  0  0  0  0  0  0  0
  -11.7514    8.4774   -3.5369 H   0  0  0  0  0  0  0  0  0  0  0  0
  -11.7268    9.5885   -2.1704 H   0  0  0  0  0  0  0  0  0  0  0  0
  -10.5357    5.4942   -2.0663 H   0  0  0  0  0  0  0  0  0  0  0  0
  -11.5063    6.3218   -3.3311 H   0  0  0  0  0  0  0  0  0  0  0  0
   -9.7163    6.4718   -3.3311 H   0  0  0  0  0  0  0  0  0  0  0  0
   -9.5923    9.2736   -1.0678 H   0  0  0  0  0  0  0  0  0  0  0  0
   -9.3938    9.0290   -3.6240 H   0  0  0  0  0  0  0  0  0  0  0  0
   -7.9784    9.6279   -2.6112 H   0  0  0  0  0  0  0  0  0  0  0  0
   -7.3983    7.9184   -4.5314 H   0  0  0  0  0  0  0  0  0  0  0  0
   -8.2970    5.5665   -1.3769 H   0  0  0  0  0  0  0  0  0  0  0  0
   -5.5727    6.8107   -0.6508 H   0  0  0  0  0  0  0  0  0  0  0  0
   -6.5488    5.6520    0.3575 H   0  0  0  0  0  0  0  0  0  0  0  0
   -4.6589    4.5375   -0.7848 H   0  0  0  0  0  0  0  0  0  0  0  0
   -6.2710    3.9151   -1.3135 H   0  0  0  0  0  0  0  0  0  0  0  0
   -4.8704    4.1657   -3.2470 H   0  0  0  0  0  0  0  0  0  0  0  0
   -3.4440    5.7590   -2.3730 H   0  0  0  0  0  0  0  0  0  0  0  0
   -7.7340    3.9374   -2.8775 H   0  0  0  0  0  0  0  0  0  0  0  0
   -8.2977    4.6735   -4.4161 H   0  0  0  0  0  0  0  0  0  0  0  0
   -6.8859    3.5630   -4.4161 H   0  0  0  0  0  0  0  0  0  0  0  0
   -5.1198    6.6753   -4.9109 H   0  0  0  0  0  0  0  0  0  0  0  0
   -5.6218    5.0840   -5.5762 H   0  0  0  0  0  0  0  0  0  0  0  0
   -6.7747    6.4616   -5.5762 H   0  0  0  0  0  0  0  0  0  0  0  0
   -7.3487    8.5698    1.0256 H   0  0  0  0  0  0  0  0  0  0  0  0
   -6.3162    8.3422   -0.4266 H   0  0  0  0  0  0  0  0  0  0  0  0
   -7.6023    9.5962   -0.4266 H   0  0  0  0  0  0  0  0  0  0  0  0
   -8.4667    6.1141    0.9977 H   0  0  0  0  0  0  0  0  0  0  0  0
   -9.2158    7.7801    1.3107 H   0  0  0  0  0  0  0  0  0  0  0  0
  -10.4362    5.4603   -0.2107 H   0  0  0  0  0  0  0  0  0  0  0  0
  -10.9703    6.1899    1.3546 H   0  0  0  0  0  0  0  0  0  0  0  0
  -11.4773    8.3814    1.5796 H   0  0  0  0  0  0  0  0  0  0  0  0
  -10.6836    9.3687    0.3061 H   0  0  0  0  0  0  0  0  0  0  0  0
  -12.4688    9.1699    0.3061 H   0  0  0  0  0  0  0  0  0  0  0  0
  1  2  1  0
  2  3  1  0
  3  4  1  0
  4  5  1  0
  5  6  1  0
  6  7  1  0
  7  8  1  0
  7  9  1  0
  2 10  1  0
 10 11  1  0
 11 12  1  0
 12 13  1  0
 13 14  1  6
 13 15  1  0
 15 16  1  0
 16 17  1  0
 17 18  2  0
 18 19  1  0
 19 20  1  0
 20 21  1  0
 21 22  1  0
 22 23  1  0
 22 24  1  0
 24 25  1  0
 24 26  1  0
 19 27  1  0
 27 28  1  1
 27 29  1  0
 29 30  1  0
 30 31  1  0
 31 32  1  1
  7  5  1  0
 31 10  1  0
 31 13  1  0
 27 15  1  0
 24 18  1  0
  1 33  1  0
  1 34  1  0
  1 35  1  0
  2 36  1  1
  3 37  1  0
  3 38  1  0
  4 39  1  0
  4 40  1  0
  5 41  1  1
  8 42  1  0
  8 43  1  0
  8 44  1  0
  9 45  1  0
  9 46  1  0
  9 47  1  0
 10 48  1  6
 11 49  1  0
 11 50  1  0
 12 51  1  0
 12 52  1  0
 14 53  1  0
 14 54  1  0
 14 55  1  0
 15 56  1  1
 16 57  1  0
 16 58  1  0
 17 59  1  0
 19 60  1  6
 20 61  1  0
 20 62  1  0
 21 63  1  0
 21 64  1  0
 22 65  1  6
 23 66  1  0
 25 67  1  0
 25 68  1  0
 25 69  1  0
 26 70  1  0
 26 71  1  0
 26 72  1  0
 28 73  1  0
 28 74  1  0
 28 75  1  0
 29 76  1  0
 29 77  1  0
 30 78  1  0
 30 79  1  0
 32 80  1  0
 32 81  1  0
 32 82  1  0
M  END
>  <meeko>  (17) 
{"is_sidechain": [false], "intermolecular_energy": 2.731, "internal_energy": -0.839}

$$$$
EPH_relaxed_0001_pdb2pqr_Repair_7_r2_0001_out
     RDKit          3D

 82 86  0  0  0  0  0  0  0  0999 V2000
    0.7150   10.9270   -4.7740 C   0  0  0  0  0  0  0  0  0  0  0  0
    0.5000   10.3960   -3.3540 C   0  0  2  0  0  0  0  0  0  0  0  0
   -0.8890    9.7490   -3.1800 C   0  0  0  0  0  0  0  0  0  0  0  0
   -1.3920    9.7510   -1.7340 C   0  0  0  0  0  0  0  0  0  0  0  0
   -0.3510    9.2400   -0.7840 C   0  0  2  0  0  0  0  0  0  0  0  0
   -0.8720    8.5700    0.3710 O   0  0  0  0  0  0  0  0  0  0  0  0
   -0.1540    9.7900    0.6160 C   0  0  0  0  0  0  0  0  0  0  0  0
   -1.0060   10.9010    1.1450 C   0  0  0  0  0  0  0  0  0  0  0  0
    1.1690    9.5870    1.2850 C   0  0  0  0  0  0  0  0  0  0  0  0
    0.6800   11.5230   -2.3440 C   0  0  1  0  0  0  0  0  0  0  0  0
    1.7980   11.2270   -1.3100 C   0  0  0  0  0  0  0  0  0  0  0  0
    2.4780   12.5820   -0.9850 C   0  0  0  0  0  0  0  0  0  0  0  0
    1.5260   13.6470   -1.5780 C   0  0  1  0  0  0  0  0  0  0  0  0
    0.3970   13.8140   -0.5130 C   0  0  0  0  0  0  0  0  0  0  0  0
    2.1740   15.0200   -1.9530 C   0  0  2  0  0  0  0  0  0  0  0  0
    2.7790   15.8000   -0.7730 C   0  0  0  0  0  0  0  0  0  0  0  0
    1.8480   16.7450   -0.0880 C   0  0  0  0  0  0  0  0  0  0  0  0
    0.6690   17.1720   -0.5750 C   0  0  0  0  0  0  0  0  0  0  0  0
    0.2080   16.7740   -1.9840 C   0  0  1  0  0  0  0  0  0  0  0  0
   -0.3200   18.0280   -2.7290 C   0  0  0  0  0  0  0  0  0  0  0  0
   -1.4050   18.7600   -1.9450 C   0  0  0  0  0  0  0  0  0  0  0  0
   -0.8920   19.1900   -0.5730 C   0  0  2  0  0  0  0  0  0  0  0  0
    0.1220   20.1850   -0.7510 O   0  0  0  0  0  0  0  0  0  0  0  0
   -0.3250   18.0110    0.2660 C   0  0  0  0  0  0  0  0  0  0  0  0
   -1.4840   17.0870    0.7140 C   0  0  0  0  0  0  0  0  0  0  0  0
    0.2880   18.6000    1.5650 C   0  0  0  0  0  0  0  0  0  0  0  0
    1.2550   15.9470   -2.8480 C   0  0  1  0  0  0  0  0  0  0  0  0
    2.2090   16.9220   -3.6040 C   0  0  0  0  0  0  0  0  0  0  0  0
    0.4820   15.1360   -3.9530 C   0  0  0  0  0  0  0  0  0  0  0  0
   -0.0290   13.7370   -3.5580 C   0  0  0  0  0  0  0  0  0  0  0  0
    1.0800   12.9150   -2.8950 C   0  0  2  0  0  0  0  0  0  0  0  0
    2.2200   12.7110   -3.9510 C   0  0  0  0  0  0  0  0  0  0  0  0
    1.1274   11.9456   -4.7260 H   0  0  0  0  0  0  0  0  0  0  0  0
    1.4185   10.2713   -5.3080 H   0  0  0  0  0  0  0  0  0  0  0  0
   -0.2465   10.9455   -5.3080 H   0  0  0  0  0  0  0  0  0  0  0  0
    1.2530    9.6142   -3.1760 H   0  0  0  0  0  0  0  0  0  0  0  0
   -1.6101   10.3027   -3.7993 H   0  0  0  0  0  0  0  0  0  0  0  0
   -0.7941    8.6967   -3.4859 H   0  0  0  0  0  0  0  0  0  0  0  0
   -1.6587   10.7799   -1.4508 H   0  0  0  0  0  0  0  0  0  0  0  0
   -2.2665    9.0864   -1.6743 H   0  0  0  0  0  0  0  0  0  0  0  0
    0.3508    9.0616   -1.6120 H   0  0  0  0  0  0  0  0  0  0  0  0
   -0.9917   10.8823    2.2447 H   0  0  0  0  0  0  0  0  0  0  0  0
   -0.6136   11.8652    0.7895 H   0  0  0  0  0  0  0  0  0  0  0  0
   -2.0390   10.7721    0.7895 H   0  0  0  0  0  0  0  0  0  0  0  0
    1.0349    9.6076    2.3766 H   0  0  0  0  0  0  0  0  0  0  0  0
    1.5861    8.6143    0.9851 H   0  0  0  0  0  0  0  0  0  0  0  0
    1.8586   10.3899    0.9851 H   0  0  0  0  0  0  0  0  0  0  0  0
   -0.3376   11.5608   -1.9281 H   0  0  0  0  0  0  0  0  0  0  0  0
    1.3642   10.7925   -0.3973 H   0  0  0  0  0  0  0  0  0  0  0  0
    2.5259   10.5064   -1.7112 H   0  0  0  0  0  0  0  0  0  0  0  0
    2.5803   12.7145    0.1022 H   0  0  0  0  0  0  0  0  0  0  0  0
    3.4933   12.6505   -1.4026 H   0  0  0  0  0  0  0  0  0  0  0  0
    0.8318   13.7497    0.4954 H   0  0  0  0  0  0  0  0  0  0  0  0
   -0.0867   14.7935   -0.6420 H   0  0  0  0  0  0  0  0  0  0  0  0
   -0.3496   13.0165   -0.6420 H   0  0  0  0  0  0  0  0  0  0  0  0
    3.0264   14.7158   -2.5781 H   0  0  0  0  0  0  0  0  0  0  0  0
    3.1313   15.0708   -0.0286 H   0  0  0  0  0  0  0  0  0  0  0  0
    3.5825   16.4194   -1.1981 H   0  0  0  0  0  0  0  0  0  0  0  0
    2.1520   17.1243    0.8988 H   0  0  0  0  0  0  0  0  0  0  0  0
   -0.6091   16.0510   -1.8441 H   0  0  0  0  0  0  0  0  0  0  0  0
    0.5200   18.7180   -2.8972 H   0  0  0  0  0  0  0  0  0  0  0  0
   -0.7631   17.6911   -3.6778 H   0  0  0  0  0  0  0  0  0  0  0  0
   -1.7164   19.6519   -2.5085 H   0  0  0  0  0  0  0  0  0  0  0  0
   -2.2560   18.0776   -1.8031 H   0  0  0  0  0  0  0  0  0  0  0  0
   -1.7485   19.5913   -0.0114 H   0  0  0  0  0  0  0  0  0  0  0  0
    0.9810   19.7300   -0.7670 H   0  0  0  0  0  0  0  0  0  0  0  0
   -1.5238   17.0552    1.8128 H   0  0  0  0  0  0  0  0  0  0  0  0
   -2.4356   17.4770    0.3237 H   0  0  0  0  0  0  0  0  0  0  0  0
   -1.3159   16.0724    0.3237 H   0  0  0  0  0  0  0  0  0  0  0  0
   -0.1930   18.1379    2.4397 H   0  0  0  0  0  0  0  0  0  0  0  0
    1.3679   18.3921    1.5879 H   0  0  0  0  0  0  0  0  0  0  0  0
    0.1234   19.6874    1.5879 H   0  0  0  0  0  0  0  0  0  0  0  0
    2.7849   17.5106   -2.8746 H   0  0  0  0  0  0  0  0  0  0  0  0
    2.8995   16.3434   -4.2353 H   0  0  0  0  0  0  0  0  0  0  0  0
    1.6155   17.5997   -4.2353 H   0  0  0  0  0  0  0  0  0  0  0  0
   -0.3891   15.7349   -4.2571 H   0  0  0  0  0  0  0  0  0  0  0  0
    1.2201   14.9587   -4.7491 H   0  0  0  0  0  0  0  0  0  0  0  0
   -0.8666   13.8457   -2.8533 H   0  0  0  0  0  0  0  0  0  0  0  0
   -0.3569   13.2136   -4.4683 H   0  0  0  0  0  0  0  0  0  0  0  0
    3.1745   12.5402   -3.4317 H   0  0  0  0  0  0  0  0  0  0  0  0
    1.9846   11.8407   -4.5812 H   0  0  0  0  0  0  0  0  0  0  0  0
    2.3010   13.6089   -4.5812 H   0  0  0  0  0  0  0  0  0  0  0  0
  1  2  1  0
  2  3  1  0
  3  4  1  0
  4  5  1  0
  5  6  1  0
  6  7  1  0
  7  8  1  0
  7  9  1  0
  2 10  1  0
 10 11  1  0
 11 12  1  0
 12 13  1  0
 13 14  1  1
 13 15  1  0
 15 16  1  0
 16 17  1  0
 17 18  2  0
 18 19  1  0
 19 20  1  0
 20 21  1  0
 21 22  1  0
 22 23  1  0
 22 24  1  0
 24 25  1  0
 24 26  1  0
 19 27  1  0
 27 28  1  6
 27 29  1  0
 29 30  1  0
 30 31  1  0
 31 32  1  6
  7  5  1  0
 31 10  1  0
 31 13  1  0
 27 15  1  0
 24 18  1  0
  1 33  1  0
  1 34  1  0
  1 35  1  0
  2 36  1  1
  3 37  1  0
  3 38  1  0
  4 39  1  0
  4 40  1  0
  5 41  1  6
  8 42  1  0
  8 43  1  0
  8 44  1  0
  9 45  1  0
  9 46  1  0
  9 47  1  0
 10 48  1  1
 11 49  1  0
 11 50  1  0
 12 51  1  0
 12 52  1  0
 14 53  1  0
 14 54  1  0
 14 55  1  0
 15 56  1  6
 16 57  1  0
 16 58  1  0
 17 59  1  0
 19 60  1  1
 20 61  1  0
 20 62  1  0
 21 63  1  0
 21 64  1  0
 22 65  1  1
 23 66  1  0
 25 67  1  0
 25 68  1  0
 25 69  1  0
 26 70  1  0
 26 71  1  0
 26 72  1  0
 28 73  1  0
 28 74  1  0
 28 75  1  0
 29 76  1  0
 29 77  1  0
 30 78  1  0
 30 79  1  0
 32 80  1  0
 32 81  1  0
 32 82  1  0
M  END
>  <meeko>  (18) 
{"is_sidechain": [false], "intermolecular_energy": 2.731, "internal_energy": -0.839}

$$$$
EPH_relaxed_0001_pdb2pqr_Repair_7_r2_0001_out
     RDKit          3D

 82 86  0  0  0  0  0  0  0  0999 V2000
   -2.5130    7.8320   -0.0120 C   0  0  0  0  0  0  0  0  0  0  0  0
   -3.1910    9.2010   -0.1070 C   0  0  2  0  0  0  0  0  0  0  0  0
   -4.6470    9.0940   -0.6030 C   0  0  0  0  0  0  0  0  0  0  0  0
   -5.1970    7.6650   -0.5950 C   0  0  0  0  0  0  0  0  0  0  0  0
   -6.0050    7.3760   -1.8240 C   0  0  2  0  0  0  0  0  0  0  0  0
   -6.9530    8.3930   -2.1710 O   0  0  0  0  0  0  0  0  0  0  0  0
   -7.5000    7.1180   -1.8000 C   0  0  0  0  0  0  0  0  0  0  0  0
   -8.2750    7.1360   -0.5200 C   0  0  0  0  0  0  0  0  0  0  0  0
   -8.1160    6.3710   -2.9420 C   0  0  0  0  0  0  0  0  0  0  0  0
   -2.3930   10.1140   -1.0300 C   0  0  1  0  0  0  0  0  0  0  0  0
   -3.0060   11.5350   -1.1420 C   0  0  0  0  0  0  0  0  0  0  0  0
   -1.8210   12.5250   -1.2810 C   0  0  0  0  0  0  0  0  0  0  0  0
   -0.5960   11.6280   -1.5760 C   0  0  1  0  0  0  0  0  0  0  0  0
   -0.6830   11.3220   -3.1040 C   0  0  0  0  0  0  0  0  0  0  0  0
    0.7990   12.2130   -1.1820 C   0  0  2  0  0  0  0  0  0  0  0  0
    1.2000   13.5000   -1.9230 C   0  0  0  0  0  0  0  0  0  0  0  0
    1.9570   13.2950   -3.1940 C   0  0  0  0  0  0  0  0  0  0  0  0
    2.5490   12.1480   -3.5750 C   0  0  0  0  0  0  0  0  0  0  0  0
    2.5720   10.9270   -2.6470 C   0  0  1  0  0  0  0  0  0  0  0  0
    4.0030   10.3280   -2.6160 C   0  0  0  0  0  0  0  0  0  0  0  0
    4.5350   10.0110   -4.0100 C   0  0  0  0  0  0  0  0  0  0  0  0
    4.5500   11.2610   -4.8850 C   0  0  2  0  0  0  0  0  0  0  0  0
    5.5140   12.1800   -4.3600 O   0  0  0  0  0  0  0  0  0  0  0  0
    3.1640   11.9580   -4.9830 C   0  0  0  0  0  0  0  0  0  0  0  0
    2.2000   11.0820   -5.8210 C   0  0  0  0  0  0  0  0  0  0  0  0
    3.3490   13.2800   -5.7760 C   0  0  0  0  0  0  0  0  0  0  0  0
    1.9730   11.1510   -1.1920 C   0  0  1  0  0  0  0  0  0  0  0  0
    3.0780   11.7010   -0.2390 C   0  0  0  0  0  0  0  0  0  0  0  0
    1.5280    9.7620   -0.6000 C   0  0  0  0  0  0  0  0  0  0  0  0
    0.0960    9.2940   -0.9260 C   0  0  0  0  0  0  0  0  0  0  0  0
   -0.9210   10.4050   -0.6430 C   0  0  2  0  0  0  0  0  0  0  0  0
   -0.8720   10.7190    0.8910 C   0  0  0  0  0  0  0  0  0  0  0  0
   -2.3792    7.5617    1.0458 H   0  0  0  0  0  0  0  0  0  0  0  0
   -3.1411    7.0766   -0.5068 H   0  0  0  0  0  0  0  0  0  0  0  0
   -1.5315    7.8738   -0.5068 H   0  0  0  0  0  0  0  0  0  0  0  0
   -3.2171    9.6281    0.9064 H   0  0  0  0  0  0  0  0  0  0  0  0
   -5.2817    9.7140    0.0472 H   0  0  0  0  0  0  0  0  0  0  0  0
   -4.6562    9.4359   -1.6485 H   0  0  0  0  0  0  0  0  0  0  0  0
   -4.3548    6.9590   -0.5477 H   0  0  0  0  0  0  0  0  0  0  0  0
   -5.8531    7.5546    0.2810 H   0  0  0  0  0  0  0  0  0  0  0  0
   -5.1673    6.8221   -2.2728 H   0  0  0  0  0  0  0  0  0  0  0  0
   -7.5780    7.1198    0.3309 H   0  0  0  0  0  0  0  0  0  0  0  0
   -8.8875    8.0486   -0.4750 H   0  0  0  0  0  0  0  0  0  0  0  0
   -8.9292    6.2528   -0.4750 H   0  0  0  0  0  0  0  0  0  0  0  0
   -8.7701    5.5778   -2.5510 H   0  0  0  0  0  0  0  0  0  0  0  0
   -8.7082    7.0646   -3.5570 H   0  0  0  0  0  0  0  0  0  0  0  0
   -7.3223    5.9218   -3.5570 H   0  0  0  0  0  0  0  0  0  0  0  0
   -2.4298    9.5187   -1.9543 H   0  0  0  0  0  0  0  0  0  0  0  0
   -3.6574   11.5977   -2.0262 H   0  0  0  0  0  0  0  0  0  0  0  0
   -3.6164   11.7720   -0.2582 H   0  0  0  0  0  0  0  0  0  0  0  0
   -1.9967   13.2271   -2.1093 H   0  0  0  0  0  0  0  0  0  0  0  0
   -1.6815   13.1381   -0.3784 H   0  0  0  0  0  0  0  0  0  0  0  0
   -0.9811   10.2735   -3.2516 H   0  0  0  0  0  0  0  0  0  0  0  0
   -1.4285   11.9840   -3.5687 H   0  0  0  0  0  0  0  0  0  0  0  0
    0.2993   11.4928   -3.5687 H   0  0  0  0  0  0  0  0  0  0  0  0
    0.6434   12.5082   -0.1338 H   0  0  0  0  0  0  0  0  0  0  0  0
    0.2809   14.0557   -2.1607 H   0  0  0  0  0  0  0  0  0  0  0  0
    1.8797   14.0406   -1.2479 H   0  0  0  0  0  0  0  0  0  0  0  0
    2.0375   14.1540   -3.8763 H   0  0  0  0  0  0  0  0  0  0  0  0
    1.8717   10.1995   -3.0833 H   0  0  0  0  0  0  0  0  0  0  0  0
    4.6782   11.0525   -2.1373 H   0  0  0  0  0  0  0  0  0  0  0  0
    3.9575    9.3838   -2.0534 H   0  0  0  0  0  0  0  0  0  0  0  0
    5.5593    9.6194   -3.9240 H   0  0  0  0  0  0  0  0  0  0  0  0
    3.8756    9.2640   -4.4760 H   0  0  0  0  0  0  0  0  0  0  0  0
    4.8152   10.9457   -5.9049 H   0  0  0  0  0  0  0  0  0  0  0  0
    5.0820   12.6850   -3.6510 H   0  0  0  0  0  0  0  0  0  0  0  0
    1.5565   10.4973   -5.1472 H   0  0  0  0  0  0  0  0  0  0  0  0
    1.5754   11.7280   -6.4555 H   0  0  0  0  0  0  0  0  0  0  0  0
    2.7834   10.3986   -6.4555 H   0  0  0  0  0  0  0  0  0  0  0  0
    3.4661   14.1168   -5.0716 H   0  0  0  0  0  0  0  0  0  0  0  0
    4.2455   13.2054   -6.4091 H   0  0  0  0  0  0  0  0  0  0  0  0
    2.4665   13.4544   -6.4091 H   0  0  0  0  0  0  0  0  0  0  0  0
    2.7704   11.5479    0.8060 H   0  0  0  0  0  0  0  0  0  0  0  0
    4.0217   11.1675   -0.4254 H   0  0  0  0  0  0  0  0  0  0  0  0
    3.2213   12.7756   -0.4254 H   0  0  0  0  0  0  0  0  0  0  0  0
    2.2224    8.9994   -0.9824 H   0  0  0  0  0  0  0  0  0  0  0  0
    1.5455    9.8956    0.4917 H   0  0  0  0  0  0  0  0  0  0  0  0
    0.0408    9.0178   -1.9893 H   0  0  0  0  0  0  0  0  0  0  0  0
   -0.1437    8.4285   -0.2909 H   0  0  0  0  0  0  0  0  0  0  0  0
   -1.0171    9.7891    1.4604 H   0  0  0  0  0  0  0  0  0  0  0  0
    0.1052   11.1557    1.1449 H   0  0  0  0  0  0  0  0  0  0  0  0
   -1.6696   11.4327    1.1449 H   0  0  0  0  0  0  0  0  0  0  0  0
  1  2  1  0
  2  3  1  0
  3  4  1  0
  4  5  1  0
  5  6  1  0
  6  7  1  0
  7  8  1  0
  7  9  1  0
  2 10  1  0
 10 11  1  0
 11 12  1  0
 12 13  1  0
 13 14  1  6
 13 15  1  0
 15 16  1  0
 16 17  1  0
 17 18  2  0
 18 19  1  0
 19 20  1  0
 20 21  1  0
 21 22  1  0
 22 23  1  0
 22 24  1  0
 24 25  1  0
 24 26  1  0
 19 27  1  0
 27 28  1  1
 27 29  1  0
 29 30  1  0
 30 31  1  0
 31 32  1  1
  7  5  1  0
 31 10  1  0
 31 13  1  0
 27 15  1  0
 24 18  1  0
  1 33  1  0
  1 34  1  0
  1 35  1  0
  2 36  1  1
  3 37  1  0
  3 38  1  0
  4 39  1  0
  4 40  1  0
  5 41  1  6
  8 42  1  0
  8 43  1  0
  8 44  1  0
  9 45  1  0
  9 46  1  0
  9 47  1  0
 10 48  1  6
 11 49  1  0
 11 50  1  0
 12 51  1  0
 12 52  1  0
 14 53  1  0
 14 54  1  0
 14 55  1  0
 15 56  1  1
 16 57  1  0
 16 58  1  0
 17 59  1  0
 19 60  1  6
 20 61  1  0
 20 62  1  0
 21 63  1  0
 21 64  1  0
 22 65  1  6
 23 66  1  0
 25 67  1  0
 25 68  1  0
 25 69  1  0
 26 70  1  0
 26 71  1  0
 26 72  1  0
 28 73  1  0
 28 74  1  0
 28 75  1  0
 29 76  1  0
 29 77  1  0
 30 78  1  0
 30 79  1  0
 32 80  1  0
 32 81  1  0
 32 82  1  0
M  END
>  <meeko>  (19) 
{"is_sidechain": [false], "intermolecular_energy": 2.731, "internal_energy": -0.839}

$$$$
EPH_relaxed_0001_pdb2pqr_Repair_7_r2_0001_out
     RDKit          3D

 82 86  0  0  0  0  0  0  0  0999 V2000
   -0.1090    9.4210   -2.6610 C   0  0  0  0  0  0  0  0  0  0  0  0
    1.0120   10.3950   -3.0330 C   0  0  2  0  0  0  0  0  0  0  0  0
    2.3900    9.7050   -3.0820 C   0  0  0  0  0  0  0  0  0  0  0  0
    3.4050   10.4210   -3.9770 C   0  0  0  0  0  0  0  0  0  0  0  0
    4.7970   10.3170   -3.4290 C   0  0  2  0  0  0  0  0  0  0  0  0
    5.3680   11.5610   -3.0040 O   0  0  0  0  0  0  0  0  0  0  0  0
    6.0120   10.9140   -4.1130 C   0  0  0  0  0  0  0  0  0  0  0  0
    5.8920   11.6600   -5.4050 C   0  0  0  0  0  0  0  0  0  0  0  0
    7.3630   10.3590   -3.7860 C   0  0  0  0  0  0  0  0  0  0  0  0
    1.0440   11.5530   -2.0420 C   0  0  1  0  0  0  0  0  0  0  0  0
    2.0940   11.3470   -0.9170 C   0  0  0  0  0  0  0  0  0  0  0  0
    2.6640   12.7470   -0.5760 C   0  0  0  0  0  0  0  0  0  0  0  0
    1.7000   13.7400   -1.2670 C   0  0  1  0  0  0  0  0  0  0  0  0
    0.4840   13.8600   -0.2960 C   0  0  0  0  0  0  0  0  0  0  0  0
    2.2920   15.1420   -1.6260 C   0  0  2  0  0  0  0  0  0  0  0  0
    2.7560   15.9820   -0.4230 C   0  0  0  0  0  0  0  0  0  0  0  0
    1.7200   16.8810    0.1650 C   0  0  0  0  0  0  0  0  0  0  0  0
    0.5590   17.2250   -0.4230 C   0  0  0  0  0  0  0  0  0  0  0  0
    0.2350   16.7710   -1.8520 C   0  0  1  0  0  0  0  0  0  0  0  0
   -0.3080   17.9750   -2.6670 C   0  0  0  0  0  0  0  0  0  0  0  0
   -1.4930   18.6550   -1.9880 C   0  0  0  0  0  0  0  0  0  0  0  0
   -1.1140   19.1430   -0.5920 C   0  0  2  0  0  0  0  0  0  0  0  0
   -0.1510   20.1950   -0.7170 O   0  0  0  0  0  0  0  0  0  0  0  0
   -0.5460   18.0190    0.3180 C   0  0  0  0  0  0  0  0  0  0  0  0
   -1.6790   17.0350    0.6990 C   0  0  0  0  0  0  0  0  0  0  0  0
   -0.0730   18.6720    1.6450 C   0  0  0  0  0  0  0  0  0  0  0  0
    1.3930   15.9920   -2.6120 C   0  0  1  0  0  0  0  0  0  0  0  0
    2.3430   17.0080   -3.3170 C   0  0  0  0  0  0  0  0  0  0  0  0
    0.7580   15.1120   -3.7520 C   0  0  0  0  0  0  0  0  0  0  0  0
    0.3020   13.6930   -3.3620 C   0  0  0  0  0  0  0  0  0  0  0  0
    1.4030   12.9540   -2.5960 C   0  0  2  0  0  0  0  0  0  0  0  0
    2.6330   12.7990   -3.5550 C   0  0  0  0  0  0  0  0  0  0  0  0
   -0.1873    9.3530   -1.5659 H   0  0  0  0  0  0  0  0  0  0  0  0
   -1.0617    9.7831   -3.0749 H   0  0  0  0  0  0  0  0  0  0  0  0
    0.1165    8.4271   -3.0749 H   0  0  0  0  0  0  0  0  0  0  0  0
    0.7981   10.7750   -4.0428 H   0  0  0  0  0  0  0  0  0  0  0  0
    2.7951    9.6654   -2.0601 H   0  0  0  0  0  0  0  0  0  0  0  0
    2.2334    8.7040   -3.5103 H   0  0  0  0  0  0  0  0  0  0  0  0
    3.3810    9.9661   -4.9782 H   0  0  0  0  0  0  0  0  0  0  0  0
    3.1323   11.4857   -4.0216 H   0  0  0  0  0  0  0  0  0  0  0  0
    4.5919    9.3104   -3.0358 H   0  0  0  0  0  0  0  0  0  0  0  0
    5.7204   12.7266   -5.1980 H   0  0  0  0  0  0  0  0  0  0  0  0
    6.8204   11.5435   -5.9833 H   0  0  0  0  0  0  0  0  0  0  0  0
    5.0469   11.2582   -5.9833 H   0  0  0  0  0  0  0  0  0  0  0  0
    7.4844   10.3091   -2.6939 H   0  0  0  0  0  0  0  0  0  0  0  0
    7.4575    9.3492   -4.2119 H   0  0  0  0  0  0  0  0  0  0  0  0
    8.1401   11.0108   -4.2119 H   0  0  0  0  0  0  0  0  0  0  0  0
   -0.0038   11.5384   -1.7075 H   0  0  0  0  0  0  0  0  0  0  0  0
    1.6168   10.9058   -0.0295 H   0  0  0  0  0  0  0  0  0  0  0  0
    2.8925   10.6638   -1.2421 H   0  0  0  0  0  0  0  0  0  0  0  0
    2.6730   12.9081    0.5121 H   0  0  0  0  0  0  0  0  0  0  0  0
    3.7028   12.8687   -0.9168 H   0  0  0  0  0  0  0  0  0  0  0  0
    0.8404   13.8248    0.7441 H   0  0  0  0  0  0  0  0  0  0  0  0
   -0.0345   14.8137   -0.4739 H   0  0  0  0  0  0  0  0  0  0  0  0
   -0.2109   13.0261   -0.4739 H   0  0  0  0  0  0  0  0  0  0  0  0
    3.2070   14.8776   -2.1763 H   0  0  0  0  0  0  0  0  0  0  0  0
    3.0928   15.2913    0.3641 H   0  0  0  0  0  0  0  0  0  0  0  0
    3.5514   16.6411   -0.8011 H   0  0  0  0  0  0  0  0  0  0  0  0
    1.9221   17.2976    1.1628 H   0  0  0  0  0  0  0  0  0  0  0  0
   -0.5455   16.0017   -1.7570 H   0  0  0  0  0  0  0  0  0  0  0  0
    0.4996   18.7120   -2.7876 H   0  0  0  0  0  0  0  0  0  0  0  0
   -0.6548   17.5915   -3.6379 H   0  0  0  0  0  0  0  0  0  0  0  0
   -1.8118   19.5146   -2.5959 H   0  0  0  0  0  0  0  0  0  0  0  0
   -2.3112   17.9256   -1.8954 H   0  0  0  0  0  0  0  0  0  0  0  0
   -2.0340   19.5020   -0.1075 H   0  0  0  0  0  0  0  0  0  0  0  0
   -0.3580   20.8650   -0.0440 H   0  0  0  0  0  0  0  0  0  0  0  0
   -1.7546   16.9693    1.7944 H   0  0  0  0  0  0  0  0  0  0  0  0
   -2.6326   17.3964    0.2866 H   0  0  0  0  0  0  0  0  0  0  0  0
   -1.4547   16.0402    0.2866 H   0  0  0  0  0  0  0  0  0  0  0  0
   -0.4812   18.1084    2.4969 H   0  0  0  0  0  0  0  0  0  0  0  0
    1.0260   18.6582    1.6891 H   0  0  0  0  0  0  0  0  0  0  0  0
   -0.4287   19.7120    1.6891 H   0  0  0  0  0  0  0  0  0  0  0  0
    2.8866   17.5894   -2.5577 H   0  0  0  0  0  0  0  0  0  0  0  0
    3.0623   16.4622   -3.9453 H   0  0  0  0  0  0  0  0  0  0  0  0
    1.7502   17.6891   -3.9453 H   0  0  0  0  0  0  0  0  0  0  0  0
   -0.1209   15.6499   -4.1370 H   0  0  0  0  0  0  0  0  0  0  0  0
    1.5652   14.9637   -4.4844 H   0  0  0  0  0  0  0  0  0  0  0  0
   -0.5927   13.7647   -2.7261 H   0  0  0  0  0  0  0  0  0  0  0  0
    0.0774   13.1320   -4.2812 H   0  0  0  0  0  0  0  0  0  0  0  0
    3.5503   12.6834   -2.9590 H   0  0  0  0  0  0  0  0  0  0  0  0
    2.4937   11.9113   -4.1895 H   0  0  0  0  0  0  0  0  0  0  0  0
    2.7183   13.6935   -4.1895 H   0  0  0  0  0  0  0  0  0  0  0  0
  1  2  1  0
  2  3  1  0
  3  4  1  0
  4  5  1  0
  5  6  1  0
  6  7  1  0
  7  8  1  0
  7  9  1  0
  2 10  1  0
 10 11  1  0
 11 12  1  0
 12 13  1  0
 13 14  1  1
 13 15  1  0
 15 16  1  0
 16 17  1  0
 17 18  2  0
 18 19  1  0
 19 20  1  0
 20 21  1  0
 21 22  1  0
 22 23  1  0
 22 24  1  0
 24 25  1  0
 24 26  1  0
 19 27  1  0
 27 28  1  6
 27 29  1  0
 29 30  1  0
 30 31  1  0
 31 32  1  6
  7  5  1  0
 31 10  1  0
 31 13  1  0
 27 15  1  0
 24 18  1  0
  1 33  1  0
  1 34  1  0
  1 35  1  0
  2 36  1  6
  3 37  1  0
  3 38  1  0
  4 39  1  0
  4 40  1  0
  5 41  1  1
  8 42  1  0
  8 43  1  0
  8 44  1  0
  9 45  1  0
  9 46  1  0
  9 47  1  0
 10 48  1  1
 11 49  1  0
 11 50  1  0
 12 51  1  0
 12 52  1  0
 14 53  1  0
 14 54  1  0
 14 55  1  0
 15 56  1  6
 16 57  1  0
 16 58  1  0
 17 59  1  0
 19 60  1  1
 20 61  1  0
 20 62  1  0
 21 63  1  0
 21 64  1  0
 22 65  1  1
 23 66  1  0
 25 67  1  0
 25 68  1  0
 25 69  1  0
 26 70  1  0
 26 71  1  0
 26 72  1  0
 28 73  1  0
 28 74  1  0
 28 75  1  0
 29 76  1  0
 29 77  1  0
 30 78  1  0
 30 79  1  0
 32 80  1  0
 32 81  1  0
 32 82  1  0
M  END
>  <meeko>  (20) 
{"is_sidechain": [false], "intermolecular_energy": 2.731, "internal_energy": -0.839}

$$$$
