EPH_relaxed_0001_pdb2pqr_Repair_3_r2_0001_out
     RDKit          3D

 82 86  0  0  0  0  0  0  0  0999 V2000
   -1.7100    8.6000   -1.8730 C   0  0  0  0  0  0  0  0  0  0  0  0
   -2.1010    9.1230   -0.4880 C   0  0  2  0  0  0  0  0  0  0  0  0
   -3.5970    9.4870   -0.4060 C   0  0  0  0  0  0  0  0  0  0  0  0
   -4.5170    8.2750   -0.2320 C   0  0  0  0  0  0  0  0  0  0  0  0
   -5.1970    7.9060   -1.5160 C   0  0  2  0  0  0  0  0  0  0  0  0
   -6.3260    8.7240   -1.8510 O   0  0  0  0  0  0  0  0  0  0  0  0
   -6.6020    7.3390   -1.5850 C   0  0  0  0  0  0  0  0  0  0  0  0
   -7.4120    7.1070   -0.3480 C   0  0  0  0  0  0  0  0  0  0  0  0
   -7.0010    6.5600   -2.8000 C   0  0  0  0  0  0  0  0  0  0  0  0
   -1.2500   10.3350   -0.1310 C   0  0  1  0  0  0  0  0  0  0  0  0
   -0.2340   10.0390    1.0050 C   0  0  0  0  0  0  0  0  0  0  0  0
    1.0390   10.8680    0.6950 C   0  0  0  0  0  0  0  0  0  0  0  0
    0.6000   11.8570   -0.4100 C   0  0  1  0  0  0  0  0  0  0  0  0
   -0.1210   13.0140    0.3510 C   0  0  0  0  0  0  0  0  0  0  0  0
    1.7320   12.3980   -1.3430 C   0  0  2  0  0  0  0  0  0  0  0  0
    2.8230   13.2200   -0.6360 C   0  0  0  0  0  0  0  0  0  0  0  0
    2.5680   14.6900   -0.5630 C   0  0  0  0  0  0  0  0  0  0  0  0
    1.6540   15.3610   -1.2880 C   0  0  0  0  0  0  0  0  0  0  0  0
    0.8270   14.6500   -2.3670 C   0  0  1  0  0  0  0  0  0  0  0  0
    0.8160   15.5060   -3.6600 C   0  0  0  0  0  0  0  0  0  0  0  0
    0.3460   16.9360   -3.4120 C   0  0  0  0  0  0  0  0  0  0  0  0
    1.2290   17.6290   -2.3770 C   0  0  2  0  0  0  0  0  0  0  0  0
    2.5380   17.7980   -2.9280 O   0  0  0  0  0  0  0  0  0  0  0  0
    1.3230   16.8520   -1.0340 C   0  0  0  0  0  0  0  0  0  0  0  0
   -0.0340   16.9290   -0.2920 C   0  0  0  0  0  0  0  0  0  0  0  0
    2.3530   17.5840   -0.1310 C   0  0  0  0  0  0  0  0  0  0  0  0
    1.2060   13.1310   -2.6430 C   0  0  1  0  0  0  0  0  0  0  0  0
    2.3550   13.0530   -3.6940 C   0  0  0  0  0  0  0  0  0  0  0  0
   -0.0330   12.4000   -3.2820 C   0  0  0  0  0  0  0  0  0  0  0  0
   -1.0550   11.7830   -2.3080 C   0  0  0  0  0  0  0  0  0  0  0  0
   -0.3540   10.9300   -1.2470 C   0  0  2  0  0  0  0  0  0  0  0  0
    0.3610    9.7450   -1.9810 C   0  0  0  0  0  0  0  0  0  0  0  0
   -1.0547    7.7235   -1.7624 H   0  0  0  0  0  0  0  0  0  0  0  0
   -2.6166    8.3126   -2.4258 H   0  0  0  0  0  0  0  0  0  0  0  0
   -1.1779    9.3882   -2.4258 H   0  0  0  0  0  0  0  0  0  0  0  0
   -1.9179    8.3144    0.2349 H   0  0  0  0  0  0  0  0  0  0  0  0
   -3.7440   10.1605    0.4512 H   0  0  0  0  0  0  0  0  0  0  0  0
   -3.8656    9.9598   -1.3622 H   0  0  0  0  0  0  0  0  0  0  0  0
   -3.9179    7.4193    0.1128 H   0  0  0  0  0  0  0  0  0  0  0  0
   -5.2920    8.5357    0.5038 H   0  0  0  0  0  0  0  0  0  0  0  0
   -4.2444    7.5713   -1.9525 H   0  0  0  0  0  0  0  0  0  0  0  0
   -6.7864    7.2862    0.5389 H   0  0  0  0  0  0  0  0  0  0  0  0
   -8.2697    7.7956   -0.3369 H   0  0  0  0  0  0  0  0  0  0  0  0
   -7.7751    6.0687   -0.3369 H   0  0  0  0  0  0  0  0  0  0  0  0
   -7.4823    5.6203   -2.4913 H   0  0  0  0  0  0  0  0  0  0  0  0
   -7.7063    7.1532   -3.4006 H   0  0  0  0  0  0  0  0  0  0  0  0
   -6.1075    6.3343   -3.4006 H   0  0  0  0  0  0  0  0  0  0  0  0
   -2.0463   11.0468    0.1321 H   0  0  0  0  0  0  0  0  0  0  0  0
   -0.6540   10.3391    1.9763 H   0  0  0  0  0  0  0  0  0  0  0  0
   -0.0024    8.9649    1.0573 H   0  0  0  0  0  0  0  0  0  0  0  0
    1.3767   11.4107    1.5902 H   0  0  0  0  0  0  0  0  0  0  0  0
    1.8820   10.2360    0.3788 H   0  0  0  0  0  0  0  0  0  0  0  0
   -0.0230   12.8567    1.4353 H   0  0  0  0  0  0  0  0  0  0  0  0
    0.3383   13.9752    0.0769 H   0  0  0  0  0  0  0  0  0  0  0  0
   -1.1863   13.0252    0.0769 H   0  0  0  0  0  0  0  0  0  0  0  0
    2.2248   11.4728   -1.6764 H   0  0  0  0  0  0  0  0  0  0  0  0
    2.9218   12.8408    0.3918 H   0  0  0  0  0  0  0  0  0  0  0  0
    3.7344   13.0990   -1.2399 H   0  0  0  0  0  0  0  0  0  0  0  0
    3.1784   15.2729    0.1424 H   0  0  0  0  0  0  0  0  0  0  0  0
   -0.1935   14.5706   -1.9641 H   0  0  0  0  0  0  0  0  0  0  0  0
    1.8358   15.5365   -4.0712 H   0  0  0  0  0  0  0  0  0  0  0  0
    0.1095   15.0399   -4.3625 H   0  0  0  0  0  0  0  0  0  0  0  0
    0.3895   17.4981   -4.3565 H   0  0  0  0  0  0  0  0  0  0  0  0
   -0.6850   16.9053   -3.0297 H   0  0  0  0  0  0  0  0  0  0  0  0
    0.7672   18.6002   -2.1456 H   0  0  0  0  0  0  0  0  0  0  0  0
    2.5770   17.2900   -3.7560 H   0  0  0  0  0  0  0  0  0  0  0  0
    0.1408   16.9191    0.7940 H   0  0  0  0  0  0  0  0  0  0  0  0
   -0.5525   17.8580   -0.5714 H   0  0  0  0  0  0  0  0  0  0  0  0
   -0.6543   16.0646   -0.5714 H   0  0  0  0  0  0  0  0  0  0  0  0
    2.1047   17.4075    0.9260 H   0  0  0  0  0  0  0  0  0  0  0  0
    3.3622   17.1994   -0.3397 H   0  0  0  0  0  0  0  0  0  0  0  0
    2.3216   18.6636   -0.3397 H   0  0  0  0  0  0  0  0  0  0  0  0
    3.3227   12.9873   -3.1751 H   0  0  0  0  0  0  0  0  0  0  0  0
    2.2156   12.1622   -4.3242 H   0  0  0  0  0  0  0  0  0  0  0  0
    2.3373   13.9544   -4.3242 H   0  0  0  0  0  0  0  0  0  0  0  0
   -0.5672   13.1331   -3.9042 H   0  0  0  0  0  0  0  0  0  0  0  0
    0.3895   11.5472   -3.8336 H   0  0  0  0  0  0  0  0  0  0  0  0
   -1.6113   12.5910   -1.8104 H   0  0  0  0  0  0  0  0  0  0  0  0
   -1.7402   11.1395   -2.8793 H   0  0  0  0  0  0  0  0  0  0  0  0
    0.7794    9.0516   -1.2366 H   0  0  0  0  0  0  0  0  0  0  0  0
   -0.3662    9.2117   -2.6109 H   0  0  0  0  0  0  0  0  0  0  0  0
    1.1718   10.1397   -2.6109 H   0  0  0  0  0  0  0  0  0  0  0  0
  1  2  1  0
  2  3  1  0
  3  4  1  0
  4  5  1  0
  5  6  1  0
  6  7  1  0
  7  8  1  0
  7  9  1  0
  2 10  1  0
 10 11  1  0
 11 12  1  0
 12 13  1  0
 13 14  1  1
 13 15  1  0
 15 16  1  0
 16 17  1  0
 17 18  2  0
 18 19  1  0
 19 20  1  0
 20 21  1  0
 21 22  1  0
 22 23  1  0
 22 24  1  0
 24 25  1  0
 24 26  1  0
 19 27  1  0
 27 28  1  6
 27 29  1  0
 29 30  1  0
 30 31  1  0
 31 32  1  6
  7  5  1  0
 31 10  1  0
 31 13  1  0
 27 15  1  0
 24 18  1  0
  1 33  1  0
  1 34  1  0
  1 35  1  0
  2 36  1  1
  3 37  1  0
  3 38  1  0
  4 39  1  0
  4 40  1  0
  5 41  1  6
  8 42  1  0
  8 43  1  0
  8 44  1  0
  9 45  1  0
  9 46  1  0
  9 47  1  0
 10 48  1  1
 11 49  1  0
 11 50  1  0
 12 51  1  0
 12 52  1  0
 14 53  1  0
 14 54  1  0
 14 55  1  0
 15 56  1  6
 16 57  1  0
 16 58  1  0
 17 59  1  0
 19 60  1  1
 20 61  1  0
 20 62  1  0
 21 63  1  0
 21 64  1  0
 22 65  1  1
 23 66  1  0
 25 67  1  0
 25 68  1  0
 25 69  1  0
 26 70  1  0
 26 71  1  0
 26 72  1  0
 28 73  1  0
 28 74  1  0
 28 75  1  0
 29 76  1  0
 29 77  1  0
 30 78  1  0
 30 79  1  0
 32 80  1  0
 32 81  1  0
 32 82  1  0
M  END
>  <meeko>  (1) 
{"is_sidechain": [false], "intermolecular_energy": 2.731, "internal_energy": -0.839}

$$$$
EPH_relaxed_0001_pdb2pqr_Repair_3_r2_0001_out
     RDKit          3D

 82 86  0  0  0  0  0  0  0  0999 V2000
    4.2060   17.5500   -0.6620 C   0  0  0  0  0  0  0  0  0  0  0  0
    2.8430   18.1230   -0.2620 C   0  0  2  0  0  0  0  0  0  0  0  0
    2.8890   18.8240    1.1100 C   0  0  0  0  0  0  0  0  0  0  0  0
    4.2380   18.6960    1.8230 C   0  0  0  0  0  0  0  0  0  0  0  0
    4.1810   19.2400    3.2180 C   0  0  2  0  0  0  0  0  0  0  0  0
    5.2040   20.1940    3.5310 O   0  0  0  0  0  0  0  0  0  0  0  0
    5.2410   18.9620    4.2680 C   0  0  0  0  0  0  0  0  0  0  0  0
    6.4330   18.1080    3.9670 C   0  0  0  0  0  0  0  0  0  0  0  0
    4.8750   19.1120    5.7120 C   0  0  0  0  0  0  0  0  0  0  0  0
    1.7980   17.0140   -0.2460 C   0  0  1  0  0  0  0  0  0  0  0  0
    0.3720   17.5330   -0.5690 C   0  0  0  0  0  0  0  0  0  0  0  0
   -0.3430   16.4120   -1.3660 C   0  0  0  0  0  0  0  0  0  0  0  0
    0.5630   15.1700   -1.1900 C   0  0  1  0  0  0  0  0  0  0  0  0
    0.1830   14.5920    0.2090 C   0  0  0  0  0  0  0  0  0  0  0  0
    0.4700   14.0830   -2.3100 C   0  0  2  0  0  0  0  0  0  0  0  0
   -0.9080   13.4150   -2.4570 C   0  0  0  0  0  0  0  0  0  0  0  0
   -1.1120   12.1850   -1.6360 C   0  0  0  0  0  0  0  0  0  0  0  0
   -0.1380   11.4770   -1.0330 C   0  0  0  0  0  0  0  0  0  0  0  0
    1.3390   11.8420   -1.2290 C   0  0  1  0  0  0  0  0  0  0  0  0
    2.1540   10.5580   -1.5300 C   0  0  0  0  0  0  0  0  0  0  0  0
    1.9560    9.4770   -0.4710 C   0  0  0  0  0  0  0  0  0  0  0  0
    0.4830    9.1000   -0.3460 C   0  0  2  0  0  0  0  0  0  0  0  0
    0.0660    8.4610   -1.5580 O   0  0  0  0  0  0  0  0  0  0  0  0
   -0.4390   10.3160   -0.0530 C   0  0  0  0  0  0  0  0  0  0  0  0
   -0.1910   10.8210    1.3900 C   0  0  0  0  0  0  0  0  0  0  0  0
   -1.9100    9.8210   -0.0920 C   0  0  0  0  0  0  0  0  0  0  0  0
    1.6320   13.0090   -2.2680 C   0  0  1  0  0  0  0  0  0  0  0  0
    1.7480   12.4220   -3.7080 C   0  0  0  0  0  0  0  0  0  0  0  0
    3.0300   13.6530   -1.9370 C   0  0  0  0  0  0  0  0  0  0  0  0
    3.0400   14.8030   -0.9120 C   0  0  0  0  0  0  0  0  0  0  0  0
    1.9780   15.8520   -1.2550 C   0  0  2  0  0  0  0  0  0  0  0  0
    2.3470   16.4680   -2.6480 C   0  0  0  0  0  0  0  0  0  0  0  0
    4.7819   17.3079    0.2433 H   0  0  0  0  0  0  0  0  0  0  0  0
    4.0594   16.6374   -1.2583 H   0  0  0  0  0  0  0  0  0  0  0  0
    4.7555   18.2933   -1.2583 H   0  0  0  0  0  0  0  0  0  0  0  0
    2.5690   18.8808   -1.0108 H   0  0  0  0  0  0  0  0  0  0  0  0
    2.6752   19.8927    0.9610 H   0  0  0  0  0  0  0  0  0  0  0  0
    2.1408   18.3306    1.7478 H   0  0  0  0  0  0  0  0  0  0  0  0
    4.5192   17.6334    1.8659 H   0  0  0  0  0  0  0  0  0  0  0  0
    4.9812   19.2778    1.2580 H   0  0  0  0  0  0  0  0  0  0  0  0
    3.0848   19.1498    3.2337 H   0  0  0  0  0  0  0  0  0  0  0  0
    6.8945   17.7774    4.9092 H   0  0  0  0  0  0  0  0  0  0  0  0
    6.1171   17.2294    3.3853 H   0  0  0  0  0  0  0  0  0  0  0  0
    7.1633   18.6896    3.3853 H   0  0  0  0  0  0  0  0  0  0  0  0
    5.7109   18.7694    6.3396 H   0  0  0  0  0  0  0  0  0  0  0  0
    4.6632   20.1695    5.9286 H   0  0  0  0  0  0  0  0  0  0  0  0
    3.9820   18.5073    5.9286 H   0  0  0  0  0  0  0  0  0  0  0  0
    1.9364   16.6453    0.7811 H   0  0  0  0  0  0  0  0  0  0  0  0
   -0.1745   17.7431    0.3623 H   0  0  0  0  0  0  0  0  0  0  0  0
    0.4139   18.4656   -1.1508 H   0  0  0  0  0  0  0  0  0  0  0  0
   -1.3458   16.2226   -0.9555 H   0  0  0  0  0  0  0  0  0  0  0  0
   -0.4858   16.6779   -2.4238 H   0  0  0  0  0  0  0  0  0  0  0  0
    0.6044   15.2330    0.9973 H   0  0  0  0  0  0  0  0  0  0  0  0
   -0.9121   14.5612    0.3079 H   0  0  0  0  0  0  0  0  0  0  0  0
    0.5888   13.5744    0.3079 H   0  0  0  0  0  0  0  0  0  0  0  0
    0.6146   14.6741   -3.2264 H   0  0  0  0  0  0  0  0  0  0  0  0
   -1.6741   14.1487   -2.1658 H   0  0  0  0  0  0  0  0  0  0  0  0
   -0.9803   13.0951   -3.5070 H   0  0  0  0  0  0  0  0  0  0  0  0
   -2.1448   11.8269   -1.5133 H   0  0  0  0  0  0  0  0  0  0  0  0
    1.6732   12.2809   -0.2773 H   0  0  0  0  0  0  0  0  0  0  0  0
    1.8362   10.1591   -2.5046 H   0  0  0  0  0  0  0  0  0  0  0  0
    3.2194   10.8318   -1.5323 H   0  0  0  0  0  0  0  0  0  0  0  0
    2.5332    8.5847   -0.7550 H   0  0  0  0  0  0  0  0  0  0  0  0
    2.3023    9.8666    0.4977 H   0  0  0  0  0  0  0  0  0  0  0  0
    0.3888    8.4212    0.5144 H   0  0  0  0  0  0  0  0  0  0  0  0
   -0.3880    9.1280   -2.1000 H   0  0  0  0  0  0  0  0  0  0  0  0
   -0.5582   10.0732    2.1083 H   0  0  0  0  0  0  0  0  0  0  0  0
    0.8869   10.9783    1.5433 H   0  0  0  0  0  0  0  0  0  0  0  0
   -0.7255   11.7701    1.5433 H   0  0  0  0  0  0  0  0  0  0  0  0
   -2.2821    9.6958    0.9356 H   0  0  0  0  0  0  0  0  0  0  0  0
   -2.5315   10.5595   -0.6196 H   0  0  0  0  0  0  0  0  0  0  0  0
   -1.9586    8.8570   -0.6196 H   0  0  0  0  0  0  0  0  0  0  0  0
    1.9609   11.3444   -3.6486 H   0  0  0  0  0  0  0  0  0  0  0  0
    0.8013   12.5796   -4.2456 H   0  0  0  0  0  0  0  0  0  0  0  0
    2.5635   12.9279   -4.2456 H   0  0  0  0  0  0  0  0  0  0  0  0
    3.6802   12.8553   -1.5485 H   0  0  0  0  0  0  0  0  0  0  0  0
    3.3690   14.1056   -2.8805 H   0  0  0  0  0  0  0  0  0  0  0  0
    2.8331   14.3952    0.0884 H   0  0  0  0  0  0  0  0  0  0  0  0
    4.0288   15.2844   -0.9345 H   0  0  0  0  0  0  0  0  0  0  0  0
    2.9070   17.4029   -2.4987 H   0  0  0  0  0  0  0  0  0  0  0  0
    2.9670   15.7552   -3.2115 H   0  0  0  0  0  0  0  0  0  0  0  0
    1.4260   16.6783   -3.2115 H   0  0  0  0  0  0  0  0  0  0  0  0
  1  2  1  0
  2  3  1  0
  3  4  1  0
  4  5  1  0
  5  6  1  0
  6  7  1  0
  7  8  1  0
  7  9  1  0
  2 10  1  0
 10 11  1  0
 11 12  1  0
 12 13  1  0
 13 14  1  1
 13 15  1  0
 15 16  1  0
 16 17  1  0
 17 18  2  0
 18 19  1  0
 19 20  1  0
 20 21  1  0
 21 22  1  0
 22 23  1  0
 22 24  1  0
 24 25  1  0
 24 26  1  0
 19 27  1  0
 27 28  1  6
 27 29  1  0
 29 30  1  0
 30 31  1  0
 31 32  1  6
  7  5  1  0
 31 10  1  0
 31 13  1  0
 27 15  1  0
 24 18  1  0
  1 33  1  0
  1 34  1  0
  1 35  1  0
  2 36  1  6
  3 37  1  0
  3 38  1  0
  4 39  1  0
  4 40  1  0
  5 41  1  1
  8 42  1  0
  8 43  1  0
  8 44  1  0
  9 45  1  0
  9 46  1  0
  9 47  1  0
 10 48  1  1
 11 49  1  0
 11 50  1  0
 12 51  1  0
 12 52  1  0
 14 53  1  0
 14 54  1  0
 14 55  1  0
 15 56  1  6
 16 57  1  0
 16 58  1  0
 17 59  1  0
 19 60  1  1
 20 61  1  0
 20 62  1  0
 21 63  1  0
 21 64  1  0
 22 65  1  1
 23 66  1  0
 25 67  1  0
 25 68  1  0
 25 69  1  0
 26 70  1  0
 26 71  1  0
 26 72  1  0
 28 73  1  0
 28 74  1  0
 28 75  1  0
 29 76  1  0
 29 77  1  0
 30 78  1  0
 30 79  1  0
 32 80  1  0
 32 81  1  0
 32 82  1  0
M  END
>  <meeko>  (2) 
{"is_sidechain": [false], "intermolecular_energy": 2.731, "internal_energy": -0.839}

$$$$
EPH_relaxed_0001_pdb2pqr_Repair_3_r2_0001_out
     RDKit          3D

 82 86  0  0  0  0  0  0  0  0999 V2000
    0.4220   18.4970   -0.0790 C   0  0  0  0  0  0  0  0  0  0  0  0
    1.4900   17.4120   -0.2470 C   0  0  2  0  0  0  0  0  0  0  0  0
    2.7390   17.9360   -0.9830 C   0  0  0  0  0  0  0  0  0  0  0  0
    3.9600   18.1090   -0.0770 C   0  0  0  0  0  0  0  0  0  0  0  0
    3.5750   18.6020    1.2850 C   0  0  2  0  0  0  0  0  0  0  0  0
    3.7820   20.0050    1.4950 O   0  0  0  0  0  0  0  0  0  0  0  0
    4.5750   19.1200    2.3020 C   0  0  0  0  0  0  0  0  0  0  0  0
    6.0400   19.1690    2.0000 C   0  0  0  0  0  0  0  0  0  0  0  0
    4.1910   19.1160    3.7490 C   0  0  0  0  0  0  0  0  0  0  0  0
    0.9060   16.2190   -0.9940 C   0  0  1  0  0  0  0  0  0  0  0  0
    0.7260   16.4950   -2.5110 C   0  0  0  0  0  0  0  0  0  0  0  0
    1.0080   15.1590   -3.2450 C   0  0  0  0  0  0  0  0  0  0  0  0
    1.0130   14.0920   -2.1250 C   0  0  1  0  0  0  0  0  0  0  0  0
   -0.4930   13.7760   -1.8650 C   0  0  0  0  0  0  0  0  0  0  0  0
    1.8340   12.7920   -2.4120 C   0  0  2  0  0  0  0  0  0  0  0  0
    1.3360   11.9560   -3.6040 C   0  0  0  0  0  0  0  0  0  0  0  0
    0.3260   10.9080   -3.2710 C   0  0  0  0  0  0  0  0  0  0  0  0
    0.0480   10.4560   -2.0340 C   0  0  0  0  0  0  0  0  0  0  0  0
    0.8520   10.9380   -0.8190 C   0  0  1  0  0  0  0  0  0  0  0  0
    1.2500    9.7200    0.0550 C   0  0  0  0  0  0  0  0  0  0  0  0
    0.0490    8.8670    0.4520 C   0  0  0  0  0  0  0  0  0  0  0  0
   -0.6910    8.3590   -0.7830 C   0  0  2  0  0  0  0  0  0  0  0  0
    0.1550    7.4400   -1.4820 O   0  0  0  0  0  0  0  0  0  0  0  0
   -1.1330    9.4970   -1.7450 C   0  0  0  0  0  0  0  0  0  0  0  0
   -2.2750   10.3150   -1.0920 C   0  0  0  0  0  0  0  0  0  0  0  0
   -1.7400    8.8410   -3.0140 C   0  0  0  0  0  0  0  0  0  0  0  0
    2.0850   11.8890   -1.1370 C   0  0  1  0  0  0  0  0  0  0  0  0
    3.3530   11.0340   -1.4400 C   0  0  0  0  0  0  0  0  0  0  0  0
    2.4200   12.7420    0.1430 C   0  0  0  0  0  0  0  0  0  0  0  0
    1.6620   14.0730    0.3090 C   0  0  0  0  0  0  0  0  0  0  0  0
    1.7200   14.9010   -0.9780 C   0  0  2  0  0  0  0  0  0  0  0  0
    3.2220   15.2530   -1.2540 C   0  0  0  0  0  0  0  0  0  0  0  0
    0.2461   18.6757    0.9921 H   0  0  0  0  0  0  0  0  0  0  0  0
    0.7665   19.4273   -0.5542 H   0  0  0  0  0  0  0  0  0  0  0  0
   -0.5136   18.1672   -0.5542 H   0  0  0  0  0  0  0  0  0  0  0  0
    1.8070   17.1007    0.7593 H   0  0  0  0  0  0  0  0  0  0  0  0
    2.9965   17.2234   -1.7804 H   0  0  0  0  0  0  0  0  0  0  0  0
    2.4864   18.9321   -1.3754 H   0  0  0  0  0  0  0  0  0  0  0  0
    4.4679   17.1387    0.0256 H   0  0  0  0  0  0  0  0  0  0  0  0
    4.6245   18.8555   -0.5364 H   0  0  0  0  0  0  0  0  0  0  0  0
    2.7730   17.8524    1.3546 H   0  0  0  0  0  0  0  0  0  0  0  0
    6.6081   19.1880    2.9418 H   0  0  0  0  0  0  0  0  0  0  0  0
    6.3244   18.2799    1.4181 H   0  0  0  0  0  0  0  0  0  0  0  0
    6.2643   20.0752    1.4181 H   0  0  0  0  0  0  0  0  0  0  0  0
    5.0993   19.1255    4.3694 H   0  0  0  0  0  0  0  0  0  0  0  0
    3.5864   20.0079    3.9704 H   0  0  0  0  0  0  0  0  0  0  0  0
    3.6051   18.2117    3.9704 H   0  0  0  0  0  0  0  0  0  0  0  0
   -0.0301   16.0892   -0.4311 H   0  0  0  0  0  0  0  0  0  0  0  0
   -0.3015   16.8302   -2.7158 H   0  0  0  0  0  0  0  0  0  0  0  0
    1.4104   17.2855   -2.8526 H   0  0  0  0  0  0  0  0  0  0  0  0
    0.2185   14.9460   -3.9808 H   0  0  0  0  0  0  0  0  0  0  0  0
    1.9553   15.1818   -3.8037 H   0  0  0  0  0  0  0  0  0  0  0  0
   -0.6777   13.7372   -0.7813 H   0  0  0  0  0  0  0  0  0  0  0  0
   -1.1158   14.5630   -2.3152 H   0  0  0  0  0  0  0  0  0  0  0  0
   -0.7469   12.8050   -2.3152 H   0  0  0  0  0  0  0  0  0  0  0  0
    2.8121   13.1929   -2.7162 H   0  0  0  0  0  0  0  0  0  0  0  0
    0.8848   12.6425   -4.3356 H   0  0  0  0  0  0  0  0  0  0  0  0
    2.2161   11.4191   -3.9877 H   0  0  0  0  0  0  0  0  0  0  0  0
   -0.2382   10.4684   -4.1067 H   0  0  0  0  0  0  0  0  0  0  0  0
    0.1801   11.6000   -0.2530 H   0  0  0  0  0  0  0  0  0  0  0  0
    1.9548    9.0943   -0.5123 H   0  0  0  0  0  0  0  0  0  0  0  0
    1.7048   10.1066    0.9790 H   0  0  0  0  0  0  0  0  0  0  0  0
    0.3977    8.0066    1.0421 H   0  0  0  0  0  0  0  0  0  0  0  0
   -0.6406    9.4857    1.0450 H   0  0  0  0  0  0  0  0  0  0  0  0
   -1.6116    7.8671   -0.4359 H   0  0  0  0  0  0  0  0  0  0  0  0
    1.0230    7.8650   -1.5910 H   0  0  0  0  0  0  0  0  0  0  0  0
   -2.1899   10.2540    0.0030 H   0  0  0  0  0  0  0  0  0  0  0  0
   -2.2000   11.3661   -1.4077 H   0  0  0  0  0  0  0  0  0  0  0  0
   -3.2460    9.9057   -1.4077 H   0  0  0  0  0  0  0  0  0  0  0  0
   -2.4593    8.0637   -2.7166 H   0  0  0  0  0  0  0  0  0  0  0  0
   -2.2547    9.6072   -3.6124 H   0  0  0  0  0  0  0  0  0  0  0  0
   -0.9362    8.3872   -3.6124 H   0  0  0  0  0  0  0  0  0  0  0  0
    3.8183   10.7202   -0.4939 H   0  0  0  0  0  0  0  0  0  0  0  0
    3.0655   10.1446   -2.0199 H   0  0  0  0  0  0  0  0  0  0  0  0
    4.0698   11.6339   -2.0199 H   0  0  0  0  0  0  0  0  0  0  0  0
    2.1991   12.1212    1.0238 H   0  0  0  0  0  0  0  0  0  0  0  0
    3.4772   13.0249    0.0317 H   0  0  0  0  0  0  0  0  0  0  0  0
    0.6107   13.8604    0.5530 H   0  0  0  0  0  0  0  0  0  0  0  0
    2.1363   14.6482    1.1178 H   0  0  0  0  0  0  0  0  0  0  0  0
    3.7512   15.3770   -0.2977 H   0  0  0  0  0  0  0  0  0  0  0  0
    3.6894   14.4401   -1.8290 H   0  0  0  0  0  0  0  0  0  0  0  0
    3.2796   16.1890   -1.8290 H   0  0  0  0  0  0  0  0  0  0  0  0
  1  2  1  0
  2  3  1  0
  3  4  1  0
  4  5  1  0
  5  6  1  0
  6  7  1  0
  7  8  1  0
  7  9  1  0
  2 10  1  0
 10 11  1  0
 11 12  1  0
 12 13  1  0
 13 14  1  1
 13 15  1  0
 15 16  1  0
 16 17  1  0
 17 18  2  0
 18 19  1  0
 19 20  1  0
 20 21  1  0
 21 22  1  0
 22 23  1  0
 22 24  1  0
 24 25  1  0
 24 26  1  0
 19 27  1  0
 27 28  1  6
 27 29  1  0
 29 30  1  0
 30 31  1  0
 31 32  1  6
  7  5  1  0
 31 10  1  0
 31 13  1  0
 27 15  1  0
 24 18  1  0
  1 33  1  0
  1 34  1  0
  1 35  1  0
  2 36  1  1
  3 37  1  0
  3 38  1  0
  4 39  1  0
  4 40  1  0
  5 41  1  1
  8 42  1  0
  8 43  1  0
  8 44  1  0
  9 45  1  0
  9 46  1  0
  9 47  1  0
 10 48  1  1
 11 49  1  0
 11 50  1  0
 12 51  1  0
 12 52  1  0
 14 53  1  0
 14 54  1  0
 14 55  1  0
 15 56  1  6
 16 57  1  0
 16 58  1  0
 17 59  1  0
 19 60  1  1
 20 61  1  0
 20 62  1  0
 21 63  1  0
 21 64  1  0
 22 65  1  1
 23 66  1  0
 25 67  1  0
 25 68  1  0
 25 69  1  0
 26 70  1  0
 26 71  1  0
 26 72  1  0
 28 73  1  0
 28 74  1  0
 28 75  1  0
 29 76  1  0
 29 77  1  0
 30 78  1  0
 30 79  1  0
 32 80  1  0
 32 81  1  0
 32 82  1  0
M  END
>  <meeko>  (3) 
{"is_sidechain": [false], "intermolecular_energy": 2.731, "internal_energy": -0.839}

$$$$
EPH_relaxed_0001_pdb2pqr_Repair_3_r2_0001_out
     RDKit          3D

 82 86  0  0  0  0  0  0  0  0999 V2000
   -3.4300    9.3150    0.3960 C   0  0  0  0  0  0  0  0  0  0  0  0
   -2.5610    9.6710   -0.8130 C   0  0  2  0  0  0  0  0  0  0  0  0
   -1.8720    8.4310   -1.4180 C   0  0  0  0  0  0  0  0  0  0  0  0
   -2.7790    7.6110   -2.3400 C   0  0  0  0  0  0  0  0  0  0  0  0
   -4.2140    7.6800   -1.9100 C   0  0  2  0  0  0  0  0  0  0  0  0
   -4.7480    6.4480   -1.4080 O   0  0  0  0  0  0  0  0  0  0  0  0
   -5.3360    6.9470   -2.6210 C   0  0  0  0  0  0  0  0  0  0  0  0
   -5.0720    6.0920   -3.8210 C   0  0  0  0  0  0  0  0  0  0  0  0
   -6.7370    7.4460   -2.4510 C   0  0  0  0  0  0  0  0  0  0  0  0
   -1.5160   10.7060   -0.4160 C   0  0  1  0  0  0  0  0  0  0  0  0
   -0.4330   10.1280    0.5330 C   0  0  0  0  0  0  0  0  0  0  0  0
    0.9010   10.8300    0.1710 C   0  0  0  0  0  0  0  0  0  0  0  0
    0.4850   12.0140   -0.7330 C   0  0  1  0  0  0  0  0  0  0  0  0
    0.0200   13.1290    0.2550 C   0  0  0  0  0  0  0  0  0  0  0  0
    1.5720   12.5400   -1.7270 C   0  0  2  0  0  0  0  0  0  0  0  0
    2.8370   13.1130   -1.0660 C   0  0  0  0  0  0  0  0  0  0  0  0
    2.7980   14.5770   -0.7740 C   0  0  0  0  0  0  0  0  0  0  0  0
    1.9120   15.4520   -1.2850 C   0  0  0  0  0  0  0  0  0  0  0  0
    0.8800   15.0100   -2.3300 C   0  0  1  0  0  0  0  0  0  0  0  0
    0.8470   16.0370   -3.4920 C   0  0  0  0  0  0  0  0  0  0  0  0
    0.6090   17.4630   -3.0050 C   0  0  0  0  0  0  0  0  0  0  0  0
    1.6880   17.8870   -2.0120 C   0  0  2  0  0  0  0  0  0  0  0  0
    2.9400   17.9720   -2.7000 O   0  0  0  0  0  0  0  0  0  0  0  0
    1.8210   16.9210   -0.8020 C   0  0  0  0  0  0  0  0  0  0  0  0
    0.5770   17.0560    0.1110 C   0  0  0  0  0  0  0  0  0  0  0  0
    3.0360   17.3840    0.0470 C   0  0  0  0  0  0  0  0  0  0  0  0
    1.0130   13.5110   -2.8440 C   0  0  1  0  0  0  0  0  0  0  0  0
    2.0160   13.4440   -4.0350 C   0  0  0  0  0  0  0  0  0  0  0  0
   -0.3790   13.0370   -3.4080 C   0  0  0  0  0  0  0  0  0  0  0  0
   -1.3630   12.4160   -2.3980 C   0  0  0  0  0  0  0  0  0  0  0  0
   -0.6750   11.3400   -1.5520 C   0  0  2  0  0  0  0  0  0  0  0  0
   -0.2160   10.1940   -2.5170 C   0  0  0  0  0  0  0  0  0  0  0  0
   -2.8802    9.5402    1.3218 H   0  0  0  0  0  0  0  0  0  0  0  0
   -4.3576    9.9056    0.3675 H   0  0  0  0  0  0  0  0  0  0  0  0
   -3.6766    8.2434    0.3675 H   0  0  0  0  0  0  0  0  0  0  0  0
   -3.2236   10.0899   -1.5847 H   0  0  0  0  0  0  0  0  0  0  0  0
   -0.9997    8.7668   -1.9980 H   0  0  0  0  0  0  0  0  0  0  0  0
   -1.5918    7.7775   -0.5787 H   0  0  0  0  0  0  0  0  0  0  0  0
   -2.6944    8.0031   -3.3642 H   0  0  0  0  0  0  0  0  0  0  0  0
   -2.4567    6.5603   -2.2926 H   0  0  0  0  0  0  0  0  0  0  0  0
   -4.0967    8.7299   -1.6036 H   0  0  0  0  0  0  0  0  0  0  0  0
   -4.7621    5.0882   -3.4950 H   0  0  0  0  0  0  0  0  0  0  0  0
   -5.9881    6.0148   -4.4249 H   0  0  0  0  0  0  0  0  0  0  0  0
   -4.2718    6.5447   -4.4249 H   0  0  0  0  0  0  0  0  0  0  0  0
   -6.9692    7.5287   -1.3790 H   0  0  0  0  0  0  0  0  0  0  0  0
   -6.8343    8.4341   -2.9245 H   0  0  0  0  0  0  0  0  0  0  0  0
   -7.4370    6.7419   -2.9245 H   0  0  0  0  0  0  0  0  0  0  0  0
   -2.1715   11.4651    0.0356 H   0  0  0  0  0  0  0  0  0  0  0  0
   -0.6978   10.3351    1.5804 H   0  0  0  0  0  0  0  0  0  0  0  0
   -0.3488    9.0373    0.4178 H   0  0  0  0  0  0  0  0  0  0  0  0
    1.4076   11.1927    1.0775 H   0  0  0  0  0  0  0  0  0  0  0  0
    1.6077   10.1513   -0.3289 H   0  0  0  0  0  0  0  0  0  0  0  0
    0.1635   12.7850    1.2899 H   0  0  0  0  0  0  0  0  0  0  0  0
    0.6133   14.0397    0.0857 H   0  0  0  0  0  0  0  0  0  0  0  0
   -1.0446   13.3482    0.0857 H   0  0  0  0  0  0  0  0  0  0  0  0
    1.8920   11.6189   -2.2361 H   0  0  0  0  0  0  0  0  0  0  0  0
    2.9945   12.5812   -0.1161 H   0  0  0  0  0  0  0  0  0  0  0  0
    3.6508   12.9695   -1.7920 H   0  0  0  0  0  0  0  0  0  0  0  0
    3.5569   14.9735   -0.0835 H   0  0  0  0  0  0  0  0  0  0  0  0
   -0.0912   14.9999   -1.8135 H   0  0  0  0  0  0  0  0  0  0  0  0
    1.8104   16.0013   -4.0217 H   0  0  0  0  0  0  0  0  0  0  0  0
    0.0112   15.7660   -4.1538 H   0  0  0  0  0  0  0  0  0  0  0  0
    0.6252   18.1455   -3.8675 H   0  0  0  0  0  0  0  0  0  0  0  0
   -0.3679   17.5037   -2.5009 H   0  0  0  0  0  0  0  0  0  0  0  0
    1.3930   18.8641   -1.6018 H   0  0  0  0  0  0  0  0  0  0  0  0
    3.5310   18.5300   -2.1670 H   0  0  0  0  0  0  0  0  0  0  0  0
    0.8902   17.0220    1.1649 H   0  0  0  0  0  0  0  0  0  0  0  0
    0.0756   18.0138   -0.0918 H   0  0  0  0  0  0  0  0  0  0  0  0
   -0.1182   16.2280   -0.0918 H   0  0  0  0  0  0  0  0  0  0  0  0
    2.7930   17.2914    1.1158 H   0  0  0  0  0  0  0  0  0  0  0  0
    3.9076   16.7550   -0.1867 H   0  0  0  0  0  0  0  0  0  0  0  0
    3.2680   18.4336   -0.1867 H   0  0  0  0  0  0  0  0  0  0  0  0
    3.0427   13.3754   -3.6463 H   0  0  0  0  0  0  0  0  0  0  0  0
    1.7967   12.5585   -4.6497 H   0  0  0  0  0  0  0  0  0  0  0  0
    1.9165   14.3508   -4.6497 H   0  0  0  0  0  0  0  0  0  0  0  0
   -0.8714   13.9120   -3.8573 H   0  0  0  0  0  0  0  0  0  0  0  0
   -0.1427   12.2276   -4.1144 H   0  0  0  0  0  0  0  0  0  0  0  0
   -1.7440   13.2063   -1.7345 H   0  0  0  0  0  0  0  0  0  0  0  0
   -2.1888   11.9492   -2.9549 H   0  0  0  0  0  0  0  0  0  0  0  0
    0.1289    9.3329   -1.9257 H   0  0  0  0  0  0  0  0  0  0  0  0
   -1.0611    9.8883   -3.1514 H   0  0  0  0  0  0  0  0  0  0  0  0
    0.6064   10.5562   -3.1514 H   0  0  0  0  0  0  0  0  0  0  0  0
  1  2  1  0
  2  3  1  0
  3  4  1  0
  4  5  1  0
  5  6  1  0
  6  7  1  0
  7  8  1  0
  7  9  1  0
  2 10  1  0
 10 11  1  0
 11 12  1  0
 12 13  1  0
 13 14  1  1
 13 15  1  0
 15 16  1  0
 16 17  1  0
 17 18  2  0
 18 19  1  0
 19 20  1  0
 20 21  1  0
 21 22  1  0
 22 23  1  0
 22 24  1  0
 24 25  1  0
 24 26  1  0
 19 27  1  0
 27 28  1  6
 27 29  1  0
 29 30  1  0
 30 31  1  0
 31 32  1  6
  7  5  1  0
 31 10  1  0
 31 13  1  0
 27 15  1  0
 24 18  1  0
  1 33  1  0
  1 34  1  0
  1 35  1  0
  2 36  1  6
  3 37  1  0
  3 38  1  0
  4 39  1  0
  4 40  1  0
  5 41  1  1
  8 42  1  0
  8 43  1  0
  8 44  1  0
  9 45  1  0
  9 46  1  0
  9 47  1  0
 10 48  1  1
 11 49  1  0
 11 50  1  0
 12 51  1  0
 12 52  1  0
 14 53  1  0
 14 54  1  0
 14 55  1  0
 15 56  1  6
 16 57  1  0
 16 58  1  0
 17 59  1  0
 19 60  1  1
 20 61  1  0
 20 62  1  0
 21 63  1  0
 21 64  1  0
 22 65  1  1
 23 66  1  0
 25 67  1  0
 25 68  1  0
 25 69  1  0
 26 70  1  0
 26 71  1  0
 26 72  1  0
 28 73  1  0
 28 74  1  0
 28 75  1  0
 29 76  1  0
 29 77  1  0
 30 78  1  0
 30 79  1  0
 32 80  1  0
 32 81  1  0
 32 82  1  0
M  END
>  <meeko>  (4) 
{"is_sidechain": [false], "intermolecular_energy": 2.731, "internal_energy": -0.839}

$$$$
EPH_relaxed_0001_pdb2pqr_Repair_3_r2_0001_out
     RDKit          3D

 82 86  0  0  0  0  0  0  0  0999 V2000
    2.3580   17.9970   -2.6760 C   0  0  0  0  0  0  0  0  0  0  0  0
    1.0620   17.6140   -1.9560 C   0  0  2  0  0  0  0  0  0  0  0  0
    1.2150   17.6580   -0.4220 C   0  0  0  0  0  0  0  0  0  0  0  0
    0.8940   19.0240    0.1900 C   0  0  0  0  0  0  0  0  0  0  0  0
   -0.5580   19.1470    0.5400 C   0  0  2  0  0  0  0  0  0  0  0  0
   -1.4220   18.2460   -0.1640 O   0  0  0  0  0  0  0  0  0  0  0  0
   -1.6130   19.6450   -0.4300 C   0  0  0  0  0  0  0  0  0  0  0  0
   -1.2600   20.0530   -1.8260 C   0  0  0  0  0  0  0  0  0  0  0  0
   -2.8910   20.1950    0.1230 C   0  0  0  0  0  0  0  0  0  0  0  0
    0.6150   16.2250   -2.3950 C   0  0  1  0  0  0  0  0  0  0  0  0
    0.6870   16.0330   -3.9340 C   0  0  0  0  0  0  0  0  0  0  0  0
    1.0910   14.5570   -4.1820 C   0  0  0  0  0  0  0  0  0  0  0  0
    0.9150   13.8680   -2.8080 C   0  0  1  0  0  0  0  0  0  0  0  0
   -0.6120   13.5640   -2.7050 C   0  0  0  0  0  0  0  0  0  0  0  0
    1.7770   12.5870   -2.5620 C   0  0  2  0  0  0  0  0  0  0  0  0
    1.4870   11.4120   -3.5120 C   0  0  0  0  0  0  0  0  0  0  0  0
    0.4400   10.4570   -3.0440 C   0  0  0  0  0  0  0  0  0  0  0  0
   -0.0370   10.3730   -1.7880 C   0  0  0  0  0  0  0  0  0  0  0  0
    0.5530   11.2330   -0.6620 C   0  0  1  0  0  0  0  0  0  0  0  0
    0.8060   10.3480    0.5870 C   0  0  0  0  0  0  0  0  0  0  0  0
   -0.4410    9.5870    1.0270 C   0  0  0  0  0  0  0  0  0  0  0  0
   -0.9640    8.7000   -0.1000 C   0  0  2  0  0  0  0  0  0  0  0  0
   -0.0110    7.6630   -0.3510 O   0  0  0  0  0  0  0  0  0  0  0  0
   -1.2460    9.4810   -1.4140 C   0  0  0  0  0  0  0  0  0  0  0  0
   -2.4830   10.3930   -1.2230 C   0  0  0  0  0  0  0  0  0  0  0  0
   -1.6320    8.4490   -2.5090 C   0  0  0  0  0  0  0  0  0  0  0  0
    1.8180   12.1130   -1.0530 C   0  0  1  0  0  0  0  0  0  0  0  0
    3.1220   11.2750   -0.8840 C   0  0  0  0  0  0  0  0  0  0  0  0
    1.9330   13.3210   -0.0490 C   0  0  0  0  0  0  0  0  0  0  0  0
    1.1540   14.6000   -0.4090 C   0  0  0  0  0  0  0  0  0  0  0  0
    1.4200   15.0150   -1.8590 C   0  0  2  0  0  0  0  0  0  0  0  0
    2.9460   15.3490   -1.9880 C   0  0  0  0  0  0  0  0  0  0  0  0
    3.1360   18.2269   -1.9331 H   0  0  0  0  0  0  0  0  0  0  0  0
    2.6891   17.1583   -3.3061 H   0  0  0  0  0  0  0  0  0  0  0  0
    2.1800   18.8809   -3.3061 H   0  0  0  0  0  0  0  0  0  0  0  0
    0.2980   18.3554   -2.2329 H   0  0  0  0  0  0  0  0  0  0  0  0
    0.5349   16.9127    0.0163 H   0  0  0  0  0  0  0  0  0  0  0  0
    2.2709   17.4459   -0.1983 H   0  0  0  0  0  0  0  0  0  0  0  0
    1.4932   19.1552    1.1031 H   0  0  0  0  0  0  0  0  0  0  0  0
    1.1343   19.7980   -0.5537 H   0  0  0  0  0  0  0  0  0  0  0  0
   -0.3089   19.4363    1.5716 H   0  0  0  0  0  0  0  0  0  0  0  0
   -0.5406   20.8845   -1.7942 H   0  0  0  0  0  0  0  0  0  0  0  0
   -0.8108   19.1995   -2.3549 H   0  0  0  0  0  0  0  0  0  0  0  0
   -2.1692   20.3748   -2.3549 H   0  0  0  0  0  0  0  0  0  0  0  0
   -2.8521   20.1783    1.2222 H   0  0  0  0  0  0  0  0  0  0  0  0
   -3.0249   21.2304   -0.2234 H   0  0  0  0  0  0  0  0  0  0  0  0
   -3.7350   19.5804   -0.2234 H   0  0  0  0  0  0  0  0  0  0  0  0
   -0.4008   16.2170   -1.9729 H   0  0  0  0  0  0  0  0  0  0  0  0
   -0.2937   16.2387   -4.3877 H   0  0  0  0  0  0  0  0  0  0  0  0
    1.4156   16.7230   -4.3845 H   0  0  0  0  0  0  0  0  0  0  0  0
    0.4345   14.0959   -4.9346 H   0  0  0  0  0  0  0  0  0  0  0  0
    2.1174   14.4645   -4.5666 H   0  0  0  0  0  0  0  0  0  0  0  0
   -0.9037   13.5059   -1.6460 H   0  0  0  0  0  0  0  0  0  0  0  0
   -1.1798   14.3667   -3.1982 H   0  0  0  0  0  0  0  0  0  0  0  0
   -0.8290   12.6050   -3.1982 H   0  0  0  0  0  0  0  0  0  0  0  0
    2.7898   12.9331   -2.8158 H   0  0  0  0  0  0  0  0  0  0  0  0
    1.1610   11.8276   -4.4769 H   0  0  0  0  0  0  0  0  0  0  0  0
    2.4205   10.8335   -3.5741 H   0  0  0  0  0  0  0  0  0  0  0  0
    0.0227    9.7630   -3.7884 H   0  0  0  0  0  0  0  0  0  0  0  0
   -0.2056   11.9954   -0.4314 H   0  0  0  0  0  0  0  0  0  0  0  0
    1.5972    9.6215    0.3500 H   0  0  0  0  0  0  0  0  0  0  0  0
    1.1006   11.0123    1.4128 H   0  0  0  0  0  0  0  0  0  0  0  0
   -0.1917    8.9579    1.8942 H   0  0  0  0  0  0  0  0  0  0  0  0
   -1.2217   10.3151    1.2922 H   0  0  0  0  0  0  0  0  0  0  0  0
   -1.9271    8.2825    0.2289 H   0  0  0  0  0  0  0  0  0  0  0  0
    0.7900    7.8700    0.1610 H   0  0  0  0  0  0  0  0  0  0  0  0
   -2.6729   10.5330   -0.1486 H   0  0  0  0  0  0  0  0  0  0  0  0
   -2.2944   11.3698   -1.6924 H   0  0  0  0  0  0  0  0  0  0  0  0
   -3.3603    9.9240   -1.6924 H   0  0  0  0  0  0  0  0  0  0  0  0
   -1.9792    7.5207   -2.0319 H   0  0  0  0  0  0  0  0  0  0  0  0
   -2.4363    8.8624   -3.1353 H   0  0  0  0  0  0  0  0  0  0  0  0
   -0.7538    8.2331   -3.1353 H   0  0  0  0  0  0  0  0  0  0  0  0
    3.3341   11.1387    0.1867 H   0  0  0  0  0  0  0  0  0  0  0  0
    2.9904   10.2920   -1.3597 H   0  0  0  0  0  0  0  0  0  0  0  0
    3.9615   11.8031   -1.3597 H   0  0  0  0  0  0  0  0  0  0  0  0
    1.5707   12.9753    0.9304 H   0  0  0  0  0  0  0  0  0  0  0  0
    2.9931   13.6138   -0.0714 H   0  0  0  0  0  0  0  0  0  0  0  0
    0.0776   14.4139   -0.2798 H   0  0  0  0  0  0  0  0  0  0  0  0
    1.4872   15.4116    0.2545 H   0  0  0  0  0  0  0  0  0  0  0  0
    3.3863   15.4454   -0.9846 H   0  0  0  0  0  0  0  0  0  0  0  0
    3.4533   14.5406   -2.5350 H   0  0  0  0  0  0  0  0  0  0  0  0
    3.0693   16.2954   -2.5350 H   0  0  0  0  0  0  0  0  0  0  0  0
  1  2  1  0
  2  3  1  0
  3  4  1  0
  4  5  1  0
  5  6  1  0
  6  7  1  0
  7  8  1  0
  7  9  1  0
  2 10  1  0
 10 11  1  0
 11 12  1  0
 12 13  1  0
 13 14  1  1
 13 15  1  0
 15 16  1  0
 16 17  1  0
 17 18  2  0
 18 19  1  0
 19 20  1  0
 20 21  1  0
 21 22  1  0
 22 23  1  0
 22 24  1  0
 24 25  1  0
 24 26  1  0
 19 27  1  0
 27 28  1  6
 27 29  1  0
 29 30  1  0
 30 31  1  0
 31 32  1  1
  7  5  1  0
 31 10  1  0
 31 13  1  0
 27 15  1  0
 24 18  1  0
  1 33  1  0
  1 34  1  0
  1 35  1  0
  2 36  1  1
  3 37  1  0
  3 38  1  0
  4 39  1  0
  4 40  1  0
  5 41  1  1
  8 42  1  0
  8 43  1  0
  8 44  1  0
  9 45  1  0
  9 46  1  0
  9 47  1  0
 10 48  1  1
 11 49  1  0
 11 50  1  0
 12 51  1  0
 12 52  1  0
 14 53  1  0
 14 54  1  0
 14 55  1  0
 15 56  1  6
 16 57  1  0
 16 58  1  0
 17 59  1  0
 19 60  1  1
 20 61  1  0
 20 62  1  0
 21 63  1  0
 21 64  1  0
 22 65  1  1
 23 66  1  0
 25 67  1  0
 25 68  1  0
 25 69  1  0
 26 70  1  0
 26 71  1  0
 26 72  1  0
 28 73  1  0
 28 74  1  0
 28 75  1  0
 29 76  1  0
 29 77  1  0
 30 78  1  0
 30 79  1  0
 32 80  1  0
 32 81  1  0
 32 82  1  0
M  END
>  <meeko>  (5) 
{"is_sidechain": [false], "intermolecular_energy": 2.731, "internal_energy": -0.839}

$$$$
EPH_relaxed_0001_pdb2pqr_Repair_3_r2_0001_out
     RDKit          3D

 82 86  0  0  0  0  0  0  0  0999 V2000
    3.8160   17.5710    0.3300 C   0  0  0  0  0  0  0  0  0  0  0  0
    2.7950   17.8720   -0.7700 C   0  0  2  0  0  0  0  0  0  0  0  0
    2.1380   19.2550   -0.5910 C   0  0  0  0  0  0  0  0  0  0  0  0
    1.2650   19.3650    0.6620 C   0  0  0  0  0  0  0  0  0  0  0  0
   -0.0140   20.0940    0.3840 C   0  0  2  0  0  0  0  0  0  0  0  0
   -0.9020   20.1940    1.5050 O   0  0  0  0  0  0  0  0  0  0  0  0
   -1.3760   19.4260    0.3880 C   0  0  0  0  0  0  0  0  0  0  0  0
   -1.5280   17.9650    0.6740 C   0  0  0  0  0  0  0  0  0  0  0  0
   -2.4960   20.0790   -0.3610 C   0  0  0  0  0  0  0  0  0  0  0  0
    1.7240   16.7870   -0.7960 C   0  0  1  0  0  0  0  0  0  0  0  0
    0.3930   17.2750   -1.4270 C   0  0  0  0  0  0  0  0  0  0  0  0
   -0.2120   16.0670   -2.1870 C   0  0  0  0  0  0  0  0  0  0  0  0
    0.6070   14.8490   -1.6980 C   0  0  1  0  0  0  0  0  0  0  0  0
   -0.0270   14.4650   -0.3240 C   0  0  0  0  0  0  0  0  0  0  0  0
    0.6710   13.6240   -2.6670 C   0  0  2  0  0  0  0  0  0  0  0  0
   -0.6840   12.9590   -2.9670 C   0  0  0  0  0  0  0  0  0  0  0  0
   -1.0680   11.8510   -2.0440 C   0  0  0  0  0  0  0  0  0  0  0  0
   -0.2380   11.2170   -1.1940 C   0  0  0  0  0  0  0  0  0  0  0  0
    1.2630   11.5360   -1.1740 C   0  0  1  0  0  0  0  0  0  0  0  0
    2.0730   10.2140   -1.1610 C   0  0  0  0  0  0  0  0  0  0  0  0
    1.6590    9.2850   -0.0230 C   0  0  0  0  0  0  0  0  0  0  0  0
    0.1740    8.9440   -0.1110 C   0  0  2  0  0  0  0  0  0  0  0  0
   -0.0500    8.1570   -1.2850 O   0  0  0  0  0  0  0  0  0  0  0  0
   -0.7420   10.1990   -0.1420 C   0  0  0  0  0  0  0  0  0  0  0  0
   -0.7280   10.8880    1.2460 C   0  0  0  0  0  0  0  0  0  0  0  0
   -2.2010    9.7210   -0.3740 C   0  0  0  0  0  0  0  0  0  0  0  0
    1.7700   12.5520   -2.2860 C   0  0  1  0  0  0  0  0  0  0  0  0
    2.1120   11.7790   -3.5970 C   0  0  0  0  0  0  0  0  0  0  0  0
    3.1120   13.2170   -1.8000 C   0  0  0  0  0  0  0  0  0  0  0  0
    2.9860   14.4930   -0.9450 C   0  0  0  0  0  0  0  0  0  0  0  0
    2.0350   15.5000   -1.6000 C   0  0  2  0  0  0  0  0  0  0  0  0
    2.6590   15.9220   -2.9740 C   0  0  0  0  0  0  0  0  0  0  0  0
    3.3457   17.7096    1.3147 H   0  0  0  0  0  0  0  0  0  0  0  0
    4.1640   16.5320    0.2329 H   0  0  0  0  0  0  0  0  0  0  0  0
    4.6720   18.2550    0.2329 H   0  0  0  0  0  0  0  0  0  0  0  0
    3.3357   17.8850   -1.7279 H   0  0  0  0  0  0  0  0  0  0  0  0
    2.9338   20.0117   -0.5271 H   0  0  0  0  0  0  0  0  0  0  0  0
    1.4780   19.4115   -1.4570 H   0  0  0  0  0  0  0  0  0  0  0  0
    1.0276   18.3527    1.0210 H   0  0  0  0  0  0  0  0  0  0  0  0
    1.8245   19.9314    1.4211 H   0  0  0  0  0  0  0  0  0  0  0  0
    0.4877   20.7422   -0.3496 H   0  0  0  0  0  0  0  0  0  0  0  0
   -1.5447   17.8042    1.7621 H   0  0  0  0  0  0  0  0  0  0  0  0
   -2.4688   17.6014    0.2351 H   0  0  0  0  0  0  0  0  0  0  0  0
   -0.6822   17.4155    0.2351 H   0  0  0  0  0  0  0  0  0  0  0  0
   -3.2185   20.5002    0.3536 H   0  0  0  0  0  0  0  0  0  0  0  0
   -2.0938   20.8842   -0.9934 H   0  0  0  0  0  0  0  0  0  0  0  0
   -2.9986   19.3324   -0.9934 H   0  0  0  0  0  0  0  0  0  0  0  0
    1.6703   16.5562    0.2782 H   0  0  0  0  0  0  0  0  0  0  0  0
   -0.2979   17.6119   -0.6402 H   0  0  0  0  0  0  0  0  0  0  0  0
    0.5659   18.1224   -2.1067 H   0  0  0  0  0  0  0  0  0  0  0  0
   -1.2764   15.9448   -1.9376 H   0  0  0  0  0  0  0  0  0  0  0  0
   -0.1614   16.1929   -3.2786 H   0  0  0  0  0  0  0  0  0  0  0  0
    0.6048   14.8477    0.4911 H   0  0  0  0  0  0  0  0  0  0  0  0
   -1.0316   14.9066   -0.2475 H   0  0  0  0  0  0  0  0  0  0  0  0
   -0.1010   13.3702   -0.2475 H   0  0  0  0  0  0  0  0  0  0  0  0
    0.9926   14.0868   -3.6117 H   0  0  0  0  0  0  0  0  0  0  0  0
   -1.4628   13.7338   -2.9107 H   0  0  0  0  0  0  0  0  0  0  0  0
   -0.5862   12.5047   -3.9640 H   0  0  0  0  0  0  0  0  0  0  0  0
   -2.1183   11.5244   -2.0593 H   0  0  0  0  0  0  0  0  0  0  0  0
    1.4437   12.0929   -0.2428 H   0  0  0  0  0  0  0  0  0  0  0  0
    1.9136    9.6934   -2.1168 H   0  0  0  0  0  0  0  0  0  0  0  0
    3.1318   10.4726   -1.0124 H   0  0  0  0  0  0  0  0  0  0  0  0
    2.2459    8.3567   -0.0843 H   0  0  0  0  0  0  0  0  0  0  0  0
    1.8462    9.7956    0.9332 H   0  0  0  0  0  0  0  0  0  0  0  0
   -0.0899    8.3848    0.7988 H   0  0  0  0  0  0  0  0  0  0  0  0
    0.7450    8.2230   -1.8400 H   0  0  0  0  0  0  0  0  0  0  0  0
   -0.7436   10.1223    2.0356 H   0  0  0  0  0  0  0  0  0  0  0  0
    0.1827   11.4971    1.3438 H   0  0  0  0  0  0  0  0  0  0  0  0
   -1.6132   11.5336    1.3438 H   0  0  0  0  0  0  0  0  0  0  0  0
   -2.6928    9.5599    0.5967 H   0  0  0  0  0  0  0  0  0  0  0  0
   -2.7515   10.4858   -0.9415 H   0  0  0  0  0  0  0  0  0  0  0  0
   -2.1923    8.7787   -0.9415 H   0  0  0  0  0  0  0  0  0  0  0  0
    2.5451   10.8002   -3.3432 H   0  0  0  0  0  0  0  0  0  0  0  0
    1.1947   11.6325   -4.1862 H   0  0  0  0  0  0  0  0  0  0  0  0
    2.8374   12.3592   -4.1862 H   0  0  0  0  0  0  0  0  0  0  0  0
    3.6568   12.4698   -1.2043 H   0  0  0  0  0  0  0  0  0  0  0  0
    3.6242   13.5364   -2.7196 H   0  0  0  0  0  0  0  0  0  0  0  0
    2.5969   14.2238    0.0480 H   0  0  0  0  0  0  0  0  0  0  0  0
    3.9801   14.9556   -0.8564 H   0  0  0  0  0  0  0  0  0  0  0  0
    3.5583   16.5302   -2.7969 H   0  0  0  0  0  0  0  0  0  0  0  0
    2.9315   15.0220   -3.5448 H   0  0  0  0  0  0  0  0  0  0  0  0
    1.9252   16.5100   -3.5448 H   0  0  0  0  0  0  0  0  0  0  0  0
  1  2  1  0
  2  3  1  0
  3  4  1  0
  4  5  1  0
  5  6  1  0
  6  7  1  0
  7  8  1  0
  7  9  1  0
  2 10  1  0
 10 11  1  0
 11 12  1  0
 12 13  1  0
 13 14  1  1
 13 15  1  0
 15 16  1  0
 16 17  1  0
 17 18  2  0
 18 19  1  0
 19 20  1  0
 20 21  1  0
 21 22  1  0
 22 23  1  0
 22 24  1  0
 24 25  1  0
 24 26  1  0
 19 27  1  0
 27 28  1  6
 27 29  1  0
 29 30  1  0
 30 31  1  0
 31 32  1  6
  7  5  1  0
 31 10  1  0
 31 13  1  0
 27 15  1  0
 24 18  1  0
  1 33  1  0
  1 34  1  0
  1 35  1  0
  2 36  1  6
  3 37  1  0
  3 38  1  0
  4 39  1  0
  4 40  1  0
  5 41  1  6
  8 42  1  0
  8 43  1  0
  8 44  1  0
  9 45  1  0
  9 46  1  0
  9 47  1  0
 10 48  1  1
 11 49  1  0
 11 50  1  0
 12 51  1  0
 12 52  1  0
 14 53  1  0
 14 54  1  0
 14 55  1  0
 15 56  1  6
 16 57  1  0
 16 58  1  0
 17 59  1  0
 19 60  1  1
 20 61  1  0
 20 62  1  0
 21 63  1  0
 21 64  1  0
 22 65  1  1
 23 66  1  0
 25 67  1  0
 25 68  1  0
 25 69  1  0
 26 70  1  0
 26 71  1  0
 26 72  1  0
 28 73  1  0
 28 74  1  0
 28 75  1  0
 29 76  1  0
 29 77  1  0
 30 78  1  0
 30 79  1  0
 32 80  1  0
 32 81  1  0
 32 82  1  0
M  END
>  <meeko>  (6) 
{"is_sidechain": [false], "intermolecular_energy": 2.731, "internal_energy": -0.839}

$$$$
EPH_relaxed_0001_pdb2pqr_Repair_3_r2_0001_out
     RDKit          3D

 82 86  0  0  0  0  0  0  0  0999 V2000
    3.6010   17.5530    0.7760 C   0  0  0  0  0  0  0  0  0  0  0  0
    3.3850   16.7480   -0.5090 C   0  0  2  0  0  0  0  0  0  0  0  0
    3.1420   17.6570   -1.7300 C   0  0  0  0  0  0  0  0  0  0  0  0
    2.4550   18.9820   -1.3840 C   0  0  0  0  0  0  0  0  0  0  0  0
    0.9790   18.9240   -1.6360 C   0  0  2  0  0  0  0  0  0  0  0  0
    0.3640   20.1940   -1.8840 O   0  0  0  0  0  0  0  0  0  0  0  0
   -0.0550   19.5090   -0.6920 C   0  0  0  0  0  0  0  0  0  0  0  0
    0.3460   20.1940    0.5760 C   0  0  0  0  0  0  0  0  0  0  0  0
   -1.4570   18.9900   -0.7560 C   0  0  0  0  0  0  0  0  0  0  0  0
    2.2130   15.7900   -0.3310 C   0  0  1  0  0  0  0  0  0  0  0  0
    0.8640   16.5280   -0.1250 C   0  0  0  0  0  0  0  0  0  0  0  0
   -0.2260   15.6690   -0.8160 C   0  0  0  0  0  0  0  0  0  0  0  0
    0.4670   14.3160   -1.1030 C   0  0  1  0  0  0  0  0  0  0  0  0
    0.4030   13.5380    0.2480 C   0  0  0  0  0  0  0  0  0  0  0  0
   -0.1210   13.4750   -2.2830 C   0  0  2  0  0  0  0  0  0  0  0  0
   -1.5780   13.0180   -2.0950 C   0  0  0  0  0  0  0  0  0  0  0  0
   -1.7490   11.6900   -1.4330 C   0  0  0  0  0  0  0  0  0  0  0  0
   -0.7810   10.7700   -1.2640 C   0  0  0  0  0  0  0  0  0  0  0  0
    0.6210   10.9850   -1.8490 C   0  0  1  0  0  0  0  0  0  0  0  0
    1.0880    9.6900   -2.5640 C   0  0  0  0  0  0  0  0  0  0  0  0
    1.0140    8.4630   -1.6600 C   0  0  0  0  0  0  0  0  0  0  0  0
   -0.4070    8.2490   -1.1450 C   0  0  2  0  0  0  0  0  0  0  0  0
   -1.2490    7.9030   -2.2480 O   0  0  0  0  0  0  0  0  0  0  0  0
   -0.9870    9.4920   -0.4140 C   0  0  0  0  0  0  0  0  0  0  0  0
   -0.2600    9.6860    0.9400 C   0  0  0  0  0  0  0  0  0  0  0  0
   -2.4720    9.1940   -0.0710 C   0  0  0  0  0  0  0  0  0  0  0  0
    0.8050   12.2800   -2.7510 C   0  0  1  0  0  0  0  0  0  0  0  0
    0.4090   11.9620   -4.2260 C   0  0  0  0  0  0  0  0  0  0  0  0
    2.3280   12.6780   -2.7760 C   0  0  0  0  0  0  0  0  0  0  0  0
    2.8220   13.6070   -1.6520 C   0  0  0  0  0  0  0  0  0  0  0  0
    1.9020   14.8220   -1.5010 C   0  0  2  0  0  0  0  0  0  0  0  0
    1.9630   15.6380   -2.8370 C   0  0  0  0  0  0  0  0  0  0  0  0
    3.4272   16.9053    1.6480 H   0  0  0  0  0  0  0  0  0  0  0  0
    4.6329   17.9331    0.8014 H   0  0  0  0  0  0  0  0  0  0  0  0
    2.8980   18.3987    0.8014 H   0  0  0  0  0  0  0  0  0  0  0  0
    4.3057   16.1775   -0.7008 H   0  0  0  0  0  0  0  0  0  0  0  0
    4.1133   17.8805   -2.1954 H   0  0  0  0  0  0  0  0  0  0  0  0
    2.4677   17.1124   -2.4073 H   0  0  0  0  0  0  0  0  0  0  0  0
    2.6265   19.2053   -0.3206 H   0  0  0  0  0  0  0  0  0  0  0  0
    2.8816   19.7670   -2.0257 H   0  0  0  0  0  0  0  0  0  0  0  0
    1.0741   17.9325   -2.1029 H   0  0  0  0  0  0  0  0  0  0  0  0
    0.0002   19.6033    1.4371 H   0  0  0  0  0  0  0  0  0  0  0  0
    1.4414   20.2875    0.6117 H   0  0  0  0  0  0  0  0  0  0  0  0
   -0.1088   21.1950    0.6117 H   0  0  0  0  0  0  0  0  0  0  0  0
   -1.8421   18.8474    0.2645 H   0  0  0  0  0  0  0  0  0  0  0  0
   -2.0916   19.7128   -1.2898 H   0  0  0  0  0  0  0  0  0  0  0  0
   -1.4679   18.0282   -1.2898 H   0  0  0  0  0  0  0  0  0  0  0  0
    2.5689   15.2232    0.5419 H   0  0  0  0  0  0  0  0  0  0  0  0
    0.6455   16.6251    0.9487 H   0  0  0  0  0  0  0  0  0  0  0  0
    0.8986   17.5408   -0.5527 H   0  0  0  0  0  0  0  0  0  0  0  0
   -1.0902   15.5291   -0.1500 H   0  0  0  0  0  0  0  0  0  0  0  0
   -0.6122   16.1422   -1.7309 H   0  0  0  0  0  0  0  0  0  0  0  0
    0.4616   14.2501    1.0843 H   0  0  0  0  0  0  0  0  0  0  0  0
   -0.5440   12.9813    0.3061 H   0  0  0  0  0  0  0  0  0  0  0  0
    1.2463   12.8341    0.3061 H   0  0  0  0  0  0  0  0  0  0  0  0
   -0.1410   14.2040   -3.1065 H   0  0  0  0  0  0  0  0  0  0  0  0
   -2.0946   13.7720   -1.4830 H   0  0  0  0  0  0  0  0  0  0  0  0
   -1.9964   12.9102   -3.1066 H   0  0  0  0  0  0  0  0  0  0  0  0
   -2.7506   11.4429   -1.0513 H   0  0  0  0  0  0  0  0  0  0  0  0
    1.2783   11.1965   -0.9927 H   0  0  0  0  0  0  0  0  0  0  0  0
    0.4464    9.5207   -3.4414 H   0  0  0  0  0  0  0  0  0  0  0  0
    2.1403    9.8290   -2.8526 H   0  0  0  0  0  0  0  0  0  0  0  0
    1.3274    7.5762   -2.2305 H   0  0  0  0  0  0  0  0  0  0  0  0
    1.6793    8.6213   -0.7984 H   0  0  0  0  0  0  0  0  0  0  0  0
   -0.3709    7.4377   -0.4031 H   0  0  0  0  0  0  0  0  0  0  0  0
   -1.1370    6.9520   -2.4170 H   0  0  0  0  0  0  0  0  0  0  0  0
   -0.9638    9.4982    1.7643 H   0  0  0  0  0  0  0  0  0  0  0  0
    0.5816    8.9810    1.0086 H   0  0  0  0  0  0  0  0  0  0  0  0
    0.1185   10.7166    1.0086 H   0  0  0  0  0  0  0  0  0  0  0  0
   -2.5980    9.1687    1.0215 H   0  0  0  0  0  0  0  0  0  0  0  0
   -3.1116    9.9817   -0.4958 H   0  0  0  0  0  0  0  0  0  0  0  0
   -2.7582    8.2205   -0.4958 H   0  0  0  0  0  0  0  0  0  0  0  0
   -0.4487   11.2733   -4.2350 H   0  0  0  0  0  0  0  0  0  0  0  0
    0.1359   12.8945   -4.7415 H   0  0  0  0  0  0  0  0  0  0  0  0
    1.2606   11.4939   -4.7415 H   0  0  0  0  0  0  0  0  0  0  0  0
    2.9154   11.7495   -2.7224 H   0  0  0  0  0  0  0  0  0  0  0  0
    2.4594   13.2542   -3.7038 H   0  0  0  0  0  0  0  0  0  0  0  0
    2.8386   13.0483   -0.7046 H   0  0  0  0  0  0  0  0  0  0  0  0
    3.8315   13.9611   -1.9079 H   0  0  0  0  0  0  0  0  0  0  0  0
    2.0432   16.7109   -2.6080 H   0  0  0  0  0  0  0  0  0  0  0  0
    2.8400   15.3211   -3.4205 H   0  0  0  0  0  0  0  0  0  0  0  0
    1.0487   15.4550   -3.4205 H   0  0  0  0  0  0  0  0  0  0  0  0
  1  2  1  0
  2  3  1  0
  3  4  1  0
  4  5  1  0
  5  6  1  0
  6  7  1  0
  7  8  1  0
  7  9  1  0
  2 10  1  0
 10 11  1  0
 11 12  1  0
 12 13  1  0
 13 14  1  1
 13 15  1  0
 15 16  1  0
 16 17  1  0
 17 18  2  0
 18 19  1  0
 19 20  1  0
 20 21  1  0
 21 22  1  0
 22 23  1  0
 22 24  1  0
 24 25  1  0
 24 26  1  0
 19 27  1  0
 27 28  1  6
 27 29  1  0
 29 30  1  0
 30 31  1  0
 31 32  1  6
  7  5  1  0
 31 10  1  0
 31 13  1  0
 27 15  1  0
 24 18  1  0
  1 33  1  0
  1 34  1  0
  1 35  1  0
  2 36  1  6
  3 37  1  0
  3 38  1  0
  4 39  1  0
  4 40  1  0
  5 41  1  6
  8 42  1  0
  8 43  1  0
  8 44  1  0
  9 45  1  0
  9 46  1  0
  9 47  1  0
 10 48  1  1
 11 49  1  0
 11 50  1  0
 12 51  1  0
 12 52  1  0
 14 53  1  0
 14 54  1  0
 14 55  1  0
 15 56  1  6
 16 57  1  0
 16 58  1  0
 17 59  1  0
 19 60  1  1
 20 61  1  0
 20 62  1  0
 21 63  1  0
 21 64  1  0
 22 65  1  1
 23 66  1  0
 25 67  1  0
 25 68  1  0
 25 69  1  0
 26 70  1  0
 26 71  1  0
 26 72  1  0
 28 73  1  0
 28 74  1  0
 28 75  1  0
 29 76  1  0
 29 77  1  0
 30 78  1  0
 30 79  1  0
 32 80  1  0
 32 81  1  0
 32 82  1  0
M  END
>  <meeko>  (7) 
{"is_sidechain": [false], "intermolecular_energy": 2.731, "internal_energy": -0.839}

$$$$
EPH_relaxed_0001_pdb2pqr_Repair_3_r2_0001_out
     RDKit          3D

 82 86  0  0  0  0  0  0  0  0999 V2000
   -5.1660    5.7930   -1.6890 C   0  0  0  0  0  0  0  0  0  0  0  0
   -5.4470    7.2960   -1.7680 C   0  0  2  0  0  0  0  0  0  0  0  0
   -5.2190    8.0010   -0.4160 C   0  0  0  0  0  0  0  0  0  0  0  0
   -4.1950    9.1370   -0.4790 C   0  0  0  0  0  0  0  0  0  0  0  0
   -2.8220    8.6290   -0.8010 C   0  0  2  0  0  0  0  0  0  0  0  0
   -1.8170    8.9650    0.1650 O   0  0  0  0  0  0  0  0  0  0  0  0
   -1.6540    9.5340   -1.1440 C   0  0  0  0  0  0  0  0  0  0  0  0
   -1.8050   11.0220   -1.1840 C   0  0  0  0  0  0  0  0  0  0  0  0
   -0.5050    8.9590   -1.9130 C   0  0  0  0  0  0  0  0  0  0  0  0
   -6.8740    7.5340   -2.2460 C   0  0  1  0  0  0  0  0  0  0  0  0
   -7.1710    6.8490   -3.6060 C   0  0  0  0  0  0  0  0  0  0  0  0
   -8.6490    6.3850   -3.5600 C   0  0  0  0  0  0  0  0  0  0  0  0
   -9.2450    7.1020   -2.3260 C   0  0  1  0  0  0  0  0  0  0  0  0
   -9.5820    8.5430   -2.8240 C   0  0  0  0  0  0  0  0  0  0  0  0
  -10.4830    6.4180   -1.6600 C   0  0  2  0  0  0  0  0  0  0  0  0
  -11.7280    6.3060   -2.5570 C   0  0  0  0  0  0  0  0  0  0  0  0
  -12.6760    7.4560   -2.4790 C   0  0  0  0  0  0  0  0  0  0  0  0
  -12.6840    8.3990   -1.5190 C   0  0  0  0  0  0  0  0  0  0  0  0
  -11.7330    8.3090   -0.3180 C   0  0  1  0  0  0  0  0  0  0  0  0
  -12.5220    8.5850    0.9890 C   0  0  0  0  0  0  0  0  0  0  0  0
  -13.2830    9.9070    0.9450 C   0  0  0  0  0  0  0  0  0  0  0  0
  -14.2600    9.9350   -0.2280 C   0  0  2  0  0  0  0  0  0  0  0  0
  -15.2860    8.9650    0.0040 O   0  0  0  0  0  0  0  0  0  0  0  0
  -13.5800    9.6600   -1.5980 C   0  0  0  0  0  0  0  0  0  0  0  0
  -12.6900   10.8650   -1.9890 C   0  0  0  0  0  0  0  0  0  0  0  0
  -14.6950    9.5770   -2.6760 C   0  0  0  0  0  0  0  0  0  0  0  0
  -10.8500    6.9910   -0.2310 C   0  0  1  0  0  0  0  0  0  0  0  0
  -11.6400    5.8690    0.5090 C   0  0  0  0  0  0  0  0  0  0  0  0
   -9.5720    7.2850    0.6410 C   0  0  0  0  0  0  0  0  0  0  0  0
   -8.3420    7.8480   -0.0960 C   0  0  0  0  0  0  0  0  0  0  0  0
   -8.0220    7.0180   -1.3420 C   0  0  2  0  0  0  0  0  0  0  0  0
   -7.6580    5.5690   -0.8720 C   0  0  0  0  0  0  0  0  0  0  0  0
   -5.1085    5.4857   -0.6344 H   0  0  0  0  0  0  0  0  0  0  0  0
   -5.9766    5.2417   -2.1879 H   0  0  0  0  0  0  0  0  0  0  0  0
   -4.2109    5.5718   -2.1879 H   0  0  0  0  0  0  0  0  0  0  0  0
   -4.7373    7.7278   -2.4890 H   0  0  0  0  0  0  0  0  0  0  0  0
   -6.1786    8.4170   -0.0752 H   0  0  0  0  0  0  0  0  0  0  0  0
   -4.8190    7.2459    0.2767 H   0  0  0  0  0  0  0  0  0  0  0  0
   -4.5024    9.8512   -1.2571 H   0  0  0  0  0  0  0  0  0  0  0  0
   -4.1587    9.6208    0.5082 H   0  0  0  0  0  0  0  0  0  0  0  0
   -3.2417    7.7442   -1.3020 H   0  0  0  0  0  0  0  0  0  0  0  0
   -1.8448   11.4142   -0.1571 H   0  0  0  0  0  0  0  0  0  0  0  0
   -0.9470   11.4635   -1.7122 H   0  0  0  0  0  0  0  0  0  0  0  0
   -2.7342   11.2822   -1.7122 H   0  0  0  0  0  0  0  0  0  0  0  0
    0.2526    8.5798   -1.2114 H   0  0  0  0  0  0  0  0  0  0  0  0
   -0.8637    8.1342   -2.5462 H   0  0  0  0  0  0  0  0  0  0  0  0
   -0.0598    9.7406   -2.5462 H   0  0  0  0  0  0  0  0  0  0  0  0
   -6.8791    8.6337   -2.2702 H   0  0  0  0  0  0  0  0  0  0  0  0
   -7.0236    7.5629   -4.4298 H   0  0  0  0  0  0  0  0  0  0  0  0
   -6.4951    5.9979   -3.7753 H   0  0  0  0  0  0  0  0  0  0  0  0
   -9.1787    6.6844   -4.4764 H   0  0  0  0  0  0  0  0  0  0  0  0
   -8.7407    5.2910   -3.4914 H   0  0  0  0  0  0  0  0  0  0  0  0
   -9.7365    9.2035   -1.9580 H   0  0  0  0  0  0  0  0  0  0  0  0
   -8.7489    8.9249   -3.4324 H   0  0  0  0  0  0  0  0  0  0  0  0
  -10.4980    8.5158   -3.4324 H   0  0  0  0  0  0  0  0  0  0  0  0
  -10.1296    5.3873   -1.5094 H   0  0  0  0  0  0  0  0  0  0  0  0
  -11.3887    6.2154   -3.5994 H   0  0  0  0  0  0  0  0  0  0  0  0
  -12.2845    5.4282   -2.1967 H   0  0  0  0  0  0  0  0  0  0  0  0
  -13.4322    7.5399   -3.2735 H   0  0  0  0  0  0  0  0  0  0  0  0
  -10.9762    9.0928   -0.4694 H   0  0  0  0  0  0  0  0  0  0  0  0
  -13.2424    7.7685    1.1451 H   0  0  0  0  0  0  0  0  0  0  0  0
  -11.7944    8.6458    1.8117 H   0  0  0  0  0  0  0  0  0  0  0  0
  -13.8434   10.0313    1.8834 H   0  0  0  0  0  0  0  0  0  0  0  0
  -12.5587   10.7252    0.8185 H   0  0  0  0  0  0  0  0  0  0  0  0
  -14.6791   10.9504   -0.2847 H   0  0  0  0  0  0  0  0  0  0  0  0
  -15.4460    8.9290    0.9620 H   0  0  0  0  0  0  0  0  0  0  0  0
  -12.3236   11.3611   -1.0781 H   0  0  0  0  0  0  0  0  0  0  0  0
  -11.8346   10.5114   -2.5833 H   0  0  0  0  0  0  0  0  0  0  0  0
  -13.2795   11.5786   -2.5833 H   0  0  0  0  0  0  0  0  0  0  0  0
  -15.6761    9.5040   -2.1839 H   0  0  0  0  0  0  0  0  0  0  0  0
  -14.6660   10.4798   -3.3038 H   0  0  0  0  0  0  0  0  0  0  0  0
  -14.5326    8.6885   -3.3038 H   0  0  0  0  0  0  0  0  0  0  0  0
  -11.5424    6.0076    1.5959 H   0  0  0  0  0  0  0  0  0  0  0  0
  -12.7019    5.9209    0.2266 H   0  0  0  0  0  0  0  0  0  0  0  0
  -11.2331    4.8868    0.2266 H   0  0  0  0  0  0  0  0  0  0  0  0
   -9.8577    8.0123    1.4152 H   0  0  0  0  0  0  0  0  0  0  0  0
   -9.2536    6.3043    1.0243 H   0  0  0  0  0  0  0  0  0  0  0  0
   -8.5472    8.8857   -0.3979 H   0  0  0  0  0  0  0  0  0  0  0  0
   -7.4777    7.8082    0.5833 H   0  0  0  0  0  0  0  0  0  0  0  0
   -7.6486    5.5316    0.2273 H   0  0  0  0  0  0  0  0  0  0  0  0
   -8.4060    4.8600   -1.2566 H   0  0  0  0  0  0  0  0  0  0  0  0
   -6.6638    5.2977   -1.2566 H   0  0  0  0  0  0  0  0  0  0  0  0
  1  2  1  0
  2  3  1  0
  3  4  1  0
  4  5  1  0
  5  6  1  0
  6  7  1  0
  7  8  1  0
  7  9  1  0
  2 10  1  0
 10 11  1  0
 11 12  1  0
 12 13  1  0
 13 14  1  6
 13 15  1  0
 15 16  1  0
 16 17  1  0
 17 18  2  0
 18 19  1  0
 19 20  1  0
 20 21  1  0
 21 22  1  0
 22 23  1  0
 22 24  1  0
 24 25  1  0
 24 26  1  0
 19 27  1  0
 27 28  1  1
 27 29  1  0
 29 30  1  0
 30 31  1  0
 31 32  1  1
  7  5  1  0
 31 10  1  0
 31 13  1  0
 27 15  1  0
 24 18  1  0
  1 33  1  0
  1 34  1  0
  1 35  1  0
  2 36  1  6
  3 37  1  0
  3 38  1  0
  4 39  1  0
  4 40  1  0
  5 41  1  6
  8 42  1  0
  8 43  1  0
  8 44  1  0
  9 45  1  0
  9 46  1  0
  9 47  1  0
 10 48  1  6
 11 49  1  0
 11 50  1  0
 12 51  1  0
 12 52  1  0
 14 53  1  0
 14 54  1  0
 14 55  1  0
 15 56  1  1
 16 57  1  0
 16 58  1  0
 17 59  1  0
 19 60  1  6
 20 61  1  0
 20 62  1  0
 21 63  1  0
 21 64  1  0
 22 65  1  6
 23 66  1  0
 25 67  1  0
 25 68  1  0
 25 69  1  0
 26 70  1  0
 26 71  1  0
 26 72  1  0
 28 73  1  0
 28 74  1  0
 28 75  1  0
 29 76  1  0
 29 77  1  0
 30 78  1  0
 30 79  1  0
 32 80  1  0
 32 81  1  0
 32 82  1  0
M  END
>  <meeko>  (8) 
{"is_sidechain": [false], "intermolecular_energy": 2.731, "internal_energy": -0.839}

$$$$
EPH_relaxed_0001_pdb2pqr_Repair_3_r2_0001_out
     RDKit          3D

 82 86  0  0  0  0  0  0  0  0999 V2000
    0.4430    8.8190   -2.3860 C   0  0  0  0  0  0  0  0  0  0  0  0
    1.1890    9.9650   -3.0760 C   0  0  2  0  0  0  0  0  0  0  0  0
    2.6880    9.9830   -2.7150 C   0  0  0  0  0  0  0  0  0  0  0  0
    3.5780   10.5710   -3.8140 C   0  0  0  0  0  0  0  0  0  0  0  0
    4.9730   10.8170   -3.3240 C   0  0  2  0  0  0  0  0  0  0  0  0
    5.5600   12.0430   -3.7810 O   0  0  0  0  0  0  0  0  0  0  0  0
    6.1880   10.8320   -4.2320 C   0  0  0  0  0  0  0  0  0  0  0  0
    6.0640   10.5950   -5.7050 C   0  0  0  0  0  0  0  0  0  0  0  0
    7.5360   10.5900   -3.6280 C   0  0  0  0  0  0  0  0  0  0  0  0
    0.5480   11.2980   -2.7070 C   0  0  1  0  0  0  0  0  0  0  0  0
   -0.8270   11.1270   -2.0080 C   0  0  0  0  0  0  0  0  0  0  0  0
   -0.9420   12.2670   -0.9630 C   0  0  0  0  0  0  0  0  0  0  0  0
    0.2050   13.2410   -1.3210 C   0  0  1  0  0  0  0  0  0  0  0  0
   -0.3490   14.0970   -2.5020 C   0  0  0  0  0  0  0  0  0  0  0  0
    0.7370   14.1400   -0.1570 C   0  0  2  0  0  0  0  0  0  0  0  0
   -0.2930   15.1150    0.4380 C   0  0  0  0  0  0  0  0  0  0  0  0
   -0.3420   16.4620   -0.2040 C   0  0  0  0  0  0  0  0  0  0  0  0
    0.5970   16.9720   -1.0230 C   0  0  0  0  0  0  0  0  0  0  0  0
    1.8990   16.2090   -1.3000 C   0  0  1  0  0  0  0  0  0  0  0  0
    3.1040   17.1790   -1.1740 C   0  0  0  0  0  0  0  0  0  0  0  0
    2.9530   18.4160   -2.0540 C   0  0  0  0  0  0  0  0  0  0  0  0
    1.6770   19.1790   -1.7080 C   0  0  2  0  0  0  0  0  0  0  0  0
    1.8060   19.7190   -0.3900 O   0  0  0  0  0  0  0  0  0  0  0  0
    0.3970   18.3010   -1.7910 C   0  0  0  0  0  0  0  0  0  0  0  0
    0.0910   17.9660   -3.2720 C   0  0  0  0  0  0  0  0  0  0  0  0
   -0.7990   19.1520   -1.2830 C   0  0  0  0  0  0  0  0  0  0  0  0
    2.1060   14.8680   -0.4740 C   0  0  1  0  0  0  0  0  0  0  0  0
    2.7700   15.1860    0.9010 C   0  0  0  0  0  0  0  0  0  0  0  0
    3.1130   13.9380   -1.2480 C   0  0  0  0  0  0  0  0  0  0  0  0
    2.5120   12.9870   -2.3020 C   0  0  0  0  0  0  0  0  0  0  0  0
    1.3230   12.2120   -1.7260 C   0  0  2  0  0  0  0  0  0  0  0  0
    1.8550   11.3250   -0.5490 C   0  0  0  0  0  0  0  0  0  0  0  0
    0.5193    8.9362   -1.2949 H   0  0  0  0  0  0  0  0  0  0  0  0
   -0.6157    8.8389   -2.6838 H   0  0  0  0  0  0  0  0  0  0  0  0
    0.8897    7.8589   -2.6838 H   0  0  0  0  0  0  0  0  0  0  0  0
    1.1133    9.8035   -4.1614 H   0  0  0  0  0  0  0  0  0  0  0  0
    2.8186   10.5844   -1.8033 H   0  0  0  0  0  0  0  0  0  0  0  0
    2.9980    8.9369   -2.5752 H   0  0  0  0  0  0  0  0  0  0  0  0
    3.6154    9.8663   -4.6578 H   0  0  0  0  0  0  0  0  0  0  0  0
    3.1483   11.5348   -4.1247 H   0  0  0  0  0  0  0  0  0  0  0  0
    4.7616   10.2873   -2.3834 H   0  0  0  0  0  0  0  0  0  0  0  0
    5.5606    9.6328   -5.8805 H   0  0  0  0  0  0  0  0  0  0  0  0
    5.4744   11.4054   -6.1584 H   0  0  0  0  0  0  0  0  0  0  0  0
    7.0660   10.5726   -6.1584 H   0  0  0  0  0  0  0  0  0  0  0  0
    7.4543   10.6047   -2.5311 H   0  0  0  0  0  0  0  0  0  0  0  0
    7.9135    9.6097   -3.9545 H   0  0  0  0  0  0  0  0  0  0  0  0
    8.2309   11.3778   -3.9545 H   0  0  0  0  0  0  0  0  0  0  0  0
    0.5067   11.7644   -3.7024 H   0  0  0  0  0  0  0  0  0  0  0  0
   -1.6393   11.2057   -2.7455 H   0  0  0  0  0  0  0  0  0  0  0  0
   -0.9059   10.1408   -1.5272 H   0  0  0  0  0  0  0  0  0  0  0  0
   -1.9173   12.7696   -1.0422 H   0  0  0  0  0  0  0  0  0  0  0  0
   -0.8671   11.8956    0.0697 H   0  0  0  0  0  0  0  0  0  0  0  0
   -0.9057   14.9572   -2.1018 H   0  0  0  0  0  0  0  0  0  0  0  0
    0.4881   14.4566   -3.1184 H   0  0  0  0  0  0  0  0  0  0  0  0
   -1.0199   13.4807   -3.1184 H   0  0  0  0  0  0  0  0  0  0  0  0
    0.9424   13.4037    0.6340 H   0  0  0  0  0  0  0  0  0  0  0  0
   -1.2886   14.6570    0.3432 H   0  0  0  0  0  0  0  0  0  0  0  0
    0.0164   15.2858    1.4797 H   0  0  0  0  0  0  0  0  0  0  0  0
   -1.2190   17.0906    0.0101 H   0  0  0  0  0  0  0  0  0  0  0  0
    1.8221   15.8412   -2.3338 H   0  0  0  0  0  0  0  0  0  0  0  0
    3.1900   17.5004   -0.1255 H   0  0  0  0  0  0  0  0  0  0  0  0
    4.0032   16.6399   -1.5069 H   0  0  0  0  0  0  0  0  0  0  0  0
    3.8198   19.0755   -1.8999 H   0  0  0  0  0  0  0  0  0  0  0  0
    2.8962   18.0948   -3.1045 H   0  0  0  0  0  0  0  0  0  0  0  0
    1.5576   19.9783   -2.4542 H   0  0  0  0  0  0  0  0  0  0  0  0
    2.6940   19.4950   -0.0650 H   0  0  0  0  0  0  0  0  0  0  0  0
   -0.6502   17.1546   -3.3188 H   0  0  0  0  0  0  0  0  0  0  0  0
   -0.3102   18.8585   -3.7745 H   0  0  0  0  0  0  0  0  0  0  0  0
    1.0161   17.6470   -3.7745 H   0  0  0  0  0  0  0  0  0  0  0  0
   -0.8050   19.1562   -0.1830 H   0  0  0  0  0  0  0  0  0  0  0  0
   -0.6988   20.1830   -1.6531 H   0  0  0  0  0  0  0  0  0  0  0  0
   -1.7402   18.7194   -1.6531 H   0  0  0  0  0  0  0  0  0  0  0  0
    2.1015   14.8658    1.7138 H   0  0  0  0  0  0  0  0  0  0  0  0
    3.7263   14.6482    0.9795 H   0  0  0  0  0  0  0  0  0  0  0  0
    2.9505   16.2683    0.9795 H   0  0  0  0  0  0  0  0  0  0  0  0
    3.8384   14.5869   -1.7606 H   0  0  0  0  0  0  0  0  0  0  0  0
    3.5451   13.2798   -0.4799 H   0  0  0  0  0  0  0  0  0  0  0  0
    2.1727   13.5763   -3.1666 H   0  0  0  0  0  0  0  0  0  0  0  0
    3.2857   12.2670   -2.6068 H   0  0  0  0  0  0  0  0  0  0  0  0
    1.5788   11.7855    0.4110 H   0  0  0  0  0  0  0  0  0  0  0  0
    1.4096   10.3214   -0.6159 H   0  0  0  0  0  0  0  0  0  0  0  0
    2.9501   11.2454   -0.6159 H   0  0  0  0  0  0  0  0  0  0  0  0
  1  2  1  0
  2  3  1  0
  3  4  1  0
  4  5  1  0
  5  6  1  0
  6  7  1  0
  7  8  1  0
  7  9  1  0
  2 10  1  0
 10 11  1  0
 11 12  1  0
 12 13  1  0
 13 14  1  6
 13 15  1  0
 15 16  1  0
 16 17  1  0
 17 18  2  0
 18 19  1  0
 19 20  1  0
 20 21  1  0
 21 22  1  0
 22 23  1  0
 22 24  1  0
 24 25  1  0
 24 26  1  0
 19 27  1  0
 27 28  1  1
 27 29  1  0
 29 30  1  0
 30 31  1  0
 31 32  1  1
  7  5  1  0
 31 10  1  0
 31 13  1  0
 27 15  1  0
 24 18  1  0
  1 33  1  0
  1 34  1  0
  1 35  1  0
  2 36  1  6
  3 37  1  0
  3 38  1  0
  4 39  1  0
  4 40  1  0
  5 41  1  1
  8 42  1  0
  8 43  1  0
  8 44  1  0
  9 45  1  0
  9 46  1  0
  9 47  1  0
 10 48  1  6
 11 49  1  0
 11 50  1  0
 12 51  1  0
 12 52  1  0
 14 53  1  0
 14 54  1  0
 14 55  1  0
 15 56  1  1
 16 57  1  0
 16 58  1  0
 17 59  1  0
 19 60  1  6
 20 61  1  0
 20 62  1  0
 21 63  1  0
 21 64  1  0
 22 65  1  6
 23 66  1  0
 25 67  1  0
 25 68  1  0
 25 69  1  0
 26 70  1  0
 26 71  1  0
 26 72  1  0
 28 73  1  0
 28 74  1  0
 28 75  1  0
 29 76  1  0
 29 77  1  0
 30 78  1  0
 30 79  1  0
 32 80  1  0
 32 81  1  0
 32 82  1  0
M  END
>  <meeko>  (9) 
{"is_sidechain": [false], "intermolecular_energy": 2.731, "internal_energy": -0.839}

$$$$
EPH_relaxed_0001_pdb2pqr_Repair_3_r2_0001_out
     RDKit          3D

 82 86  0  0  0  0  0  0  0  0999 V2000
   -0.1260   10.6050   -4.1190 C   0  0  0  0  0  0  0  0  0  0  0  0
    0.9790   10.3630   -3.0870 C   0  0  2  0  0  0  0  0  0  0  0  0
    0.7850    9.0340   -2.3290 C   0  0  0  0  0  0  0  0  0  0  0  0
   -0.6800    8.7100   -2.0200 C   0  0  0  0  0  0  0  0  0  0  0  0
   -1.0250    9.0170   -0.5940 C   0  0  2  0  0  0  0  0  0  0  0  0
   -2.4290    9.1560   -0.3350 O   0  0  0  0  0  0  0  0  0  0  0  0
   -1.6280   10.3340   -0.1440 C   0  0  0  0  0  0  0  0  0  0  0  0
   -1.9200   11.4320   -1.1180 C   0  0  0  0  0  0  0  0  0  0  0  0
   -1.4800   10.7360    1.2900 C   0  0  0  0  0  0  0  0  0  0  0  0
    1.0310   11.5230   -2.0990 C   0  0  1  0  0  0  0  0  0  0  0  0
    2.0720   11.3000   -0.9700 C   0  0  0  0  0  0  0  0  0  0  0  0
    2.6690   12.6900   -0.6310 C   0  0  0  0  0  0  0  0  0  0  0  0
    1.7280   13.6990   -1.3300 C   0  0  1  0  0  0  0  0  0  0  0  0
    0.5100   13.8470   -0.3650 C   0  0  0  0  0  0  0  0  0  0  0  0
    2.3500   15.0870   -1.6910 C   0  0  2  0  0  0  0  0  0  0  0  0
    2.8260   15.9220   -0.4890 C   0  0  0  0  0  0  0  0  0  0  0  0
    1.8060   16.8450    0.0900 C   0  0  0  0  0  0  0  0  0  0  0  0
    0.6540   17.2090   -0.5030 C   0  0  0  0  0  0  0  0  0  0  0  0
    0.3260   16.7570   -1.9320 C   0  0  1  0  0  0  0  0  0  0  0  0
   -0.1880   17.9680   -2.7530 C   0  0  0  0  0  0  0  0  0  0  0  0
   -1.3620   18.6750   -2.0810 C   0  0  0  0  0  0  0  0  0  0  0  0
   -0.9790   19.1610   -0.6860 C   0  0  2  0  0  0  0  0  0  0  0  0
    0.0050   20.1920   -0.8100 O   0  0  0  0  0  0  0  0  0  0  0  0
   -0.4370   18.0280    0.2300 C   0  0  0  0  0  0  0  0  0  0  0  0
   -1.5910   17.0690    0.6110 C   0  0  0  0  0  0  0  0  0  0  0  0
    0.0440   18.6760    1.5570 C   0  0  0  0  0  0  0  0  0  0  0  0
    1.4720   15.9520   -2.6840 C   0  0  1  0  0  0  0  0  0  0  0  0
    2.4450   16.9450   -3.3890 C   0  0  0  0  0  0  0  0  0  0  0  0
    0.8240   15.0810   -3.8240 C   0  0  0  0  0  0  0  0  0  0  0  0
    0.3370   13.6730   -3.4310 C   0  0  0  0  0  0  0  0  0  0  0  0
    1.4200   12.9150   -2.6570 C   0  0  2  0  0  0  0  0  0  0  0  0
    2.6500   12.7310   -3.6110 C   0  0  0  0  0  0  0  0  0  0  0  0
   -1.0734   10.8125   -3.6000 H   0  0  0  0  0  0  0  0  0  0  0  0
    0.1429   11.4655   -4.7492 H   0  0  0  0  0  0  0  0  0  0  0  0
   -0.2414    9.7108   -4.7492 H   0  0  0  0  0  0  0  0  0  0  0  0
    1.9319   10.2960   -3.6324 H   0  0  0  0  0  0  0  0  0  0  0  0
    1.1987    8.2204   -2.9429 H   0  0  0  0  0  0  0  0  0  0  0  0
    1.3024    9.1358   -1.3637 H   0  0  0  0  0  0  0  0  0  0  0  0
   -1.3248    9.3089   -2.6800 H   0  0  0  0  0  0  0  0  0  0  0  0
   -0.8368    7.6342   -2.1876 H   0  0  0  0  0  0  0  0  0  0  0  0
   -0.1584    8.4421   -0.2355 H   0  0  0  0  0  0  0  0  0  0  0  0
   -2.1650   12.3533   -0.5693 H   0  0  0  0  0  0  0  0  0  0  0  0
   -1.0368   11.6057   -1.7503 H   0  0  0  0  0  0  0  0  0  0  0  0
   -2.7728   11.1440   -1.7503 H   0  0  0  0  0  0  0  0  0  0  0  0
   -1.7871    9.9020    1.9382 H   0  0  0  0  0  0  0  0  0  0  0  0
   -0.4292   10.9904    1.4929 H   0  0  0  0  0  0  0  0  0  0  0  0
   -2.1149   11.6110    1.4929 H   0  0  0  0  0  0  0  0  0  0  0  0
   -0.0178   11.5302   -1.7675 H   0  0  0  0  0  0  0  0  0  0  0  0
    1.5828   10.8713   -0.0829 H   0  0  0  0  0  0  0  0  0  0  0  0
    2.8579   10.6001   -1.2901 H   0  0  0  0  0  0  0  0  0  0  0  0
    2.6763   12.8548    0.4566 H   0  0  0  0  0  0  0  0  0  0  0  0
    3.7116   12.7897   -0.9671 H   0  0  0  0  0  0  0  0  0  0  0  0
    0.8604   13.8044    0.6768 H   0  0  0  0  0  0  0  0  0  0  0  0
    0.0140   14.8120   -0.5459 H   0  0  0  0  0  0  0  0  0  0  0  0
   -0.2027   13.0288   -0.5459 H   0  0  0  0  0  0  0  0  0  0  0  0
    3.2619   14.8019   -2.2361 H   0  0  0  0  0  0  0  0  0  0  0  0
    3.1443   15.2276    0.3025 H   0  0  0  0  0  0  0  0  0  0  0  0
    3.6371   16.5625   -0.8655 H   0  0  0  0  0  0  0  0  0  0  0  0
    2.0134   17.2633    1.0860 H   0  0  0  0  0  0  0  0  0  0  0  0
   -0.4712   16.0049   -1.8380 H   0  0  0  0  0  0  0  0  0  0  0  0
    0.6352   18.6877   -2.8728 H   0  0  0  0  0  0  0  0  0  0  0  0
   -0.5385   17.5883   -3.7241 H   0  0  0  0  0  0  0  0  0  0  0  0
   -1.6610   19.5383   -2.6936 H   0  0  0  0  0  0  0  0  0  0  0  0
   -2.1950   17.9625   -1.9885 H   0  0  0  0  0  0  0  0  0  0  0  0
   -1.8933   19.5412   -0.2070 H   0  0  0  0  0  0  0  0  0  0  0  0
   -0.4400   21.0430   -0.6640 H   0  0  0  0  0  0  0  0  0  0  0  0
   -1.6680   17.0050    1.7064 H   0  0  0  0  0  0  0  0  0  0  0  0
   -2.5365   17.4511    0.1986 H   0  0  0  0  0  0  0  0  0  0  0  0
   -1.3884   16.0695    0.1986 H   0  0  0  0  0  0  0  0  0  0  0  0
   -0.3706   18.1175    2.4092 H   0  0  0  0  0  0  0  0  0  0  0  0
    1.1428   18.6494    1.6008 H   0  0  0  0  0  0  0  0  0  0  0  0
   -0.2996   19.7201    1.6008 H   0  0  0  0  0  0  0  0  0  0  0  0
    3.0022   17.5136   -2.6299 H   0  0  0  0  0  0  0  0  0  0  0  0
    3.1512   16.3825   -4.0173 H   0  0  0  0  0  0  0  0  0  0  0  0
    1.8682   17.6397   -4.0173 H   0  0  0  0  0  0  0  0  0  0  0  0
   -0.0419   15.6355   -4.2150 H   0  0  0  0  0  0  0  0  0  0  0  0
    1.6313   14.9134   -4.5522 H   0  0  0  0  0  0  0  0  0  0  0  0
   -0.5589   13.7653   -2.7994 H   0  0  0  0  0  0  0  0  0  0  0  0
    0.1047   13.1131   -4.3489 H   0  0  0  0  0  0  0  0  0  0  0  0
    3.5620   12.5946   -3.0113 H   0  0  0  0  0  0  0  0  0  0  0  0
    2.4927   11.8464   -4.2456 H   0  0  0  0  0  0  0  0  0  0  0  0
    2.7585   13.6229   -4.2456 H   0  0  0  0  0  0  0  0  0  0  0  0
  1  2  1  0
  2  3  1  0
  3  4  1  0
  4  5  1  0
  5  6  1  0
  6  7  1  0
  7  8  1  0
  7  9  1  0
  2 10  1  0
 10 11  1  0
 11 12  1  0
 12 13  1  0
 13 14  1  1
 13 15  1  0
 15 16  1  0
 16 17  1  0
 17 18  2  0
 18 19  1  0
 19 20  1  0
 20 21  1  0
 21 22  1  0
 22 23  1  0
 22 24  1  0
 24 25  1  0
 24 26  1  0
 19 27  1  0
 27 28  1  6
 27 29  1  0
 29 30  1  0
 30 31  1  0
 31 32  1  6
  7  5  1  0
 31 10  1  0
 31 13  1  0
 27 15  1  0
 24 18  1  0
  1 33  1  0
  1 34  1  0
  1 35  1  0
  2 36  1  6
  3 37  1  0
  3 38  1  0
  4 39  1  0
  4 40  1  0
  5 41  1  1
  8 42  1  0
  8 43  1  0
  8 44  1  0
  9 45  1  0
  9 46  1  0
  9 47  1  0
 10 48  1  1
 11 49  1  0
 11 50  1  0
 12 51  1  0
 12 52  1  0
 14 53  1  0
 14 54  1  0
 14 55  1  0
 15 56  1  6
 16 57  1  0
 16 58  1  0
 17 59  1  0
 19 60  1  1
 20 61  1  0
 20 62  1  0
 21 63  1  0
 21 64  1  0
 22 65  1  1
 23 66  1  0
 25 67  1  0
 25 68  1  0
 25 69  1  0
 26 70  1  0
 26 71  1  0
 26 72  1  0
 28 73  1  0
 28 74  1  0
 28 75  1  0
 29 76  1  0
 29 77  1  0
 30 78  1  0
 30 79  1  0
 32 80  1  0
 32 81  1  0
 32 82  1  0
M  END
>  <meeko>  (10) 
{"is_sidechain": [false], "intermolecular_energy": 2.731, "internal_energy": -0.839}

$$$$
EPH_relaxed_0001_pdb2pqr_Repair_3_r2_0001_out
     RDKit          3D

 82 86  0  0  0  0  0  0  0  0999 V2000
    3.0050   18.5340   -1.1890 C   0  0  0  0  0  0  0  0  0  0  0  0
    2.6430   17.4720   -2.2310 C   0  0  2  0  0  0  0  0  0  0  0  0
    1.2450   17.7050   -2.8370 C   0  0  0  0  0  0  0  0  0  0  0  0
    0.6500   19.0750   -2.5010 C   0  0  0  0  0  0  0  0  0  0  0  0
   -0.6920   18.9500   -1.8440 C   0  0  2  0  0  0  0  0  0  0  0  0
   -1.3800   20.1930   -1.6480 O   0  0  0  0  0  0  0  0  0  0  0  0
   -0.9970   19.4860   -0.4580 C   0  0  0  0  0  0  0  0  0  0  0  0
    0.0460   20.1850    0.3560 C   0  0  0  0  0  0  0  0  0  0  0  0
   -2.1520   18.9030    0.2960 C   0  0  0  0  0  0  0  0  0  0  0  0
    2.7140   16.0840   -1.6040 C   0  0  1  0  0  0  0  0  0  0  0  0
    3.3840   16.0940   -0.2040 C   0  0  0  0  0  0  0  0  0  0  0  0
    2.6630   15.0150    0.6440 C   0  0  0  0  0  0  0  0  0  0  0  0
    1.8400   14.2000   -0.3800 C   0  0  1  0  0  0  0  0  0  0  0  0
    2.8600   13.2020   -1.0110 C   0  0  0  0  0  0  0  0  0  0  0  0
    0.5800   13.4610    0.1780 C   0  0  2  0  0  0  0  0  0  0  0  0
    0.8710   12.3830    1.2370 C   0  0  0  0  0  0  0  0  0  0  0  0
    1.0940   11.0070    0.7030 C   0  0  0  0  0  0  0  0  0  0  0  0
    0.7840   10.5910   -0.5390 C   0  0  0  0  0  0  0  0  0  0  0  0
    0.0560   11.5180   -1.5220 C   0  0  1  0  0  0  0  0  0  0  0  0
   -1.1060   10.7440   -2.1980 C   0  0  0  0  0  0  0  0  0  0  0  0
   -0.6430    9.4470   -2.8540 C   0  0  0  0  0  0  0  0  0  0  0  0
    0.0240    8.5280   -1.8330 C   0  0  2  0  0  0  0  0  0  0  0  0
   -0.9620    8.0940   -0.8920 O   0  0  0  0  0  0  0  0  0  0  0  0
    1.2050    9.2030   -1.0810 C   0  0  0  0  0  0  0  0  0  0  0  0
    2.3960    9.4000   -2.0510 C   0  0  0  0  0  0  0  0  0  0  0  0
    1.6960    8.2190    0.0150 C   0  0  0  0  0  0  0  0  0  0  0  0
   -0.4040   12.9230   -0.9390 C   0  0  1  0  0  0  0  0  0  0  0  0
   -1.8060   12.7880   -0.2700 C   0  0  0  0  0  0  0  0  0  0  0  0
   -0.5740   13.9420   -2.1270 C   0  0  0  0  0  0  0  0  0  0  0  0
    0.6800   14.7280   -2.5530 C   0  0  0  0  0  0  0  0  0  0  0  0
    1.3730   15.3540   -1.3400 C   0  0  2  0  0  0  0  0  0  0  0  0
    0.3790   16.3800   -0.6960 C   0  0  0  0  0  0  0  0  0  0  0  0
    2.8640   18.1203   -0.1796 H   0  0  0  0  0  0  0  0  0  0  0  0
    4.0556   18.8325   -1.3194 H   0  0  0  0  0  0  0  0  0  0  0  0
    2.3554   19.4121   -1.3194 H   0  0  0  0  0  0  0  0  0  0  0  0
    3.3740   17.5489   -3.0494 H   0  0  0  0  0  0  0  0  0  0  0  0
    1.3217   17.6183   -3.9309 H   0  0  0  0  0  0  0  0  0  0  0  0
    0.5756   16.9481   -2.4023 H   0  0  0  0  0  0  0  0  0  0  0  0
    1.3330   19.6029   -1.8193 H   0  0  0  0  0  0  0  0  0  0  0  0
    0.5217   19.6331   -3.4402 H   0  0  0  0  0  0  0  0  0  0  0  0
   -0.8539   17.9652   -2.3065 H   0  0  0  0  0  0  0  0  0  0  0  0
   -0.1671   20.0422    1.4257 H   0  0  0  0  0  0  0  0  0  0  0  0
    1.0359   19.7672    0.1204 H   0  0  0  0  0  0  0  0  0  0  0  0
    0.0359   21.2594    0.1204 H   0  0  0  0  0  0  0  0  0  0  0  0
   -1.9686   18.9956    1.3767 H   0  0  0  0  0  0  0  0  0  0  0  0
   -3.0726   19.4444    0.0326 H   0  0  0  0  0  0  0  0  0  0  0  0
   -2.2632   17.8408    0.0326 H   0  0  0  0  0  0  0  0  0  0  0  0
    3.2816   15.5574   -2.3853 H   0  0  0  0  0  0  0  0  0  0  0  0
    4.4535   15.8529   -0.2941 H   0  0  0  0  0  0  0  0  0  0  0  0
    3.3028   17.0853    0.2659 H   0  0  0  0  0  0  0  0  0  0  0  0
    3.3935   14.3711    1.1557 H   0  0  0  0  0  0  0  0  0  0  0  0
    2.0323   15.4551    1.4304 H   0  0  0  0  0  0  0  0  0  0  0  0
    3.3995   12.6742   -0.2108 H   0  0  0  0  0  0  0  0  0  0  0  0
    2.3217   12.4722   -1.6335 H   0  0  0  0  0  0  0  0  0  0  0  0
    3.5779   13.7561   -1.6335 H   0  0  0  0  0  0  0  0  0  0  0  0
    0.0508   14.2661    0.7089 H   0  0  0  0  0  0  0  0  0  0  0  0
    1.7739   12.6837    1.7887 H   0  0  0  0  0  0  0  0  0  0  0  0
   -0.0301   12.3229    1.8650 H   0  0  0  0  0  0  0  0  0  0  0  0
    1.5500   10.2711    1.3816 H   0  0  0  0  0  0  0  0  0  0  0  0
    0.8016   11.8072   -2.2773 H   0  0  0  0  0  0  0  0  0  0  0  0
   -1.8601   10.5030   -1.4343 H   0  0  0  0  0  0  0  0  0  0  0  0
   -1.5202   11.3877   -2.9880 H   0  0  0  0  0  0  0  0  0  0  0  0
   -1.5130    8.9322   -3.2877 H   0  0  0  0  0  0  0  0  0  0  0  0
    0.0889    9.6914   -3.6379 H   0  0  0  0  0  0  0  0  0  0  0  0
    0.4500    7.6760   -2.3831 H   0  0  0  0  0  0  0  0  0  0  0  0
   -0.5660    7.3830   -0.3590 H   0  0  0  0  0  0  0  0  0  0  0  0
    3.3189    9.5527   -1.4722 H   0  0  0  0  0  0  0  0  0  0  0  0
    2.5041    8.5075   -2.6849 H   0  0  0  0  0  0  0  0  0  0  0  0
    2.2110   10.2797   -2.6849 H   0  0  0  0  0  0  0  0  0  0  0  0
    1.4851    8.6417    1.0084 H   0  0  0  0  0  0  0  0  0  0  0  0
    1.1717    7.2581   -0.0934 H   0  0  0  0  0  0  0  0  0  0  0  0
    2.7790    8.0601   -0.0934 H   0  0  0  0  0  0  0  0  0  0  0  0
   -1.6928   12.7989    0.8241 H   0  0  0  0  0  0  0  0  0  0  0  0
   -2.4432   13.6289   -0.5811 H   0  0  0  0  0  0  0  0  0  0  0  0
   -2.2710   11.8409   -0.5811 H   0  0  0  0  0  0  0  0  0  0  0  0
   -0.9256   13.3766   -3.0026 H   0  0  0  0  0  0  0  0  0  0  0  0
   -1.2774   14.7019   -1.7558 H   0  0  0  0  0  0  0  0  0  0  0  0
    1.3805   14.0438   -3.0541 H   0  0  0  0  0  0  0  0  0  0  0  0
    0.3734   15.5338   -3.2362 H   0  0  0  0  0  0  0  0  0  0  0  0
    0.4430   16.3140    0.4001 H   0  0  0  0  0  0  0  0  0  0  0  0
    0.6432   17.3981   -1.0180 H   0  0  0  0  0  0  0  0  0  0  0  0
   -0.6469   16.1482   -1.0180 H   0  0  0  0  0  0  0  0  0  0  0  0
  1  2  1  0
  2  3  1  0
  3  4  1  0
  4  5  1  0
  5  6  1  0
  6  7  1  0
  7  8  1  0
  7  9  1  0
  2 10  1  0
 10 11  1  0
 11 12  1  0
 12 13  1  0
 13 14  1  6
 13 15  1  0
 15 16  1  0
 16 17  1  0
 17 18  2  0
 18 19  1  0
 19 20  1  0
 20 21  1  0
 21 22  1  0
 22 23  1  0
 22 24  1  0
 24 25  1  0
 24 26  1  0
 19 27  1  0
 27 28  1  1
 27 29  1  0
 29 30  1  0
 30 31  1  0
 31 32  1  1
  7  5  1  0
 31 10  1  0
 31 13  1  0
 27 15  1  0
 24 18  1  0
  1 33  1  0
  1 34  1  0
  1 35  1  0
  2 36  1  6
  3 37  1  0
  3 38  1  0
  4 39  1  0
  4 40  1  0
  5 41  1  6
  8 42  1  0
  8 43  1  0
  8 44  1  0
  9 45  1  0
  9 46  1  0
  9 47  1  0
 10 48  1  6
 11 49  1  0
 11 50  1  0
 12 51  1  0
 12 52  1  0
 14 53  1  0
 14 54  1  0
 14 55  1  0
 15 56  1  1
 16 57  1  0
 16 58  1  0
 17 59  1  0
 19 60  1  6
 20 61  1  0
 20 62  1  0
 21 63  1  0
 21 64  1  0
 22 65  1  6
 23 66  1  0
 25 67  1  0
 25 68  1  0
 25 69  1  0
 26 70  1  0
 26 71  1  0
 26 72  1  0
 28 73  1  0
 28 74  1  0
 28 75  1  0
 29 76  1  0
 29 77  1  0
 30 78  1  0
 30 79  1  0
 32 80  1  0
 32 81  1  0
 32 82  1  0
M  END
>  <meeko>  (11) 
{"is_sidechain": [false], "intermolecular_energy": 2.731, "internal_energy": -0.839}

$$$$
EPH_relaxed_0001_pdb2pqr_Repair_3_r2_0001_out
     RDKit          3D

 82 86  0  0  0  0  0  0  0  0999 V2000
   -0.9450   16.4030   -5.8910 C   0  0  0  0  0  0  0  0  0  0  0  0
    0.1580   15.7060   -6.6920 C   0  0  2  0  0  0  0  0  0  0  0  0
   -0.2350   15.5060   -8.1690 C   0  0  0  0  0  0  0  0  0  0  0  0
    0.4140   16.5150   -9.1210 C   0  0  0  0  0  0  0  0  0  0  0  0
    1.8240   16.1330   -9.4570 C   0  0  2  0  0  0  0  0  0  0  0  0
    2.3180   16.6870  -10.6830 O   0  0  0  0  0  0  0  0  0  0  0  0
    2.1940   15.2560  -10.6380 C   0  0  0  0  0  0  0  0  0  0  0  0
    1.1510   14.7070  -11.5600 C   0  0  0  0  0  0  0  0  0  0  0  0
    3.5070   14.5370  -10.6120 C   0  0  0  0  0  0  0  0  0  0  0  0
    0.4940   14.3630   -6.0550 C   0  0  1  0  0  0  0  0  0  0  0  0
    1.7050   13.6670   -6.7320 C   0  0  0  0  0  0  0  0  0  0  0  0
    2.4720   12.9160   -5.6130 C   0  0  0  0  0  0  0  0  0  0  0  0
    1.5070   12.9260   -4.4040 C   0  0  1  0  0  0  0  0  0  0  0  0
    0.5080   11.7580   -4.6780 C   0  0  0  0  0  0  0  0  0  0  0  0
    2.1660   12.8030   -2.9920 C   0  0  2  0  0  0  0  0  0  0  0  0
    2.9290   11.4910   -2.7400 C   0  0  0  0  0  0  0  0  0  0  0  0
    2.1180   10.3860   -2.1480 C   0  0  0  0  0  0  0  0  0  0  0  0
    0.9110   10.5250   -1.5690 C   0  0  0  0  0  0  0  0  0  0  0  0
    0.2840   11.9120   -1.3780 C   0  0  1  0  0  0  0  0  0  0  0  0
   -0.2690   12.0360    0.0660 C   0  0  0  0  0  0  0  0  0  0  0  0
   -1.2310   10.9070    0.4220 C   0  0  0  0  0  0  0  0  0  0  0  0
   -0.5540    9.5470    0.2770 C   0  0  2  0  0  0  0  0  0  0  0  0
    0.4750    9.4350    1.2650 O   0  0  0  0  0  0  0  0  0  0  0  0
    0.0510    9.3120   -1.1360 C   0  0  0  0  0  0  0  0  0  0  0  0
   -1.0890    9.1320   -2.1670 C   0  0  0  0  0  0  0  0  0  0  0  0
    0.8260    7.9670   -1.1060 C   0  0  0  0  0  0  0  0  0  0  0  0
    1.1950   13.1470   -1.7910 C   0  0  1  0  0  0  0  0  0  0  0  0
    2.1010   13.5640   -0.5920 C   0  0  0  0  0  0  0  0  0  0  0  0
    0.2730   14.3850   -2.1020 C   0  0  0  0  0  0  0  0  0  0  0  0
   -0.2500   14.5160   -3.5450 C   0  0  0  0  0  0  0  0  0  0  0  0
    0.8900   14.3640   -4.5570 C   0  0  2  0  0  0  0  0  0  0  0  0
    1.8990   15.5390   -4.3210 C   0  0  0  0  0  0  0  0  0  0  0  0
   -0.7505   16.2801   -4.8153 H   0  0  0  0  0  0  0  0  0  0  0  0
   -0.9587   17.4741   -6.1411 H   0  0  0  0  0  0  0  0  0  0  0  0
   -1.9183   15.9556   -6.1411 H   0  0  0  0  0  0  0  0  0  0  0  0
    1.0437   16.3581   -6.6720 H   0  0  0  0  0  0  0  0  0  0  0  0
    0.0692   14.4943   -8.4753 H   0  0  0  0  0  0  0  0  0  0  0  0
   -1.3228   15.6554   -8.2352 H   0  0  0  0  0  0  0  0  0  0  0  0
   -0.1744   16.5585  -10.0494 H   0  0  0  0  0  0  0  0  0  0  0  0
    0.4342   17.4944   -8.6207 H   0  0  0  0  0  0  0  0  0  0  0  0
    2.0902   16.0852   -8.3908 H   0  0  0  0  0  0  0  0  0  0  0  0
    0.3300   14.2749  -10.9691 H   0  0  0  0  0  0  0  0  0  0  0  0
    0.7598   15.5161  -12.1943 H   0  0  0  0  0  0  0  0  0  0  0  0
    1.5965   13.9265  -12.1943 H   0  0  0  0  0  0  0  0  0  0  0  0
    3.8128   14.3696   -9.5687 H   0  0  0  0  0  0  0  0  0  0  0  0
    3.4051   13.5688  -11.1241 H   0  0  0  0  0  0  0  0  0  0  0  0
    4.2678   15.1444  -11.1241 H   0  0  0  0  0  0  0  0  0  0  0  0
   -0.4701   13.8503   -6.1882 H   0  0  0  0  0  0  0  0  0  0  0  0
    1.3554   12.9557   -7.4947 H   0  0  0  0  0  0  0  0  0  0  0  0
    2.3541   14.4012   -7.2316 H   0  0  0  0  0  0  0  0  0  0  0  0
    2.6972   11.8845   -5.9216 H   0  0  0  0  0  0  0  0  0  0  0  0
    3.4377   13.3884   -5.3798 H   0  0  0  0  0  0  0  0  0  0  0  0
    0.1551   11.3454   -3.7214 H   0  0  0  0  0  0  0  0  0  0  0  0
   -0.3500   12.1366   -5.2529 H   0  0  0  0  0  0  0  0  0  0  0  0
    1.0151   10.9691   -5.2529 H   0  0  0  0  0  0  0  0  0  0  0  0
    2.9312   13.5928   -3.0196 H   0  0  0  0  0  0  0  0  0  0  0  0
    3.3299   11.1405   -3.7025 H   0  0  0  0  0  0  0  0  0  0  0  0
    3.7069   11.7284   -1.9994 H   0  0  0  0  0  0  0  0  0  0  0  0
    2.5431    9.3723   -2.1885 H   0  0  0  0  0  0  0  0  0  0  0  0
   -0.5430   11.9743   -2.1006 H   0  0  0  0  0  0  0  0  0  0  0  0
    0.5757   12.0149    0.7703 H   0  0  0  0  0  0  0  0  0  0  0  0
   -0.8258   12.9824    0.1306 H   0  0  0  0  0  0  0  0  0  0  0  0
   -1.5653   11.0336    1.4623 H   0  0  0  0  0  0  0  0  0  0  0  0
   -2.0888   10.9470   -0.2654 H   0  0  0  0  0  0  0  0  0  0  0  0
   -1.3268    8.7775    0.4203 H   0  0  0  0  0  0  0  0  0  0  0  0
    0.8920   10.3090    1.3550 H   0  0  0  0  0  0  0  0  0  0  0  0
   -2.0416    8.9816   -1.6378 H   0  0  0  0  0  0  0  0  0  0  0  0
   -1.1579   10.0304   -2.7980 H   0  0  0  0  0  0  0  0  0  0  0  0
   -0.8778    8.2561   -2.7980 H   0  0  0  0  0  0  0  0  0  0  0  0
    0.9990    7.6667   -0.0620 H   0  0  0  0  0  0  0  0  0  0  0  0
    0.2358    7.1923   -1.6174 H   0  0  0  0  0  0  0  0  0  0  0  0
    1.7922    8.0891   -1.6174 H   0  0  0  0  0  0  0  0  0  0  0  0
    1.5897   13.3287    0.3531 H   0  0  0  0  0  0  0  0  0  0  0  0
    3.0517   13.0128   -0.6417 H   0  0  0  0  0  0  0  0  0  0  0  0
    2.3006   14.6446   -0.6417 H   0  0  0  0  0  0  0  0  0  0  0  0
   -0.6002   14.3255   -1.4356 H   0  0  0  0  0  0  0  0  0  0  0  0
    0.9123   15.2665   -1.9463 H   0  0  0  0  0  0  0  0  0  0  0  0
   -1.0007   13.7331   -3.7282 H   0  0  0  0  0  0  0  0  0  0  0  0
   -0.6968   15.5137   -3.6670 H   0  0  0  0  0  0  0  0  0  0  0  0
    2.0334   15.6955   -3.2405 H   0  0  0  0  0  0  0  0  0  0  0  0
    2.8674   15.2881   -4.7784 H   0  0  0  0  0  0  0  0  0  0  0  0
    1.5047   16.4584   -4.7784 H   0  0  0  0  0  0  0  0  0  0  0  0
  1  2  1  0
  2  3  1  0
  3  4  1  0
  4  5  1  0
  5  6  1  0
  6  7  1  0
  7  8  1  0
  7  9  1  0
  2 10  1  0
 10 11  1  0
 11 12  1  0
 12 13  1  0
 13 14  1  6
 13 15  1  0
 15 16  1  0
 16 17  1  0
 17 18  2  0
 18 19  1  0
 19 20  1  0
 20 21  1  0
 21 22  1  0
 22 23  1  0
 22 24  1  0
 24 25  1  0
 24 26  1  0
 19 27  1  0
 27 28  1  1
 27 29  1  0
 29 30  1  0
 30 31  1  0
 31 32  1  6
  7  5  1  0
 31 10  1  0
 31 13  1  0
 27 15  1  0
 24 18  1  0
  1 33  1  0
  1 34  1  0
  1 35  1  0
  2 36  1  6
  3 37  1  0
  3 38  1  0
  4 39  1  0
  4 40  1  0
  5 41  1  1
  8 42  1  0
  8 43  1  0
  8 44  1  0
  9 45  1  0
  9 46  1  0
  9 47  1  0
 10 48  1  1
 11 49  1  0
 11 50  1  0
 12 51  1  0
 12 52  1  0
 14 53  1  0
 14 54  1  0
 14 55  1  0
 15 56  1  6
 16 57  1  0
 16 58  1  0
 17 59  1  0
 19 60  1  6
 20 61  1  0
 20 62  1  0
 21 63  1  0
 21 64  1  0
 22 65  1  1
 23 66  1  0
 25 67  1  0
 25 68  1  0
 25 69  1  0
 26 70  1  0
 26 71  1  0
 26 72  1  0
 28 73  1  0
 28 74  1  0
 28 75  1  0
 29 76  1  0
 29 77  1  0
 30 78  1  0
 30 79  1  0
 32 80  1  0
 32 81  1  0
 32 82  1  0
M  END
>  <meeko>  (12) 
{"is_sidechain": [false], "intermolecular_energy": 2.731, "internal_energy": -0.839}

$$$$
EPH_relaxed_0001_pdb2pqr_Repair_3_r2_0001_out
     RDKit          3D

 82 86  0  0  0  0  0  0  0  0999 V2000
   -4.0310    7.3540   -3.5390 C   0  0  0  0  0  0  0  0  0  0  0  0
   -3.7080    7.2790   -2.0440 C   0  0  2  0  0  0  0  0  0  0  0  0
   -4.9320    6.8580   -1.2060 C   0  0  0  0  0  0  0  0  0  0  0  0
   -6.2010    6.6440   -2.0350 C   0  0  0  0  0  0  0  0  0  0  0  0
   -7.3990    6.4090   -1.1650 C   0  0  2  0  0  0  0  0  0  0  0  0
   -8.4470    5.6500   -1.7820 O   0  0  0  0  0  0  0  0  0  0  0  0
   -8.7650    7.0090   -1.4420 C   0  0  0  0  0  0  0  0  0  0  0  0
   -9.0040    7.8930   -2.6260 C   0  0  0  0  0  0  0  0  0  0  0  0
   -9.7330    7.1360   -0.3070 C   0  0  0  0  0  0  0  0  0  0  0  0
   -3.1820    8.6250   -1.5580 C   0  0  1  0  0  0  0  0  0  0  0  0
   -3.8400    9.0780   -0.2270 C   0  0  0  0  0  0  0  0  0  0  0  0
   -2.7490    9.8310    0.5770 C   0  0  0  0  0  0  0  0  0  0  0  0
   -1.6120   10.0770   -0.4430 C   0  0  1  0  0  0  0  0  0  0  0  0
   -2.0630   11.3340   -1.2520 C   0  0  0  0  0  0  0  0  0  0  0  0
   -0.1780   10.2570    0.1510 C   0  0  2  0  0  0  0  0  0  0  0  0
   -0.0020   11.4740    1.0760 C   0  0  0  0  0  0  0  0  0  0  0  0
    0.4250   12.7340    0.3980 C   0  0  0  0  0  0  0  0  0  0  0  0
    0.9330   12.8190   -0.8460 C   0  0  0  0  0  0  0  0  0  0  0  0
    1.2130   11.5560   -1.6710 C   0  0  1  0  0  0  0  0  0  0  0  0
    2.6220   11.6590   -2.3130 C   0  0  0  0  0  0  0  0  0  0  0  0
    2.8030   12.9380   -3.1240 C   0  0  0  0  0  0  0  0  0  0  0  0
    2.5730   14.1720   -2.2560 C   0  0  2  0  0  0  0  0  0  0  0  0
    3.6130   14.2470   -1.2760 O   0  0  0  0  0  0  0  0  0  0  0  0
    1.1880   14.1750   -1.5490 C   0  0  0  0  0  0  0  0  0  0  0  0
    0.0700   14.3980   -2.5970 C   0  0  0  0  0  0  0  0  0  0  0  0
    1.1410   15.4000   -0.5960 C   0  0  0  0  0  0  0  0  0  0  0  0
    0.9830   10.1740   -0.9210 C   0  0  1  0  0  0  0  0  0  0  0  0
    2.2750    9.7660   -0.1490 C   0  0  0  0  0  0  0  0  0  0  0  0
    0.7310    9.0450   -1.9900 C   0  0  0  0  0  0  0  0  0  0  0  0
   -0.7250    8.8360   -2.4490 C   0  0  0  0  0  0  0  0  0  0  0  0
   -1.6680    8.7270   -1.2470 C   0  0  2  0  0  0  0  0  0  0  0  0
   -1.2530    7.4580   -0.4270 C   0  0  0  0  0  0  0  0  0  0  0  0
   -5.0946    7.6010   -3.6724 H   0  0  0  0  0  0  0  0  0  0  0  0
   -3.4121    8.1323   -4.0093 H   0  0  0  0  0  0  0  0  0  0  0  0
   -3.8184    6.3826   -4.0093 H   0  0  0  0  0  0  0  0  0  0  0  0
   -2.9354    6.5075   -1.9104 H   0  0  0  0  0  0  0  0  0  0  0  0
   -4.6920    5.9171   -0.6891 H   0  0  0  0  0  0  0  0  0  0  0  0
   -5.1403    7.6802   -0.5056 H   0  0  0  0  0  0  0  0  0  0  0  0
   -6.3784    7.5371   -2.6522 H   0  0  0  0  0  0  0  0  0  0  0  0
   -6.0537    5.7533   -2.6634 H   0  0  0  0  0  0  0  0  0  0  0  0
   -6.7699    6.3918   -0.2628 H   0  0  0  0  0  0  0  0  0  0  0  0
   -9.2767    8.9015   -2.2815 H   0  0  0  0  0  0  0  0  0  0  0  0
   -8.0885    7.9480   -3.2333 H   0  0  0  0  0  0  0  0  0  0  0  0
   -9.8225    7.4792   -3.2333 H   0  0  0  0  0  0  0  0  0  0  0  0
   -9.1905    7.0648    0.6473 H   0  0  0  0  0  0  0  0  0  0  0  0
  -10.2430    8.1088   -0.3672 H   0  0  0  0  0  0  0  0  0  0  0  0
  -10.4767    6.3277   -0.3672 H   0  0  0  0  0  0  0  0  0  0  0  0
   -3.4285    9.2457   -2.4320 H   0  0  0  0  0  0  0  0  0  0  0  0
   -4.6888    9.7469   -0.4323 H   0  0  0  0  0  0  0  0  0  0  0  0
   -4.2228    8.2155    0.3382 H   0  0  0  0  0  0  0  0  0  0  0  0
   -3.1390   10.7851    0.9613 H   0  0  0  0  0  0  0  0  0  0  0  0
   -2.4073    9.2596    1.4526 H   0  0  0  0  0  0  0  0  0  0  0  0
   -2.3504   12.1350   -0.5550 H   0  0  0  0  0  0  0  0  0  0  0  0
   -1.2328   11.6796   -1.8855 H   0  0  0  0  0  0  0  0  0  0  0  0
   -2.9236   11.0730   -1.8855 H   0  0  0  0  0  0  0  0  0  0  0  0
   -0.0792    9.3731    0.7983 H   0  0  0  0  0  0  0  0  0  0  0  0
   -0.9644   11.6649    1.5733 H   0  0  0  0  0  0  0  0  0  0  0  0
    0.8091   11.2128    1.7716 H   0  0  0  0  0  0  0  0  0  0  0  0
    0.3153   13.6718    0.9624 H   0  0  0  0  0  0  0  0  0  0  0  0
    0.4455   11.5297   -2.4586 H   0  0  0  0  0  0  0  0  0  0  0  0
    3.3765   11.6391   -1.5127 H   0  0  0  0  0  0  0  0  0  0  0  0
    2.7387   10.8083   -3.0005 H   0  0  0  0  0  0  0  0  0  0  0  0
    3.8262   12.9670   -3.5268 H   0  0  0  0  0  0  0  0  0  0  0  0
    2.0672   12.9421   -3.9417 H   0  0  0  0  0  0  0  0  0  0  0  0
    2.5883   15.0491   -2.9197 H   0  0  0  0  0  0  0  0  0  0  0  0
    3.6270   15.1560   -0.9310 H   0  0  0  0  0  0  0  0  0  0  0  0
   -0.8830   14.5881   -2.0816 H   0  0  0  0  0  0  0  0  0  0  0  0
    0.3251   15.2630   -3.2269 H   0  0  0  0  0  0  0  0  0  0  0  0
   -0.0263   13.5014   -3.2269 H   0  0  0  0  0  0  0  0  0  0  0  0
    1.1543   15.0532    0.4478 H   0  0  0  0  0  0  0  0  0  0  0  0
    2.0152   16.0417   -0.7804 H   0  0  0  0  0  0  0  0  0  0  0  0
    0.2202   15.9729   -0.7804 H   0  0  0  0  0  0  0  0  0  0  0  0
    2.0892    9.8247    0.9336 H   0  0  0  0  0  0  0  0  0  0  0  0
    2.5531    8.7363   -0.4180 H   0  0  0  0  0  0  0  0  0  0  0  0
    3.0941   10.4492   -0.4180 H   0  0  0  0  0  0  0  0  0  0  0  0
    1.3287    9.2902   -2.8803 H   0  0  0  0  0  0  0  0  0  0  0  0
    1.0129    8.1067   -1.4899 H   0  0  0  0  0  0  0  0  0  0  0  0
   -1.0322    9.6895   -3.0713 H   0  0  0  0  0  0  0  0  0  0  0  0
   -0.7806    7.9003   -3.0246 H   0  0  0  0  0  0  0  0  0  0  0  0
   -1.3246    7.6769    0.6486 H   0  0  0  0  0  0  0  0  0  0  0  0
   -1.9252    6.6239   -0.6770 H   0  0  0  0  0  0  0  0  0  0  0  0
   -0.2179    7.1823   -0.6770 H   0  0  0  0  0  0  0  0  0  0  0  0
  1  2  1  0
  2  3  1  0
  3  4  1  0
  4  5  1  0
  5  6  1  0
  6  7  1  0
  7  8  1  0
  7  9  1  0
  2 10  1  0
 10 11  1  0
 11 12  1  0
 12 13  1  0
 13 14  1  6
 13 15  1  0
 15 16  1  0
 16 17  1  0
 17 18  2  0
 18 19  1  0
 19 20  1  0
 20 21  1  0
 21 22  1  0
 22 23  1  0
 22 24  1  0
 24 25  1  0
 24 26  1  0
 19 27  1  0
 27 28  1  1
 27 29  1  0
 29 30  1  0
 30 31  1  0
 31 32  1  1
  7  5  1  0
 31 10  1  0
 31 13  1  0
 27 15  1  0
 24 18  1  0
  1 33  1  0
  1 34  1  0
  1 35  1  0
  2 36  1  6
  3 37  1  0
  3 38  1  0
  4 39  1  0
  4 40  1  0
  5 41  1  1
  8 42  1  0
  8 43  1  0
  8 44  1  0
  9 45  1  0
  9 46  1  0
  9 47  1  0
 10 48  1  6
 11 49  1  0
 11 50  1  0
 12 51  1  0
 12 52  1  0
 14 53  1  0
 14 54  1  0
 14 55  1  0
 15 56  1  1
 16 57  1  0
 16 58  1  0
 17 59  1  0
 19 60  1  6
 20 61  1  0
 20 62  1  0
 21 63  1  0
 21 64  1  0
 22 65  1  6
 23 66  1  0
 25 67  1  0
 25 68  1  0
 25 69  1  0
 26 70  1  0
 26 71  1  0
 26 72  1  0
 28 73  1  0
 28 74  1  0
 28 75  1  0
 29 76  1  0
 29 77  1  0
 30 78  1  0
 30 79  1  0
 32 80  1  0
 32 81  1  0
 32 82  1  0
M  END
>  <meeko>  (13) 
{"is_sidechain": [false], "intermolecular_energy": 2.731, "internal_energy": -0.839}

$$$$
EPH_relaxed_0001_pdb2pqr_Repair_3_r2_0001_out
     RDKit          3D

 82 86  0  0  0  0  0  0  0  0999 V2000
    3.1920   18.7140   -2.2240 C   0  0  0  0  0  0  0  0  0  0  0  0
    1.7390   18.7340   -1.7420 C   0  0  2  0  0  0  0  0  0  0  0  0
    1.4870   19.8430   -0.7010 C   0  0  0  0  0  0  0  0  0  0  0  0
    1.5120   19.3470    0.7470 C   0  0  0  0  0  0  0  0  0  0  0  0
    2.6580   19.9340    1.5140 C   0  0  2  0  0  0  0  0  0  0  0  0
    3.8320   20.1930    0.7330 O   0  0  0  0  0  0  0  0  0  0  0  0
    3.9620   19.1990    1.7620 C   0  0  0  0  0  0  0  0  0  0  0  0
    4.1880   17.8130    1.2440 C   0  0  0  0  0  0  0  0  0  0  0  0
    4.8190   19.6310    2.9110 C   0  0  0  0  0  0  0  0  0  0  0  0
    1.3680   17.3770   -1.1560 C   0  0  1  0  0  0  0  0  0  0  0  0
    0.1550   17.4540   -0.1900 C   0  0  0  0  0  0  0  0  0  0  0  0
   -0.6450   16.1390   -0.3700 C   0  0  0  0  0  0  0  0  0  0  0  0
    0.2990   15.2150   -1.1740 C   0  0  1  0  0  0  0  0  0  0  0  0
    1.2800   14.6220   -0.1140 C   0  0  0  0  0  0  0  0  0  0  0  0
   -0.3870   14.0910   -2.0180 C   0  0  2  0  0  0  0  0  0  0  0  0
   -1.1780   13.0540   -1.2020 C   0  0  0  0  0  0  0  0  0  0  0  0
   -0.3990   11.8590   -0.7630 C   0  0  0  0  0  0  0  0  0  0  0  0
    0.8000   11.4860   -1.2470 C   0  0  0  0  0  0  0  0  0  0  0  0
    1.4500   12.2440   -2.4110 C   0  0  1  0  0  0  0  0  0  0  0  0
    1.9810   11.2290   -3.4580 C   0  0  0  0  0  0  0  0  0  0  0  0
    2.9150   10.1910   -2.8440 C   0  0  0  0  0  0  0  0  0  0  0  0
    2.2140    9.4180   -1.7290 C   0  0  2  0  0  0  0  0  0  0  0  0
    1.1670    8.6300   -2.3030 O   0  0  0  0  0  0  0  0  0  0  0  0
    1.6290   10.3370   -0.6210 C   0  0  0  0  0  0  0  0  0  0  0  0
    2.7840   10.9630    0.2000 C   0  0  0  0  0  0  0  0  0  0  0  0
    0.8290    9.4450    0.3660 C   0  0  0  0  0  0  0  0  0  0  0  0
    0.5700   13.3930   -3.0670 C   0  0  1  0  0  0  0  0  0  0  0  0
   -0.3480   12.7930   -4.1760 C   0  0  0  0  0  0  0  0  0  0  0  0
    1.5210   14.4220   -3.7870 C   0  0  0  0  0  0  0  0  0  0  0  0
    2.0710   15.5770   -2.9290 C   0  0  0  0  0  0  0  0  0  0  0  0
    0.9460   16.2650   -2.1490 C   0  0  2  0  0  0  0  0  0  0  0  0
   -0.0440   16.8900   -3.1900 C   0  0  0  0  0  0  0  0  0  0  0  0
    3.8665   18.7047   -1.3551 H   0  0  0  0  0  0  0  0  0  0  0  0
    3.3644   17.8134   -2.8316 H   0  0  0  0  0  0  0  0  0  0  0  0
    3.3891   19.6095   -2.8316 H   0  0  0  0  0  0  0  0  0  0  0  0
    1.1042   18.9497   -2.6141 H   0  0  0  0  0  0  0  0  0  0  0  0
    2.2649   20.6119   -0.8179 H   0  0  0  0  0  0  0  0  0  0  0  0
    0.4765   20.2353   -0.8883 H   0  0  0  0  0  0  0  0  0  0  0  0
    0.5703   19.6333    1.2382 H   0  0  0  0  0  0  0  0  0  0  0  0
    1.6327   18.2537    0.7331 H   0  0  0  0  0  0  0  0  0  0  0  0
    1.9671   20.4599    2.1893 H   0  0  0  0  0  0  0  0  0  0  0  0
    4.3011   17.1192    2.0901 H   0  0  0  0  0  0  0  0  0  0  0  0
    3.3280   17.5060    0.6306 H   0  0  0  0  0  0  0  0  0  0  0  0
    5.1009   17.7951    0.6306 H   0  0  0  0  0  0  0  0  0  0  0  0
    4.3181   19.3785    3.8572 H   0  0  0  0  0  0  0  0  0  0  0  0
    5.7886   19.1139    2.8600 H   0  0  0  0  0  0  0  0  0  0  0  0
    4.9800   20.7180    2.8600 H   0  0  0  0  0  0  0  0  0  0  0  0
    2.3243   17.1146   -0.6801 H   0  0  0  0  0  0  0  0  0  0  0  0
    0.5037   17.5458    0.8492 H   0  0  0  0  0  0  0  0  0  0  0  0
   -0.4714   18.3306   -0.4121 H   0  0  0  0  0  0  0  0  0  0  0  0
   -0.8851   15.6937    0.6068 H   0  0  0  0  0  0  0  0  0  0  0  0
   -1.6051   16.3015   -0.8817 H   0  0  0  0  0  0  0  0  0  0  0  0
    0.9078   14.8470    0.8964 H   0  0  0  0  0  0  0  0  0  0  0  0
    1.3471   13.5320   -0.2458 H   0  0  0  0  0  0  0  0  0  0  0  0
    2.2763   15.0692   -0.2458 H   0  0  0  0  0  0  0  0  0  0  0  0
   -1.1367   14.6527   -2.5945 H   0  0  0  0  0  0  0  0  0  0  0  0
   -1.5679   13.5544   -0.3034 H   0  0  0  0  0  0  0  0  0  0  0  0
   -1.9642   12.6754   -1.8718 H   0  0  0  0  0  0  0  0  0  0  0  0
   -0.8425   11.2298    0.0228 H   0  0  0  0  0  0  0  0  0  0  0  0
    2.2900   12.8060   -1.9768 H   0  0  0  0  0  0  0  0  0  0  0  0
    1.1242   10.7086   -3.9108 H   0  0  0  0  0  0  0  0  0  0  0  0
    2.5548   11.7924   -4.2086 H   0  0  0  0  0  0  0  0  0  0  0  0
    3.2333    9.4858   -3.6259 H   0  0  0  0  0  0  0  0  0  0  0  0
    3.7856   10.7107   -2.4174 H   0  0  0  0  0  0  0  0  0  0  0  0
    2.9687    8.7824   -1.2428 H   0  0  0  0  0  0  0  0  0  0  0  0
    0.4700    8.5330   -1.6320 H   0  0  0  0  0  0  0  0  0  0  0  0
    2.5742   10.8493    1.2738 H   0  0  0  0  0  0  0  0  0  0  0  0
    3.7269   10.4525   -0.0454 H   0  0  0  0  0  0  0  0  0  0  0  0
    2.8710   12.0317   -0.0454 H   0  0  0  0  0  0  0  0  0  0  0  0
    1.0803    9.7252    1.3996 H   0  0  0  0  0  0  0  0  0  0  0  0
   -0.2487    9.5885    0.1989 H   0  0  0  0  0  0  0  0  0  0  0  0
    1.0885    8.3892    0.1989 H   0  0  0  0  0  0  0  0  0  0  0  0
   -1.1811   12.2485   -3.7075 H   0  0  0  0  0  0  0  0  0  0  0  0
   -0.7466   13.6055   -4.8013 H   0  0  0  0  0  0  0  0  0  0  0  0
    0.2362   12.1019   -4.8013 H   0  0  0  0  0  0  0  0  0  0  0  0
    2.3813   13.8609   -4.1807 H   0  0  0  0  0  0  0  0  0  0  0  0
    0.8960   14.9046   -4.5528 H   0  0  0  0  0  0  0  0  0  0  0  0
    2.8093   15.1773   -2.2183 H   0  0  0  0  0  0  0  0  0  0  0  0
    2.5389   16.3167   -3.5952 H   0  0  0  0  0  0  0  0  0  0  0  0
   -0.8584   17.4041   -2.6586 H   0  0  0  0  0  0  0  0  0  0  0  0
    0.4951   17.6118   -3.8212 H   0  0  0  0  0  0  0  0  0  0  0  0
   -0.4638   16.0929   -3.8212 H   0  0  0  0  0  0  0  0  0  0  0  0
  1  2  1  0
  2  3  1  0
  3  4  1  0
  4  5  1  0
  5  6  1  0
  6  7  1  0
  7  8  1  0
  7  9  1  0
  2 10  1  0
 10 11  1  0
 11 12  1  0
 12 13  1  0
 13 14  1  1
 13 15  1  0
 15 16  1  0
 16 17  1  0
 17 18  2  0
 18 19  1  0
 19 20  1  0
 20 21  1  0
 21 22  1  0
 22 23  1  0
 22 24  1  0
 24 25  1  0
 24 26  1  0
 19 27  1  0
 27 28  1  6
 27 29  1  0
 29 30  1  0
 30 31  1  0
 31 32  1  6
  7  5  1  0
 31 10  1  0
 31 13  1  0
 27 15  1  0
 24 18  1  0
  1 33  1  0
  1 34  1  0
  1 35  1  0
  2 36  1  6
  3 37  1  0
  3 38  1  0
  4 39  1  0
  4 40  1  0
  5 41  1  1
  8 42  1  0
  8 43  1  0
  8 44  1  0
  9 45  1  0
  9 46  1  0
  9 47  1  0
 10 48  1  1
 11 49  1  0
 11 50  1  0
 12 51  1  0
 12 52  1  0
 14 53  1  0
 14 54  1  0
 14 55  1  0
 15 56  1  6
 16 57  1  0
 16 58  1  0
 17 59  1  0
 19 60  1  1
 20 61  1  0
 20 62  1  0
 21 63  1  0
 21 64  1  0
 22 65  1  1
 23 66  1  0
 25 67  1  0
 25 68  1  0
 25 69  1  0
 26 70  1  0
 26 71  1  0
 26 72  1  0
 28 73  1  0
 28 74  1  0
 28 75  1  0
 29 76  1  0
 29 77  1  0
 30 78  1  0
 30 79  1  0
 32 80  1  0
 32 81  1  0
 32 82  1  0
M  END
>  <meeko>  (14) 
{"is_sidechain": [false], "intermolecular_energy": 2.731, "internal_energy": -0.839}

$$$$
EPH_relaxed_0001_pdb2pqr_Repair_3_r2_0001_out
     RDKit          3D

 82 86  0  0  0  0  0  0  0  0999 V2000
   -2.3000    7.7450   -2.3320 C   0  0  0  0  0  0  0  0  0  0  0  0
   -2.2640    8.3230   -0.9140 C   0  0  2  0  0  0  0  0  0  0  0  0
   -3.6460    8.2750   -0.2330 C   0  0  0  0  0  0  0  0  0  0  0  0
   -4.7990    8.6980   -1.1480 C   0  0  0  0  0  0  0  0  0  0  0  0
   -5.9680    7.7680   -1.0320 C   0  0  2  0  0  0  0  0  0  0  0  0
   -5.6230    6.3810   -0.9270 O   0  0  0  0  0  0  0  0  0  0  0  0
   -6.3500    6.7650   -2.1050 C   0  0  0  0  0  0  0  0  0  0  0  0
   -5.5640    6.6410   -3.3720 C   0  0  0  0  0  0  0  0  0  0  0  0
   -7.7560    6.2530   -2.1380 C   0  0  0  0  0  0  0  0  0  0  0  0
   -1.7500    9.7570   -0.9510 C   0  0  1  0  0  0  0  0  0  0  0  0
   -1.3550   10.2860    0.4540 C   0  0  0  0  0  0  0  0  0  0  0  0
   -0.1360   11.2230    0.2520 C   0  0  0  0  0  0  0  0  0  0  0  0
   -0.0780   11.4650   -1.2740 C   0  0  1  0  0  0  0  0  0  0  0  0
   -1.1390   12.5780   -1.5440 C   0  0  0  0  0  0  0  0  0  0  0  0
    1.3200   11.8450   -1.8610 C   0  0  2  0  0  0  0  0  0  0  0  0
    1.9100   13.1660   -1.3380 C   0  0  0  0  0  0  0  0  0  0  0  0
    1.5590   14.3800   -2.1320 C   0  0  0  0  0  0  0  0  0  0  0  0
    1.0410   14.3790   -3.3750 C   0  0  0  0  0  0  0  0  0  0  0  0
    0.8480   13.0670   -4.1470 C   0  0  1  0  0  0  0  0  0  0  0  0
    1.3810   13.2350   -5.5940 C   0  0  0  0  0  0  0  0  0  0  0  0
    0.7610   14.4300   -6.3110 C   0  0  0  0  0  0  0  0  0  0  0  0
    1.0240   15.7230   -5.5430 C   0  0  2  0  0  0  0  0  0  0  0  0
    2.4260   16.0030   -5.5780 O   0  0  0  0  0  0  0  0  0  0  0  0
    0.5380   15.6690   -4.0680 C   0  0  0  0  0  0  0  0  0  0  0  0
   -1.0110   15.6690   -4.0290 C   0  0  0  0  0  0  0  0  0  0  0  0
    0.9890   16.9800   -3.3680 C   0  0  0  0  0  0  0  0  0  0  0  0
    1.4060   11.7580   -3.4390 C   0  0  1  0  0  0  0  0  0  0  0  0
    2.9120   11.5630   -3.7920 C   0  0  0  0  0  0  0  0  0  0  0  0
    0.6490   10.5020   -4.0110 C   0  0  0  0  0  0  0  0  0  0  0  0
   -0.6660   10.1060   -3.3130 C   0  0  0  0  0  0  0  0  0  0  0  0
   -0.4810   10.0370   -1.7940 C   0  0  2  0  0  0  0  0  0  0  0  0
    0.5640    8.9100   -1.4900 C   0  0  0  0  0  0  0  0  0  0  0  0
   -2.3683    6.6484   -2.2793 H   0  0  0  0  0  0  0  0  0  0  0  0
   -3.1752    8.1416   -2.8675 H   0  0  0  0  0  0  0  0  0  0  0  0
   -1.3824    8.0299   -2.8675 H   0  0  0  0  0  0  0  0  0  0  0  0
   -1.5813    7.6991   -0.3186 H   0  0  0  0  0  0  0  0  0  0  0  0
   -3.8310    7.2446    0.1048 H   0  0  0  0  0  0  0  0  0  0  0  0
   -3.6182    8.9918    0.6009 H   0  0  0  0  0  0  0  0  0  0  0  0
   -5.1213    9.7122   -0.8697 H   0  0  0  0  0  0  0  0  0  0  0  0
   -4.4401    8.6698   -2.1874 H   0  0  0  0  0  0  0  0  0  0  0  0
   -6.5500    8.5307   -0.4939 H   0  0  0  0  0  0  0  0  0  0  0  0
   -4.5039    6.4737   -3.1309 H   0  0  0  0  0  0  0  0  0  0  0  0
   -5.9451    5.7919   -3.9583 H   0  0  0  0  0  0  0  0  0  0  0  0
   -5.6652    7.5662   -3.9583 H   0  0  0  0  0  0  0  0  0  0  0  0
   -8.1219    6.1197   -1.1092 H   0  0  0  0  0  0  0  0  0  0  0  0
   -8.3970    6.9754   -2.6645 H   0  0  0  0  0  0  0  0  0  0  0  0
   -7.7824    5.2875   -2.6645 H   0  0  0  0  0  0  0  0  0  0  0  0
   -2.6201   10.2528   -1.4061 H   0  0  0  0  0  0  0  0  0  0  0  0
   -2.1925   10.8441    0.8980 H   0  0  0  0  0  0  0  0  0  0  0  0
   -1.1079    9.4569    1.1334 H   0  0  0  0  0  0  0  0  0  0  0  0
   -0.2818   12.1712    0.7902 H   0  0  0  0  0  0  0  0  0  0  0  0
    0.7953   10.7851    0.6404 H   0  0  0  0  0  0  0  0  0  0  0  0
   -1.5119   12.9692   -0.5859 H   0  0  0  0  0  0  0  0  0  0  0  0
   -0.6762   13.3942   -2.1181 H   0  0  0  0  0  0  0  0  0  0  0  0
   -1.9764   12.1548   -2.1181 H   0  0  0  0  0  0  0  0  0  0  0  0
    1.9672   11.0502   -1.4619 H   0  0  0  0  0  0  0  0  0  0  0  0
    1.5486   13.3161   -0.3100 H   0  0  0  0  0  0  0  0  0  0  0  0
    3.0026   13.0608   -1.4102 H   0  0  0  0  0  0  0  0  0  0  0  0
    1.7386   15.3583   -1.6621 H   0  0  0  0  0  0  0  0  0  0  0  0
   -0.2362   12.8824   -4.1678 H   0  0  0  0  0  0  0  0  0  0  0  0
    2.4714   13.3747   -5.5541 H   0  0  0  0  0  0  0  0  0  0  0  0
    1.1089   12.3300   -6.1570 H   0  0  0  0  0  0  0  0  0  0  0  0
    1.1986   14.5132   -7.3168 H   0  0  0  0  0  0  0  0  0  0  0  0
   -0.3261   14.2752   -6.3764 H   0  0  0  0  0  0  0  0  0  0  0  0
    0.4476   16.5211   -6.0337 H   0  0  0  0  0  0  0  0  0  0  0  0
    2.5420   16.9510   -5.3930 H   0  0  0  0  0  0  0  0  0  0  0  0
   -1.3775   14.6319   -4.0198 H   0  0  0  0  0  0  0  0  0  0  0  0
   -1.3549   16.1875   -3.1219 H   0  0  0  0  0  0  0  0  0  0  0  0
   -1.4002   16.1875   -4.9176 H   0  0  0  0  0  0  0  0  0  0  0  0
    0.9434   16.8475   -2.2770 H   0  0  0  0  0  0  0  0  0  0  0  0
    2.0208   17.2183   -3.6656 H   0  0  0  0  0  0  0  0  0  0  0  0
    0.3222   17.8027   -3.6656 H   0  0  0  0  0  0  0  0  0  0  0  0
    3.4991   11.4870   -2.8649 H   0  0  0  0  0  0  0  0  0  0  0  0
    3.0344   10.6415   -4.3801 H   0  0  0  0  0  0  0  0  0  0  0  0
    3.2651   12.4229   -4.3801 H   0  0  0  0  0  0  0  0  0  0  0  0
    0.4171   10.7056   -5.0668 H   0  0  0  0  0  0  0  0  0  0  0  0
    1.3301    9.6546   -3.8437 H   0  0  0  0  0  0  0  0  0  0  0  0
   -1.4376   10.8540   -3.5480 H   0  0  0  0  0  0  0  0  0  0  0  0
   -0.9700    9.1127   -3.6749 H   0  0  0  0  0  0  0  0  0  0  0  0
    0.6717    8.7938   -0.4015 H   0  0  0  0  0  0  0  0  0  0  0  0
    0.2184    7.9618   -1.9275 H   0  0  0  0  0  0  0  0  0  0  0  0
    1.5356    9.1831   -1.9275 H   0  0  0  0  0  0  0  0  0  0  0  0
  1  2  1  0
  2  3  1  0
  3  4  1  0
  4  5  1  0
  5  6  1  0
  6  7  1  0
  7  8  1  0
  7  9  1  0
  2 10  1  0
 10 11  1  0
 11 12  1  0
 12 13  1  0
 13 14  1  1
 13 15  1  0
 15 16  1  0
 16 17  1  0
 17 18  2  0
 18 19  1  0
 19 20  1  0
 20 21  1  0
 21 22  1  0
 22 23  1  0
 22 24  1  0
 24 25  1  0
 24 26  1  0
 19 27  1  0
 27 28  1  1
 27 29  1  0
 29 30  1  0
 30 31  1  0
 31 32  1  6
  7  5  1  0
 31 10  1  0
 31 13  1  0
 27 15  1  0
 24 18  1  0
  1 33  1  0
  1 34  1  0
  1 35  1  0
  2 36  1  1
  3 37  1  0
  3 38  1  0
  4 39  1  0
  4 40  1  0
  5 41  1  1
  8 42  1  0
  8 43  1  0
  8 44  1  0
  9 45  1  0
  9 46  1  0
  9 47  1  0
 10 48  1  6
 11 49  1  0
 11 50  1  0
 12 51  1  0
 12 52  1  0
 14 53  1  0
 14 54  1  0
 14 55  1  0
 15 56  1  1
 16 57  1  0
 16 58  1  0
 17 59  1  0
 19 60  1  6
 20 61  1  0
 20 62  1  0
 21 63  1  0
 21 64  1  0
 22 65  1  6
 23 66  1  0
 25 67  1  0
 25 68  1  0
 25 69  1  0
 26 70  1  0
 26 71  1  0
 26 72  1  0
 28 73  1  0
 28 74  1  0
 28 75  1  0
 29 76  1  0
 29 77  1  0
 30 78  1  0
 30 79  1  0
 32 80  1  0
 32 81  1  0
 32 82  1  0
M  END
>  <meeko>  (15) 
{"is_sidechain": [false], "intermolecular_energy": 2.731, "internal_energy": -0.839}

$$$$
EPH_relaxed_0001_pdb2pqr_Repair_3_r2_0001_out
     RDKit          3D

 82 86  0  0  0  0  0  0  0  0999 V2000
    0.2160   17.7340   -2.5390 C   0  0  0  0  0  0  0  0  0  0  0  0
    0.1390   17.0060   -1.1940 C   0  0  2  0  0  0  0  0  0  0  0  0
    0.3160   17.9680   -0.0030 C   0  0  0  0  0  0  0  0  0  0  0  0
    1.1210   19.2260   -0.3410 C   0  0  0  0  0  0  0  0  0  0  0  0
    2.5610   19.0830    0.0470 C   0  0  2  0  0  0  0  0  0  0  0  0
    2.8040   18.1680    1.1230 O   0  0  0  0  0  0  0  0  0  0  0  0
    3.1190   19.5460    1.3790 C   0  0  0  0  0  0  0  0  0  0  0  0
    2.2450   20.1890    2.4100 C   0  0  0  0  0  0  0  0  0  0  0  0
    4.5870   19.8190    1.4850 C   0  0  0  0  0  0  0  0  0  0  0  0
    1.1930   15.9070   -1.1370 C   0  0  1  0  0  0  0  0  0  0  0  0
    1.4150   15.3670    0.3000 C   0  0  0  0  0  0  0  0  0  0  0  0
    1.7200   13.8520    0.1670 C   0  0  0  0  0  0  0  0  0  0  0  0
    1.9900   13.6400   -1.3410 C   0  0  1  0  0  0  0  0  0  0  0  0
    3.4720   14.0850   -1.5490 C   0  0  0  0  0  0  0  0  0  0  0  0
    1.7370   12.1990   -1.8920 C   0  0  2  0  0  0  0  0  0  0  0  0
    2.6270   11.1020   -1.2830 C   0  0  0  0  0  0  0  0  0  0  0  0
    3.9100   10.8480   -2.0030 C   0  0  0  0  0  0  0  0  0  0  0  0
    4.2050   11.2690   -3.2470 C   0  0  0  0  0  0  0  0  0  0  0  0
    3.1600   11.9990   -4.1010 C   0  0  1  0  0  0  0  0  0  0  0  0
    3.1480   11.3970   -5.5310 C   0  0  0  0  0  0  0  0  0  0  0  0
    4.5300   11.3960   -6.1760 C   0  0  0  0  0  0  0  0  0  0  0  0
    5.5280   10.6120   -5.3270 C   0  0  2  0  0  0  0  0  0  0  0  0
    5.1540    9.2310   -5.3340 O   0  0  0  0  0  0  0  0  0  0  0  0
    5.6190   11.1220   -3.8620 C   0  0  0  0  0  0  0  0  0  0  0  0
    6.3080   12.5090   -3.8350 C   0  0  0  0  0  0  0  0  0  0  0  0
    6.5520   10.1590   -3.0780 C   0  0  0  0  0  0  0  0  0  0  0  0
    1.7040   12.1060   -3.4720 C   0  0  1  0  0  0  0  0  0  0  0  0
    0.8760   10.8330   -3.8260 C   0  0  0  0  0  0  0  0  0  0  0  0
    0.9500   13.3230   -4.1270 C   0  0  0  0  0  0  0  0  0  0  0  0
    1.1450   14.7000   -3.4650 C   0  0  0  0  0  0  0  0  0  0  0  0
    0.9210   14.6180   -1.9520 C   0  0  2  0  0  0  0  0  0  0  0  0
   -0.5680   14.1940   -1.7110 C   0  0  0  0  0  0  0  0  0  0  0  0
    0.3302   18.8142   -2.3653 H   0  0  0  0  0  0  0  0  0  0  0  0
    1.0797   17.3609   -3.1090 H   0  0  0  0  0  0  0  0  0  0  0  0
   -0.7066   17.5499   -3.1090 H   0  0  0  0  0  0  0  0  0  0  0  0
   -0.8646   16.5628   -1.1142 H   0  0  0  0  0  0  0  0  0  0  0  0
   -0.6808   18.2768    0.3449 H   0  0  0  0  0  0  0  0  0  0  0  0
    0.8802   17.4234    0.7684 H   0  0  0  0  0  0  0  0  0  0  0  0
    1.0600   19.4080   -1.4241 H   0  0  0  0  0  0  0  0  0  0  0  0
    0.6953   20.0679    0.2247 H   0  0  0  0  0  0  0  0  0  0  0  0
    2.8816   19.2629   -0.9898 H   0  0  0  0  0  0  0  0  0  0  0  0
    2.6063   19.9232    3.4144 H   0  0  0  0  0  0  0  0  0  0  0  0
    2.2754   21.2816    2.2867 H   0  0  0  0  0  0  0  0  0  0  0  0
    1.2109   19.8347    2.2867 H   0  0  0  0  0  0  0  0  0  0  0  0
    4.8744   19.8724    2.5455 H   0  0  0  0  0  0  0  0  0  0  0  0
    5.1469   19.0096    0.9937 H   0  0  0  0  0  0  0  0  0  0  0  0
    4.8185   20.7756    0.9937 H   0  0  0  0  0  0  0  0  0  0  0  0
    2.0486   16.4493   -1.5658 H   0  0  0  0  0  0  0  0  0  0  0  0
    2.2634   15.8841    0.7721 H   0  0  0  0  0  0  0  0  0  0  0  0
    0.5276   15.5375    0.9273 H   0  0  0  0  0  0  0  0  0  0  0  0
    2.6044   13.5801    0.7619 H   0  0  0  0  0  0  0  0  0  0  0  0
    0.8938   13.2260    0.5352 H   0  0  0  0  0  0  0  0  0  0  0  0
    3.9524   14.2292   -0.5700 H   0  0  0  0  0  0  0  0  0  0  0  0
    4.0122   13.3094   -2.1118 H   0  0  0  0  0  0  0  0  0  0  0  0
    3.4956   15.0298   -2.1118 H   0  0  0  0  0  0  0  0  0  0  0  0
    0.7174   11.9866   -1.5381 H   0  0  0  0  0  0  0  0  0  0  0  0
    2.8689   11.3949   -0.2507 H   0  0  0  0  0  0  0  0  0  0  0  0
    2.0494   10.1685   -1.3526 H   0  0  0  0  0  0  0  0  0  0  0  0
    4.6791   10.2679   -1.4721 H   0  0  0  0  0  0  0  0  0  0  0  0
    3.4803   13.0506   -4.1414 H   0  0  0  0  0  0  0  0  0  0  0  0
    2.7845   10.3604   -5.4743 H   0  0  0  0  0  0  0  0  0  0  0  0
    2.4900   12.0230   -6.1516 H   0  0  0  0  0  0  0  0  0  0  0  0
    4.4623   10.9329   -7.1715 H   0  0  0  0  0  0  0  0  0  0  0  0
    4.8797   12.4357   -6.2584 H   0  0  0  0  0  0  0  0  0  0  0  0
    6.5240   10.7557   -5.7711 H   0  0  0  0  0  0  0  0  0  0  0  0
    5.0250    8.9570   -4.4100 H   0  0  0  0  0  0  0  0  0  0  0  0
    6.4631   12.8211   -2.7917 H   0  0  0  0  0  0  0  0  0  0  0  0
    7.2795   12.4459   -4.3471 H   0  0  0  0  0  0  0  0  0  0  0  0
    5.6708   13.2450   -4.3471 H   0  0  0  0  0  0  0  0  0  0  0  0
    6.4080   10.3076   -1.9976 H   0  0  0  0  0  0  0  0  0  0  0  0
    6.3093    9.1187   -3.3406 H   0  0  0  0  0  0  0  0  0  0  0  0
    7.5994   10.3686   -3.3406 H   0  0  0  0  0  0  0  0  0  0  0  0
    0.5529   10.3363   -2.8992 H   0  0  0  0  0  0  0  0  0  0  0  0
   -0.0074   11.1220   -4.4142 H   0  0  0  0  0  0  0  0  0  0  0  0
    1.4984   10.1426   -4.4142 H   0  0  0  0  0  0  0  0  0  0  0  0
    1.2917   13.4038   -5.1695 H   0  0  0  0  0  0  0  0  0  0  0  0
   -0.1197   13.0959   -4.0081 H   0  0  0  0  0  0  0  0  0  0  0  0
    2.1696   15.0504   -3.6585 H   0  0  0  0  0  0  0  0  0  0  0  0
    0.4115   15.4006   -3.8905 H   0  0  0  0  0  0  0  0  0  0  0  0
   -0.7630   14.1385   -0.6299 H   0  0  0  0  0  0  0  0  0  0  0  0
   -1.2391   14.9367   -2.1670 H   0  0  0  0  0  0  0  0  0  0  0  0
   -0.7472   13.2091   -2.1670 H   0  0  0  0  0  0  0  0  0  0  0  0
  1  2  1  0
  2  3  1  0
  3  4  1  0
  4  5  1  0
  5  6  1  0
  6  7  1  0
  7  8  1  0
  7  9  1  0
  2 10  1  0
 10 11  1  0
 11 12  1  0
 12 13  1  0
 13 14  1  1
 13 15  1  0
 15 16  1  0
 16 17  1  0
 17 18  2  0
 18 19  1  0
 19 20  1  0
 20 21  1  0
 21 22  1  0
 22 23  1  0
 22 24  1  0
 24 25  1  0
 24 26  1  0
 19 27  1  0
 27 28  1  1
 27 29  1  0
 29 30  1  0
 30 31  1  0
 31 32  1  6
  7  5  1  0
 31 10  1  0
 31 13  1  0
 27 15  1  0
 24 18  1  0
  1 33  1  0
  1 34  1  0
  1 35  1  0
  2 36  1  1
  3 37  1  0
  3 38  1  0
  4 39  1  0
  4 40  1  0
  5 41  1  6
  8 42  1  0
  8 43  1  0
  8 44  1  0
  9 45  1  0
  9 46  1  0
  9 47  1  0
 10 48  1  6
 11 49  1  0
 11 50  1  0
 12 51  1  0
 12 52  1  0
 14 53  1  0
 14 54  1  0
 14 55  1  0
 15 56  1  1
 16 57  1  0
 16 58  1  0
 17 59  1  0
 19 60  1  6
 20 61  1  0
 20 62  1  0
 21 63  1  0
 21 64  1  0
 22 65  1  6
 23 66  1  0
 25 67  1  0
 25 68  1  0
 25 69  1  0
 26 70  1  0
 26 71  1  0
 26 72  1  0
 28 73  1  0
 28 74  1  0
 28 75  1  0
 29 76  1  0
 29 77  1  0
 30 78  1  0
 30 79  1  0
 32 80  1  0
 32 81  1  0
 32 82  1  0
M  END
>  <meeko>  (16) 
{"is_sidechain": [false], "intermolecular_energy": 2.731, "internal_energy": -0.839}

$$$$
EPH_relaxed_0001_pdb2pqr_Repair_3_r2_0001_out
     RDKit          3D

 82 86  0  0  0  0  0  0  0  0999 V2000
   -0.9360    9.2260   -0.5350 C   0  0  0  0  0  0  0  0  0  0  0  0
   -0.1510   10.0970   -1.5190 C   0  0  2  0  0  0  0  0  0  0  0  0
    1.0970    9.3760   -2.0660 C   0  0  0  0  0  0  0  0  0  0  0  0
    1.7760   10.1120   -3.2240 C   0  0  0  0  0  0  0  0  0  0  0  0
    3.2660    9.9580   -3.1810 C   0  0  2  0  0  0  0  0  0  0  0  0
    3.9790   11.1340   -2.7750 O   0  0  0  0  0  0  0  0  0  0  0  0
    4.2100   10.6860   -4.1210 C   0  0  0  0  0  0  0  0  0  0  0  0
    3.6980   11.6220   -5.1700 C   0  0  0  0  0  0  0  0  0  0  0  0
    5.5780   10.1200   -4.3410 C   0  0  0  0  0  0  0  0  0  0  0  0
    0.2560   11.4030   -0.8460 C   0  0  1  0  0  0  0  0  0  0  0  0
    1.4540   11.2270    0.1260 C   0  0  0  0  0  0  0  0  0  0  0  0
    2.2960   12.5250    0.0360 C   0  0  0  0  0  0  0  0  0  0  0  0
    1.3910   13.5270   -0.7190 C   0  0  1  0  0  0  0  0  0  0  0  0
    0.4170   14.0840    0.3660 C   0  0  0  0  0  0  0  0  0  0  0  0
    2.1220   14.6780   -1.4840 C   0  0  2  0  0  0  0  0  0  0  0  0
    2.9360   15.6370   -0.5970 C   0  0  0  0  0  0  0  0  0  0  0  0
    2.1890   16.8270   -0.0920 C   0  0  0  0  0  0  0  0  0  0  0  0
    1.0080   17.2670   -0.5640 C   0  0  0  0  0  0  0  0  0  0  0  0
    0.3490   16.6030   -1.7800 C   0  0  1  0  0  0  0  0  0  0  0  0
   -0.1370   17.6970   -2.7670 C   0  0  0  0  0  0  0  0  0  0  0  0
   -1.0460   18.7250   -2.1000 C   0  0  0  0  0  0  0  0  0  0  0  0
   -0.3350   19.4050   -0.9320 C   0  0  2  0  0  0  0  0  0  0  0  0
    0.7430   20.1930   -1.4450 O   0  0  0  0  0  0  0  0  0  0  0  0
    0.2080   18.4010    0.1230 C   0  0  0  0  0  0  0  0  0  0  0  0
   -0.9760   17.7630    0.8920 C   0  0  0  0  0  0  0  0  0  0  0  0
    1.0240   19.2040    1.1720 C   0  0  0  0  0  0  0  0  0  0  0  0
    1.2010   15.4700   -2.4980 C   0  0  1  0  0  0  0  0  0  0  0  0
    2.1510   16.1070   -3.5570 C   0  0  0  0  0  0  0  0  0  0  0  0
    0.2270   14.5180   -3.2890 C   0  0  0  0  0  0  0  0  0  0  0  0
   -0.3690   13.3310   -2.5110 C   0  0  0  0  0  0  0  0  0  0  0  0
    0.7240   12.5600   -1.7640 C   0  0  2  0  0  0  0  0  0  0  0  0
    1.7070   11.9690   -2.8310 C   0  0  0  0  0  0  0  0  0  0  0  0
   -0.6777    9.5126    0.4951 H   0  0  0  0  0  0  0  0  0  0  0  0
   -2.0144    9.3710   -0.6965 H   0  0  0  0  0  0  0  0  0  0  0  0
   -0.6800    8.1685   -0.6965 H   0  0  0  0  0  0  0  0  0  0  0  0
   -0.8111   10.3079   -2.3733 H   0  0  0  0  0  0  0  0  0  0  0  0
    1.8241    9.2713   -1.2473 H   0  0  0  0  0  0  0  0  0  0  0  0
    0.7610    8.4040   -2.4564 H   0  0  0  0  0  0  0  0  0  0  0  0
    1.4026    9.7028   -4.1743 H   0  0  0  0  0  0  0  0  0  0  0  0
    1.5392   11.1826   -3.1357 H   0  0  0  0  0  0  0  0  0  0  0  0
    3.1716    8.8973   -2.9051 H   0  0  0  0  0  0  0  0  0  0  0  0
    3.2236   12.4893   -4.6876 H   0  0  0  0  0  0  0  0  0  0  0  0
    4.5350   11.9634   -5.7968 H   0  0  0  0  0  0  0  0  0  0  0  0
    2.9590   11.1014   -5.7968 H   0  0  0  0  0  0  0  0  0  0  0  0
    6.0540    9.9231   -3.3691 H   0  0  0  0  0  0  0  0  0  0  0  0
    5.4993    9.1806   -4.9078 H   0  0  0  0  0  0  0  0  0  0  0  0
    6.1861   10.8404   -4.9078 H   0  0  0  0  0  0  0  0  0  0  0  0
   -0.6970   11.6667   -0.3640 H   0  0  0  0  0  0  0  0  0  0  0  0
    1.0899   11.0820    1.1538 H   0  0  0  0  0  0  0  0  0  0  0  0
    2.0554   10.3462   -0.1432 H   0  0  0  0  0  0  0  0  0  0  0  0
    2.5377   12.9013    1.0410 H   0  0  0  0  0  0  0  0  0  0  0  0
    3.2566   12.3640   -0.4753 H   0  0  0  0  0  0  0  0  0  0  0  0
    0.8140   13.8570    1.3664 H   0  0  0  0  0  0  0  0  0  0  0  0
    0.3211   15.1735    0.2481 H   0  0  0  0  0  0  0  0  0  0  0  0
   -0.5706   13.6141    0.2481 H   0  0  0  0  0  0  0  0  0  0  0  0
    2.8605   14.1286   -2.0863 H   0  0  0  0  0  0  0  0  0  0  0  0
    3.2996   15.0698    0.2725 H   0  0  0  0  0  0  0  0  0  0  0  0
    3.7416   16.0310   -1.2340 H   0  0  0  0  0  0  0  0  0  0  0  0
    2.6423   17.3919    0.7359 H   0  0  0  0  0  0  0  0  0  0  0  0
   -0.5128   16.0417   -1.3898 H   0  0  0  0  0  0  0  0  0  0  0  0
    0.7412   18.2167   -3.1776 H   0  0  0  0  0  0  0  0  0  0  0  0
   -0.7190   17.1994   -3.5567 H   0  0  0  0  0  0  0  0  0  0  0  0
   -1.3321   19.4868   -2.8402 H   0  0  0  0  0  0  0  0  0  0  0  0
   -1.9379   18.2085   -1.7157 H   0  0  0  0  0  0  0  0  0  0  0  0
   -1.0757   20.0329   -0.4152 H   0  0  0  0  0  0  0  0  0  0  0  0
    1.4140   19.5830   -1.7940 H   0  0  0  0  0  0  0  0  0  0  0  0
   -0.8030   17.8562    1.9743 H   0  0  0  0  0  0  0  0  0  0  0  0
   -1.9089   18.2806    0.6238 H   0  0  0  0  0  0  0  0  0  0  0  0
   -1.0568   16.6992    0.6238 H   0  0  0  0  0  0  0  0  0  0  0  0
    0.7173   18.9022    2.1843 H   0  0  0  0  0  0  0  0  0  0  0  0
    2.0963   18.9992    1.0374 H   0  0  0  0  0  0  0  0  0  0  0  0
    0.8364   20.2795    1.0374 H   0  0  0  0  0  0  0  0  0  0  0  0
    2.9597   16.6492   -3.0451 H   0  0  0  0  0  0  0  0  0  0  0  0
    2.5821   15.3147   -4.1866 H   0  0  0  0  0  0  0  0  0  0  0  0
    1.5817   16.8066   -4.1866 H   0  0  0  0  0  0  0  0  0  0  0  0
   -0.6106   15.1295   -3.6556 H   0  0  0  0  0  0  0  0  0  0  0  0
    0.8462   14.0635   -4.0764 H   0  0  0  0  0  0  0  0  0  0  0  0
   -1.1030   13.7093   -1.7843 H   0  0  0  0  0  0  0  0  0  0  0  0
   -0.8517   12.6495   -3.2270 H   0  0  0  0  0  0  0  0  0  0  0  0
    2.5425   11.4667   -2.3214 H   0  0  0  0  0  0  0  0  0  0  0  0
    1.1716   11.2429   -3.4604 H   0  0  0  0  0  0  0  0  0  0  0  0
    2.0972   12.7824   -3.4604 H   0  0  0  0  0  0  0  0  0  0  0  0
  1  2  1  0
  2  3  1  0
  3  4  1  0
  4  5  1  0
  5  6  1  0
  6  7  1  0
  7  8  1  0
  7  9  1  0
  2 10  1  0
 10 11  1  0
 11 12  1  0
 12 13  1  0
 13 14  1  1
 13 15  1  0
 15 16  1  0
 16 17  1  0
 17 18  2  0
 18 19  1  0
 19 20  1  0
 20 21  1  0
 21 22  1  0
 22 23  1  0
 22 24  1  0
 24 25  1  0
 24 26  1  0
 19 27  1  0
 27 28  1  6
 27 29  1  0
 29 30  1  0
 30 31  1  0
 31 32  1  6
  7  5  1  0
 31 10  1  0
 31 13  1  0
 27 15  1  0
 24 18  1  0
  1 33  1  0
  1 34  1  0
  1 35  1  0
  2 36  1  6
  3 37  1  0
  3 38  1  0
  4 39  1  0
  4 40  1  0
  5 41  1  1
  8 42  1  0
  8 43  1  0
  8 44  1  0
  9 45  1  0
  9 46  1  0
  9 47  1  0
 10 48  1  1
 11 49  1  0
 11 50  1  0
 12 51  1  0
 12 52  1  0
 14 53  1  0
 14 54  1  0
 14 55  1  0
 15 56  1  6
 16 57  1  0
 16 58  1  0
 17 59  1  0
 19 60  1  1
 20 61  1  0
 20 62  1  0
 21 63  1  0
 21 64  1  0
 22 65  1  1
 23 66  1  0
 25 67  1  0
 25 68  1  0
 25 69  1  0
 26 70  1  0
 26 71  1  0
 26 72  1  0
 28 73  1  0
 28 74  1  0
 28 75  1  0
 29 76  1  0
 29 77  1  0
 30 78  1  0
 30 79  1  0
 32 80  1  0
 32 81  1  0
 32 82  1  0
M  END
>  <meeko>  (17) 
{"is_sidechain": [false], "intermolecular_energy": 2.731, "internal_energy": -0.839}

$$$$
EPH_relaxed_0001_pdb2pqr_Repair_3_r2_0001_out
     RDKit          3D

 82 86  0  0  0  0  0  0  0  0999 V2000
    2.0500   10.7980   -4.8210 C   0  0  0  0  0  0  0  0  0  0  0  0
    1.1580   10.6580   -3.5840 C   0  0  2  0  0  0  0  0  0  0  0  0
   -0.0320    9.7090   -3.8310 C   0  0  0  0  0  0  0  0  0  0  0  0
   -0.1560    8.5930   -2.7900 C   0  0  0  0  0  0  0  0  0  0  0  0
    0.0350    9.1120   -1.3970 C   0  0  2  0  0  0  0  0  0  0  0  0
   -0.3060    8.1820   -0.3600 O   0  0  0  0  0  0  0  0  0  0  0  0
   -1.1100    9.3710   -0.4360 C   0  0  0  0  0  0  0  0  0  0  0  0
   -2.5320    9.1200   -0.8310 C   0  0  0  0  0  0  0  0  0  0  0  0
   -0.8900   10.3210    0.7000 C   0  0  0  0  0  0  0  0  0  0  0  0
    0.6510   12.0280   -3.1510 C   0  0  1  0  0  0  0  0  0  0  0  0
   -0.8350   12.0010   -2.7040 C   0  0  0  0  0  0  0  0  0  0  0  0
   -0.9740   13.0280   -1.5510 C   0  0  0  0  0  0  0  0  0  0  0  0
    0.3400   13.8440   -1.5950 C   0  0  1  0  0  0  0  0  0  0  0  0
    0.1210   14.8960   -2.7280 C   0  0  0  0  0  0  0  0  0  0  0  0
    0.7780   14.5210   -0.2560 C   0  0  2  0  0  0  0  0  0  0  0  0
   -0.1980   15.5770    0.2920 C   0  0  0  0  0  0  0  0  0  0  0  0
    0.0500   16.9750   -0.1690 C   0  0  0  0  0  0  0  0  0  0  0  0
    1.1780   17.4160   -0.7570 C   0  0  0  0  0  0  0  0  0  0  0  0
    2.3920   16.4930   -0.9240 C   0  0  1  0  0  0  0  0  0  0  0  0
    3.6770   17.2440   -0.4860 C   0  0  0  0  0  0  0  0  0  0  0  0
    3.8520   18.5750   -1.2100 C   0  0  0  0  0  0  0  0  0  0  0  0
    2.6510   19.4870   -0.9730 C   0  0  2  0  0  0  0  0  0  0  0  0
    2.6200   19.8590    0.4090 O   0  0  0  0  0  0  0  0  0  0  0  0
    1.2980   18.8330   -1.3690 C   0  0  0  0  0  0  0  0  0  0  0  0
    1.2120   18.7070   -2.9100 C   0  0  0  0  0  0  0  0  0  0  0  0
    0.1590   19.8010   -0.9480 C   0  0  0  0  0  0  0  0  0  0  0  0
    2.2670   15.0560   -0.2570 C   0  0  1  0  0  0  0  0  0  0  0  0
    2.7180   15.1210    1.2350 C   0  0  0  0  0  0  0  0  0  0  0  0
    3.2580   14.0670   -0.9770 C   0  0  0  0  0  0  0  0  0  0  0  0
    2.7260   13.3380   -2.2260 C   0  0  0  0  0  0  0  0  0  0  0  0
    1.3600   12.7020   -1.9500 C   0  0  2  0  0  0  0  0  0  0  0  0
    1.5530   11.6230   -0.8300 C   0  0  0  0  0  0  0  0  0  0  0  0
    3.0911   10.9614   -4.5057 H   0  0  0  0  0  0  0  0  0  0  0  0
    1.9891    9.8793   -5.4229 H   0  0  0  0  0  0  0  0  0  0  0  0
    1.7105   11.6539   -5.4229 H   0  0  0  0  0  0  0  0  0  0  0  0
    1.7699   10.2183   -2.7826 H   0  0  0  0  0  0  0  0  0  0  0  0
   -0.9582   10.3023   -3.8160 H   0  0  0  0  0  0  0  0  0  0  0  0
    0.1402    9.2239   -4.8031 H   0  0  0  0  0  0  0  0  0  0  0  0
   -1.1560    8.1416   -2.8684 H   0  0  0  0  0  0  0  0  0  0  0  0
    0.6288    7.8485   -2.9896 H   0  0  0  0  0  0  0  0  0  0  0  0
    0.8819    9.7352   -1.7200 H   0  0  0  0  0  0  0  0  0  0  0  0
   -3.1498    9.0110    0.0726 H   0  0  0  0  0  0  0  0  0  0  0  0
   -2.9017    9.9668   -1.4279 H   0  0  0  0  0  0  0  0  0  0  0  0
   -2.5894    8.1978   -1.4279 H   0  0  0  0  0  0  0  0  0  0  0  0
   -1.0137    9.7870    1.6537 H   0  0  0  0  0  0  0  0  0  0  0  0
    0.1276   10.7344    0.6405 H   0  0  0  0  0  0  0  0  0  0  0  0
   -1.6223   11.1396    0.6405 H   0  0  0  0  0  0  0  0  0  0  0  0
    0.8483   12.5968   -4.0716 H   0  0  0  0  0  0  0  0  0  0  0  0
   -1.4881   12.2828   -3.5431 H   0  0  0  0  0  0  0  0  0  0  0  0
   -1.1298   10.9940   -2.3737 H   0  0  0  0  0  0  0  0  0  0  0  0
   -1.8430   13.6819   -1.7160 H   0  0  0  0  0  0  0  0  0  0  0  0
   -1.1313   12.5426   -0.5765 H   0  0  0  0  0  0  0  0  0  0  0  0
   -0.0838   15.8797   -2.2804 H   0  0  0  0  0  0  0  0  0  0  0  0
    1.0256   14.9577   -3.3509 H   0  0  0  0  0  0  0  0  0  0  0  0
   -0.7330   14.5916   -3.3509 H   0  0  0  0  0  0  0  0  0  0  0  0
    0.7402   13.6824    0.4549 H   0  0  0  0  0  0  0  0  0  0  0  0
   -1.2148   15.2927   -0.0167 H   0  0  0  0  0  0  0  0  0  0  0  0
   -0.0550   15.5865    1.3826 H   0  0  0  0  0  0  0  0  0  0  0  0
   -0.7570   17.7066   -0.0153 H   0  0  0  0  0  0  0  0  0  0  0  0
    2.4472   16.2531   -1.9961 H   0  0  0  0  0  0  0  0  0  0  0  0
    3.6220   17.4356    0.5958 H   0  0  0  0  0  0  0  0  0  0  0  0
    4.5382   16.6092   -0.7415 H   0  0  0  0  0  0  0  0  0  0  0  0
    4.7600   19.0712   -0.8367 H   0  0  0  0  0  0  0  0  0  0  0  0
    3.9366   18.3792   -2.2891 H   0  0  0  0  0  0  0  0  0  0  0  0
    2.7737   20.3690   -1.6188 H   0  0  0  0  0  0  0  0  0  0  0  0
    3.2660   19.3030    0.8770 H   0  0  0  0  0  0  0  0  0  0  0  0
    0.6098   17.8247   -3.1727 H   0  0  0  0  0  0  0  0  0  0  0  0
    0.7407   19.6097   -3.3260 H   0  0  0  0  0  0  0  0  0  0  0  0
    2.2244   18.5971   -3.3260 H   0  0  0  0  0  0  0  0  0  0  0  0
    0.1043   19.8475    0.1497 H   0  0  0  0  0  0  0  0  0  0  0  0
    0.3646   20.8050   -1.3477 H   0  0  0  0  0  0  0  0  0  0  0  0
   -0.7987   19.4362   -1.3477 H   0  0  0  0  0  0  0  0  0  0  0  0
    1.8423   14.9948    1.8886 H   0  0  0  0  0  0  0  0  0  0  0  0
    3.4430   14.3181    1.4342 H   0  0  0  0  0  0  0  0  0  0  0  0
    3.1867   16.0960    1.4342 H   0  0  0  0  0  0  0  0  0  0  0  0
    4.1431   14.6452   -1.2808 H   0  0  0  0  0  0  0  0  0  0  0  0
    3.4565   13.2726   -0.2425 H   0  0  0  0  0  0  0  0  0  0  0  0
    2.6266   14.0607   -3.0493 H   0  0  0  0  0  0  0  0  0  0  0  0
    3.4353   12.5417   -2.4958 H   0  0  0  0  0  0  0  0  0  0  0  0
    1.4677   12.1002    0.1574 H   0  0  0  0  0  0  0  0  0  0  0  0
    0.7793   10.8476   -0.9306 H   0  0  0  0  0  0  0  0  0  0  0  0
    2.5475   11.1639   -0.9306 H   0  0  0  0  0  0  0  0  0  0  0  0
  1  2  1  0
  2  3  1  0
  3  4  1  0
  4  5  1  0
  5  6  1  0
  6  7  1  0
  7  8  1  0
  7  9  1  0
  2 10  1  0
 10 11  1  0
 11 12  1  0
 12 13  1  0
 13 14  1  6
 13 15  1  0
 15 16  1  0
 16 17  1  0
 17 18  2  0
 18 19  1  0
 19 20  1  0
 20 21  1  0
 21 22  1  0
 22 23  1  0
 22 24  1  0
 24 25  1  0
 24 26  1  0
 19 27  1  0
 27 28  1  1
 27 29  1  0
 29 30  1  0
 30 31  1  0
 31 32  1  1
  7  5  1  0
 31 10  1  0
 31 13  1  0
 27 15  1  0
 24 18  1  0
  1 33  1  0
  1 34  1  0
  1 35  1  0
  2 36  1  1
  3 37  1  0
  3 38  1  0
  4 39  1  0
  4 40  1  0
  5 41  1  6
  8 42  1  0
  8 43  1  0
  8 44  1  0
  9 45  1  0
  9 46  1  0
  9 47  1  0
 10 48  1  6
 11 49  1  0
 11 50  1  0
 12 51  1  0
 12 52  1  0
 14 53  1  0
 14 54  1  0
 14 55  1  0
 15 56  1  1
 16 57  1  0
 16 58  1  0
 17 59  1  0
 19 60  1  6
 20 61  1  0
 20 62  1  0
 21 63  1  0
 21 64  1  0
 22 65  1  6
 23 66  1  0
 25 67  1  0
 25 68  1  0
 25 69  1  0
 26 70  1  0
 26 71  1  0
 26 72  1  0
 28 73  1  0
 28 74  1  0
 28 75  1  0
 29 76  1  0
 29 77  1  0
 30 78  1  0
 30 79  1  0
 32 80  1  0
 32 81  1  0
 32 82  1  0
M  END
>  <meeko>  (18) 
{"is_sidechain": [false], "intermolecular_energy": 2.731, "internal_energy": -0.839}

$$$$
EPH_relaxed_0001_pdb2pqr_Repair_3_r2_0001_out
     RDKit          3D

 82 86  0  0  0  0  0  0  0  0999 V2000
    0.9700   14.8790   -2.6950 C   0  0  0  0  0  0  0  0  0  0  0  0
    1.2120   14.1920   -4.0420 C   0  0  2  0  0  0  0  0  0  0  0  0
    0.4900   14.9110   -5.1990 C   0  0  0  0  0  0  0  0  0  0  0  0
    1.0690   14.5920   -6.5790 C   0  0  0  0  0  0  0  0  0  0  0  0
    0.8610   15.7210   -7.5430 C   0  0  2  0  0  0  0  0  0  0  0  0
    0.4080   15.3220   -8.8430 O   0  0  0  0  0  0  0  0  0  0  0  0
    1.7090   15.9290   -8.7830 C   0  0  0  0  0  0  0  0  0  0  0  0
    2.8310   15.0000   -9.1270 C   0  0  0  0  0  0  0  0  0  0  0  0
    1.7650   17.2970   -9.3910 C   0  0  0  0  0  0  0  0  0  0  0  0
    0.7620   12.7370   -3.9710 C   0  0  1  0  0  0  0  0  0  0  0  0
    1.8970   11.7420   -4.3310 C   0  0  0  0  0  0  0  0  0  0  0  0
    1.6920   10.4890   -3.4420 C   0  0  0  0  0  0  0  0  0  0  0  0
    0.2740   10.6600   -2.8490 C   0  0  1  0  0  0  0  0  0  0  0  0
   -0.6930   10.1750   -3.9740 C   0  0  0  0  0  0  0  0  0  0  0  0
   -0.0020    9.9270   -1.4950 C   0  0  2  0  0  0  0  0  0  0  0  0
    0.1050    8.3930   -1.5510 C   0  0  0  0  0  0  0  0  0  0  0  0
   -1.1650    7.6770   -1.8740 C   0  0  0  0  0  0  0  0  0  0  0  0
   -2.3990    8.2140   -1.8310 C   0  0  0  0  0  0  0  0  0  0  0  0
   -2.6160    9.6480   -1.3310 C   0  0  1  0  0  0  0  0  0  0  0  0
   -3.8040    9.6740   -0.3330 C   0  0  0  0  0  0  0  0  0  0  0  0
   -5.0730    9.0610   -0.9180 C   0  0  0  0  0  0  0  0  0  0  0  0
   -4.8320    7.6170   -1.3490 C   0  0  2  0  0  0  0  0  0  0  0  0
   -4.5820    6.8230   -0.1850 O   0  0  0  0  0  0  0  0  0  0  0  0
   -3.6510    7.4640   -2.3480 C   0  0  0  0  0  0  0  0  0  0  0  0
   -4.0470    8.0690   -3.7180 C   0  0  0  0  0  0  0  0  0  0  0  0
   -3.4240    5.9480   -2.5920 C   0  0  0  0  0  0  0  0  0  0  0  0
   -1.3280   10.3880   -0.7660 C   0  0  1  0  0  0  0  0  0  0  0  0
   -1.1440   10.0560    0.7460 C   0  0  0  0  0  0  0  0  0  0  0  0
   -1.5490   11.9450   -0.8560 C   0  0  0  0  0  0  0  0  0  0  0  0
   -1.1470   12.6290   -2.1760 C   0  0  0  0  0  0  0  0  0  0  0  0
    0.2650   12.2120   -2.6010 C   0  0  2  0  0  0  0  0  0  0  0  0
    1.2620   12.7060   -1.4990 C   0  0  0  0  0  0  0  0  0  0  0  0
    1.2151   14.1831   -1.8792 H   0  0  0  0  0  0  0  0  0  0  0  0
    1.6076   15.7721   -2.6191 H   0  0  0  0  0  0  0  0  0  0  0  0
   -0.0866   15.1753   -2.6191 H   0  0  0  0  0  0  0  0  0  0  0  0
    2.2916   14.2381   -4.2479 H   0  0  0  0  0  0  0  0  0  0  0  0
   -0.5680   14.6101   -5.1884 H   0  0  0  0  0  0  0  0  0  0  0  0
    0.6211   15.9912   -5.0375 H   0  0  0  0  0  0  0  0  0  0  0  0
    2.1481   14.4040   -6.4779 H   0  0  0  0  0  0  0  0  0  0  0  0
    0.5492   13.7058   -6.9720 H   0  0  0  0  0  0  0  0  0  0  0  0
    0.5722   16.3974   -6.7250 H   0  0  0  0  0  0  0  0  0  0  0  0
    3.2895   14.6204   -8.2019 H   0  0  0  0  0  0  0  0  0  0  0  0
    2.4413   14.1566   -9.7159 H   0  0  0  0  0  0  0  0  0  0  0  0
    3.5869   15.5402   -9.7159 H   0  0  0  0  0  0  0  0  0  0  0  0
    1.7959   18.0524   -8.5920 H   0  0  0  0  0  0  0  0  0  0  0  0
    2.6675   17.3848  -10.0137 H   0  0  0  0  0  0  0  0  0  0  0  0
    0.8727   17.4583  -10.0137 H   0  0  0  0  0  0  0  0  0  0  0  0
   -0.0723   12.7675   -4.6872 H   0  0  0  0  0  0  0  0  0  0  0  0
    1.8359   11.4663   -5.3941 H   0  0  0  0  0  0  0  0  0  0  0  0
    2.8859   12.1915   -4.1579 H   0  0  0  0  0  0  0  0  0  0  0  0
    1.7528    9.5709   -4.0448 H   0  0  0  0  0  0  0  0  0  0  0  0
    2.4626   10.3999   -2.6621 H   0  0  0  0  0  0  0  0  0  0  0  0
   -1.5884    9.7259   -3.5194 H   0  0  0  0  0  0  0  0  0  0  0  0
   -0.9887   11.0315   -4.5977 H   0  0  0  0  0  0  0  0  0  0  0  0
   -0.1834    9.4258   -4.5977 H   0  0  0  0  0  0  0  0  0  0  0  0
    0.8380   10.2630   -0.8693 H   0  0  0  0  0  0  0  0  0  0  0  0
    0.8475    8.1318   -2.3194 H   0  0  0  0  0  0  0  0  0  0  0  0
    0.3875    8.0702   -0.5381 H   0  0  0  0  0  0  0  0  0  0  0  0
   -1.0857    6.6212   -2.1724 H   0  0  0  0  0  0  0  0  0  0  0  0
   -2.8624   10.2462   -2.2206 H   0  0  0  0  0  0  0  0  0  0  0  0
   -3.5212    9.1078    0.5667 H   0  0  0  0  0  0  0  0  0  0  0  0
   -4.0195   10.7267   -0.0977 H   0  0  0  0  0  0  0  0  0  0  0  0
   -5.8669    9.0819   -0.1569 H   0  0  0  0  0  0  0  0  0  0  0  0
   -5.3711    9.6460   -1.8006 H   0  0  0  0  0  0  0  0  0  0  0  0
   -5.7353    7.2762   -1.8761 H   0  0  0  0  0  0  0  0  0  0  0  0
   -5.2290    7.0820    0.4920 H   0  0  0  0  0  0  0  0  0  0  0  0
   -4.6430    8.9796   -3.5582 H   0  0  0  0  0  0  0  0  0  0  0  0
   -3.1381    8.3204   -4.2843 H   0  0  0  0  0  0  0  0  0  0  0  0
   -4.6411    7.3366   -4.2843 H   0  0  0  0  0  0  0  0  0  0  0  0
   -3.3462    5.4287   -1.6254 H   0  0  0  0  0  0  0  0  0  0  0  0
   -4.2707    5.5375   -3.1617 H   0  0  0  0  0  0  0  0  0  0  0  0
   -2.4942    5.8035   -3.1617 H   0  0  0  0  0  0  0  0  0  0  0  0
   -1.5883   10.8577    1.3541 H   0  0  0  0  0  0  0  0  0  0  0  0
   -1.6425    9.1026    0.9754 H   0  0  0  0  0  0  0  0  0  0  0  0
   -0.0714    9.9734    0.9754 H   0  0  0  0  0  0  0  0  0  0  0  0
   -2.6195   12.1390   -0.6934 H   0  0  0  0  0  0  0  0  0  0  0  0
   -0.8814   12.3746   -0.0946 H   0  0  0  0  0  0  0  0  0  0  0  0
   -1.8597   12.3404   -2.9626 H   0  0  0  0  0  0  0  0  0  0  0  0
   -1.1609   13.7185   -2.0253 H   0  0  0  0  0  0  0  0  0  0  0  0
    0.8415   12.4977   -0.5041 H   0  0  0  0  0  0  0  0  0  0  0  0
    2.2212   12.1789   -1.6094 H   0  0  0  0  0  0  0  0  0  0  0  0
    1.4236   13.7884   -1.6094 H   0  0  0  0  0  0  0  0  0  0  0  0
  1  2  1  0
  2  3  1  0
  3  4  1  0
  4  5  1  0
  5  6  1  0
  6  7  1  0
  7  8  1  0
  7  9  1  0
  2 10  1  0
 10 11  1  0
 11 12  1  0
 12 13  1  0
 13 14  1  6
 13 15  1  0
 15 16  1  0
 16 17  1  0
 17 18  2  0
 18 19  1  0
 19 20  1  0
 20 21  1  0
 21 22  1  0
 22 23  1  0
 22 24  1  0
 24 25  1  0
 24 26  1  0
 19 27  1  0
 27 28  1  1
 27 29  1  0
 29 30  1  0
 30 31  1  0
 31 32  1  1
  7  5  1  0
 31 10  1  0
 31 13  1  0
 27 15  1  0
 24 18  1  0
  1 33  1  0
  1 34  1  0
  1 35  1  0
  2 36  1  6
  3 37  1  0
  3 38  1  0
  4 39  1  0
  4 40  1  0
  5 41  1  1
  8 42  1  0
  8 43  1  0
  8 44  1  0
  9 45  1  0
  9 46  1  0
  9 47  1  0
 10 48  1  6
 11 49  1  0
 11 50  1  0
 12 51  1  0
 12 52  1  0
 14 53  1  0
 14 54  1  0
 14 55  1  0
 15 56  1  1
 16 57  1  0
 16 58  1  0
 17 59  1  0
 19 60  1  6
 20 61  1  0
 20 62  1  0
 21 63  1  0
 21 64  1  0
 22 65  1  6
 23 66  1  0
 25 67  1  0
 25 68  1  0
 25 69  1  0
 26 70  1  0
 26 71  1  0
 26 72  1  0
 28 73  1  0
 28 74  1  0
 28 75  1  0
 29 76  1  0
 29 77  1  0
 30 78  1  0
 30 79  1  0
 32 80  1  0
 32 81  1  0
 32 82  1  0
M  END
>  <meeko>  (19) 
{"is_sidechain": [false], "intermolecular_energy": 2.731, "internal_energy": -0.839}

$$$$
