EPH_relaxed_0001_pdb2pqr_Repair_339_r2_0001_out
     RDKit          3D

 82 86  0  0  0  0  0  0  0  0999 V2000
    4.2020   18.3680   -0.0020 C   0  0  0  0  0  0  0  0  0  0  0  0
    3.0210   18.8370   -0.8570 C   0  0  2  0  0  0  0  0  0  0  0  0
    2.2860   20.0350   -0.2240 C   0  0  0  0  0  0  0  0  0  0  0  0
    1.1960   19.6320    0.7730 C   0  0  0  0  0  0  0  0  0  0  0  0
   -0.1400   20.1940    0.3920 C   0  0  2  0  0  0  0  0  0  0  0  0
   -1.1120   20.1950    1.4460 O   0  0  0  0  0  0  0  0  0  0  0  0
   -1.4060   19.3620    0.3130 C   0  0  0  0  0  0  0  0  0  0  0  0
   -1.3970   17.8960    0.6150 C   0  0  0  0  0  0  0  0  0  0  0  0
   -2.5400   19.8640   -0.5250 C   0  0  0  0  0  0  0  0  0  0  0  0
    2.0480   17.6850   -1.0770 C   0  0  1  0  0  0  0  0  0  0  0  0
    0.8570   18.0760   -1.9920 C   0  0  0  0  0  0  0  0  0  0  0  0
    0.5020   16.8180   -2.8250 C   0  0  0  0  0  0  0  0  0  0  0  0
    1.2680   15.6650   -2.1370 C   0  0  1  0  0  0  0  0  0  0  0  0
    0.3780   15.2630   -0.9190 C   0  0  0  0  0  0  0  0  0  0  0  0
    1.6100   14.4300   -3.0330 C   0  0  2  0  0  0  0  0  0  0  0  0
    0.3940   13.6730   -3.5940 C   0  0  0  0  0  0  0  0  0  0  0  0
   -0.1130   12.5580   -2.7400 C   0  0  0  0  0  0  0  0  0  0  0  0
    0.5520   11.9940   -1.7150 C   0  0  0  0  0  0  0  0  0  0  0  0
    1.9920   12.4100   -1.3860 C   0  0  1  0  0  0  0  0  0  0  0  0
    2.8580   11.1430   -1.1600 C   0  0  0  0  0  0  0  0  0  0  0  0
    2.2660   10.2090   -0.1090 C   0  0  0  0  0  0  0  0  0  0  0  0
    0.8570    9.7710   -0.5010 C   0  0  2  0  0  0  0  0  0  0  0  0
    0.9370    8.9510   -1.6710 O   0  0  0  0  0  0  0  0  0  0  0  0
   -0.1050   10.9640   -0.7630 C   0  0  0  0  0  0  0  0  0  0  0  0
   -0.4290   11.6750    0.5740 C   0  0  0  0  0  0  0  0  0  0  0  0
   -1.4480   10.3880   -1.2860 C   0  0  0  0  0  0  0  0  0  0  0  0
    2.6640   13.4380   -2.3940 C   0  0  1  0  0  0  0  0  0  0  0  0
    3.3240   12.6670   -3.5780 C   0  0  0  0  0  0  0  0  0  0  0  0
    3.8290   14.1970   -1.6550 C   0  0  0  0  0  0  0  0  0  0  0  0
    3.4460   15.4750   -0.8850 C   0  0  0  0  0  0  0  0  0  0  0  0
    2.6000   16.4080   -1.7570 C   0  0  2  0  0  0  0  0  0  0  0  0
    3.4770   16.8460   -2.9790 C   0  0  0  0  0  0  0  0  0  0  0  0
    3.9467   18.4694    1.0631 H   0  0  0  0  0  0  0  0  0  0  0  0
    4.4223   17.3141   -0.2275 H   0  0  0  0  0  0  0  0  0  0  0  0
    5.0853   18.9836   -0.2275 H   0  0  0  0  0  0  0  0  0  0  0  0
    3.4247   19.1713   -1.8241 H   0  0  0  0  0  0  0  0  0  0  0  0
    3.0250   20.6571    0.3022 H   0  0  0  0  0  0  0  0  0  0  0  0
    1.7886   20.5758   -1.0426 H   0  0  0  0  0  0  0  0  0  0  0  0
    1.1262   18.5346    0.8004 H   0  0  0  0  0  0  0  0  0  0  0  0
    1.4683   20.0348    1.7597 H   0  0  0  0  0  0  0  0  0  0  0  0
    0.3296   20.8919   -0.3168 H   0  0  0  0  0  0  0  0  0  0  0  0
   -1.3961   17.7461    1.7047 H   0  0  0  0  0  0  0  0  0  0  0  0
   -2.2923   17.4267    0.1811 H   0  0  0  0  0  0  0  0  0  0  0  0
   -0.4960   17.4378    0.1811 H   0  0  0  0  0  0  0  0  0  0  0  0
   -3.3488   20.2220    0.1290 H   0  0  0  0  0  0  0  0  0  0  0  0
   -2.1888   20.6907   -1.1599 H   0  0  0  0  0  0  0  0  0  0  0  0
   -2.9159   19.0482   -1.1599 H   0  0  0  0  0  0  0  0  0  0  0  0
    1.7792   17.4686   -0.0325 H   0  0  0  0  0  0  0  0  0  0  0  0
   -0.0054   18.3819   -1.3815 H   0  0  0  0  0  0  0  0  0  0  0  0
    1.1211   18.9208   -2.6451 H   0  0  0  0  0  0  0  0  0  0  0  0
   -0.5818   16.6313   -2.8035 H   0  0  0  0  0  0  0  0  0  0  0  0
    0.7776   16.9280   -3.8842 H   0  0  0  0  0  0  0  0  0  0  0  0
    0.9064   15.5017    0.0158 H   0  0  0  0  0  0  0  0  0  0  0  0
   -0.5694   15.8206   -0.9573 H   0  0  0  0  0  0  0  0  0  0  0  0
    0.1700   14.1835   -0.9573 H   0  0  0  0  0  0  0  0  0  0  0  0
    2.0968   14.8972   -3.9018 H   0  0  0  0  0  0  0  0  0  0  0  0
   -0.4237   14.3962   -3.7294 H   0  0  0  0  0  0  0  0  0  0  0  0
    0.7313   13.2084   -4.5323 H   0  0  0  0  0  0  0  0  0  0  0  0
   -1.1146   12.1644   -2.9679 H   0  0  0  0  0  0  0  0  0  0  0  0
    1.9353   12.9935   -0.4553 H   0  0  0  0  0  0  0  0  0  0  0  0
    2.9388   10.5969   -2.1115 H   0  0  0  0  0  0  0  0  0  0  0  0
    3.8428   11.4723   -0.7970 H   0  0  0  0  0  0  0  0  0  0  0  0
    2.9067    9.3197   -0.0156 H   0  0  0  0  0  0  0  0  0  0  0  0
    2.2130   10.7467    0.8491 H   0  0  0  0  0  0  0  0  0  0  0  0
    0.4379    9.2109    0.3479 H   0  0  0  0  0  0  0  0  0  0  0  0
    1.1640    8.0510   -1.3840 H   0  0  0  0  0  0  0  0  0  0  0  0
   -0.1344   11.0286    1.4138 H   0  0  0  0  0  0  0  0  0  0  0  0
    0.1259   12.6232    0.6289 H   0  0  0  0  0  0  0  0  0  0  0  0
   -1.5087   11.8783    0.6289 H   0  0  0  0  0  0  0  0  0  0  0  0
   -2.0864   10.1142   -0.4331 H   0  0  0  0  0  0  0  0  0  0  0  0
   -1.9587   11.1462   -1.8978 H   0  0  0  0  0  0  0  0  0  0  0  0
   -1.2507    9.4954   -1.8978 H   0  0  0  0  0  0  0  0  0  0  0  0
    3.9912   11.8876   -3.1814 H   0  0  0  0  0  0  0  0  0  0  0  0
    2.5409   12.2007   -4.1939 H   0  0  0  0  0  0  0  0  0  0  0  0
    3.9055   13.3689   -4.1939 H   0  0  0  0  0  0  0  0  0  0  0  0
    4.2785   13.4969   -0.9354 H   0  0  0  0  0  0  0  0  0  0  0  0
    4.5057   14.5340   -2.4541 H   0  0  0  0  0  0  0  0  0  0  0  0
    2.8690   15.1969    0.0093 H   0  0  0  0  0  0  0  0  0  0  0  0
    4.3683   16.0022   -0.5998 H   0  0  0  0  0  0  0  0  0  0  0  0
    4.4060   17.3100   -2.6161 H   0  0  0  0  0  0  0  0  0  0  0  0
    3.7217   15.9643   -3.5895 H   0  0  0  0  0  0  0  0  0  0  0  0
    2.9191   17.5713   -3.5895 H   0  0  0  0  0  0  0  0  0  0  0  0
  1  2  1  0
  2  3  1  0
  3  4  1  0
  4  5  1  0
  5  6  1  0
  6  7  1  0
  7  8  1  0
  7  9  1  0
  2 10  1  0
 10 11  1  0
 11 12  1  0
 12 13  1  0
 13 14  1  1
 13 15  1  0
 15 16  1  0
 16 17  1  0
 17 18  2  0
 18 19  1  0
 19 20  1  0
 20 21  1  0
 21 22  1  0
 22 23  1  0
 22 24  1  0
 24 25  1  0
 24 26  1  0
 19 27  1  0
 27 28  1  6
 27 29  1  0
 29 30  1  0
 30 31  1  0
 31 32  1  6
  7  5  1  0
 31 10  1  0
 31 13  1  0
 27 15  1  0
 24 18  1  0
  1 33  1  0
  1 34  1  0
  1 35  1  0
  2 36  1  6
  3 37  1  0
  3 38  1  0
  4 39  1  0
  4 40  1  0
  5 41  1  6
  8 42  1  0
  8 43  1  0
  8 44  1  0
  9 45  1  0
  9 46  1  0
  9 47  1  0
 10 48  1  1
 11 49  1  0
 11 50  1  0
 12 51  1  0
 12 52  1  0
 14 53  1  0
 14 54  1  0
 14 55  1  0
 15 56  1  6
 16 57  1  0
 16 58  1  0
 17 59  1  0
 19 60  1  1
 20 61  1  0
 20 62  1  0
 21 63  1  0
 21 64  1  0
 22 65  1  1
 23 66  1  0
 25 67  1  0
 25 68  1  0
 25 69  1  0
 26 70  1  0
 26 71  1  0
 26 72  1  0
 28 73  1  0
 28 74  1  0
 28 75  1  0
 29 76  1  0
 29 77  1  0
 30 78  1  0
 30 79  1  0
 32 80  1  0
 32 81  1  0
 32 82  1  0
M  END
>  <meeko>  (1) 
{"is_sidechain": [false], "intermolecular_energy": 2.731, "internal_energy": -0.839}

$$$$
EPH_relaxed_0001_pdb2pqr_Repair_339_r2_0001_out
     RDKit          3D

 82 86  0  0  0  0  0  0  0  0999 V2000
   -1.1350    8.8150   -1.8550 C   0  0  0  0  0  0  0  0  0  0  0  0
   -1.5550    9.2190   -0.4390 C   0  0  2  0  0  0  0  0  0  0  0  0
   -3.0850    9.3610   -0.3050 C   0  0  0  0  0  0  0  0  0  0  0  0
   -3.8730    8.4290   -1.2300 C   0  0  0  0  0  0  0  0  0  0  0  0
   -5.2200    8.0970   -0.6650 C   0  0  2  0  0  0  0  0  0  0  0  0
   -5.4580    6.6970   -0.4660 O   0  0  0  0  0  0  0  0  0  0  0  0
   -6.2910    7.3500   -1.4380 C   0  0  0  0  0  0  0  0  0  0  0  0
   -6.0610    6.8910   -2.8440 C   0  0  0  0  0  0  0  0  0  0  0  0
   -7.7170    7.4960   -1.0090 C   0  0  0  0  0  0  0  0  0  0  0  0
   -0.8750   10.5260   -0.0480 C   0  0  1  0  0  0  0  0  0  0  0  0
    0.0550   10.3690    1.1850 C   0  0  0  0  0  0  0  0  0  0  0  0
    1.2560   11.3240    0.9630 C   0  0  0  0  0  0  0  0  0  0  0  0
    0.8210   12.2330   -0.2100 C   0  0  1  0  0  0  0  0  0  0  0  0
   -0.0870   13.3230    0.4420 C   0  0  0  0  0  0  0  0  0  0  0  0
    1.9720   12.8700   -1.0540 C   0  0  2  0  0  0  0  0  0  0  0  0
    2.8990   13.8240   -0.2800 C   0  0  0  0  0  0  0  0  0  0  0  0
    2.4830   15.2580   -0.2820 C   0  0  0  0  0  0  0  0  0  0  0  0
    1.5760   15.8080   -1.1100 C   0  0  0  0  0  0  0  0  0  0  0  0
    0.9330   14.9840   -2.2340 C   0  0  1  0  0  0  0  0  0  0  0  0
    0.9540   15.8020   -3.5520 C   0  0  0  0  0  0  0  0  0  0  0  0
    0.3130   17.1780   -3.3970 C   0  0  0  0  0  0  0  0  0  0  0  0
    1.0160   17.9880   -2.3110 C   0  0  2  0  0  0  0  0  0  0  0  0
    2.3470   18.2850   -2.7460 O   0  0  0  0  0  0  0  0  0  0  0  0
    1.0660   17.2600   -0.9390 C   0  0  0  0  0  0  0  0  0  0  0  0
   -0.3560   17.2070   -0.3260 C   0  0  0  0  0  0  0  0  0  0  0  0
    1.9230   18.1210    0.0280 C   0  0  0  0  0  0  0  0  0  0  0  0
    1.4960   13.5100   -2.4210 C   0  0  1  0  0  0  0  0  0  0  0  0
    2.7400   13.5300   -3.3610 C   0  0  0  0  0  0  0  0  0  0  0  0
    0.4070   12.6320   -3.1450 C   0  0  0  0  0  0  0  0  0  0  0  0
   -0.6310   11.9320   -2.2470 C   0  0  0  0  0  0  0  0  0  0  0  0
    0.0530   11.1870   -1.0980 C   0  0  2  0  0  0  0  0  0  0  0  0
    0.9560   10.0690   -1.7220 C   0  0  0  0  0  0  0  0  0  0  0  0
   -0.3432    8.0534   -1.7994 H   0  0  0  0  0  0  0  0  0  0  0  0
   -2.0027    8.4034   -2.3914 H   0  0  0  0  0  0  0  0  0  0  0  0
   -0.7574    9.6980   -2.3914 H   0  0  0  0  0  0  0  0  0  0  0  0
   -1.2369    8.4158    0.2420 H   0  0  0  0  0  0  0  0  0  0  0  0
   -3.3649    9.1363    0.7348 H   0  0  0  0  0  0  0  0  0  0  0  0
   -3.3389   10.3914   -0.5946 H   0  0  0  0  0  0  0  0  0  0  0  0
   -4.0067    8.9228   -2.2038 H   0  0  0  0  0  0  0  0  0  0  0  0
   -3.3059    7.4926   -1.3375 H   0  0  0  0  0  0  0  0  0  0  0  0
   -5.2408    9.0402   -0.0994 H   0  0  0  0  0  0  0  0  0  0  0  0
   -5.5682    5.9076   -2.8327 H   0  0  0  0  0  0  0  0  0  0  0  0
   -7.0258    6.8117   -3.3663 H   0  0  0  0  0  0  0  0  0  0  0  0
   -5.4199    7.6164   -3.3663 H   0  0  0  0  0  0  0  0  0  0  0  0
   -7.7706    7.5015    0.0897 H   0  0  0  0  0  0  0  0  0  0  0  0
   -8.1229    8.4404   -1.4006 H   0  0  0  0  0  0  0  0  0  0  0  0
   -8.3058    6.6534   -1.4006 H   0  0  0  0  0  0  0  0  0  0  0  0
   -1.7628   11.1541    0.1172 H   0  0  0  0  0  0  0  0  0  0  0  0
   -0.4837   10.6449    2.1035 H   0  0  0  0  0  0  0  0  0  0  0  0
    0.3929    9.3280    1.2952 H   0  0  0  0  0  0  0  0  0  0  0  0
    1.4490   11.9215    1.8662 H   0  0  0  0  0  0  0  0  0  0  0  0
    2.1868   10.7796    0.7455 H   0  0  0  0  0  0  0  0  0  0  0  0
   -0.0230   13.2462    1.5375 H   0  0  0  0  0  0  0  0  0  0  0  0
    0.2512   14.3202    0.1240 H   0  0  0  0  0  0  0  0  0  0  0  0
   -1.1289   13.1705    0.1240 H   0  0  0  0  0  0  0  0  0  0  0  0
    2.5887   11.9953   -1.3081 H   0  0  0  0  0  0  0  0  0  0  0  0
    2.9410   13.4837    0.7652 H   0  0  0  0  0  0  0  0  0  0  0  0
    3.8708   13.7881   -0.7942 H   0  0  0  0  0  0  0  0  0  0  0  0
    2.9582   15.9210    0.4559 H   0  0  0  0  0  0  0  0  0  0  0  0
   -0.1067   14.8037   -1.9235 H   0  0  0  0  0  0  0  0  0  0  0  0
    1.9992   15.9336   -3.8687 H   0  0  0  0  0  0  0  0  0  0  0  0
    0.3713   15.2446   -4.3002 H   0  0  0  0  0  0  0  0  0  0  0  0
    0.3848   17.7183   -4.3525 H   0  0  0  0  0  0  0  0  0  0  0  0
   -0.7402   17.0443   -3.1090 H   0  0  0  0  0  0  0  0  0  0  0  0
    0.4332   18.9081   -2.1570 H   0  0  0  0  0  0  0  0  0  0  0  0
    2.6250   19.1050   -2.3040 H   0  0  0  0  0  0  0  0  0  0  0  0
   -0.2825   17.2097    0.7715 H   0  0  0  0  0  0  0  0  0  0  0  0
   -0.9310   18.0843   -0.6572 H   0  0  0  0  0  0  0  0  0  0  0  0
   -0.8641   16.2893   -0.6572 H   0  0  0  0  0  0  0  0  0  0  0  0
    1.6697   17.8665    1.0678 H   0  0  0  0  0  0  0  0  0  0  0  0
    2.9898   17.9196   -0.1493 H   0  0  0  0  0  0  0  0  0  0  0  0
    1.7166   19.1868   -0.1493 H   0  0  0  0  0  0  0  0  0  0  0  0
    3.6576   13.5448   -2.7546 H   0  0  0  0  0  0  0  0  0  0  0  0
    2.7344   12.6316   -3.9958 H   0  0  0  0  0  0  0  0  0  0  0  0
    2.7055   14.4277   -3.9958 H   0  0  0  0  0  0  0  0  0  0  0  0
   -0.1408   13.2867   -3.8387 H   0  0  0  0  0  0  0  0  0  0  0  0
    0.9678   11.8169   -3.6258 H   0  0  0  0  0  0  0  0  0  0  0  0
   -1.3140   12.6870   -1.8304 H   0  0  0  0  0  0  0  0  0  0  0  0
   -1.1873   11.2038   -2.8555 H   0  0  0  0  0  0  0  0  0  0  0  0
    1.4269    9.4860   -0.9167 H   0  0  0  0  0  0  0  0  0  0  0  0
    0.3389    9.4037   -2.3437 H   0  0  0  0  0  0  0  0  0  0  0  0
    1.7363   10.5324   -2.3437 H   0  0  0  0  0  0  0  0  0  0  0  0
  1  2  1  0
  2  3  1  0
  3  4  1  0
  4  5  1  0
  5  6  1  0
  6  7  1  0
  7  8  1  0
  7  9  1  0
  2 10  1  0
 10 11  1  0
 11 12  1  0
 12 13  1  0
 13 14  1  1
 13 15  1  0
 15 16  1  0
 16 17  1  0
 17 18  2  0
 18 19  1  0
 19 20  1  0
 20 21  1  0
 21 22  1  0
 22 23  1  0
 22 24  1  0
 24 25  1  0
 24 26  1  0
 19 27  1  0
 27 28  1  6
 27 29  1  0
 29 30  1  0
 30 31  1  0
 31 32  1  6
  7  5  1  0
 31 10  1  0
 31 13  1  0
 27 15  1  0
 24 18  1  0
  1 33  1  0
  1 34  1  0
  1 35  1  0
  2 36  1  1
  3 37  1  0
  3 38  1  0
  4 39  1  0
  4 40  1  0
  5 41  1  1
  8 42  1  0
  8 43  1  0
  8 44  1  0
  9 45  1  0
  9 46  1  0
  9 47  1  0
 10 48  1  1
 11 49  1  0
 11 50  1  0
 12 51  1  0
 12 52  1  0
 14 53  1  0
 14 54  1  0
 14 55  1  0
 15 56  1  6
 16 57  1  0
 16 58  1  0
 17 59  1  0
 19 60  1  1
 20 61  1  0
 20 62  1  0
 21 63  1  0
 21 64  1  0
 22 65  1  1
 23 66  1  0
 25 67  1  0
 25 68  1  0
 25 69  1  0
 26 70  1  0
 26 71  1  0
 26 72  1  0
 28 73  1  0
 28 74  1  0
 28 75  1  0
 29 76  1  0
 29 77  1  0
 30 78  1  0
 30 79  1  0
 32 80  1  0
 32 81  1  0
 32 82  1  0
M  END
>  <meeko>  (2) 
{"is_sidechain": [false], "intermolecular_energy": 2.731, "internal_energy": -0.839}

$$$$
EPH_relaxed_0001_pdb2pqr_Repair_339_r2_0001_out
     RDKit          3D

 82 86  0  0  0  0  0  0  0  0999 V2000
    0.5870   18.4420   -0.8520 C   0  0  0  0  0  0  0  0  0  0  0  0
    1.5900   17.2930   -0.9860 C   0  0  2  0  0  0  0  0  0  0  0  0
    2.7860   17.6670   -1.8840 C   0  0  0  0  0  0  0  0  0  0  0  0
    4.0460   18.0490   -1.1030 C   0  0  0  0  0  0  0  0  0  0  0  0
    3.7520   18.2720    0.3500 C   0  0  2  0  0  0  0  0  0  0  0  0
    3.5410   19.6420    0.7150 O   0  0  0  0  0  0  0  0  0  0  0  0
    4.6910   19.0020    1.2910 C   0  0  0  0  0  0  0  0  0  0  0  0
    5.9970   19.5570    0.8160 C   0  0  0  0  0  0  0  0  0  0  0  0
    4.5680   18.7510    2.7620 C   0  0  0  0  0  0  0  0  0  0  0  0
    0.8910   16.0560   -1.5370 C   0  0  1  0  0  0  0  0  0  0  0  0
    0.4640   16.2220   -3.0200 C   0  0  0  0  0  0  0  0  0  0  0  0
    0.6220   14.8330   -3.6900 C   0  0  0  0  0  0  0  0  0  0  0  0
    0.8120   13.8500   -2.5100 C   0  0  1  0  0  0  0  0  0  0  0  0
   -0.6310   13.5720   -1.9840 C   0  0  0  0  0  0  0  0  0  0  0  0
    1.5750   12.5240   -2.8310 C   0  0  2  0  0  0  0  0  0  0  0  0
    0.8880   11.6090   -3.8600 C   0  0  0  0  0  0  0  0  0  0  0  0
   -0.0520   10.6000   -3.2890 C   0  0  0  0  0  0  0  0  0  0  0  0
   -0.1230   10.2420   -1.9930 C   0  0  0  0  0  0  0  0  0  0  0  0
    0.8700   10.8020   -0.9660 C   0  0  1  0  0  0  0  0  0  0  0  0
    1.4070    9.6460   -0.0820 C   0  0  0  0  0  0  0  0  0  0  0  0
    0.2870    8.8390    0.5690 C   0  0  0  0  0  0  0  0  0  0  0  0
   -0.6450    8.2510   -0.4870 C   0  0  2  0  0  0  0  0  0  0  0  0
    0.0750    7.2740   -1.2450 O   0  0  0  0  0  0  0  0  0  0  0  0
   -1.2400    9.3210   -1.4440 C   0  0  0  0  0  0  0  0  0  0  0  0
   -2.2590   10.1980   -0.6760 C   0  0  0  0  0  0  0  0  0  0  0  0
   -2.0470    8.5810   -2.5450 C   0  0  0  0  0  0  0  0  0  0  0  0
    2.0330   11.7130   -1.5520 C   0  0  1  0  0  0  0  0  0  0  0  0
    3.2340   10.8240   -1.9950 C   0  0  0  0  0  0  0  0  0  0  0  0
    2.5740   12.6530   -0.4100 C   0  0  0  0  0  0  0  0  0  0  0  0
    1.8530   14.0020   -0.2210 C   0  0  0  0  0  0  0  0  0  0  0  0
    1.6980   14.7330   -1.5580 C   0  0  2  0  0  0  0  0  0  0  0  0
    3.1340   15.0460   -2.1010 C   0  0  0  0  0  0  0  0  0  0  0  0
    0.4065   18.6488    0.2132 H   0  0  0  0  0  0  0  0  0  0  0  0
    0.9936   19.3420   -1.3365 H   0  0  0  0  0  0  0  0  0  0  0  0
   -0.3597   18.1607   -1.3365 H   0  0  0  0  0  0  0  0  0  0  0  0
    1.9862   17.0805    0.0179 H   0  0  0  0  0  0  0  0  0  0  0  0
    3.0225   16.8045   -2.5245 H   0  0  0  0  0  0  0  0  0  0  0  0
    2.4873   18.5519   -2.4652 H   0  0  0  0  0  0  0  0  0  0  0  0
    4.7832   17.2380   -1.1971 H   0  0  0  0  0  0  0  0  0  0  0  0
    4.4371   18.9881   -1.5216 H   0  0  0  0  0  0  0  0  0  0  0  0
    3.2467   17.2975    0.4212 H   0  0  0  0  0  0  0  0  0  0  0  0
    6.6200   19.8217    1.6831 H   0  0  0  0  0  0  0  0  0  0  0  0
    6.5168   18.8020    0.2079 H   0  0  0  0  0  0  0  0  0  0  0  0
    5.8142   20.4552    0.2079 H   0  0  0  0  0  0  0  0  0  0  0  0
    4.9862   19.6044    3.3158 H   0  0  0  0  0  0  0  0  0  0  0  0
    3.5072   18.6273    3.0254 H   0  0  0  0  0  0  0  0  0  0  0  0
    5.1202   17.8369    3.0254 H   0  0  0  0  0  0  0  0  0  0  0  0
    0.0601   15.9793   -0.8203 H   0  0  0  0  0  0  0  0  0  0  0  0
   -0.5833   16.5533   -3.0777 H   0  0  0  0  0  0  0  0  0  0  0  0
    1.0829   16.9772   -3.5267 H   0  0  0  0  0  0  0  0  0  0  0  0
   -0.2777   14.5762   -4.2684 H   0  0  0  0  0  0  0  0  0  0  0  0
    1.4643   14.8041   -4.3969 H   0  0  0  0  0  0  0  0  0  0  0  0
   -0.6268   13.5728   -0.8840 H   0  0  0  0  0  0  0  0  0  0  0  0
   -1.3115   14.3556   -2.3486 H   0  0  0  0  0  0  0  0  0  0  0  0
   -0.9717   12.5917   -2.3486 H   0  0  0  0  0  0  0  0  0  0  0  0
    2.4894   12.8910   -3.3201 H   0  0  0  0  0  0  0  0  0  0  0  0
    0.3218   12.2453   -4.5560 H   0  0  0  0  0  0  0  0  0  0  0  0
    1.6932   11.0357   -4.3427 H   0  0  0  0  0  0  0  0  0  0  0  0
   -0.7456   10.1071   -3.9861 H   0  0  0  0  0  0  0  0  0  0  0  0
    0.3008   11.5115   -0.3475 H   0  0  0  0  0  0  0  0  0  0  0  0
    2.0084    8.9720   -0.7098 H   0  0  0  0  0  0  0  0  0  0  0  0
    2.0085   10.0929    0.7233 H   0  0  0  0  0  0  0  0  0  0  0  0
    0.7277    8.0201    1.1566 H   0  0  0  0  0  0  0  0  0  0  0  0
   -0.2960    9.5078    1.2192 H   0  0  0  0  0  0  0  0  0  0  0  0
   -1.4958    7.7958    0.0411 H   0  0  0  0  0  0  0  0  0  0  0  0
    0.7550    6.8930   -0.6640 H   0  0  0  0  0  0  0  0  0  0  0  0
   -2.1104   10.0701    0.4064 H   0  0  0  0  0  0  0  0  0  0  0  0
   -2.1094   11.2542   -0.9444 H   0  0  0  0  0  0  0  0  0  0  0  0
   -3.2811    9.8927   -0.9444 H   0  0  0  0  0  0  0  0  0  0  0  0
   -2.7796    7.9093   -2.0737 H   0  0  0  0  0  0  0  0  0  0  0  0
   -2.5736    9.3167   -3.1706 H   0  0  0  0  0  0  0  0  0  0  0  0
   -1.3596    7.9928   -3.1706 H   0  0  0  0  0  0  0  0  0  0  0  0
    3.7535   10.4395   -1.1049 H   0  0  0  0  0  0  0  0  0  0  0  0
    2.8637    9.9806   -2.5964 H   0  0  0  0  0  0  0  0  0  0  0  0
    3.9324   11.4244   -2.5964 H   0  0  0  0  0  0  0  0  0  0  0  0
    2.5007   12.1006    0.5384 H   0  0  0  0  0  0  0  0  0  0  0  0
    3.5987   12.9141   -0.7131 H   0  0  0  0  0  0  0  0  0  0  0  0
    0.8563   13.8203    0.2074 H   0  0  0  0  0  0  0  0  0  0  0  0
    2.4538   14.6292    0.4540 H   0  0  0  0  0  0  0  0  0  0  0  0
    3.8212   15.1958   -1.2553 H   0  0  0  0  0  0  0  0  0  0  0  0
    3.4857   14.2034   -2.7145 H   0  0  0  0  0  0  0  0  0  0  0  0
    3.1032   15.9585   -2.7145 H   0  0  0  0  0  0  0  0  0  0  0  0
  1  2  1  0
  2  3  1  0
  3  4  1  0
  4  5  1  0
  5  6  1  0
  6  7  1  0
  7  8  1  0
  7  9  1  0
  2 10  1  0
 10 11  1  0
 11 12  1  0
 12 13  1  0
 13 14  1  1
 13 15  1  0
 15 16  1  0
 16 17  1  0
 17 18  2  0
 18 19  1  0
 19 20  1  0
 20 21  1  0
 21 22  1  0
 22 23  1  0
 22 24  1  0
 24 25  1  0
 24 26  1  0
 19 27  1  0
 27 28  1  6
 27 29  1  0
 29 30  1  0
 30 31  1  0
 31 32  1  6
  7  5  1  0
 31 10  1  0
 31 13  1  0
 27 15  1  0
 24 18  1  0
  1 33  1  0
  1 34  1  0
  1 35  1  0
  2 36  1  1
  3 37  1  0
  3 38  1  0
  4 39  1  0
  4 40  1  0
  5 41  1  1
  8 42  1  0
  8 43  1  0
  8 44  1  0
  9 45  1  0
  9 46  1  0
  9 47  1  0
 10 48  1  1
 11 49  1  0
 11 50  1  0
 12 51  1  0
 12 52  1  0
 14 53  1  0
 14 54  1  0
 14 55  1  0
 15 56  1  6
 16 57  1  0
 16 58  1  0
 17 59  1  0
 19 60  1  1
 20 61  1  0
 20 62  1  0
 21 63  1  0
 21 64  1  0
 22 65  1  1
 23 66  1  0
 25 67  1  0
 25 68  1  0
 25 69  1  0
 26 70  1  0
 26 71  1  0
 26 72  1  0
 28 73  1  0
 28 74  1  0
 28 75  1  0
 29 76  1  0
 29 77  1  0
 30 78  1  0
 30 79  1  0
 32 80  1  0
 32 81  1  0
 32 82  1  0
M  END
>  <meeko>  (3) 
{"is_sidechain": [false], "intermolecular_energy": 2.731, "internal_energy": -0.839}

$$$$
EPH_relaxed_0001_pdb2pqr_Repair_339_r2_0001_out
     RDKit          3D

 82 86  0  0  0  0  0  0  0  0999 V2000
   -0.6680    7.9200   -0.4940 C   0  0  0  0  0  0  0  0  0  0  0  0
   -1.1010    9.2890    0.0370 C   0  0  2  0  0  0  0  0  0  0  0  0
   -2.3580    9.8200   -0.6820 C   0  0  0  0  0  0  0  0  0  0  0  0
   -3.6720    9.3420   -0.0590 C   0  0  0  0  0  0  0  0  0  0  0  0
   -4.0550    7.9790   -0.5490 C   0  0  2  0  0  0  0  0  0  0  0  0
   -4.1820    7.8680   -1.9730 O   0  0  0  0  0  0  0  0  0  0  0  0
   -5.3850    7.6710   -1.2110 C   0  0  0  0  0  0  0  0  0  0  0  0
   -6.4180    8.7330   -1.4190 C   0  0  0  0  0  0  0  0  0  0  0  0
   -5.8730    6.2550   -1.2120 C   0  0  0  0  0  0  0  0  0  0  0  0
    0.0410   10.2880   -0.1060 C   0  0  1  0  0  0  0  0  0  0  0  0
    1.4360    9.6100   -0.0600 C   0  0  0  0  0  0  0  0  0  0  0  0
    2.3520   10.4040   -1.0260 C   0  0  0  0  0  0  0  0  0  0  0  0
    1.5620   11.6970   -1.3370 C   0  0  1  0  0  0  0  0  0  0  0  0
    1.8260   12.6330   -0.1160 C   0  0  0  0  0  0  0  0  0  0  0  0
    1.9000   12.4040   -2.6900 C   0  0  2  0  0  0  0  0  0  0  0  0
    3.3470   12.9130   -2.8170 C   0  0  0  0  0  0  0  0  0  0  0  0
    3.5720   14.3140   -2.3510 C   0  0  0  0  0  0  0  0  0  0  0  0
    2.6100   15.2260   -2.1190 C   0  0  0  0  0  0  0  0  0  0  0  0
    1.1390   14.9110   -2.4180 C   0  0  1  0  0  0  0  0  0  0  0  0
    0.5000   16.1010   -3.1810 C   0  0  0  0  0  0  0  0  0  0  0  0
    0.6760   17.4280   -2.4490 C   0  0  0  0  0  0  0  0  0  0  0  0
    2.1540   17.7330   -2.2220 C   0  0  2  0  0  0  0  0  0  0  0  0
    2.7770   17.9650   -3.4890 O   0  0  0  0  0  0  0  0  0  0  0  0
    2.9050   16.6000   -1.4690 C   0  0  0  0  0  0  0  0  0  0  0  0
    2.4340   16.5530    0.0050 C   0  0  0  0  0  0  0  0  0  0  0  0
    4.4130   16.9700   -1.4310 C   0  0  0  0  0  0  0  0  0  0  0  0
    0.8570   13.5140   -3.1200 C   0  0  1  0  0  0  0  0  0  0  0  0
    0.9770   13.6620   -4.6680 C   0  0  0  0  0  0  0  0  0  0  0  0
   -0.6290   13.0820   -2.8290 C   0  0  0  0  0  0  0  0  0  0  0  0
   -0.8800   12.2830   -1.5360 C   0  0  0  0  0  0  0  0  0  0  0  0
    0.1030   11.1150   -1.4140 C   0  0  2  0  0  0  0  0  0  0  0  0
   -0.1530   10.1450   -2.6170 C   0  0  0  0  0  0  0  0  0  0  0  0
   -0.4558    7.2491    0.3515 H   0  0  0  0  0  0  0  0  0  0  0  0
   -1.4749    7.4927   -1.1075 H   0  0  0  0  0  0  0  0  0  0  0  0
    0.2378    8.0344   -1.1075 H   0  0  0  0  0  0  0  0  0  0  0  0
   -1.3556    9.1653    1.1000 H   0  0  0  0  0  0  0  0  0  0  0  0
   -2.3381   10.9193   -0.6496 H   0  0  0  0  0  0  0  0  0  0  0  0
   -2.3291    9.4295   -1.7100 H   0  0  0  0  0  0  0  0  0  0  0  0
   -3.5564    9.3081    1.0344 H   0  0  0  0  0  0  0  0  0  0  0  0
   -4.4653   10.0461   -0.3503 H   0  0  0  0  0  0  0  0  0  0  0  0
   -3.5183    7.5029    0.2848 H   0  0  0  0  0  0  0  0  0  0  0  0
   -6.7717    9.0966   -0.4430 H   0  0  0  0  0  0  0  0  0  0  0  0
   -5.9771    9.5678   -1.9835 H   0  0  0  0  0  0  0  0  0  0  0  0
   -7.2647    8.3154   -1.9835 H   0  0  0  0  0  0  0  0  0  0  0  0
   -5.9927    5.9077   -0.1752 H   0  0  0  0  0  0  0  0  0  0  0  0
   -6.8415    6.2013   -1.7308 H   0  0  0  0  0  0  0  0  0  0  0  0
   -5.1432    5.6160   -1.7308 H   0  0  0  0  0  0  0  0  0  0  0  0
   -0.1830   10.9474    0.7454 H   0  0  0  0  0  0  0  0  0  0  0  0
    1.8413    9.6466    0.9620 H   0  0  0  0  0  0  0  0  0  0  0  0
    1.3710    8.5529   -0.3572 H   0  0  0  0  0  0  0  0  0  0  0  0
    3.3118   10.6416   -0.5439 H   0  0  0  0  0  0  0  0  0  0  0  0
    2.5941    9.8338   -1.9350 H   0  0  0  0  0  0  0  0  0  0  0  0
    1.6678   12.0721    0.8169 H   0  0  0  0  0  0  0  0  0  0  0  0
    2.8625   12.9994   -0.1523 H   0  0  0  0  0  0  0  0  0  0  0  0
    1.1337   13.4871   -0.1523 H   0  0  0  0  0  0  0  0  0  0  0  0
    1.8079   11.5817   -3.4148 H   0  0  0  0  0  0  0  0  0  0  0  0
    3.9943   12.2494   -2.2248 H   0  0  0  0  0  0  0  0  0  0  0  0
    3.5787   12.9083   -3.8923 H   0  0  0  0  0  0  0  0  0  0  0  0
    4.6130   14.6272   -2.1831 H   0  0  0  0  0  0  0  0  0  0  0  0
    0.6499   14.7878   -1.4405 H   0  0  0  0  0  0  0  0  0  0  0  0
    0.9724   16.1793   -4.1713 H   0  0  0  0  0  0  0  0  0  0  0  0
   -0.5794   15.9049   -3.2615 H   0  0  0  0  0  0  0  0  0  0  0  0
    0.2305   18.2334   -3.0513 H   0  0  0  0  0  0  0  0  0  0  0  0
    0.1773   17.3587   -1.4710 H   0  0  0  0  0  0  0  0  0  0  0  0
    2.2119   18.6258   -1.5820 H   0  0  0  0  0  0  0  0  0  0  0  0
    2.2230   17.5460   -4.1700 H   0  0  0  0  0  0  0  0  0  0  0  0
    3.3050   16.6399    0.6712 H   0  0  0  0  0  0  0  0  0  0  0  0
    1.7420   17.3865    0.1956 H   0  0  0  0  0  0  0  0  0  0  0  0
    1.9204   15.5991    0.1956 H   0  0  0  0  0  0  0  0  0  0  0  0
    4.7444   17.0513   -0.3852 H   0  0  0  0  0  0  0  0  0  0  0  0
    4.9953   16.1881   -1.9404 H   0  0  0  0  0  0  0  0  0  0  0  0
    4.5673   17.9326   -1.9404 H   0  0  0  0  0  0  0  0  0  0  0  0
    1.6535   14.4963   -4.9052 H   0  0  0  0  0  0  0  0  0  0  0  0
    1.3787   12.7314   -5.0953 H   0  0  0  0  0  0  0  0  0  0  0  0
   -0.0166   13.8627   -5.0953 H   0  0  0  0  0  0  0  0  0  0  0  0
   -1.2376   13.9969   -2.7782 H   0  0  0  0  0  0  0  0  0  0  0  0
   -0.8946   12.3962   -3.6470 H   0  0  0  0  0  0  0  0  0  0  0  0
   -0.7551   12.9504   -0.6706 H   0  0  0  0  0  0  0  0  0  0  0  0
   -1.9027   11.8791   -1.5662 H   0  0  0  0  0  0  0  0  0  0  0  0
   -0.4162    9.1478   -2.2344 H   0  0  0  0  0  0  0  0  0  0  0  0
   -0.9797   10.5322   -3.2307 H   0  0  0  0  0  0  0  0  0  0  0  0
    0.7571   10.0738   -3.2307 H   0  0  0  0  0  0  0  0  0  0  0  0
  1  2  1  0
  2  3  1  0
  3  4  1  0
  4  5  1  0
  5  6  1  0
  6  7  1  0
  7  8  1  0
  7  9  1  0
  2 10  1  0
 10 11  1  0
 11 12  1  0
 12 13  1  0
 13 14  1  1
 13 15  1  0
 15 16  1  0
 16 17  1  0
 17 18  2  0
 18 19  1  0
 19 20  1  0
 20 21  1  0
 21 22  1  0
 22 23  1  0
 22 24  1  0
 24 25  1  0
 24 26  1  0
 19 27  1  0
 27 28  1  6
 27 29  1  0
 29 30  1  0
 30 31  1  0
 31 32  1  6
  7  5  1  0
 31 10  1  0
 31 13  1  0
 27 15  1  0
 24 18  1  0
  1 33  1  0
  1 34  1  0
  1 35  1  0
  2 36  1  1
  3 37  1  0
  3 38  1  0
  4 39  1  0
  4 40  1  0
  5 41  1  1
  8 42  1  0
  8 43  1  0
  8 44  1  0
  9 45  1  0
  9 46  1  0
  9 47  1  0
 10 48  1  1
 11 49  1  0
 11 50  1  0
 12 51  1  0
 12 52  1  0
 14 53  1  0
 14 54  1  0
 14 55  1  0
 15 56  1  6
 16 57  1  0
 16 58  1  0
 17 59  1  0
 19 60  1  1
 20 61  1  0
 20 62  1  0
 21 63  1  0
 21 64  1  0
 22 65  1  1
 23 66  1  0
 25 67  1  0
 25 68  1  0
 25 69  1  0
 26 70  1  0
 26 71  1  0
 26 72  1  0
 28 73  1  0
 28 74  1  0
 28 75  1  0
 29 76  1  0
 29 77  1  0
 30 78  1  0
 30 79  1  0
 32 80  1  0
 32 81  1  0
 32 82  1  0
M  END
>  <meeko>  (4) 
{"is_sidechain": [false], "intermolecular_energy": 2.731, "internal_energy": -0.839}

$$$$
EPH_relaxed_0001_pdb2pqr_Repair_339_r2_0001_out
     RDKit          3D

 82 86  0  0  0  0  0  0  0  0999 V2000
    3.7030   17.9030   -1.3660 C   0  0  0  0  0  0  0  0  0  0  0  0
    2.6670   17.4450   -2.3970 C   0  0  2  0  0  0  0  0  0  0  0  0
    1.2500   17.9510   -2.0600 C   0  0  0  0  0  0  0  0  0  0  0  0
    1.1850   18.7980   -0.7850 C   0  0  0  0  0  0  0  0  0  0  0  0
   -0.0550   19.6370   -0.7400 C   0  0  2  0  0  0  0  0  0  0  0  0
   -0.3940   20.1350    0.5610 O   0  0  0  0  0  0  0  0  0  0  0  0
   -1.3260   19.2140   -0.0280 C   0  0  0  0  0  0  0  0  0  0  0  0
   -1.4210   17.9020    0.6870 C   0  0  0  0  0  0  0  0  0  0  0  0
   -2.6200   19.8460   -0.4380 C   0  0  0  0  0  0  0  0  0  0  0  0
    2.6670   15.9240   -2.4940 C   0  0  1  0  0  0  0  0  0  0  0  0
    4.0920   15.3370   -2.6800 C   0  0  0  0  0  0  0  0  0  0  0  0
    4.1240   13.9880   -1.9170 C   0  0  0  0  0  0  0  0  0  0  0  0
    2.6410   13.6840   -1.6010 C   0  0  1  0  0  0  0  0  0  0  0  0
    2.0680   13.0700   -2.9170 C   0  0  0  0  0  0  0  0  0  0  0  0
    2.3730   12.7600   -0.3680 C   0  0  2  0  0  0  0  0  0  0  0  0
    2.9410   11.3350   -0.4850 C   0  0  0  0  0  0  0  0  0  0  0  0
    2.0170   10.3280   -1.0860 C   0  0  0  0  0  0  0  0  0  0  0  0
    0.6910   10.4840   -1.2530 C   0  0  0  0  0  0  0  0  0  0  0  0
   -0.0270   11.7350   -0.7280 C   0  0  1  0  0  0  0  0  0  0  0  0
   -1.3190   11.3140    0.0210 C   0  0  0  0  0  0  0  0  0  0  0  0
   -2.2280   10.4330   -0.8300 C   0  0  0  0  0  0  0  0  0  0  0  0
   -1.4970    9.1720   -1.2850 C   0  0  2  0  0  0  0  0  0  0  0  0
   -1.2220    8.3610   -0.1390 O   0  0  0  0  0  0  0  0  0  0  0  0
   -0.1740    9.4710   -2.0430 C   0  0  0  0  0  0  0  0  0  0  0  0
   -0.4960   10.0840   -3.4290 C   0  0  0  0  0  0  0  0  0  0  0  0
    0.5340    8.1180   -2.3210 C   0  0  0  0  0  0  0  0  0  0  0  0
    0.8660   12.7440    0.1140 C   0  0  1  0  0  0  0  0  0  0  0  0
    0.8830   12.3160    1.6140 C   0  0  0  0  0  0  0  0  0  0  0  0
    0.2080   14.1740    0.0690 C   0  0  0  0  0  0  0  0  0  0  0  0
    0.6040   15.0840   -1.1100 C   0  0  0  0  0  0  0  0  0  0  0  0
    2.1260   15.1330   -1.2760 C   0  0  2  0  0  0  0  0  0  0  0  0
    2.7290   15.7670    0.0240 C   0  0  0  0  0  0  0  0  0  0  0  0
    3.3125   17.7304   -0.3522 H   0  0  0  0  0  0  0  0  0  0  0  0
    4.6334   17.3323   -1.5027 H   0  0  0  0  0  0  0  0  0  0  0  0
    3.9071   18.9752   -1.5027 H   0  0  0  0  0  0  0  0  0  0  0  0
    2.9512   17.8793   -3.3669 H   0  0  0  0  0  0  0  0  0  0  0  0
    0.8902   18.5617   -2.9012 H   0  0  0  0  0  0  0  0  0  0  0  0
    0.6242   17.0629   -1.8879 H   0  0  0  0  0  0  0  0  0  0  0  0
    1.1948   18.1291    0.0882 H   0  0  0  0  0  0  0  0  0  0  0  0
    2.0550   19.4711   -0.7757 H   0  0  0  0  0  0  0  0  0  0  0  0
    0.1313   20.0088   -1.7584 H   0  0  0  0  0  0  0  0  0  0  0  0
   -1.4085   18.0747    1.7733 H   0  0  0  0  0  0  0  0  0  0  0  0
   -2.3579   17.3986    0.4065 H   0  0  0  0  0  0  0  0  0  0  0  0
   -0.5664   17.2688    0.4065 H   0  0  0  0  0  0  0  0  0  0  0  0
   -3.1920   20.1254    0.4591 H   0  0  0  0  0  0  0  0  0  0  0  0
   -2.4151   20.7455   -1.0371 H   0  0  0  0  0  0  0  0  0  0  0  0
   -3.2035   19.1314   -1.0371 H   0  0  0  0  0  0  0  0  0  0  0  0
    1.9954   15.7948   -3.3555 H   0  0  0  0  0  0  0  0  0  0  0  0
    4.2975   15.1729   -3.7481 H   0  0  0  0  0  0  0  0  0  0  0  0
    4.8566   16.0271   -2.2937 H   0  0  0  0  0  0  0  0  0  0  0  0
    4.5574   13.1963   -2.5458 H   0  0  0  0  0  0  0  0  0  0  0  0
    4.7428   14.0367   -1.0089 H   0  0  0  0  0  0  0  0  0  0  0  0
    1.3370   12.2866   -2.6682 H   0  0  0  0  0  0  0  0  0  0  0  0
    1.5750   13.8581   -3.5050 H   0  0  0  0  0  0  0  0  0  0  0  0
    2.8883   12.6326   -3.5050 H   0  0  0  0  0  0  0  0  0  0  0  0
    2.9567   13.2497    0.4254 H   0  0  0  0  0  0  0  0  0  0  0  0
    3.8465   11.3800   -1.1080 H   0  0  0  0  0  0  0  0  0  0  0  0
    3.1312   10.9975    0.5445 H   0  0  0  0  0  0  0  0  0  0  0  0
    2.4578    9.3775   -1.4208 H   0  0  0  0  0  0  0  0  0  0  0  0
   -0.2876   12.3316   -1.6146 H   0  0  0  0  0  0  0  0  0  0  0  0
   -1.0360   10.7576    0.9267 H   0  0  0  0  0  0  0  0  0  0  0  0
   -1.8763   12.2302    0.2661 H   0  0  0  0  0  0  0  0  0  0  0  0
   -3.1079   10.1444   -0.2363 H   0  0  0  0  0  0  0  0  0  0  0  0
   -2.5340   11.0016   -1.7205 H   0  0  0  0  0  0  0  0  0  0  0  0
   -2.1533    8.6476   -1.9951 H   0  0  0  0  0  0  0  0  0  0  0  0
   -0.3140    8.5550    0.1480 H   0  0  0  0  0  0  0  0  0  0  0  0
   -1.0036   11.0504   -3.2935 H   0  0  0  0  0  0  0  0  0  0  0  0
    0.4386   10.2361   -3.9888 H   0  0  0  0  0  0  0  0  0  0  0  0
   -1.1516    9.4007   -3.9888 H   0  0  0  0  0  0  0  0  0  0  0  0
    0.7874    7.6338   -1.3664 H   0  0  0  0  0  0  0  0  0  0  0  0
   -0.1376    7.4642   -2.8968 H   0  0  0  0  0  0  0  0  0  0  0  0
    1.4540    8.2971   -2.8968 H   0  0  0  0  0  0  0  0  0  0  0  0
    0.8474   13.2118    2.2513 H   0  0  0  0  0  0  0  0  0  0  0  0
    0.0093   11.6815    1.8242 H   0  0  0  0  0  0  0  0  0  0  0  0
    1.8042   11.7528    1.8242 H   0  0  0  0  0  0  0  0  0  0  0  0
   -0.8829   14.0374    0.0322 H   0  0  0  0  0  0  0  0  0  0  0  0
    0.5779   14.6896    0.9676 H   0  0  0  0  0  0  0  0  0  0  0  0
    0.1534   14.6927   -2.0340 H   0  0  0  0  0  0  0  0  0  0  0  0
    0.2400   16.1017   -0.9059 H   0  0  0  0  0  0  0  0  0  0  0  0
    2.2772   15.2919    0.9073 H   0  0  0  0  0  0  0  0  0  0  0  0
    3.8174   15.6081    0.0387 H   0  0  0  0  0  0  0  0  0  0  0  0
    2.5158   16.8460    0.0387 H   0  0  0  0  0  0  0  0  0  0  0  0
  1  2  1  0
  2  3  1  0
  3  4  1  0
  4  5  1  0
  5  6  1  0
  6  7  1  0
  7  8  1  0
  7  9  1  0
  2 10  1  0
 10 11  1  0
 11 12  1  0
 12 13  1  0
 13 14  1  6
 13 15  1  0
 15 16  1  0
 16 17  1  0
 17 18  2  0
 18 19  1  0
 19 20  1  0
 20 21  1  0
 21 22  1  0
 22 23  1  0
 22 24  1  0
 24 25  1  0
 24 26  1  0
 19 27  1  0
 27 28  1  1
 27 29  1  0
 29 30  1  0
 30 31  1  0
 31 32  1  1
  7  5  1  0
 31 10  1  0
 31 13  1  0
 27 15  1  0
 24 18  1  0
  1 33  1  0
  1 34  1  0
  1 35  1  0
  2 36  1  6
  3 37  1  0
  3 38  1  0
  4 39  1  0
  4 40  1  0
  5 41  1  6
  8 42  1  0
  8 43  1  0
  8 44  1  0
  9 45  1  0
  9 46  1  0
  9 47  1  0
 10 48  1  6
 11 49  1  0
 11 50  1  0
 12 51  1  0
 12 52  1  0
 14 53  1  0
 14 54  1  0
 14 55  1  0
 15 56  1  1
 16 57  1  0
 16 58  1  0
 17 59  1  0
 19 60  1  6
 20 61  1  0
 20 62  1  0
 21 63  1  0
 21 64  1  0
 22 65  1  6
 23 66  1  0
 25 67  1  0
 25 68  1  0
 25 69  1  0
 26 70  1  0
 26 71  1  0
 26 72  1  0
 28 73  1  0
 28 74  1  0
 28 75  1  0
 29 76  1  0
 29 77  1  0
 30 78  1  0
 30 79  1  0
 32 80  1  0
 32 81  1  0
 32 82  1  0
M  END
>  <meeko>  (5) 
{"is_sidechain": [false], "intermolecular_energy": 2.731, "internal_energy": -0.839}

$$$$
EPH_relaxed_0001_pdb2pqr_Repair_339_r2_0001_out
     RDKit          3D

 82 86  0  0  0  0  0  0  0  0999 V2000
   -2.5990    7.6160   -3.0470 C   0  0  0  0  0  0  0  0  0  0  0  0
   -2.8900    7.8760   -1.5660 C   0  0  2  0  0  0  0  0  0  0  0  0
   -4.4000    7.8420   -1.2570 C   0  0  0  0  0  0  0  0  0  0  0  0
   -5.1320    6.6570   -1.8930 C   0  0  0  0  0  0  0  0  0  0  0  0
   -6.3400    7.1000   -2.6620 C   0  0  2  0  0  0  0  0  0  0  0  0
   -6.8950    8.3520   -2.2350 O   0  0  0  0  0  0  0  0  0  0  0  0
   -7.7280    7.1950   -2.0560 C   0  0  0  0  0  0  0  0  0  0  0  0
   -7.9800    6.8430   -0.6230 C   0  0  0  0  0  0  0  0  0  0  0  0
   -8.9120    7.1570   -2.9710 C   0  0  0  0  0  0  0  0  0  0  0  0
   -2.3030    9.2200   -1.1500 C   0  0  1  0  0  0  0  0  0  0  0  0
   -2.8080    9.6870    0.2410 C   0  0  0  0  0  0  0  0  0  0  0  0
   -1.6300   10.4350    0.9170 C   0  0  0  0  0  0  0  0  0  0  0  0
   -0.6090   10.6640   -0.2230 C   0  0  1  0  0  0  0  0  0  0  0  0
   -1.1350   11.9200   -0.9860 C   0  0  0  0  0  0  0  0  0  0  0  0
    0.8830   10.8350    0.2110 C   0  0  2  0  0  0  0  0  0  0  0  0
    1.1680   12.0560    1.1030 C   0  0  0  0  0  0  0  0  0  0  0  0
    1.5300   13.3070    0.3730 C   0  0  0  0  0  0  0  0  0  0  0  0
    1.9000   13.3800   -0.9190 C   0  0  0  0  0  0  0  0  0  0  0  0
    2.0790   12.1100   -1.7600 C   0  0  1  0  0  0  0  0  0  0  0  0
    3.4100   12.1960   -2.5520 C   0  0  0  0  0  0  0  0  0  0  0  0
    3.5130   13.4690   -3.3870 C   0  0  0  0  0  0  0  0  0  0  0  0
    3.3890   14.7100   -2.5080 C   0  0  2  0  0  0  0  0  0  0  0  0
    4.5300   14.7810   -1.6470 O   0  0  0  0  0  0  0  0  0  0  0  0
    2.0890   14.7300   -1.6550 C   0  0  0  0  0  0  0  0  0  0  0  0
    0.8650   14.9560   -2.5760 C   0  0  0  0  0  0  0  0  0  0  0  0
    2.1560   15.9610   -0.7110 C   0  0  0  0  0  0  0  0  0  0  0  0
    1.9200   10.7340   -0.9800 C   0  0  1  0  0  0  0  0  0  0  0  0
    3.2840   10.3200   -0.3490 C   0  0  0  0  0  0  0  0  0  0  0  0
    1.5430    9.6020   -2.0070 C   0  0  0  0  0  0  0  0  0  0  0  0
    0.0450    9.4030   -2.3040 C   0  0  0  0  0  0  0  0  0  0  0  0
   -0.7630    9.3100   -1.0060 C   0  0  2  0  0  0  0  0  0  0  0  0
   -0.2720    8.0420   -0.2270 C   0  0  0  0  0  0  0  0  0  0  0  0
   -1.7815    6.8856   -3.1373 H   0  0  0  0  0  0  0  0  0  0  0  0
   -3.5017    7.2181   -3.5337 H   0  0  0  0  0  0  0  0  0  0  0  0
   -2.3048    8.5576   -3.5337 H   0  0  0  0  0  0  0  0  0  0  0  0
   -2.4166    7.0685   -0.9881 H   0  0  0  0  0  0  0  0  0  0  0  0
   -4.5300    7.7856   -0.1662 H   0  0  0  0  0  0  0  0  0  0  0  0
   -4.8363    8.7566   -1.6850 H   0  0  0  0  0  0  0  0  0  0  0  0
   -4.4441    6.1386   -2.5772 H   0  0  0  0  0  0  0  0  0  0  0  0
   -5.4653    5.9869   -1.0868 H   0  0  0  0  0  0  0  0  0  0  0  0
   -5.9655    6.6165   -3.5763 H   0  0  0  0  0  0  0  0  0  0  0  0
   -7.4638    7.5640    0.0279 H   0  0  0  0  0  0  0  0  0  0  0  0
   -9.0610    6.8760   -0.4220 H   0  0  0  0  0  0  0  0  0  0  0  0
   -7.6004    5.8303   -0.4220 H   0  0  0  0  0  0  0  0  0  0  0  0
   -9.8357    7.1274   -2.3744 H   0  0  0  0  0  0  0  0  0  0  0  0
   -8.9140    8.0555   -3.6055 H   0  0  0  0  0  0  0  0  0  0  0  0
   -8.8564    6.2602   -3.6055 H   0  0  0  0  0  0  0  0  0  0  0  0
   -2.6379    9.8375   -1.9965 H   0  0  0  0  0  0  0  0  0  0  0  0
   -3.6684   10.3623    0.1244 H   0  0  0  0  0  0  0  0  0  0  0  0
   -3.1340    8.8312    0.8504 H   0  0  0  0  0  0  0  0  0  0  0  0
   -1.9678   11.3949    1.3347 H   0  0  0  0  0  0  0  0  0  0  0  0
   -1.2000    9.8664    1.7547 H   0  0  0  0  0  0  0  0  0  0  0  0
   -1.4544   12.6826   -0.2605 H   0  0  0  0  0  0  0  0  0  0  0  0
   -0.3322   12.3282   -1.6176 H   0  0  0  0  0  0  0  0  0  0  0  0
   -1.9891   11.6343   -1.6176 H   0  0  0  0  0  0  0  0  0  0  0  0
    1.0446    9.9547    0.8505 H   0  0  0  0  0  0  0  0  0  0  0  0
    0.2665   12.2591    1.6997 H   0  0  0  0  0  0  0  0  0  0  0  0
    2.0468   11.7919    1.7096 H   0  0  0  0  0  0  0  0  0  0  0  0
    1.4910   14.2492    0.9393 H   0  0  0  0  0  0  0  0  0  0  0  0
    1.2303   12.0863   -2.4594 H   0  0  0  0  0  0  0  0  0  0  0  0
    4.2469   12.1737   -1.8385 H   0  0  0  0  0  0  0  0  0  0  0  0
    3.4435   11.3403   -3.2424 H   0  0  0  0  0  0  0  0  0  0  0  0
    4.4867   13.4861   -3.8985 H   0  0  0  0  0  0  0  0  0  0  0  0
    2.6929   13.4750   -4.1201 H   0  0  0  0  0  0  0  0  0  0  0  0
    3.3396   15.5830   -3.1754 H   0  0  0  0  0  0  0  0  0  0  0  0
    4.6630   15.7150   -1.4110 H   0  0  0  0  0  0  0  0  0  0  0  0
   -0.0315   15.1215   -1.9604 H   0  0  0  0  0  0  0  0  0  0  0  0
    1.0415   15.8367   -3.2109 H   0  0  0  0  0  0  0  0  0  0  0  0
    0.7154   14.0703   -3.2109 H   0  0  0  0  0  0  0  0  0  0  0  0
    2.1376   15.6221    0.3353 H   0  0  0  0  0  0  0  0  0  0  0  0
    3.0858   16.5177   -0.8998 H   0  0  0  0  0  0  0  0  0  0  0  0
    1.2921   16.6153   -0.8998 H   0  0  0  0  0  0  0  0  0  0  0  0
    3.2031   10.3445    0.7477 H   0  0  0  0  0  0  0  0  0  0  0  0
    3.5448    9.3022   -0.6747 H   0  0  0  0  0  0  0  0  0  0  0  0
    4.0665   11.0211   -0.6747 H   0  0  0  0  0  0  0  0  0  0  0  0
    2.0424    9.8366   -2.9586 H   0  0  0  0  0  0  0  0  0  0  0  0
    1.8690    8.6642   -1.5334 H   0  0  0  0  0  0  0  0  0  0  0  0
   -0.3210   10.2551   -2.8956 H   0  0  0  0  0  0  0  0  0  0  0  0
   -0.0802    8.4642   -2.8634 H   0  0  0  0  0  0  0  0  0  0  0  0
   -0.3433    8.2261    0.8551 H   0  0  0  0  0  0  0  0  0  0  0  0
   -0.9016    7.1806   -0.4947 H   0  0  0  0  0  0  0  0  0  0  0  0
    0.7735    7.8293   -0.4947 H   0  0  0  0  0  0  0  0  0  0  0  0
  1  2  1  0
  2  3  1  0
  3  4  1  0
  4  5  1  0
  5  6  1  0
  6  7  1  0
  7  8  1  0
  7  9  1  0
  2 10  1  0
 10 11  1  0
 11 12  1  0
 12 13  1  0
 13 14  1  6
 13 15  1  0
 15 16  1  0
 16 17  1  0
 17 18  2  0
 18 19  1  0
 19 20  1  0
 20 21  1  0
 21 22  1  0
 22 23  1  0
 22 24  1  0
 24 25  1  0
 24 26  1  0
 19 27  1  0
 27 28  1  1
 27 29  1  0
 29 30  1  0
 30 31  1  0
 31 32  1  1
  7  5  1  0
 31 10  1  0
 31 13  1  0
 27 15  1  0
 24 18  1  0
  1 33  1  0
  1 34  1  0
  1 35  1  0
  2 36  1  1
  3 37  1  0
  3 38  1  0
  4 39  1  0
  4 40  1  0
  5 41  1  6
  8 42  1  0
  8 43  1  0
  8 44  1  0
  9 45  1  0
  9 46  1  0
  9 47  1  0
 10 48  1  6
 11 49  1  0
 11 50  1  0
 12 51  1  0
 12 52  1  0
 14 53  1  0
 14 54  1  0
 14 55  1  0
 15 56  1  1
 16 57  1  0
 16 58  1  0
 17 59  1  0
 19 60  1  6
 20 61  1  0
 20 62  1  0
 21 63  1  0
 21 64  1  0
 22 65  1  6
 23 66  1  0
 25 67  1  0
 25 68  1  0
 25 69  1  0
 26 70  1  0
 26 71  1  0
 26 72  1  0
 28 73  1  0
 28 74  1  0
 28 75  1  0
 29 76  1  0
 29 77  1  0
 30 78  1  0
 30 79  1  0
 32 80  1  0
 32 81  1  0
 32 82  1  0
M  END
>  <meeko>  (6) 
{"is_sidechain": [false], "intermolecular_energy": 2.731, "internal_energy": -0.839}

$$$$
EPH_relaxed_0001_pdb2pqr_Repair_339_r2_0001_out
     RDKit          3D

 82 86  0  0  0  0  0  0  0  0999 V2000
    1.3620   18.2090   -2.9170 C   0  0  0  0  0  0  0  0  0  0  0  0
    2.0100   17.4670   -1.7450 C   0  0  2  0  0  0  0  0  0  0  0  0
    3.4130   18.0150   -1.4160 C   0  0  0  0  0  0  0  0  0  0  0  0
    3.3920   19.3060   -0.5930 C   0  0  0  0  0  0  0  0  0  0  0  0
    3.4400   19.0270    0.8780 C   0  0  2  0  0  0  0  0  0  0  0  0
    3.5640   20.1910    1.7050 O   0  0  0  0  0  0  0  0  0  0  0  0
    4.6670   19.2710    1.7370 C   0  0  0  0  0  0  0  0  0  0  0  0
    5.9320   19.8180    1.1530 C   0  0  0  0  0  0  0  0  0  0  0  0
    4.7950   18.5280    3.0300 C   0  0  0  0  0  0  0  0  0  0  0  0
    2.0920   15.9770   -2.0540 C   0  0  1  0  0  0  0  0  0  0  0  0
    3.4970   15.5470   -2.5530 C   0  0  0  0  0  0  0  0  0  0  0  0
    3.7500   14.1190   -2.0040 C   0  0  0  0  0  0  0  0  0  0  0  0
    2.3680   13.6470   -1.4940 C   0  0  1  0  0  0  0  0  0  0  0  0
    1.6150   13.1590   -2.7720 C   0  0  0  0  0  0  0  0  0  0  0  0
    2.3790   12.5530   -0.3780 C   0  0  2  0  0  0  0  0  0  0  0  0
    3.0090   11.2100   -0.7860 C   0  0  0  0  0  0  0  0  0  0  0  0
    2.0620   10.2110   -1.3630 C   0  0  0  0  0  0  0  0  0  0  0  0
    0.7200   10.2710   -1.2870 C   0  0  0  0  0  0  0  0  0  0  0  0
    0.0250   11.3750   -0.4800 C   0  0  1  0  0  0  0  0  0  0  0  0
   -1.0860   10.7500    0.4040 C   0  0  0  0  0  0  0  0  0  0  0  0
   -2.0710    9.9090   -0.4020 C   0  0  0  0  0  0  0  0  0  0  0  0
   -1.3500    8.7860   -1.1440 C   0  0  2  0  0  0  0  0  0  0  0  0
   -0.8270    7.8620   -0.1850 O   0  0  0  0  0  0  0  0  0  0  0  0
   -0.2020    9.2950   -2.0590 C   0  0  0  0  0  0  0  0  0  0  0  0
   -0.8000   10.0490   -3.2730 C   0  0  0  0  0  0  0  0  0  0  0  0
    0.5330    8.0560   -2.6370 C   0  0  0  0  0  0  0  0  0  0  0  0
    0.9840   12.3430    0.3380 C   0  0  1  0  0  0  0  0  0  0  0  0
    1.2900   11.7300    1.7390 C   0  0  0  0  0  0  0  0  0  0  0  0
    0.2360   13.7040    0.6040 C   0  0  0  0  0  0  0  0  0  0  0  0
    0.3610   14.7880   -0.4830 C   0  0  0  0  0  0  0  0  0  0  0  0
    1.8240   14.9920   -0.8880 C   0  0  2  0  0  0  0  0  0  0  0  0
    2.6020   15.5050    0.3710 C   0  0  0  0  0  0  0  0  0  0  0  0
    0.6846   18.9847   -2.5304 H   0  0  0  0  0  0  0  0  0  0  0  0
    2.1444   18.6785   -3.5313 H   0  0  0  0  0  0  0  0  0  0  0  0
    0.7914   17.4969   -3.5313 H   0  0  0  0  0  0  0  0  0  0  0  0
    1.3765   17.6283   -0.8603 H   0  0  0  0  0  0  0  0  0  0  0  0
    3.9603   17.2492   -0.8468 H   0  0  0  0  0  0  0  0  0  0  0  0
    3.8983   18.2524   -2.3742 H   0  0  0  0  0  0  0  0  0  0  0  0
    4.2634   19.9182   -0.8682 H   0  0  0  0  0  0  0  0  0  0  0  0
    2.4529   19.8358   -0.8107 H   0  0  0  0  0  0  0  0  0  0  0  0
    2.7871   18.1501    0.7561 H   0  0  0  0  0  0  0  0  0  0  0  0
    6.6133   20.1126    1.9648 H   0  0  0  0  0  0  0  0  0  0  0  0
    6.4127   19.0473    0.5325 H   0  0  0  0  0  0  0  0  0  0  0  0
    5.6997   20.6961    0.5325 H   0  0  0  0  0  0  0  0  0  0  0  0
    4.6743   19.2289    3.8692 H   0  0  0  0  0  0  0  0  0  0  0  0
    4.0173   17.7520    3.0856 H   0  0  0  0  0  0  0  0  0  0  0  0
    5.7875   18.0570    3.0856 H   0  0  0  0  0  0  0  0  0  0  0  0
    1.2899   15.9001   -2.8028 H   0  0  0  0  0  0  0  0  0  0  0  0
    3.5225   15.5399   -3.6527 H   0  0  0  0  0  0  0  0  0  0  0  0
    4.2708   16.2467   -2.2042 H   0  0  0  0  0  0  0  0  0  0  0  0
    4.1171   13.4558   -2.8011 H   0  0  0  0  0  0  0  0  0  0  0  0
    4.5138   14.1054   -1.2126 H   0  0  0  0  0  0  0  0  0  0  0  0
    0.7259   12.5828   -2.4761 H   0  0  0  0  0  0  0  0  0  0  0  0
    1.3059   14.0289   -3.3701 H   0  0  0  0  0  0  0  0  0  0  0  0
    2.2828   12.5215   -3.3701 H   0  0  0  0  0  0  0  0  0  0  0  0
    3.0594   12.9868    0.3696 H   0  0  0  0  0  0  0  0  0  0  0  0
    3.7872   11.4136   -1.5363 H   0  0  0  0  0  0  0  0  0  0  0  0
    3.3971   10.7618    0.1406 H   0  0  0  0  0  0  0  0  0  0  0  0
    2.4982    9.3530   -1.8955 H   0  0  0  0  0  0  0  0  0  0  0  0
   -0.4252   12.0543   -1.2188 H   0  0  0  0  0  0  0  0  0  0  0  0
   -0.6138   10.1091    1.1631 H   0  0  0  0  0  0  0  0  0  0  0  0
   -1.6498   11.5747    0.8644 H   0  0  0  0  0  0  0  0  0  0  0  0
   -2.8133    9.4705    0.2812 H   0  0  0  0  0  0  0  0  0  0  0  0
   -2.5643   10.5578   -1.1407 H   0  0  0  0  0  0  0  0  0  0  0  0
   -2.0848    8.3011   -1.8034 H   0  0  0  0  0  0  0  0  0  0  0  0
   -0.5380    8.3740    0.5900 H   0  0  0  0  0  0  0  0  0  0  0  0
   -1.4466   10.8642   -2.9161 H   0  0  0  0  0  0  0  0  0  0  0  0
    0.0147   10.4672   -3.8825 H   0  0  0  0  0  0  0  0  0  0  0  0
   -1.3927    9.3510   -3.8825 H   0  0  0  0  0  0  0  0  0  0  0  0
    0.9036    7.4312   -1.8110 H   0  0  0  0  0  0  0  0  0  0  0  0
   -0.1643    7.4712   -3.2548 H   0  0  0  0  0  0  0  0  0  0  0  0
    1.3806    8.3876   -3.2548 H   0  0  0  0  0  0  0  0  0  0  0  0
    0.9458   12.4194    2.5240 H   0  0  0  0  0  0  0  0  0  0  0  0
    0.7664   10.7680    1.8406 H   0  0  0  0  0  0  0  0  0  0  0  0
    2.3736   11.5702    1.8406 H   0  0  0  0  0  0  0  0  0  0  0  0
   -0.8334   13.4777    0.7271 H   0  0  0  0  0  0  0  0  0  0  0  0
    0.7217   14.1308    1.4939 H   0  0  0  0  0  0  0  0  0  0  0  0
   -0.2174   14.4800   -1.3665 H   0  0  0  0  0  0  0  0  0  0  0  0
   -0.0268   15.7352   -0.0800 H   0  0  0  0  0  0  0  0  0  0  0  0
    2.0882   15.1662    1.2827 H   0  0  0  0  0  0  0  0  0  0  0  0
    3.6265   15.1047    0.3572 H   0  0  0  0  0  0  0  0  0  0  0  0
    2.6377   16.6043    0.3572 H   0  0  0  0  0  0  0  0  0  0  0  0
  1  2  1  0
  2  3  1  0
  3  4  1  0
  4  5  1  0
  5  6  1  0
  6  7  1  0
  7  8  1  0
  7  9  1  0
  2 10  1  0
 10 11  1  0
 11 12  1  0
 12 13  1  0
 13 14  1  6
 13 15  1  0
 15 16  1  0
 16 17  1  0
 17 18  2  0
 18 19  1  0
 19 20  1  0
 20 21  1  0
 21 22  1  0
 22 23  1  0
 22 24  1  0
 24 25  1  0
 24 26  1  0
 19 27  1  0
 27 28  1  1
 27 29  1  0
 29 30  1  0
 30 31  1  0
 31 32  1  1
  7  5  1  0
 31 10  1  0
 31 13  1  0
 27 15  1  0
 24 18  1  0
  1 33  1  0
  1 34  1  0
  1 35  1  0
  2 36  1  1
  3 37  1  0
  3 38  1  0
  4 39  1  0
  4 40  1  0
  5 41  1  1
  8 42  1  0
  8 43  1  0
  8 44  1  0
  9 45  1  0
  9 46  1  0
  9 47  1  0
 10 48  1  6
 11 49  1  0
 11 50  1  0
 12 51  1  0
 12 52  1  0
 14 53  1  0
 14 54  1  0
 14 55  1  0
 15 56  1  1
 16 57  1  0
 16 58  1  0
 17 59  1  0
 19 60  1  6
 20 61  1  0
 20 62  1  0
 21 63  1  0
 21 64  1  0
 22 65  1  6
 23 66  1  0
 25 67  1  0
 25 68  1  0
 25 69  1  0
 26 70  1  0
 26 71  1  0
 26 72  1  0
 28 73  1  0
 28 74  1  0
 28 75  1  0
 29 76  1  0
 29 77  1  0
 30 78  1  0
 30 79  1  0
 32 80  1  0
 32 81  1  0
 32 82  1  0
M  END
>  <meeko>  (7) 
{"is_sidechain": [false], "intermolecular_energy": 2.731, "internal_energy": -0.839}

$$$$
EPH_relaxed_0001_pdb2pqr_Repair_339_r2_0001_out
     RDKit          3D

 82 86  0  0  0  0  0  0  0  0999 V2000
    0.5140    9.0790   -2.3540 C   0  0  0  0  0  0  0  0  0  0  0  0
    1.2890   10.2010   -3.0500 C   0  0  2  0  0  0  0  0  0  0  0  0
    2.7770   10.2160   -2.6460 C   0  0  0  0  0  0  0  0  0  0  0  0
    3.7220   10.5960   -3.7890 C   0  0  0  0  0  0  0  0  0  0  0  0
    5.1160   10.8450   -3.2970 C   0  0  2  0  0  0  0  0  0  0  0  0
    5.7070   12.0640   -3.7630 O   0  0  0  0  0  0  0  0  0  0  0  0
    6.3340   10.8470   -4.2010 C   0  0  0  0  0  0  0  0  0  0  0  0
    6.2150   10.5960   -5.6710 C   0  0  0  0  0  0  0  0  0  0  0  0
    7.6800   10.6090   -3.5890 C   0  0  0  0  0  0  0  0  0  0  0  0
    0.6500   11.5480   -2.7340 C   0  0  1  0  0  0  0  0  0  0  0  0
   -0.6150   11.4150   -1.8440 C   0  0  0  0  0  0  0  0  0  0  0  0
   -0.6380   12.6540   -0.9120 C   0  0  0  0  0  0  0  0  0  0  0  0
    0.4140   13.6150   -1.5150 C   0  0  1  0  0  0  0  0  0  0  0  0
   -0.3230   14.3290   -2.6910 C   0  0  0  0  0  0  0  0  0  0  0  0
    1.0560   14.6430   -0.5270 C   0  0  2  0  0  0  0  0  0  0  0  0
    0.0740   15.6470    0.0990 C   0  0  0  0  0  0  0  0  0  0  0  0
   -0.1110   16.9190   -0.6610 C   0  0  0  0  0  0  0  0  0  0  0  0
    0.6930   17.3650   -1.6440 C   0  0  0  0  0  0  0  0  0  0  0  0
    1.9770   16.6120   -2.0150 C   0  0  1  0  0  0  0  0  0  0  0  0
    3.1490   17.6210   -2.1480 C   0  0  0  0  0  0  0  0  0  0  0  0
    2.8370   18.7560   -3.1190 C   0  0  0  0  0  0  0  0  0  0  0  0
    1.5870   19.5170   -2.6840 C   0  0  2  0  0  0  0  0  0  0  0  0
    1.8640   20.1940   -1.4540 O   0  0  0  0  0  0  0  0  0  0  0  0
    0.3430   18.6020   -2.5080 C   0  0  0  0  0  0  0  0  0  0  0  0
   -0.1390   18.1070   -3.8940 C   0  0  0  0  0  0  0  0  0  0  0  0
   -0.8100   19.4690   -1.9320 C   0  0  0  0  0  0  0  0  0  0  0  0
    2.3420   15.3700   -1.0950 C   0  0  1  0  0  0  0  0  0  0  0  0
    3.1660   15.8470    0.1410 C   0  0  0  0  0  0  0  0  0  0  0  0
    3.2770   14.3910   -1.9000 C   0  0  0  0  0  0  0  0  0  0  0  0
    2.5820   13.3210   -2.7640 C   0  0  0  0  0  0  0  0  0  0  0  0
    1.5090   12.5790   -1.9610 C   0  0  2  0  0  0  0  0  0  0  0  0
    2.2240   11.8330   -0.7830 C   0  0  0  0  0  0  0  0  0  0  0  0
    0.5963    9.1982   -1.2636 H   0  0  0  0  0  0  0  0  0  0  0  0
   -0.5446    9.1268   -2.6492 H   0  0  0  0  0  0  0  0  0  0  0  0
    0.9334    8.1059   -2.6492 H   0  0  0  0  0  0  0  0  0  0  0  0
    1.2427   10.0127   -4.1328 H   0  0  0  0  0  0  0  0  0  0  0  0
    2.9081   10.9430   -1.8310 H   0  0  0  0  0  0  0  0  0  0  0  0
    3.0373    9.1916   -2.3412 H   0  0  0  0  0  0  0  0  0  0  0  0
    3.7437    9.7754   -4.5212 H   0  0  0  0  0  0  0  0  0  0  0  0
    3.3495   11.5239   -4.2475 H   0  0  0  0  0  0  0  0  0  0  0  0
    4.8999   10.3259   -2.3516 H   0  0  0  0  0  0  0  0  0  0  0  0
    5.7493    9.6137   -5.8387 H   0  0  0  0  0  0  0  0  0  0  0  0
    5.5926   11.3796   -6.1276 H   0  0  0  0  0  0  0  0  0  0  0  0
    7.2157   10.6101   -6.1276 H   0  0  0  0  0  0  0  0  0  0  0  0
    7.5922   10.6245   -2.4926 H   0  0  0  0  0  0  0  0  0  0  0  0
    8.0618    9.6294   -3.9124 H   0  0  0  0  0  0  0  0  0  0  0  0
    8.3746   11.3983   -3.9124 H   0  0  0  0  0  0  0  0  0  0  0  0
    0.4619   11.9071   -3.7566 H   0  0  0  0  0  0  0  0  0  0  0  0
   -1.5188   11.3955   -2.4707 H   0  0  0  0  0  0  0  0  0  0  0  0
   -0.5917   10.4824   -1.2611 H   0  0  0  0  0  0  0  0  0  0  0  0
   -1.6343   13.1203   -0.9103 H   0  0  0  0  0  0  0  0  0  0  0  0
   -0.4151   12.3941    0.1334 H   0  0  0  0  0  0  0  0  0  0  0  0
   -1.0574   15.0405   -2.2854 H   0  0  0  0  0  0  0  0  0  0  0  0
    0.4094   14.8699   -3.3082 H   0  0  0  0  0  0  0  0  0  0  0  0
   -0.8405   13.5798   -3.3082 H   0  0  0  0  0  0  0  0  0  0  0  0
    1.3911   13.9989    0.2993 H   0  0  0  0  0  0  0  0  0  0  0  0
   -0.9066   15.1557    0.1827 H   0  0  0  0  0  0  0  0  0  0  0  0
    0.5087   15.9329    1.0682 H   0  0  0  0  0  0  0  0  0  0  0  0
   -0.9766   17.5436   -0.3953 H   0  0  0  0  0  0  0  0  0  0  0  0
    1.7814   16.1373   -2.9878 H   0  0  0  0  0  0  0  0  0  0  0  0
    3.3575   18.0517   -1.1575 H   0  0  0  0  0  0  0  0  0  0  0  0
    4.0176   17.0735   -2.5426 H   0  0  0  0  0  0  0  0  0  0  0  0
    3.6897   19.4503   -3.1473 H   0  0  0  0  0  0  0  0  0  0  0  0
    2.6579   18.3265   -4.1157 H   0  0  0  0  0  0  0  0  0  0  0  0
    1.3406   20.2310   -3.4837 H   0  0  0  0  0  0  0  0  0  0  0  0
    2.0680   19.5180   -0.7860 H   0  0  0  0  0  0  0  0  0  0  0  0
   -0.9006   17.3248   -3.7595 H   0  0  0  0  0  0  0  0  0  0  0  0
   -0.5728   18.9489   -4.4535 H   0  0  0  0  0  0  0  0  0  0  0  0
    0.7141   17.6957   -4.4535 H   0  0  0  0  0  0  0  0  0  0  0  0
   -0.7748   19.4425   -0.8329 H   0  0  0  0  0  0  0  0  0  0  0  0
   -0.6961   20.5071   -2.2776 H   0  0  0  0  0  0  0  0  0  0  0  0
   -1.7756   19.0714   -2.2776 H   0  0  0  0  0  0  0  0  0  0  0  0
    2.6486   15.5475    1.0644 H   0  0  0  0  0  0  0  0  0  0  0  0
    4.1651   15.3876    0.1150 H   0  0  0  0  0  0  0  0  0  0  0  0
    3.2652   16.9422    0.1150 H   0  0  0  0  0  0  0  0  0  0  0  0
    3.9034   15.0019   -2.5667 H   0  0  0  0  0  0  0  0  0  0  0  0
    3.8315   13.8279   -1.1349 H   0  0  0  0  0  0  0  0  0  0  0  0
    2.1104   13.8085   -3.6300 H   0  0  0  0  0  0  0  0  0  0  0  0
    3.3374   12.5934   -3.0956 H   0  0  0  0  0  0  0  0  0  0  0  0
    1.8518   12.2213    0.1765 H   0  0  0  0  0  0  0  0  0  0  0  0
    2.0126   10.7555   -0.8493 H   0  0  0  0  0  0  0  0  0  0  0  0
    3.3095   11.9985   -0.8493 H   0  0  0  0  0  0  0  0  0  0  0  0
  1  2  1  0
  2  3  1  0
  3  4  1  0
  4  5  1  0
  5  6  1  0
  6  7  1  0
  7  8  1  0
  7  9  1  0
  2 10  1  0
 10 11  1  0
 11 12  1  0
 12 13  1  0
 13 14  1  6
 13 15  1  0
 15 16  1  0
 16 17  1  0
 17 18  2  0
 18 19  1  0
 19 20  1  0
 20 21  1  0
 21 22  1  0
 22 23  1  0
 22 24  1  0
 24 25  1  0
 24 26  1  0
 19 27  1  0
 27 28  1  1
 27 29  1  0
 29 30  1  0
 30 31  1  0
 31 32  1  1
  7  5  1  0
 31 10  1  0
 31 13  1  0
 27 15  1  0
 24 18  1  0
  1 33  1  0
  1 34  1  0
  1 35  1  0
  2 36  1  6
  3 37  1  0
  3 38  1  0
  4 39  1  0
  4 40  1  0
  5 41  1  1
  8 42  1  0
  8 43  1  0
  8 44  1  0
  9 45  1  0
  9 46  1  0
  9 47  1  0
 10 48  1  6
 11 49  1  0
 11 50  1  0
 12 51  1  0
 12 52  1  0
 14 53  1  0
 14 54  1  0
 14 55  1  0
 15 56  1  1
 16 57  1  0
 16 58  1  0
 17 59  1  0
 19 60  1  6
 20 61  1  0
 20 62  1  0
 21 63  1  0
 21 64  1  0
 22 65  1  6
 23 66  1  0
 25 67  1  0
 25 68  1  0
 25 69  1  0
 26 70  1  0
 26 71  1  0
 26 72  1  0
 28 73  1  0
 28 74  1  0
 28 75  1  0
 29 76  1  0
 29 77  1  0
 30 78  1  0
 30 79  1  0
 32 80  1  0
 32 81  1  0
 32 82  1  0
M  END
>  <meeko>  (8) 
{"is_sidechain": [false], "intermolecular_energy": 2.731, "internal_energy": -0.839}

$$$$
EPH_relaxed_0001_pdb2pqr_Repair_339_r2_0001_out
     RDKit          3D

 82 86  0  0  0  0  0  0  0  0999 V2000
   -0.1530   10.4470    1.7040 C   0  0  0  0  0  0  0  0  0  0  0  0
    0.2890   10.5440    0.2410 C   0  0  2  0  0  0  0  0  0  0  0  0
    0.8200    9.1990   -0.2950 C   0  0  0  0  0  0  0  0  0  0  0  0
    0.0820    8.6990   -1.5410 C   0  0  0  0  0  0  0  0  0  0  0  0
   -1.2960    8.2120   -1.2110 C   0  0  2  0  0  0  0  0  0  0  0  0
   -2.2670    8.4160   -2.2450 O   0  0  0  0  0  0  0  0  0  0  0  0
   -2.4860    9.1330   -1.0190 C   0  0  0  0  0  0  0  0  0  0  0  0
   -2.3520   10.6180   -1.1500 C   0  0  0  0  0  0  0  0  0  0  0  0
   -3.6570    8.6350   -0.2300 C   0  0  0  0  0  0  0  0  0  0  0  0
    1.3550   11.6220    0.0910 C   0  0  1  0  0  0  0  0  0  0  0  0
    2.6580   11.0880   -0.5620 C   0  0  0  0  0  0  0  0  0  0  0  0
    3.2270   12.2380   -1.4320 C   0  0  0  0  0  0  0  0  0  0  0  0
    2.4290   13.4880   -0.9960 C   0  0  1  0  0  0  0  0  0  0  0  0
    3.1220   13.9690    0.3170 C   0  0  0  0  0  0  0  0  0  0  0  0
    2.3210   14.6410   -2.0480 C   0  0  2  0  0  0  0  0  0  0  0  0
    3.6600   15.2810   -2.4540 C   0  0  0  0  0  0  0  0  0  0  0  0
    4.0830   16.4520   -1.6300 C   0  0  0  0  0  0  0  0  0  0  0  0
    3.2900   17.1460   -0.7920 C   0  0  0  0  0  0  0  0  0  0  0  0
    1.7920   16.8320   -0.6840 C   0  0  1  0  0  0  0  0  0  0  0  0
    0.9810   18.1530   -0.7290 C   0  0  0  0  0  0  0  0  0  0  0  0
    1.4440   19.1600    0.3190 C   0  0  0  0  0  0  0  0  0  0  0  0
    2.9230   19.4910    0.1420 C   0  0  2  0  0  0  0  0  0  0  0  0
    3.0940   20.1920   -1.0940 O   0  0  0  0  0  0  0  0  0  0  0  0
    3.8390   18.2360    0.1610 C   0  0  0  0  0  0  0  0  0  0  0  0
    3.8870   17.6490    1.5940 C   0  0  0  0  0  0  0  0  0  0  0  0
    5.2850   18.6940   -0.1690 C   0  0  0  0  0  0  0  0  0  0  0  0
    1.2380   15.7390   -1.6960 C   0  0  1  0  0  0  0  0  0  0  0  0
    0.8380   16.4170   -3.0430 C   0  0  0  0  0  0  0  0  0  0  0  0
   -0.0800   15.1130   -1.1060 C   0  0  0  0  0  0  0  0  0  0  0  0
    0.0850   13.9020   -0.1670 C   0  0  0  0  0  0  0  0  0  0  0  0
    1.0070   12.8490   -0.7890 C   0  0  2  0  0  0  0  0  0  0  0  0
    0.3250   12.3300   -2.1010 C   0  0  0  0  0  0  0  0  0  0  0  0
    0.7089   10.6362    2.3607 H   0  0  0  0  0  0  0  0  0  0  0  0
   -0.9352   11.1949    1.9011 H   0  0  0  0  0  0  0  0  0  0  0  0
   -0.5502    9.4403    1.9011 H   0  0  0  0  0  0  0  0  0  0  0  0
   -0.5958   10.8109   -0.3556 H   0  0  0  0  0  0  0  0  0  0  0  0
    1.8838    9.3210   -0.5468 H   0  0  0  0  0  0  0  0  0  0  0  0
    0.6594    8.4514    0.4958 H   0  0  0  0  0  0  0  0  0  0  0  0
    0.0048    9.5239   -2.2646 H   0  0  0  0  0  0  0  0  0  0  0  0
    0.6514    7.8573   -1.9620 H   0  0  0  0  0  0  0  0  0  0  0  0
   -0.8856    7.3989   -0.5941 H   0  0  0  0  0  0  0  0  0  0  0  0
   -2.3110   11.0722   -0.1490 H   0  0  0  0  0  0  0  0  0  0  0  0
   -1.4287   10.8559   -1.6986 H   0  0  0  0  0  0  0  0  0  0  0  0
   -3.2178   11.0173   -1.6986 H   0  0  0  0  0  0  0  0  0  0  0  0
   -3.4408    8.7269    0.8446 H   0  0  0  0  0  0  0  0  0  0  0  0
   -4.5467    9.2326   -0.4775 H   0  0  0  0  0  0  0  0  0  0  0  0
   -3.8437    7.5796   -0.4775 H   0  0  0  0  0  0  0  0  0  0  0  0
    1.4552   11.9289    1.1426 H   0  0  0  0  0  0  0  0  0  0  0  0
    3.3835   10.8068    0.2155 H   0  0  0  0  0  0  0  0  0  0  0  0
    2.4566   10.1946   -1.1714 H   0  0  0  0  0  0  0  0  0  0  0  0
    4.3011   12.3761   -1.2390 H   0  0  0  0  0  0  0  0  0  0  0  0
    3.1286   12.0347   -2.5086 H   0  0  0  0  0  0  0  0  0  0  0  0
    2.5680   13.5845    1.1861 H   0  0  0  0  0  0  0  0  0  0  0  0
    4.1553   13.5929    0.3452 H   0  0  0  0  0  0  0  0  0  0  0  0
    3.1311   15.0686    0.3452 H   0  0  0  0  0  0  0  0  0  0  0  0
    1.9600   14.1122   -2.9424 H   0  0  0  0  0  0  0  0  0  0  0  0
    4.4419   14.5111   -2.3771 H   0  0  0  0  0  0  0  0  0  0  0  0
    3.5172   15.6634   -3.4755 H   0  0  0  0  0  0  0  0  0  0  0  0
    5.1311   16.7750   -1.7147 H   0  0  0  0  0  0  0  0  0  0  0  0
    1.6532   16.3433    0.2917 H   0  0  0  0  0  0  0  0  0  0  0  0
    1.0961   18.6035   -1.7259 H   0  0  0  0  0  0  0  0  0  0  0  0
   -0.0695   17.9072   -0.5144 H   0  0  0  0  0  0  0  0  0  0  0  0
    0.8540   20.0827    0.2169 H   0  0  0  0  0  0  0  0  0  0  0  0
    1.3000   18.7195    1.3166 H   0  0  0  0  0  0  0  0  0  0  0  0
    3.2257   20.1130    0.9973 H   0  0  0  0  0  0  0  0  0  0  0  0
    3.9750   19.9700   -1.4390 H   0  0  0  0  0  0  0  0  0  0  0  0
    3.8202   18.4661    2.3274 H   0  0  0  0  0  0  0  0  0  0  0  0
    3.0423   16.9589    1.7360 H   0  0  0  0  0  0  0  0  0  0  0  0
    4.8326   17.1053    1.7360 H   0  0  0  0  0  0  0  0  0  0  0  0
    5.8367   18.8688    0.7664 H   0  0  0  0  0  0  0  0  0  0  0  0
    5.7927   17.9127   -0.7536 H   0  0  0  0  0  0  0  0  0  0  0  0
    5.2503   19.6251   -0.7536 H   0  0  0  0  0  0  0  0  0  0  0  0
    0.2890   17.3475   -2.8363 H   0  0  0  0  0  0  0  0  0  0  0  0
    1.7450   16.6471   -3.6212 H   0  0  0  0  0  0  0  0  0  0  0  0
    0.1979   15.7344   -3.6212 H   0  0  0  0  0  0  0  0  0  0  0  0
   -0.6000   15.9021   -0.5430 H   0  0  0  0  0  0  0  0  0  0  0  0
   -0.6307   14.7285   -1.9771 H   0  0  0  0  0  0  0  0  0  0  0  0
    0.5174   14.2415    0.7858 H   0  0  0  0  0  0  0  0  0  0  0  0
   -0.9036   13.4491   -0.0009 H   0  0  0  0  0  0  0  0  0  0  0  0
   -0.5255   11.6828   -1.8408 H   0  0  0  0  0  0  0  0  0  0  0  0
   -0.0330   13.1862   -2.6916 H   0  0  0  0  0  0  0  0  0  0  0  0
    1.0548   11.7567   -2.6916 H   0  0  0  0  0  0  0  0  0  0  0  0
  1  2  1  0
  2  3  1  0
  3  4  1  0
  4  5  1  0
  5  6  1  0
  6  7  1  0
  7  8  1  0
  7  9  1  0
  2 10  1  0
 10 11  1  0
 11 12  1  0
 12 13  1  0
 13 14  1  1
 13 15  1  0
 15 16  1  0
 16 17  1  0
 17 18  2  0
 18 19  1  0
 19 20  1  0
 20 21  1  0
 21 22  1  0
 22 23  1  0
 22 24  1  0
 24 25  1  0
 24 26  1  0
 19 27  1  0
 27 28  1  6
 27 29  1  0
 29 30  1  0
 30 31  1  0
 31 32  1  6
  7  5  1  0
 31 10  1  0
 31 13  1  0
 27 15  1  0
 24 18  1  0
  1 33  1  0
  1 34  1  0
  1 35  1  0
  2 36  1  6
  3 37  1  0
  3 38  1  0
  4 39  1  0
  4 40  1  0
  5 41  1  1
  8 42  1  0
  8 43  1  0
  8 44  1  0
  9 45  1  0
  9 46  1  0
  9 47  1  0
 10 48  1  1
 11 49  1  0
 11 50  1  0
 12 51  1  0
 12 52  1  0
 14 53  1  0
 14 54  1  0
 14 55  1  0
 15 56  1  6
 16 57  1  0
 16 58  1  0
 17 59  1  0
 19 60  1  1
 20 61  1  0
 20 62  1  0
 21 63  1  0
 21 64  1  0
 22 65  1  1
 23 66  1  0
 25 67  1  0
 25 68  1  0
 25 69  1  0
 26 70  1  0
 26 71  1  0
 26 72  1  0
 28 73  1  0
 28 74  1  0
 28 75  1  0
 29 76  1  0
 29 77  1  0
 30 78  1  0
 30 79  1  0
 32 80  1  0
 32 81  1  0
 32 82  1  0
M  END
>  <meeko>  (9) 
{"is_sidechain": [false], "intermolecular_energy": 2.731, "internal_energy": -0.839}

$$$$
EPH_relaxed_0001_pdb2pqr_Repair_339_r2_0001_out
     RDKit          3D

 82 86  0  0  0  0  0  0  0  0999 V2000
   -0.6550   10.6560   -1.9470 C   0  0  0  0  0  0  0  0  0  0  0  0
    0.4530   10.3310   -0.9410 C   0  0  2  0  0  0  0  0  0  0  0  0
   -0.1050   10.0680    0.4720 C   0  0  0  0  0  0  0  0  0  0  0  0
    0.6850   10.7610    1.5850 C   0  0  0  0  0  0  0  0  0  0  0  0
   -0.1520   11.7660    2.3160 C   0  0  2  0  0  0  0  0  0  0  0  0
    0.3230   13.1160    2.2310 O   0  0  0  0  0  0  0  0  0  0  0  0
    0.3290   12.5240    3.5400 C   0  0  0  0  0  0  0  0  0  0  0  0
    1.6980   12.3080    4.1030 C   0  0  0  0  0  0  0  0  0  0  0  0
   -0.6920   13.1050    4.4680 C   0  0  0  0  0  0  0  0  0  0  0  0
    1.4650   11.4700   -0.8970 C   0  0  1  0  0  0  0  0  0  0  0  0
    2.8240   11.0860   -1.5410 C   0  0  0  0  0  0  0  0  0  0  0  0
    3.3700   12.3640   -2.2280 C   0  0  0  0  0  0  0  0  0  0  0  0
    2.4860   13.5090   -1.6810 C   0  0  1  0  0  0  0  0  0  0  0  0
    3.0900   13.8500   -0.2830 C   0  0  0  0  0  0  0  0  0  0  0  0
    2.3650   14.7800   -2.5840 C   0  0  2  0  0  0  0  0  0  0  0  0
    3.6850   15.5300   -2.8340 C   0  0  0  0  0  0  0  0  0  0  0  0
    4.0040   16.6050   -1.8480 C   0  0  0  0  0  0  0  0  0  0  0  0
    3.1370   17.1470   -0.9740 C   0  0  0  0  0  0  0  0  0  0  0  0
    1.6550   16.7500   -0.9860 C   0  0  1  0  0  0  0  0  0  0  0  0
    0.7760   18.0260   -0.9090 C   0  0  0  0  0  0  0  0  0  0  0  0
    1.1330   18.9120    0.2810 C   0  0  0  0  0  0  0  0  0  0  0  0
    2.6000   19.3330    0.2270 C   0  0  2  0  0  0  0  0  0  0  0  0
    2.7900   20.1940   -0.9000 O   0  0  0  0  0  0  0  0  0  0  0  0
    3.5800   18.1310    0.1370 C   0  0  0  0  0  0  0  0  0  0  0  0
    3.5920   17.3680    1.4850 C   0  0  0  0  0  0  0  0  0  0  0  0
    5.0130   18.6960   -0.0540 C   0  0  0  0  0  0  0  0  0  0  0  0
    1.2090   15.7720   -2.1560 C   0  0  1  0  0  0  0  0  0  0  0  0
    0.8360   16.5960   -3.4260 C   0  0  0  0  0  0  0  0  0  0  0  0
   -0.1000   15.0120   -1.7200 C   0  0  0  0  0  0  0  0  0  0  0  0
    0.0870   13.7010   -0.9340 C   0  0  0  0  0  0  0  0  0  0  0  0
    1.0930   12.7810   -1.6330 C   0  0  2  0  0  0  0  0  0  0  0  0
    0.5020   12.4030   -3.0340 C   0  0  0  0  0  0  0  0  0  0  0  0
   -1.5740   10.9256   -1.4059 H   0  0  0  0  0  0  0  0  0  0  0  0
   -0.3406   11.4998   -2.5788 H   0  0  0  0  0  0  0  0  0  0  0  0
   -0.8462    9.7761   -2.5788 H   0  0  0  0  0  0  0  0  0  0  0  0
    0.9464    9.4076   -1.2786 H   0  0  0  0  0  0  0  0  0  0  0  0
   -1.1438   10.4281    0.5076 H   0  0  0  0  0  0  0  0  0  0  0  0
   -0.0295    8.9853    0.6508 H   0  0  0  0  0  0  0  0  0  0  0  0
    1.0351   10.0015    2.2995 H   0  0  0  0  0  0  0  0  0  0  0  0
    1.5326   11.2903    1.1252 H   0  0  0  0  0  0  0  0  0  0  0  0
   -1.0644   11.1837    2.1200 H   0  0  0  0  0  0  0  0  0  0  0  0
    1.6480   12.3159    5.2018 H   0  0  0  0  0  0  0  0  0  0  0  0
    2.0864   11.3375    3.7606 H   0  0  0  0  0  0  0  0  0  0  0  0
    2.3663   13.1118    3.7606 H   0  0  0  0  0  0  0  0  0  0  0  0
   -0.3833   12.9293    5.5091 H   0  0  0  0  0  0  0  0  0  0  0  0
   -0.7772   14.1869    4.2884 H   0  0  0  0  0  0  0  0  0  0  0  0
   -1.6656   12.6257    4.2884 H   0  0  0  0  0  0  0  0  0  0  0  0
    1.4987   11.6450    0.1885 H   0  0  0  0  0  0  0  0  0  0  0  0
    3.5263   10.7424   -0.7672 H   0  0  0  0  0  0  0  0  0  0  0  0
    2.7003   10.2692   -2.2673 H   0  0  0  0  0  0  0  0  0  0  0  0
    4.4249   12.5271   -1.9624 H   0  0  0  0  0  0  0  0  0  0  0  0
    3.3328   12.2961   -3.3253 H   0  0  0  0  0  0  0  0  0  0  0  0
    2.4229   13.4734    0.5064 H   0  0  0  0  0  0  0  0  0  0  0  0
    4.0780   13.3764   -0.1850 H   0  0  0  0  0  0  0  0  0  0  0  0
    3.1949   14.9406   -0.1850 H   0  0  0  0  0  0  0  0  0  0  0  0
    2.0750   14.3526   -3.5552 H   0  0  0  0  0  0  0  0  0  0  0  0
    4.5031   14.7949   -2.8121 H   0  0  0  0  0  0  0  0  0  0  0  0
    3.5703   16.0325   -3.8058 H   0  0  0  0  0  0  0  0  0  0  0  0
    5.0358   16.9861   -1.8353 H   0  0  0  0  0  0  0  0  0  0  0  0
    1.4982   16.1342   -0.0881 H   0  0  0  0  0  0  0  0  0  0  0  0
    0.9139   18.6054   -1.8338 H   0  0  0  0  0  0  0  0  0  0  0  0
   -0.2686   17.7046   -0.7843 H   0  0  0  0  0  0  0  0  0  0  0  0
    0.4995   19.8111    0.2633 H   0  0  0  0  0  0  0  0  0  0  0  0
    0.9652   18.3415    1.2064 H   0  0  0  0  0  0  0  0  0  0  0  0
    2.8290   19.8534    1.1687 H   0  0  0  0  0  0  0  0  0  0  0  0
    1.9620   20.1990   -1.4100 H   0  0  0  0  0  0  0  0  0  0  0  0
    3.5806   18.0898    2.3150 H   0  0  0  0  0  0  0  0  0  0  0  0
    2.7039   16.7221    1.5486 H   0  0  0  0  0  0  0  0  0  0  0  0
    4.5000   16.7503    1.5486 H   0  0  0  0  0  0  0  0  0  0  0  0
    5.4702   18.8763    0.9301 H   0  0  0  0  0  0  0  0  0  0  0  0
    5.6216   17.9705   -0.6137 H   0  0  0  0  0  0  0  0  0  0  0  0
    4.9627   19.6416   -0.6137 H   0  0  0  0  0  0  0  0  0  0  0  0
    0.3999   17.5594   -3.1230 H   0  0  0  0  0  0  0  0  0  0  0  0
    1.7407   16.7754   -4.0255 H   0  0  0  0  0  0  0  0  0  0  0  0
    0.1042   16.0346   -4.0255 H   0  0  0  0  0  0  0  0  0  0  0  0
   -0.6880   15.6962   -1.0907 H   0  0  0  0  0  0  0  0  0  0  0  0
   -0.5878   14.7164   -2.6606 H   0  0  0  0  0  0  0  0  0  0  0  0
    0.4555   13.9361    0.0754 H   0  0  0  0  0  0  0  0  0  0  0  0
   -0.8822   13.1836   -0.8794 H   0  0  0  0  0  0  0  0  0  0  0  0
   -0.4175   11.8149   -2.8975 H   0  0  0  0  0  0  0  0  0  0  0  0
    0.2704   13.3210   -3.5940 H   0  0  0  0  0  0  0  0  0  0  0  0
    1.2382   11.8077   -3.5940 H   0  0  0  0  0  0  0  0  0  0  0  0
  1  2  1  0
  2  3  1  0
  3  4  1  0
  4  5  1  0
  5  6  1  0
  6  7  1  0
  7  8  1  0
  7  9  1  0
  2 10  1  0
 10 11  1  0
 11 12  1  0
 12 13  1  0
 13 14  1  1
 13 15  1  0
 15 16  1  0
 16 17  1  0
 17 18  2  0
 18 19  1  0
 19 20  1  0
 20 21  1  0
 21 22  1  0
 22 23  1  0
 22 24  1  0
 24 25  1  0
 24 26  1  0
 19 27  1  0
 27 28  1  6
 27 29  1  0
 29 30  1  0
 30 31  1  0
 31 32  1  6
  7  5  1  0
 31 10  1  0
 31 13  1  0
 27 15  1  0
 24 18  1  0
  1 33  1  0
  1 34  1  0
  1 35  1  0
  2 36  1  6
  3 37  1  0
  3 38  1  0
  4 39  1  0
  4 40  1  0
  5 41  1  1
  8 42  1  0
  8 43  1  0
  8 44  1  0
  9 45  1  0
  9 46  1  0
  9 47  1  0
 10 48  1  1
 11 49  1  0
 11 50  1  0
 12 51  1  0
 12 52  1  0
 14 53  1  0
 14 54  1  0
 14 55  1  0
 15 56  1  6
 16 57  1  0
 16 58  1  0
 17 59  1  0
 19 60  1  1
 20 61  1  0
 20 62  1  0
 21 63  1  0
 21 64  1  0
 22 65  1  1
 23 66  1  0
 25 67  1  0
 25 68  1  0
 25 69  1  0
 26 70  1  0
 26 71  1  0
 26 72  1  0
 28 73  1  0
 28 74  1  0
 28 75  1  0
 29 76  1  0
 29 77  1  0
 30 78  1  0
 30 79  1  0
 32 80  1  0
 32 81  1  0
 32 82  1  0
M  END
>  <meeko>  (10) 
{"is_sidechain": [false], "intermolecular_energy": 2.731, "internal_energy": -0.839}

$$$$
EPH_relaxed_0001_pdb2pqr_Repair_339_r2_0001_out
     RDKit          3D

 82 86  0  0  0  0  0  0  0  0999 V2000
    1.0760    8.7900   -0.3760 C   0  0  0  0  0  0  0  0  0  0  0  0
   -0.0150    9.5600   -1.1260 C   0  0  2  0  0  0  0  0  0  0  0  0
   -0.7620    8.6700   -2.1390 C   0  0  0  0  0  0  0  0  0  0  0  0
   -2.2250    8.4120   -1.7700 C   0  0  0  0  0  0  0  0  0  0  0  0
   -2.8000    7.2680   -2.5480 C   0  0  2  0  0  0  0  0  0  0  0  0
   -3.7830    7.6400   -3.5230 O   0  0  0  0  0  0  0  0  0  0  0  0
   -4.2460    6.8210   -2.4360 C   0  0  0  0  0  0  0  0  0  0  0  0
   -5.2070    7.5120   -1.5200 C   0  0  0  0  0  0  0  0  0  0  0  0
   -4.5970    5.4240   -2.8420 C   0  0  0  0  0  0  0  0  0  0  0  0
    0.5940   10.7630   -1.8380 C   0  0  1  0  0  0  0  0  0  0  0  0
    0.1990   10.8310   -3.3370 C   0  0  0  0  0  0  0  0  0  0  0  0
    0.0620   12.3340   -3.6960 C   0  0  0  0  0  0  0  0  0  0  0  0
    0.6990   13.0790   -2.4990 C   0  0  1  0  0  0  0  0  0  0  0  0
    2.2360   13.0260   -2.7660 C   0  0  0  0  0  0  0  0  0  0  0  0
    0.2060   14.5430   -2.2560 C   0  0  2  0  0  0  0  0  0  0  0  0
    0.4990   15.5290   -3.3990 C   0  0  0  0  0  0  0  0  0  0  0  0
    1.8020   16.2510   -3.3000 C   0  0  0  0  0  0  0  0  0  0  0  0
    2.5710   16.3300   -2.1980 C   0  0  0  0  0  0  0  0  0  0  0  0
    2.1000   15.7340   -0.8650 C   0  0  1  0  0  0  0  0  0  0  0  0
    2.3410   16.7580    0.2740 C   0  0  0  0  0  0  0  0  0  0  0  0
    3.7870   17.2420    0.3300 C   0  0  0  0  0  0  0  0  0  0  0  0
    4.2000   17.8810   -0.9940 C   0  0  2  0  0  0  0  0  0  0  0  0
    3.4500   19.0860   -1.1770 O   0  0  0  0  0  0  0  0  0  0  0  0
    3.9920   16.9440   -2.2170 C   0  0  0  0  0  0  0  0  0  0  0  0
    5.0220   15.7890   -2.1680 C   0  0  0  0  0  0  0  0  0  0  0  0
    4.3120   17.7570   -3.5000 C   0  0  0  0  0  0  0  0  0  0  0  0
    0.6250   15.1430   -0.8530 C   0  0  1  0  0  0  0  0  0  0  0  0
   -0.3990   16.2740   -0.5290 C   0  0  0  0  0  0  0  0  0  0  0  0
    0.5030   14.0880    0.3100 C   0  0  0  0  0  0  0  0  0  0  0  0
    0.8920   12.6350   -0.0270 C   0  0  0  0  0  0  0  0  0  0  0  0
    0.2080   12.1690   -1.3150 C   0  0  2  0  0  0  0  0  0  0  0  0
   -1.3400   12.1910   -1.0700 C   0  0  0  0  0  0  0  0  0  0  0  0
    0.9223    8.8985    0.7078 H   0  0  0  0  0  0  0  0  0  0  0  0
    1.0268    7.7254   -0.6486 H   0  0  0  0  0  0  0  0  0  0  0  0
    2.0626    9.1930   -0.6486 H   0  0  0  0  0  0  0  0  0  0  0  0
   -0.7502    9.9013   -0.3823 H   0  0  0  0  0  0  0  0  0  0  0  0
   -0.7335    9.1633   -3.1218 H   0  0  0  0  0  0  0  0  0  0  0  0
   -0.2549    7.6939   -2.1444 H   0  0  0  0  0  0  0  0  0  0  0  0
   -2.2861    8.1794   -0.6966 H   0  0  0  0  0  0  0  0  0  0  0  0
   -2.8037    9.3158   -2.0115 H   0  0  0  0  0  0  0  0  0  0  0  0
   -1.8504    6.7166   -2.4822 H   0  0  0  0  0  0  0  0  0  0  0  0
   -4.9271    7.3107   -0.4754 H   0  0  0  0  0  0  0  0  0  0  0  0
   -5.1758    8.5958   -1.7057 H   0  0  0  0  0  0  0  0  0  0  0  0
   -6.2244    7.1374   -1.7057 H   0  0  0  0  0  0  0  0  0  0  0  0
   -4.7516    4.8089   -1.9433 H   0  0  0  0  0  0  0  0  0  0  0  0
   -5.5198    5.4370   -3.4406 H   0  0  0  0  0  0  0  0  0  0  0  0
   -3.7776    4.9993   -3.4406 H   0  0  0  0  0  0  0  0  0  0  0  0
    1.6602   10.5711   -1.6474 H   0  0  0  0  0  0  0  0  0  0  0  0
    0.9789   10.3633   -3.9558 H   0  0  0  0  0  0  0  0  0  0  0  0
   -0.7426   10.2933   -3.5221 H   0  0  0  0  0  0  0  0  0  0  0  0
    0.6014   12.5619   -4.6272 H   0  0  0  0  0  0  0  0  0  0  0  0
   -0.9841   12.6299   -3.8635 H   0  0  0  0  0  0  0  0  0  0  0  0
    2.7743   13.0074   -1.8069 H   0  0  0  0  0  0  0  0  0  0  0  0
    2.4775   12.1190   -3.3396 H   0  0  0  0  0  0  0  0  0  0  0  0
    2.5394   13.9142   -3.3396 H   0  0  0  0  0  0  0  0  0  0  0  0
   -0.8874   14.4235   -2.2389 H   0  0  0  0  0  0  0  0  0  0  0  0
    0.4935   14.9656   -4.3437 H   0  0  0  0  0  0  0  0  0  0  0  0
   -0.2820   16.3015   -3.3423 H   0  0  0  0  0  0  0  0  0  0  0  0
    2.1644   16.7618   -4.2043 H   0  0  0  0  0  0  0  0  0  0  0  0
    2.7163   14.8384   -0.6974 H   0  0  0  0  0  0  0  0  0  0  0  0
    1.6847   17.6259    0.1125 H   0  0  0  0  0  0  0  0  0  0  0  0
    2.1203   16.2551    1.2271 H   0  0  0  0  0  0  0  0  0  0  0  0
    3.8871   17.9849    1.1350 H   0  0  0  0  0  0  0  0  0  0  0  0
    4.4396   16.3774    0.5214 H   0  0  0  0  0  0  0  0  0  0  0  0
    5.2787   18.0892   -0.9388 H   0  0  0  0  0  0  0  0  0  0  0  0
    4.0460   19.7460   -1.5700 H   0  0  0  0  0  0  0  0  0  0  0  0
    5.2441   15.5400   -1.1198 H   0  0  0  0  0  0  0  0  0  0  0  0
    4.6065   14.9055   -2.6747 H   0  0  0  0  0  0  0  0  0  0  0  0
    5.9472   16.1010   -2.6747 H   0  0  0  0  0  0  0  0  0  0  0  0
    4.7015   18.7467   -3.2193 H   0  0  0  0  0  0  0  0  0  0  0  0
    5.0663   17.2213   -4.0949 H   0  0  0  0  0  0  0  0  0  0  0  0
    3.3949   17.8792   -4.0949 H   0  0  0  0  0  0  0  0  0  0  0  0
   -0.4951   16.3802    0.5616 H   0  0  0  0  0  0  0  0  0  0  0  0
   -0.0462   17.2225   -0.9601 H   0  0  0  0  0  0  0  0  0  0  0  0
   -1.3778   16.0169   -0.9601 H   0  0  0  0  0  0  0  0  0  0  0  0
    1.1507   14.4237    1.1333 H   0  0  0  0  0  0  0  0  0  0  0  0
   -0.5691   14.0502    0.5535 H   0  0  0  0  0  0  0  0  0  0  0  0
    1.9827   12.5754   -0.1570 H   0  0  0  0  0  0  0  0  0  0  0  0
    0.5664   11.9845    0.7981 H   0  0  0  0  0  0  0  0  0  0  0  0
   -1.5400   12.1938    0.0117 H   0  0  0  0  0  0  0  0  0  0  0  0
   -1.7704   13.0954   -1.5249 H   0  0  0  0  0  0  0  0  0  0  0  0
   -1.7959   11.2992   -1.5249 H   0  0  0  0  0  0  0  0  0  0  0  0
  1  2  1  0
  2  3  1  0
  3  4  1  0
  4  5  1  0
  5  6  1  0
  6  7  1  0
  7  8  1  0
  7  9  1  0
  2 10  1  0
 10 11  1  0
 11 12  1  0
 12 13  1  0
 13 14  1  6
 13 15  1  0
 15 16  1  0
 16 17  1  0
 17 18  2  0
 18 19  1  0
 19 20  1  0
 20 21  1  0
 21 22  1  0
 22 23  1  0
 22 24  1  0
 24 25  1  0
 24 26  1  0
 19 27  1  0
 27 28  1  1
 27 29  1  0
 29 30  1  0
 30 31  1  0
 31 32  1  1
  7  5  1  0
 31 10  1  0
 31 13  1  0
 27 15  1  0
 24 18  1  0
  1 33  1  0
  1 34  1  0
  1 35  1  0
  2 36  1  1
  3 37  1  0
  3 38  1  0
  4 39  1  0
  4 40  1  0
  5 41  1  6
  8 42  1  0
  8 43  1  0
  8 44  1  0
  9 45  1  0
  9 46  1  0
  9 47  1  0
 10 48  1  6
 11 49  1  0
 11 50  1  0
 12 51  1  0
 12 52  1  0
 14 53  1  0
 14 54  1  0
 14 55  1  0
 15 56  1  1
 16 57  1  0
 16 58  1  0
 17 59  1  0
 19 60  1  1
 20 61  1  0
 20 62  1  0
 21 63  1  0
 21 64  1  0
 22 65  1  1
 23 66  1  0
 25 67  1  0
 25 68  1  0
 25 69  1  0
 26 70  1  0
 26 71  1  0
 26 72  1  0
 28 73  1  0
 28 74  1  0
 28 75  1  0
 29 76  1  0
 29 77  1  0
 30 78  1  0
 30 79  1  0
 32 80  1  0
 32 81  1  0
 32 82  1  0
M  END
>  <meeko>  (11) 
{"is_sidechain": [false], "intermolecular_energy": 2.731, "internal_energy": -0.839}

$$$$
EPH_relaxed_0001_pdb2pqr_Repair_339_r2_0001_out
     RDKit          3D

 82 86  0  0  0  0  0  0  0  0999 V2000
    0.2440   17.8270   -0.3780 C   0  0  0  0  0  0  0  0  0  0  0  0
    1.1870   17.1070   -1.3460 C   0  0  2  0  0  0  0  0  0  0  0  0
    1.5770   17.9940   -2.5450 C   0  0  0  0  0  0  0  0  0  0  0  0
    3.0810   18.2630   -2.6480 C   0  0  0  0  0  0  0  0  0  0  0  0
    3.8870   17.1190   -2.1130 C   0  0  2  0  0  0  0  0  0  0  0  0
    5.1330   17.4940   -1.5120 O   0  0  0  0  0  0  0  0  0  0  0  0
    5.2190   16.6870   -2.6980 C   0  0  0  0  0  0  0  0  0  0  0  0
    5.8200   17.3940   -3.8720 C   0  0  0  0  0  0  0  0  0  0  0  0
    5.6930   15.2900   -2.4440 C   0  0  0  0  0  0  0  0  0  0  0  0
    0.5400   15.8180   -1.8400 C   0  0  1  0  0  0  0  0  0  0  0  0
    0.1300   15.8910   -3.3350 C   0  0  0  0  0  0  0  0  0  0  0  0
    0.3450   14.4750   -3.9280 C   0  0  0  0  0  0  0  0  0  0  0  0
    0.5520   13.5640   -2.6950 C   0  0  1  0  0  0  0  0  0  0  0  0
   -0.8880   13.2630   -2.1730 C   0  0  0  0  0  0  0  0  0  0  0  0
    1.3650   12.2500   -2.9360 C   0  0  2  0  0  0  0  0  0  0  0  0
    0.7250   11.2580   -3.9230 C   0  0  0  0  0  0  0  0  0  0  0  0
   -0.1880   10.2480   -3.3110 C   0  0  0  0  0  0  0  0  0  0  0  0
   -0.2650    9.9570   -2.0000 C   0  0  0  0  0  0  0  0  0  0  0  0
    0.6920   10.6050   -0.9910 C   0  0  1  0  0  0  0  0  0  0  0  0
    1.2550    9.5170   -0.0390 C   0  0  0  0  0  0  0  0  0  0  0  0
    0.1550    8.7060    0.6390 C   0  0  0  0  0  0  0  0  0  0  0  0
   -0.7410    8.0300   -0.3960 C   0  0  2  0  0  0  0  0  0  0  0  0
    0.0240    7.0410   -1.0920 O   0  0  0  0  0  0  0  0  0  0  0  0
   -1.3580    9.0270   -1.4170 C   0  0  0  0  0  0  0  0  0  0  0  0
   -2.4180    9.9060   -0.7090 C   0  0  0  0  0  0  0  0  0  0  0  0
   -2.1230    8.2020   -2.4870 C   0  0  0  0  0  0  0  0  0  0  0  0
    1.8310   11.5240   -1.6090 C   0  0  1  0  0  0  0  0  0  0  0  0
    3.0690   10.6550   -1.9880 C   0  0  0  0  0  0  0  0  0  0  0  0
    2.3220   12.5410   -0.5120 C   0  0  0  0  0  0  0  0  0  0  0  0
    1.5530   13.8720   -0.4040 C   0  0  0  0  0  0  0  0  0  0  0  0
    1.3930   14.5260   -1.7790 C   0  0  2  0  0  0  0  0  0  0  0  0
    2.8250   14.8600   -2.3200 C   0  0  0  0  0  0  0  0  0  0  0  0
    0.5393   17.6015    0.6574 H   0  0  0  0  0  0  0  0  0  0  0  0
    0.3027   18.9122   -0.5480 H   0  0  0  0  0  0  0  0  0  0  0  0
   -0.7874   17.4845   -0.5480 H   0  0  0  0  0  0  0  0  0  0  0  0
    2.1099   16.8724   -0.7954 H   0  0  0  0  0  0  0  0  0  0  0  0
    1.2497   17.4935   -3.4683 H   0  0  0  0  0  0  0  0  0  0  0  0
    1.0856   18.9671   -2.3983 H   0  0  0  0  0  0  0  0  0  0  0  0
    3.3433   18.4204   -3.7046 H   0  0  0  0  0  0  0  0  0  0  0  0
    3.3115   19.1551   -2.0472 H   0  0  0  0  0  0  0  0  0  0  0  0
    2.9724   16.5588   -1.8685 H   0  0  0  0  0  0  0  0  0  0  0  0
    6.4942   18.1871   -3.5166 H   0  0  0  0  0  0  0  0  0  0  0  0
    6.3881   16.6756   -4.4812 H   0  0  0  0  0  0  0  0  0  0  0  0
    5.0195   17.8390   -4.4812 H   0  0  0  0  0  0  0  0  0  0  0  0
    5.7526   15.1145   -1.3597 H   0  0  0  0  0  0  0  0  0  0  0  0
    4.9869   14.5759   -2.8928 H   0  0  0  0  0  0  0  0  0  0  0  0
    6.6879   15.1531   -2.8928 H   0  0  0  0  0  0  0  0  0  0  0  0
   -0.2989   15.7487   -1.1319 H   0  0  0  0  0  0  0  0  0  0  0  0
   -0.9270   16.1823   -3.4240 H   0  0  0  0  0  0  0  0  0  0  0  0
    0.7304   16.6395   -3.8728 H   0  0  0  0  0  0  0  0  0  0  0  0
   -0.5372   14.1564   -4.5027 H   0  0  0  0  0  0  0  0  0  0  0  0
    1.1974   14.4381   -4.6223 H   0  0  0  0  0  0  0  0  0  0  0  0
   -0.8868   13.2633   -1.0730 H   0  0  0  0  0  0  0  0  0  0  0  0
   -1.5797   14.0360   -2.5391 H   0  0  0  0  0  0  0  0  0  0  0  0
   -1.2122   12.2777   -2.5391 H   0  0  0  0  0  0  0  0  0  0  0  0
    2.2729   12.6225   -3.4330 H   0  0  0  0  0  0  0  0  0  0  0  0
    0.1474   11.8362   -4.6592 H   0  0  0  0  0  0  0  0  0  0  0  0
    1.5565   10.6885   -4.3638 H   0  0  0  0  0  0  0  0  0  0  0  0
   -0.8542    9.6949   -3.9895 H   0  0  0  0  0  0  0  0  0  0  0  0
    0.0892   11.3255   -0.4187 H   0  0  0  0  0  0  0  0  0  0  0  0
    1.8893    8.8327   -0.6217 H   0  0  0  0  0  0  0  0  0  0  0  0
    1.8274   10.0274    0.7495 H   0  0  0  0  0  0  0  0  0  0  0  0
    0.6156    7.9354    1.2747 H   0  0  0  0  0  0  0  0  0  0  0  0
   -0.4605    9.3870    1.2451 H   0  0  0  0  0  0  0  0  0  0  0  0
   -1.5831    7.5733    0.1446 H   0  0  0  0  0  0  0  0  0  0  0  0
   -0.5510    6.6470   -1.7690 H   0  0  0  0  0  0  0  0  0  0  0  0
   -2.3040    9.8114    0.3810 H   0  0  0  0  0  0  0  0  0  0  0  0
   -2.2782   10.9569   -1.0025 H   0  0  0  0  0  0  0  0  0  0  0  0
   -3.4248    9.5741   -1.0025 H   0  0  0  0  0  0  0  0  0  0  0  0
   -2.7896    7.4831   -1.9882 H   0  0  0  0  0  0  0  0  0  0  0  0
   -2.7193    8.8799   -3.1154 H   0  0  0  0  0  0  0  0  0  0  0  0
   -1.4021    7.6585   -3.1154 H   0  0  0  0  0  0  0  0  0  0  0  0
    3.5664   10.3058   -1.0711 H   0  0  0  0  0  0  0  0  0  0  0  0
    2.7409    9.7879   -2.5801 H   0  0  0  0  0  0  0  0  0  0  0  0
    3.7730   11.2582   -2.5801 H   0  0  0  0  0  0  0  0  0  0  0  0
    2.2534   12.0371    0.4634 H   0  0  0  0  0  0  0  0  0  0  0  0
    3.3414   12.8216   -0.8155 H   0  0  0  0  0  0  0  0  0  0  0  0
    0.5568   13.6785    0.0205 H   0  0  0  0  0  0  0  0  0  0  0  0
    2.1222   14.5541    0.2446 H   0  0  0  0  0  0  0  0  0  0  0  0
    3.5089   15.0195   -1.4733 H   0  0  0  0  0  0  0  0  0  0  0  0
    3.1898   14.0228   -2.9333 H   0  0  0  0  0  0  0  0  0  0  0  0
    2.7817   15.7722   -2.9333 H   0  0  0  0  0  0  0  0  0  0  0  0
  1  2  1  0
  2  3  1  0
  3  4  1  0
  4  5  1  0
  5  6  1  0
  6  7  1  0
  7  8  1  0
  7  9  1  0
  2 10  1  0
 10 11  1  0
 11 12  1  0
 12 13  1  0
 13 14  1  1
 13 15  1  0
 15 16  1  0
 16 17  1  0
 17 18  2  0
 18 19  1  0
 19 20  1  0
 20 21  1  0
 21 22  1  0
 22 23  1  0
 22 24  1  0
 24 25  1  0
 24 26  1  0
 19 27  1  0
 27 28  1  6
 27 29  1  0
 29 30  1  0
 30 31  1  0
 31 32  1  6
  7  5  1  0
 31 10  1  0
 31 13  1  0
 27 15  1  0
 24 18  1  0
  1 33  1  0
  1 34  1  0
  1 35  1  0
  2 36  1  1
  3 37  1  0
  3 38  1  0
  4 39  1  0
  4 40  1  0
  5 41  1  1
  8 42  1  0
  8 43  1  0
  8 44  1  0
  9 45  1  0
  9 46  1  0
  9 47  1  0
 10 48  1  1
 11 49  1  0
 11 50  1  0
 12 51  1  0
 12 52  1  0
 14 53  1  0
 14 54  1  0
 14 55  1  0
 15 56  1  6
 16 57  1  0
 16 58  1  0
 17 59  1  0
 19 60  1  1
 20 61  1  0
 20 62  1  0
 21 63  1  0
 21 64  1  0
 22 65  1  1
 23 66  1  0
 25 67  1  0
 25 68  1  0
 25 69  1  0
 26 70  1  0
 26 71  1  0
 26 72  1  0
 28 73  1  0
 28 74  1  0
 28 75  1  0
 29 76  1  0
 29 77  1  0
 30 78  1  0
 30 79  1  0
 32 80  1  0
 32 81  1  0
 32 82  1  0
M  END
>  <meeko>  (12) 
{"is_sidechain": [false], "intermolecular_energy": 2.731, "internal_energy": -0.839}

$$$$
EPH_relaxed_0001_pdb2pqr_Repair_339_r2_0001_out
     RDKit          3D

 82 86  0  0  0  0  0  0  0  0999 V2000
   -5.1830    5.7880   -1.7590 C   0  0  0  0  0  0  0  0  0  0  0  0
   -5.4710    7.2910   -1.7910 C   0  0  2  0  0  0  0  0  0  0  0  0
   -5.2470    7.9540   -0.4170 C   0  0  0  0  0  0  0  0  0  0  0  0
   -4.2140    9.0840   -0.4400 C   0  0  0  0  0  0  0  0  0  0  0  0
   -2.8480    8.5780   -0.7930 C   0  0  2  0  0  0  0  0  0  0  0  0
   -1.8260    8.8970    0.1610 O   0  0  0  0  0  0  0  0  0  0  0  0
   -1.6830    9.4860   -1.1420 C   0  0  0  0  0  0  0  0  0  0  0  0
   -1.8320   10.9750   -1.1560 C   0  0  0  0  0  0  0  0  0  0  0  0
   -0.5490    8.9210   -1.9380 C   0  0  0  0  0  0  0  0  0  0  0  0
   -6.9010    7.5360   -2.2600 C   0  0  1  0  0  0  0  0  0  0  0  0
   -7.2120    6.8430   -3.6140 C   0  0  0  0  0  0  0  0  0  0  0  0
   -8.6930    6.3900   -3.5550 C   0  0  0  0  0  0  0  0  0  0  0  0
   -9.2750    7.1200   -2.3220 C   0  0  1  0  0  0  0  0  0  0  0  0
   -9.6050    8.5600   -2.8270 C   0  0  0  0  0  0  0  0  0  0  0  0
  -10.5130    6.4490   -1.6420 C   0  0  2  0  0  0  0  0  0  0  0  0
  -11.7650    6.3390   -2.5300 C   0  0  0  0  0  0  0  0  0  0  0  0
  -12.7040    7.4970   -2.4540 C   0  0  0  0  0  0  0  0  0  0  0  0
  -12.6990    8.4470   -1.5000 C   0  0  0  0  0  0  0  0  0  0  0  0
  -11.7410    8.3580   -0.3050 C   0  0  1  0  0  0  0  0  0  0  0  0
  -12.5180    8.6490    1.0050 C   0  0  0  0  0  0  0  0  0  0  0  0
  -13.2700    9.9760    0.9580 C   0  0  0  0  0  0  0  0  0  0  0  0
  -14.2550   10.0030   -0.2090 C   0  0  2  0  0  0  0  0  0  0  0  0
  -15.2860    9.0420    0.0370 O   0  0  0  0  0  0  0  0  0  0  0  0
  -13.5870    9.7130   -1.5820 C   0  0  0  0  0  0  0  0  0  0  0  0
  -12.6910   10.9100   -1.9870 C   0  0  0  0  0  0  0  0  0  0  0  0
  -14.7100    9.6300   -2.6510 C   0  0  0  0  0  0  0  0  0  0  0  0
  -10.8660    7.0350   -0.2150 C   0  0  1  0  0  0  0  0  0  0  0  0
  -11.6580    5.9230    0.5390 C   0  0  0  0  0  0  0  0  0  0  0  0
   -9.5800    7.3260    0.6470 C   0  0  0  0  0  0  0  0  0  0  0  0
   -8.3520    7.8750   -0.1030 C   0  0  0  0  0  0  0  0  0  0  0  0
   -8.0460    7.0340   -1.3460 C   0  0  2  0  0  0  0  0  0  0  0  0
   -7.6890    5.5860   -0.8670 C   0  0  0  0  0  0  0  0  0  0  0  0
   -5.1181    5.4493   -0.7145 H   0  0  0  0  0  0  0  0  0  0  0  0
   -5.9941    5.2483   -2.2698 H   0  0  0  0  0  0  0  0  0  0  0  0
   -4.2299    5.5863   -2.2698 H   0  0  0  0  0  0  0  0  0  0  0  0
   -4.7637    7.7488   -2.4982 H   0  0  0  0  0  0  0  0  0  0  0  0
   -6.2058    8.3669   -0.0702 H   0  0  0  0  0  0  0  0  0  0  0  0
   -4.8573    7.1758    0.2558 H   0  0  0  0  0  0  0  0  0  0  0  0
   -4.5207    9.8325   -1.1854 H   0  0  0  0  0  0  0  0  0  0  0  0
   -4.1668    9.5265    0.5659 H   0  0  0  0  0  0  0  0  0  0  0  0
   -3.2783    7.7020   -1.3004 H   0  0  0  0  0  0  0  0  0  0  0  0
   -1.8695   11.3495   -0.1224 H   0  0  0  0  0  0  0  0  0  0  0  0
   -0.9743   11.4244   -1.6780 H   0  0  0  0  0  0  0  0  0  0  0  0
   -2.7617   11.2456   -1.6780 H   0  0  0  0  0  0  0  0  0  0  0  0
    0.2227    8.5365   -1.2549 H   0  0  0  0  0  0  0  0  0  0  0  0
   -0.9185    8.1017   -2.5721 H   0  0  0  0  0  0  0  0  0  0  0  0
   -0.1175    9.7095   -2.5721 H   0  0  0  0  0  0  0  0  0  0  0  0
   -6.8989    8.6356   -2.2903 H   0  0  0  0  0  0  0  0  0  0  0  0
   -7.0649    7.5499   -4.4439 H   0  0  0  0  0  0  0  0  0  0  0  0
   -6.5433    5.9858   -3.7816 H   0  0  0  0  0  0  0  0  0  0  0  0
   -9.2267    6.6869   -4.4699 H   0  0  0  0  0  0  0  0  0  0  0  0
   -8.7924    5.2972   -3.4784 H   0  0  0  0  0  0  0  0  0  0  0  0
   -9.7574    9.2252   -1.9643 H   0  0  0  0  0  0  0  0  0  0  0  0
   -8.7696    8.9353   -3.4363 H   0  0  0  0  0  0  0  0  0  0  0  0
  -10.5205    8.5341   -3.4363 H   0  0  0  0  0  0  0  0  0  0  0  0
  -10.1657    5.4170   -1.4858 H   0  0  0  0  0  0  0  0  0  0  0  0
  -11.4335    6.2381   -3.5740 H   0  0  0  0  0  0  0  0  0  0  0  0
  -12.3253    5.4679   -2.1597 H   0  0  0  0  0  0  0  0  0  0  0  0
  -13.4644    7.5813   -3.2444 H   0  0  0  0  0  0  0  0  0  0  0  0
  -10.9799    9.1354   -0.4673 H   0  0  0  0  0  0  0  0  0  0  0  0
  -13.2430    7.8388    1.1721 H   0  0  0  0  0  0  0  0  0  0  0  0
  -11.7836    8.7106    1.8216 H   0  0  0  0  0  0  0  0  0  0  0  0
  -13.8231   10.1101    1.8993 H   0  0  0  0  0  0  0  0  0  0  0  0
  -12.5411   10.7885    0.8217 H   0  0  0  0  0  0  0  0  0  0  0  0
  -14.6666   11.0212   -0.2701 H   0  0  0  0  0  0  0  0  0  0  0  0
  -15.3170    8.8810    0.9950 H   0  0  0  0  0  0  0  0  0  0  0  0
  -12.3164   11.4104   -1.0818 H   0  0  0  0  0  0  0  0  0  0  0  0
  -11.8411   10.5466   -2.5834 H   0  0  0  0  0  0  0  0  0  0  0  0
  -13.2792   11.6230   -2.5834 H   0  0  0  0  0  0  0  0  0  0  0  0
  -15.6873    9.5578   -2.1513 H   0  0  0  0  0  0  0  0  0  0  0  0
  -14.6854   10.5324   -3.2795 H   0  0  0  0  0  0  0  0  0  0  0  0
  -14.5530    8.7410   -3.2795 H   0  0  0  0  0  0  0  0  0  0  0  0
  -11.5533    6.0700    1.6241 H   0  0  0  0  0  0  0  0  0  0  0  0
  -12.7212    5.9784    0.2624 H   0  0  0  0  0  0  0  0  0  0  0  0
  -11.2581    4.9363    0.2624 H   0  0  0  0  0  0  0  0  0  0  0  0
   -9.8552    8.0608    1.4180 H   0  0  0  0  0  0  0  0  0  0  0  0
   -9.2659    6.3462    1.0359 H   0  0  0  0  0  0  0  0  0  0  0  0
   -8.5525    8.9119   -0.4108 H   0  0  0  0  0  0  0  0  0  0  0  0
   -7.4831    7.8337    0.5703 H   0  0  0  0  0  0  0  0  0  0  0  0
   -7.6814    5.5550    0.2325 H   0  0  0  0  0  0  0  0  0  0  0  0
   -8.4395    4.8781   -1.2486 H   0  0  0  0  0  0  0  0  0  0  0  0
   -6.6954    5.3081   -1.2486 H   0  0  0  0  0  0  0  0  0  0  0  0
  1  2  1  0
  2  3  1  0
  3  4  1  0
  4  5  1  0
  5  6  1  0
  6  7  1  0
  7  8  1  0
  7  9  1  0
  2 10  1  0
 10 11  1  0
 11 12  1  0
 12 13  1  0
 13 14  1  6
 13 15  1  0
 15 16  1  0
 16 17  1  0
 17 18  2  0
 18 19  1  0
 19 20  1  0
 20 21  1  0
 21 22  1  0
 22 23  1  0
 22 24  1  0
 24 25  1  0
 24 26  1  0
 19 27  1  0
 27 28  1  1
 27 29  1  0
 29 30  1  0
 30 31  1  0
 31 32  1  1
  7  5  1  0
 31 10  1  0
 31 13  1  0
 27 15  1  0
 24 18  1  0
  1 33  1  0
  1 34  1  0
  1 35  1  0
  2 36  1  6
  3 37  1  0
  3 38  1  0
  4 39  1  0
  4 40  1  0
  5 41  1  6
  8 42  1  0
  8 43  1  0
  8 44  1  0
  9 45  1  0
  9 46  1  0
  9 47  1  0
 10 48  1  6
 11 49  1  0
 11 50  1  0
 12 51  1  0
 12 52  1  0
 14 53  1  0
 14 54  1  0
 14 55  1  0
 15 56  1  1
 16 57  1  0
 16 58  1  0
 17 59  1  0
 19 60  1  6
 20 61  1  0
 20 62  1  0
 21 63  1  0
 21 64  1  0
 22 65  1  6
 23 66  1  0
 25 67  1  0
 25 68  1  0
 25 69  1  0
 26 70  1  0
 26 71  1  0
 26 72  1  0
 28 73  1  0
 28 74  1  0
 28 75  1  0
 29 76  1  0
 29 77  1  0
 30 78  1  0
 30 79  1  0
 32 80  1  0
 32 81  1  0
 32 82  1  0
M  END
>  <meeko>  (13) 
{"is_sidechain": [false], "intermolecular_energy": 2.731, "internal_energy": -0.839}

$$$$
EPH_relaxed_0001_pdb2pqr_Repair_339_r2_0001_out
     RDKit          3D

 82 86  0  0  0  0  0  0  0  0999 V2000
    2.1650   19.2330    0.2600 C   0  0  0  0  0  0  0  0  0  0  0  0
    2.8160   17.8900   -0.0790 C   0  0  2  0  0  0  0  0  0  0  0  0
    3.6200   17.9500   -1.3940 C   0  0  0  0  0  0  0  0  0  0  0  0
    5.0590   17.4440   -1.2590 C   0  0  0  0  0  0  0  0  0  0  0  0
    5.8340   17.6340   -2.5270 C   0  0  2  0  0  0  0  0  0  0  0  0
    5.0890   17.3880   -3.7270 O   0  0  0  0  0  0  0  0  0  0  0  0
    6.1880   16.4980   -3.4690 C   0  0  0  0  0  0  0  0  0  0  0  0
    5.7760   15.0890   -3.1820 C   0  0  0  0  0  0  0  0  0  0  0  0
    7.3420   16.6790   -4.4050 C   0  0  0  0  0  0  0  0  0  0  0  0
    1.7510   16.8040   -0.1690 C   0  0  1  0  0  0  0  0  0  0  0  0
    0.3640   17.3600   -0.5900 C   0  0  0  0  0  0  0  0  0  0  0  0
   -0.3080   16.2710   -1.4650 C   0  0  0  0  0  0  0  0  0  0  0  0
    0.5570   15.0070   -1.2470 C   0  0  1  0  0  0  0  0  0  0  0  0
    0.0580   14.4080    0.1050 C   0  0  0  0  0  0  0  0  0  0  0  0
    0.5290   13.9450   -2.3940 C   0  0  2  0  0  0  0  0  0  0  0  0
   -0.8460   13.3100   -2.6630 C   0  0  0  0  0  0  0  0  0  0  0  0
   -1.1380   12.0680   -1.8880 C   0  0  0  0  0  0  0  0  0  0  0  0
   -0.2290   11.3270   -1.2280 C   0  0  0  0  0  0  0  0  0  0  0  0
    1.2660   11.6650   -1.3010 C   0  0  1  0  0  0  0  0  0  0  0  0
    2.0770   10.3690   -1.5670 C   0  0  0  0  0  0  0  0  0  0  0  0
    1.7760    9.2720   -0.5510 C   0  0  0  0  0  0  0  0  0  0  0  0
    0.2900    8.9230   -0.5490 C   0  0  2  0  0  0  0  0  0  0  0  0
   -0.0440    8.3200   -1.8030 O   0  0  0  0  0  0  0  0  0  0  0  0
   -0.6280   10.1530   -0.3000 C   0  0  0  0  0  0  0  0  0  0  0  0
   -0.4820   10.6220    1.1680 C   0  0  0  0  0  0  0  0  0  0  0  0
   -2.1010    9.6900   -0.4640 C   0  0  0  0  0  0  0  0  0  0  0  0
    1.6630   12.8460   -2.2870 C   0  0  1  0  0  0  0  0  0  0  0  0
    1.8790   12.2870   -3.7270 C   0  0  0  0  0  0  0  0  0  0  0  0
    3.0430   13.4520   -1.8340 C   0  0  0  0  0  0  0  0  0  0  0  0
    2.9970   14.5800   -0.7860 C   0  0  0  0  0  0  0  0  0  0  0  0
    1.9860   15.6590   -1.1870 C   0  0  2  0  0  0  0  0  0  0  0  0
    2.4740   16.2960   -2.5320 C   0  0  0  0  0  0  0  0  0  0  0  0
    2.1092   19.3480    1.3525 H   0  0  0  0  0  0  0  0  0  0  0  0
    2.7671   20.0499   -0.1644 H   0  0  0  0  0  0  0  0  0  0  0  0
    1.1507   19.2663   -0.1644 H   0  0  0  0  0  0  0  0  0  0  0  0
    3.5226   17.6514    0.7296 H   0  0  0  0  0  0  0  0  0  0  0  0
    3.1041   17.3336   -2.1450 H   0  0  0  0  0  0  0  0  0  0  0  0
    3.6775   19.0085   -1.6877 H   0  0  0  0  0  0  0  0  0  0  0  0
    5.5574   17.9982   -0.4500 H   0  0  0  0  0  0  0  0  0  0  0  0
    5.0246   16.3674   -1.0360 H   0  0  0  0  0  0  0  0  0  0  0  0
    6.4418   18.4258   -2.0647 H   0  0  0  0  0  0  0  0  0  0  0  0
    5.7309   14.9346   -2.0938 H   0  0  0  0  0  0  0  0  0  0  0  0
    4.7850   14.9002   -3.6206 H   0  0  0  0  0  0  0  0  0  0  0  0
    6.5091   14.3960   -3.6206 H   0  0  0  0  0  0  0  0  0  0  0  0
    8.2654   16.8238   -3.8250 H   0  0  0  0  0  0  0  0  0  0  0  0
    7.4435   15.7858   -5.0389 H   0  0  0  0  0  0  0  0  0  0  0  0
    7.1652   17.5604   -5.0389 H   0  0  0  0  0  0  0  0  0  0  0  0
    1.8016   16.4116    0.8574 H   0  0  0  0  0  0  0  0  0  0  0  0
   -0.2493   17.5620    0.3006 H   0  0  0  0  0  0  0  0  0  0  0  0
    0.4690   18.3036   -1.1455 H   0  0  0  0  0  0  0  0  0  0  0  0
   -1.3433   16.0943   -1.1380 H   0  0  0  0  0  0  0  0  0  0  0  0
   -0.3623   16.5618   -2.5245 H   0  0  0  0  0  0  0  0  0  0  0  0
    0.5158   14.9576    0.9407 H   0  0  0  0  0  0  0  0  0  0  0  0
   -1.0368   14.4970    0.1636 H   0  0  0  0  0  0  0  0  0  0  0  0
    0.3433   13.3473    0.1636 H   0  0  0  0  0  0  0  0  0  0  0  0
    0.7553   14.5522   -3.2829 H   0  0  0  0  0  0  0  0  0  0  0  0
   -1.6179   14.0538   -2.4163 H   0  0  0  0  0  0  0  0  0  0  0  0
   -0.8420   13.0135   -3.7223 H   0  0  0  0  0  0  0  0  0  0  0  0
   -2.1842   11.7301   -1.8535 H   0  0  0  0  0  0  0  0  0  0  0  0
    1.5328   12.0777   -0.3169 H   0  0  0  0  0  0  0  0  0  0  0  0
    1.8278    9.9971   -2.5718 H   0  0  0  0  0  0  0  0  0  0  0  0
    3.1446   10.6197   -1.4814 H   0  0  0  0  0  0  0  0  0  0  0  0
    2.3564    8.3738   -0.8085 H   0  0  0  0  0  0  0  0  0  0  0  0
    2.0527    9.6349    0.4499 H   0  0  0  0  0  0  0  0  0  0  0  0
    0.1160    8.2274    0.2852 H   0  0  0  0  0  0  0  0  0  0  0  0
   -0.7260    8.8710   -2.2220 H   0  0  0  0  0  0  0  0  0  0  0  0
   -0.7397    9.7940    1.8448 H   0  0  0  0  0  0  0  0  0  0  0  0
    0.5563   10.9357    1.3512 H   0  0  0  0  0  0  0  0  0  0  0  0
   -1.1588   11.4696    1.3512 H   0  0  0  0  0  0  0  0  0  0  0  0
   -2.5533    9.5478    0.5286 H   0  0  0  0  0  0  0  0  0  0  0  0
   -2.6659   10.4539   -1.0184 H   0  0  0  0  0  0  0  0  0  0  0  0
   -2.1273    8.7403   -1.0184 H   0  0  0  0  0  0  0  0  0  0  0  0
    2.2749   11.2625   -3.6670 H   0  0  0  0  0  0  0  0  0  0  0  0
    0.9194   12.2784   -4.2648 H   0  0  0  0  0  0  0  0  0  0  0  0
    2.5950   12.9259   -4.2648 H   0  0  0  0  0  0  0  0  0  0  0  0
    3.6444   12.6322   -1.4141 H   0  0  0  0  0  0  0  0  0  0  0  0
    3.4634   13.9167   -2.7381 H   0  0  0  0  0  0  0  0  0  0  0  0
    2.7048   14.1564    0.1862 H   0  0  0  0  0  0  0  0  0  0  0  0
    3.9941   15.0399   -0.7212 H   0  0  0  0  0  0  0  0  0  0  0  0
    3.1299   17.1521   -2.3155 H   0  0  0  0  0  0  0  0  0  0  0  0
    3.0304   15.5454   -3.1126 H   0  0  0  0  0  0  0  0  0  0  0  0
    1.6045   16.6378   -3.1126 H   0  0  0  0  0  0  0  0  0  0  0  0
  1  2  1  0
  2  3  1  0
  3  4  1  0
  4  5  1  0
  5  6  1  0
  6  7  1  0
  7  8  1  0
  7  9  1  0
  2 10  1  0
 10 11  1  0
 11 12  1  0
 12 13  1  0
 13 14  1  1
 13 15  1  0
 15 16  1  0
 16 17  1  0
 17 18  2  0
 18 19  1  0
 19 20  1  0
 20 21  1  0
 21 22  1  0
 22 23  1  0
 22 24  1  0
 24 25  1  0
 24 26  1  0
 19 27  1  0
 27 28  1  6
 27 29  1  0
 29 30  1  0
 30 31  1  0
 31 32  1  6
  7  5  1  0
 31 10  1  0
 31 13  1  0
 27 15  1  0
 24 18  1  0
  1 33  1  0
  1 34  1  0
  1 35  1  0
  2 36  1  1
  3 37  1  0
  3 38  1  0
  4 39  1  0
  4 40  1  0
  5 41  1  6
  8 42  1  0
  8 43  1  0
  8 44  1  0
  9 45  1  0
  9 46  1  0
  9 47  1  0
 10 48  1  1
 11 49  1  0
 11 50  1  0
 12 51  1  0
 12 52  1  0
 14 53  1  0
 14 54  1  0
 14 55  1  0
 15 56  1  6
 16 57  1  0
 16 58  1  0
 17 59  1  0
 19 60  1  1
 20 61  1  0
 20 62  1  0
 21 63  1  0
 21 64  1  0
 22 65  1  1
 23 66  1  0
 25 67  1  0
 25 68  1  0
 25 69  1  0
 26 70  1  0
 26 71  1  0
 26 72  1  0
 28 73  1  0
 28 74  1  0
 28 75  1  0
 29 76  1  0
 29 77  1  0
 30 78  1  0
 30 79  1  0
 32 80  1  0
 32 81  1  0
 32 82  1  0
M  END
>  <meeko>  (14) 
{"is_sidechain": [false], "intermolecular_energy": 2.731, "internal_energy": -0.839}

$$$$
EPH_relaxed_0001_pdb2pqr_Repair_339_r2_0001_out
     RDKit          3D

 82 86  0  0  0  0  0  0  0  0999 V2000
    4.6040   16.8760   -1.5610 C   0  0  0  0  0  0  0  0  0  0  0  0
    4.6850   15.3480   -1.6190 C   0  0  2  0  0  0  0  0  0  0  0  0
    5.0460   14.8380   -3.0290 C   0  0  0  0  0  0  0  0  0  0  0  0
    5.9870   13.6300   -3.0240 C   0  0  0  0  0  0  0  0  0  0  0  0
    5.5730   12.6010   -4.0320 C   0  0  2  0  0  0  0  0  0  0  0  0
    5.1110   11.3650   -3.4710 O   0  0  0  0  0  0  0  0  0  0  0  0
    6.3170   11.2970   -4.2500 C   0  0  0  0  0  0  0  0  0  0  0  0
    7.5370   10.9520   -3.4550 C   0  0  0  0  0  0  0  0  0  0  0  0
    6.1500   10.5880   -5.5580 C   0  0  0  0  0  0  0  0  0  0  0  0
    3.3610   14.7400   -1.1690 C   0  0  1  0  0  0  0  0  0  0  0  0
    2.3490   15.8090   -0.6770 C   0  0  0  0  0  0  0  0  0  0  0  0
    0.9400   15.3160   -1.0930 C   0  0  0  0  0  0  0  0  0  0  0  0
    1.1500   13.8400   -1.5080 C   0  0  1  0  0  0  0  0  0  0  0  0
    1.1700   13.0460   -0.1640 C   0  0  0  0  0  0  0  0  0  0  0  0
    0.1070   13.2500   -2.5120 C   0  0  2  0  0  0  0  0  0  0  0  0
   -1.3410   13.2010   -1.9960 C   0  0  0  0  0  0  0  0  0  0  0  0
   -1.7250   11.9410   -1.2930 C   0  0  0  0  0  0  0  0  0  0  0  0
   -1.0380   10.7840   -1.3300 C   0  0  0  0  0  0  0  0  0  0  0  0
    0.2050   10.6340   -2.2170 C   0  0  1  0  0  0  0  0  0  0  0  0
    0.1250    9.2960   -2.9980 C   0  0  0  0  0  0  0  0  0  0  0  0
   -0.0860    8.0950   -2.0810 C   0  0  0  0  0  0  0  0  0  0  0  0
   -1.3620    8.2540   -1.2580 C   0  0  2  0  0  0  0  0  0  0  0  0
   -2.4880    8.2050   -2.1390 O   0  0  0  0  0  0  0  0  0  0  0  0
   -1.3990    9.5730   -0.4350 C   0  0  0  0  0  0  0  0  0  0  0  0
   -0.3690    9.4950    0.7180 C   0  0  0  0  0  0  0  0  0  0  0  0
   -2.7950    9.6770    0.2360 C   0  0  0  0  0  0  0  0  0  0  0  0
    0.5380   11.8710   -3.1570 C   0  0  1  0  0  0  0  0  0  0  0  0
   -0.2430   11.7440   -4.5010 C   0  0  0  0  0  0  0  0  0  0  0  0
    2.0680   11.8360   -3.5290 C   0  0  0  0  0  0  0  0  0  0  0  0
    3.0350   12.5400   -2.5580 C   0  0  0  0  0  0  0  0  0  0  0  0
    2.5450   13.9520   -2.2240 C   0  0  2  0  0  0  0  0  0  0  0  0
    2.5350   14.7820   -3.5520 C   0  0  0  0  0  0  0  0  0  0  0  0
    4.5867   17.2027   -0.5108 H   0  0  0  0  0  0  0  0  0  0  0  0
    5.4805   17.3090   -2.0653 H   0  0  0  0  0  0  0  0  0  0  0  0
    3.6867   17.2140   -2.0653 H   0  0  0  0  0  0  0  0  0  0  0  0
    5.4898   15.0336   -0.9382 H   0  0  0  0  0  0  0  0  0  0  0  0
    4.1167   14.5523   -3.5435 H   0  0  0  0  0  0  0  0  0  0  0  0
    5.5747   15.6554   -3.5411 H   0  0  0  0  0  0  0  0  0  0  0  0
    7.0059   13.9708   -3.2602 H   0  0  0  0  0  0  0  0  0  0  0  0
    5.9472   13.1683   -2.0264 H   0  0  0  0  0  0  0  0  0  0  0  0
    5.2369   13.3838   -4.7279 H   0  0  0  0  0  0  0  0  0  0  0  0
    7.3058   11.0174   -2.3816 H   0  0  0  0  0  0  0  0  0  0  0  0
    7.8566    9.9283   -3.6995 H   0  0  0  0  0  0  0  0  0  0  0  0
    8.3454   11.6568   -3.6995 H   0  0  0  0  0  0  0  0  0  0  0  0
    5.9014    9.5324   -5.3738 H   0  0  0  0  0  0  0  0  0  0  0  0
    5.3387   11.0612   -6.1306 H   0  0  0  0  0  0  0  0  0  0  0  0
    7.0872   10.6494   -6.1306 H   0  0  0  0  0  0  0  0  0  0  0  0
    3.7280   14.0558   -0.3898 H   0  0  0  0  0  0  0  0  0  0  0  0
    2.4071   15.9105    0.4168 H   0  0  0  0  0  0  0  0  0  0  0  0
    2.5689   16.7929   -1.1169 H   0  0  0  0  0  0  0  0  0  0  0  0
    0.2390   15.3859   -0.2482 H   0  0  0  0  0  0  0  0  0  0  0  0
    0.5093   15.9205   -1.9048 H   0  0  0  0  0  0  0  0  0  0  0  0
    1.1522   13.7521    0.6793 H   0  0  0  0  0  0  0  0  0  0  0  0
    0.2881   12.3906   -0.1121 H   0  0  0  0  0  0  0  0  0  0  0  0
    2.0838   12.4358   -0.1121 H   0  0  0  0  0  0  0  0  0  0  0  0
    0.1097   13.9959   -3.3204 H   0  0  0  0  0  0  0  0  0  0  0  0
   -1.4806   14.0373   -1.2953 H   0  0  0  0  0  0  0  0  0  0  0  0
   -1.9837   13.2607   -2.8867 H   0  0  0  0  0  0  0  0  0  0  0  0
   -2.6475   11.9598   -0.6941 H   0  0  0  0  0  0  0  0  0  0  0  0
    1.0669   10.6158   -1.5337 H   0  0  0  0  0  0  0  0  0  0  0  0
   -0.7149    9.3508   -3.7062 H   0  0  0  0  0  0  0  0  0  0  0  0
    1.0842    9.1549   -3.5177 H   0  0  0  0  0  0  0  0  0  0  0  0
   -0.1635    7.1842   -2.6929 H   0  0  0  0  0  0  0  0  0  0  0  0
    0.7691    8.0245   -1.3926 H   0  0  0  0  0  0  0  0  0  0  0  0
   -1.3909    7.4292   -0.5308 H   0  0  0  0  0  0  0  0  0  0  0  0
   -2.5500    7.2990   -2.4870 H   0  0  0  0  0  0  0  0  0  0  0  0
   -0.8953    9.5349    1.6831 H   0  0  0  0  0  0  0  0  0  0  0  0
    0.1923    8.5518    0.6451 H   0  0  0  0  0  0  0  0  0  0  0  0
    0.3279   10.3429    0.6451 H   0  0  0  0  0  0  0  0  0  0  0  0
   -2.6777    9.6683    1.3297 H   0  0  0  0  0  0  0  0  0  0  0  0
   -3.2815   10.6139   -0.0731 H   0  0  0  0  0  0  0  0  0  0  0  0
   -3.4150    8.8226   -0.0731 H   0  0  0  0  0  0  0  0  0  0  0  0
   -1.3087   11.5707   -4.2908 H   0  0  0  0  0  0  0  0  0  0  0  0
   -0.1297   12.6724   -5.0801 H   0  0  0  0  0  0  0  0  0  0  0  0
    0.1586   10.8994   -5.0801 H   0  0  0  0  0  0  0  0  0  0  0  0
    2.3708   10.7805   -3.5933 H   0  0  0  0  0  0  0  0  0  0  0  0
    2.1480   12.3967   -4.4720 H   0  0  0  0  0  0  0  0  0  0  0  0
    3.1030   11.9537   -1.6297 H   0  0  0  0  0  0  0  0  0  0  0  0
    4.0215   12.6156   -3.0388 H   0  0  0  0  0  0  0  0  0  0  0  0
    2.5221   15.8557   -3.3132 H   0  0  0  0  0  0  0  0  0  0  0  0
    3.4360   14.5475   -4.1378 H   0  0  0  0  0  0  0  0  0  0  0  0
    1.6399   14.5258   -4.1378 H   0  0  0  0  0  0  0  0  0  0  0  0
  1  2  1  0
  2  3  1  0
  3  4  1  0
  4  5  1  0
  5  6  1  0
  6  7  1  0
  7  8  1  0
  7  9  1  0
  2 10  1  0
 10 11  1  0
 11 12  1  0
 12 13  1  0
 13 14  1  1
 13 15  1  0
 15 16  1  0
 16 17  1  0
 17 18  2  0
 18 19  1  0
 19 20  1  0
 20 21  1  0
 21 22  1  0
 22 23  1  0
 22 24  1  0
 24 25  1  0
 24 26  1  0
 19 27  1  0
 27 28  1  6
 27 29  1  0
 29 30  1  0
 30 31  1  0
 31 32  1  6
  7  5  1  0
 31 10  1  0
 31 13  1  0
 27 15  1  0
 24 18  1  0
  1 33  1  0
  1 34  1  0
  1 35  1  0
  2 36  1  1
  3 37  1  0
  3 38  1  0
  4 39  1  0
  4 40  1  0
  5 41  1  6
  8 42  1  0
  8 43  1  0
  8 44  1  0
  9 45  1  0
  9 46  1  0
  9 47  1  0
 10 48  1  1
 11 49  1  0
 11 50  1  0
 12 51  1  0
 12 52  1  0
 14 53  1  0
 14 54  1  0
 14 55  1  0
 15 56  1  6
 16 57  1  0
 16 58  1  0
 17 59  1  0
 19 60  1  1
 20 61  1  0
 20 62  1  0
 21 63  1  0
 21 64  1  0
 22 65  1  1
 23 66  1  0
 25 67  1  0
 25 68  1  0
 25 69  1  0
 26 70  1  0
 26 71  1  0
 26 72  1  0
 28 73  1  0
 28 74  1  0
 28 75  1  0
 29 76  1  0
 29 77  1  0
 30 78  1  0
 30 79  1  0
 32 80  1  0
 32 81  1  0
 32 82  1  0
M  END
>  <meeko>  (15) 
{"is_sidechain": [false], "intermolecular_energy": 2.731, "internal_energy": -0.839}

$$$$
EPH_relaxed_0001_pdb2pqr_Repair_339_r2_0001_out
     RDKit          3D

 82 86  0  0  0  0  0  0  0  0999 V2000
    2.2660   17.4570    0.0020 C   0  0  0  0  0  0  0  0  0  0  0  0
    2.1320   17.4140   -1.5230 C   0  0  2  0  0  0  0  0  0  0  0  0
    1.4860   18.6950   -2.0860 C   0  0  0  0  0  0  0  0  0  0  0  0
   -0.0270   18.5810   -2.2930 C   0  0  0  0  0  0  0  0  0  0  0  0
   -0.7750   19.6020   -1.4910 C   0  0  2  0  0  0  0  0  0  0  0  0
   -0.1630   19.9480   -0.2420 O   0  0  0  0  0  0  0  0  0  0  0  0
   -1.4420   19.2980   -0.1620 C   0  0  0  0  0  0  0  0  0  0  0  0
   -1.3920   17.9290    0.4400 C   0  0  0  0  0  0  0  0  0  0  0  0
   -2.5450   20.1950    0.3070 C   0  0  0  0  0  0  0  0  0  0  0  0
    1.3190   16.1930   -1.9380 C   0  0  1  0  0  0  0  0  0  0  0  0
    0.7830   16.3000   -3.3910 C   0  0  0  0  0  0  0  0  0  0  0  0
    0.8030   14.8660   -3.9810 C   0  0  0  0  0  0  0  0  0  0  0  0
    1.0290   13.9450   -2.7600 C   0  0  1  0  0  0  0  0  0  0  0  0
   -0.3800   13.7920   -2.1060 C   0  0  0  0  0  0  0  0  0  0  0  0
    1.6830   12.5550   -3.0540 C   0  0  2  0  0  0  0  0  0  0  0  0
    0.8620   11.6280   -3.9660 C   0  0  0  0  0  0  0  0  0  0  0  0
   -0.0870   10.7170   -3.2600 C   0  0  0  0  0  0  0  0  0  0  0  0
   -0.0740   10.4410   -1.9430 C   0  0  0  0  0  0  0  0  0  0  0  0
    1.0310   10.9950   -1.0340 C   0  0  1  0  0  0  0  0  0  0  0  0
    1.5680    9.8610   -0.1220 C   0  0  0  0  0  0  0  0  0  0  0  0
    0.4590    9.1670    0.6640 C   0  0  0  0  0  0  0  0  0  0  0  0
   -0.5890    8.5790   -0.2770 C   0  0  2  0  0  0  0  0  0  0  0  0
    0.0080    7.5150   -1.0250 O   0  0  0  0  0  0  0  0  0  0  0  0
   -1.1950    9.6270   -1.2520 C   0  0  0  0  0  0  0  0  0  0  0  0
   -2.0940   10.6120   -0.4640 C   0  0  0  0  0  0  0  0  0  0  0  0
   -2.1320    8.8780   -2.2370 C   0  0  0  0  0  0  0  0  0  0  0  0
    2.1950   11.7930   -1.7650 C   0  0  1  0  0  0  0  0  0  0  0  0
    3.3010   10.8040   -2.2420 C   0  0  0  0  0  0  0  0  0  0  0  0
    2.8810   12.7620   -0.7300 C   0  0  0  0  0  0  0  0  0  0  0  0
    2.2600   14.1630   -0.5720 C   0  0  0  0  0  0  0  0  0  0  0  0
    2.0410   14.8230   -1.9370 C   0  0  2  0  0  0  0  0  0  0  0  0
    3.4440   15.0100   -2.6090 C   0  0  0  0  0  0  0  0  0  0  0  0
    1.3148   17.1517    0.4624 H   0  0  0  0  0  0  0  0  0  0  0  0
    3.0642   16.7699    0.3195 H   0  0  0  0  0  0  0  0  0  0  0  0
    2.5153   18.4803    0.3195 H   0  0  0  0  0  0  0  0  0  0  0  0
    3.1463   17.3456   -1.9431 H   0  0  0  0  0  0  0  0  0  0  0  0
    1.6794   19.5192   -1.3836 H   0  0  0  0  0  0  0  0  0  0  0  0
    1.9335   18.8730   -3.0750 H   0  0  0  0  0  0  0  0  0  0  0  0
   -0.2531   18.7298   -3.3592 H   0  0  0  0  0  0  0  0  0  0  0  0
   -0.3444   17.5824   -1.9581 H   0  0  0  0  0  0  0  0  0  0  0  0
   -1.1431   20.0863   -2.4075 H   0  0  0  0  0  0  0  0  0  0  0  0
   -1.3950   18.0105    1.5370 H   0  0  0  0  0  0  0  0  0  0  0  0
   -2.2697   17.3523    0.1128 H   0  0  0  0  0  0  0  0  0  0  0  0
   -0.4746   17.4178    0.1128 H   0  0  0  0  0  0  0  0  0  0  0  0
   -2.5631   20.2097    1.4068 H   0  0  0  0  0  0  0  0  0  0  0  0
   -2.3745   21.2140   -0.0706 H   0  0  0  0  0  0  0  0  0  0  0  0
   -3.5079   19.8204   -0.0706 H   0  0  0  0  0  0  0  0  0  0  0  0
    0.5465   16.2105   -1.1551 H   0  0  0  0  0  0  0  0  0  0  0  0
   -0.2439   16.6943   -3.3880 H   0  0  0  0  0  0  0  0  0  0  0  0
    1.4018   16.9831   -3.9913 H   0  0  0  0  0  0  0  0  0  0  0  0
   -0.1544   14.6341   -4.4704 H   0  0  0  0  0  0  0  0  0  0  0  0
    1.5820   14.7411   -4.7475 H   0  0  0  0  0  0  0  0  0  0  0  0
   -0.2790   13.8030   -1.0107 H   0  0  0  0  0  0  0  0  0  0  0  0
   -1.0239   14.6255   -2.4232 H   0  0  0  0  0  0  0  0  0  0  0  0
   -0.8300   12.8397   -2.4232 H   0  0  0  0  0  0  0  0  0  0  0  0
    2.5748   12.8325   -3.6351 H   0  0  0  0  0  0  0  0  0  0  0  0
    0.2799   12.2575   -4.6552 H   0  0  0  0  0  0  0  0  0  0  0  0
    1.5895   10.9768   -4.4726 H   0  0  0  0  0  0  0  0  0  0  0  0
   -0.8632   10.2298   -3.8684 H   0  0  0  0  0  0  0  0  0  0  0  0
    0.5572   11.7751   -0.4200 H   0  0  0  0  0  0  0  0  0  0  0  0
    2.0755    9.1140   -0.7500 H   0  0  0  0  0  0  0  0  0  0  0  0
    2.2578   10.3154    0.6044 H   0  0  0  0  0  0  0  0  0  0  0  0
    0.8969    8.3575    1.2665 H   0  0  0  0  0  0  0  0  0  0  0  0
   -0.0285    9.9087    1.3138 H   0  0  0  0  0  0  0  0  0  0  0  0
   -1.4196    8.2114    0.3435 H   0  0  0  0  0  0  0  0  0  0  0  0
    0.5950    7.0270   -0.4240 H   0  0  0  0  0  0  0  0  0  0  0  0
   -1.9511   10.4555    0.6154 H   0  0  0  0  0  0  0  0  0  0  0  0
   -1.8213   11.6455   -0.7239 H   0  0  0  0  0  0  0  0  0  0  0  0
   -3.1480   10.4345   -0.7239 H   0  0  0  0  0  0  0  0  0  0  0  0
   -2.8674    8.2901   -1.6682 H   0  0  0  0  0  0  0  0  0  0  0  0
   -2.6571    9.6081   -2.8704 H   0  0  0  0  0  0  0  0  0  0  0  0
   -1.5355    8.2050   -2.8704 H   0  0  0  0  0  0  0  0  0  0  0  0
    3.7978   10.3597   -1.3669 H   0  0  0  0  0  0  0  0  0  0  0  0
    2.8442   10.0076   -2.8479 H   0  0  0  0  0  0  0  0  0  0  0  0
    4.0416   11.3466   -2.8479 H   0  0  0  0  0  0  0  0  0  0  0  0
    2.8515   12.2721    0.2544 H   0  0  0  0  0  0  0  0  0  0  0  0
    3.8914   12.9385   -1.1274 H   0  0  0  0  0  0  0  0  0  0  0  0
    1.2923   14.0716   -0.0571 H   0  0  0  0  0  0  0  0  0  0  0  0
    2.9501   14.7885    0.0133 H   0  0  0  0  0  0  0  0  0  0  0  0
    4.2132   15.1125   -1.8294 H   0  0  0  0  0  0  0  0  0  0  0  0
    3.6705   14.1341   -3.2347 H   0  0  0  0  0  0  0  0  0  0  0  0
    3.4332   15.9147   -3.2347 H   0  0  0  0  0  0  0  0  0  0  0  0
  1  2  1  0
  2  3  1  0
  3  4  1  0
  4  5  1  0
  5  6  1  0
  6  7  1  0
  7  8  1  0
  7  9  1  0
  2 10  1  0
 10 11  1  0
 11 12  1  0
 12 13  1  0
 13 14  1  1
 13 15  1  0
 15 16  1  0
 16 17  1  0
 17 18  2  0
 18 19  1  0
 19 20  1  0
 20 21  1  0
 21 22  1  0
 22 23  1  0
 22 24  1  0
 24 25  1  0
 24 26  1  0
 19 27  1  0
 27 28  1  6
 27 29  1  0
 29 30  1  0
 30 31  1  0
 31 32  1  6
  7  5  1  0
 31 10  1  0
 31 13  1  0
 27 15  1  0
 24 18  1  0
  1 33  1  0
  1 34  1  0
  1 35  1  0
  2 36  1  6
  3 37  1  0
  3 38  1  0
  4 39  1  0
  4 40  1  0
  5 41  1  6
  8 42  1  0
  8 43  1  0
  8 44  1  0
  9 45  1  0
  9 46  1  0
  9 47  1  0
 10 48  1  1
 11 49  1  0
 11 50  1  0
 12 51  1  0
 12 52  1  0
 14 53  1  0
 14 54  1  0
 14 55  1  0
 15 56  1  6
 16 57  1  0
 16 58  1  0
 17 59  1  0
 19 60  1  1
 20 61  1  0
 20 62  1  0
 21 63  1  0
 21 64  1  0
 22 65  1  1
 23 66  1  0
 25 67  1  0
 25 68  1  0
 25 69  1  0
 26 70  1  0
 26 71  1  0
 26 72  1  0
 28 73  1  0
 28 74  1  0
 28 75  1  0
 29 76  1  0
 29 77  1  0
 30 78  1  0
 30 79  1  0
 32 80  1  0
 32 81  1  0
 32 82  1  0
M  END
>  <meeko>  (16) 
{"is_sidechain": [false], "intermolecular_energy": 2.731, "internal_energy": -0.839}

$$$$
