EPH_relaxed_0001_pdb2pqr_Repair_354_r2_0001_out
     RDKit          3D

 82 86  0  0  0  0  0  0  0  0999 V2000
   -4.8990   11.1940    0.2000 C   0  0  0  0  0  0  0  0  0  0  0  0
   -3.5530   10.6570   -0.2950 C   0  0  2  0  0  0  0  0  0  0  0  0
   -3.2590    9.2420    0.2410 C   0  0  0  0  0  0  0  0  0  0  0  0
   -3.6030    8.1250   -0.7490 C   0  0  0  0  0  0  0  0  0  0  0  0
   -5.0840    7.9470   -0.8920 C   0  0  2  0  0  0  0  0  0  0  0  0
   -5.5440    6.5990   -0.7300 O   0  0  0  0  0  0  0  0  0  0  0  0
   -5.7280    7.1800   -2.0310 C   0  0  0  0  0  0  0  0  0  0  0  0
   -4.9050    6.5400   -3.1050 C   0  0  0  0  0  0  0  0  0  0  0  0
   -7.1590    7.4640   -2.3660 C   0  0  0  0  0  0  0  0  0  0  0  0
   -2.4340   11.6100    0.1080 C   0  0  1  0  0  0  0  0  0  0  0  0
   -1.6030   11.0820    1.3080 C   0  0  0  0  0  0  0  0  0  0  0  0
   -0.1400   11.5380    1.0740 C   0  0  0  0  0  0  0  0  0  0  0  0
   -0.2340   12.5830   -0.0630 C   0  0  1  0  0  0  0  0  0  0  0  0
   -0.6660   13.9060    0.6440 C   0  0  0  0  0  0  0  0  0  0  0  0
    1.0550   12.7830   -0.9250 C   0  0  2  0  0  0  0  0  0  0  0  0
    2.2810   13.3040   -0.1550 C   0  0  0  0  0  0  0  0  0  0  0  0
    2.4200   14.7900   -0.1090 C   0  0  0  0  0  0  0  0  0  0  0  0
    1.7620   15.6620   -0.8950 C   0  0  0  0  0  0  0  0  0  0  0  0
    0.8410   15.1700   -2.0190 C   0  0  1  0  0  0  0  0  0  0  0  0
    1.1360   15.9690   -3.3160 C   0  0  0  0  0  0  0  0  0  0  0  0
    1.0470   17.4770   -3.1080 C   0  0  0  0  0  0  0  0  0  0  0  0
    2.0180   17.9360   -2.0230 C   0  0  2  0  0  0  0  0  0  0  0  0
    3.3570   17.7410   -2.4900 O   0  0  0  0  0  0  0  0  0  0  0  0
    1.8230   17.1940   -0.6720 C   0  0  0  0  0  0  0  0  0  0  0  0
    0.4930   17.6430   -0.0180 C   0  0  0  0  0  0  0  0  0  0  0  0
    2.9540   17.6470    0.2900 C   0  0  0  0  0  0  0  0  0  0  0  0
    0.8210   13.6000   -2.2600 C   0  0  1  0  0  0  0  0  0  0  0  0
    1.9680   13.1960   -3.2360 C   0  0  0  0  0  0  0  0  0  0  0  0
   -0.5270   13.2070   -2.9730 C   0  0  0  0  0  0  0  0  0  0  0  0
   -1.7320   12.9040   -2.0620 C   0  0  0  0  0  0  0  0  0  0  0  0
   -1.3480   11.9210   -0.9530 C   0  0  2  0  0  0  0  0  0  0  0  0
   -0.9300   10.5730   -1.6320 C   0  0  0  0  0  0  0  0  0  0  0  0
   -4.9099   11.1984    1.2999 H   0  0  0  0  0  0  0  0  0  0  0  0
   -5.0441   12.2189   -0.1722 H   0  0  0  0  0  0  0  0  0  0  0  0
   -5.7098   10.5505   -0.1722 H   0  0  0  0  0  0  0  0  0  0  0  0
   -3.6069   10.5890   -1.3916 H   0  0  0  0  0  0  0  0  0  0  0  0
   -2.1872    9.1767    0.4796 H   0  0  0  0  0  0  0  0  0  0  0  0
   -3.8956    9.0947    1.1259 H   0  0  0  0  0  0  0  0  0  0  0  0
   -3.1777    8.3764   -1.7318 H   0  0  0  0  0  0  0  0  0  0  0  0
   -3.1804    7.1848   -0.3651 H   0  0  0  0  0  0  0  0  0  0  0  0
   -5.2677    8.9509   -0.4816 H   0  0  0  0  0  0  0  0  0  0  0  0
   -4.1160    5.9264   -2.6457 H   0  0  0  0  0  0  0  0  0  0  0  0
   -5.5485    5.9026   -3.7293 H   0  0  0  0  0  0  0  0  0  0  0  0
   -4.4458    7.3206   -3.7293 H   0  0  0  0  0  0  0  0  0  0  0  0
   -7.7372    7.5787   -1.4373 H   0  0  0  0  0  0  0  0  0  0  0  0
   -7.2209    8.3919   -2.9535 H   0  0  0  0  0  0  0  0  0  0  0  0
   -7.5705    6.6300   -2.9535 H   0  0  0  0  0  0  0  0  0  0  0  0
   -3.0267   12.5131    0.3158 H   0  0  0  0  0  0  0  0  0  0  0  0
   -1.9856   11.5045    2.2488 H   0  0  0  0  0  0  0  0  0  0  0  0
   -1.6682    9.9864    1.3820 H   0  0  0  0  0  0  0  0  0  0  0  0
    0.2757   11.9923    1.9855 H   0  0  0  0  0  0  0  0  0  0  0  0
    0.5222   10.6986    0.8154 H   0  0  0  0  0  0  0  0  0  0  0  0
   -0.6217   13.7702    1.7347 H   0  0  0  0  0  0  0  0  0  0  0  0
    0.0134   14.7188    0.3478 H   0  0  0  0  0  0  0  0  0  0  0  0
   -1.6942   14.1612    0.3478 H   0  0  0  0  0  0  0  0  0  0  0  0
    1.3037   11.7529   -1.2200 H   0  0  0  0  0  0  0  0  0  0  0  0
    2.2141   12.9365    0.8796 H   0  0  0  0  0  0  0  0  0  0  0  0
    3.1624   12.9322   -0.6980 H   0  0  0  0  0  0  0  0  0  0  0  0
    3.1196   15.2074    0.6301 H   0  0  0  0  0  0  0  0  0  0  0  0
   -0.1866   15.3717   -1.6822 H   0  0  0  0  0  0  0  0  0  0  0  0
    2.1506   15.7200   -3.6602 H   0  0  0  0  0  0  0  0  0  0  0  0
    0.3755   15.6896   -4.0600 H   0  0  0  0  0  0  0  0  0  0  0  0
    1.2945   17.9858   -4.0513 H   0  0  0  0  0  0  0  0  0  0  0  0
    0.0236   17.7283   -2.7926 H   0  0  0  0  0  0  0  0  0  0  0  0
    1.8158   18.9996   -1.8283 H   0  0  0  0  0  0  0  0  0  0  0  0
    3.9500   18.2350   -1.8990 H   0  0  0  0  0  0  0  0  0  0  0  0
    0.5931   17.6092    1.0769 H   0  0  0  0  0  0  0  0  0  0  0  0
    0.2579   18.6703   -0.3332 H   0  0  0  0  0  0  0  0  0  0  0  0
   -0.3167   16.9684   -0.3332 H   0  0  0  0  0  0  0  0  0  0  0  0
    2.6245   17.5150    1.3312 H   0  0  0  0  0  0  0  0  0  0  0  0
    3.8534   17.0397    0.1103 H   0  0  0  0  0  0  0  0  0  0  0  0
    3.1855   18.7072    0.1103 H   0  0  0  0  0  0  0  0  0  0  0  0
    2.8500   12.8853   -2.6567 H   0  0  0  0  0  0  0  0  0  0  0  0
    1.6332   12.3617   -3.8699 H   0  0  0  0  0  0  0  0  0  0  0  0
    2.2300   14.0560   -3.8699 H   0  0  0  0  0  0  0  0  0  0  0  0
   -0.8098   14.0405   -3.6327 H   0  0  0  0  0  0  0  0  0  0  0  0
   -0.3131   12.2608   -3.4916 H   0  0  0  0  0  0  0  0  0  0  0  0
   -2.0829   13.8415   -1.6060 H   0  0  0  0  0  0  0  0  0  0  0  0
   -2.5273   12.4508   -2.6720 H   0  0  0  0  0  0  0  0  0  0  0  0
   -0.6990    9.8280   -0.8564 H   0  0  0  0  0  0  0  0  0  0  0  0
   -1.7566   10.2061   -2.2582 H   0  0  0  0  0  0  0  0  0  0  0  0
   -0.0409   10.7381   -2.2582 H   0  0  0  0  0  0  0  0  0  0  0  0
  1  2  1  0
  2  3  1  0
  3  4  1  0
  4  5  1  0
  5  6  1  0
  6  7  1  0
  7  8  1  0
  7  9  1  0
  2 10  1  0
 10 11  1  0
 11 12  1  0
 12 13  1  0
 13 14  1  1
 13 15  1  0
 15 16  1  0
 16 17  1  0
 17 18  2  0
 18 19  1  0
 19 20  1  0
 20 21  1  0
 21 22  1  0
 22 23  1  0
 22 24  1  0
 24 25  1  0
 24 26  1  0
 19 27  1  0
 27 28  1  6
 27 29  1  0
 29 30  1  0
 30 31  1  0
 31 32  1  6
  7  5  1  0
 31 10  1  0
 31 13  1  0
 27 15  1  0
 24 18  1  0
  1 33  1  0
  1 34  1  0
  1 35  1  0
  2 36  1  6
  3 37  1  0
  3 38  1  0
  4 39  1  0
  4 40  1  0
  5 41  1  1
  8 42  1  0
  8 43  1  0
  8 44  1  0
  9 45  1  0
  9 46  1  0
  9 47  1  0
 10 48  1  1
 11 49  1  0
 11 50  1  0
 12 51  1  0
 12 52  1  0
 14 53  1  0
 14 54  1  0
 14 55  1  0
 15 56  1  6
 16 57  1  0
 16 58  1  0
 17 59  1  0
 19 60  1  1
 20 61  1  0
 20 62  1  0
 21 63  1  0
 21 64  1  0
 22 65  1  1
 23 66  1  0
 25 67  1  0
 25 68  1  0
 25 69  1  0
 26 70  1  0
 26 71  1  0
 26 72  1  0
 28 73  1  0
 28 74  1  0
 28 75  1  0
 29 76  1  0
 29 77  1  0
 30 78  1  0
 30 79  1  0
 32 80  1  0
 32 81  1  0
 32 82  1  0
M  END
>  <meeko>  (1) 
{"is_sidechain": [false], "intermolecular_energy": 2.731, "internal_energy": -0.839}

$$$$
EPH_relaxed_0001_pdb2pqr_Repair_354_r2_0001_out
     RDKit          3D

 82 86  0  0  0  0  0  0  0  0999 V2000
    2.3330   20.1680   -0.9120 C   0  0  0  0  0  0  0  0  0  0  0  0
    2.1310   19.2080    0.2640 C   0  0  2  0  0  0  0  0  0  0  0  0
    3.4700   18.6860    0.8240 C   0  0  0  0  0  0  0  0  0  0  0  0
    3.7490   19.1290    2.2630 C   0  0  0  0  0  0  0  0  0  0  0  0
    5.2200   19.2010    2.5450 C   0  0  2  0  0  0  0  0  0  0  0  0
    5.7160   18.1640    3.4010 O   0  0  0  0  0  0  0  0  0  0  0  0
    5.7950   19.5030    3.9160 C   0  0  0  0  0  0  0  0  0  0  0  0
    4.9090   19.7540    5.0960 C   0  0  0  0  0  0  0  0  0  0  0  0
    7.1920   20.0330    4.0050 C   0  0  0  0  0  0  0  0  0  0  0  0
    1.2550   18.0370   -0.1660 C   0  0  1  0  0  0  0  0  0  0  0  0
    0.2800   18.4110   -1.3140 C   0  0  0  0  0  0  0  0  0  0  0  0
    0.1420   17.1530   -2.2100 C   0  0  0  0  0  0  0  0  0  0  0  0
    0.7670   16.0100   -1.3770 C   0  0  1  0  0  0  0  0  0  0  0  0
   -0.3550   15.5790   -0.3820 C   0  0  0  0  0  0  0  0  0  0  0  0
    1.3230   14.7920   -2.1840 C   0  0  2  0  0  0  0  0  0  0  0  0
    0.2730   14.0140   -2.9970 C   0  0  0  0  0  0  0  0  0  0  0  0
   -0.3800   12.8810   -2.2780 C   0  0  0  0  0  0  0  0  0  0  0  0
    0.0610   12.3220   -1.1360 C   0  0  0  0  0  0  0  0  0  0  0  0
    1.3850   12.7650   -0.5020 C   0  0  1  0  0  0  0  0  0  0  0  0
    2.2110   11.5150   -0.1000 C   0  0  0  0  0  0  0  0  0  0  0  0
    1.4280   10.5590    0.7940 C   0  0  0  0  0  0  0  0  0  0  0  0
    0.1460   10.0950    0.1060 C   0  0  2  0  0  0  0  0  0  0  0  0
    0.4960    9.2880   -1.0220 O   0  0  0  0  0  0  0  0  0  0  0  0
   -0.7630   11.2700   -0.3530 C   0  0  0  0  0  0  0  0  0  0  0  0
   -1.3840   11.9610    0.8860 C   0  0  0  0  0  0  0  0  0  0  0  0
   -1.9490   10.6700   -1.1550 C   0  0  0  0  0  0  0  0  0  0  0  0
    2.2360   13.8160   -1.3370 C   0  0  1  0  0  0  0  0  0  0  0  0
    3.1530   13.0700   -2.3540 C   0  0  0  0  0  0  0  0  0  0  0  0
    3.1970   14.5920   -0.3600 C   0  0  0  0  0  0  0  0  0  0  0  0
    2.6280   15.8560    0.3140 C   0  0  0  0  0  0  0  0  0  0  0  0
    1.9690   16.7780   -0.7160 C   0  0  2  0  0  0  0  0  0  0  0  0
    3.0790   17.2460   -1.7180 C   0  0  0  0  0  0  0  0  0  0  0  0
    2.5453   21.1772   -0.5292 H   0  0  0  0  0  0  0  0  0  0  0  0
    3.1783   19.8233   -1.5257 H   0  0  0  0  0  0  0  0  0  0  0  0
    1.4205   20.1931   -1.5257 H   0  0  0  0  0  0  0  0  0  0  0  0
    1.6331   19.7697    1.0681 H   0  0  0  0  0  0  0  0  0  0  0  0
    3.4533   17.5865    0.7960 H   0  0  0  0  0  0  0  0  0  0  0  0
    4.2682   19.1093    0.1965 H   0  0  0  0  0  0  0  0  0  0  0  0
    3.3063   20.1233    2.4222 H   0  0  0  0  0  0  0  0  0  0  0  0
    3.3051   18.3868    2.9428 H   0  0  0  0  0  0  0  0  0  0  0  0
    5.4135   19.6338    1.5524 H   0  0  0  0  0  0  0  0  0  0  0  0
    5.4786   19.5926    6.0231 H   0  0  0  0  0  0  0  0  0  0  0  0
    4.5434   20.7910    5.0660 H   0  0  0  0  0  0  0  0  0  0  0  0
    4.0538   19.0628    5.0660 H   0  0  0  0  0  0  0  0  0  0  0  0
    7.4766   20.1410    5.0621 H   0  0  0  0  0  0  0  0  0  0  0  0
    7.8816   19.3340    3.5092 H   0  0  0  0  0  0  0  0  0  0  0  0
    7.2445   21.0135    3.5092 H   0  0  0  0  0  0  0  0  0  0  0  0
    0.7730   17.8051    0.7952 H   0  0  0  0  0  0  0  0  0  0  0  0
   -0.7004   18.6922   -0.9020 H   0  0  0  0  0  0  0  0  0  0  0  0
    0.6586   19.2677   -1.8909 H   0  0  0  0  0  0  0  0  0  0  0  0
   -0.9163   16.9433   -2.4245 H   0  0  0  0  0  0  0  0  0  0  0  0
    0.6376   17.2783   -3.1840 H   0  0  0  0  0  0  0  0  0  0  0  0
   -0.0013   15.7149    0.6507 H   0  0  0  0  0  0  0  0  0  0  0  0
   -1.2494   16.1976   -0.5476 H   0  0  0  0  0  0  0  0  0  0  0  0
   -0.6053   14.5207   -0.5476 H   0  0  0  0  0  0  0  0  0  0  0  0
    1.9753   15.2778   -2.9246 H   0  0  0  0  0  0  0  0  0  0  0  0
   -0.5128   14.7209   -3.3017 H   0  0  0  0  0  0  0  0  0  0  0  0
    0.8148   13.5653   -3.8426 H   0  0  0  0  0  0  0  0  0  0  0  0
   -1.2994   12.4679   -2.7186 H   0  0  0  0  0  0  0  0  0  0  0  0
    1.1146   13.3383    0.3970 H   0  0  0  0  0  0  0  0  0  0  0  0
    2.5078   10.9797   -1.0140 H   0  0  0  0  0  0  0  0  0  0  0  0
    3.0864   11.8621    0.4684 H   0  0  0  0  0  0  0  0  0  0  0  0
    2.0535    9.6825    1.0187 H   0  0  0  0  0  0  0  0  0  0  0  0
    1.1580   11.0866    1.7207 H   0  0  0  0  0  0  0  0  0  0  0  0
   -0.4345    9.5193    0.8419 H   0  0  0  0  0  0  0  0  0  0  0  0
    0.1790    9.7440   -1.8200 H   0  0  0  0  0  0  0  0  0  0  0  0
   -0.9764   11.5075    1.8015 H   0  0  0  0  0  0  0  0  0  0  0  0
   -1.1403   13.0335    0.8683 H   0  0  0  0  0  0  0  0  0  0  0  0
   -2.4764   11.8328    0.8683 H   0  0  0  0  0  0  0  0  0  0  0  0
   -2.7072   10.2864   -0.4565 H   0  0  0  0  0  0  0  0  0  0  0  0
   -2.3955   11.4506   -1.7884 H   0  0  0  0  0  0  0  0  0  0  0  0
   -1.5846    9.8478   -1.7884 H   0  0  0  0  0  0  0  0  0  0  0  0
    3.8933   12.4678   -1.8069 H   0  0  0  0  0  0  0  0  0  0  0  0
    2.5395   12.4113   -2.9862 H   0  0  0  0  0  0  0  0  0  0  0  0
    3.6731   13.8047   -2.9862 H   0  0  0  0  0  0  0  0  0  0  0  0
    3.4951   13.8951    0.4371 H   0  0  0  0  0  0  0  0  0  0  0  0
    4.0235   14.9493   -0.9919 H   0  0  0  0  0  0  0  0  0  0  0  0
    1.8784   15.5583    1.0620 H   0  0  0  0  0  0  0  0  0  0  0  0
    3.4553   16.4003    0.7929 H   0  0  0  0  0  0  0  0  0  0  0  0
    3.9499   17.6132   -1.1552 H   0  0  0  0  0  0  0  0  0  0  0  0
    3.3821   16.3991   -2.3511 H   0  0  0  0  0  0  0  0  0  0  0  0
    2.6843   18.0543   -2.3511 H   0  0  0  0  0  0  0  0  0  0  0  0
  1  2  1  0
  2  3  1  0
  3  4  1  0
  4  5  1  0
  5  6  1  0
  6  7  1  0
  7  8  1  0
  7  9  1  0
  2 10  1  0
 10 11  1  0
 11 12  1  0
 12 13  1  0
 13 14  1  1
 13 15  1  0
 15 16  1  0
 16 17  1  0
 17 18  2  0
 18 19  1  0
 19 20  1  0
 20 21  1  0
 21 22  1  0
 22 23  1  0
 22 24  1  0
 24 25  1  0
 24 26  1  0
 19 27  1  0
 27 28  1  6
 27 29  1  0
 29 30  1  0
 30 31  1  0
 31 32  1  6
  7  5  1  0
 31 10  1  0
 31 13  1  0
 27 15  1  0
 24 18  1  0
  1 33  1  0
  1 34  1  0
  1 35  1  0
  2 36  1  1
  3 37  1  0
  3 38  1  0
  4 39  1  0
  4 40  1  0
  5 41  1  6
  8 42  1  0
  8 43  1  0
  8 44  1  0
  9 45  1  0
  9 46  1  0
  9 47  1  0
 10 48  1  1
 11 49  1  0
 11 50  1  0
 12 51  1  0
 12 52  1  0
 14 53  1  0
 14 54  1  0
 14 55  1  0
 15 56  1  6
 16 57  1  0
 16 58  1  0
 17 59  1  0
 19 60  1  1
 20 61  1  0
 20 62  1  0
 21 63  1  0
 21 64  1  0
 22 65  1  1
 23 66  1  0
 25 67  1  0
 25 68  1  0
 25 69  1  0
 26 70  1  0
 26 71  1  0
 26 72  1  0
 28 73  1  0
 28 74  1  0
 28 75  1  0
 29 76  1  0
 29 77  1  0
 30 78  1  0
 30 79  1  0
 32 80  1  0
 32 81  1  0
 32 82  1  0
M  END
>  <meeko>  (2) 
{"is_sidechain": [false], "intermolecular_energy": 2.731, "internal_energy": -0.839}

$$$$
EPH_relaxed_0001_pdb2pqr_Repair_354_r2_0001_out
     RDKit          3D

 82 86  0  0  0  0  0  0  0  0999 V2000
    1.8430   18.4910   -1.9020 C   0  0  0  0  0  0  0  0  0  0  0  0
    1.5460   17.4550   -0.8150 C   0  0  2  0  0  0  0  0  0  0  0  0
    2.8100   17.0660   -0.0230 C   0  0  0  0  0  0  0  0  0  0  0  0
    3.7470   18.2440    0.2600 C   0  0  0  0  0  0  0  0  0  0  0  0
    3.4990   18.8360    1.6140 C   0  0  2  0  0  0  0  0  0  0  0  0
    3.9350   20.1930    1.7630 O   0  0  0  0  0  0  0  0  0  0  0  0
    4.6080   19.2190    2.5760 C   0  0  0  0  0  0  0  0  0  0  0  0
    6.0490   19.0220    2.2220 C   0  0  0  0  0  0  0  0  0  0  0  0
    4.2870   19.3240    4.0340 C   0  0  0  0  0  0  0  0  0  0  0  0
    0.9180   16.2130   -1.4370 C   0  0  1  0  0  0  0  0  0  0  0  0
    0.6910   16.3610   -2.9650 C   0  0  0  0  0  0  0  0  0  0  0  0
    0.9270   14.9620   -3.5900 C   0  0  0  0  0  0  0  0  0  0  0  0
    0.9530   13.9950   -2.3830 C   0  0  1  0  0  0  0  0  0  0  0  0
   -0.5480   13.7310   -2.0470 C   0  0  0  0  0  0  0  0  0  0  0  0
    1.7430   12.6610   -2.5840 C   0  0  2  0  0  0  0  0  0  0  0  0
    1.1920   11.7350   -3.6820 C   0  0  0  0  0  0  0  0  0  0  0  0
    0.1780   10.7390   -3.2260 C   0  0  0  0  0  0  0  0  0  0  0  0
   -0.0650   10.3990   -1.9460 C   0  0  0  0  0  0  0  0  0  0  0  0
    0.7880   10.9680   -0.8050 C   0  0  1  0  0  0  0  0  0  0  0  0
    1.1960    9.8230    0.1580 C   0  0  0  0  0  0  0  0  0  0  0  0
   -0.0040    9.0300    0.6660 C   0  0  0  0  0  0  0  0  0  0  0  0
   -0.7930    8.4310   -0.4960 C   0  0  2  0  0  0  0  0  0  0  0  0
    0.0140    7.4410   -1.1400 O   0  0  0  0  0  0  0  0  0  0  0  0
   -1.2500    9.4910   -1.5370 C   0  0  0  0  0  0  0  0  0  0  0  0
   -2.3560   10.3830   -0.9210 C   0  0  0  0  0  0  0  0  0  0  0  0
   -1.9100    8.7390   -2.7250 C   0  0  0  0  0  0  0  0  0  0  0  0
    2.0240   11.8660   -1.2440 C   0  0  1  0  0  0  0  0  0  0  0  0
    3.2670   10.9650   -1.5130 C   0  0  0  0  0  0  0  0  0  0  0  0
    2.4150   12.8190   -0.0540 C   0  0  0  0  0  0  0  0  0  0  0  0
    1.6850   14.1740    0.0210 C   0  0  0  0  0  0  0  0  0  0  0  0
    1.7120   14.8870   -1.3340 C   0  0  2  0  0  0  0  0  0  0  0  0
    3.2090   15.1860   -1.6870 C   0  0  0  0  0  0  0  0  0  0  0  0
    2.1171   19.4471   -1.4322 H   0  0  0  0  0  0  0  0  0  0  0  0
    2.6760   18.1377   -2.5275 H   0  0  0  0  0  0  0  0  0  0  0  0
    0.9493   18.6327   -2.5275 H   0  0  0  0  0  0  0  0  0  0  0  0
    0.8401   17.9126   -0.1063 H   0  0  0  0  0  0  0  0  0  0  0  0
    2.4975   16.6323    0.9384 H   0  0  0  0  0  0  0  0  0  0  0  0
    3.3707   16.3516   -0.6437 H   0  0  0  0  0  0  0  0  0  0  0  0
    4.7878   17.8917    0.2101 H   0  0  0  0  0  0  0  0  0  0  0  0
    3.5578   19.0218   -0.4944 H   0  0  0  0  0  0  0  0  0  0  0  0
    2.5910   18.2278    1.7392 H   0  0  0  0  0  0  0  0  0  0  0  0
    6.6450   18.9405    3.1430 H   0  0  0  0  0  0  0  0  0  0  0  0
    6.1588   18.1005    1.6314 H   0  0  0  0  0  0  0  0  0  0  0  0
    6.4021   19.8802    1.6314 H   0  0  0  0  0  0  0  0  0  0  0  0
    5.1686   19.0356    4.6252 H   0  0  0  0  0  0  0  0  0  0  0  0
    4.0074   20.3604    4.2742 H   0  0  0  0  0  0  0  0  0  0  0  0
    3.4490   18.6531    4.2742 H   0  0  0  0  0  0  0  0  0  0  0  0
   -0.0004   16.1492   -0.8350 H   0  0  0  0  0  0  0  0  0  0  0  0
   -0.3375   16.6963   -3.1644 H   0  0  0  0  0  0  0  0  0  0  0  0
    1.3758   17.1065   -3.3956 H   0  0  0  0  0  0  0  0  0  0  0  0
    0.1099   14.7015   -4.2788 H   0  0  0  0  0  0  0  0  0  0  0  0
    1.8551   14.9193   -4.1789 H   0  0  0  0  0  0  0  0  0  0  0  0
   -0.6807   13.7077   -0.9553 H   0  0  0  0  0  0  0  0  0  0  0  0
   -1.1662   14.5342   -2.4744 H   0  0  0  0  0  0  0  0  0  0  0  0
   -0.8550   12.7651   -2.4744 H   0  0  0  0  0  0  0  0  0  0  0  0
    2.7158   13.0166   -2.9544 H   0  0  0  0  0  0  0  0  0  0  0  0
    0.7269   12.3640   -4.4554 H   0  0  0  0  0  0  0  0  0  0  0  0
    2.0499   11.1510   -4.0466 H   0  0  0  0  0  0  0  0  0  0  0  0
   -0.4218   10.2404   -4.0017 H   0  0  0  0  0  0  0  0  0  0  0  0
    0.1464   11.6887   -0.2768 H   0  0  0  0  0  0  0  0  0  0  0  0
    1.8713    9.1377   -0.3752 H   0  0  0  0  0  0  0  0  0  0  0  0
    1.6877   10.2794    1.0297 H   0  0  0  0  0  0  0  0  0  0  0  0
    0.3508    8.2175    1.3171 H   0  0  0  0  0  0  0  0  0  0  0  0
   -0.6635    9.7102    1.2249 H   0  0  0  0  0  0  0  0  0  0  0  0
   -1.7084    7.9865   -0.0784 H   0  0  0  0  0  0  0  0  0  0  0  0
    0.9000    7.4790   -0.7420 H   0  0  0  0  0  0  0  0  0  0  0  0
   -2.2968   10.3352    0.1764 H   0  0  0  0  0  0  0  0  0  0  0  0
   -2.2146   11.4228   -1.2509 H   0  0  0  0  0  0  0  0  0  0  0  0
   -3.3422   10.0246   -1.2509 H   0  0  0  0  0  0  0  0  0  0  0  0
   -2.5891    7.9653   -2.3374 H   0  0  0  0  0  0  0  0  0  0  0  0
   -2.4792    9.4520   -3.3395 H   0  0  0  0  0  0  0  0  0  0  0  0
   -1.1292    8.2671   -3.3395 H   0  0  0  0  0  0  0  0  0  0  0  0
    3.7043   10.6480   -0.5548 H   0  0  0  0  0  0  0  0  0  0  0  0
    2.9598   10.0784   -2.0870 H   0  0  0  0  0  0  0  0  0  0  0  0
    4.0141   11.5328   -2.0870 H   0  0  0  0  0  0  0  0  0  0  0  0
    2.2133   12.2802    0.8836 H   0  0  0  0  0  0  0  0  0  0  0  0
    3.4723   13.0712   -0.2232 H   0  0  0  0  0  0  0  0  0  0  0  0
    0.6394   14.0035    0.3171 H   0  0  0  0  0  0  0  0  0  0  0  0
    2.1964   14.8074    0.7608 H   0  0  0  0  0  0  0  0  0  0  0  0
    3.7884   15.3017   -0.7592 H   0  0  0  0  0  0  0  0  0  0  0  0
    3.6207   14.3523   -2.2748 H   0  0  0  0  0  0  0  0  0  0  0  0
    3.2688   16.1138   -2.2748 H   0  0  0  0  0  0  0  0  0  0  0  0
  1  2  1  0
  2  3  1  0
  3  4  1  0
  4  5  1  0
  5  6  1  0
  6  7  1  0
  7  8  1  0
  7  9  1  0
  2 10  1  0
 10 11  1  0
 11 12  1  0
 12 13  1  0
 13 14  1  1
 13 15  1  0
 15 16  1  0
 16 17  1  0
 17 18  2  0
 18 19  1  0
 19 20  1  0
 20 21  1  0
 21 22  1  0
 22 23  1  0
 22 24  1  0
 24 25  1  0
 24 26  1  0
 19 27  1  0
 27 28  1  6
 27 29  1  0
 29 30  1  0
 30 31  1  0
 31 32  1  6
  7  5  1  0
 31 10  1  0
 31 13  1  0
 27 15  1  0
 24 18  1  0
  1 33  1  0
  1 34  1  0
  1 35  1  0
  2 36  1  1
  3 37  1  0
  3 38  1  0
  4 39  1  0
  4 40  1  0
  5 41  1  1
  8 42  1  0
  8 43  1  0
  8 44  1  0
  9 45  1  0
  9 46  1  0
  9 47  1  0
 10 48  1  1
 11 49  1  0
 11 50  1  0
 12 51  1  0
 12 52  1  0
 14 53  1  0
 14 54  1  0
 14 55  1  0
 15 56  1  6
 16 57  1  0
 16 58  1  0
 17 59  1  0
 19 60  1  1
 20 61  1  0
 20 62  1  0
 21 63  1  0
 21 64  1  0
 22 65  1  1
 23 66  1  0
 25 67  1  0
 25 68  1  0
 25 69  1  0
 26 70  1  0
 26 71  1  0
 26 72  1  0
 28 73  1  0
 28 74  1  0
 28 75  1  0
 29 76  1  0
 29 77  1  0
 30 78  1  0
 30 79  1  0
 32 80  1  0
 32 81  1  0
 32 82  1  0
M  END
>  <meeko>  (3) 
{"is_sidechain": [false], "intermolecular_energy": 2.731, "internal_energy": -0.839}

$$$$
EPH_relaxed_0001_pdb2pqr_Repair_354_r2_0001_out
     RDKit          3D

 82 86  0  0  0  0  0  0  0  0999 V2000
    3.6760   18.0310    0.7040 C   0  0  0  0  0  0  0  0  0  0  0  0
    2.7410   18.5040   -0.4120 C   0  0  2  0  0  0  0  0  0  0  0  0
    2.0280   19.8230   -0.0520 C   0  0  0  0  0  0  0  0  0  0  0  0
    0.9010   19.6550    0.9700 C   0  0  0  0  0  0  0  0  0  0  0  0
   -0.3990   20.1940    0.4560 C   0  0  2  0  0  0  0  0  0  0  0  0
   -1.4680   20.1930    1.4120 O   0  0  0  0  0  0  0  0  0  0  0  0
   -1.6410   19.3430    0.2670 C   0  0  0  0  0  0  0  0  0  0  0  0
   -1.6420   17.8810    0.5900 C   0  0  0  0  0  0  0  0  0  0  0  0
   -2.6970   19.8180   -0.6830 C   0  0  0  0  0  0  0  0  0  0  0  0
    1.7110   17.4230   -0.7210 C   0  0  1  0  0  0  0  0  0  0  0  0
    0.7650   17.8150   -1.8870 C   0  0  0  0  0  0  0  0  0  0  0  0
    0.4450   16.5100   -2.6610 C   0  0  0  0  0  0  0  0  0  0  0  0
    0.9390   15.3760   -1.7330 C   0  0  1  0  0  0  0  0  0  0  0  0
   -0.2050   15.1850   -0.6880 C   0  0  0  0  0  0  0  0  0  0  0  0
    1.3150   14.0280   -2.4310 C   0  0  2  0  0  0  0  0  0  0  0  0
    0.1550   13.3230   -3.1550 C   0  0  0  0  0  0  0  0  0  0  0  0
   -0.6210   12.3530   -2.3260 C   0  0  0  0  0  0  0  0  0  0  0  0
   -0.2270   11.8470   -1.1420 C   0  0  0  0  0  0  0  0  0  0  0  0
    1.1580   12.1700   -0.5690 C   0  0  1  0  0  0  0  0  0  0  0  0
    1.8270   10.8650   -0.0630 C   0  0  0  0  0  0  0  0  0  0  0  0
    0.9490   10.1030    0.9260 C   0  0  0  0  0  0  0  0  0  0  0  0
   -0.3970    9.7490    0.2990 C   0  0  2  0  0  0  0  0  0  0  0  0
   -0.1820    8.8050   -0.7540 O   0  0  0  0  0  0  0  0  0  0  0  0
   -1.1590   10.9850   -0.2550 C   0  0  0  0  0  0  0  0  0  0  0  0
   -1.6570   11.8610    0.9220 C   0  0  0  0  0  0  0  0  0  0  0  0
   -2.4310   10.4750   -0.9840 C   0  0  0  0  0  0  0  0  0  0  0  0
    2.1160   13.0220   -1.5080 C   0  0  1  0  0  0  0  0  0  0  0  0
    2.9050   12.0740   -2.4630 C   0  0  0  0  0  0  0  0  0  0  0  0
    3.1910   13.7520   -0.6200 C   0  0  0  0  0  0  0  0  0  0  0  0
    2.8060   15.1340   -0.0580 C   0  0  0  0  0  0  0  0  0  0  0  0
    2.2450   16.0370   -1.1610 C   0  0  2  0  0  0  0  0  0  0  0  0
    3.3810   16.2650   -2.2160 C   0  0  0  0  0  0  0  0  0  0  0  0
    3.2253   18.2590    1.6812 H   0  0  0  0  0  0  0  0  0  0  0  0
    3.8318   16.9456    0.6164 H   0  0  0  0  0  0  0  0  0  0  0  0
    4.6427   18.5485    0.6164 H   0  0  0  0  0  0  0  0  0  0  0  0
    3.3585   18.6944   -1.3022 H   0  0  0  0  0  0  0  0  0  0  0  0
    2.7726   20.5179    0.3634 H   0  0  0  0  0  0  0  0  0  0  0  0
    1.5690   20.2027   -0.9767 H   0  0  0  0  0  0  0  0  0  0  0  0
    0.7795   18.5849    1.1938 H   0  0  0  0  0  0  0  0  0  0  0  0
    1.1720   20.2190    1.8747 H   0  0  0  0  0  0  0  0  0  0  0  0
    0.1274   20.8905   -0.2132 H   0  0  0  0  0  0  0  0  0  0  0  0
   -1.6421   17.7467    1.6818 H   0  0  0  0  0  0  0  0  0  0  0  0
   -2.5405   17.4117    0.1628 H   0  0  0  0  0  0  0  0  0  0  0  0
   -0.7442   17.4105    0.1628 H   0  0  0  0  0  0  0  0  0  0  0  0
   -3.5554   20.2041   -0.1138 H   0  0  0  0  0  0  0  0  0  0  0  0
   -2.2871   20.6185   -1.3165 H   0  0  0  0  0  0  0  0  0  0  0  0
   -3.0240   18.9803   -1.3165 H   0  0  0  0  0  0  0  0  0  0  0  0
    1.2258   17.3440    0.2630 H   0  0  0  0  0  0  0  0  0  0  0  0
   -0.1610   18.2575   -1.4912 H   0  0  0  0  0  0  0  0  0  0  0  0
    1.2368   18.5593   -2.5454 H   0  0  0  0  0  0  0  0  0  0  0  0
   -0.6364   16.4208   -2.8417 H   0  0  0  0  0  0  0  0  0  0  0  0
    0.9281   16.4814   -3.6488 H   0  0  0  0  0  0  0  0  0  0  0  0
    0.2110   15.2545    0.3279 H   0  0  0  0  0  0  0  0  0  0  0  0
   -0.9640   15.9689   -0.8278 H   0  0  0  0  0  0  0  0  0  0  0  0
   -0.6681   14.1971   -0.8278 H   0  0  0  0  0  0  0  0  0  0  0  0
    2.0060   14.3560   -3.2216 H   0  0  0  0  0  0  0  0  0  0  0  0
   -0.5408   14.0956   -3.5141 H   0  0  0  0  0  0  0  0  0  0  0  0
    0.6144   12.7332   -3.9619 H   0  0  0  0  0  0  0  0  0  0  0  0
   -1.5960   12.0244   -2.7152 H   0  0  0  0  0  0  0  0  0  0  0  0
    0.9849   12.8526    0.2760 H   0  0  0  0  0  0  0  0  0  0  0  0
    2.0308   10.2153   -0.9269 H   0  0  0  0  0  0  0  0  0  0  0  0
    2.7532   11.1455    0.4599 H   0  0  0  0  0  0  0  0  0  0  0  0
    1.4623    9.1768    1.2239 H   0  0  0  0  0  0  0  0  0  0  0  0
    0.7708   10.7426    1.8030 H   0  0  0  0  0  0  0  0  0  0  0  0
   -1.0275    9.3215    1.0926 H   0  0  0  0  0  0  0  0  0  0  0  0
   -0.4190    7.9250   -0.4140 H   0  0  0  0  0  0  0  0  0  0  0  0
   -1.3855   11.3834    1.8750 H   0  0  0  0  0  0  0  0  0  0  0  0
   -1.1887   12.8546    0.8633 H   0  0  0  0  0  0  0  0  0  0  0  0
   -2.7503   11.9669    0.8633 H   0  0  0  0  0  0  0  0  0  0  0  0
   -3.1835   10.1733   -0.2406 H   0  0  0  0  0  0  0  0  0  0  0  0
   -2.8397   11.2788   -1.6140 H   0  0  0  0  0  0  0  0  0  0  0  0
   -2.1712    9.6115   -1.6140 H   0  0  0  0  0  0  0  0  0  0  0  0
    3.4966   11.3631   -1.8675 H   0  0  0  0  0  0  0  0  0  0  0  0
    2.1970   11.5206   -3.0975 H   0  0  0  0  0  0  0  0  0  0  0  0
    3.5777   12.6697   -3.0975 H   0  0  0  0  0  0  0  0  0  0  0  0
    3.4175   13.0968    0.2341 H   0  0  0  0  0  0  0  0  0  0  0  0
    4.0397   13.9417   -1.2936 H   0  0  0  0  0  0  0  0  0  0  0  0
    2.0433   15.0048    0.7240 H   0  0  0  0  0  0  0  0  0  0  0  0
    3.7076   15.6072    0.3582 H   0  0  0  0  0  0  0  0  0  0  0  0
    4.3314   16.4557   -1.6960 H   0  0  0  0  0  0  0  0  0  0  0  0
    3.4813   15.3691   -2.8463 H   0  0  0  0  0  0  0  0  0  0  0  0
    3.1278   17.1302   -2.8463 H   0  0  0  0  0  0  0  0  0  0  0  0
  1  2  1  0
  2  3  1  0
  3  4  1  0
  4  5  1  0
  5  6  1  0
  6  7  1  0
  7  8  1  0
  7  9  1  0
  2 10  1  0
 10 11  1  0
 11 12  1  0
 12 13  1  0
 13 14  1  1
 13 15  1  0
 15 16  1  0
 16 17  1  0
 17 18  2  0
 18 19  1  0
 19 20  1  0
 20 21  1  0
 21 22  1  0
 22 23  1  0
 22 24  1  0
 24 25  1  0
 24 26  1  0
 19 27  1  0
 27 28  1  6
 27 29  1  0
 29 30  1  0
 30 31  1  0
 31 32  1  6
  7  5  1  0
 31 10  1  0
 31 13  1  0
 27 15  1  0
 24 18  1  0
  1 33  1  0
  1 34  1  0
  1 35  1  0
  2 36  1  6
  3 37  1  0
  3 38  1  0
  4 39  1  0
  4 40  1  0
  5 41  1  6
  8 42  1  0
  8 43  1  0
  8 44  1  0
  9 45  1  0
  9 46  1  0
  9 47  1  0
 10 48  1  1
 11 49  1  0
 11 50  1  0
 12 51  1  0
 12 52  1  0
 14 53  1  0
 14 54  1  0
 14 55  1  0
 15 56  1  6
 16 57  1  0
 16 58  1  0
 17 59  1  0
 19 60  1  1
 20 61  1  0
 20 62  1  0
 21 63  1  0
 21 64  1  0
 22 65  1  1
 23 66  1  0
 25 67  1  0
 25 68  1  0
 25 69  1  0
 26 70  1  0
 26 71  1  0
 26 72  1  0
 28 73  1  0
 28 74  1  0
 28 75  1  0
 29 76  1  0
 29 77  1  0
 30 78  1  0
 30 79  1  0
 32 80  1  0
 32 81  1  0
 32 82  1  0
M  END
>  <meeko>  (4) 
{"is_sidechain": [false], "intermolecular_energy": 2.731, "internal_energy": -0.839}

$$$$
EPH_relaxed_0001_pdb2pqr_Repair_354_r2_0001_out
     RDKit          3D

 82 86  0  0  0  0  0  0  0  0999 V2000
    2.4870   17.9770   -2.6600 C   0  0  0  0  0  0  0  0  0  0  0  0
    1.1430   17.6650   -1.9960 C   0  0  2  0  0  0  0  0  0  0  0  0
    1.2190   17.7560   -0.4590 C   0  0  0  0  0  0  0  0  0  0  0  0
    0.8830   19.1440    0.0930 C   0  0  0  0  0  0  0  0  0  0  0  0
   -0.5470   19.2340    0.5330 C   0  0  2  0  0  0  0  0  0  0  0  0
   -1.4240   18.2830   -0.0840 O   0  0  0  0  0  0  0  0  0  0  0  0
   -1.6780   19.6660   -0.3810 C   0  0  0  0  0  0  0  0  0  0  0  0
   -1.4280   20.0380   -1.8090 C   0  0  0  0  0  0  0  0  0  0  0  0
   -2.9350   20.1940    0.2370 C   0  0  0  0  0  0  0  0  0  0  0  0
    0.6670   16.2780   -2.4130 C   0  0  1  0  0  0  0  0  0  0  0  0
    0.7310   16.0610   -3.9480 C   0  0  0  0  0  0  0  0  0  0  0  0
    1.1060   14.5740   -4.1750 C   0  0  0  0  0  0  0  0  0  0  0  0
    0.9210   13.9100   -2.7900 C   0  0  1  0  0  0  0  0  0  0  0  0
   -0.6110   13.6360   -2.6780 C   0  0  0  0  0  0  0  0  0  0  0  0
    1.7590   12.6160   -2.5270 C   0  0  2  0  0  0  0  0  0  0  0  0
    1.4430   11.4330   -3.4580 C   0  0  0  0  0  0  0  0  0  0  0  0
    0.3790   10.5050   -2.9720 C   0  0  0  0  0  0  0  0  0  0  0  0
   -0.0960   10.4500   -1.7140 C   0  0  0  0  0  0  0  0  0  0  0  0
    0.5150   11.3150   -0.6030 C   0  0  1  0  0  0  0  0  0  0  0  0
    0.7540   10.4450    0.6580 C   0  0  0  0  0  0  0  0  0  0  0  0
   -0.5060    9.7150    1.1130 C   0  0  0  0  0  0  0  0  0  0  0  0
   -1.0500    8.8210    0.0020 C   0  0  2  0  0  0  0  0  0  0  0  0
   -0.1170    7.7620   -0.2360 O   0  0  0  0  0  0  0  0  0  0  0  0
   -1.3200    9.5870   -1.3240 C   0  0  0  0  0  0  0  0  0  0  0  0
   -2.5390   10.5260   -1.1430 C   0  0  0  0  0  0  0  0  0  0  0  0
   -1.7300    8.5470   -2.4010 C   0  0  0  0  0  0  0  0  0  0  0  0
    1.7950   12.1650   -1.0110 C   0  0  1  0  0  0  0  0  0  0  0  0
    3.0830   11.3040   -0.8330 C   0  0  0  0  0  0  0  0  0  0  0  0
    1.9360   13.3850   -0.0260 C   0  0  0  0  0  0  0  0  0  0  0  0
    1.1810   14.6730   -0.4030 C   0  0  0  0  0  0  0  0  0  0  0  0
    1.4510   15.0610   -1.8600 C   0  0  2  0  0  0  0  0  0  0  0  0
    2.9820   15.3640   -1.9990 C   0  0  0  0  0  0  0  0  0  0  0  0
    3.2469   18.1534   -1.8845 H   0  0  0  0  0  0  0  0  0  0  0  0
    2.7929   17.1260   -3.2863 H   0  0  0  0  0  0  0  0  0  0  0  0
    2.3867   18.8757   -3.2863 H   0  0  0  0  0  0  0  0  0  0  0  0
    0.4223   18.4234   -2.3358 H   0  0  0  0  0  0  0  0  0  0  0  0
    0.5093   17.0317   -0.0328 H   0  0  0  0  0  0  0  0  0  0  0  0
    2.2598   17.5407   -0.1754 H   0  0  0  0  0  0  0  0  0  0  0  0
    1.5348   19.3526    0.9542 H   0  0  0  0  0  0  0  0  0  0  0  0
    1.0421   19.8799   -0.7090 H   0  0  0  0  0  0  0  0  0  0  0  0
   -0.2419   19.5659    1.5364 H   0  0  0  0  0  0  0  0  0  0  0  0
   -0.8148   20.9504   -1.8483 H   0  0  0  0  0  0  0  0  0  0  0  0
   -0.8973   19.2175   -2.3141 H   0  0  0  0  0  0  0  0  0  0  0  0
   -2.3882   20.2195   -2.3141 H   0  0  0  0  0  0  0  0  0  0  0  0
   -2.8481   20.1575    1.3330 H   0  0  0  0  0  0  0  0  0  0  0  0
   -3.0925   21.2343   -0.0839 H   0  0  0  0  0  0  0  0  0  0  0  0
   -3.7881   19.5782   -0.0839 H   0  0  0  0  0  0  0  0  0  0  0  0
   -0.3479   16.2962   -1.9891 H   0  0  0  0  0  0  0  0  0  0  0  0
   -0.2469   16.2785   -4.4023 H   0  0  0  0  0  0  0  0  0  0  0  0
    1.4717   16.7299   -4.4106 H   0  0  0  0  0  0  0  0  0  0  0  0
    0.4384   14.1142   -4.9186 H   0  0  0  0  0  0  0  0  0  0  0  0
    2.1291   14.4557   -4.5614 H   0  0  0  0  0  0  0  0  0  0  0  0
   -0.8977   13.5847   -1.6173 H   0  0  0  0  0  0  0  0  0  0  0  0
   -1.1658   14.4492   -3.1689 H   0  0  0  0  0  0  0  0  0  0  0  0
   -0.8495   12.6809   -3.1689 H   0  0  0  0  0  0  0  0  0  0  0  0
    2.7778   12.9375   -2.7891 H   0  0  0  0  0  0  0  0  0  0  0  0
    1.1216   11.8403   -4.4279 H   0  0  0  0  0  0  0  0  0  0  0  0
    2.3650   10.8357   -3.5145 H   0  0  0  0  0  0  0  0  0  0  0  0
   -0.0532    9.8072   -3.7042 H   0  0  0  0  0  0  0  0  0  0  0  0
   -0.2276   12.0957   -0.3817 H   0  0  0  0  0  0  0  0  0  0  0  0
    1.5304    9.6998    0.4302 H   0  0  0  0  0  0  0  0  0  0  0  0
    1.0634   11.1162    1.4727 H   0  0  0  0  0  0  0  0  0  0  0  0
   -0.2661    9.0947    1.9892 H   0  0  0  0  0  0  0  0  0  0  0  0
   -1.2716   10.4623    1.3687 H   0  0  0  0  0  0  0  0  0  0  0  0
   -2.0200    8.4277    0.3403 H   0  0  0  0  0  0  0  0  0  0  0  0
   -0.3120    7.3900   -1.1120 H   0  0  0  0  0  0  0  0  0  0  0  0
   -2.7315   10.6743   -0.0702 H   0  0  0  0  0  0  0  0  0  0  0  0
   -2.3274   11.4967   -1.6152 H   0  0  0  0  0  0  0  0  0  0  0  0
   -3.4236   10.0737   -1.6152 H   0  0  0  0  0  0  0  0  0  0  0  0
   -2.0907    7.6319   -1.9085 H   0  0  0  0  0  0  0  0  0  0  0  0
   -2.5305    8.9654   -3.0288 H   0  0  0  0  0  0  0  0  0  0  0  0
   -0.8593    8.3066   -3.0288 H   0  0  0  0  0  0  0  0  0  0  0  0
    3.2874   11.1673    0.2392 H   0  0  0  0  0  0  0  0  0  0  0  0
    2.9359   10.3220   -1.3063 H   0  0  0  0  0  0  0  0  0  0  0  0
    3.9342   11.8153   -1.3063 H   0  0  0  0  0  0  0  0  0  0  0  0
    1.5699   13.0611    0.9594 H   0  0  0  0  0  0  0  0  0  0  0  0
    3.0014   13.6570   -0.0556 H   0  0  0  0  0  0  0  0  0  0  0  0
    0.1016   14.5097   -0.2683 H   0  0  0  0  0  0  0  0  0  0  0  0
    1.5316   15.4879    0.2474 H   0  0  0  0  0  0  0  0  0  0  0  0
    3.4305   15.4528   -0.9985 H   0  0  0  0  0  0  0  0  0  0  0  0
    3.4695   14.5449   -2.5480 H   0  0  0  0  0  0  0  0  0  0  0  0
    3.1208   16.3070   -2.5480 H   0  0  0  0  0  0  0  0  0  0  0  0
  1  2  1  0
  2  3  1  0
  3  4  1  0
  4  5  1  0
  5  6  1  0
  6  7  1  0
  7  8  1  0
  7  9  1  0
  2 10  1  0
 10 11  1  0
 11 12  1  0
 12 13  1  0
 13 14  1  1
 13 15  1  0
 15 16  1  0
 16 17  1  0
 17 18  2  0
 18 19  1  0
 19 20  1  0
 20 21  1  0
 21 22  1  0
 22 23  1  0
 22 24  1  0
 24 25  1  0
 24 26  1  0
 19 27  1  0
 27 28  1  6
 27 29  1  0
 29 30  1  0
 30 31  1  0
 31 32  1  1
  7  5  1  0
 31 10  1  0
 31 13  1  0
 27 15  1  0
 24 18  1  0
  1 33  1  0
  1 34  1  0
  1 35  1  0
  2 36  1  6
  3 37  1  0
  3 38  1  0
  4 39  1  0
  4 40  1  0
  5 41  1  1
  8 42  1  0
  8 43  1  0
  8 44  1  0
  9 45  1  0
  9 46  1  0
  9 47  1  0
 10 48  1  1
 11 49  1  0
 11 50  1  0
 12 51  1  0
 12 52  1  0
 14 53  1  0
 14 54  1  0
 14 55  1  0
 15 56  1  6
 16 57  1  0
 16 58  1  0
 17 59  1  0
 19 60  1  1
 20 61  1  0
 20 62  1  0
 21 63  1  0
 21 64  1  0
 22 65  1  1
 23 66  1  0
 25 67  1  0
 25 68  1  0
 25 69  1  0
 26 70  1  0
 26 71  1  0
 26 72  1  0
 28 73  1  0
 28 74  1  0
 28 75  1  0
 29 76  1  0
 29 77  1  0
 30 78  1  0
 30 79  1  0
 32 80  1  0
 32 81  1  0
 32 82  1  0
M  END
>  <meeko>  (5) 
{"is_sidechain": [false], "intermolecular_energy": 2.731, "internal_energy": -0.839}

$$$$
EPH_relaxed_0001_pdb2pqr_Repair_354_r2_0001_out
     RDKit          3D

 82 86  0  0  0  0  0  0  0  0999 V2000
   -1.5170    8.6070   -2.0260 C   0  0  0  0  0  0  0  0  0  0  0  0
   -1.6510    8.9280   -0.5350 C   0  0  2  0  0  0  0  0  0  0  0  0
   -3.1210    9.1250   -0.1130 C   0  0  0  0  0  0  0  0  0  0  0  0
   -3.3030   10.1110    1.0440 C   0  0  0  0  0  0  0  0  0  0  0  0
   -4.4780   11.0140    0.8230 C   0  0  2  0  0  0  0  0  0  0  0  0
   -4.9430   11.0720   -0.5320 O   0  0  0  0  0  0  0  0  0  0  0  0
   -4.4100   12.2920    0.0070 C   0  0  0  0  0  0  0  0  0  0  0  0
   -3.1360   12.7380   -0.6390 C   0  0  0  0  0  0  0  0  0  0  0  0
   -5.4440   13.3490    0.2450 C   0  0  0  0  0  0  0  0  0  0  0  0
   -0.8410   10.1740   -0.1970 C   0  0  1  0  0  0  0  0  0  0  0  0
    0.2460    9.9060    0.8780 C   0  0  0  0  0  0  0  0  0  0  0  0
    1.4600   10.8020    0.5190 C   0  0  0  0  0  0  0  0  0  0  0  0
    0.9160   11.7900   -0.5400 C   0  0  1  0  0  0  0  0  0  0  0  0
    0.1830   12.8960    0.2820 C   0  0  0  0  0  0  0  0  0  0  0  0
    1.9700   12.4020   -1.5190 C   0  0  2  0  0  0  0  0  0  0  0  0
    3.0570   13.2640   -0.8530 C   0  0  0  0  0  0  0  0  0  0  0  0
    2.7360   14.7170   -0.7360 C   0  0  0  0  0  0  0  0  0  0  0  0
    1.7540   15.3560   -1.3990 C   0  0  0  0  0  0  0  0  0  0  0  0
    0.9050   14.6260   -2.4470 C   0  0  1  0  0  0  0  0  0  0  0  0
    0.7860   15.5040   -3.7200 C   0  0  0  0  0  0  0  0  0  0  0  0
    0.2610   16.9040   -3.4180 C   0  0  0  0  0  0  0  0  0  0  0  0
    1.1630   17.6200   -2.4160 C   0  0  2  0  0  0  0  0  0  0  0  0
    2.4320   17.8630   -3.0310 O   0  0  0  0  0  0  0  0  0  0  0  0
    1.3660   16.8250   -1.0960 C   0  0  0  0  0  0  0  0  0  0  0  0
    0.0470   16.8210   -0.2830 C   0  0  0  0  0  0  0  0  0  0  0  0
    2.4060   17.5890   -0.2330 C   0  0  0  0  0  0  0  0  0  0  0  0
    1.3420   13.1330   -2.7740 C   0  0  1  0  0  0  0  0  0  0  0  0
    2.4350   13.1300   -3.8850 C   0  0  0  0  0  0  0  0  0  0  0  0
    0.1070   12.3540   -3.3640 C   0  0  0  0  0  0  0  0  0  0  0  0
   -0.8310   11.6700   -2.3510 C   0  0  0  0  0  0  0  0  0  0  0  0
   -0.0360   10.8320   -1.3450 C   0  0  2  0  0  0  0  0  0  0  0  0
    0.6960    9.6970   -2.1410 C   0  0  0  0  0  0  0  0  0  0  0  0
   -1.0958    7.5981   -2.1475 H   0  0  0  0  0  0  0  0  0  0  0  0
   -2.5083    8.6501   -2.5009 H   0  0  0  0  0  0  0  0  0  0  0  0
   -0.8506    9.3421   -2.5009 H   0  0  0  0  0  0  0  0  0  0  0  0
   -1.2594    8.0663    0.0254 H   0  0  0  0  0  0  0  0  0  0  0  0
   -3.6839    9.5000   -0.9805 H   0  0  0  0  0  0  0  0  0  0  0  0
   -3.4885    8.1488    0.2362 H   0  0  0  0  0  0  0  0  0  0  0  0
   -3.4587    9.5445    1.9740 H   0  0  0  0  0  0  0  0  0  0  0  0
   -2.3989   10.7343    1.1087 H   0  0  0  0  0  0  0  0  0  0  0  0
   -4.8597   10.8024    1.8327 H   0  0  0  0  0  0  0  0  0  0  0  0
   -2.4013   12.9952    0.1382 H   0  0  0  0  0  0  0  0  0  0  0  0
   -2.7384   11.9256   -1.2650 H   0  0  0  0  0  0  0  0  0  0  0  0
   -3.3319   13.6210   -1.2650 H   0  0  0  0  0  0  0  0  0  0  0  0
   -5.5819   13.4900    1.3272 H   0  0  0  0  0  0  0  0  0  0  0  0
   -5.1127   14.2947   -0.2087 H   0  0  0  0  0  0  0  0  0  0  0  0
   -6.3968   13.0386   -0.2087 H   0  0  0  0  0  0  0  0  0  0  0  0
   -1.6545   10.8419    0.1224 H   0  0  0  0  0  0  0  0  0  0  0  0
   -0.1357   10.1671    1.8761 H   0  0  0  0  0  0  0  0  0  0  0  0
    0.5306    8.8436    0.8960 H   0  0  0  0  0  0  0  0  0  0  0  0
    1.8192   11.3432    1.4067 H   0  0  0  0  0  0  0  0  0  0  0  0
    2.3136   10.2177    0.1449 H   0  0  0  0  0  0  0  0  0  0  0  0
    0.3125   12.7005    1.3567 H   0  0  0  0  0  0  0  0  0  0  0  0
    0.6086   13.8796    0.0343 H   0  0  0  0  0  0  0  0  0  0  0  0
   -0.8887   12.8873    0.0343 H   0  0  0  0  0  0  0  0  0  0  0  0
    2.4873   11.5075   -1.8961 H   0  0  0  0  0  0  0  0  0  0  0  0
    3.2289   12.8713    0.1600 H   0  0  0  0  0  0  0  0  0  0  0  0
    3.9395   13.1991   -1.5064 H   0  0  0  0  0  0  0  0  0  0  0  0
    3.3537   15.3159   -0.0505 H   0  0  0  0  0  0  0  0  0  0  0  0
   -0.0880   14.4901   -1.9938 H   0  0  0  0  0  0  0  0  0  0  0  0
    1.7805   15.5923   -4.1817 H   0  0  0  0  0  0  0  0  0  0  0  0
    0.0678   15.0167   -4.3958 H   0  0  0  0  0  0  0  0  0  0  0  0
    0.2273   17.4850   -4.3514 H   0  0  0  0  0  0  0  0  0  0  0  0
   -0.7458   16.8155   -2.9837 H   0  0  0  0  0  0  0  0  0  0  0  0
    0.6671   18.5625   -2.1406 H   0  0  0  0  0  0  0  0  0  0  0  0
    3.0820   17.2790   -2.6050 H   0  0  0  0  0  0  0  0  0  0  0  0
    0.2790   16.8217    0.7922 H   0  0  0  0  0  0  0  0  0  0  0  0
   -0.5399   17.7174   -0.5320 H   0  0  0  0  0  0  0  0  0  0  0  0
   -0.5345   15.9211   -0.5320 H   0  0  0  0  0  0  0  0  0  0  0  0
    2.1870   17.4281    0.8329 H   0  0  0  0  0  0  0  0  0  0  0  0
    3.4157   17.2163   -0.4602 H   0  0  0  0  0  0  0  0  0  0  0  0
    2.3522   18.6639   -0.4602 H   0  0  0  0  0  0  0  0  0  0  0  0
    3.4314   13.1273   -3.4191 H   0  0  0  0  0  0  0  0  0  0  0  0
    2.3200   12.2322   -4.5100 H   0  0  0  0  0  0  0  0  0  0  0  0
    2.3250   14.0285   -4.5100 H   0  0  0  0  0  0  0  0  0  0  0  0
   -0.4938   13.0715   -3.9421 H   0  0  0  0  0  0  0  0  0  0  0  0
    0.5398   11.5335   -3.9552 H   0  0  0  0  0  0  0  0  0  0  0  0
   -1.3979   12.4409   -1.8084 H   0  0  0  0  0  0  0  0  0  0  0  0
   -1.5133   11.0042   -2.8997 H   0  0  0  0  0  0  0  0  0  0  0  0
    1.1526    8.9890   -1.4337 H   0  0  0  0  0  0  0  0  0  0  0  0
   -0.0303    9.1660   -2.7739 H   0  0  0  0  0  0  0  0  0  0  0  0
    1.4793   10.1396   -2.7739 H   0  0  0  0  0  0  0  0  0  0  0  0
  1  2  1  0
  2  3  1  0
  3  4  1  0
  4  5  1  0
  5  6  1  0
  6  7  1  0
  7  8  1  0
  7  9  1  0
  2 10  1  0
 10 11  1  0
 11 12  1  0
 12 13  1  0
 13 14  1  1
 13 15  1  0
 15 16  1  0
 16 17  1  0
 17 18  2  0
 18 19  1  0
 19 20  1  0
 20 21  1  0
 21 22  1  0
 22 23  1  0
 22 24  1  0
 24 25  1  0
 24 26  1  0
 19 27  1  0
 27 28  1  6
 27 29  1  0
 29 30  1  0
 30 31  1  0
 31 32  1  6
  7  5  1  0
 31 10  1  0
 31 13  1  0
 27 15  1  0
 24 18  1  0
  1 33  1  0
  1 34  1  0
  1 35  1  0
  2 36  1  1
  3 37  1  0
  3 38  1  0
  4 39  1  0
  4 40  1  0
  5 41  1  1
  8 42  1  0
  8 43  1  0
  8 44  1  0
  9 45  1  0
  9 46  1  0
  9 47  1  0
 10 48  1  1
 11 49  1  0
 11 50  1  0
 12 51  1  0
 12 52  1  0
 14 53  1  0
 14 54  1  0
 14 55  1  0
 15 56  1  6
 16 57  1  0
 16 58  1  0
 17 59  1  0
 19 60  1  1
 20 61  1  0
 20 62  1  0
 21 63  1  0
 21 64  1  0
 22 65  1  1
 23 66  1  0
 25 67  1  0
 25 68  1  0
 25 69  1  0
 26 70  1  0
 26 71  1  0
 26 72  1  0
 28 73  1  0
 28 74  1  0
 28 75  1  0
 29 76  1  0
 29 77  1  0
 30 78  1  0
 30 79  1  0
 32 80  1  0
 32 81  1  0
 32 82  1  0
M  END
>  <meeko>  (6) 
{"is_sidechain": [false], "intermolecular_energy": 2.731, "internal_energy": -0.839}

$$$$
EPH_relaxed_0001_pdb2pqr_Repair_354_r2_0001_out
     RDKit          3D

 82 86  0  0  0  0  0  0  0  0999 V2000
   -0.3050   10.5170   -3.8290 C   0  0  0  0  0  0  0  0  0  0  0  0
    0.5760   10.1810   -2.6230 C   0  0  2  0  0  0  0  0  0  0  0  0
    0.0210    8.9930   -1.8110 C   0  0  0  0  0  0  0  0  0  0  0  0
   -1.4150    9.2000   -1.3220 C   0  0  0  0  0  0  0  0  0  0  0  0
   -1.4550    9.6410    0.1100 C   0  0  2  0  0  0  0  0  0  0  0  0
   -2.7710    9.7250    0.6730 O   0  0  0  0  0  0  0  0  0  0  0  0
   -2.0490   10.9620    0.5610 C   0  0  0  0  0  0  0  0  0  0  0  0
   -2.6420   11.9260   -0.4180 C   0  0  0  0  0  0  0  0  0  0  0  0
   -1.6160   11.5280    1.8780 C   0  0  0  0  0  0  0  0  0  0  0  0
    0.7180   11.4050   -1.7260 C   0  0  1  0  0  0  0  0  0  0  0  0
    1.7580   11.1980   -0.5920 C   0  0  0  0  0  0  0  0  0  0  0  0
    2.4490   12.5660   -0.3640 C   0  0  0  0  0  0  0  0  0  0  0  0
    1.5670   13.5810   -1.1280 C   0  0  1  0  0  0  0  0  0  0  0  0
    0.3750   13.8810   -0.1650 C   0  0  0  0  0  0  0  0  0  0  0  0
    2.2730   14.8950   -1.5980 C   0  0  2  0  0  0  0  0  0  0  0  0
    2.8200   15.7830   -0.4670 C   0  0  0  0  0  0  0  0  0  0  0  0
    1.8700   16.8110    0.0520 C   0  0  0  0  0  0  0  0  0  0  0  0
    0.7360   17.2070   -0.5570 C   0  0  0  0  0  0  0  0  0  0  0  0
    0.3600   16.6720   -1.9450 C   0  0  1  0  0  0  0  0  0  0  0  0
   -0.0860   17.8510   -2.8500 C   0  0  0  0  0  0  0  0  0  0  0  0
   -1.2010   18.6810   -2.2220 C   0  0  0  0  0  0  0  0  0  0  0  0
   -0.7680   19.2430   -0.8700 C   0  0  2  0  0  0  0  0  0  0  0  0
    0.2800   20.1940   -1.0810 O   0  0  0  0  0  0  0  0  0  0  0  0
   -0.2880   18.1480    0.1230 C   0  0  0  0  0  0  0  0  0  0  0  0
   -1.4970   17.2980    0.5850 C   0  0  0  0  0  0  0  0  0  0  0  0
    0.2530   18.8600    1.3930 C   0  0  0  0  0  0  0  0  0  0  0  0
    1.4390   15.7400   -2.6450 C   0  0  1  0  0  0  0  0  0  0  0  0
    2.4660   16.6110   -3.4310 C   0  0  0  0  0  0  0  0  0  0  0  0
    0.7200   14.8310   -3.7100 C   0  0  0  0  0  0  0  0  0  0  0  0
    0.1480   13.4910   -3.2080 C   0  0  0  0  0  0  0  0  0  0  0  0
    1.1900   12.7230   -2.3900 C   0  0  2  0  0  0  0  0  0  0  0  0
    2.3910   12.3880   -3.3380 C   0  0  0  0  0  0  0  0  0  0  0  0
   -1.2794   10.8886   -3.4791 H   0  0  0  0  0  0  0  0  0  0  0  0
    0.1857   11.2911   -4.4373 H   0  0  0  0  0  0  0  0  0  0  0  0
   -0.4544    9.6127   -4.4373 H   0  0  0  0  0  0  0  0  0  0  0  0
    1.5635    9.8852   -3.0067 H   0  0  0  0  0  0  0  0  0  0  0  0
    0.0455    8.0958   -2.4470 H   0  0  0  0  0  0  0  0  0  0  0  0
    0.6537    8.8907   -0.9170 H   0  0  0  0  0  0  0  0  0  0  0  0
   -1.8965    9.9681   -1.9451 H   0  0  0  0  0  0  0  0  0  0  0  0
   -1.9455    8.2395   -1.3999 H   0  0  0  0  0  0  0  0  0  0  0  0
   -0.4858    9.1610    0.3106 H   0  0  0  0  0  0  0  0  0  0  0  0
   -3.1428   12.7401    0.1265 H   0  0  0  0  0  0  0  0  0  0  0  0
   -1.8446   12.3438   -1.0501 H   0  0  0  0  0  0  0  0  0  0  0  0
   -3.3745   11.4027   -1.0501 H   0  0  0  0  0  0  0  0  0  0  0  0
   -2.0642   10.9421    2.6940 H   0  0  0  0  0  0  0  0  0  0  0  0
   -0.5195   11.4831    1.9537 H   0  0  0  0  0  0  0  0  0  0  0  0
   -1.9462   12.5745    1.9537 H   0  0  0  0  0  0  0  0  0  0  0  0
   -0.3236   11.5064   -1.3872 H   0  0  0  0  0  0  0  0  0  0  0  0
    1.2539   10.8701    0.3291 H   0  0  0  0  0  0  0  0  0  0  0  0
    2.4919   10.4255   -0.8653 H   0  0  0  0  0  0  0  0  0  0  0  0
    2.4824   12.8103    0.7080 H   0  0  0  0  0  0  0  0  0  0  0  0
    3.4910   12.5708   -0.7164 H   0  0  0  0  0  0  0  0  0  0  0  0
    0.7154   13.7953    0.8775 H   0  0  0  0  0  0  0  0  0  0  0  0
    0.0042   14.9005   -0.3471 H   0  0  0  0  0  0  0  0  0  0  0  0
   -0.4342   13.1585   -0.3471 H   0  0  0  0  0  0  0  0  0  0  0  0
    3.1565   14.5108   -2.1289 H   0  0  0  0  0  0  0  0  0  0  0  0
    3.1049   15.1296    0.3708 H   0  0  0  0  0  0  0  0  0  0  0  0
    3.6651   16.3395   -0.8984 H   0  0  0  0  0  0  0  0  0  0  0  0
    2.1172   17.2852    1.0133 H   0  0  0  0  0  0  0  0  0  0  0  0
   -0.4822   15.9822   -1.7873 H   0  0  0  0  0  0  0  0  0  0  0  0
    0.7805   18.5040   -3.0310 H   0  0  0  0  0  0  0  0  0  0  0  0
   -0.4742   17.4246   -3.7867 H   0  0  0  0  0  0  0  0  0  0  0  0
   -1.4518   19.5145   -2.8946 H   0  0  0  0  0  0  0  0  0  0  0  0
   -2.0768   18.0334   -2.0687 H   0  0  0  0  0  0  0  0  0  0  0  0
   -1.6486   19.7172   -0.4121 H   0  0  0  0  0  0  0  0  0  0  0  0
    0.4270   20.2630   -2.0400 H   0  0  0  0  0  0  0  0  0  0  0  0
   -1.5302   17.2747    1.6843 H   0  0  0  0  0  0  0  0  0  0  0  0
   -2.4264   17.7425    0.1995 H   0  0  0  0  0  0  0  0  0  0  0  0
   -1.3933   16.2730    0.1995 H   0  0  0  0  0  0  0  0  0  0  0  0
   -0.1323   18.3529    2.2899 H   0  0  0  0  0  0  0  0  0  0  0  0
    1.3524   18.8223    1.3943 H   0  0  0  0  0  0  0  0  0  0  0  0
   -0.0779   19.9090    1.3943 H   0  0  0  0  0  0  0  0  0  0  0  0
    3.1062   17.1540   -2.7202 H   0  0  0  0  0  0  0  0  0  0  0  0
    3.0891   15.9618   -4.0637 H   0  0  0  0  0  0  0  0  0  0  0  0
    1.9272   17.3317   -4.0637 H   0  0  0  0  0  0  0  0  0  0  0  0
   -0.1134   15.4106   -4.1337 H   0  0  0  0  0  0  0  0  0  0  0  0
    1.5046   14.5568   -4.4306 H   0  0  0  0  0  0  0  0  0  0  0  0
   -0.7308   13.6887   -2.5767 H   0  0  0  0  0  0  0  0  0  0  0  0
   -0.1334   12.8811   -4.0791 H   0  0  0  0  0  0  0  0  0  0  0  0
    3.2768   12.1409   -2.7344 H   0  0  0  0  0  0  0  0  0  0  0  0
    2.1285   11.5288   -3.9727 H   0  0  0  0  0  0  0  0  0  0  0  0
    2.6112   13.2590   -3.9727 H   0  0  0  0  0  0  0  0  0  0  0  0
  1  2  1  0
  2  3  1  0
  3  4  1  0
  4  5  1  0
  5  6  1  0
  6  7  1  0
  7  8  1  0
  7  9  1  0
  2 10  1  0
 10 11  1  0
 11 12  1  0
 12 13  1  0
 13 14  1  1
 13 15  1  0
 15 16  1  0
 16 17  1  0
 17 18  2  0
 18 19  1  0
 19 20  1  0
 20 21  1  0
 21 22  1  0
 22 23  1  0
 22 24  1  0
 24 25  1  0
 24 26  1  0
 19 27  1  0
 27 28  1  6
 27 29  1  0
 29 30  1  0
 30 31  1  0
 31 32  1  6
  7  5  1  0
 31 10  1  0
 31 13  1  0
 27 15  1  0
 24 18  1  0
  1 33  1  0
  1 34  1  0
  1 35  1  0
  2 36  1  6
  3 37  1  0
  3 38  1  0
  4 39  1  0
  4 40  1  0
  5 41  1  1
  8 42  1  0
  8 43  1  0
  8 44  1  0
  9 45  1  0
  9 46  1  0
  9 47  1  0
 10 48  1  1
 11 49  1  0
 11 50  1  0
 12 51  1  0
 12 52  1  0
 14 53  1  0
 14 54  1  0
 14 55  1  0
 15 56  1  6
 16 57  1  0
 16 58  1  0
 17 59  1  0
 19 60  1  1
 20 61  1  0
 20 62  1  0
 21 63  1  0
 21 64  1  0
 22 65  1  1
 23 66  1  0
 25 67  1  0
 25 68  1  0
 25 69  1  0
 26 70  1  0
 26 71  1  0
 26 72  1  0
 28 73  1  0
 28 74  1  0
 28 75  1  0
 29 76  1  0
 29 77  1  0
 30 78  1  0
 30 79  1  0
 32 80  1  0
 32 81  1  0
 32 82  1  0
M  END
>  <meeko>  (7) 
{"is_sidechain": [false], "intermolecular_energy": 2.731, "internal_energy": -0.839}

$$$$
EPH_relaxed_0001_pdb2pqr_Repair_354_r2_0001_out
     RDKit          3D

 82 86  0  0  0  0  0  0  0  0999 V2000
   -4.9410    7.1940   -2.1410 C   0  0  0  0  0  0  0  0  0  0  0  0
   -5.5380    8.1170   -1.0750 C   0  0  2  0  0  0  0  0  0  0  0  0
   -6.9790    8.5470   -1.4200 C   0  0  0  0  0  0  0  0  0  0  0  0
   -7.9710    7.3820   -1.4780 C   0  0  0  0  0  0  0  0  0  0  0  0
   -8.8340    7.3270   -0.2540 C   0  0  2  0  0  0  0  0  0  0  0  0
   -9.7110    6.1950   -0.1900 O   0  0  0  0  0  0  0  0  0  0  0  0
  -10.3430    7.4820   -0.2870 C   0  0  0  0  0  0  0  0  0  0  0  0
  -11.0770    7.7050   -1.5720 C   0  0  0  0  0  0  0  0  0  0  0  0
  -11.0460    7.9030    0.9660 C   0  0  0  0  0  0  0  0  0  0  0  0
   -4.6560    9.3470   -0.8980 C   0  0  1  0  0  0  0  0  0  0  0  0
   -5.1180   10.2500    0.2760 C   0  0  0  0  0  0  0  0  0  0  0  0
   -3.8370   10.8480    0.9120 C   0  0  0  0  0  0  0  0  0  0  0  0
   -2.7150   10.5400   -0.1080 C   0  0  1  0  0  0  0  0  0  0  0  0
   -2.8460   11.6530   -1.1950 C   0  0  0  0  0  0  0  0  0  0  0  0
   -1.2630   10.4610    0.4650 C   0  0  2  0  0  0  0  0  0  0  0  0
   -0.7350   11.7650    1.0890 C   0  0  0  0  0  0  0  0  0  0  0  0
   -0.0140   12.6740    0.1510 C   0  0  0  0  0  0  0  0  0  0  0  0
    0.4510   12.3340   -1.0660 C   0  0  0  0  0  0  0  0  0  0  0  0
    0.3540   10.8890   -1.5700 C   0  0  1  0  0  0  0  0  0  0  0  0
    1.7140   10.4620   -2.1820 C   0  0  0  0  0  0  0  0  0  0  0  0
    2.1980   11.4250   -3.2620 C   0  0  0  0  0  0  0  0  0  0  0  0
    2.3380   12.8400   -2.7070 C   0  0  2  0  0  0  0  0  0  0  0  0
    3.3960   12.8560   -1.7450 O   0  0  0  0  0  0  0  0  0  0  0  0
    1.0310   13.3750   -2.0550 C   0  0  0  0  0  0  0  0  0  0  0  0
   -0.0260   13.6430   -3.1540 C   0  0  0  0  0  0  0  0  0  0  0  0
    1.3480   14.7520   -1.4120 C   0  0  0  0  0  0  0  0  0  0  0  0
   -0.2070    9.8270   -0.5290 C   0  0  1  0  0  0  0  0  0  0  0  0
    0.9580    9.2770    0.3500 C   0  0  0  0  0  0  0  0  0  0  0  0
   -0.7910    8.5950   -1.3160 C   0  0  0  0  0  0  0  0  0  0  0  0
   -2.2660    8.6830   -1.7510 C   0  0  0  0  0  0  0  0  0  0  0  0
   -3.1580    9.1080   -0.5800 C   0  0  2  0  0  0  0  0  0  0  0  0
   -3.0650    7.9960    0.5200 C   0  0  0  0  0  0  0  0  0  0  0  0
   -4.4059    6.3668   -1.6518 H   0  0  0  0  0  0  0  0  0  0  0  0
   -5.7482    6.7883   -2.7685 H   0  0  0  0  0  0  0  0  0  0  0  0
   -4.2400    7.7639   -2.7685 H   0  0  0  0  0  0  0  0  0  0  0  0
   -5.5787    7.5507   -0.1329 H   0  0  0  0  0  0  0  0  0  0  0  0
   -7.3223    9.2578   -0.6539 H   0  0  0  0  0  0  0  0  0  0  0  0
   -6.9495    8.9948   -2.4243 H   0  0  0  0  0  0  0  0  0  0  0  0
   -8.6138    7.5049   -2.3621 H   0  0  0  0  0  0  0  0  0  0  0  0
   -7.3969    6.4454   -1.5350 H   0  0  0  0  0  0  0  0  0  0  0  0
   -8.0547    7.8192    0.3463 H   0  0  0  0  0  0  0  0  0  0  0  0
  -12.1089    8.0185   -1.3552 H   0  0  0  0  0  0  0  0  0  0  0  0
  -10.5697    8.4896   -2.1526 H   0  0  0  0  0  0  0  0  0  0  0  0
  -11.0919    6.7708   -2.1526 H   0  0  0  0  0  0  0  0  0  0  0  0
  -10.4735    7.5602    1.8405 H   0  0  0  0  0  0  0  0  0  0  0  0
  -11.1290    8.9996    0.9891 H   0  0  0  0  0  0  0  0  0  0  0  0
  -12.0519    7.4585    0.9891 H   0  0  0  0  0  0  0  0  0  0  0  0
   -4.7622    9.7951   -1.8970 H   0  0  0  0  0  0  0  0  0  0  0  0
   -5.7665   11.0558   -0.0985 H   0  0  0  0  0  0  0  0  0  0  0  0
   -5.6932    9.6730    1.0151 H   0  0  0  0  0  0  0  0  0  0  0  0
   -3.9447   11.9333    1.0550 H   0  0  0  0  0  0  0  0  0  0  0  0
   -3.6266   10.4234    1.9047 H   0  0  0  0  0  0  0  0  0  0  0  0
   -2.9612   12.6315   -0.7058 H   0  0  0  0  0  0  0  0  0  0  0  0
   -1.9426   11.6608   -1.8225 H   0  0  0  0  0  0  0  0  0  0  0  0
   -3.7266   11.4509   -1.8225 H   0  0  0  0  0  0  0  0  0  0  0  0
   -1.3783    9.7554    1.3010 H   0  0  0  0  0  0  0  0  0  0  0  0
   -1.5927   12.3151    1.5035 H   0  0  0  0  0  0  0  0  0  0  0  0
    0.0025   11.4628    1.8471 H   0  0  0  0  0  0  0  0  0  0  0  0
    0.1518   13.7099    0.4818 H   0  0  0  0  0  0  0  0  0  0  0  0
   -0.4224   10.8905   -2.3492 H   0  0  0  0  0  0  0  0  0  0  0  0
    2.4657   10.4253   -1.3797 H   0  0  0  0  0  0  0  0  0  0  0  0
    1.5743    9.4770   -2.6513 H   0  0  0  0  0  0  0  0  0  0  0  0
    3.1758   11.0860   -3.6349 H   0  0  0  0  0  0  0  0  0  0  0  0
    1.4596   11.4387   -4.0772 H   0  0  0  0  0  0  0  0  0  0  0  0
    2.5615   13.5052   -3.5541 H   0  0  0  0  0  0  0  0  0  0  0  0
    4.2370   12.8110   -2.2310 H   0  0  0  0  0  0  0  0  0  0  0  0
   -0.9899   13.8874   -2.6838 H   0  0  0  0  0  0  0  0  0  0  0  0
    0.3012   14.4866   -3.7795 H   0  0  0  0  0  0  0  0  0  0  0  0
   -0.1403   12.7454   -3.7795 H   0  0  0  0  0  0  0  0  0  0  0  0
    1.3265   14.6586   -0.3162 H   0  0  0  0  0  0  0  0  0  0  0  0
    2.3463   15.0850   -1.7321 H   0  0  0  0  0  0  0  0  0  0  0  0
    0.5958   15.4880   -1.7321 H   0  0  0  0  0  0  0  0  0  0  0  0
    0.7033    9.3972    1.4133 H   0  0  0  0  0  0  0  0  0  0  0  0
    1.1127    8.2107    0.1283 H   0  0  0  0  0  0  0  0  0  0  0  0
    1.8796    9.8351    0.1283 H   0  0  0  0  0  0  0  0  0  0  0  0
   -0.1840    8.4622   -2.2237 H   0  0  0  0  0  0  0  0  0  0  0  0
   -0.7504    7.7554   -0.6064 H   0  0  0  0  0  0  0  0  0  0  0  0
   -2.3590    9.4216   -2.5609 H   0  0  0  0  0  0  0  0  0  0  0  0
   -2.5899    7.6902   -2.0967 H   0  0  0  0  0  0  0  0  0  0  0  0
   -3.1039    8.4613    1.5160 H   0  0  0  0  0  0  0  0  0  0  0  0
   -3.9079    7.2982    0.4081 H   0  0  0  0  0  0  0  0  0  0  0  0
   -2.1179    7.4479    0.4081 H   0  0  0  0  0  0  0  0  0  0  0  0
  1  2  1  0
  2  3  1  0
  3  4  1  0
  4  5  1  0
  5  6  1  0
  6  7  1  0
  7  8  1  0
  7  9  1  0
  2 10  1  0
 10 11  1  0
 11 12  1  0
 12 13  1  0
 13 14  1  6
 13 15  1  0
 15 16  1  0
 16 17  1  0
 17 18  2  0
 18 19  1  0
 19 20  1  0
 20 21  1  0
 21 22  1  0
 22 23  1  0
 22 24  1  0
 24 25  1  0
 24 26  1  0
 19 27  1  0
 27 28  1  1
 27 29  1  0
 29 30  1  0
 30 31  1  0
 31 32  1  1
  7  5  1  0
 31 10  1  0
 31 13  1  0
 27 15  1  0
 24 18  1  0
  1 33  1  0
  1 34  1  0
  1 35  1  0
  2 36  1  1
  3 37  1  0
  3 38  1  0
  4 39  1  0
  4 40  1  0
  5 41  1  1
  8 42  1  0
  8 43  1  0
  8 44  1  0
  9 45  1  0
  9 46  1  0
  9 47  1  0
 10 48  1  6
 11 49  1  0
 11 50  1  0
 12 51  1  0
 12 52  1  0
 14 53  1  0
 14 54  1  0
 14 55  1  0
 15 56  1  1
 16 57  1  0
 16 58  1  0
 17 59  1  0
 19 60  1  6
 20 61  1  0
 20 62  1  0
 21 63  1  0
 21 64  1  0
 22 65  1  6
 23 66  1  0
 25 67  1  0
 25 68  1  0
 25 69  1  0
 26 70  1  0
 26 71  1  0
 26 72  1  0
 28 73  1  0
 28 74  1  0
 28 75  1  0
 29 76  1  0
 29 77  1  0
 30 78  1  0
 30 79  1  0
 32 80  1  0
 32 81  1  0
 32 82  1  0
M  END
>  <meeko>  (8) 
{"is_sidechain": [false], "intermolecular_energy": 2.731, "internal_energy": -0.839}

$$$$
EPH_relaxed_0001_pdb2pqr_Repair_354_r2_0001_out
     RDKit          3D

 82 86  0  0  0  0  0  0  0  0999 V2000
   -4.1580    7.6660   -1.2610 C   0  0  0  0  0  0  0  0  0  0  0  0
   -4.8640    8.7610   -0.4570 C   0  0  2  0  0  0  0  0  0  0  0  0
   -6.3570    8.8820   -0.8260 C   0  0  0  0  0  0  0  0  0  0  0  0
   -6.9360    7.6190   -1.4690 C   0  0  0  0  0  0  0  0  0  0  0  0
   -7.9220    6.9410   -0.5680 C   0  0  2  0  0  0  0  0  0  0  0  0
   -8.6200    5.8400   -1.1650 O   0  0  0  0  0  0  0  0  0  0  0  0
   -9.4220    6.9730   -0.7950 C   0  0  0  0  0  0  0  0  0  0  0  0
  -10.0200    7.7010   -1.9570 C   0  0  0  0  0  0  0  0  0  0  0  0
  -10.3270    6.7160    0.3700 C   0  0  0  0  0  0  0  0  0  0  0  0
   -4.1640   10.0980   -0.6730 C   0  0  1  0  0  0  0  0  0  0  0  0
   -5.1030   11.3100   -0.4330 C   0  0  0  0  0  0  0  0  0  0  0  0
   -4.2330   12.4340    0.1850 C   0  0  0  0  0  0  0  0  0  0  0  0
   -2.7760   11.9600   -0.0250 C   0  0  1  0  0  0  0  0  0  0  0  0
   -2.4400   12.3390   -1.5020 C   0  0  0  0  0  0  0  0  0  0  0  0
   -1.7140   12.5270    0.9720 C   0  0  2  0  0  0  0  0  0  0  0  0
   -1.5280   14.0540    0.9300 C   0  0  0  0  0  0  0  0  0  0  0  0
   -0.4860   14.5440   -0.0200 C   0  0  0  0  0  0  0  0  0  0  0  0
    0.4650   13.7860   -0.5970 C   0  0  0  0  0  0  0  0  0  0  0  0
    0.6180   12.3030   -0.2340 C   0  0  1  0  0  0  0  0  0  0  0  0
    2.1150   11.9830    0.0160 C   0  0  0  0  0  0  0  0  0  0  0  0
    3.0040   12.3920   -1.1550 C   0  0  0  0  0  0  0  0  0  0  0  0
    2.8680   13.8840   -1.4480 C   0  0  2  0  0  0  0  0  0  0  0  0
    3.4050   14.6210   -0.3460 O   0  0  0  0  0  0  0  0  0  0  0  0
    1.4000   14.3260   -1.7060 C   0  0  0  0  0  0  0  0  0  0  0  0
    0.9190   13.7620   -3.0660 C   0  0  0  0  0  0  0  0  0  0  0  0
    1.3850   15.8720   -1.8480 C   0  0  0  0  0  0  0  0  0  0  0  0
   -0.3220   11.7750    0.9340 C   0  0  1  0  0  0  0  0  0  0  0  0
    0.3560   12.0220    2.3160 C   0  0  0  0  0  0  0  0  0  0  0  0
   -0.4890   10.2150    0.7940 C   0  0  0  0  0  0  0  0  0  0  0  0
   -1.6310    9.7170   -0.1120 C   0  0  0  0  0  0  0  0  0  0  0  0
   -2.9490   10.4190    0.2320 C   0  0  2  0  0  0  0  0  0  0  0  0
   -3.3240   10.0380    1.7050 C   0  0  0  0  0  0  0  0  0  0  0  0
   -3.6938    6.9460   -0.5710 H   0  0  0  0  0  0  0  0  0  0  0  0
   -4.8913    7.1459   -1.8948 H   0  0  0  0  0  0  0  0  0  0  0  0
   -3.3816    8.1193   -1.8948 H   0  0  0  0  0  0  0  0  0  0  0  0
   -4.8083    8.4795    0.6049 H   0  0  0  0  0  0  0  0  0  0  0  0
   -6.9252    9.0966    0.0911 H   0  0  0  0  0  0  0  0  0  0  0  0
   -6.4402    9.6885   -1.5694 H   0  0  0  0  0  0  0  0  0  0  0  0
   -7.4410    7.8955   -2.4063 H   0  0  0  0  0  0  0  0  0  0  0  0
   -6.1079    6.9203   -1.6588 H   0  0  0  0  0  0  0  0  0  0  0  0
   -7.3043    7.1634    0.3146 H   0  0  0  0  0  0  0  0  0  0  0  0
  -10.6779    8.5019   -1.5887 H   0  0  0  0  0  0  0  0  0  0  0  0
   -9.2169    8.1383   -2.5684 H   0  0  0  0  0  0  0  0  0  0  0  0
  -10.6049    6.9981   -2.5684 H   0  0  0  0  0  0  0  0  0  0  0  0
   -9.7724    6.8735    1.3068 H   0  0  0  0  0  0  0  0  0  0  0  0
  -11.1820    7.4068    0.3295 H   0  0  0  0  0  0  0  0  0  0  0  0
  -10.6913    5.6789    0.3295 H   0  0  0  0  0  0  0  0  0  0  0  0
   -3.8335    9.9665   -1.7139 H   0  0  0  0  0  0  0  0  0  0  0  0
   -5.5370   11.6474   -1.3858 H   0  0  0  0  0  0  0  0  0  0  0  0
   -5.9333   11.0400    0.2362 H   0  0  0  0  0  0  0  0  0  0  0  0
   -4.4088   13.3893   -0.3313 H   0  0  0  0  0  0  0  0  0  0  0  0
   -4.4666   12.6065    1.2460 H   0  0  0  0  0  0  0  0  0  0  0  0
   -1.7103   13.1621   -1.5124 H   0  0  0  0  0  0  0  0  0  0  0  0
   -2.0144   11.4651   -2.0170 H   0  0  0  0  0  0  0  0  0  0  0  0
   -3.3586   12.6568   -2.0170 H   0  0  0  0  0  0  0  0  0  0  0  0
   -2.1692   12.3081    1.9492 H   0  0  0  0  0  0  0  0  0  0  0  0
   -2.4890   14.5056    0.6428 H   0  0  0  0  0  0  0  0  0  0  0  0
   -1.1860   14.3464    1.9338 H   0  0  0  0  0  0  0  0  0  0  0  0
   -0.4962   15.6152   -0.2697 H   0  0  0  0  0  0  0  0  0  0  0  0
    0.2559   11.7375   -1.1053 H   0  0  0  0  0  0  0  0  0  0  0  0
    2.4457   12.5232    0.9153 H   0  0  0  0  0  0  0  0  0  0  0  0
    2.2074   10.8941    0.1411 H   0  0  0  0  0  0  0  0  0  0  0  0
    4.0520   12.1679   -0.9069 H   0  0  0  0  0  0  0  0  0  0  0  0
    2.6911   11.8291   -2.0468 H   0  0  0  0  0  0  0  0  0  0  0  0
    3.4255   14.0906   -2.3735 H   0  0  0  0  0  0  0  0  0  0  0  0
    4.2560   14.9960   -0.6300 H   0  0  0  0  0  0  0  0  0  0  0  0
    0.2142   12.9356   -2.8916 H   0  0  0  0  0  0  0  0  0  0  0  0
    0.4172   14.5577   -3.6361 H   0  0  0  0  0  0  0  0  0  0  0  0
    1.7840   13.3921   -3.6361 H   0  0  0  0  0  0  0  0  0  0  0  0
    1.3805   16.3320   -0.8488 H   0  0  0  0  0  0  0  0  0  0  0  0
    2.2800   16.1984   -2.3979 H   0  0  0  0  0  0  0  0  0  0  0  0
    0.4838   16.1810   -2.3979 H   0  0  0  0  0  0  0  0  0  0  0  0
   -0.3483   11.7654    3.1210 H   0  0  0  0  0  0  0  0  0  0  0  0
    1.2548   11.3935    2.4010 H   0  0  0  0  0  0  0  0  0  0  0  0
    0.6399   13.0813    2.4010 H   0  0  0  0  0  0  0  0  0  0  0  0
    0.4533    9.8142    0.3922 H   0  0  0  0  0  0  0  0  0  0  0  0
   -0.7474    9.8616    1.8031 H   0  0  0  0  0  0  0  0  0  0  0  0
   -1.3752    9.9258   -1.1613 H   0  0  0  0  0  0  0  0  0  0  0  0
   -1.7577    8.6357    0.0453 H   0  0  0  0  0  0  0  0  0  0  0  0
   -2.7279   10.6436    2.4035 H   0  0  0  0  0  0  0  0  0  0  0  0
   -4.3938   10.2315    1.8728 H   0  0  0  0  0  0  0  0  0  0  0  0
   -3.1136    8.9714    1.8728 H   0  0  0  0  0  0  0  0  0  0  0  0
  1  2  1  0
  2  3  1  0
  3  4  1  0
  4  5  1  0
  5  6  1  0
  6  7  1  0
  7  8  1  0
  7  9  1  0
  2 10  1  0
 10 11  1  0
 11 12  1  0
 12 13  1  0
 13 14  1  6
 13 15  1  0
 15 16  1  0
 16 17  1  0
 17 18  2  0
 18 19  1  0
 19 20  1  0
 20 21  1  0
 21 22  1  0
 22 23  1  0
 22 24  1  0
 24 25  1  0
 24 26  1  0
 19 27  1  0
 27 28  1  1
 27 29  1  0
 29 30  1  0
 30 31  1  0
 31 32  1  1
  7  5  1  0
 31 10  1  0
 31 13  1  0
 27 15  1  0
 24 18  1  0
  1 33  1  0
  1 34  1  0
  1 35  1  0
  2 36  1  1
  3 37  1  0
  3 38  1  0
  4 39  1  0
  4 40  1  0
  5 41  1  1
  8 42  1  0
  8 43  1  0
  8 44  1  0
  9 45  1  0
  9 46  1  0
  9 47  1  0
 10 48  1  6
 11 49  1  0
 11 50  1  0
 12 51  1  0
 12 52  1  0
 14 53  1  0
 14 54  1  0
 14 55  1  0
 15 56  1  1
 16 57  1  0
 16 58  1  0
 17 59  1  0
 19 60  1  6
 20 61  1  0
 20 62  1  0
 21 63  1  0
 21 64  1  0
 22 65  1  6
 23 66  1  0
 25 67  1  0
 25 68  1  0
 25 69  1  0
 26 70  1  0
 26 71  1  0
 26 72  1  0
 28 73  1  0
 28 74  1  0
 28 75  1  0
 29 76  1  0
 29 77  1  0
 30 78  1  0
 30 79  1  0
 32 80  1  0
 32 81  1  0
 32 82  1  0
M  END
>  <meeko>  (9) 
{"is_sidechain": [false], "intermolecular_energy": 2.731, "internal_energy": -0.839}

$$$$
EPH_relaxed_0001_pdb2pqr_Repair_354_r2_0001_out
     RDKit          3D

 82 86  0  0  0  0  0  0  0  0999 V2000
   -4.5860   11.5650   -0.0460 C   0  0  0  0  0  0  0  0  0  0  0  0
   -3.2390   10.9450   -0.4280 C   0  0  2  0  0  0  0  0  0  0  0  0
   -3.0420    9.5510    0.2000 C   0  0  0  0  0  0  0  0  0  0  0  0
   -2.8750    8.4290   -0.8290 C   0  0  0  0  0  0  0  0  0  0  0  0
   -1.7360    8.7000   -1.7640 C   0  0  2  0  0  0  0  0  0  0  0  0
   -1.0450    7.5300   -2.2210 O   0  0  0  0  0  0  0  0  0  0  0  0
   -0.2830    8.4400   -1.4110 C   0  0  0  0  0  0  0  0  0  0  0  0
    0.1080    7.8870   -0.0770 C   0  0  0  0  0  0  0  0  0  0  0  0
    0.7790    9.1750   -2.1660 C   0  0  0  0  0  0  0  0  0  0  0  0
   -2.1030   11.8710   -0.0090 C   0  0  1  0  0  0  0  0  0  0  0  0
   -1.2000   11.2490    1.0900 C   0  0  0  0  0  0  0  0  0  0  0  0
    0.2440   11.7390    0.8120 C   0  0  0  0  0  0  0  0  0  0  0  0
    0.0770   12.8780   -0.2210 C   0  0  1  0  0  0  0  0  0  0  0  0
   -0.3210   14.1300    0.6230 C   0  0  0  0  0  0  0  0  0  0  0  0
    1.3110   13.1670   -1.1360 C   0  0  2  0  0  0  0  0  0  0  0  0
    2.5780   13.6330   -0.3960 C   0  0  0  0  0  0  0  0  0  0  0  0
    2.7110   15.1100   -0.2270 C   0  0  0  0  0  0  0  0  0  0  0  0
    2.0030   16.0410   -0.8940 C   0  0  0  0  0  0  0  0  0  0  0  0
    1.0200   15.6390   -2.0010 C   0  0  1  0  0  0  0  0  0  0  0  0
    1.2330   16.5500   -3.2380 C   0  0  0  0  0  0  0  0  0  0  0  0
    1.1480   18.0340   -2.8930 C   0  0  0  0  0  0  0  0  0  0  0  0
    2.1790   18.4070   -1.8310 C   0  0  2  0  0  0  0  0  0  0  0  0
    3.4890   18.2680   -2.3910 O   0  0  0  0  0  0  0  0  0  0  0  0
    2.0680   17.5470   -0.5410 C   0  0  0  0  0  0  0  0  0  0  0  0
    0.7760   17.9230    0.2260 C   0  0  0  0  0  0  0  0  0  0  0  0
    3.2510   17.9280    0.3890 C   0  0  0  0  0  0  0  0  0  0  0  0
    0.9940   14.0950   -2.3780 C   0  0  1  0  0  0  0  0  0  0  0  0
    2.0850   13.7910   -3.4510 C   0  0  0  0  0  0  0  0  0  0  0  0
   -0.3910   13.7510   -3.0430 C   0  0  0  0  0  0  0  0  0  0  0  0
   -1.5390   13.3570   -2.0940 C   0  0  0  0  0  0  0  0  0  0  0  0
   -1.0840   12.2850   -1.0990 C   0  0  2  0  0  0  0  0  0  0  0  0
   -0.6980   11.0060   -1.9180 C   0  0  0  0  0  0  0  0  0  0  0  0
   -4.6735   11.6053    1.0498 H   0  0  0  0  0  0  0  0  0  0  0  0
   -4.6505   12.5834   -0.4567 H   0  0  0  0  0  0  0  0  0  0  0  0
   -5.4016   10.9517   -0.4567 H   0  0  0  0  0  0  0  0  0  0  0  0
   -3.2312   10.8182   -1.5206 H   0  0  0  0  0  0  0  0  0  0  0  0
   -2.1421    9.5791    0.8320 H   0  0  0  0  0  0  0  0  0  0  0  0
   -3.9525    9.3264    0.7749 H   0  0  0  0  0  0  0  0  0  0  0  0
   -2.6839    7.4844   -0.2987 H   0  0  0  0  0  0  0  0  0  0  0  0
   -3.7990    8.3677   -1.4227 H   0  0  0  0  0  0  0  0  0  0  0  0
   -2.2497    9.5836   -2.1708 H   0  0  0  0  0  0  0  0  0  0  0  0
   -0.3300    8.5065    0.7194 H   0  0  0  0  0  0  0  0  0  0  0  0
   -0.2626    6.8554    0.0152 H   0  0  0  0  0  0  0  0  0  0  0  0
    1.2041    7.8925    0.0152 H   0  0  0  0  0  0  0  0  0  0  0  0
    1.4697    9.6530   -1.4557 H   0  0  0  0  0  0  0  0  0  0  0  0
    1.3352    8.4677   -2.7987 H   0  0  0  0  0  0  0  0  0  0  0  0
    0.3130    9.9447   -2.7987 H   0  0  0  0  0  0  0  0  0  0  0  0
   -2.6873   12.7463    0.3111 H   0  0  0  0  0  0  0  0  0  0  0  0
   -1.5288   11.5839    2.0849 H   0  0  0  0  0  0  0  0  0  0  0  0
   -1.2549   10.1505    1.0716 H   0  0  0  0  0  0  0  0  0  0  0  0
    0.7104   12.1162    1.7340 H   0  0  0  0  0  0  0  0  0  0  0  0
    0.8945   10.9326    0.4425 H   0  0  0  0  0  0  0  0  0  0  0  0
   -0.2446   13.8898    1.6937 H   0  0  0  0  0  0  0  0  0  0  0  0
    0.3566   14.9632    0.3849 H   0  0  0  0  0  0  0  0  0  0  0  0
   -1.3553   14.4190    0.3849 H   0  0  0  0  0  0  0  0  0  0  0  0
    1.5472   12.1693   -1.5344 H   0  0  0  0  0  0  0  0  0  0  0  0
    2.5750   13.1754    0.6043 H   0  0  0  0  0  0  0  0  0  0  0  0
    3.4276   13.3206   -1.0210 H   0  0  0  0  0  0  0  0  0  0  0  0
    3.4502   15.4683    0.5046 H   0  0  0  0  0  0  0  0  0  0  0  0
    0.0136   15.8001   -1.5873 H   0  0  0  0  0  0  0  0  0  0  0  0
    2.2268   16.3428   -3.6617 H   0  0  0  0  0  0  0  0  0  0  0  0
    0.4317   16.3281   -3.9582 H   0  0  0  0  0  0  0  0  0  0  0  0
    1.3360   18.6260   -3.8009 H   0  0  0  0  0  0  0  0  0  0  0  0
    0.1438   18.2455   -2.4970 H   0  0  0  0  0  0  0  0  0  0  0  0
    1.9833   19.4474   -1.5321 H   0  0  0  0  0  0  0  0  0  0  0  0
    4.1210   18.2300   -1.6540 H   0  0  0  0  0  0  0  0  0  0  0  0
    0.9633   17.8685    1.3086 H   0  0  0  0  0  0  0  0  0  0  0  0
    0.4745   18.9461   -0.0429 H   0  0  0  0  0  0  0  0  0  0  0  0
   -0.0274   17.2214   -0.0429 H   0  0  0  0  0  0  0  0  0  0  0  0
    2.9390   17.8275    1.4390 H   0  0  0  0  0  0  0  0  0  0  0  0
    4.1015   17.2583    0.1935 H   0  0  0  0  0  0  0  0  0  0  0  0
    3.5508   18.9681    0.1935 H   0  0  0  0  0  0  0  0  0  0  0  0
    3.0285   13.5281   -2.9503 H   0  0  0  0  0  0  0  0  0  0  0  0
    1.7568   12.9501   -4.0796 H   0  0  0  0  0  0  0  0  0  0  0  0
    2.2389   14.6805   -4.0796 H   0  0  0  0  0  0  0  0  0  0  0  0
   -0.7167   14.6356   -3.6099 H   0  0  0  0  0  0  0  0  0  0  0  0
   -0.2024   12.8556   -3.6535 H   0  0  0  0  0  0  0  0  0  0  0  0
   -1.8681   14.2474   -1.5382 H   0  0  0  0  0  0  0  0  0  0  0  0
   -2.3663   12.9502   -2.6941 H   0  0  0  0  0  0  0  0  0  0  0  0
   -0.4511   10.1878   -1.2255 H   0  0  0  0  0  0  0  0  0  0  0  0
   -1.5458   10.7067   -2.5517 H   0  0  0  0  0  0  0  0  0  0  0  0
    0.1739   11.2257   -2.5517 H   0  0  0  0  0  0  0  0  0  0  0  0
  1  2  1  0
  2  3  1  0
  3  4  1  0
  4  5  1  0
  5  6  1  0
  6  7  1  0
  7  8  1  0
  7  9  1  0
  2 10  1  0
 10 11  1  0
 11 12  1  0
 12 13  1  0
 13 14  1  1
 13 15  1  0
 15 16  1  0
 16 17  1  0
 17 18  2  0
 18 19  1  0
 19 20  1  0
 20 21  1  0
 21 22  1  0
 22 23  1  0
 22 24  1  0
 24 25  1  0
 24 26  1  0
 19 27  1  0
 27 28  1  6
 27 29  1  0
 29 30  1  0
 30 31  1  0
 31 32  1  6
  7  5  1  0
 31 10  1  0
 31 13  1  0
 27 15  1  0
 24 18  1  0
  1 33  1  0
  1 34  1  0
  1 35  1  0
  2 36  1  6
  3 37  1  0
  3 38  1  0
  4 39  1  0
  4 40  1  0
  5 41  1  6
  8 42  1  0
  8 43  1  0
  8 44  1  0
  9 45  1  0
  9 46  1  0
  9 47  1  0
 10 48  1  1
 11 49  1  0
 11 50  1  0
 12 51  1  0
 12 52  1  0
 14 53  1  0
 14 54  1  0
 14 55  1  0
 15 56  1  6
 16 57  1  0
 16 58  1  0
 17 59  1  0
 19 60  1  1
 20 61  1  0
 20 62  1  0
 21 63  1  0
 21 64  1  0
 22 65  1  1
 23 66  1  0
 25 67  1  0
 25 68  1  0
 25 69  1  0
 26 70  1  0
 26 71  1  0
 26 72  1  0
 28 73  1  0
 28 74  1  0
 28 75  1  0
 29 76  1  0
 29 77  1  0
 30 78  1  0
 30 79  1  0
 32 80  1  0
 32 81  1  0
 32 82  1  0
M  END
>  <meeko>  (10) 
{"is_sidechain": [false], "intermolecular_energy": 2.731, "internal_energy": -0.839}

$$$$
EPH_relaxed_0001_pdb2pqr_Repair_354_r2_0001_out
     RDKit          3D

 82 86  0  0  0  0  0  0  0  0999 V2000
   -4.0690    7.5800   -1.3000 C   0  0  0  0  0  0  0  0  0  0  0  0
   -4.7720    8.6500   -0.4610 C   0  0  2  0  0  0  0  0  0  0  0  0
   -6.2770    8.7460   -0.7840 C   0  0  0  0  0  0  0  0  0  0  0  0
   -7.0200    7.4140   -0.6520 C   0  0  0  0  0  0  0  0  0  0  0  0
   -7.3530    6.8310   -1.9920 C   0  0  2  0  0  0  0  0  0  0  0  0
   -7.7520    7.7890   -2.9800 O   0  0  0  0  0  0  0  0  0  0  0  0
   -8.7500    6.8350   -2.5830 C   0  0  0  0  0  0  0  0  0  0  0  0
   -9.9070    7.4350   -1.8470 C   0  0  0  0  0  0  0  0  0  0  0  0
   -9.0820    5.8330   -3.6440 C   0  0  0  0  0  0  0  0  0  0  0  0
   -4.1050   10.0030   -0.6790 C   0  0  1  0  0  0  0  0  0  0  0  0
   -5.0790   11.1920   -0.4590 C   0  0  0  0  0  0  0  0  0  0  0  0
   -4.2460   12.3430    0.1610 C   0  0  0  0  0  0  0  0  0  0  0  0
   -2.7750   11.9070   -0.0300 C   0  0  1  0  0  0  0  0  0  0  0  0
   -2.4320   12.2840   -1.5050 C   0  0  0  0  0  0  0  0  0  0  0  0
   -1.7390   12.5090    0.9750 C   0  0  2  0  0  0  0  0  0  0  0  0
   -1.5940   14.0400    0.9230 C   0  0  0  0  0  0  0  0  0  0  0  0
   -0.5550   14.5510   -0.0190 C   0  0  0  0  0  0  0  0  0  0  0  0
    0.4230   13.8140   -0.5790 C   0  0  0  0  0  0  0  0  0  0  0  0
    0.6110   12.3390   -0.2030 C   0  0  1  0  0  0  0  0  0  0  0  0
    2.1130   12.0610    0.0660 C   0  0  0  0  0  0  0  0  0  0  0  0
    3.0040   12.4850   -1.0970 C   0  0  0  0  0  0  0  0  0  0  0  0
    2.8320   13.9700   -1.4030 C   0  0  2  0  0  0  0  0  0  0  0  0
    3.3370   14.7300   -0.3010 O   0  0  0  0  0  0  0  0  0  0  0  0
    1.3560   14.3710   -1.6820 C   0  0  0  0  0  0  0  0  0  0  0  0
    0.9050   13.7840   -3.0420 C   0  0  0  0  0  0  0  0  0  0  0  0
    1.3010   15.9150   -1.8360 C   0  0  0  0  0  0  0  0  0  0  0  0
   -0.3280   11.7940    0.9580 C   0  0  1  0  0  0  0  0  0  0  0  0
    0.3280   12.0690    2.3460 C   0  0  0  0  0  0  0  0  0  0  0  0
   -0.4510   10.2300    0.8280 C   0  0  0  0  0  0  0  0  0  0  0  0
   -1.5700    9.6950   -0.0860 C   0  0  0  0  0  0  0  0  0  0  0  0
   -2.9090   10.3630    0.2370 C   0  0  2  0  0  0  0  0  0  0  0  0
   -3.2910    9.9830    1.7090 C   0  0  0  0  0  0  0  0  0  0  0  0
   -3.5885    6.8486   -0.6335 H   0  0  0  0  0  0  0  0  0  0  0  0
   -4.8073    7.0681   -1.9347 H   0  0  0  0  0  0  0  0  0  0  0  0
   -3.3060    8.0544   -1.9347 H   0  0  0  0  0  0  0  0  0  0  0  0
   -4.6794    8.3558    0.5949 H   0  0  0  0  0  0  0  0  0  0  0  0
   -6.7351    9.4693   -0.0934 H   0  0  0  0  0  0  0  0  0  0  0  0
   -6.3613    9.0588   -1.8352 H   0  0  0  0  0  0  0  0  0  0  0  0
   -6.3846    6.7041   -0.1021 H   0  0  0  0  0  0  0  0  0  0  0  0
   -7.9616    7.5980   -0.1140 H   0  0  0  0  0  0  0  0  0  0  0  0
   -6.6135    6.0288   -1.8519 H   0  0  0  0  0  0  0  0  0  0  0  0
   -9.7377    7.3472   -0.7637 H   0  0  0  0  0  0  0  0  0  0  0  0
  -10.0033    8.4967   -2.1182 H   0  0  0  0  0  0  0  0  0  0  0  0
  -10.8303    6.9021   -2.1182 H   0  0  0  0  0  0  0  0  0  0  0  0
   -9.3946    4.8896   -3.1725 H   0  0  0  0  0  0  0  0  0  0  0  0
   -9.9003    6.2190   -4.2697 H   0  0  0  0  0  0  0  0  0  0  0  0
   -8.1952    5.6540   -4.2697 H   0  0  0  0  0  0  0  0  0  0  0  0
   -3.7588    9.8724   -1.7149 H   0  0  0  0  0  0  0  0  0  0  0  0
   -5.5103   11.5111   -1.4193 H   0  0  0  0  0  0  0  0  0  0  0  0
   -5.9099   10.9050    0.2022 H   0  0  0  0  0  0  0  0  0  0  0  0
   -4.4415   13.2899   -0.3635 H   0  0  0  0  0  0  0  0  0  0  0  0
   -4.4958   12.5159    1.2182 H   0  0  0  0  0  0  0  0  0  0  0  0
   -1.6918   13.0976   -1.5128 H   0  0  0  0  0  0  0  0  0  0  0  0
   -2.0169   11.4056   -2.0209 H   0  0  0  0  0  0  0  0  0  0  0  0
   -3.3456   12.6145   -2.0209 H   0  0  0  0  0  0  0  0  0  0  0  0
   -2.1980   12.2849    1.9492 H   0  0  0  0  0  0  0  0  0  0  0  0
   -2.5636   14.4631    0.6215 H   0  0  0  0  0  0  0  0  0  0  0  0
   -1.2715   14.3492    1.9282 H   0  0  0  0  0  0  0  0  0  0  0  0
   -0.5913   15.6196   -0.2775 H   0  0  0  0  0  0  0  0  0  0  0  0
    0.2737   11.7578   -1.0739 H   0  0  0  0  0  0  0  0  0  0  0  0
    2.4188   12.6162    0.9650 H   0  0  0  0  0  0  0  0  0  0  0  0
    2.2328   10.9758    0.1999 H   0  0  0  0  0  0  0  0  0  0  0  0
    4.0545   12.2908   -0.8350 H   0  0  0  0  0  0  0  0  0  0  0  0
    2.7166   11.9075   -1.9880 H   0  0  0  0  0  0  0  0  0  0  0  0
    3.3947   14.1841   -2.3236 H   0  0  0  0  0  0  0  0  0  0  0  0
    2.8350   14.4690    0.4900 H   0  0  0  0  0  0  0  0  0  0  0  0
    0.2432   12.9227   -2.8682 H   0  0  0  0  0  0  0  0  0  0  0  0
    0.3635   14.5534   -3.6120 H   0  0  0  0  0  0  0  0  0  0  0  0
    1.7879   13.4590   -3.6120 H   0  0  0  0  0  0  0  0  0  0  0  0
    1.2843   16.3824   -0.8404 H   0  0  0  0  0  0  0  0  0  0  0  0
    2.1874   16.2602   -2.3884 H   0  0  0  0  0  0  0  0  0  0  0  0
    0.3923   16.1963   -2.3884 H   0  0  0  0  0  0  0  0  0  0  0  0
   -0.3690   11.7768    3.1453 H   0  0  0  0  0  0  0  0  0  0  0  0
    1.2551   11.4838    2.4358 H   0  0  0  0  0  0  0  0  0  0  0  0
    0.5606   13.1404    2.4358 H   0  0  0  0  0  0  0  0  0  0  0  0
    0.5059    9.8521    0.4387 H   0  0  0  0  0  0  0  0  0  0  0  0
   -0.7098    9.8767    1.8370 H   0  0  0  0  0  0  0  0  0  0  0  0
   -1.3082    9.9023   -1.1341 H   0  0  0  0  0  0  0  0  0  0  0  0
   -1.6698    8.6121    0.0795 H   0  0  0  0  0  0  0  0  0  0  0  0
   -2.6899   10.5810    2.4098 H   0  0  0  0  0  0  0  0  0  0  0  0
   -4.3590   10.1874    1.8751 H   0  0  0  0  0  0  0  0  0  0  0  0
   -3.0922    8.9139    1.8751 H   0  0  0  0  0  0  0  0  0  0  0  0
  1  2  1  0
  2  3  1  0
  3  4  1  0
  4  5  1  0
  5  6  1  0
  6  7  1  0
  7  8  1  0
  7  9  1  0
  2 10  1  0
 10 11  1  0
 11 12  1  0
 12 13  1  0
 13 14  1  6
 13 15  1  0
 15 16  1  0
 16 17  1  0
 17 18  2  0
 18 19  1  0
 19 20  1  0
 20 21  1  0
 21 22  1  0
 22 23  1  0
 22 24  1  0
 24 25  1  0
 24 26  1  0
 19 27  1  0
 27 28  1  1
 27 29  1  0
 29 30  1  0
 30 31  1  0
 31 32  1  1
  7  5  1  0
 31 10  1  0
 31 13  1  0
 27 15  1  0
 24 18  1  0
  1 33  1  0
  1 34  1  0
  1 35  1  0
  2 36  1  1
  3 37  1  0
  3 38  1  0
  4 39  1  0
  4 40  1  0
  5 41  1  6
  8 42  1  0
  8 43  1  0
  8 44  1  0
  9 45  1  0
  9 46  1  0
  9 47  1  0
 10 48  1  6
 11 49  1  0
 11 50  1  0
 12 51  1  0
 12 52  1  0
 14 53  1  0
 14 54  1  0
 14 55  1  0
 15 56  1  1
 16 57  1  0
 16 58  1  0
 17 59  1  0
 19 60  1  6
 20 61  1  0
 20 62  1  0
 21 63  1  0
 21 64  1  0
 22 65  1  6
 23 66  1  0
 25 67  1  0
 25 68  1  0
 25 69  1  0
 26 70  1  0
 26 71  1  0
 26 72  1  0
 28 73  1  0
 28 74  1  0
 28 75  1  0
 29 76  1  0
 29 77  1  0
 30 78  1  0
 30 79  1  0
 32 80  1  0
 32 81  1  0
 32 82  1  0
M  END
>  <meeko>  (11) 
{"is_sidechain": [false], "intermolecular_energy": 2.731, "internal_energy": -0.839}

$$$$
EPH_relaxed_0001_pdb2pqr_Repair_354_r2_0001_out
     RDKit          3D

 82 86  0  0  0  0  0  0  0  0999 V2000
   -5.3550    5.7850   -1.4860 C   0  0  0  0  0  0  0  0  0  0  0  0
   -5.5240    7.2580   -1.8700 C   0  0  2  0  0  0  0  0  0  0  0  0
   -5.1610    8.2060   -0.7090 C   0  0  0  0  0  0  0  0  0  0  0  0
   -3.6620    8.4940   -0.5960 C   0  0  0  0  0  0  0  0  0  0  0  0
   -3.3890    9.6680    0.2960 C   0  0  2  0  0  0  0  0  0  0  0  0
   -3.6450   10.9450   -0.3010 O   0  0  0  0  0  0  0  0  0  0  0  0
   -2.2780   10.6700    0.0430 C   0  0  0  0  0  0  0  0  0  0  0  0
   -1.3670   10.5430   -1.1380 C   0  0  0  0  0  0  0  0  0  0  0  0
   -1.7710   11.4810    1.1940 C   0  0  0  0  0  0  0  0  0  0  0  0
   -6.9560    7.5150   -2.3240 C   0  0  1  0  0  0  0  0  0  0  0  0
   -7.2960    6.8020   -3.6600 C   0  0  0  0  0  0  0  0  0  0  0  0
   -8.7830    6.3720   -3.5720 C   0  0  0  0  0  0  0  0  0  0  0  0
   -9.3370    7.1340   -2.3450 C   0  0  1  0  0  0  0  0  0  0  0  0
   -9.6530    8.5690   -2.8730 C   0  0  0  0  0  0  0  0  0  0  0  0
  -10.5750    6.4940   -1.6360 C   0  0  2  0  0  0  0  0  0  0  0  0
  -11.8410    6.3870   -2.5040 C   0  0  0  0  0  0  0  0  0  0  0  0
  -12.7620    7.5600   -2.4370 C   0  0  0  0  0  0  0  0  0  0  0  0
  -12.7290    8.5270   -1.5010 C   0  0  0  0  0  0  0  0  0  0  0  0
  -11.7560    8.4470   -0.3180 C   0  0  1  0  0  0  0  0  0  0  0  0
  -12.5100    8.7730    0.9970 C   0  0  0  0  0  0  0  0  0  0  0  0
  -13.2430   10.1100    0.9340 C   0  0  0  0  0  0  0  0  0  0  0  0
  -14.2440   10.1300   -0.2180 C   0  0  2  0  0  0  0  0  0  0  0  0
  -15.2860    9.1890    0.0600 O   0  0  0  0  0  0  0  0  0  0  0  0
  -13.5990    9.8050   -1.5950 C   0  0  0  0  0  0  0  0  0  0  0  0
  -12.6920   10.9800   -2.0350 C   0  0  0  0  0  0  0  0  0  0  0  0
  -14.7380    9.7180   -2.6470 C   0  0  0  0  0  0  0  0  0  0  0  0
  -10.8990    7.1120   -0.2150 C   0  0  1  0  0  0  0  0  0  0  0  0
  -11.6970    6.0270    0.5700 C   0  0  0  0  0  0  0  0  0  0  0  0
   -9.5980    7.4000    0.6230 C   0  0  0  0  0  0  0  0  0  0  0  0
   -8.3710    7.9170   -0.1530 C   0  0  0  0  0  0  0  0  0  0  0  0
   -8.0960    7.0480   -1.3840 C   0  0  2  0  0  0  0  0  0  0  0  0
   -7.7530    5.6040   -0.8840 C   0  0  0  0  0  0  0  0  0  0  0  0
   -5.3442    5.6907   -0.3901 H   0  0  0  0  0  0  0  0  0  0  0  0
   -6.1920    5.2008   -1.8961 H   0  0  0  0  0  0  0  0  0  0  0  0
   -4.4074    5.4056   -1.8961 H   0  0  0  0  0  0  0  0  0  0  0  0
   -4.8286    7.4669   -2.6963 H   0  0  0  0  0  0  0  0  0  0  0  0
   -5.6874    9.1597   -0.8618 H   0  0  0  0  0  0  0  0  0  0  0  0
   -5.4632    7.7045    0.2222 H   0  0  0  0  0  0  0  0  0  0  0  0
   -3.1587    7.6075   -0.1827 H   0  0  0  0  0  0  0  0  0  0  0  0
   -3.2814    8.7305   -1.6006 H   0  0  0  0  0  0  0  0  0  0  0  0
   -3.6698    9.0869    1.1867 H   0  0  0  0  0  0  0  0  0  0  0  0
   -0.3335   10.3989   -0.7900 H   0  0  0  0  0  0  0  0  0  0  0  0
   -1.6730    9.6788   -1.7459 H   0  0  0  0  0  0  0  0  0  0  0  0
   -1.4250   11.4579   -1.7459 H   0  0  0  0  0  0  0  0  0  0  0  0
   -2.0696   11.0033    2.1388 H   0  0  0  0  0  0  0  0  0  0  0  0
   -0.6738   11.5418    1.1446 H   0  0  0  0  0  0  0  0  0  0  0  0
   -2.1969   12.4940    1.1446 H   0  0  0  0  0  0  0  0  0  0  0  0
   -6.9381    8.6136   -2.3757 H   0  0  0  0  0  0  0  0  0  0  0  0
   -7.1504    7.4912   -4.5049 H   0  0  0  0  0  0  0  0  0  0  0  0
   -6.6423    5.9321   -3.8208 H   0  0  0  0  0  0  0  0  0  0  0  0
   -9.3251    6.6594   -4.4850 H   0  0  0  0  0  0  0  0  0  0  0  0
   -8.8973    5.2824   -3.4731 H   0  0  0  0  0  0  0  0  0  0  0  0
   -9.8026    9.2485   -2.0210 H   0  0  0  0  0  0  0  0  0  0  0  0
   -8.8124    8.9279   -3.4850 H   0  0  0  0  0  0  0  0  0  0  0  0
  -10.5666    8.5416   -3.4850 H   0  0  0  0  0  0  0  0  0  0  0  0
  -10.2412    5.4597   -1.4661 H   0  0  0  0  0  0  0  0  0  0  0  0
  -11.5259    6.2618   -3.5504 H   0  0  0  0  0  0  0  0  0  0  0  0
  -12.4089    5.5317   -2.1091 H   0  0  0  0  0  0  0  0  0  0  0  0
  -13.5323    7.6410   -3.2181 H   0  0  0  0  0  0  0  0  0  0  0  0
  -10.9867    9.2106   -0.5053 H   0  0  0  0  0  0  0  0  0  0  0  0
  -13.2442    7.9768    1.1894 H   0  0  0  0  0  0  0  0  0  0  0  0
  -11.7640    8.8383    1.8028 H   0  0  0  0  0  0  0  0  0  0  0  0
  -13.7801   10.2709    1.8804 H   0  0  0  0  0  0  0  0  0  0  0  0
  -12.5038   10.9081    0.7705 H   0  0  0  0  0  0  0  0  0  0  0  0
  -14.6424   11.1527   -0.2918 H   0  0  0  0  0  0  0  0  0  0  0  0
  -14.9940    8.6390    0.8060 H   0  0  0  0  0  0  0  0  0  0  0  0
  -12.2971   11.4916   -1.1449 H   0  0  0  0  0  0  0  0  0  0  0  0
  -11.8563   10.5928   -2.6364 H   0  0  0  0  0  0  0  0  0  0  0  0
  -13.2782   11.6904   -2.6364 H   0  0  0  0  0  0  0  0  0  0  0  0
  -15.7074    9.6440   -2.1325 H   0  0  0  0  0  0  0  0  0  0  0  0
  -14.7251   10.6197   -3.2768 H   0  0  0  0  0  0  0  0  0  0  0  0
  -14.5883    8.8287   -3.2768 H   0  0  0  0  0  0  0  0  0  0  0  0
  -11.5753    6.1925    1.6506 H   0  0  0  0  0  0  0  0  0  0  0  0
  -12.7629    6.0936    0.3066 H   0  0  0  0  0  0  0  0  0  0  0  0
  -11.3159    5.0293    0.3066 H   0  0  0  0  0  0  0  0  0  0  0  0
   -9.8521    8.1530    1.3835 H   0  0  0  0  0  0  0  0  0  0  0  0
   -9.2929    6.4227    1.0252 H   0  0  0  0  0  0  0  0  0  0  0  0
   -8.5596    8.9511   -0.4772 H   0  0  0  0  0  0  0  0  0  0  0  0
   -7.4937    7.8755    0.5092 H   0  0  0  0  0  0  0  0  0  0  0  0
   -7.7492    5.5881    0.2159 H   0  0  0  0  0  0  0  0  0  0  0  0
   -8.5083    4.8973   -1.2583 H   0  0  0  0  0  0  0  0  0  0  0  0
   -6.7606    5.3124   -1.2583 H   0  0  0  0  0  0  0  0  0  0  0  0
  1  2  1  0
  2  3  1  0
  3  4  1  0
  4  5  1  0
  5  6  1  0
  6  7  1  0
  7  8  1  0
  7  9  1  0
  2 10  1  0
 10 11  1  0
 11 12  1  0
 12 13  1  0
 13 14  1  6
 13 15  1  0
 15 16  1  0
 16 17  1  0
 17 18  2  0
 18 19  1  0
 19 20  1  0
 20 21  1  0
 21 22  1  0
 22 23  1  0
 22 24  1  0
 24 25  1  0
 24 26  1  0
 19 27  1  0
 27 28  1  1
 27 29  1  0
 29 30  1  0
 30 31  1  0
 31 32  1  1
  7  5  1  0
 31 10  1  0
 31 13  1  0
 27 15  1  0
 24 18  1  0
  1 33  1  0
  1 34  1  0
  1 35  1  0
  2 36  1  6
  3 37  1  0
  3 38  1  0
  4 39  1  0
  4 40  1  0
  5 41  1  1
  8 42  1  0
  8 43  1  0
  8 44  1  0
  9 45  1  0
  9 46  1  0
  9 47  1  0
 10 48  1  6
 11 49  1  0
 11 50  1  0
 12 51  1  0
 12 52  1  0
 14 53  1  0
 14 54  1  0
 14 55  1  0
 15 56  1  1
 16 57  1  0
 16 58  1  0
 17 59  1  0
 19 60  1  6
 20 61  1  0
 20 62  1  0
 21 63  1  0
 21 64  1  0
 22 65  1  6
 23 66  1  0
 25 67  1  0
 25 68  1  0
 25 69  1  0
 26 70  1  0
 26 71  1  0
 26 72  1  0
 28 73  1  0
 28 74  1  0
 28 75  1  0
 29 76  1  0
 29 77  1  0
 30 78  1  0
 30 79  1  0
 32 80  1  0
 32 81  1  0
 32 82  1  0
M  END
>  <meeko>  (12) 
{"is_sidechain": [false], "intermolecular_energy": 2.731, "internal_energy": -0.839}

$$$$
EPH_relaxed_0001_pdb2pqr_Repair_354_r2_0001_out
     RDKit          3D

 82 86  0  0  0  0  0  0  0  0999 V2000
    2.9690   18.3600   -1.4820 C   0  0  0  0  0  0  0  0  0  0  0  0
    2.3550   17.3170   -2.4210 C   0  0  2  0  0  0  0  0  0  0  0  0
    0.8750   17.6160   -2.7320 C   0  0  0  0  0  0  0  0  0  0  0  0
    0.4070   18.9870   -2.2370 C   0  0  0  0  0  0  0  0  0  0  0  0
   -0.9710   18.9240   -1.6510 C   0  0  2  0  0  0  0  0  0  0  0  0
   -1.6200   20.1940   -1.5070 O   0  0  0  0  0  0  0  0  0  0  0  0
   -1.3280   19.4900   -0.2890 C   0  0  0  0  0  0  0  0  0  0  0  0
   -0.3030   20.1600    0.5710 C   0  0  0  0  0  0  0  0  0  0  0  0
   -2.5430   18.9630    0.4090 C   0  0  0  0  0  0  0  0  0  0  0  0
    2.4890   15.9270   -1.8120 C   0  0  1  0  0  0  0  0  0  0  0  0
    3.4820   15.8890   -0.6200 C   0  0  0  0  0  0  0  0  0  0  0  0
    2.9250   14.8580    0.3950 C   0  0  0  0  0  0  0  0  0  0  0  0
    1.8240   14.1000   -0.3840 C   0  0  1  0  0  0  0  0  0  0  0  0
    2.5910   13.0390   -1.2330 C   0  0  0  0  0  0  0  0  0  0  0  0
    0.6960   13.4450    0.4770 C   0  0  2  0  0  0  0  0  0  0  0  0
    1.1690   12.3480    1.4470 C   0  0  0  0  0  0  0  0  0  0  0  0
    1.1640   10.9620    0.8930 C   0  0  0  0  0  0  0  0  0  0  0  0
    0.5320   10.5700   -0.2290 C   0  0  0  0  0  0  0  0  0  0  0  0
   -0.3550   11.5440   -1.0150 C   0  0  1  0  0  0  0  0  0  0  0  0
   -1.6950   10.8510   -1.3730 C   0  0  0  0  0  0  0  0  0  0  0  0
   -1.4920    9.5280   -2.1050 C   0  0  0  0  0  0  0  0  0  0  0  0
   -0.6550    8.5640   -1.2670 C   0  0  2  0  0  0  0  0  0  0  0  0
   -1.4040    8.1930   -0.1060 O   0  0  0  0  0  0  0  0  0  0  0  0
    0.7160    9.1580   -0.8380 C   0  0  0  0  0  0  0  0  0  0  0  0
    1.6410    9.2790   -2.0740 C   0  0  0  0  0  0  0  0  0  0  0  0
    1.3980    8.1410    0.1170 C   0  0  0  0  0  0  0  0  0  0  0  0
   -0.5650   12.9750   -0.3560 C   0  0  1  0  0  0  0  0  0  0  0  0
   -1.7650   12.9320    0.6390 C   0  0  0  0  0  0  0  0  0  0  0  0
   -0.9580   14.0060   -1.4800 C   0  0  0  0  0  0  0  0  0  0  0  0
    0.2010   14.7090   -2.2120 C   0  0  0  0  0  0  0  0  0  0  0  0
    1.2110   15.2860   -1.2150 C   0  0  2  0  0  0  0  0  0  0  0  0
    0.4730   16.3730   -0.3610 C   0  0  0  0  0  0  0  0  0  0  0  0
    2.7935   18.0618   -0.4378 H   0  0  0  0  0  0  0  0  0  0  0  0
    4.0512   18.4279   -1.6669 H   0  0  0  0  0  0  0  0  0  0  0  0
    2.5032   19.3392   -1.6669 H   0  0  0  0  0  0  0  0  0  0  0  0
    2.9072   17.3610   -3.3713 H   0  0  0  0  0  0  0  0  0  0  0  0
    0.7337   17.5736   -3.8221 H   0  0  0  0  0  0  0  0  0  0  0  0
    0.2761   16.8611   -2.2015 H   0  0  0  0  0  0  0  0  0  0  0  0
    1.1058   19.3456   -1.4669 H   0  0  0  0  0  0  0  0  0  0  0  0
    0.3828   19.6722   -3.0972 H   0  0  0  0  0  0  0  0  0  0  0  0
   -1.1461   17.9399   -2.1102 H   0  0  0  0  0  0  0  0  0  0  0  0
   -0.5508   19.9981    1.6304 H   0  0  0  0  0  0  0  0  0  0  0  0
    0.6890   19.7354    0.3574 H   0  0  0  0  0  0  0  0  0  0  0  0
   -0.2938   21.2390    0.3574 H   0  0  0  0  0  0  0  0  0  0  0  0
   -2.3970   19.0263    1.4974 H   0  0  0  0  0  0  0  0  0  0  0  0
   -3.4198   19.5617    0.1212 H   0  0  0  0  0  0  0  0  0  0  0  0
   -2.7050   17.9137    0.1212 H   0  0  0  0  0  0  0  0  0  0  0  0
    2.8114   15.3669   -2.7022 H   0  0  0  0  0  0  0  0  0  0  0  0
    4.4785   15.5782   -0.9671 H   0  0  0  0  0  0  0  0  0  0  0  0
    3.5824   16.8824   -0.1584 H   0  0  0  0  0  0  0  0  0  0  0  0
    3.7164   14.1668    0.7205 H   0  0  0  0  0  0  0  0  0  0  0  0
    2.5371   15.3369    1.3061 H   0  0  0  0  0  0  0  0  0  0  0  0
    3.1018   12.3324   -0.5624 H   0  0  0  0  0  0  0  0  0  0  0  0
    1.8781   12.4921   -1.8676 H   0  0  0  0  0  0  0  0  0  0  0  0
    3.3338   13.5445   -1.8676 H   0  0  0  0  0  0  0  0  0  0  0  0
    0.3668   14.2821    1.1102 H   0  0  0  0  0  0  0  0  0  0  0  0
    2.1975   12.5872    1.7553 H   0  0  0  0  0  0  0  0  0  0  0  0
    0.4491   12.3460    2.2787 H   0  0  0  0  0  0  0  0  0  0  0  0
    1.7244   10.1958    1.4488 H   0  0  0  0  0  0  0  0  0  0  0  0
    0.1978   11.7840   -1.9352 H   0  0  0  0  0  0  0  0  0  0  0  0
   -2.2515   10.6582   -0.4440 H   0  0  0  0  0  0  0  0  0  0  0  0
   -2.2493   11.5228   -2.0449 H   0  0  0  0  0  0  0  0  0  0  0  0
   -2.4732    9.0728   -2.3048 H   0  0  0  0  0  0  0  0  0  0  0  0
   -0.9610    9.7260   -3.0478 H   0  0  0  0  0  0  0  0  0  0  0  0
   -0.4344    7.6872   -1.8935 H   0  0  0  0  0  0  0  0  0  0  0  0
   -2.1610    8.7990   -0.0380 H   0  0  0  0  0  0  0  0  0  0  0  0
    2.6808    9.4150   -1.7419 H   0  0  0  0  0  0  0  0  0  0  0  0
    1.5661    8.3634   -2.6791 H   0  0  0  0  0  0  0  0  0  0  0  0
    1.3331   10.1445   -2.6791 H   0  0  0  0  0  0  0  0  0  0  0  0
    1.2038    8.4306    1.1603 H   0  0  0  0  0  0  0  0  0  0  0  0
    0.9907    7.1358   -0.0664 H   0  0  0  0  0  0  0  0  0  0  0  0
    2.4826    8.1362   -0.0664 H   0  0  0  0  0  0  0  0  0  0  0  0
   -1.3859   12.9456    1.6715 H   0  0  0  0  0  0  0  0  0  0  0  0
   -2.4100   13.8076    0.4737 H   0  0  0  0  0  0  0  0  0  0  0  0
   -2.3456   12.0125    0.4737 H   0  0  0  0  0  0  0  0  0  0  0  0
   -1.5500   13.4668   -2.2342 H   0  0  0  0  0  0  0  0  0  0  0  0
   -1.4990   14.8092   -0.9582 H   0  0  0  0  0  0  0  0  0  0  0  0
    0.7111   13.9812   -2.8602 H   0  0  0  0  0  0  0  0  0  0  0  0
   -0.2119   15.5349   -2.8099 H   0  0  0  0  0  0  0  0  0  0  0  0
    0.6178   16.1597    0.7084 H   0  0  0  0  0  0  0  0  0  0  0  0
    0.8846   17.3656   -0.5959 H   0  0  0  0  0  0  0  0  0  0  0  0
   -0.6015   16.3567   -0.5959 H   0  0  0  0  0  0  0  0  0  0  0  0
  1  2  1  0
  2  3  1  0
  3  4  1  0
  4  5  1  0
  5  6  1  0
  6  7  1  0
  7  8  1  0
  7  9  1  0
  2 10  1  0
 10 11  1  0
 11 12  1  0
 12 13  1  0
 13 14  1  6
 13 15  1  0
 15 16  1  0
 16 17  1  0
 17 18  2  0
 18 19  1  0
 19 20  1  0
 20 21  1  0
 21 22  1  0
 22 23  1  0
 22 24  1  0
 24 25  1  0
 24 26  1  0
 19 27  1  0
 27 28  1  1
 27 29  1  0
 29 30  1  0
 30 31  1  0
 31 32  1  1
  7  5  1  0
 31 10  1  0
 31 13  1  0
 27 15  1  0
 24 18  1  0
  1 33  1  0
  1 34  1  0
  1 35  1  0
  2 36  1  6
  3 37  1  0
  3 38  1  0
  4 39  1  0
  4 40  1  0
  5 41  1  6
  8 42  1  0
  8 43  1  0
  8 44  1  0
  9 45  1  0
  9 46  1  0
  9 47  1  0
 10 48  1  6
 11 49  1  0
 11 50  1  0
 12 51  1  0
 12 52  1  0
 14 53  1  0
 14 54  1  0
 14 55  1  0
 15 56  1  1
 16 57  1  0
 16 58  1  0
 17 59  1  0
 19 60  1  6
 20 61  1  0
 20 62  1  0
 21 63  1  0
 21 64  1  0
 22 65  1  6
 23 66  1  0
 25 67  1  0
 25 68  1  0
 25 69  1  0
 26 70  1  0
 26 71  1  0
 26 72  1  0
 28 73  1  0
 28 74  1  0
 28 75  1  0
 29 76  1  0
 29 77  1  0
 30 78  1  0
 30 79  1  0
 32 80  1  0
 32 81  1  0
 32 82  1  0
M  END
>  <meeko>  (13) 
{"is_sidechain": [false], "intermolecular_energy": 2.731, "internal_energy": -0.839}

$$$$
EPH_relaxed_0001_pdb2pqr_Repair_354_r2_0001_out
     RDKit          3D

 82 86  0  0  0  0  0  0  0  0999 V2000
    2.3720   16.5980   -0.7070 C   0  0  0  0  0  0  0  0  0  0  0  0
    2.1740   16.3140   -2.1980 C   0  0  2  0  0  0  0  0  0  0  0  0
    1.7670   17.5780   -2.9810 C   0  0  0  0  0  0  0  0  0  0  0  0
    1.4690   18.7860   -2.0890 C   0  0  0  0  0  0  0  0  0  0  0  0
    0.0170   18.8610   -1.7250 C   0  0  2  0  0  0  0  0  0  0  0  0
   -0.5040   20.1920   -1.6100 O   0  0  0  0  0  0  0  0  0  0  0  0
   -0.4870   19.4120   -0.4030 C   0  0  0  0  0  0  0  0  0  0  0  0
    0.4570   19.9240    0.6390 C   0  0  0  0  0  0  0  0  0  0  0  0
   -1.8470   19.0040    0.0700 C   0  0  0  0  0  0  0  0  0  0  0  0
    1.1230   15.2250   -2.3840 C   0  0  1  0  0  0  0  0  0  0  0  0
    1.1050   14.6520   -3.8260 C   0  0  0  0  0  0  0  0  0  0  0  0
    0.7620   13.1450   -3.7040 C   0  0  0  0  0  0  0  0  0  0  0  0
    0.2710   12.9730   -2.2480 C   0  0  1  0  0  0  0  0  0  0  0  0
   -1.2180   13.4400   -2.2690 C   0  0  0  0  0  0  0  0  0  0  0  0
    0.4200   11.5440   -1.6330 C   0  0  2  0  0  0  0  0  0  0  0  0
   -0.3880   10.4420   -2.3400 C   0  0  0  0  0  0  0  0  0  0  0  0
   -1.7660   10.2210   -1.8100 C   0  0  0  0  0  0  0  0  0  0  0  0
   -2.2330   10.6750   -0.6330 C   0  0  0  0  0  0  0  0  0  0  0  0
   -1.3130   11.4130    0.3480 C   0  0  1  0  0  0  0  0  0  0  0  0
   -1.5190   10.8470    1.7770 C   0  0  0  0  0  0  0  0  0  0  0  0
   -2.9810   10.8770    2.2130 C   0  0  0  0  0  0  0  0  0  0  0  0
   -3.8550   10.0840    1.2460 C   0  0  2  0  0  0  0  0  0  0  0  0
   -3.5060    8.7000    1.3380 O   0  0  0  0  0  0  0  0  0  0  0  0
   -3.7240   10.5590   -0.2290 C   0  0  0  0  0  0  0  0  0  0  0  0
   -4.3800   11.9530   -0.3870 C   0  0  0  0  0  0  0  0  0  0  0  0
   -4.5460    9.5880   -1.1180 C   0  0  0  0  0  0  0  0  0  0  0  0
    0.2200   11.4890   -0.0640 C   0  0  1  0  0  0  0  0  0  0  0  0
    0.9690   10.2160    0.4360 C   0  0  0  0  0  0  0  0  0  0  0  0
    0.8890   12.7130    0.6670 C   0  0  0  0  0  0  0  0  0  0  0  0
    0.8120   14.0760   -0.0480 C   0  0  0  0  0  0  0  0  0  0  0  0
    1.2540   13.9530   -1.5090 C   0  0  2  0  0  0  0  0  0  0  0  0
    2.7560   13.5070   -1.5200 C   0  0  0  0  0  0  0  0  0  0  0  0
    1.8417   15.8373   -0.1153 H   0  0  0  0  0  0  0  0  0  0  0  0
    3.4451   16.5667   -0.4671 H   0  0  0  0  0  0  0  0  0  0  0  0
    1.9715   17.5940   -0.4671 H   0  0  0  0  0  0  0  0  0  0  0  0
    3.1389   15.9728   -2.6011 H   0  0  0  0  0  0  0  0  0  0  0  0
    2.5886   17.8439   -3.6624 H   0  0  0  0  0  0  0  0  0  0  0  0
    0.8373   17.3379   -3.5176 H   0  0  0  0  0  0  0  0  0  0  0  0
    2.0639   18.7041   -1.1674 H   0  0  0  0  0  0  0  0  0  0  0  0
    1.7304   19.6973   -2.6469 H   0  0  0  0  0  0  0  0  0  0  0  0
   -0.1898   17.9226   -2.2604 H   0  0  0  0  0  0  0  0  0  0  0  0
    0.0535   19.7051    1.6386 H   0  0  0  0  0  0  0  0  0  0  0  0
    1.4339   19.4321    0.5222 H   0  0  0  0  0  0  0  0  0  0  0  0
    0.5775   21.0111    0.5222 H   0  0  0  0  0  0  0  0  0  0  0  0
   -1.8662   18.9982    1.1698 H   0  0  0  0  0  0  0  0  0  0  0  0
   -2.5953   19.7172   -0.3061 H   0  0  0  0  0  0  0  0  0  0  0  0
   -2.0791   17.9967   -0.3061 H   0  0  0  0  0  0  0  0  0  0  0  0
    0.2222   15.7876   -2.0974 H   0  0  0  0  0  0  0  0  0  0  0  0
    0.3421   15.1666   -4.4286 H   0  0  0  0  0  0  0  0  0  0  0  0
    2.0766   14.7972   -4.3209 H   0  0  0  0  0  0  0  0  0  0  0  0
   -0.0295   12.8681   -4.4159 H   0  0  0  0  0  0  0  0  0  0  0  0
    1.6243   12.5013   -3.9321 H   0  0  0  0  0  0  0  0  0  0  0  0
   -1.5811   13.5539   -1.2369 H   0  0  0  0  0  0  0  0  0  0  0  0
   -1.2924   14.4046   -2.7924 H   0  0  0  0  0  0  0  0  0  0  0  0
   -1.8300   12.6906   -2.7924 H   0  0  0  0  0  0  0  0  0  0  0  0
    1.4774   11.3127   -1.8289 H   0  0  0  0  0  0  0  0  0  0  0  0
   -0.4721   10.7114   -3.4032 H   0  0  0  0  0  0  0  0  0  0  0  0
    0.1592    9.5040   -2.1647 H   0  0  0  0  0  0  0  0  0  0  0  0
   -2.4581    9.6375   -2.4349 H   0  0  0  0  0  0  0  0  0  0  0  0
   -1.6200   12.4689    0.3179 H   0  0  0  0  0  0  0  0  0  0  0  0
   -1.1661    9.8054    1.7980 H   0  0  0  0  0  0  0  0  0  0  0  0
   -0.9500   11.4813    2.4726 H   0  0  0  0  0  0  0  0  0  0  0  0
   -3.0660   10.4378    3.2179 H   0  0  0  0  0  0  0  0  0  0  0  0
   -3.3239   11.9222    2.2196 H   0  0  0  0  0  0  0  0  0  0  0  0
   -4.9028   10.2496    1.5371 H   0  0  0  0  0  0  0  0  0  0  0  0
   -4.2740    8.2270    1.7030 H   0  0  0  0  0  0  0  0  0  0  0  0
   -4.5804   12.3788    0.6073 H   0  0  0  0  0  0  0  0  0  0  0  0
   -3.7001   12.6176   -0.9402 H   0  0  0  0  0  0  0  0  0  0  0  0
   -5.3254   11.8527   -0.9402 H   0  0  0  0  0  0  0  0  0  0  0  0
   -5.1240    8.9052   -0.4779 H   0  0  0  0  0  0  0  0  0  0  0  0
   -5.2338   10.1656   -1.7531 H   0  0  0  0  0  0  0  0  0  0  0  0
   -3.8628    9.0050   -1.7531 H   0  0  0  0  0  0  0  0  0  0  0  0
    0.9765   10.2033    1.5359 H   0  0  0  0  0  0  0  0  0  0  0  0
    0.4553    9.3179    0.0624 H   0  0  0  0  0  0  0  0  0  0  0  0
    2.0035   10.2288    0.0624 H   0  0  0  0  0  0  0  0  0  0  0  0
    0.4008   12.8230    1.6466 H   0  0  0  0  0  0  0  0  0  0  0  0
    1.9612   12.4711    0.7109 H   0  0  0  0  0  0  0  0  0  0  0  0
   -0.2249   14.4418   -0.0151 H   0  0  0  0  0  0  0  0  0  0  0  0
    1.4844   14.7798    0.4643 H   0  0  0  0  0  0  0  0  0  0  0  0
    3.1145   13.4006   -0.4855 H   0  0  0  0  0  0  0  0  0  0  0  0
    2.8483   12.5427   -2.0411 H   0  0  0  0  0  0  0  0  0  0  0  0
    3.3597   14.2647   -2.0411 H   0  0  0  0  0  0  0  0  0  0  0  0
  1  2  1  0
  2  3  1  0
  3  4  1  0
  4  5  1  0
  5  6  1  0
  6  7  1  0
  7  8  1  0
  7  9  1  0
  2 10  1  0
 10 11  1  0
 11 12  1  0
 12 13  1  0
 13 14  1  6
 13 15  1  0
 15 16  1  0
 16 17  1  0
 17 18  2  0
 18 19  1  0
 19 20  1  0
 20 21  1  0
 21 22  1  0
 22 23  1  0
 22 24  1  0
 24 25  1  0
 24 26  1  0
 19 27  1  0
 27 28  1  1
 27 29  1  0
 29 30  1  0
 30 31  1  0
 31 32  1  1
  7  5  1  0
 31 10  1  0
 31 13  1  0
 27 15  1  0
 24 18  1  0
  1 33  1  0
  1 34  1  0
  1 35  1  0
  2 36  1  6
  3 37  1  0
  3 38  1  0
  4 39  1  0
  4 40  1  0
  5 41  1  6
  8 42  1  0
  8 43  1  0
  8 44  1  0
  9 45  1  0
  9 46  1  0
  9 47  1  0
 10 48  1  1
 11 49  1  0
 11 50  1  0
 12 51  1  0
 12 52  1  0
 14 53  1  0
 14 54  1  0
 14 55  1  0
 15 56  1  1
 16 57  1  0
 16 58  1  0
 17 59  1  0
 19 60  1  1
 20 61  1  0
 20 62  1  0
 21 63  1  0
 21 64  1  0
 22 65  1  1
 23 66  1  0
 25 67  1  0
 25 68  1  0
 25 69  1  0
 26 70  1  0
 26 71  1  0
 26 72  1  0
 28 73  1  0
 28 74  1  0
 28 75  1  0
 29 76  1  0
 29 77  1  0
 30 78  1  0
 30 79  1  0
 32 80  1  0
 32 81  1  0
 32 82  1  0
M  END
>  <meeko>  (14) 
{"is_sidechain": [false], "intermolecular_energy": 2.731, "internal_energy": -0.839}

$$$$
EPH_relaxed_0001_pdb2pqr_Repair_354_r2_0001_out
     RDKit          3D

 82 86  0  0  0  0  0  0  0  0999 V2000
   -0.4790    7.7250   -2.2400 C   0  0  0  0  0  0  0  0  0  0  0  0
   -1.8590    8.1800   -1.7590 C   0  0  2  0  0  0  0  0  0  0  0  0
   -2.9830    7.7420   -2.7200 C   0  0  0  0  0  0  0  0  0  0  0  0
   -4.1470    7.0330   -2.0230 C   0  0  0  0  0  0  0  0  0  0  0  0
   -5.3410    6.9140   -2.9210 C   0  0  2  0  0  0  0  0  0  0  0  0
   -6.2480    8.0230   -2.8600 O   0  0  0  0  0  0  0  0  0  0  0  0
   -6.7610    6.7590   -2.4080 C   0  0  0  0  0  0  0  0  0  0  0  0
   -7.0610    6.7140   -0.9430 C   0  0  0  0  0  0  0  0  0  0  0  0
   -7.7900    6.1650   -3.3190 C   0  0  0  0  0  0  0  0  0  0  0  0
   -1.8780    9.6950   -1.5930 C   0  0  1  0  0  0  0  0  0  0  0  0
   -3.2470   10.2240   -1.0860 C   0  0  0  0  0  0  0  0  0  0  0  0
   -2.9460   11.4310   -0.1620 C   0  0  0  0  0  0  0  0  0  0  0  0
   -1.4590   11.7640   -0.4270 C   0  0  1  0  0  0  0  0  0  0  0  0
   -1.4650   12.6090   -1.7390 C   0  0  0  0  0  0  0  0  0  0  0  0
   -0.6980   12.4950    0.7270 C   0  0  2  0  0  0  0  0  0  0  0  0
   -1.2450   13.8870    1.0890 C   0  0  0  0  0  0  0  0  0  0  0  0
   -0.6330   15.0270    0.3430 C   0  0  0  0  0  0  0  0  0  0  0  0
    0.5070   14.9720   -0.3700 C   0  0  0  0  0  0  0  0  0  0  0  0
    1.3590   13.6970   -0.3970 C   0  0  1  0  0  0  0  0  0  0  0  0
    2.8500   14.0660   -0.1760 C   0  0  0  0  0  0  0  0  0  0  0  0
    3.3450   15.1190   -1.1620 C   0  0  0  0  0  0  0  0  0  0  0  0
    2.5090   16.3930   -1.0650 C   0  0  2  0  0  0  0  0  0  0  0  0
    2.7370   16.9970    0.2130 O   0  0  0  0  0  0  0  0  0  0  0  0
    0.9880   16.1440   -1.2610 C   0  0  0  0  0  0  0  0  0  0  0  0
    0.7070   15.7770   -2.7390 C   0  0  0  0  0  0  0  0  0  0  0  0
    0.2470   17.4830   -0.9980 C   0  0  0  0  0  0  0  0  0  0  0  0
    0.8740   12.5190    0.5540 C   0  0  1  0  0  0  0  0  0  0  0  0
    1.4770   12.7040    1.9800 C   0  0  0  0  0  0  0  0  0  0  0  0
    1.4370   11.1540    0.0080 C   0  0  0  0  0  0  0  0  0  0  0  0
    0.5810   10.4200   -1.0430 C   0  0  0  0  0  0  0  0  0  0  0  0
   -0.8760   10.3130   -0.5850 C   0  0  2  0  0  0  0  0  0  0  0  0
   -0.9050    9.4490    0.7220 C   0  0  0  0  0  0  0  0  0  0  0  0
    0.1611    7.5140   -1.3707 H   0  0  0  0  0  0  0  0  0  0  0  0
   -0.5844    6.8140   -2.8475 H   0  0  0  0  0  0  0  0  0  0  0  0
   -0.0219    8.5200   -2.8475 H   0  0  0  0  0  0  0  0  0  0  0  0
   -2.0468    7.6967   -0.7889 H   0  0  0  0  0  0  0  0  0  0  0  0
   -3.3745    8.6362   -3.2270 H   0  0  0  0  0  0  0  0  0  0  0  0
   -2.5417    7.0203   -3.4232 H   0  0  0  0  0  0  0  0  0  0  0  0
   -3.8233    6.0249   -1.7248 H   0  0  0  0  0  0  0  0  0  0  0  0
   -4.4360    7.6298   -1.1453 H   0  0  0  0  0  0  0  0  0  0  0  0
   -4.7580    6.3467   -3.6614 H   0  0  0  0  0  0  0  0  0  0  0  0
   -6.1302    6.8536   -0.3737 H   0  0  0  0  0  0  0  0  0  0  0  0
   -7.7699    7.5159   -0.6891 H   0  0  0  0  0  0  0  0  0  0  0  0
   -7.5035    5.7394   -0.6891 H   0  0  0  0  0  0  0  0  0  0  0  0
   -8.5885    5.7040   -2.7191 H   0  0  0  0  0  0  0  0  0  0  0  0
   -8.2178    6.9551   -3.9536 H   0  0  0  0  0  0  0  0  0  0  0  0
   -7.3197    5.3994   -3.9536 H   0  0  0  0  0  0  0  0  0  0  0  0
   -1.6151    9.9956   -2.6180 H   0  0  0  0  0  0  0  0  0  0  0  0
   -3.8679   10.5433   -1.9360 H   0  0  0  0  0  0  0  0  0  0  0  0
   -3.7972    9.4402   -0.5449 H   0  0  0  0  0  0  0  0  0  0  0  0
   -3.5874   12.2867   -0.4196 H   0  0  0  0  0  0  0  0  0  0  0  0
   -3.1405   11.2045    0.8967 H   0  0  0  0  0  0  0  0  0  0  0  0
   -1.4726   13.6794   -1.4857 H   0  0  0  0  0  0  0  0  0  0  0  0
   -0.5652   12.3780   -2.3280 H   0  0  0  0  0  0  0  0  0  0  0  0
   -2.3614   12.3652   -2.3280 H   0  0  0  0  0  0  0  0  0  0  0  0
   -0.9131   11.8539    1.5946 H   0  0  0  0  0  0  0  0  0  0  0  0
   -2.3263   13.8902    0.8872 H   0  0  0  0  0  0  0  0  0  0  0  0
   -0.9938   14.0466    2.1480 H   0  0  0  0  0  0  0  0  0  0  0  0
   -1.1583   15.9928    0.3794 H   0  0  0  0  0  0  0  0  0  0  0  0
    1.2265   13.2633   -1.3992 H   0  0  0  0  0  0  0  0  0  0  0  0
    2.9689   14.4562    0.8456 H   0  0  0  0  0  0  0  0  0  0  0  0
    3.4460   13.1550   -0.3337 H   0  0  0  0  0  0  0  0  0  0  0  0
    4.3944   15.3589   -0.9358 H   0  0  0  0  0  0  0  0  0  0  0  0
    3.2538   14.7159   -2.1814 H   0  0  0  0  0  0  0  0  0  0  0  0
    2.8253   17.0585   -1.8817 H   0  0  0  0  0  0  0  0  0  0  0  0
    1.8940   17.3780    0.5120 H   0  0  0  0  0  0  0  0  0  0  0  0
    0.0387   14.9042   -2.7794 H   0  0  0  0  0  0  0  0  0  0  0  0
    0.2282   16.6291   -3.2437 H   0  0  0  0  0  0  0  0  0  0  0  0
    1.6545   15.5370   -3.2437 H   0  0  0  0  0  0  0  0  0  0  0  0
    0.1571   17.6455    0.0862 H   0  0  0  0  0  0  0  0  0  0  0  0
    0.8153   18.3109   -1.4470 H   0  0  0  0  0  0  0  0  0  0  0  0
   -0.7563   17.4411   -1.4470 H   0  0  0  0  0  0  0  0  0  0  0  0
    0.7121   12.4693    2.7348 H   0  0  0  0  0  0  0  0  0  0  0  0
    2.3356   12.0280    2.1056 H   0  0  0  0  0  0  0  0  0  0  0  0
    1.8087   13.7452    2.1056 H   0  0  0  0  0  0  0  0  0  0  0  0
    2.4189   11.3563   -0.4448 H   0  0  0  0  0  0  0  0  0  0  0  0
    1.4607   10.4832    0.8794 H   0  0  0  0  0  0  0  0  0  0  0  0
    0.6203   10.9762   -1.9912 H   0  0  0  0  0  0  0  0  0  0  0  0
    0.9826    9.4045   -1.1755 H   0  0  0  0  0  0  0  0  0  0  0  0
   -0.8828   10.1113    1.6000 H   0  0  0  0  0  0  0  0  0  0  0  0
   -1.8239    8.8447    0.7418 H   0  0  0  0  0  0  0  0  0  0  0  0
   -0.0287    8.7844    0.7418 H   0  0  0  0  0  0  0  0  0  0  0  0
  1  2  1  0
  2  3  1  0
  3  4  1  0
  4  5  1  0
  5  6  1  0
  6  7  1  0
  7  8  1  0
  7  9  1  0
  2 10  1  0
 10 11  1  0
 11 12  1  0
 12 13  1  0
 13 14  1  6
 13 15  1  0
 15 16  1  0
 16 17  1  0
 17 18  2  0
 18 19  1  0
 19 20  1  0
 20 21  1  0
 21 22  1  0
 22 23  1  0
 22 24  1  0
 24 25  1  0
 24 26  1  0
 19 27  1  0
 27 28  1  1
 27 29  1  0
 29 30  1  0
 30 31  1  0
 31 32  1  1
  7  5  1  0
 31 10  1  0
 31 13  1  0
 27 15  1  0
 24 18  1  0
  1 33  1  0
  1 34  1  0
  1 35  1  0
  2 36  1  1
  3 37  1  0
  3 38  1  0
  4 39  1  0
  4 40  1  0
  5 41  1  6
  8 42  1  0
  8 43  1  0
  8 44  1  0
  9 45  1  0
  9 46  1  0
  9 47  1  0
 10 48  1  6
 11 49  1  0
 11 50  1  0
 12 51  1  0
 12 52  1  0
 14 53  1  0
 14 54  1  0
 14 55  1  0
 15 56  1  1
 16 57  1  0
 16 58  1  0
 17 59  1  0
 19 60  1  6
 20 61  1  0
 20 62  1  0
 21 63  1  0
 21 64  1  0
 22 65  1  6
 23 66  1  0
 25 67  1  0
 25 68  1  0
 25 69  1  0
 26 70  1  0
 26 71  1  0
 26 72  1  0
 28 73  1  0
 28 74  1  0
 28 75  1  0
 29 76  1  0
 29 77  1  0
 30 78  1  0
 30 79  1  0
 32 80  1  0
 32 81  1  0
 32 82  1  0
M  END
>  <meeko>  (15) 
{"is_sidechain": [false], "intermolecular_energy": 2.731, "internal_energy": -0.839}

$$$$
EPH_relaxed_0001_pdb2pqr_Repair_354_r2_0001_out
     RDKit          3D

 82 86  0  0  0  0  0  0  0  0999 V2000
   -1.0310   16.4450   -6.1130 C   0  0  0  0  0  0  0  0  0  0  0  0
    0.1760   15.6930   -6.6830 C   0  0  2  0  0  0  0  0  0  0  0  0
   -0.0170   15.3250   -8.1680 C   0  0  0  0  0  0  0  0  0  0  0  0
    0.5300   16.3750   -9.1380 C   0  0  0  0  0  0  0  0  0  0  0  0
    1.9350   16.0640   -9.5570 C   0  0  2  0  0  0  0  0  0  0  0  0
    2.3380   16.6650  -10.7950 O   0  0  0  0  0  0  0  0  0  0  0  0
    2.2780   15.2290  -10.7770 C   0  0  0  0  0  0  0  0  0  0  0  0
    1.2110   14.6530  -11.6540 C   0  0  0  0  0  0  0  0  0  0  0  0
    3.6210   14.5700  -10.8380 C   0  0  0  0  0  0  0  0  0  0  0  0
    0.4380   14.4350   -5.8640 C   0  0  1  0  0  0  0  0  0  0  0  0
    1.5880   13.5710   -6.4480 C   0  0  0  0  0  0  0  0  0  0  0  0
    2.3280   12.9380   -5.2420 C   0  0  0  0  0  0  0  0  0  0  0  0
    1.3920   13.1840   -4.0360 C   0  0  1  0  0  0  0  0  0  0  0  0
    0.3150   12.0570   -4.1280 C   0  0  0  0  0  0  0  0  0  0  0  0
    2.0710   13.2200   -2.6280 C   0  0  2  0  0  0  0  0  0  0  0  0
    2.7540   11.9090   -2.2000 C   0  0  0  0  0  0  0  0  0  0  0  0
    1.8870   10.9560   -1.4460 C   0  0  0  0  0  0  0  0  0  0  0  0
    0.7040   11.2550   -0.8790 C   0  0  0  0  0  0  0  0  0  0  0  0
    0.1710   12.6940   -0.8820 C   0  0  1  0  0  0  0  0  0  0  0  0
   -0.3440   13.0580    0.5360 C   0  0  0  0  0  0  0  0  0  0  0  0
   -1.3680   12.0570    1.0620 C   0  0  0  0  0  0  0  0  0  0  0  0
   -0.7820   10.6490    1.1040 C   0  0  2  0  0  0  0  0  0  0  0  0
    0.2580   10.6110    2.0870 O   0  0  0  0  0  0  0  0  0  0  0  0
   -0.2220   10.1760   -0.2670 C   0  0  0  0  0  0  0  0  0  0  0  0
   -1.3940    9.9260   -1.2490 C   0  0  0  0  0  0  0  0  0  0  0  0
    0.4650    8.8000   -0.0530 C   0  0  0  0  0  0  0  0  0  0  0  0
    1.1500   13.7950   -1.4780 C   0  0  1  0  0  0  0  0  0  0  0  0
    2.1050   14.3180   -0.3610 C   0  0  0  0  0  0  0  0  0  0  0  0
    0.3020   15.0340   -1.9530 C   0  0  0  0  0  0  0  0  0  0  0  0
   -0.2420   14.9920   -3.3940 C   0  0  0  0  0  0  0  0  0  0  0  0
    0.8640   14.6230   -4.3870 C   0  0  2  0  0  0  0  0  0  0  0  0
    1.9510   15.7510   -4.3330 C   0  0  0  0  0  0  0  0  0  0  0  0
   -0.9924   16.4209   -5.0139 H   0  0  0  0  0  0  0  0  0  0  0  0
   -1.0087   17.4893   -6.4579 H   0  0  0  0  0  0  0  0  0  0  0  0
   -1.9585   15.9647   -6.4579 H   0  0  0  0  0  0  0  0  0  0  0  0
    1.0446   16.3651   -6.6203 H   0  0  0  0  0  0  0  0  0  0  0  0
    0.4991   14.3727   -8.3597 H   0  0  0  0  0  0  0  0  0  0  0  0
   -1.1007   15.2579   -8.3444 H   0  0  0  0  0  0  0  0  0  0  0  0
   -0.1107   16.4027  -10.0317 H   0  0  0  0  0  0  0  0  0  0  0  0
    0.5327   17.3478   -8.6245 H   0  0  0  0  0  0  0  0  0  0  0  0
    2.2604   16.0062   -8.5078 H   0  0  0  0  0  0  0  0  0  0  0  0
    0.4147   14.2231  -11.0286 H   0  0  0  0  0  0  0  0  0  0  0  0
    0.7903   15.4466  -12.2891 H   0  0  0  0  0  0  0  0  0  0  0  0
    1.6436   13.8659  -12.2891 H   0  0  0  0  0  0  0  0  0  0  0  0
    3.9878   14.3900   -9.8167 H   0  0  0  0  0  0  0  0  0  0  0  0
    3.5353   13.6116  -11.3711 H   0  0  0  0  0  0  0  0  0  0  0  0
    4.3266   15.2242  -11.3711 H   0  0  0  0  0  0  0  0  0  0  0  0
   -0.5594   13.9736   -5.9114 H   0  0  0  0  0  0  0  0  0  0  0  0
    1.1780   12.7831   -7.0969 H   0  0  0  0  0  0  0  0  0  0  0  0
    2.2722   14.1821   -7.0550 H   0  0  0  0  0  0  0  0  0  0  0  0
    2.4799   11.8604   -5.4020 H   0  0  0  0  0  0  0  0  0  0  0  0
    3.3265   13.3738   -5.0903 H   0  0  0  0  0  0  0  0  0  0  0  0
    0.0199   11.7482   -3.1143 H   0  0  0  0  0  0  0  0  0  0  0  0
   -0.5661   12.4350   -4.6672 H   0  0  0  0  0  0  0  0  0  0  0  0
    0.7325   11.1939   -4.6672 H   0  0  0  0  0  0  0  0  0  0  0  0
    2.8841   13.9458   -2.7767 H   0  0  0  0  0  0  0  0  0  0  0  0
    3.1106   11.3994   -3.1073 H   0  0  0  0  0  0  0  0  0  0  0  0
    3.5615   12.1970   -1.5108 H   0  0  0  0  0  0  0  0  0  0  0  0
    2.2459    9.9211   -1.3454 H   0  0  0  0  0  0  0  0  0  0  0  0
   -0.6645   12.7078   -1.5973 H   0  0  0  0  0  0  0  0  0  0  0  0
    0.5120   13.0823    1.2264 H   0  0  0  0  0  0  0  0  0  0  0  0
   -0.8391   14.0380    0.4697 H   0  0  0  0  0  0  0  0  0  0  0  0
   -1.6705   12.3515    2.0777 H   0  0  0  0  0  0  0  0  0  0  0  0
   -2.2367   12.0559    0.3872 H   0  0  0  0  0  0  0  0  0  0  0  0
   -1.5995    9.9601    1.3631 H   0  0  0  0  0  0  0  0  0  0  0  0
    0.8500   11.3630    1.9170 H   0  0  0  0  0  0  0  0  0  0  0  0
   -2.3142    9.7297   -0.6792 H   0  0  0  0  0  0  0  0  0  0  0  0
   -1.5373   10.8138   -1.8825 H   0  0  0  0  0  0  0  0  0  0  0  0
   -1.1626    9.0570   -1.8825 H   0  0  0  0  0  0  0  0  0  0  0  0
    0.5634    8.6030    1.0247 H   0  0  0  0  0  0  0  0  0  0  0  0
   -0.1444    8.0099   -0.5161 H   0  0  0  0  0  0  0  0  0  0  0  0
    1.4627    8.8123   -0.5161 H   0  0  0  0  0  0  0  0  0  0  0  0
    1.6781   14.0842    0.6255 H   0  0  0  0  0  0  0  0  0  0  0  0
    3.0866   13.8315   -0.4604 H   0  0  0  0  0  0  0  0  0  0  0  0
    2.2238   15.4070   -0.4604 H   0  0  0  0  0  0  0  0  0  0  0  0
   -0.5590   15.1277   -1.2748 H   0  0  0  0  0  0  0  0  0  0  0  0
    0.9991   15.8847   -1.9331 H   0  0  0  0  0  0  0  0  0  0  0  0
   -1.0444   14.2419   -3.4540 H   0  0  0  0  0  0  0  0  0  0  0  0
   -0.6271   15.9894   -3.6527 H   0  0  0  0  0  0  0  0  0  0  0  0
    2.1805   15.9891   -3.2839 H   0  0  0  0  0  0  0  0  0  0  0  0
    2.8644   15.4045   -4.8386 H   0  0  0  0  0  0  0  0  0  0  0  0
    1.5709   16.6510   -4.8386 H   0  0  0  0  0  0  0  0  0  0  0  0
  1  2  1  0
  2  3  1  0
  3  4  1  0
  4  5  1  0
  5  6  1  0
  6  7  1  0
  7  8  1  0
  7  9  1  0
  2 10  1  0
 10 11  1  0
 11 12  1  0
 12 13  1  0
 13 14  1  1
 13 15  1  0
 15 16  1  0
 16 17  1  0
 17 18  2  0
 18 19  1  0
 19 20  1  0
 20 21  1  0
 21 22  1  0
 22 23  1  0
 22 24  1  0
 24 25  1  0
 24 26  1  0
 19 27  1  0
 27 28  1  1
 27 29  1  0
 29 30  1  0
 30 31  1  0
 31 32  1  6
  7  5  1  0
 31 10  1  0
 31 13  1  0
 27 15  1  0
 24 18  1  0
  1 33  1  0
  1 34  1  0
  1 35  1  0
  2 36  1  6
  3 37  1  0
  3 38  1  0
  4 39  1  0
  4 40  1  0
  5 41  1  1
  8 42  1  0
  8 43  1  0
  8 44  1  0
  9 45  1  0
  9 46  1  0
  9 47  1  0
 10 48  1  1
 11 49  1  0
 11 50  1  0
 12 51  1  0
 12 52  1  0
 14 53  1  0
 14 54  1  0
 14 55  1  0
 15 56  1  6
 16 57  1  0
 16 58  1  0
 17 59  1  0
 19 60  1  6
 20 61  1  0
 20 62  1  0
 21 63  1  0
 21 64  1  0
 22 65  1  1
 23 66  1  0
 25 67  1  0
 25 68  1  0
 25 69  1  0
 26 70  1  0
 26 71  1  0
 26 72  1  0
 28 73  1  0
 28 74  1  0
 28 75  1  0
 29 76  1  0
 29 77  1  0
 30 78  1  0
 30 79  1  0
 32 80  1  0
 32 81  1  0
 32 82  1  0
M  END
>  <meeko>  (16) 
{"is_sidechain": [false], "intermolecular_energy": 2.731, "internal_energy": -0.839}

$$$$
EPH_relaxed_0001_pdb2pqr_Repair_354_r2_0001_out
     RDKit          3D

 82 86  0  0  0  0  0  0  0  0999 V2000
    3.6860   12.3540   -5.3800 C   0  0  0  0  0  0  0  0  0  0  0  0
    2.1610   12.4810   -5.4410 C   0  0  2  0  0  0  0  0  0  0  0  0
    1.6870   13.9240   -5.1770 C   0  0  0  0  0  0  0  0  0  0  0  0
    0.8950   14.5340   -6.3360 C   0  0  0  0  0  0  0  0  0  0  0  0
    1.7710   14.8090   -7.5220 C   0  0  2  0  0  0  0  0  0  0  0  0
    2.1390   16.1840   -7.6890 O   0  0  0  0  0  0  0  0  0  0  0  0
    1.3210   15.6160   -8.7250 C   0  0  0  0  0  0  0  0  0  0  0  0
   -0.0550   16.2000   -8.8030 C   0  0  0  0  0  0  0  0  0  0  0  0
    2.0400   15.4250  -10.0240 C   0  0  0  0  0  0  0  0  0  0  0  0
    1.5200   11.5300   -4.4380 C   0  0  1  0  0  0  0  0  0  0  0  0
    2.4980   10.4300   -3.9470 C   0  0  0  0  0  0  0  0  0  0  0  0
    2.1500   10.1510   -2.4630 C   0  0  0  0  0  0  0  0  0  0  0  0
    0.7860   10.8470   -2.2450 C   0  0  1  0  0  0  0  0  0  0  0  0
   -0.2700    9.8470   -2.8110 C   0  0  0  0  0  0  0  0  0  0  0  0
    0.4520   11.2690   -0.7770 C   0  0  2  0  0  0  0  0  0  0  0  0
    0.3470   10.1090    0.2280 C   0  0  0  0  0  0  0  0  0  0  0  0
   -1.0170    9.5220    0.3840 C   0  0  0  0  0  0  0  0  0  0  0  0
   -2.1640   10.0870   -0.0360 C   0  0  0  0  0  0  0  0  0  0  0  0
   -2.1700   11.4900   -0.6550 C   0  0  1  0  0  0  0  0  0  0  0  0
   -3.3140   12.3290   -0.0270 C   0  0  0  0  0  0  0  0  0  0  0  0
   -4.6710   11.6390   -0.1320 C   0  0  0  0  0  0  0  0  0  0  0  0
   -4.6410   10.2720    0.5460 C   0  0  2  0  0  0  0  0  0  0  0  0
   -4.4680   10.4590    1.9540 O   0  0  0  0  0  0  0  0  0  0  0  0
   -3.5210    9.3420    0.0020 C   0  0  0  0  0  0  0  0  0  0  0  0
   -3.8700    8.8950   -1.4400 C   0  0  0  0  0  0  0  0  0  0  0  0
   -3.5100    8.0510    0.8650 C   0  0  0  0  0  0  0  0  0  0  0  0
   -0.7780   12.2570   -0.6500 C   0  0  1  0  0  0  0  0  0  0  0  0
   -0.5970   13.0220    0.6960 C   0  0  0  0  0  0  0  0  0  0  0  0
   -0.7880   13.3490   -1.7840 C   0  0  0  0  0  0  0  0  0  0  0  0
   -0.3330   12.8990   -3.1860 C   0  0  0  0  0  0  0  0  0  0  0  0
    0.9950   12.1400   -3.1140 C   0  0  2  0  0  0  0  0  0  0  0  0
    2.0820   13.1280   -2.5690 C   0  0  0  0  0  0  0  0  0  0  0  0
    4.0099   12.3270   -4.3291 H   0  0  0  0  0  0  0  0  0  0  0  0
    3.9972   11.4268   -5.8835 H   0  0  0  0  0  0  0  0  0  0  0  0
    4.1462   13.2169   -5.8835 H   0  0  0  0  0  0  0  0  0  0  0  0
    1.8472   12.2126   -6.4605 H   0  0  0  0  0  0  0  0  0  0  0  0
    1.0466   13.9209   -4.2826 H   0  0  0  0  0  0  0  0  0  0  0  0
    2.5892   14.5394   -5.0456 H   0  0  0  0  0  0  0  0  0  0  0  0
    0.1016   13.8327   -6.6338 H   0  0  0  0  0  0  0  0  0  0  0  0
    0.4691   15.4892   -5.9952 H   0  0  0  0  0  0  0  0  0  0  0  0
    2.2430   13.8195   -7.4321 H   0  0  0  0  0  0  0  0  0  0  0  0
   -0.4418   16.3642   -7.7864 H   0  0  0  0  0  0  0  0  0  0  0  0
   -0.0163   17.1593   -9.3399 H   0  0  0  0  0  0  0  0  0  0  0  0
   -0.7181   15.5057   -9.3399 H   0  0  0  0  0  0  0  0  0  0  0  0
    3.0859   15.1472   -9.8268 H   0  0  0  0  0  0  0  0  0  0  0  0
    1.5506   14.6257  -10.5999 H   0  0  0  0  0  0  0  0  0  0  0  0
    2.0118   16.3618  -10.5999 H   0  0  0  0  0  0  0  0  0  0  0  0
    0.6779   11.1647   -5.0441 H   0  0  0  0  0  0  0  0  0  0  0  0
    2.3698    9.5153   -4.5444 H   0  0  0  0  0  0  0  0  0  0  0  0
    3.5434   10.7557   -4.0526 H   0  0  0  0  0  0  0  0  0  0  0  0
    2.0678    9.0694   -2.2801 H   0  0  0  0  0  0  0  0  0  0  0  0
    2.9235   10.5242   -1.7757 H   0  0  0  0  0  0  0  0  0  0  0  0
   -0.7912    9.3534   -1.9775 H   0  0  0  0  0  0  0  0  0  0  0  0
   -0.9991   10.3935   -3.4272 H   0  0  0  0  0  0  0  0  0  0  0  0
    0.2360    9.0892   -3.4272 H   0  0  0  0  0  0  0  0  0  0  0  0
    1.3484   11.8361   -0.4856 H   0  0  0  0  0  0  0  0  0  0  0  0
    1.0253    9.3092   -0.1039 H   0  0  0  0  0  0  0  0  0  0  0  0
    0.6106   10.5313    1.2089 H   0  0  0  0  0  0  0  0  0  0  0  0
   -1.0906    8.5452    0.8845 H   0  0  0  0  0  0  0  0  0  0  0  0
   -2.3585   11.3464   -1.7292 H   0  0  0  0  0  0  0  0  0  0  0  0
   -3.0853   12.4975    1.0357 H   0  0  0  0  0  0  0  0  0  0  0  0
   -3.3771   13.2763   -0.5825 H   0  0  0  0  0  0  0  0  0  0  0  0
   -5.4324   12.2659    0.3551 H   0  0  0  0  0  0  0  0  0  0  0  0
   -4.9123   11.4983   -1.1960 H   0  0  0  0  0  0  0  0  0  0  0  0
   -5.5968    9.7743    0.3253 H   0  0  0  0  0  0  0  0  0  0  0  0
   -5.3440   10.3890    2.3700 H   0  0  0  0  0  0  0  0  0  0  0  0
   -4.5465    8.0285   -1.4017 H   0  0  0  0  0  0  0  0  0  0  0  0
   -4.3635    9.7223   -1.9710 H   0  0  0  0  0  0  0  0  0  0  0  0
   -2.9477    8.6169   -1.9710 H   0  0  0  0  0  0  0  0  0  0  0  0
   -3.5123    8.3225    1.9310 H   0  0  0  0  0  0  0  0  0  0  0  0
   -4.4031    7.4504    0.6377 H   0  0  0  0  0  0  0  0  0  0  0  0
   -2.6068    7.4657    0.6377 H   0  0  0  0  0  0  0  0  0  0  0  0
   -0.7606   12.3305    1.5357 H   0  0  0  0  0  0  0  0  0  0  0  0
    0.4227   13.4309    0.7511 H   0  0  0  0  0  0  0  0  0  0  0  0
   -1.3253   13.8445    0.7511 H   0  0  0  0  0  0  0  0  0  0  0  0
   -1.8173   13.7265   -1.8734 H   0  0  0  0  0  0  0  0  0  0  0  0
   -0.0478   14.0989   -1.4681 H   0  0  0  0  0  0  0  0  0  0  0  0
   -1.1005   12.2409   -3.6194 H   0  0  0  0  0  0  0  0  0  0  0  0
   -0.1930   13.7921   -3.8127 H   0  0  0  0  0  0  0  0  0  0  0  0
    2.0694   13.1166   -1.4691 H   0  0  0  0  0  0  0  0  0  0  0  0
    3.0740   12.8159   -2.9276 H   0  0  0  0  0  0  0  0  0  0  0  0
    1.8658   14.1452   -2.9276 H   0  0  0  0  0  0  0  0  0  0  0  0
  1  2  1  0
  2  3  1  0
  3  4  1  0
  4  5  1  0
  5  6  1  0
  6  7  1  0
  7  8  1  0
  7  9  1  0
  2 10  1  0
 10 11  1  0
 11 12  1  0
 12 13  1  0
 13 14  1  6
 13 15  1  0
 15 16  1  0
 16 17  1  0
 17 18  2  0
 18 19  1  0
 19 20  1  0
 20 21  1  0
 21 22  1  0
 22 23  1  0
 22 24  1  0
 24 25  1  0
 24 26  1  0
 19 27  1  0
 27 28  1  1
 27 29  1  0
 29 30  1  0
 30 31  1  0
 31 32  1  1
  7  5  1  0
 31 10  1  0
 31 13  1  0
 27 15  1  0
 24 18  1  0
  1 33  1  0
  1 34  1  0
  1 35  1  0
  2 36  1  6
  3 37  1  0
  3 38  1  0
  4 39  1  0
  4 40  1  0
  5 41  1  6
  8 42  1  0
  8 43  1  0
  8 44  1  0
  9 45  1  0
  9 46  1  0
  9 47  1  0
 10 48  1  6
 11 49  1  0
 11 50  1  0
 12 51  1  0
 12 52  1  0
 14 53  1  0
 14 54  1  0
 14 55  1  0
 15 56  1  1
 16 57  1  0
 16 58  1  0
 17 59  1  0
 19 60  1  6
 20 61  1  0
 20 62  1  0
 21 63  1  0
 21 64  1  0
 22 65  1  1
 23 66  1  0
 25 67  1  0
 25 68  1  0
 25 69  1  0
 26 70  1  0
 26 71  1  0
 26 72  1  0
 28 73  1  0
 28 74  1  0
 28 75  1  0
 29 76  1  0
 29 77  1  0
 30 78  1  0
 30 79  1  0
 32 80  1  0
 32 81  1  0
 32 82  1  0
M  END
>  <meeko>  (17) 
{"is_sidechain": [false], "intermolecular_energy": 2.731, "internal_energy": -0.839}

$$$$
EPH_relaxed_0001_pdb2pqr_Repair_354_r2_0001_out
     RDKit          3D

 82 86  0  0  0  0  0  0  0  0999 V2000
    1.8030   13.1050   -5.6810 C   0  0  0  0  0  0  0  0  0  0  0  0
    2.7630   12.2620   -4.8370 C   0  0  2  0  0  0  0  0  0  0  0  0
    3.6980   11.3990   -5.7070 C   0  0  0  0  0  0  0  0  0  0  0  0
    5.1500   11.8840   -5.7200 C   0  0  0  0  0  0  0  0  0  0  0  0
    6.0760   10.8750   -5.1110 C   0  0  2  0  0  0  0  0  0  0  0  0
    5.6200   10.3130   -3.8730 O   0  0  0  0  0  0  0  0  0  0  0  0
    6.8190   11.1010   -3.8070 C   0  0  0  0  0  0  0  0  0  0  0  0
    6.6690   12.3740   -3.0340 C   0  0  0  0  0  0  0  0  0  0  0  0
    8.0540   10.2990   -3.5390 C   0  0  0  0  0  0  0  0  0  0  0  0
    1.9730   11.3750   -3.8820 C   0  0  1  0  0  0  0  0  0  0  0  0
    2.8520   10.2850   -3.2130 C   0  0  0  0  0  0  0  0  0  0  0  0
    2.3060   10.0890   -1.7750 C   0  0  0  0  0  0  0  0  0  0  0  0
    0.9420   10.8190   -1.7740 C   0  0  1  0  0  0  0  0  0  0  0  0
   -0.0540    9.8090   -2.4250 C   0  0  0  0  0  0  0  0  0  0  0  0
    0.4290   11.3210   -0.3850 C   0  0  2  0  0  0  0  0  0  0  0  0
    0.1650   10.2160    0.6520 C   0  0  0  0  0  0  0  0  0  0  0  0
   -1.2210    9.6610    0.6550 C   0  0  0  0  0  0  0  0  0  0  0  0
   -2.2900   10.2240    0.0600 C   0  0  0  0  0  0  0  0  0  0  0  0
   -2.1810   11.5930   -0.6230 C   0  0  1  0  0  0  0  0  0  0  0  0
   -3.3770   12.4820   -0.1920 C   0  0  0  0  0  0  0  0  0  0  0  0
   -4.7240   11.8110   -0.4420 C   0  0  0  0  0  0  0  0  0  0  0  0
   -4.8160   10.4800    0.3000 C   0  0  2  0  0  0  0  0  0  0  0  0
   -4.8250   10.7370    1.7080 O   0  0  0  0  0  0  0  0  0  0  0  0
   -3.6570    9.5050   -0.0460 C   0  0  0  0  0  0  0  0  0  0  0  0
   -3.8250    8.9910   -1.4980 C   0  0  0  0  0  0  0  0  0  0  0  0
   -3.7900    8.2600    0.8730 C   0  0  0  0  0  0  0  0  0  0  0  0
   -0.7840   12.3350   -0.4700 C   0  0  1  0  0  0  0  0  0  0  0  0
   -0.7630   13.1660    0.8490 C   0  0  0  0  0  0  0  0  0  0  0  0
   -0.6190   13.3670   -1.6480 C   0  0  0  0  0  0  0  0  0  0  0  0
    0.0050   12.8380   -2.9530 C   0  0  0  0  0  0  0  0  0  0  0  0
    1.2940   12.0620   -2.6700 C   0  0  2  0  0  0  0  0  0  0  0  0
    2.3230   13.0580   -2.0350 C   0  0  0  0  0  0  0  0  0  0  0  0
    1.1436   13.6841   -5.0178 H   0  0  0  0  0  0  0  0  0  0  0  0
    2.3805   13.7931   -6.3158 H   0  0  0  0  0  0  0  0  0  0  0  0
    1.1953   12.4434   -6.3158 H   0  0  0  0  0  0  0  0  0  0  0  0
    3.3950   12.9558   -4.2632 H   0  0  0  0  0  0  0  0  0  0  0  0
    3.6795   10.3693   -5.3204 H   0  0  0  0  0  0  0  0  0  0  0  0
    3.3278   11.4666   -6.7406 H   0  0  0  0  0  0  0  0  0  0  0  0
    5.4558   12.0663   -6.7608 H   0  0  0  0  0  0  0  0  0  0  0  0
    5.2089   12.8072   -5.1249 H   0  0  0  0  0  0  0  0  0  0  0  0
    6.4134   10.5497   -6.1062 H   0  0  0  0  0  0  0  0  0  0  0  0
    6.6949   12.1539   -1.9565 H   0  0  0  0  0  0  0  0  0  0  0  0
    7.4929   13.0569   -3.2887 H   0  0  0  0  0  0  0  0  0  0  0  0
    5.7089   12.8467   -3.2887 H   0  0  0  0  0  0  0  0  0  0  0  0
    8.2008   10.2037   -2.4530 H   0  0  0  0  0  0  0  0  0  0  0  0
    7.9453    9.2987   -3.9835 H   0  0  0  0  0  0  0  0  0  0  0  0
    8.9236   10.8052   -3.9835 H   0  0  0  0  0  0  0  0  0  0  0  0
    1.2088   10.9934   -4.5751 H   0  0  0  0  0  0  0  0  0  0  0  0
    2.7812    9.3430   -3.7765 H   0  0  0  0  0  0  0  0  0  0  0  0
    3.9097   10.5867   -3.1958 H   0  0  0  0  0  0  0  0  0  0  0  0
    2.1747    9.0200   -1.5516 H   0  0  0  0  0  0  0  0  0  0  0  0
    2.9915   10.4837   -1.0106 H   0  0  0  0  0  0  0  0  0  0  0  0
   -0.5917    9.2637   -1.6354 H   0  0  0  0  0  0  0  0  0  0  0  0
   -0.7756   10.3564   -3.0492 H   0  0  0  0  0  0  0  0  0  0  0  0
    0.5034    9.0951   -3.0492 H   0  0  0  0  0  0  0  0  0  0  0  0
    1.2928   11.8864   -0.0054 H   0  0  0  0  0  0  0  0  0  0  0  0
    0.8618    9.3887    0.4518 H   0  0  0  0  0  0  0  0  0  0  0  0
    0.3072   10.6837    1.6374 H   0  0  0  0  0  0  0  0  0  0  0  0
   -1.3826    8.7124    1.1880 H   0  0  0  0  0  0  0  0  0  0  0  0
   -2.2299   11.3984   -1.7046 H   0  0  0  0  0  0  0  0  0  0  0  0
   -3.2854   12.6998    0.8823 H   0  0  0  0  0  0  0  0  0  0  0  0
   -3.3445   13.4012   -0.7954 H   0  0  0  0  0  0  0  0  0  0  0  0
   -5.5277   12.4751   -0.0913 H   0  0  0  0  0  0  0  0  0  0  0  0
   -4.8265   11.6198   -1.5204 H   0  0  0  0  0  0  0  0  0  0  0  0
   -5.7461    9.9873   -0.0197 H   0  0  0  0  0  0  0  0  0  0  0  0
   -5.5040   10.1660    2.1060 H   0  0  0  0  0  0  0  0  0  0  0  0
   -4.1667    7.9456   -1.4797 H   0  0  0  0  0  0  0  0  0  0  0  0
   -4.5675    9.6103   -2.0226 H   0  0  0  0  0  0  0  0  0  0  0  0
   -2.8601    9.0522   -2.0226 H   0  0  0  0  0  0  0  0  0  0  0  0
   -3.7562    8.5763    1.9260 H   0  0  0  0  0  0  0  0  0  0  0  0
   -4.7471    7.7564    0.6719 H   0  0  0  0  0  0  0  0  0  0  0  0
   -2.9609    7.5656    0.6719 H   0  0  0  0  0  0  0  0  0  0  0  0
   -0.7802   12.4843    1.7121 H   0  0  0  0  0  0  0  0  0  0  0  0
    0.1509   13.7773    0.8827 H   0  0  0  0  0  0  0  0  0  0  0  0
   -1.6448   13.8227    0.8827 H   0  0  0  0  0  0  0  0  0  0  0  0
   -1.6184   13.7568   -1.8913 H   0  0  0  0  0  0  0  0  0  0  0  0
    0.0910   14.1193   -1.2740 H   0  0  0  0  0  0  0  0  0  0  0  0
   -0.7142   12.1712   -3.4511 H   0  0  0  0  0  0  0  0  0  0  0  0
    0.2468   13.6953   -3.5984 H   0  0  0  0  0  0  0  0  0  0  0  0
    2.2618   12.9987   -0.9383 H   0  0  0  0  0  0  0  0  0  0  0  0
    3.3395   12.7920   -2.3604 H   0  0  0  0  0  0  0  0  0  0  0  0
    2.0902   14.0827   -2.3604 H   0  0  0  0  0  0  0  0  0  0  0  0
  1  2  1  0
  2  3  1  0
  3  4  1  0
  4  5  1  0
  5  6  1  0
  6  7  1  0
  7  8  1  0
  7  9  1  0
  2 10  1  0
 10 11  1  0
 11 12  1  0
 12 13  1  0
 13 14  1  6
 13 15  1  0
 15 16  1  0
 16 17  1  0
 17 18  2  0
 18 19  1  0
 19 20  1  0
 20 21  1  0
 21 22  1  0
 22 23  1  0
 22 24  1  0
 24 25  1  0
 24 26  1  0
 19 27  1  0
 27 28  1  1
 27 29  1  0
 29 30  1  0
 30 31  1  0
 31 32  1  1
  7  5  1  0
 31 10  1  0
 31 13  1  0
 27 15  1  0
 24 18  1  0
  1 33  1  0
  1 34  1  0
  1 35  1  0
  2 36  1  1
  3 37  1  0
  3 38  1  0
  4 39  1  0
  4 40  1  0
  5 41  1  6
  8 42  1  0
  8 43  1  0
  8 44  1  0
  9 45  1  0
  9 46  1  0
  9 47  1  0
 10 48  1  6
 11 49  1  0
 11 50  1  0
 12 51  1  0
 12 52  1  0
 14 53  1  0
 14 54  1  0
 14 55  1  0
 15 56  1  1
 16 57  1  0
 16 58  1  0
 17 59  1  0
 19 60  1  6
 20 61  1  0
 20 62  1  0
 21 63  1  0
 21 64  1  0
 22 65  1  6
 23 66  1  0
 25 67  1  0
 25 68  1  0
 25 69  1  0
 26 70  1  0
 26 71  1  0
 26 72  1  0
 28 73  1  0
 28 74  1  0
 28 75  1  0
 29 76  1  0
 29 77  1  0
 30 78  1  0
 30 79  1  0
 32 80  1  0
 32 81  1  0
 32 82  1  0
M  END
>  <meeko>  (18) 
{"is_sidechain": [false], "intermolecular_energy": 2.731, "internal_energy": -0.839}

$$$$
EPH_relaxed_0001_pdb2pqr_Repair_354_r2_0001_out
     RDKit          3D

 82 86  0  0  0  0  0  0  0  0999 V2000
   -3.6660    8.1890    0.4630 C   0  0  0  0  0  0  0  0  0  0  0  0
   -4.2330    9.6110    0.4390 C   0  0  2  0  0  0  0  0  0  0  0  0
   -5.6840    9.6500   -0.0790 C   0  0  0  0  0  0  0  0  0  0  0  0
   -6.0370    8.4840   -1.0070 C   0  0  0  0  0  0  0  0  0  0  0  0
   -7.5000    8.1610   -0.9600 C   0  0  2  0  0  0  0  0  0  0  0  0
   -7.8030    6.8080   -0.5970 O   0  0  0  0  0  0  0  0  0  0  0  0
   -8.1780    7.2070   -1.9250 C   0  0  0  0  0  0  0  0  0  0  0  0
   -7.4100    6.5170   -3.0080 C   0  0  0  0  0  0  0  0  0  0  0  0
   -9.6570    7.3220   -2.1250 C   0  0  0  0  0  0  0  0  0  0  0  0
   -3.3490   10.5080   -0.4190 C   0  0  1  0  0  0  0  0  0  0  0  0
   -3.8500   11.9770   -0.4610 C   0  0  0  0  0  0  0  0  0  0  0  0
   -2.5900   12.8780   -0.5260 C   0  0  0  0  0  0  0  0  0  0  0  0
   -1.4320   11.9060   -0.8530 C   0  0  1  0  0  0  0  0  0  0  0  0
   -1.5130   11.6910   -2.3970 C   0  0  0  0  0  0  0  0  0  0  0  0
   -0.0040   12.3580   -0.4070 C   0  0  2  0  0  0  0  0  0  0  0  0
    0.5080   13.6490   -1.0690 C   0  0  0  0  0  0  0  0  0  0  0  0
    1.2720   13.4560   -2.3380 C   0  0  0  0  0  0  0  0  0  0  0  0
    1.7810   12.2890   -2.7740 C   0  0  0  0  0  0  0  0  0  0  0  0
    1.6930   11.0210   -1.9150 C   0  0  1  0  0  0  0  0  0  0  0  0
    3.0730   10.3120   -1.8960 C   0  0  0  0  0  0  0  0  0  0  0  0
    3.6050   10.0310   -3.2980 C   0  0  0  0  0  0  0  0  0  0  0  0
    3.7330   11.3230   -4.1020 C   0  0  2  0  0  0  0  0  0  0  0  0
    4.7540   12.1340   -3.5120 O   0  0  0  0  0  0  0  0  0  0  0  0
    2.4060   12.1290   -4.1820 C   0  0  0  0  0  0  0  0  0  0  0  0
    1.3940   11.3770   -5.0810 C   0  0  0  0  0  0  0  0  0  0  0  0
    2.7070   13.4740   -4.8970 C   0  0  0  0  0  0  0  0  0  0  0  0
    1.0850   11.2110   -0.4590 C   0  0  1  0  0  0  0  0  0  0  0  0
    2.2110   11.6210    0.5390 C   0  0  0  0  0  0  0  0  0  0  0  0
    0.5240    9.8300    0.0480 C   0  0  0  0  0  0  0  0  0  0  0  0
   -0.9330    9.4930   -0.3240 C   0  0  0  0  0  0  0  0  0  0  0  0
   -1.8670   10.6620    0.0050 C   0  0  2  0  0  0  0  0  0  0  0  0
   -1.8240   10.8870    1.5550 C   0  0  0  0  0  0  0  0  0  0  0  0
   -3.5362    7.8636    1.5057 H   0  0  0  0  0  0  0  0  0  0  0  0
   -4.3615    7.5082   -0.0497 H   0  0  0  0  0  0  0  0  0  0  0  0
   -2.6929    8.1736   -0.0497 H   0  0  0  0  0  0  0  0  0  0  0  0
   -4.2435    9.9802    1.4751 H   0  0  0  0  0  0  0  0  0  0  0  0
   -6.3627    9.6231    0.7863 H   0  0  0  0  0  0  0  0  0  0  0  0
   -5.7910   10.5733   -0.6673 H   0  0  0  0  0  0  0  0  0  0  0  0
   -5.7645    8.7539   -2.0380 H   0  0  0  0  0  0  0  0  0  0  0  0
   -5.4793    7.5974   -0.6709 H   0  0  0  0  0  0  0  0  0  0  0  0
   -7.7402    9.1877   -0.6467 H   0  0  0  0  0  0  0  0  0  0  0  0
   -6.6634    5.8462   -2.5578 H   0  0  0  0  0  0  0  0  0  0  0  0
   -8.1012    5.9306   -3.6312 H   0  0  0  0  0  0  0  0  0  0  0  0
   -6.9007    7.2669   -3.6312 H   0  0  0  0  0  0  0  0  0  0  0  0
  -10.1574    7.3609   -1.1462 H   0  0  0  0  0  0  0  0  0  0  0  0
   -9.8806    8.2402   -2.6879 H   0  0  0  0  0  0  0  0  0  0  0  0
  -10.0198    6.4494   -2.6879 H   0  0  0  0  0  0  0  0  0  0  0  0
   -3.4127    9.9683   -1.3754 H   0  0  0  0  0  0  0  0  0  0  0  0
   -4.4770   12.1380   -1.3503 H   0  0  0  0  0  0  0  0  0  0  0  0
   -4.4583   12.2122    0.4248 H   0  0  0  0  0  0  0  0  0  0  0  0
   -2.6952   13.6364   -1.3158 H   0  0  0  0  0  0  0  0  0  0  0  0
   -2.4212   13.4276    0.4118 H   0  0  0  0  0  0  0  0  0  0  0  0
   -1.8937   10.6806   -2.6070 H   0  0  0  0  0  0  0  0  0  0  0  0
   -2.1917   12.4371   -2.8360 H   0  0  0  0  0  0  0  0  0  0  0  0
   -0.5107   11.8038   -2.8360 H   0  0  0  0  0  0  0  0  0  0  0  0
   -0.1560   12.6059    0.6539 H   0  0  0  0  0  0  0  0  0  0  0  0
   -0.3614   14.2859   -1.2893 H   0  0  0  0  0  0  0  0  0  0  0  0
    1.2135   14.0981   -0.3545 H   0  0  0  0  0  0  0  0  0  0  0  0
    1.4320   14.3425   -2.9693 H   0  0  0  0  0  0  0  0  0  0  0  0
    0.9477   10.3748   -2.4018 H   0  0  0  0  0  0  0  0  0  0  0  0
    3.7926   10.9549   -1.3680 H   0  0  0  0  0  0  0  0  0  0  0  0
    2.9450    9.3452   -1.3872 H   0  0  0  0  0  0  0  0  0  0  0  0
    4.5942    9.5564   -3.2193 H   0  0  0  0  0  0  0  0  0  0  0  0
    2.8987    9.3644   -3.8146 H   0  0  0  0  0  0  0  0  0  0  0  0
    3.9935   11.0450   -5.1339 H   0  0  0  0  0  0  0  0  0  0  0  0
    5.5480   11.5810   -3.4130 H   0  0  0  0  0  0  0  0  0  0  0  0
    0.6711   10.8398   -4.4495 H   0  0  0  0  0  0  0  0  0  0  0  0
    0.8603   12.0994   -5.7161 H   0  0  0  0  0  0  0  0  0  0  0  0
    1.9317   10.6576   -5.7161 H   0  0  0  0  0  0  0  0  0  0  0  0
    2.8824   14.2577   -4.1453 H   0  0  0  0  0  0  0  0  0  0  0  0
    3.6024   13.3625   -5.5261 H   0  0  0  0  0  0  0  0  0  0  0  0
    1.8495   13.7547   -5.5261 H   0  0  0  0  0  0  0  0  0  0  0  0
    1.8521   11.4903    1.5706 H   0  0  0  0  0  0  0  0  0  0  0  0
    3.0949   10.9870    0.3752 H   0  0  0  0  0  0  0  0  0  0  0  0
    2.4803   12.6749    0.3752 H   0  0  0  0  0  0  0  0  0  0  0  0
    1.1650    9.0380   -0.3666 H   0  0  0  0  0  0  0  0  0  0  0  0
    0.5315    9.9018    1.1456 H   0  0  0  0  0  0  0  0  0  0  0  0
   -0.9892    9.2797   -1.4017 H   0  0  0  0  0  0  0  0  0  0  0  0
   -1.2501    8.6157    0.2590 H   0  0  0  0  0  0  0  0  0  0  0  0
   -2.0065    9.9319    2.0693 H   0  0  0  0  0  0  0  0  0  0  0  0
   -0.8355   11.2749    1.8419 H   0  0  0  0  0  0  0  0  0  0  0  0
   -2.5998   11.6121    1.8419 H   0  0  0  0  0  0  0  0  0  0  0  0
  1  2  1  0
  2  3  1  0
  3  4  1  0
  4  5  1  0
  5  6  1  0
  6  7  1  0
  7  8  1  0
  7  9  1  0
  2 10  1  0
 10 11  1  0
 11 12  1  0
 12 13  1  0
 13 14  1  6
 13 15  1  0
 15 16  1  0
 16 17  1  0
 17 18  2  0
 18 19  1  0
 19 20  1  0
 20 21  1  0
 21 22  1  0
 22 23  1  0
 22 24  1  0
 24 25  1  0
 24 26  1  0
 19 27  1  0
 27 28  1  1
 27 29  1  0
 29 30  1  0
 30 31  1  0
 31 32  1  1
  7  5  1  0
 31 10  1  0
 31 13  1  0
 27 15  1  0
 24 18  1  0
  1 33  1  0
  1 34  1  0
  1 35  1  0
  2 36  1  1
  3 37  1  0
  3 38  1  0
  4 39  1  0
  4 40  1  0
  5 41  1  1
  8 42  1  0
  8 43  1  0
  8 44  1  0
  9 45  1  0
  9 46  1  0
  9 47  1  0
 10 48  1  6
 11 49  1  0
 11 50  1  0
 12 51  1  0
 12 52  1  0
 14 53  1  0
 14 54  1  0
 14 55  1  0
 15 56  1  1
 16 57  1  0
 16 58  1  0
 17 59  1  0
 19 60  1  6
 20 61  1  0
 20 62  1  0
 21 63  1  0
 21 64  1  0
 22 65  1  6
 23 66  1  0
 25 67  1  0
 25 68  1  0
 25 69  1  0
 26 70  1  0
 26 71  1  0
 26 72  1  0
 28 73  1  0
 28 74  1  0
 28 75  1  0
 29 76  1  0
 29 77  1  0
 30 78  1  0
 30 79  1  0
 32 80  1  0
 32 81  1  0
 32 82  1  0
M  END
>  <meeko>  (19) 
{"is_sidechain": [false], "intermolecular_energy": 2.731, "internal_energy": -0.839}

$$$$
EPH_relaxed_0001_pdb2pqr_Repair_354_r2_0001_out
     RDKit          3D

 82 86  0  0  0  0  0  0  0  0999 V2000
    1.2820   19.4850   -2.0120 C   0  0  0  0  0  0  0  0  0  0  0  0
    1.4690   19.1760   -0.5240 C   0  0  2  0  0  0  0  0  0  0  0  0
    2.9150   19.4340   -0.0550 C   0  0  0  0  0  0  0  0  0  0  0  0
    3.0240   19.8090    1.4260 C   0  0  0  0  0  0  0  0  0  0  0  0
    4.4070   19.5810    1.9550 C   0  0  2  0  0  0  0  0  0  0  0  0
    4.5880   18.3350    2.6410 O   0  0  0  0  0  0  0  0  0  0  0  0
    4.7380   19.5230    3.4350 C   0  0  0  0  0  0  0  0  0  0  0  0
    3.6790   19.6950    4.4780 C   0  0  0  0  0  0  0  0  0  0  0  0
    6.1480   19.7870    3.8640 C   0  0  0  0  0  0  0  0  0  0  0  0
    1.0790   17.7310   -0.2400 C   0  0  1  0  0  0  0  0  0  0  0  0
   -0.2920   17.6120    0.4790 C   0  0  0  0  0  0  0  0  0  0  0  0
   -0.9650   16.3200   -0.0530 C   0  0  0  0  0  0  0  0  0  0  0  0
    0.1630   15.5710   -0.7990 C   0  0  1  0  0  0  0  0  0  0  0  0
    0.9680   14.8400    0.3220 C   0  0  0  0  0  0  0  0  0  0  0  0
   -0.2890   14.5820   -1.9230 C   0  0  2  0  0  0  0  0  0  0  0  0
   -1.1520   13.4020   -1.4450 C   0  0  0  0  0  0  0  0  0  0  0  0
   -0.3960   12.1740   -1.0590 C   0  0  0  0  0  0  0  0  0  0  0  0
    0.8920   11.9220   -1.3590 C   0  0  0  0  0  0  0  0  0  0  0  0
    1.6960   12.8810   -2.2460 C   0  0  1  0  0  0  0  0  0  0  0  0
    2.4690   12.0690   -3.3190 C   0  0  0  0  0  0  0  0  0  0  0  0
    3.3360   10.9720   -2.7100 C   0  0  0  0  0  0  0  0  0  0  0  0
    2.4920   10.0050   -1.8830 C   0  0  2  0  0  0  0  0  0  0  0  0
    1.6160    9.2920   -2.7620 O   0  0  0  0  0  0  0  0  0  0  0  0
    1.6610   10.7100   -0.7760 C   0  0  0  0  0  0  0  0  0  0  0  0
    2.6070   11.2250    0.3370 C   0  0  0  0  0  0  0  0  0  0  0  0
    0.7490    9.6440   -0.1110 C   0  0  0  0  0  0  0  0  0  0  0  0
    0.8830   14.0960   -2.8680 C   0  0  1  0  0  0  0  0  0  0  0  0
    0.2200   13.6610   -4.2110 C   0  0  0  0  0  0  0  0  0  0  0  0
    1.8860   15.2570   -3.2240 C   0  0  0  0  0  0  0  0  0  0  0  0
    2.2000   16.2700   -2.1070 C   0  0  0  0  0  0  0  0  0  0  0  0
    0.9130   16.7860   -1.4560 C   0  0  2  0  0  0  0  0  0  0  0  0
    0.0930   17.5450   -2.5550 C   0  0  0  0  0  0  0  0  0  0  0  0
    0.7154   20.4212   -2.1237 H   0  0  0  0  0  0  0  0  0  0  0  0
    2.2665   19.5929   -2.4906 H   0  0  0  0  0  0  0  0  0  0  0  0
    0.7297   18.6629   -2.4906 H   0  0  0  0  0  0  0  0  0  0  0  0
    0.8129   19.8552    0.0401 H   0  0  0  0  0  0  0  0  0  0  0  0
    3.5039   18.5208   -0.2263 H   0  0  0  0  0  0  0  0  0  0  0  0
    3.2922   20.2910   -0.6323 H   0  0  0  0  0  0  0  0  0  0  0  0
    2.7679   20.8722    1.5443 H   0  0  0  0  0  0  0  0  0  0  0  0
    2.3304   19.1709    1.9932 H   0  0  0  0  0  0  0  0  0  0  0  0
    4.8447   20.1519    1.1228 H   0  0  0  0  0  0  0  0  0  0  0  0
    4.1331   19.6213    5.4772 H   0  0  0  0  0  0  0  0  0  0  0  0
    3.2067   20.6816    4.3618 H   0  0  0  0  0  0  0  0  0  0  0  0
    2.9187   18.9086    4.3618 H   0  0  0  0  0  0  0  0  0  0  0  0
    6.2012   19.7970    4.9627 H   0  0  0  0  0  0  0  0  0  0  0  0
    6.8046   18.9962    3.4723 H   0  0  0  0  0  0  0  0  0  0  0  0
    6.4740   20.7618    3.4723 H   0  0  0  0  0  0  0  0  0  0  0  0
    1.9468   17.4215    0.3609 H   0  0  0  0  0  0  0  0  0  0  0  0
   -0.1445   17.5421    1.5668 H   0  0  0  0  0  0  0  0  0  0  0  0
   -0.9192   18.4940    0.2824 H   0  0  0  0  0  0  0  0  0  0  0  0
   -1.3505   15.7122    0.7789 H   0  0  0  0  0  0  0  0  0  0  0  0
   -1.8244   16.5355   -0.7048 H   0  0  0  0  0  0  0  0  0  0  0  0
    0.6059   15.1688    1.3073 H   0  0  0  0  0  0  0  0  0  0  0  0
    0.8288   13.7532    0.2241 H   0  0  0  0  0  0  0  0  0  0  0  0
    2.0363   15.0831    0.2241 H   0  0  0  0  0  0  0  0  0  0  0  0
   -0.9536   15.2087   -2.5358 H   0  0  0  0  0  0  0  0  0  0  0  0
   -1.7286   13.7354   -0.5695 H   0  0  0  0  0  0  0  0  0  0  0  0
   -1.7787   13.1164   -2.3027 H   0  0  0  0  0  0  0  0  0  0  0  0
   -0.9370   11.4106   -0.4806 H   0  0  0  0  0  0  0  0  0  0  0  0
    2.4076   13.3887   -1.5782 H   0  0  0  0  0  0  0  0  0  0  0  0
    1.7419   11.6054   -4.0020 H   0  0  0  0  0  0  0  0  0  0  0  0
    3.1353   12.7655   -3.8490 H   0  0  0  0  0  0  0  0  0  0  0  0
    3.8328   10.4154   -3.5184 H   0  0  0  0  0  0  0  0  0  0  0  0
    4.0816   11.4397   -2.0502 H   0  0  0  0  0  0  0  0  0  0  0  0
    3.1824    9.3207   -1.3681 H   0  0  0  0  0  0  0  0  0  0  0  0
    2.1630    8.7000   -3.3060 H   0  0  0  0  0  0  0  0  0  0  0  0
    2.1764   10.9906    1.3217 H   0  0  0  0  0  0  0  0  0  0  0  0
    3.5877   10.7363    0.2399 H   0  0  0  0  0  0  0  0  0  0  0  0
    2.7288   12.3139    0.2399 H   0  0  0  0  0  0  0  0  0  0  0  0
    0.8224    9.7298    0.9832 H   0  0  0  0  0  0  0  0  0  0  0  0
   -0.2932    9.8073   -0.4225 H   0  0  0  0  0  0  0  0  0  0  0  0
    1.0717    8.6396   -0.4225 H   0  0  0  0  0  0  0  0  0  0  0  0
   -0.6825   13.0688   -3.9994 H   0  0  0  0  0  0  0  0  0  0  0  0
   -0.0552   14.5546   -4.7904 H   0  0  0  0  0  0  0  0  0  0  0  0
    0.9302   13.0527   -4.7904 H   0  0  0  0  0  0  0  0  0  0  0  0
    2.8357   14.7941   -3.5302 H   0  0  0  0  0  0  0  0  0  0  0  0
    1.3836   15.8408   -4.0093 H   0  0  0  0  0  0  0  0  0  0  0  0
    2.8192   15.7803   -1.3410 H   0  0  0  0  0  0  0  0  0  0  0  0
    2.7359   17.1233   -2.5483 H   0  0  0  0  0  0  0  0  0  0  0  0
   -0.6325   18.2166   -2.0727 H   0  0  0  0  0  0  0  0  0  0  0  0
    0.7781   18.1347   -3.1818 H   0  0  0  0  0  0  0  0  0  0  0  0
   -0.4421   16.8164   -3.1818 H   0  0  0  0  0  0  0  0  0  0  0  0
  1  2  1  0
  2  3  1  0
  3  4  1  0
  4  5  1  0
  5  6  1  0
  6  7  1  0
  7  8  1  0
  7  9  1  0
  2 10  1  0
 10 11  1  0
 11 12  1  0
 12 13  1  0
 13 14  1  1
 13 15  1  0
 15 16  1  0
 16 17  1  0
 17 18  2  0
 18 19  1  0
 19 20  1  0
 20 21  1  0
 21 22  1  0
 22 23  1  0
 22 24  1  0
 24 25  1  0
 24 26  1  0
 19 27  1  0
 27 28  1  6
 27 29  1  0
 29 30  1  0
 30 31  1  0
 31 32  1  6
  7  5  1  0
 31 10  1  0
 31 13  1  0
 27 15  1  0
 24 18  1  0
  1 33  1  0
  1 34  1  0
  1 35  1  0
  2 36  1  1
  3 37  1  0
  3 38  1  0
  4 39  1  0
  4 40  1  0
  5 41  1  6
  8 42  1  0
  8 43  1  0
  8 44  1  0
  9 45  1  0
  9 46  1  0
  9 47  1  0
 10 48  1  1
 11 49  1  0
 11 50  1  0
 12 51  1  0
 12 52  1  0
 14 53  1  0
 14 54  1  0
 14 55  1  0
 15 56  1  6
 16 57  1  0
 16 58  1  0
 17 59  1  0
 19 60  1  1
 20 61  1  0
 20 62  1  0
 21 63  1  0
 21 64  1  0
 22 65  1  1
 23 66  1  0
 25 67  1  0
 25 68  1  0
 25 69  1  0
 26 70  1  0
 26 71  1  0
 26 72  1  0
 28 73  1  0
 28 74  1  0
 28 75  1  0
 29 76  1  0
 29 77  1  0
 30 78  1  0
 30 79  1  0
 32 80  1  0
 32 81  1  0
 32 82  1  0
M  END
>  <meeko>  (20) 
{"is_sidechain": [false], "intermolecular_energy": 2.731, "internal_energy": -0.839}

$$$$
