EPH_relaxed_0001_pdb2pqr_Repair_88_r2_0001_out
     RDKit          3D

 82 86  0  0  0  0  0  0  0  0999 V2000
   -1.5060    8.4870   -1.9470 C   0  0  0  0  0  0  0  0  0  0  0  0
   -1.8680    8.9600   -0.5370 C   0  0  2  0  0  0  0  0  0  0  0  0
   -3.3740    9.2580   -0.3930 C   0  0  0  0  0  0  0  0  0  0  0  0
   -4.2510    8.0020   -0.3790 C   0  0  0  0  0  0  0  0  0  0  0  0
   -5.6320    8.2850   -0.8870 C   0  0  2  0  0  0  0  0  0  0  0  0
   -6.5580    7.2000   -0.7410 O   0  0  0  0  0  0  0  0  0  0  0  0
   -6.2410    7.5860   -2.0880 C   0  0  0  0  0  0  0  0  0  0  0  0
   -5.4810    6.5500   -2.8560 C   0  0  0  0  0  0  0  0  0  0  0  0
   -7.3730    8.2520   -2.8060 C   0  0  0  0  0  0  0  0  0  0  0  0
   -1.0560   10.2000   -0.1800 C   0  0  1  0  0  0  0  0  0  0  0  0
   -0.0220    9.9330    0.9460 C   0  0  0  0  0  0  0  0  0  0  0  0
    1.2190   10.8070    0.6300 C   0  0  0  0  0  0  0  0  0  0  0  0
    0.7370   11.7860   -0.4660 C   0  0  1  0  0  0  0  0  0  0  0  0
   -0.0160   12.9140    0.3070 C   0  0  0  0  0  0  0  0  0  0  0  0
    1.8430   12.3690   -1.4050 C   0  0  2  0  0  0  0  0  0  0  0  0
    2.9110   13.2260   -0.7020 C   0  0  0  0  0  0  0  0  0  0  0  0
    2.6060   14.6850   -0.6200 C   0  0  0  0  0  0  0  0  0  0  0  0
    1.6640   15.3280   -1.3350 C   0  0  0  0  0  0  0  0  0  0  0  0
    0.8530   14.5940   -2.4100 C   0  0  1  0  0  0  0  0  0  0  0  0
    0.8030   15.4550   -3.6990 C   0  0  0  0  0  0  0  0  0  0  0  0
    0.2850   16.8670   -3.4400 C   0  0  0  0  0  0  0  0  0  0  0  0
    1.1520   17.5850   -2.4090 C   0  0  2  0  0  0  0  0  0  0  0  0
    2.4510   17.8020   -2.9690 O   0  0  0  0  0  0  0  0  0  0  0  0
    1.2830   16.8060   -1.0700 C   0  0  0  0  0  0  0  0  0  0  0  0
   -0.0700   16.8320   -0.3180 C   0  0  0  0  0  0  0  0  0  0  0  0
    2.2950   17.5680   -0.1720 C   0  0  0  0  0  0  0  0  0  0  0  0
    1.2820   13.0910   -2.6970 C   0  0  1  0  0  0  0  0  0  0  0  0
    2.4240   13.0570   -3.7570 C   0  0  0  0  0  0  0  0  0  0  0  0
    0.0640   12.3200   -3.3310 C   0  0  0  0  0  0  0  0  0  0  0  0
   -0.9290   11.6640   -2.3520 C   0  0  0  0  0  0  0  0  0  0  0  0
   -0.1910   10.8300   -1.3000 C   0  0  2  0  0  0  0  0  0  0  0  0
    0.5590    9.6740   -2.0460 C   0  0  0  0  0  0  0  0  0  0  0  0
   -0.8387    7.6150   -1.8812 H   0  0  0  0  0  0  0  0  0  0  0  0
   -2.4228    8.2072   -2.4866 H   0  0  0  0  0  0  0  0  0  0  0  0
   -0.9964    9.2989   -2.4866 H   0  0  0  0  0  0  0  0  0  0  0  0
   -1.6249    8.1430    0.1583 H   0  0  0  0  0  0  0  0  0  0  0  0
   -3.5318    9.8024    0.5497 H   0  0  0  0  0  0  0  0  0  0  0  0
   -3.6708    9.8479   -1.2727 H   0  0  0  0  0  0  0  0  0  0  0  0
   -3.7865    7.2357   -1.0170 H   0  0  0  0  0  0  0  0  0  0  0  0
   -4.3329    7.6524    0.6607 H   0  0  0  0  0  0  0  0  0  0  0  0
   -5.5371    9.3483   -0.6218 H   0  0  0  0  0  0  0  0  0  0  0  0
   -4.9801    5.8672   -2.1539 H   0  0  0  0  0  0  0  0  0  0  0  0
   -6.1764    5.9795   -3.4892 H   0  0  0  0  0  0  0  0  0  0  0  0
   -4.7280    7.0420   -3.4892 H   0  0  0  0  0  0  0  0  0  0  0  0
   -8.0791    8.6674   -2.0719 H   0  0  0  0  0  0  0  0  0  0  0  0
   -6.9805    9.0631   -3.4369 H   0  0  0  0  0  0  0  0  0  0  0  0
   -7.8914    7.5149   -3.4369 H   0  0  0  0  0  0  0  0  0  0  0  0
   -1.8734   10.8834    0.0935 H   0  0  0  0  0  0  0  0  0  0  0  0
   -0.4442   10.2134    1.9223 H   0  0  0  0  0  0  0  0  0  0  0  0
    0.2466    8.8672    0.9910 H   0  0  0  0  0  0  0  0  0  0  0  0
    1.5454   11.3564    1.5254 H   0  0  0  0  0  0  0  0  0  0  0  0
    2.0805   10.2061    0.3034 H   0  0  0  0  0  0  0  0  0  0  0  0
    0.0923   12.7518    1.3896 H   0  0  0  0  0  0  0  0  0  0  0  0
    0.4116   13.8912    0.0381 H   0  0  0  0  0  0  0  0  0  0  0  0
   -1.0824   12.8938    0.0381 H   0  0  0  0  0  0  0  0  0  0  0  0
    2.3641   11.4624   -1.7463 H   0  0  0  0  0  0  0  0  0  0  0  0
    3.0310   12.8458    0.3232 H   0  0  0  0  0  0  0  0  0  0  0  0
    3.8212   13.1395   -1.3136 H   0  0  0  0  0  0  0  0  0  0  0  0
    3.2011   15.2852    0.0840 H   0  0  0  0  0  0  0  0  0  0  0  0
   -0.1607   14.4777   -1.9990 H   0  0  0  0  0  0  0  0  0  0  0  0
    1.8181   15.5230   -4.1172 H   0  0  0  0  0  0  0  0  0  0  0  0
    0.1085   14.9678   -4.3992 H   0  0  0  0  0  0  0  0  0  0  0  0
    0.3009   17.4348   -4.3820 H   0  0  0  0  0  0  0  0  0  0  0  0
   -0.7412   16.7987   -3.0497 H   0  0  0  0  0  0  0  0  0  0  0  0
    0.6588   18.5387   -2.1700 H   0  0  0  0  0  0  0  0  0  0  0  0
    3.0430   18.0640   -2.2450 H   0  0  0  0  0  0  0  0  0  0  0  0
    0.1132   16.8285    0.7666 H   0  0  0  0  0  0  0  0  0  0  0  0
   -0.6250   17.7410   -0.5932 H   0  0  0  0  0  0  0  0  0  0  0  0
   -0.6595   15.9450   -0.5932 H   0  0  0  0  0  0  0  0  0  0  0  0
    2.0548   17.3872    0.8861 H   0  0  0  0  0  0  0  0  0  0  0  0
    3.3138   17.2108   -0.3830 H   0  0  0  0  0  0  0  0  0  0  0  0
    2.2333   18.6458   -0.3830 H   0  0  0  0  0  0  0  0  0  0  0  0
    3.3977   13.0280   -3.2461 H   0  0  0  0  0  0  0  0  0  0  0  0
    2.3134   12.1617   -4.3865 H   0  0  0  0  0  0  0  0  0  0  0  0
    2.3669   13.9572   -4.3865 H   0  0  0  0  0  0  0  0  0  0  0  0
   -0.4997   13.0368   -3.9462 H   0  0  0  0  0  0  0  0  0  0  0  0
    0.5115   11.4848   -3.8897 H   0  0  0  0  0  0  0  0  0  0  0  0
   -1.5085   12.4504   -1.8462 H   0  0  0  0  0  0  0  0  0  0  0  0
   -1.5963   11.0002   -2.9212 H   0  0  0  0  0  0  0  0  0  0  0  0
    1.0032    8.9893   -1.3085 H   0  0  0  0  0  0  0  0  0  0  0  0
   -0.1533    9.1218   -2.6766 H   0  0  0  0  0  0  0  0  0  0  0  0
    1.3536   10.0994   -2.6766 H   0  0  0  0  0  0  0  0  0  0  0  0
  1  2  1  0
  2  3  1  0
  3  4  1  0
  4  5  1  0
  5  6  1  0
  6  7  1  0
  7  8  1  0
  7  9  1  0
  2 10  1  0
 10 11  1  0
 11 12  1  0
 12 13  1  0
 13 14  1  1
 13 15  1  0
 15 16  1  0
 16 17  1  0
 17 18  2  0
 18 19  1  0
 19 20  1  0
 20 21  1  0
 21 22  1  0
 22 23  1  0
 22 24  1  0
 24 25  1  0
 24 26  1  0
 19 27  1  0
 27 28  1  6
 27 29  1  0
 29 30  1  0
 30 31  1  0
 31 32  1  6
  7  5  1  0
 31 10  1  0
 31 13  1  0
 27 15  1  0
 24 18  1  0
  1 33  1  0
  1 34  1  0
  1 35  1  0
  2 36  1  1
  3 37  1  0
  3 38  1  0
  4 39  1  0
  4 40  1  0
  5 41  1  1
  8 42  1  0
  8 43  1  0
  8 44  1  0
  9 45  1  0
  9 46  1  0
  9 47  1  0
 10 48  1  1
 11 49  1  0
 11 50  1  0
 12 51  1  0
 12 52  1  0
 14 53  1  0
 14 54  1  0
 14 55  1  0
 15 56  1  6
 16 57  1  0
 16 58  1  0
 17 59  1  0
 19 60  1  1
 20 61  1  0
 20 62  1  0
 21 63  1  0
 21 64  1  0
 22 65  1  1
 23 66  1  0
 25 67  1  0
 25 68  1  0
 25 69  1  0
 26 70  1  0
 26 71  1  0
 26 72  1  0
 28 73  1  0
 28 74  1  0
 28 75  1  0
 29 76  1  0
 29 77  1  0
 30 78  1  0
 30 79  1  0
 32 80  1  0
 32 81  1  0
 32 82  1  0
M  END
>  <meeko>  (1) 
{"is_sidechain": [false], "intermolecular_energy": 2.731, "internal_energy": -0.839}

$$$$
EPH_relaxed_0001_pdb2pqr_Repair_88_r2_0001_out
     RDKit          3D

 82 86  0  0  0  0  0  0  0  0999 V2000
    2.4030   18.0570   -2.6470 C   0  0  0  0  0  0  0  0  0  0  0  0
    1.0880   17.6830   -1.9590 C   0  0  2  0  0  0  0  0  0  0  0  0
    1.1970   17.7480   -0.4220 C   0  0  0  0  0  0  0  0  0  0  0  0
    0.8470   19.1200    0.1620 C   0  0  0  0  0  0  0  0  0  0  0  0
   -0.6000   19.2060    0.5450 C   0  0  2  0  0  0  0  0  0  0  0  0
   -1.4560   18.2830   -0.1390 O   0  0  0  0  0  0  0  0  0  0  0  0
   -1.6890   19.6770   -0.4010 C   0  0  0  0  0  0  0  0  0  0  0  0
   -1.3770   20.0930   -1.8040 C   0  0  0  0  0  0  0  0  0  0  0  0
   -2.9670   20.1940    0.1810 C   0  0  0  0  0  0  0  0  0  0  0  0
    0.6540   16.2870   -2.3910 C   0  0  1  0  0  0  0  0  0  0  0  0
    0.7840   16.0680   -3.9220 C   0  0  0  0  0  0  0  0  0  0  0  0
    1.1940   14.5870   -4.1290 C   0  0  0  0  0  0  0  0  0  0  0  0
    0.9640   13.9230   -2.7510 C   0  0  1  0  0  0  0  0  0  0  0  0
   -0.5670   13.6230   -2.7010 C   0  0  0  0  0  0  0  0  0  0  0  0
    1.8120   12.6450   -2.4500 C   0  0  2  0  0  0  0  0  0  0  0  0
    1.5550   11.4540   -3.3900 C   0  0  0  0  0  0  0  0  0  0  0  0
    0.4880   10.5090   -2.9460 C   0  0  0  0  0  0  0  0  0  0  0  0
   -0.0360   10.4480   -1.7080 C   0  0  0  0  0  0  0  0  0  0  0  0
    0.5130   11.3260   -0.5760 C   0  0  1  0  0  0  0  0  0  0  0  0
    0.7150   10.4630    0.6970 C   0  0  0  0  0  0  0  0  0  0  0  0
   -0.5500    9.7120    1.1020 C   0  0  0  0  0  0  0  0  0  0  0  0
   -1.0320    8.8070   -0.0280 C   0  0  2  0  0  0  0  0  0  0  0  0
   -0.0720    7.7640   -0.2240 O   0  0  0  0  0  0  0  0  0  0  0  0
   -1.2610    9.5650   -1.3650 C   0  0  0  0  0  0  0  0  0  0  0  0
   -2.5020   10.4820   -1.2380 C   0  0  0  0  0  0  0  0  0  0  0  0
   -1.6080    8.5150   -2.4560 C   0  0  0  0  0  0  0  0  0  0  0  0
    1.7930   12.1970   -0.9320 C   0  0  1  0  0  0  0  0  0  0  0  0
    3.0880   11.3590   -0.6990 C   0  0  0  0  0  0  0  0  0  0  0  0
    1.8740   13.4210    0.0540 C   0  0  0  0  0  0  0  0  0  0  0  0
    1.1120   14.6960   -0.3570 C   0  0  0  0  0  0  0  0  0  0  0  0
    1.4350   15.0850   -1.8030 C   0  0  2  0  0  0  0  0  0  0  0  0
    2.9650   15.4140   -1.8790 C   0  0  0  0  0  0  0  0  0  0  0  0
    3.1664   18.2741   -1.8854 H   0  0  0  0  0  0  0  0  0  0  0  0
    2.7395   17.2189   -3.2750 H   0  0  0  0  0  0  0  0  0  0  0  0
    2.2481   18.9467   -3.2750 H   0  0  0  0  0  0  0  0  0  0  0  0
    0.3322   18.4201   -2.2679 H   0  0  0  0  0  0  0  0  0  0  0  0
    0.5109   17.0027    0.0067 H   0  0  0  0  0  0  0  0  0  0  0  0
    2.2477   17.5476   -0.1652 H   0  0  0  0  0  0  0  0  0  0  0  0
    1.4636   19.2949    1.0560 H   0  0  0  0  0  0  0  0  0  0  0  0
    1.0442   19.8810   -0.6074 H   0  0  0  0  0  0  0  0  0  0  0  0
   -0.3353   19.5019    1.5708 H   0  0  0  0  0  0  0  0  0  0  0  0
   -0.7171   20.9729   -1.7874 H   0  0  0  0  0  0  0  0  0  0  0  0
   -0.8738   19.2671   -2.3280 H   0  0  0  0  0  0  0  0  0  0  0  0
   -2.3108   20.3449   -2.3280 H   0  0  0  0  0  0  0  0  0  0  0  0
   -2.9062   20.1694    1.2790 H   0  0  0  0  0  0  0  0  0  0  0  0
   -3.1303   21.2289   -0.1541 H   0  0  0  0  0  0  0  0  0  0  0  0
   -3.8039   19.5637   -0.1541 H   0  0  0  0  0  0  0  0  0  0  0  0
   -0.3774   16.2883   -2.0086 H   0  0  0  0  0  0  0  0  0  0  0  0
   -0.1783   16.2672   -4.4162 H   0  0  0  0  0  0  0  0  0  0  0  0
    1.5308   16.7489   -4.3563 H   0  0  0  0  0  0  0  0  0  0  0  0
    0.5656   14.1138   -4.8979 H   0  0  0  0  0  0  0  0  0  0  0  0
    2.2340   14.4859   -4.4727 H   0  0  0  0  0  0  0  0  0  0  0  0
   -0.8940   13.5589   -1.6527 H   0  0  0  0  0  0  0  0  0  0  0  0
   -1.1156   14.4307   -3.2075 H   0  0  0  0  0  0  0  0  0  0  0  0
   -0.7702   12.6680   -3.2075 H   0  0  0  0  0  0  0  0  0  0  0  0
    2.8349   12.9843   -2.6706 H   0  0  0  0  0  0  0  0  0  0  0  0
    1.2672   11.8535   -4.3737 H   0  0  0  0  0  0  0  0  0  0  0  0
    2.4886   10.8725   -3.4062 H   0  0  0  0  0  0  0  0  0  0  0  0
    0.0972    9.8032   -3.6937 H   0  0  0  0  0  0  0  0  0  0  0  0
   -0.2520   12.0940   -0.3891 H   0  0  0  0  0  0  0  0  0  0  0  0
    1.5130    9.7310    0.5037 H   0  0  0  0  0  0  0  0  0  0  0  0
    0.9788   11.1414    1.5217 H   0  0  0  0  0  0  0  0  0  0  0  0
   -0.3356    9.0975    1.9888 H   0  0  0  0  0  0  0  0  0  0  0  0
   -1.3383   10.4462    1.3244 H   0  0  0  0  0  0  0  0  0  0  0  0
   -2.0083    8.3975    0.2707 H   0  0  0  0  0  0  0  0  0  0  0  0
   -0.5620    6.9330   -0.3520 H   0  0  0  0  0  0  0  0  0  0  0  0
   -2.7275   10.6486   -0.1743 H   0  0  0  0  0  0  0  0  0  0  0  0
   -2.2964   11.4468   -1.7247 H   0  0  0  0  0  0  0  0  0  0  0  0
   -3.3639   10.0021   -1.7247 H   0  0  0  0  0  0  0  0  0  0  0  0
   -1.9185    7.5756   -1.9752 H   0  0  0  0  0  0  0  0  0  0  0  0
   -2.4284    8.8948   -3.0827 H   0  0  0  0  0  0  0  0  0  0  0  0
   -0.7228    8.3311   -3.0827 H   0  0  0  0  0  0  0  0  0  0  0  0
    3.2623   11.2462    0.3812 H   0  0  0  0  0  0  0  0  0  0  0  0
    2.9695   10.3659   -1.1570 H   0  0  0  0  0  0  0  0  0  0  0  0
    3.9454   11.8740   -1.1570 H   0  0  0  0  0  0  0  0  0  0  0  0
    1.4746   13.0931    1.0251 H   0  0  0  0  0  0  0  0  0  0  0  0
    2.9350   13.7111    0.0661 H   0  0  0  0  0  0  0  0  0  0  0  0
    0.0309   14.5143   -0.2661 H   0  0  0  0  0  0  0  0  0  0  0  0
    1.4210   15.5183    0.3051 H   0  0  0  0  0  0  0  0  0  0  0  0
    3.3722   15.5016   -0.8609 H   0  0  0  0  0  0  0  0  0  0  0  0
    3.4873   14.6076   -2.4147 H   0  0  0  0  0  0  0  0  0  0  0  0
    3.1096   16.3638   -2.4147 H   0  0  0  0  0  0  0  0  0  0  0  0
  1  2  1  0
  2  3  1  0
  3  4  1  0
  4  5  1  0
  5  6  1  0
  6  7  1  0
  7  8  1  0
  7  9  1  0
  2 10  1  0
 10 11  1  0
 11 12  1  0
 12 13  1  0
 13 14  1  1
 13 15  1  0
 15 16  1  0
 16 17  1  0
 17 18  2  0
 18 19  1  0
 19 20  1  0
 20 21  1  0
 21 22  1  0
 22 23  1  0
 22 24  1  0
 24 25  1  0
 24 26  1  0
 19 27  1  0
 27 28  1  6
 27 29  1  0
 29 30  1  0
 30 31  1  0
 31 32  1  1
  7  5  1  0
 31 10  1  0
 31 13  1  0
 27 15  1  0
 24 18  1  0
  1 33  1  0
  1 34  1  0
  1 35  1  0
  2 36  1  6
  3 37  1  0
  3 38  1  0
  4 39  1  0
  4 40  1  0
  5 41  1  1
  8 42  1  0
  8 43  1  0
  8 44  1  0
  9 45  1  0
  9 46  1  0
  9 47  1  0
 10 48  1  1
 11 49  1  0
 11 50  1  0
 12 51  1  0
 12 52  1  0
 14 53  1  0
 14 54  1  0
 14 55  1  0
 15 56  1  6
 16 57  1  0
 16 58  1  0
 17 59  1  0
 19 60  1  1
 20 61  1  0
 20 62  1  0
 21 63  1  0
 21 64  1  0
 22 65  1  1
 23 66  1  0
 25 67  1  0
 25 68  1  0
 25 69  1  0
 26 70  1  0
 26 71  1  0
 26 72  1  0
 28 73  1  0
 28 74  1  0
 28 75  1  0
 29 76  1  0
 29 77  1  0
 30 78  1  0
 30 79  1  0
 32 80  1  0
 32 81  1  0
 32 82  1  0
M  END
>  <meeko>  (2) 
{"is_sidechain": [false], "intermolecular_energy": 2.731, "internal_energy": -0.839}

$$$$
EPH_relaxed_0001_pdb2pqr_Repair_88_r2_0001_out
     RDKit          3D

 82 86  0  0  0  0  0  0  0  0999 V2000
    4.2410   17.5660   -0.6840 C   0  0  0  0  0  0  0  0  0  0  0  0
    2.8840   18.1460   -0.2780 C   0  0  2  0  0  0  0  0  0  0  0  0
    2.9440   18.8640    1.0860 C   0  0  0  0  0  0  0  0  0  0  0  0
    4.2490   18.6270    1.8490 C   0  0  0  0  0  0  0  0  0  0  0  0
    4.1880   19.1850    3.2390 C   0  0  2  0  0  0  0  0  0  0  0  0
    5.1650   20.1940    3.5220 O   0  0  0  0  0  0  0  0  0  0  0  0
    5.2780   18.9750    4.2730 C   0  0  0  0  0  0  0  0  0  0  0  0
    6.5070   18.1800    3.9620 C   0  0  0  0  0  0  0  0  0  0  0  0
    4.9290   19.1240    5.7210 C   0  0  0  0  0  0  0  0  0  0  0  0
    1.8360   17.0400   -0.2390 C   0  0  1  0  0  0  0  0  0  0  0  0
    0.4050   17.5610   -0.5370 C   0  0  0  0  0  0  0  0  0  0  0  0
   -0.3260   16.4380   -1.3160 C   0  0  0  0  0  0  0  0  0  0  0  0
    0.5800   15.1960   -1.1530 C   0  0  1  0  0  0  0  0  0  0  0  0
    0.2250   14.6220    0.2550 C   0  0  0  0  0  0  0  0  0  0  0  0
    0.4640   14.1050   -2.2670 C   0  0  2  0  0  0  0  0  0  0  0  0
   -0.9180   13.4390   -2.3860 C   0  0  0  0  0  0  0  0  0  0  0  0
   -1.1090   12.2120   -1.5570 C   0  0  0  0  0  0  0  0  0  0  0  0
   -0.1260   11.5040   -0.9700 C   0  0  0  0  0  0  0  0  0  0  0  0
    1.3470   11.8660   -1.1960 C   0  0  1  0  0  0  0  0  0  0  0  0
    2.1550   10.5780   -1.5070 C   0  0  0  0  0  0  0  0  0  0  0  0
    1.9740    9.5020   -0.4410 C   0  0  0  0  0  0  0  0  0  0  0  0
    0.5020    9.1280   -0.2880 C   0  0  2  0  0  0  0  0  0  0  0  0
    0.0620    8.4870   -1.4890 O   0  0  0  0  0  0  0  0  0  0  0  0
   -0.4110   10.3470    0.0190 C   0  0  0  0  0  0  0  0  0  0  0  0
   -0.1350   10.8570    1.4550 C   0  0  0  0  0  0  0  0  0  0  0  0
   -1.8840    9.8550    0.0090 C   0  0  0  0  0  0  0  0  0  0  0  0
    1.6240   13.0280   -2.2430 C   0  0  1  0  0  0  0  0  0  0  0  0
    1.7110   12.4370   -3.6840 C   0  0  0  0  0  0  0  0  0  0  0  0
    3.0290   13.6700   -1.9410 C   0  0  0  0  0  0  0  0  0  0  0  0
    3.0610   14.8230   -0.9200 C   0  0  0  0  0  0  0  0  0  0  0  0
    1.9950   15.8740   -1.2460 C   0  0  2  0  0  0  0  0  0  0  0  0
    2.3390   16.4840   -2.6480 C   0  0  0  0  0  0  0  0  0  0  0  0
    4.8190   17.3189    0.2187 H   0  0  0  0  0  0  0  0  0  0  0  0
    4.0866   16.6552   -1.2812 H   0  0  0  0  0  0  0  0  0  0  0  0
    4.7926   18.3070   -1.2812 H   0  0  0  0  0  0  0  0  0  0  0  0
    2.6051   18.8952   -1.0336 H   0  0  0  0  0  0  0  0  0  0  0  0
    2.8333   19.9449    0.9146 H   0  0  0  0  0  0  0  0  0  0  0  0
    2.1317   18.4514    1.7025 H   0  0  0  0  0  0  0  0  0  0  0  0
    4.4363   17.5446    1.9073 H   0  0  0  0  0  0  0  0  0  0  0  0
    5.0594   19.1389    1.3094 H   0  0  0  0  0  0  0  0  0  0  0  0
    3.0984   19.0386    3.2754 H   0  0  0  0  0  0  0  0  0  0  0  0
    6.9891   17.8681    4.9002 H   0  0  0  0  0  0  0  0  0  0  0  0
    6.2298   17.2896    3.3786 H   0  0  0  0  0  0  0  0  0  0  0  0
    7.2055   18.7979    3.3786 H   0  0  0  0  0  0  0  0  0  0  0  0
    5.7662   18.7666    6.3386 H   0  0  0  0  0  0  0  0  0  0  0  0
    4.7348   20.1835    5.9442 H   0  0  0  0  0  0  0  0  0  0  0  0
    4.0295   18.5314    5.9442 H   0  0  0  0  0  0  0  0  0  0  0  0
    1.9920   16.6752    0.7870 H   0  0  0  0  0  0  0  0  0  0  0  0
   -0.1236   17.7756    0.4035 H   0  0  0  0  0  0  0  0  0  0  0  0
    0.4373   18.4916   -1.1226 H   0  0  0  0  0  0  0  0  0  0  0  0
   -1.3212   16.2517   -0.8860 H   0  0  0  0  0  0  0  0  0  0  0  0
   -0.4877   16.7004   -2.3719 H   0  0  0  0  0  0  0  0  0  0  0  0
    0.6335   15.2826    1.0339 H   0  0  0  0  0  0  0  0  0  0  0  0
   -0.8682   14.5619    0.3615 H   0  0  0  0  0  0  0  0  0  0  0  0
    0.6595   13.6171    0.3615 H   0  0  0  0  0  0  0  0  0  0  0  0
    0.5931   14.6931   -3.1876 H   0  0  0  0  0  0  0  0  0  0  0  0
   -1.6771   14.1752   -2.0831 H   0  0  0  0  0  0  0  0  0  0  0  0
   -1.0104   13.1156   -3.4333 H   0  0  0  0  0  0  0  0  0  0  0  0
   -2.1401   11.8565   -1.4138 H   0  0  0  0  0  0  0  0  0  0  0  0
    1.6987   12.3091   -0.2526 H   0  0  0  0  0  0  0  0  0  0  0  0
    1.8191   10.1760   -2.4743 H   0  0  0  0  0  0  0  0  0  0  0  0
    3.2207   10.8497   -1.5294 H   0  0  0  0  0  0  0  0  0  0  0  0
    2.5444    8.6075   -0.7318 H   0  0  0  0  0  0  0  0  0  0  0  0
    2.3382    9.8948    0.5198 H   0  0  0  0  0  0  0  0  0  0  0  0
    0.4216    8.4513    0.5755 H   0  0  0  0  0  0  0  0  0  0  0  0
    0.8430    8.1010   -1.9200 H   0  0  0  0  0  0  0  0  0  0  0  0
   -0.5273   10.1320    2.1833 H   0  0  0  0  0  0  0  0  0  0  0  0
    0.9491   10.9731    1.6008 H   0  0  0  0  0  0  0  0  0  0  0  0
   -0.6307   11.8281    1.6008 H   0  0  0  0  0  0  0  0  0  0  0  0
   -2.2381    9.7367    1.0437 H   0  0  0  0  0  0  0  0  0  0  0  0
   -2.5131   10.5918   -0.5119 H   0  0  0  0  0  0  0  0  0  0  0  0
   -1.9441    8.8880   -0.5119 H   0  0  0  0  0  0  0  0  0  0  0  0
    1.8710   11.3503   -3.6256 H   0  0  0  0  0  0  0  0  0  0  0  0
    0.7731   12.6412   -4.2213 H   0  0  0  0  0  0  0  0  0  0  0  0
    2.5503   12.9028   -4.2213 H   0  0  0  0  0  0  0  0  0  0  0  0
    3.6850   12.8722   -1.5626 H   0  0  0  0  0  0  0  0  0  0  0  0
    3.3506   14.1190   -2.8923 H   0  0  0  0  0  0  0  0  0  0  0  0
    2.8720   14.4187    0.0854 H   0  0  0  0  0  0  0  0  0  0  0  0
    4.0503   15.3020   -0.9628 H   0  0  0  0  0  0  0  0  0  0  0  0
    2.8752   17.4349   -2.5126 H   0  0  0  0  0  0  0  0  0  0  0  0
    2.9739   15.7815   -3.2077 H   0  0  0  0  0  0  0  0  0  0  0  0
    1.4093   16.6638   -3.2077 H   0  0  0  0  0  0  0  0  0  0  0  0
  1  2  1  0
  2  3  1  0
  3  4  1  0
  4  5  1  0
  5  6  1  0
  6  7  1  0
  7  8  1  0
  7  9  1  0
  2 10  1  0
 10 11  1  0
 11 12  1  0
 12 13  1  0
 13 14  1  1
 13 15  1  0
 15 16  1  0
 16 17  1  0
 17 18  2  0
 18 19  1  0
 19 20  1  0
 20 21  1  0
 21 22  1  0
 22 23  1  0
 22 24  1  0
 24 25  1  0
 24 26  1  0
 19 27  1  0
 27 28  1  6
 27 29  1  0
 29 30  1  0
 30 31  1  0
 31 32  1  6
  7  5  1  0
 31 10  1  0
 31 13  1  0
 27 15  1  0
 24 18  1  0
  1 33  1  0
  1 34  1  0
  1 35  1  0
  2 36  1  6
  3 37  1  0
  3 38  1  0
  4 39  1  0
  4 40  1  0
  5 41  1  1
  8 42  1  0
  8 43  1  0
  8 44  1  0
  9 45  1  0
  9 46  1  0
  9 47  1  0
 10 48  1  1
 11 49  1  0
 11 50  1  0
 12 51  1  0
 12 52  1  0
 14 53  1  0
 14 54  1  0
 14 55  1  0
 15 56  1  6
 16 57  1  0
 16 58  1  0
 17 59  1  0
 19 60  1  1
 20 61  1  0
 20 62  1  0
 21 63  1  0
 21 64  1  0
 22 65  1  1
 23 66  1  0
 25 67  1  0
 25 68  1  0
 25 69  1  0
 26 70  1  0
 26 71  1  0
 26 72  1  0
 28 73  1  0
 28 74  1  0
 28 75  1  0
 29 76  1  0
 29 77  1  0
 30 78  1  0
 30 79  1  0
 32 80  1  0
 32 81  1  0
 32 82  1  0
M  END
>  <meeko>  (3) 
{"is_sidechain": [false], "intermolecular_energy": 2.731, "internal_energy": -0.839}

$$$$
EPH_relaxed_0001_pdb2pqr_Repair_88_r2_0001_out
     RDKit          3D

 82 86  0  0  0  0  0  0  0  0999 V2000
    3.7980   17.8670    0.7010 C   0  0  0  0  0  0  0  0  0  0  0  0
    2.7500   18.3080   -0.3240 C   0  0  2  0  0  0  0  0  0  0  0  0
    2.0350   19.6070    0.0980 C   0  0  0  0  0  0  0  0  0  0  0  0
    0.8040   19.3740    0.9770 C   0  0  0  0  0  0  0  0  0  0  0  0
   -0.4180   20.0250    0.4030 C   0  0  2  0  0  0  0  0  0  0  0  0
   -1.5010   20.1880    1.3290 O   0  0  0  0  0  0  0  0  0  0  0  0
   -1.7420   19.3060    0.2210 C   0  0  0  0  0  0  0  0  0  0  0  0
   -1.9100   17.8710    0.6110 C   0  0  0  0  0  0  0  0  0  0  0  0
   -2.7180   19.8460   -0.7780 C   0  0  0  0  0  0  0  0  0  0  0  0
    1.7290   17.1960   -0.5350 C   0  0  1  0  0  0  0  0  0  0  0  0
    0.5040   17.6600   -1.3670 C   0  0  0  0  0  0  0  0  0  0  0  0
    0.0630   16.4480   -2.2280 C   0  0  0  0  0  0  0  0  0  0  0  0
    0.8260   15.2450   -1.6270 C   0  0  1  0  0  0  0  0  0  0  0  0
   -0.0100   14.8220   -0.3790 C   0  0  0  0  0  0  0  0  0  0  0  0
    1.0790   14.0370   -2.5880 C   0  0  2  0  0  0  0  0  0  0  0  0
   -0.1900   13.3420   -3.1100 C   0  0  0  0  0  0  0  0  0  0  0  0
   -0.6860   12.2100   -2.2730 C   0  0  0  0  0  0  0  0  0  0  0  0
    0.0130   11.5840   -1.3080 C   0  0  0  0  0  0  0  0  0  0  0  0
    1.4810   11.9420   -1.0420 C   0  0  1  0  0  0  0  0  0  0  0  0
    2.3160   10.6410   -0.9130 C   0  0  0  0  0  0  0  0  0  0  0  0
    1.7500    9.6840    0.1320 C   0  0  0  0  0  0  0  0  0  0  0  0
    0.3080    9.3060   -0.1990 C   0  0  2  0  0  0  0  0  0  0  0  0
    0.2990    8.5320   -1.4020 O   0  0  0  0  0  0  0  0  0  0  0  0
   -0.6260   10.5380   -0.3620 C   0  0  0  0  0  0  0  0  0  0  0  0
   -0.8540   11.2040    1.0170 C   0  0  0  0  0  0  0  0  0  0  0  0
   -2.0140   10.0250   -0.8320 C   0  0  0  0  0  0  0  0  0  0  0  0
    2.1330   12.9880   -2.0460 C   0  0  1  0  0  0  0  0  0  0  0  0
    2.7020   12.2450   -3.2930 C   0  0  0  0  0  0  0  0  0  0  0  0
    3.3600   13.6800   -1.3430 C   0  0  0  0  0  0  0  0  0  0  0  0
    3.0610   14.9380   -0.5050 C   0  0  0  0  0  0  0  0  0  0  0  0
    2.2010   15.9300   -1.2930 C   0  0  2  0  0  0  0  0  0  0  0  0
    3.0260   16.3900   -2.5430 C   0  0  0  0  0  0  0  0  0  0  0  0
    3.4090   18.0307    1.7168 H   0  0  0  0  0  0  0  0  0  0  0  0
    4.0207   16.7989    0.5614 H   0  0  0  0  0  0  0  0  0  0  0  0
    4.7174   18.4545    0.5614 H   0  0  0  0  0  0  0  0  0  0  0  0
    3.2765   18.5132   -1.2678 H   0  0  0  0  0  0  0  0  0  0  0  0
    2.7483   20.2300    0.6575 H   0  0  0  0  0  0  0  0  0  0  0  0
    1.6844   20.0949   -0.8234 H   0  0  0  0  0  0  0  0  0  0  0  0
    0.6254   18.2918    1.0608 H   0  0  0  0  0  0  0  0  0  0  0  0
    0.9981   19.8190    1.9641 H   0  0  0  0  0  0  0  0  0  0  0  0
    0.1961   20.6257   -0.2840 H   0  0  0  0  0  0  0  0  0  0  0  0
   -1.9197   17.7878    1.7078 H   0  0  0  0  0  0  0  0  0  0  0  0
   -2.8589   17.4896    0.2059 H   0  0  0  0  0  0  0  0  0  0  0  0
   -1.0748   17.2807    0.2059 H   0  0  0  0  0  0  0  0  0  0  0  0
   -3.5624   20.3132   -0.2501 H   0  0  0  0  0  0  0  0  0  0  0  0
   -2.2195   20.5966   -1.4089 H   0  0  0  0  0  0  0  0  0  0  0  0
   -3.0891   19.0249   -1.4089 H   0  0  0  0  0  0  0  0  0  0  0  0
    1.5102   16.9461    0.5137 H   0  0  0  0  0  0  0  0  0  0  0  0
   -0.3137   17.9672   -0.6983 H   0  0  0  0  0  0  0  0  0  0  0  0
    0.7604   18.5220   -2.0004 H   0  0  0  0  0  0  0  0  0  0  0  0
   -1.0238   16.2945   -2.1548 H   0  0  0  0  0  0  0  0  0  0  0  0
    0.2850   16.5918   -3.2957 H   0  0  0  0  0  0  0  0  0  0  0  0
    0.5336   15.0971    0.5369 H   0  0  0  0  0  0  0  0  0  0  0  0
   -0.9819   15.3368   -0.3971 H   0  0  0  0  0  0  0  0  0  0  0  0
   -0.1710   13.7340   -0.3971 H   0  0  0  0  0  0  0  0  0  0  0  0
    1.5341   14.5226   -3.4638 H   0  0  0  0  0  0  0  0  0  0  0  0
   -0.9894   14.0952   -3.1716 H   0  0  0  0  0  0  0  0  0  0  0  0
    0.0797   12.9060   -4.0832 H   0  0  0  0  0  0  0  0  0  0  0  0
   -1.7108   11.8571   -2.4610 H   0  0  0  0  0  0  0  0  0  0  0  0
    1.4921   12.4893   -0.0879 H   0  0  0  0  0  0  0  0  0  0  0  0
    2.3281   10.1316   -1.8879 H   0  0  0  0  0  0  0  0  0  0  0  0
    3.3291   10.9248   -0.5920 H   0  0  0  0  0  0  0  0  0  0  0  0
    2.3649    8.7722    0.1558 H   0  0  0  0  0  0  0  0  0  0  0  0
    1.7660   10.1841    1.1116 H   0  0  0  0  0  0  0  0  0  0  0  0
   -0.0843    8.7256    0.6491 H   0  0  0  0  0  0  0  0  0  0  0  0
    0.6410    7.6480   -1.1860 H   0  0  0  0  0  0  0  0  0  0  0  0
   -0.6088   10.4878    1.8151 H   0  0  0  0  0  0  0  0  0  0  0  0
   -0.2079   12.0896    1.1078 H   0  0  0  0  0  0  0  0  0  0  0  0
   -1.9073   11.5078    1.1078 H   0  0  0  0  0  0  0  0  0  0  0  0
   -2.6363    9.7950    0.0454 H   0  0  0  0  0  0  0  0  0  0  0  0
   -2.5059   10.8007   -1.4372 H   0  0  0  0  0  0  0  0  0  0  0  0
   -1.8832    9.1158   -1.4372 H   0  0  0  0  0  0  0  0  0  0  0  0
    3.3401   11.4117   -2.9638 H   0  0  0  0  0  0  0  0  0  0  0  0
    1.8706   11.8535   -3.8975 H   0  0  0  0  0  0  0  0  0  0  0  0
    3.2967   12.9456   -3.8975 H   0  0  0  0  0  0  0  0  0  0  0  0
    3.8234   12.9381   -0.6760 H   0  0  0  0  0  0  0  0  0  0  0  0
    4.0043   14.0272   -2.1641 H   0  0  0  0  0  0  0  0  0  0  0  0
    2.5240   14.6426    0.4084 H   0  0  0  0  0  0  0  0  0  0  0  0
    4.0141   15.4248   -0.2510 H   0  0  0  0  0  0  0  0  0  0  0  0
    3.9417   16.9006   -2.2103 H   0  0  0  0  0  0  0  0  0  0  0  0
    3.2951   15.5117   -3.1482 H   0  0  0  0  0  0  0  0  0  0  0  0
    2.4204   17.0806   -3.1482 H   0  0  0  0  0  0  0  0  0  0  0  0
  1  2  1  0
  2  3  1  0
  3  4  1  0
  4  5  1  0
  5  6  1  0
  6  7  1  0
  7  8  1  0
  7  9  1  0
  2 10  1  0
 10 11  1  0
 11 12  1  0
 12 13  1  0
 13 14  1  1
 13 15  1  0
 15 16  1  0
 16 17  1  0
 17 18  2  0
 18 19  1  0
 19 20  1  0
 20 21  1  0
 21 22  1  0
 22 23  1  0
 22 24  1  0
 24 25  1  0
 24 26  1  0
 19 27  1  0
 27 28  1  6
 27 29  1  0
 29 30  1  0
 30 31  1  0
 31 32  1  6
  7  5  1  0
 31 10  1  0
 31 13  1  0
 27 15  1  0
 24 18  1  0
  1 33  1  0
  1 34  1  0
  1 35  1  0
  2 36  1  6
  3 37  1  0
  3 38  1  0
  4 39  1  0
  4 40  1  0
  5 41  1  6
  8 42  1  0
  8 43  1  0
  8 44  1  0
  9 45  1  0
  9 46  1  0
  9 47  1  0
 10 48  1  1
 11 49  1  0
 11 50  1  0
 12 51  1  0
 12 52  1  0
 14 53  1  0
 14 54  1  0
 14 55  1  0
 15 56  1  6
 16 57  1  0
 16 58  1  0
 17 59  1  0
 19 60  1  1
 20 61  1  0
 20 62  1  0
 21 63  1  0
 21 64  1  0
 22 65  1  1
 23 66  1  0
 25 67  1  0
 25 68  1  0
 25 69  1  0
 26 70  1  0
 26 71  1  0
 26 72  1  0
 28 73  1  0
 28 74  1  0
 28 75  1  0
 29 76  1  0
 29 77  1  0
 30 78  1  0
 30 79  1  0
 32 80  1  0
 32 81  1  0
 32 82  1  0
M  END
>  <meeko>  (4) 
{"is_sidechain": [false], "intermolecular_energy": 2.731, "internal_energy": -0.839}

$$$$
EPH_relaxed_0001_pdb2pqr_Repair_88_r2_0001_out
     RDKit          3D

 82 86  0  0  0  0  0  0  0  0999 V2000
   -0.2610   10.3780   -3.5960 C   0  0  0  0  0  0  0  0  0  0  0  0
    0.8830   10.2060   -2.5930 C   0  0  2  0  0  0  0  0  0  0  0  0
    0.7120    8.9390   -1.7300 C   0  0  0  0  0  0  0  0  0  0  0  0
   -0.0000    9.1930   -0.3990 C   0  0  0  0  0  0  0  0  0  0  0  0
   -1.3860    8.6220   -0.3950 C   0  0  2  0  0  0  0  0  0  0  0  0
   -2.0560    8.6680   -1.6620 O   0  0  0  0  0  0  0  0  0  0  0  0
   -2.6350    9.4570   -0.6100 C   0  0  0  0  0  0  0  0  0  0  0  0
   -2.5560   10.9330   -0.8430 C   0  0  0  0  0  0  0  0  0  0  0  0
   -3.9430    8.9290   -0.1100 C   0  0  0  0  0  0  0  0  0  0  0  0
    0.9800   11.4360   -1.6990 C   0  0  1  0  0  0  0  0  0  0  0  0
    2.0530   11.2840   -0.5880 C   0  0  0  0  0  0  0  0  0  0  0  0
    2.6780   12.6870   -0.3750 C   0  0  0  0  0  0  0  0  0  0  0  0
    1.7280   13.6540   -1.1190 C   0  0  1  0  0  0  0  0  0  0  0  0
    0.5430   13.8920   -0.1310 C   0  0  0  0  0  0  0  0  0  0  0  0
    2.3550   15.0020   -1.6040 C   0  0  2  0  0  0  0  0  0  0  0  0
    2.8790   15.9180   -0.4840 C   0  0  0  0  0  0  0  0  0  0  0  0
    1.8900   16.8970    0.0550 C   0  0  0  0  0  0  0  0  0  0  0  0
    0.7240   17.2320   -0.5290 C   0  0  0  0  0  0  0  0  0  0  0  0
    0.3460   16.6780   -1.9090 C   0  0  1  0  0  0  0  0  0  0  0  0
   -0.1790   17.8310   -2.8040 C   0  0  0  0  0  0  0  0  0  0  0  0
   -1.3220   18.6040   -2.1520 C   0  0  0  0  0  0  0  0  0  0  0  0
   -0.8900   19.1880   -0.8100 C   0  0  2  0  0  0  0  0  0  0  0  0
    0.1030   20.1920   -1.0430 O   0  0  0  0  0  0  0  0  0  0  0  0
   -0.3330   18.1200    0.1720 C   0  0  0  0  0  0  0  0  0  0  0  0
   -1.4870   17.2100    0.6600 C   0  0  0  0  0  0  0  0  0  0  0  0
    0.1980   18.8600    1.4300 C   0  0  0  0  0  0  0  0  0  0  0  0
    1.4570   15.8020   -2.6320 C   0  0  1  0  0  0  0  0  0  0  0  0
    2.4200   16.7240   -3.4400 C   0  0  0  0  0  0  0  0  0  0  0  0
    0.7630   14.8560   -3.6820 C   0  0  0  0  0  0  0  0  0  0  0  0
    0.2720   13.4890   -3.1680 C   0  0  0  0  0  0  0  0  0  0  0  0
    1.3690   12.7760   -2.3730 C   0  0  2  0  0  0  0  0  0  0  0  0
    2.5660   12.5030   -3.3460 C   0  0  0  0  0  0  0  0  0  0  0  0
   -1.2068   10.5202   -3.0526 H   0  0  0  0  0  0  0  0  0  0  0  0
   -0.0655   11.2568   -4.2280 H   0  0  0  0  0  0  0  0  0  0  0  0
   -0.3326    9.4805   -4.2280 H   0  0  0  0  0  0  0  0  0  0  0  0
    1.8135   10.0910   -3.1683 H   0  0  0  0  0  0  0  0  0  0  0  0
    0.1261    8.2051   -2.3028 H   0  0  0  0  0  0  0  0  0  0  0  0
    1.7218    8.5745   -1.4902 H   0  0  0  0  0  0  0  0  0  0  0  0
    0.5803    8.7264    0.4107 H   0  0  0  0  0  0  0  0  0  0  0  0
   -0.0763   10.2805   -0.2525 H   0  0  0  0  0  0  0  0  0  0  0  0
   -1.1097    7.8940    0.3819 H   0  0  0  0  0  0  0  0  0  0  0  0
   -2.5280   11.4559    0.1243 H   0  0  0  0  0  0  0  0  0  0  0  0
   -1.6441   11.1660   -1.4123 H   0  0  0  0  0  0  0  0  0  0  0  0
   -3.4378   11.2621   -1.4123 H   0  0  0  0  0  0  0  0  0  0  0  0
   -3.9422    8.9293    0.9900 H   0  0  0  0  0  0  0  0  0  0  0  0
   -4.7603    9.5676   -0.4762 H   0  0  0  0  0  0  0  0  0  0  0  0
   -4.0879    7.9019   -0.4762 H   0  0  0  0  0  0  0  0  0  0  0  0
   -0.0579   11.4838   -1.3377 H   0  0  0  0  0  0  0  0  0  0  0  0
    1.5863   10.9318    0.3437 H   0  0  0  0  0  0  0  0  0  0  0  0
    2.8195   10.5498   -0.8769 H   0  0  0  0  0  0  0  0  0  0  0  0
    2.7225   12.9338    0.6960 H   0  0  0  0  0  0  0  0  0  0  0  0
    3.7104   12.7452   -0.7503 H   0  0  0  0  0  0  0  0  0  0  0  0
    0.9082   13.8187    0.9040 H   0  0  0  0  0  0  0  0  0  0  0  0
    0.1198   14.8931   -0.3004 H   0  0  0  0  0  0  0  0  0  0  0  0
   -0.2339   13.1320   -0.3004 H   0  0  0  0  0  0  0  0  0  0  0  0
    3.2452   14.6634   -2.1543 H   0  0  0  0  0  0  0  0  0  0  0  0
    3.2137   15.2805    0.3476 H   0  0  0  0  0  0  0  0  0  0  0  0
    3.6853   16.5165   -0.9331 H   0  0  0  0  0  0  0  0  0  0  0  0
    2.1341   17.3860    1.0096 H   0  0  0  0  0  0  0  0  0  0  0  0
   -0.4568   15.9467   -1.7336 H   0  0  0  0  0  0  0  0  0  0  0  0
    0.6488   18.5273   -3.0037 H   0  0  0  0  0  0  0  0  0  0  0  0
   -0.5649   17.3841   -3.7321 H   0  0  0  0  0  0  0  0  0  0  0  0
   -1.6291   19.4231   -2.8189 H   0  0  0  0  0  0  0  0  0  0  0  0
   -2.1603   17.9127   -1.9805 H   0  0  0  0  0  0  0  0  0  0  0  0
   -1.7840   19.6162   -0.3331 H   0  0  0  0  0  0  0  0  0  0  0  0
    0.2860   20.6280   -0.1940 H   0  0  0  0  0  0  0  0  0  0  0  0
   -1.5036   17.1969    1.7598 H   0  0  0  0  0  0  0  0  0  0  0  0
   -2.4447   17.5986    0.2834 H   0  0  0  0  0  0  0  0  0  0  0  0
   -1.3324   16.1881    0.2834 H   0  0  0  0  0  0  0  0  0  0  0  0
   -0.1664   18.3522    2.3352 H   0  0  0  0  0  0  0  0  0  0  0  0
    1.2980   18.8523    1.4229 H   0  0  0  0  0  0  0  0  0  0  0  0
   -0.1615   19.8996    1.4229 H   0  0  0  0  0  0  0  0  0  0  0  0
    3.0348   17.3126   -2.7431 H   0  0  0  0  0  0  0  0  0  0  0  0
    3.0735   16.1062   -4.0735 H   0  0  0  0  0  0  0  0  0  0  0  0
    1.8312   17.4037   -4.0735 H   0  0  0  0  0  0  0  0  0  0  0  0
   -0.1081   15.3914   -4.0875 H   0  0  0  0  0  0  0  0  0  0  0  0
    1.5449   14.6221   -4.4195 H   0  0  0  0  0  0  0  0  0  0  0  0
   -0.6020   13.6419   -2.5178 H   0  0  0  0  0  0  0  0  0  0  0  0
    0.0039   12.8648   -4.0332 H   0  0  0  0  0  0  0  0  0  0  0  0
    3.4742   12.2959   -2.7609 H   0  0  0  0  0  0  0  0  0  0  0  0
    2.3324   11.6351   -3.9801 H   0  0  0  0  0  0  0  0  0  0  0  0
    2.7319   13.3864   -3.9801 H   0  0  0  0  0  0  0  0  0  0  0  0
  1  2  1  0
  2  3  1  0
  3  4  1  0
  4  5  1  0
  5  6  1  0
  6  7  1  0
  7  8  1  0
  7  9  1  0
  2 10  1  0
 10 11  1  0
 11 12  1  0
 12 13  1  0
 13 14  1  1
 13 15  1  0
 15 16  1  0
 16 17  1  0
 17 18  2  0
 18 19  1  0
 19 20  1  0
 20 21  1  0
 21 22  1  0
 22 23  1  0
 22 24  1  0
 24 25  1  0
 24 26  1  0
 19 27  1  0
 27 28  1  6
 27 29  1  0
 29 30  1  0
 30 31  1  0
 31 32  1  6
  7  5  1  0
 31 10  1  0
 31 13  1  0
 27 15  1  0
 24 18  1  0
  1 33  1  0
  1 34  1  0
  1 35  1  0
  2 36  1  6
  3 37  1  0
  3 38  1  0
  4 39  1  0
  4 40  1  0
  5 41  1  1
  8 42  1  0
  8 43  1  0
  8 44  1  0
  9 45  1  0
  9 46  1  0
  9 47  1  0
 10 48  1  1
 11 49  1  0
 11 50  1  0
 12 51  1  0
 12 52  1  0
 14 53  1  0
 14 54  1  0
 14 55  1  0
 15 56  1  6
 16 57  1  0
 16 58  1  0
 17 59  1  0
 19 60  1  1
 20 61  1  0
 20 62  1  0
 21 63  1  0
 21 64  1  0
 22 65  1  1
 23 66  1  0
 25 67  1  0
 25 68  1  0
 25 69  1  0
 26 70  1  0
 26 71  1  0
 26 72  1  0
 28 73  1  0
 28 74  1  0
 28 75  1  0
 29 76  1  0
 29 77  1  0
 30 78  1  0
 30 79  1  0
 32 80  1  0
 32 81  1  0
 32 82  1  0
M  END
>  <meeko>  (5) 
{"is_sidechain": [false], "intermolecular_energy": 2.731, "internal_energy": -0.839}

$$$$
EPH_relaxed_0001_pdb2pqr_Repair_88_r2_0001_out
     RDKit          3D

 82 86  0  0  0  0  0  0  0  0999 V2000
    0.4220    8.7940   -2.3460 C   0  0  0  0  0  0  0  0  0  0  0  0
    1.1570    9.9340   -3.0570 C   0  0  2  0  0  0  0  0  0  0  0  0
    2.6610    9.9560   -2.7170 C   0  0  0  0  0  0  0  0  0  0  0  0
    3.5290   10.5860   -3.8090 C   0  0  0  0  0  0  0  0  0  0  0  0
    4.9270   10.8380   -3.3300 C   0  0  2  0  0  0  0  0  0  0  0  0
    5.5240   12.0420   -3.8290 O   0  0  0  0  0  0  0  0  0  0  0  0
    6.1410   10.8110   -4.2390 C   0  0  0  0  0  0  0  0  0  0  0  0
    6.0130   10.5250   -5.7030 C   0  0  0  0  0  0  0  0  0  0  0  0
    7.4880   10.5790   -3.6290 C   0  0  0  0  0  0  0  0  0  0  0  0
    0.5200   11.2700   -2.6920 C   0  0  1  0  0  0  0  0  0  0  0  0
   -0.8520   11.1050   -1.9860 C   0  0  0  0  0  0  0  0  0  0  0  0
   -0.9600   12.2500   -0.9470 C   0  0  0  0  0  0  0  0  0  0  0  0
    0.1870   13.2200   -1.3140 C   0  0  1  0  0  0  0  0  0  0  0  0
   -0.3710   14.0720   -2.4970 C   0  0  0  0  0  0  0  0  0  0  0  0
    0.7250   14.1230   -0.1560 C   0  0  2  0  0  0  0  0  0  0  0  0
   -0.3010   15.1020    0.4380 C   0  0  0  0  0  0  0  0  0  0  0  0
   -0.3490   16.4470   -0.2100 C   0  0  0  0  0  0  0  0  0  0  0  0
    0.5870   16.9510   -1.0340 C   0  0  0  0  0  0  0  0  0  0  0  0
    1.8860   16.1850   -1.3140 C   0  0  1  0  0  0  0  0  0  0  0  0
    3.0930   17.1520   -1.1970 C   0  0  0  0  0  0  0  0  0  0  0  0
    2.9420   18.3860   -2.0820 C   0  0  0  0  0  0  0  0  0  0  0  0
    1.6680   19.1530   -1.7350 C   0  0  2  0  0  0  0  0  0  0  0  0
    1.8030   19.6990   -0.4190 O   0  0  0  0  0  0  0  0  0  0  0  0
    0.3860   18.2770   -1.8080 C   0  0  0  0  0  0  0  0  0  0  0  0
    0.0740   17.9350   -3.2860 C   0  0  0  0  0  0  0  0  0  0  0  0
   -0.8060   19.1320   -1.2990 C   0  0  0  0  0  0  0  0  0  0  0  0
    2.0940   14.8470   -0.4820 C   0  0  1  0  0  0  0  0  0  0  0  0
    2.7640   15.1700    0.8890 C   0  0  0  0  0  0  0  0  0  0  0  0
    3.0970   13.9110   -1.2560 C   0  0  0  0  0  0  0  0  0  0  0  0
    2.4900   12.9570   -2.3020 C   0  0  0  0  0  0  0  0  0  0  0  0
    1.3010   12.1870   -1.7180 C   0  0  2  0  0  0  0  0  0  0  0  0
    1.8360   11.3040   -0.5400 C   0  0  0  0  0  0  0  0  0  0  0  0
    0.5069    8.9257   -1.2572 H   0  0  0  0  0  0  0  0  0  0  0  0
   -0.6393    8.8054   -2.6350 H   0  0  0  0  0  0  0  0  0  0  0  0
    0.8704    7.8320   -2.6350 H   0  0  0  0  0  0  0  0  0  0  0  0
    1.0662    9.7626   -4.1398 H   0  0  0  0  0  0  0  0  0  0  0  0
    2.7990   10.5303   -1.7891 H   0  0  0  0  0  0  0  0  0  0  0  0
    2.9829    8.9092   -2.6142 H   0  0  0  0  0  0  0  0  0  0  0  0
    3.5653    9.9054   -4.6724 H   0  0  0  0  0  0  0  0  0  0  0  0
    3.0825   11.5521   -4.0869 H   0  0  0  0  0  0  0  0  0  0  0  0
    4.7119   10.3432   -2.3714 H   0  0  0  0  0  0  0  0  0  0  0  0
    5.5674    9.5293   -5.8445 H   0  0  0  0  0  0  0  0  0  0  0  0
    5.3690   11.2847   -6.1701 H   0  0  0  0  0  0  0  0  0  0  0  0
    7.0086   10.5509   -6.1701 H   0  0  0  0  0  0  0  0  0  0  0  0
    7.4014   10.5939   -2.5325 H   0  0  0  0  0  0  0  0  0  0  0  0
    7.8738    9.6012   -3.9531 H   0  0  0  0  0  0  0  0  0  0  0  0
    8.1787   11.3714   -3.9531 H   0  0  0  0  0  0  0  0  0  0  0  0
    0.4752   11.7316   -3.6894 H   0  0  0  0  0  0  0  0  0  0  0  0
   -1.6676   11.1814   -2.7202 H   0  0  0  0  0  0  0  0  0  0  0  0
   -0.9306   10.1214   -1.4998 H   0  0  0  0  0  0  0  0  0  0  0  0
   -1.9346   12.7541   -1.0247 H   0  0  0  0  0  0  0  0  0  0  0  0
   -0.8812   11.8834    0.0871 H   0  0  0  0  0  0  0  0  0  0  0  0
   -0.9327   14.9296   -2.0982 H   0  0  0  0  0  0  0  0  0  0  0  0
    0.4646   14.4355   -3.1132 H   0  0  0  0  0  0  0  0  0  0  0  0
   -1.0381   13.4513   -3.1132 H   0  0  0  0  0  0  0  0  0  0  0  0
    0.9324   13.3904    0.6379 H   0  0  0  0  0  0  0  0  0  0  0  0
   -1.2978   14.6456    0.3481 H   0  0  0  0  0  0  0  0  0  0  0  0
    0.0116   15.2764    1.4781 H   0  0  0  0  0  0  0  0  0  0  0  0
   -1.2236   17.0786    0.0048 H   0  0  0  0  0  0  0  0  0  0  0  0
    1.8039   15.8139   -2.3462 H   0  0  0  0  0  0  0  0  0  0  0  0
    3.1837   17.4777   -0.1503 H   0  0  0  0  0  0  0  0  0  0  0  0
    3.9894   16.6091   -1.5311 H   0  0  0  0  0  0  0  0  0  0  0  0
    3.8106   19.0444   -1.9331 H   0  0  0  0  0  0  0  0  0  0  0  0
    2.8816   18.0608   -3.1311 H   0  0  0  0  0  0  0  0  0  0  0  0
    1.5472   19.9484   -2.4851 H   0  0  0  0  0  0  0  0  0  0  0  0
    1.4710   19.0360    0.2100 H   0  0  0  0  0  0  0  0  0  0  0  0
   -0.6669   17.1229   -3.3259 H   0  0  0  0  0  0  0  0  0  0  0  0
   -0.3299   18.8249   -3.7909 H   0  0  0  0  0  0  0  0  0  0  0  0
    0.9972   17.6143   -3.7909 H   0  0  0  0  0  0  0  0  0  0  0  0
   -0.8112   19.1357   -0.1990 H   0  0  0  0  0  0  0  0  0  0  0  0
   -0.7021   20.1628   -1.6687 H   0  0  0  0  0  0  0  0  0  0  0  0
   -1.7491   18.7032   -1.6687 H   0  0  0  0  0  0  0  0  0  0  0  0
    2.1004   14.8501    1.7058 H   0  0  0  0  0  0  0  0  0  0  0  0
    3.7221   14.6348    0.9640 H   0  0  0  0  0  0  0  0  0  0  0  0
    2.9420   16.2529    0.9640 H   0  0  0  0  0  0  0  0  0  0  0  0
    3.8214   14.5561   -1.7747 H   0  0  0  0  0  0  0  0  0  0  0  0
    3.5315   13.2558   -0.4866 H   0  0  0  0  0  0  0  0  0  0  0  0
    2.1487   13.5429   -3.1681 H   0  0  0  0  0  0  0  0  0  0  0  0
    3.2610   12.2336   -2.6059 H   0  0  0  0  0  0  0  0  0  0  0  0
    1.5571   11.7644    0.4193 H   0  0  0  0  0  0  0  0  0  0  0  0
    1.3952   10.2984   -0.6060 H   0  0  0  0  0  0  0  0  0  0  0  0
    2.9315   11.2292   -0.6060 H   0  0  0  0  0  0  0  0  0  0  0  0
  1  2  1  0
  2  3  1  0
  3  4  1  0
  4  5  1  0
  5  6  1  0
  6  7  1  0
  7  8  1  0
  7  9  1  0
  2 10  1  0
 10 11  1  0
 11 12  1  0
 12 13  1  0
 13 14  1  6
 13 15  1  0
 15 16  1  0
 16 17  1  0
 17 18  2  0
 18 19  1  0
 19 20  1  0
 20 21  1  0
 21 22  1  0
 22 23  1  0
 22 24  1  0
 24 25  1  0
 24 26  1  0
 19 27  1  0
 27 28  1  1
 27 29  1  0
 29 30  1  0
 30 31  1  0
 31 32  1  1
  7  5  1  0
 31 10  1  0
 31 13  1  0
 27 15  1  0
 24 18  1  0
  1 33  1  0
  1 34  1  0
  1 35  1  0
  2 36  1  6
  3 37  1  0
  3 38  1  0
  4 39  1  0
  4 40  1  0
  5 41  1  1
  8 42  1  0
  8 43  1  0
  8 44  1  0
  9 45  1  0
  9 46  1  0
  9 47  1  0
 10 48  1  6
 11 49  1  0
 11 50  1  0
 12 51  1  0
 12 52  1  0
 14 53  1  0
 14 54  1  0
 14 55  1  0
 15 56  1  1
 16 57  1  0
 16 58  1  0
 17 59  1  0
 19 60  1  6
 20 61  1  0
 20 62  1  0
 21 63  1  0
 21 64  1  0
 22 65  1  6
 23 66  1  0
 25 67  1  0
 25 68  1  0
 25 69  1  0
 26 70  1  0
 26 71  1  0
 26 72  1  0
 28 73  1  0
 28 74  1  0
 28 75  1  0
 29 76  1  0
 29 77  1  0
 30 78  1  0
 30 79  1  0
 32 80  1  0
 32 81  1  0
 32 82  1  0
M  END
>  <meeko>  (6) 
{"is_sidechain": [false], "intermolecular_energy": 2.731, "internal_energy": -0.839}

$$$$
EPH_relaxed_0001_pdb2pqr_Repair_88_r2_0001_out
     RDKit          3D

 82 86  0  0  0  0  0  0  0  0999 V2000
   -3.7500    7.2240   -3.3930 C   0  0  0  0  0  0  0  0  0  0  0  0
   -3.7820    7.3100   -1.8640 C   0  0  2  0  0  0  0  0  0  0  0  0
   -5.2030    7.1100   -1.3010 C   0  0  0  0  0  0  0  0  0  0  0  0
   -6.3100    7.3020   -2.3400 C   0  0  0  0  0  0  0  0  0  0  0  0
   -7.6540    7.4570   -1.6960 C   0  0  2  0  0  0  0  0  0  0  0  0
   -8.2460    6.2330   -1.2410 O   0  0  0  0  0  0  0  0  0  0  0  0
   -8.9380    6.9170   -2.2980 C   0  0  0  0  0  0  0  0  0  0  0  0
   -8.9400    6.1800   -3.6000 C   0  0  0  0  0  0  0  0  0  0  0  0
  -10.2390    7.5240   -1.8720 C   0  0  0  0  0  0  0  0  0  0  0  0
   -3.2250    8.6540   -1.4080 C   0  0  1  0  0  0  0  0  0  0  0  0
   -3.8450    9.1330   -0.0680 C   0  0  0  0  0  0  0  0  0  0  0  0
   -2.7250    9.8800    0.7010 C   0  0  0  0  0  0  0  0  0  0  0  0
   -1.6090   10.0960   -0.3480 C   0  0  1  0  0  0  0  0  0  0  0  0
   -2.0600   11.3490   -1.1620 C   0  0  0  0  0  0  0  0  0  0  0  0
   -0.1580   10.2620    0.2110 C   0  0  2  0  0  0  0  0  0  0  0  0
    0.0570   11.4880    1.1150 C   0  0  0  0  0  0  0  0  0  0  0  0
    0.4870   12.7320    0.4120 C   0  0  0  0  0  0  0  0  0  0  0  0
    0.9670   12.7940   -0.8440 C   0  0  0  0  0  0  0  0  0  0  0  0
    1.2090   11.5170   -1.6590 C   0  0  1  0  0  0  0  0  0  0  0  0
    2.6040   11.5910   -2.3340 C   0  0  0  0  0  0  0  0  0  0  0  0
    2.7850   12.8570   -3.1660 C   0  0  0  0  0  0  0  0  0  0  0  0
    2.5930   14.1050   -2.3090 C   0  0  2  0  0  0  0  0  0  0  0  0
    3.6570   14.1760   -1.3540 O   0  0  0  0  0  0  0  0  0  0  0  0
    1.2260   14.1370   -1.5710 C   0  0  0  0  0  0  0  0  0  0  0  0
    0.0870   14.3640   -2.5950 C   0  0  0  0  0  0  0  0  0  0  0  0
    1.2190   15.3750   -0.6330 C   0  0  0  0  0  0  0  0  0  0  0  0
    0.9770   10.1480   -0.8870 C   0  0  1  0  0  0  0  0  0  0  0  0
    2.2800    9.7310   -0.1390 C   0  0  0  0  0  0  0  0  0  0  0  0
    0.6830    9.0100   -1.9350 C   0  0  0  0  0  0  0  0  0  0  0  0
   -0.7860    8.8170   -2.3570 C   0  0  0  0  0  0  0  0  0  0  0  0
   -1.7030    8.7370   -1.1330 C   0  0  2  0  0  0  0  0  0  0  0  0
   -1.2870    7.4720   -0.3060 C   0  0  0  0  0  0  0  0  0  0  0  0
   -3.3813    6.2332   -3.6969 H   0  0  0  0  0  0  0  0  0  0  0  0
   -4.7646    7.3753   -3.7901 H   0  0  0  0  0  0  0  0  0  0  0  0
   -3.0811    8.0017   -3.7901 H   0  0  0  0  0  0  0  0  0  0  0  0
   -3.1547    6.4953   -1.4730 H   0  0  0  0  0  0  0  0  0  0  0  0
   -5.2768    6.0884   -0.8999 H   0  0  0  0  0  0  0  0  0  0  0  0
   -5.3526    7.8772   -0.5270 H   0  0  0  0  0  0  0  0  0  0  0  0
   -6.0917    8.2038   -2.9309 H   0  0  0  0  0  0  0  0  0  0  0  0
   -6.3378    6.4081   -2.9805 H   0  0  0  0  0  0  0  0  0  0  0  0
   -7.3801    8.4503   -1.3108 H   0  0  0  0  0  0  0  0  0  0  0  0
   -8.9429    5.0969   -3.4082 H   0  0  0  0  0  0  0  0  0  0  0  0
   -9.8374    6.4531   -4.1745 H   0  0  0  0  0  0  0  0  0  0  0  0
   -8.0411    6.4482   -4.1745 H   0  0  0  0  0  0  0  0  0  0  0  0
  -10.2902    7.5479   -0.7735 H   0  0  0  0  0  0  0  0  0  0  0  0
  -10.3115    8.5489   -2.2648 H   0  0  0  0  0  0  0  0  0  0  0  0
  -11.0710    6.9211   -2.2648 H   0  0  0  0  0  0  0  0  0  0  0  0
   -3.4824    9.2674   -2.2841 H   0  0  0  0  0  0  0  0  0  0  0  0
   -4.6887    9.8116   -0.2621 H   0  0  0  0  0  0  0  0  0  0  0  0
   -4.2266    8.2831    0.5169 H   0  0  0  0  0  0  0  0  0  0  0  0
   -3.0921   10.8445    1.0817 H   0  0  0  0  0  0  0  0  0  0  0  0
   -2.3714    9.3150    1.5761 H   0  0  0  0  0  0  0  0  0  0  0  0
   -2.3491   12.1523   -0.4684 H   0  0  0  0  0  0  0  0  0  0  0  0
   -1.2293   11.6931   -1.7957 H   0  0  0  0  0  0  0  0  0  0  0  0
   -2.9194   11.0847   -1.7957 H   0  0  0  0  0  0  0  0  0  0  0  0
   -0.0570    9.3852    0.8675 H   0  0  0  0  0  0  0  0  0  0  0  0
   -0.8910   11.6999    1.6311 H   0  0  0  0  0  0  0  0  0  0  0  0
    0.8800   11.2234    1.7951 H   0  0  0  0  0  0  0  0  0  0  0  0
    0.4048   13.6782    0.9670 H   0  0  0  0  0  0  0  0  0  0  0  0
    0.4227   11.4927   -2.4278 H   0  0  0  0  0  0  0  0  0  0  0  0
    3.3762   11.5703   -1.5509 H   0  0  0  0  0  0  0  0  0  0  0  0
    2.6926   10.7299   -3.0127 H   0  0  0  0  0  0  0  0  0  0  0  0
    3.7990   12.8656   -3.5924 H   0  0  0  0  0  0  0  0  0  0  0  0
    2.0309   12.8616   -3.9668 H   0  0  0  0  0  0  0  0  0  0  0  0
    2.6054   14.9738   -2.9836 H   0  0  0  0  0  0  0  0  0  0  0  0
    3.3040   13.8810   -0.4980 H   0  0  0  0  0  0  0  0  0  0  0  0
   -0.8554   14.5518   -2.0596 H   0  0  0  0  0  0  0  0  0  0  0  0
    0.3291   15.2316   -3.2264 H   0  0  0  0  0  0  0  0  0  0  0  0
   -0.0220   13.4699   -3.2264 H   0  0  0  0  0  0  0  0  0  0  0  0
    1.2209   15.0410    0.4151 H   0  0  0  0  0  0  0  0  0  0  0  0
    2.1137   15.9855   -0.8249 H   0  0  0  0  0  0  0  0  0  0  0  0
    0.3174   15.9753   -0.8249 H   0  0  0  0  0  0  0  0  0  0  0  0
    2.1126    9.7846    0.9469 H   0  0  0  0  0  0  0  0  0  0  0  0
    2.5496    8.7017   -0.4181 H   0  0  0  0  0  0  0  0  0  0  0  0
    3.0971   10.4125   -0.4181 H   0  0  0  0  0  0  0  0  0  0  0  0
    1.2630    9.2351   -2.8422 H   0  0  0  0  0  0  0  0  0  0  0  0
    0.9626    8.0739   -1.4295 H   0  0  0  0  0  0  0  0  0  0  0  0
   -1.0950    9.6671   -2.9830 H   0  0  0  0  0  0  0  0  0  0  0  0
   -0.8683    7.8747   -2.9185 H   0  0  0  0  0  0  0  0  0  0  0  0
   -1.3606    7.6959    0.7685 H   0  0  0  0  0  0  0  0  0  0  0  0
   -1.9574    6.6356   -0.5531 H   0  0  0  0  0  0  0  0  0  0  0  0
   -0.2510    7.1968   -0.5531 H   0  0  0  0  0  0  0  0  0  0  0  0
  1  2  1  0
  2  3  1  0
  3  4  1  0
  4  5  1  0
  5  6  1  0
  6  7  1  0
  7  8  1  0
  7  9  1  0
  2 10  1  0
 10 11  1  0
 11 12  1  0
 12 13  1  0
 13 14  1  6
 13 15  1  0
 15 16  1  0
 16 17  1  0
 17 18  2  0
 18 19  1  0
 19 20  1  0
 20 21  1  0
 21 22  1  0
 22 23  1  0
 22 24  1  0
 24 25  1  0
 24 26  1  0
 19 27  1  0
 27 28  1  1
 27 29  1  0
 29 30  1  0
 30 31  1  0
 31 32  1  1
  7  5  1  0
 31 10  1  0
 31 13  1  0
 27 15  1  0
 24 18  1  0
  1 33  1  0
  1 34  1  0
  1 35  1  0
  2 36  1  1
  3 37  1  0
  3 38  1  0
  4 39  1  0
  4 40  1  0
  5 41  1  1
  8 42  1  0
  8 43  1  0
  8 44  1  0
  9 45  1  0
  9 46  1  0
  9 47  1  0
 10 48  1  6
 11 49  1  0
 11 50  1  0
 12 51  1  0
 12 52  1  0
 14 53  1  0
 14 54  1  0
 14 55  1  0
 15 56  1  1
 16 57  1  0
 16 58  1  0
 17 59  1  0
 19 60  1  6
 20 61  1  0
 20 62  1  0
 21 63  1  0
 21 64  1  0
 22 65  1  6
 23 66  1  0
 25 67  1  0
 25 68  1  0
 25 69  1  0
 26 70  1  0
 26 71  1  0
 26 72  1  0
 28 73  1  0
 28 74  1  0
 28 75  1  0
 29 76  1  0
 29 77  1  0
 30 78  1  0
 30 79  1  0
 32 80  1  0
 32 81  1  0
 32 82  1  0
M  END
>  <meeko>  (7) 
{"is_sidechain": [false], "intermolecular_energy": 2.731, "internal_energy": -0.839}

$$$$
EPH_relaxed_0001_pdb2pqr_Repair_88_r2_0001_out
     RDKit          3D

 82 86  0  0  0  0  0  0  0  0999 V2000
    3.0430   18.8910   -1.2000 C   0  0  0  0  0  0  0  0  0  0  0  0
    2.6910   17.8410   -2.2580 C   0  0  2  0  0  0  0  0  0  0  0  0
    1.2740   18.0460   -2.8310 C   0  0  0  0  0  0  0  0  0  0  0  0
    0.5880   19.3220   -2.3340 C   0  0  0  0  0  0  0  0  0  0  0  0
   -0.7650   19.0350   -1.7580 C   0  0  2  0  0  0  0  0  0  0  0  0
   -1.5770   20.1940   -1.5290 O   0  0  0  0  0  0  0  0  0  0  0  0
   -1.1870   19.4520   -0.3620 C   0  0  0  0  0  0  0  0  0  0  0  0
   -0.2540   20.1920    0.5460 C   0  0  0  0  0  0  0  0  0  0  0  0
   -2.3170   18.7210    0.2940 C   0  0  0  0  0  0  0  0  0  0  0  0
    2.8150   16.4430   -1.6630 C   0  0  1  0  0  0  0  0  0  0  0  0
    3.4860   16.4460   -0.2640 C   0  0  0  0  0  0  0  0  0  0  0  0
    2.8070   15.3210    0.5600 C   0  0  0  0  0  0  0  0  0  0  0  0
    2.0130   14.4990   -0.4820 C   0  0  1  0  0  0  0  0  0  0  0  0
    3.0700   13.5550   -1.1370 C   0  0  0  0  0  0  0  0  0  0  0  0
    0.7830   13.7010    0.0590 C   0  0  2  0  0  0  0  0  0  0  0  0
    1.1160   12.6110    1.0930 C   0  0  0  0  0  0  0  0  0  0  0  0
    1.3890   11.2570    0.5260 C   0  0  0  0  0  0  0  0  0  0  0  0
    1.0930   10.8580   -0.7250 C   0  0  0  0  0  0  0  0  0  0  0  0
    0.3290   11.7790   -1.6850 C   0  0  1  0  0  0  0  0  0  0  0  0
   -0.8040   10.9790   -2.3780 C   0  0  0  0  0  0  0  0  0  0  0  0
   -0.2930    9.7150   -3.0640 C   0  0  0  0  0  0  0  0  0  0  0  0
    0.4090    8.7990   -2.0660 C   0  0  2  0  0  0  0  0  0  0  0  0
   -0.5580    8.3060   -1.1330 O   0  0  0  0  0  0  0  0  0  0  0  0
    1.5650    9.4990   -1.2980 C   0  0  0  0  0  0  0  0  0  0  0  0
    2.7460    9.7630   -2.2640 C   0  0  0  0  0  0  0  0  0  0  0  0
    2.0940    8.5100   -0.2250 C   0  0  0  0  0  0  0  0  0  0  0  0
   -0.1820   13.1520   -1.0690 C   0  0  1  0  0  0  0  0  0  0  0  0
   -1.5770   12.9500   -0.4030 C   0  0  0  0  0  0  0  0  0  0  0  0
   -0.3920   14.1910   -2.2330 C   0  0  0  0  0  0  0  0  0  0  0  0
    0.8310   15.0340   -2.6420 C   0  0  0  0  0  0  0  0  0  0  0  0
    1.5030   15.6570   -1.4150 C   0  0  2  0  0  0  0  0  0  0  0  0
    0.4710   16.6290   -0.7470 C   0  0  0  0  0  0  0  0  0  0  0  0
    2.8996   18.4631   -0.1968 H   0  0  0  0  0  0  0  0  0  0  0  0
    4.0927   19.1965   -1.3217 H   0  0  0  0  0  0  0  0  0  0  0  0
    2.3896   19.7675   -1.3217 H   0  0  0  0  0  0  0  0  0  0  0  0
    3.4026   17.9564   -3.0889 H   0  0  0  0  0  0  0  0  0  0  0  0
    1.3465   18.0951   -3.9275 H   0  0  0  0  0  0  0  0  0  0  0  0
    0.6628   17.1980   -2.4886 H   0  0  0  0  0  0  0  0  0  0  0  0
    1.2151   19.7848   -1.5578 H   0  0  0  0  0  0  0  0  0  0  0  0
    0.4592   19.9986   -3.1917 H   0  0  0  0  0  0  0  0  0  0  0  0
   -0.8092   18.0702   -2.2844 H   0  0  0  0  0  0  0  0  0  0  0  0
   -0.5182   19.9824    1.5930 H   0  0  0  0  0  0  0  0  0  0  0  0
    0.7789   19.8649    0.3560 H   0  0  0  0  0  0  0  0  0  0  0  0
   -0.3373   21.2723    0.3560 H   0  0  0  0  0  0  0  0  0  0  0  0
   -2.2122   18.7888    1.3869 H   0  0  0  0  0  0  0  0  0  0  0  0
   -3.2723   19.1727   -0.0115 H   0  0  0  0  0  0  0  0  0  0  0  0
   -2.2967   17.6645   -0.0115 H   0  0  0  0  0  0  0  0  0  0  0  0
    3.4009   15.9563   -2.4566 H   0  0  0  0  0  0  0  0  0  0  0  0
    4.5636   16.2474   -0.3603 H   0  0  0  0  0  0  0  0  0  0  0  0
    3.3683   17.4225    0.2285 H   0  0  0  0  0  0  0  0  0  0  0  0
    3.5620   14.6934    1.0562 H   0  0  0  0  0  0  0  0  0  0  0  0
    2.1616   15.7191    1.3568 H   0  0  0  0  0  0  0  0  0  0  0  0
    3.6428   13.0435   -0.3494 H   0  0  0  0  0  0  0  0  0  0  0  0
    2.5577   12.8083   -1.7615 H   0  0  0  0  0  0  0  0  0  0  0  0
    3.7543   14.1481   -1.7615 H   0  0  0  0  0  0  0  0  0  0  0  0
    0.2245   14.4735    0.6079 H   0  0  0  0  0  0  0  0  0  0  0  0
    2.0081   12.9324    1.6505 H   0  0  0  0  0  0  0  0  0  0  0  0
    0.2195   12.5031    1.7212 H   0  0  0  0  0  0  0  0  0  0  0  0
    1.8733   10.5230    1.1869 H   0  0  0  0  0  0  0  0  0  0  0  0
    1.0621   12.1128   -2.4341 H   0  0  0  0  0  0  0  0  0  0  0  0
   -1.5479   10.6926   -1.6200 H   0  0  0  0  0  0  0  0  0  0  0  0
   -1.2431   11.6249   -3.1526 H   0  0  0  0  0  0  0  0  0  0  0  0
   -1.1436    9.1779   -3.5090 H   0  0  0  0  0  0  0  0  0  0  0  0
    0.4284   10.0049   -3.8422 H   0  0  0  0  0  0  0  0  0  0  0  0
    0.8650    7.9775   -2.6381 H   0  0  0  0  0  0  0  0  0  0  0  0
   -0.9580    7.5080   -1.5190 H   0  0  0  0  0  0  0  0  0  0  0  0
    3.6571    9.9667   -1.6822 H   0  0  0  0  0  0  0  0  0  0  0  0
    2.9059    8.8784   -2.8980 H   0  0  0  0  0  0  0  0  0  0  0  0
    2.5140   10.6315   -2.8980 H   0  0  0  0  0  0  0  0  0  0  0  0
    1.8808    8.9085    0.7779 H   0  0  0  0  0  0  0  0  0  0  0  0
    1.5961    7.5367   -0.3462 H   0  0  0  0  0  0  0  0  0  0  0  0
    3.1800    8.3839   -0.3462 H   0  0  0  0  0  0  0  0  0  0  0  0
   -1.4666   12.9660    0.6913 H   0  0  0  0  0  0  0  0  0  0  0  0
   -2.2531   13.7596   -0.7152 H   0  0  0  0  0  0  0  0  0  0  0  0
   -1.9956   11.9819   -0.7152 H   0  0  0  0  0  0  0  0  0  0  0  0
   -0.7234   13.6330   -3.1212 H   0  0  0  0  0  0  0  0  0  0  0  0
   -1.1229   14.9150   -1.8436 H   0  0  0  0  0  0  0  0  0  0  0  0
    1.5556   14.3888   -3.1603 H   0  0  0  0  0  0  0  0  0  0  0  0
    0.4927   15.8437   -3.3053 H   0  0  0  0  0  0  0  0  0  0  0  0
    0.5513   16.5533    0.3474 H   0  0  0  0  0  0  0  0  0  0  0  0
    0.6844   17.6618   -1.0598 H   0  0  0  0  0  0  0  0  0  0  0  0
   -0.5471   16.3542   -1.0598 H   0  0  0  0  0  0  0  0  0  0  0  0
  1  2  1  0
  2  3  1  0
  3  4  1  0
  4  5  1  0
  5  6  1  0
  6  7  1  0
  7  8  1  0
  7  9  1  0
  2 10  1  0
 10 11  1  0
 11 12  1  0
 12 13  1  0
 13 14  1  6
 13 15  1  0
 15 16  1  0
 16 17  1  0
 17 18  2  0
 18 19  1  0
 19 20  1  0
 20 21  1  0
 21 22  1  0
 22 23  1  0
 22 24  1  0
 24 25  1  0
 24 26  1  0
 19 27  1  0
 27 28  1  1
 27 29  1  0
 29 30  1  0
 30 31  1  0
 31 32  1  1
  7  5  1  0
 31 10  1  0
 31 13  1  0
 27 15  1  0
 24 18  1  0
  1 33  1  0
  1 34  1  0
  1 35  1  0
  2 36  1  6
  3 37  1  0
  3 38  1  0
  4 39  1  0
  4 40  1  0
  5 41  1  6
  8 42  1  0
  8 43  1  0
  8 44  1  0
  9 45  1  0
  9 46  1  0
  9 47  1  0
 10 48  1  6
 11 49  1  0
 11 50  1  0
 12 51  1  0
 12 52  1  0
 14 53  1  0
 14 54  1  0
 14 55  1  0
 15 56  1  1
 16 57  1  0
 16 58  1  0
 17 59  1  0
 19 60  1  6
 20 61  1  0
 20 62  1  0
 21 63  1  0
 21 64  1  0
 22 65  1  6
 23 66  1  0
 25 67  1  0
 25 68  1  0
 25 69  1  0
 26 70  1  0
 26 71  1  0
 26 72  1  0
 28 73  1  0
 28 74  1  0
 28 75  1  0
 29 76  1  0
 29 77  1  0
 30 78  1  0
 30 79  1  0
 32 80  1  0
 32 81  1  0
 32 82  1  0
M  END
>  <meeko>  (8) 
{"is_sidechain": [false], "intermolecular_energy": 2.731, "internal_energy": -0.839}

$$$$
EPH_relaxed_0001_pdb2pqr_Repair_88_r2_0001_out
     RDKit          3D

 82 86  0  0  0  0  0  0  0  0999 V2000
    1.3980   19.8910   -1.6320 C   0  0  0  0  0  0  0  0  0  0  0  0
    1.5510   19.4780   -0.1650 C   0  0  2  0  0  0  0  0  0  0  0  0
    2.9940   19.6670    0.3440 C   0  0  0  0  0  0  0  0  0  0  0  0
    3.3110   18.8630    1.6080 C   0  0  0  0  0  0  0  0  0  0  0  0
    4.7690   18.9210    1.9500 C   0  0  2  0  0  0  0  0  0  0  0  0
    5.1470   18.1400    3.0920 O   0  0  0  0  0  0  0  0  0  0  0  0
    5.3070   19.5630    3.2160 C   0  0  0  0  0  0  0  0  0  0  0  0
    4.3930   20.1920    4.2200 C   0  0  0  0  0  0  0  0  0  0  0  0
    6.7350   20.0090    3.2400 C   0  0  0  0  0  0  0  0  0  0  0  0
    1.1210   18.0270    0.0150 C   0  0  1  0  0  0  0  0  0  0  0  0
   -0.2750   17.8960    0.6810 C   0  0  0  0  0  0  0  0  0  0  0  0
   -0.9580   16.6570    0.0470 C   0  0  0  0  0  0  0  0  0  0  0  0
    0.1780   15.9290   -0.7090 C   0  0  1  0  0  0  0  0  0  0  0  0
    0.9290   15.1110    0.3870 C   0  0  0  0  0  0  0  0  0  0  0  0
   -0.2590   15.0240   -1.9070 C   0  0  2  0  0  0  0  0  0  0  0  0
   -1.1620   13.8370   -1.5330 C   0  0  0  0  0  0  0  0  0  0  0  0
   -0.4460   12.5700   -1.2020 C   0  0  0  0  0  0  0  0  0  0  0  0
    0.8450   12.3060   -1.4770 C   0  0  0  0  0  0  0  0  0  0  0  0
    1.6990   13.3000   -2.2760 C   0  0  1  0  0  0  0  0  0  0  0  0
    2.4880   12.5400   -3.3730 C   0  0  0  0  0  0  0  0  0  0  0  0
    3.3110   11.3860   -2.8090 C   0  0  0  0  0  0  0  0  0  0  0  0
    2.4200   10.3890   -2.0720 C   0  0  2  0  0  0  0  0  0  0  0  0
    1.5580    9.7530   -3.0210 O   0  0  0  0  0  0  0  0  0  0  0  0
    1.5680   11.0430   -0.9480 C   0  0  0  0  0  0  0  0  0  0  0  0
    2.4880   11.4650    0.2240 C   0  0  0  0  0  0  0  0  0  0  0  0
    0.6130    9.9590   -0.3820 C   0  0  0  0  0  0  0  0  0  0  0  0
    0.9330   14.5710   -2.8450 C   0  0  1  0  0  0  0  0  0  0  0  0
    0.3050   14.2370   -4.2320 C   0  0  0  0  0  0  0  0  0  0  0  0
    1.9710   15.7280   -3.0950 C   0  0  0  0  0  0  0  0  0  0  0  0
    2.2710   16.6610   -1.9060 C   0  0  0  0  0  0  0  0  0  0  0  0
    0.9740   17.1650   -1.2650 C   0  0  2  0  0  0  0  0  0  0  0  0
    0.2070   18.0110   -2.3370 C   0  0  0  0  0  0  0  0  0  0  0  0
    1.0163   20.9213   -1.6850 H   0  0  0  0  0  0  0  0  0  0  0  0
    2.3761   19.8362   -2.1323 H   0  0  0  0  0  0  0  0  0  0  0  0
    0.6917   19.2121   -2.1323 H   0  0  0  0  0  0  0  0  0  0  0  0
    0.9014   20.1345    0.4325 H   0  0  0  0  0  0  0  0  0  0  0  0
    3.6866   19.3523   -0.4506 H   0  0  0  0  0  0  0  0  0  0  0  0
    3.1071   20.7302    0.6025 H   0  0  0  0  0  0  0  0  0  0  0  0
    2.7312   19.2747    2.4473 H   0  0  0  0  0  0  0  0  0  0  0  0
    3.0436   17.8123    1.4224 H   0  0  0  0  0  0  0  0  0  0  0  0
    5.0373   19.0422    0.8901 H   0  0  0  0  0  0  0  0  0  0  0  0
    4.7423   19.9516    5.2350 H   0  0  0  0  0  0  0  0  0  0  0  0
    4.3916   21.2832    4.0815 H   0  0  0  0  0  0  0  0  0  0  0  0
    3.3732   19.8035    4.0815 H   0  0  0  0  0  0  0  0  0  0  0  0
    7.0691   20.1133    4.2828 H   0  0  0  0  0  0  0  0  0  0  0  0
    7.3606   19.2635    2.7274 H   0  0  0  0  0  0  0  0  0  0  0  0
    6.8251   20.9781    2.7274 H   0  0  0  0  0  0  0  0  0  0  0  0
    1.9612   17.6593    0.6224 H   0  0  0  0  0  0  0  0  0  0  0  0
   -0.1652   17.7542    1.7663 H   0  0  0  0  0  0  0  0  0  0  0  0
   -0.8758   18.8035    0.5211 H   0  0  0  0  0  0  0  0  0  0  0  0
   -1.3844   16.0077    0.8258 H   0  0  0  0  0  0  0  0  0  0  0  0
   -1.7902   16.9337   -0.6169 H   0  0  0  0  0  0  0  0  0  0  0  0
    0.6128   15.4554    1.3827 H   0  0  0  0  0  0  0  0  0  0  0  0
    0.6902   14.0430    0.2755 H   0  0  0  0  0  0  0  0  0  0  0  0
    2.0134   15.2579    0.2755 H   0  0  0  0  0  0  0  0  0  0  0  0
   -0.8903   15.7038   -2.4981 H   0  0  0  0  0  0  0  0  0  0  0  0
   -1.7603   14.1280   -0.6570 H   0  0  0  0  0  0  0  0  0  0  0  0
   -1.7654   13.6206   -2.4269 H   0  0  0  0  0  0  0  0  0  0  0  0
   -1.0222   11.7853   -0.6898 H   0  0  0  0  0  0  0  0  0  0  0  0
    2.3993   13.7472   -1.5551 H   0  0  0  0  0  0  0  0  0  0  0  0
    1.7736   12.1380   -4.1065 H   0  0  0  0  0  0  0  0  0  0  0  0
    3.1863   13.2527   -3.8361 H   0  0  0  0  0  0  0  0  0  0  0  0
    3.8213   10.8701   -3.6357 H   0  0  0  0  0  0  0  0  0  0  0  0
    4.0450   11.7930   -2.0980 H   0  0  0  0  0  0  0  0  0  0  0  0
    3.0786    9.6577   -1.5806 H   0  0  0  0  0  0  0  0  0  0  0  0
    2.0740    9.0640   -3.4720 H   0  0  0  0  0  0  0  0  0  0  0  0
    1.9924   11.2377    1.1794 H   0  0  0  0  0  0  0  0  0  0  0  0
    3.4370   10.9122    0.1626 H   0  0  0  0  0  0  0  0  0  0  0  0
    2.6881   12.5449    0.1626 H   0  0  0  0  0  0  0  0  0  0  0  0
    0.6374    9.9867    0.7174 H   0  0  0  0  0  0  0  0  0  0  0  0
   -0.4116   10.1546   -0.7311 H   0  0  0  0  0  0  0  0  0  0  0  0
    0.9362    8.9672   -0.7311 H   0  0  0  0  0  0  0  0  0  0  0  0
   -0.6575   13.7251   -4.0850 H   0  0  0  0  0  0  0  0  0  0  0  0
    0.1429   15.1681   -4.7949 H   0  0  0  0  0  0  0  0  0  0  0  0
    0.9864   13.5821   -4.7949 H   0  0  0  0  0  0  0  0  0  0  0  0
    2.9199   15.2634   -3.4011 H   0  0  0  0  0  0  0  0  0  0  0  0
    1.5064   16.3720   -3.8562 H   0  0  0  0  0  0  0  0  0  0  0  0
    2.8538   16.1094   -1.1536 H   0  0  0  0  0  0  0  0  0  0  0  0
    2.8404   17.5271   -2.2742 H   0  0  0  0  0  0  0  0  0  0  0  0
   -0.4493   18.7349   -1.8318 H   0  0  0  0  0  0  0  0  0  0  0  0
    0.9312   18.5494   -2.9660 H   0  0  0  0  0  0  0  0  0  0  0  0
   -0.3996   17.3429   -2.9660 H   0  0  0  0  0  0  0  0  0  0  0  0
  1  2  1  0
  2  3  1  0
  3  4  1  0
  4  5  1  0
  5  6  1  0
  6  7  1  0
  7  8  1  0
  7  9  1  0
  2 10  1  0
 10 11  1  0
 11 12  1  0
 12 13  1  0
 13 14  1  1
 13 15  1  0
 15 16  1  0
 16 17  1  0
 17 18  2  0
 18 19  1  0
 19 20  1  0
 20 21  1  0
 21 22  1  0
 22 23  1  0
 22 24  1  0
 24 25  1  0
 24 26  1  0
 19 27  1  0
 27 28  1  6
 27 29  1  0
 29 30  1  0
 30 31  1  0
 31 32  1  6
  7  5  1  0
 31 10  1  0
 31 13  1  0
 27 15  1  0
 24 18  1  0
  1 33  1  0
  1 34  1  0
  1 35  1  0
  2 36  1  1
  3 37  1  0
  3 38  1  0
  4 39  1  0
  4 40  1  0
  5 41  1  6
  8 42  1  0
  8 43  1  0
  8 44  1  0
  9 45  1  0
  9 46  1  0
  9 47  1  0
 10 48  1  1
 11 49  1  0
 11 50  1  0
 12 51  1  0
 12 52  1  0
 14 53  1  0
 14 54  1  0
 14 55  1  0
 15 56  1  6
 16 57  1  0
 16 58  1  0
 17 59  1  0
 19 60  1  1
 20 61  1  0
 20 62  1  0
 21 63  1  0
 21 64  1  0
 22 65  1  1
 23 66  1  0
 25 67  1  0
 25 68  1  0
 25 69  1  0
 26 70  1  0
 26 71  1  0
 26 72  1  0
 28 73  1  0
 28 74  1  0
 28 75  1  0
 29 76  1  0
 29 77  1  0
 30 78  1  0
 30 79  1  0
 32 80  1  0
 32 81  1  0
 32 82  1  0
M  END
>  <meeko>  (9) 
{"is_sidechain": [false], "intermolecular_energy": 2.731, "internal_energy": -0.839}

$$$$
EPH_relaxed_0001_pdb2pqr_Repair_88_r2_0001_out
     RDKit          3D

 82 86  0  0  0  0  0  0  0  0999 V2000
   -5.0840    6.1840   -2.6280 C   0  0  0  0  0  0  0  0  0  0  0  0
   -5.5590    7.5840   -2.2290 C   0  0  2  0  0  0  0  0  0  0  0  0
   -5.3540    7.8610   -0.7270 C   0  0  0  0  0  0  0  0  0  0  0  0
   -4.2820    8.9150   -0.4360 C   0  0  0  0  0  0  0  0  0  0  0  0
   -2.9100    8.4200   -0.7790 C   0  0  2  0  0  0  0  0  0  0  0  0
   -1.8980    8.7460    0.1820 O   0  0  0  0  0  0  0  0  0  0  0  0
   -1.7500    9.3360   -1.1190 C   0  0  0  0  0  0  0  0  0  0  0  0
   -1.9100   10.8240   -1.1340 C   0  0  0  0  0  0  0  0  0  0  0  0
   -0.6050    8.7800   -1.9070 C   0  0  0  0  0  0  0  0  0  0  0  0
   -7.0290    7.7570   -2.5950 C   0  0  1  0  0  0  0  0  0  0  0  0
   -7.4040    7.0380   -3.9180 C   0  0  0  0  0  0  0  0  0  0  0  0
   -8.8540    6.5170   -3.7480 C   0  0  0  0  0  0  0  0  0  0  0  0
   -9.3790    7.2310   -2.4800 C   0  0  1  0  0  0  0  0  0  0  0  0
   -9.8130    8.6480   -2.9690 C   0  0  0  0  0  0  0  0  0  0  0  0
  -10.5310    6.5090   -1.7080 C   0  0  2  0  0  0  0  0  0  0  0  0
  -11.8380    6.3320   -2.5010 C   0  0  0  0  0  0  0  0  0  0  0  0
  -12.8230    7.4460   -2.3630 C   0  0  0  0  0  0  0  0  0  0  0  0
  -12.7930    8.4040   -1.4180 C   0  0  0  0  0  0  0  0  0  0  0  0
  -11.7480    8.3720   -0.2960 C   0  0  1  0  0  0  0  0  0  0  0  0
  -12.4410    8.6380    1.0660 C   0  0  0  0  0  0  0  0  0  0  0  0
  -13.2560    9.9270    1.0650 C   0  0  0  0  0  0  0  0  0  0  0  0
  -14.3230    9.8970   -0.0260 C   0  0  2  0  0  0  0  0  0  0  0  0
  -15.2870    8.8920    0.3000 O   0  0  0  0  0  0  0  0  0  0  0  0
  -13.7440    9.6270   -1.4430 C   0  0  0  0  0  0  0  0  0  0  0  0
  -12.9370   10.8600   -1.9200 C   0  0  0  0  0  0  0  0  0  0  0  0
  -14.9360    9.4810   -2.4270 C   0  0  0  0  0  0  0  0  0  0  0  0
  -10.8070    7.0910   -0.2620 C   0  0  1  0  0  0  0  0  0  0  0  0
  -11.4890    5.9510    0.5540 C   0  0  0  0  0  0  0  0  0  0  0  0
   -9.4770    7.4500    0.5010 C   0  0  0  0  0  0  0  0  0  0  0  0
   -8.3340    8.0490   -0.3390 C   0  0  0  0  0  0  0  0  0  0  0  0
   -8.0800    7.2110   -1.5960 C   0  0  2  0  0  0  0  0  0  0  0  0
   -7.6200    5.7860   -1.1360 C   0  0  0  0  0  0  0  0  0  0  0  0
   -4.8834    5.5929   -1.7223 H   0  0  0  0  0  0  0  0  0  0  0  0
   -5.8642    5.6881   -3.2242 H   0  0  0  0  0  0  0  0  0  0  0  0
   -4.1631    6.2653   -3.2242 H   0  0  0  0  0  0  0  0  0  0  0  0
   -4.9488    8.3115   -2.7843 H   0  0  0  0  0  0  0  0  0  0  0  0
   -6.3079    8.2102   -0.3049 H   0  0  0  0  0  0  0  0  0  0  0  0
   -5.0122    6.9204   -0.2704 H   0  0  0  0  0  0  0  0  0  0  0  0
   -4.4956    9.8146   -1.0319 H   0  0  0  0  0  0  0  0  0  0  0  0
   -4.3060    9.1401    0.6405 H   0  0  0  0  0  0  0  0  0  0  0  0
   -3.3301    7.5411   -1.2899 H   0  0  0  0  0  0  0  0  0  0  0  0
   -1.9503   11.1989   -0.1006 H   0  0  0  0  0  0  0  0  0  0  0  0
   -1.0556   11.2794   -1.6562 H   0  0  0  0  0  0  0  0  0  0  0  0
   -2.8416   11.0874   -1.6562 H   0  0  0  0  0  0  0  0  0  0  0  0
    0.1665    8.4054   -1.2182 H   0  0  0  0  0  0  0  0  0  0  0  0
   -0.9624    7.9551   -2.5409 H   0  0  0  0  0  0  0  0  0  0  0  0
   -0.1778    9.5710   -2.5409 H   0  0  0  0  0  0  0  0  0  0  0  0
   -7.0812    8.8551   -2.6331 H   0  0  0  0  0  0  0  0  0  0  0  0
   -7.3512    7.7432   -4.7606 H   0  0  0  0  0  0  0  0  0  0  0  0
   -6.7094    6.2116   -4.1291 H   0  0  0  0  0  0  0  0  0  0  0  0
   -9.4662    6.7799   -4.6233 H   0  0  0  0  0  0  0  0  0  0  0  0
   -8.8957    5.4215   -3.6574 H   0  0  0  0  0  0  0  0  0  0  0  0
  -10.0101    9.2917   -2.0990 H   0  0  0  0  0  0  0  0  0  0  0  0
   -9.0086    9.0886   -3.5763 H   0  0  0  0  0  0  0  0  0  0  0  0
  -10.7262    8.5626   -3.5763 H   0  0  0  0  0  0  0  0  0  0  0  0
  -10.1243    5.4960   -1.5725 H   0  0  0  0  0  0  0  0  0  0  0  0
  -11.5793    6.2368   -3.5659 H   0  0  0  0  0  0  0  0  0  0  0  0
  -12.3279    5.4391   -2.0854 H   0  0  0  0  0  0  0  0  0  0  0  0
  -13.6424    7.4871   -3.0957 H   0  0  0  0  0  0  0  0  0  0  0  0
  -11.0389    9.1831   -0.5179 H   0  0  0  0  0  0  0  0  0  0  0  0
  -13.1126    7.7962    1.2904 H   0  0  0  0  0  0  0  0  0  0  0  0
  -11.6535    8.7412    1.8270 H   0  0  0  0  0  0  0  0  0  0  0  0
  -13.7448   10.0446    2.0434 H   0  0  0  0  0  0  0  0  0  0  0  0
  -12.5780   10.7709    0.8698 H   0  0  0  0  0  0  0  0  0  0  0  0
  -14.7858   10.8943   -0.0622 H   0  0  0  0  0  0  0  0  0  0  0  0
  -15.0690    8.5500    1.1830 H   0  0  0  0  0  0  0  0  0  0  0  0
  -12.5711   11.4191   -1.0462 H   0  0  0  0  0  0  0  0  0  0  0  0
  -12.0819   10.5264   -2.5263 H   0  0  0  0  0  0  0  0  0  0  0  0
  -13.5849   11.5101   -2.5263 H   0  0  0  0  0  0  0  0  0  0  0  0
  -15.8699    9.3666   -1.8572 H   0  0  0  0  0  0  0  0  0  0  0  0
  -15.0005   10.3780   -3.0605 H   0  0  0  0  0  0  0  0  0  0  0  0
  -14.7821    8.5950   -3.0605 H   0  0  0  0  0  0  0  0  0  0  0  0
  -11.3707    6.1487    1.6296 H   0  0  0  0  0  0  0  0  0  0  0  0
  -12.5595    5.9111    0.3041 H   0  0  0  0  0  0  0  0  0  0  0  0
  -11.0180    4.9889    0.3041 H   0  0  0  0  0  0  0  0  0  0  0  0
   -9.7299    8.1781    1.2858 H   0  0  0  0  0  0  0  0  0  0  0  0
   -9.0892    6.4892    0.8706 H   0  0  0  0  0  0  0  0  0  0  0  0
   -8.6050    9.0725   -0.6375 H   0  0  0  0  0  0  0  0  0  0  0  0
   -7.4176    8.0553    0.2695 H   0  0  0  0  0  0  0  0  0  0  0  0
   -7.6059    5.7423   -0.0370 H   0  0  0  0  0  0  0  0  0  0  0  0
   -8.3203    5.0316   -1.5240 H   0  0  0  0  0  0  0  0  0  0  0  0
   -6.6108    5.5834   -1.5240 H   0  0  0  0  0  0  0  0  0  0  0  0
  1  2  1  0
  2  3  1  0
  3  4  1  0
  4  5  1  0
  5  6  1  0
  6  7  1  0
  7  8  1  0
  7  9  1  0
  2 10  1  0
 10 11  1  0
 11 12  1  0
 12 13  1  0
 13 14  1  6
 13 15  1  0
 15 16  1  0
 16 17  1  0
 17 18  2  0
 18 19  1  0
 19 20  1  0
 20 21  1  0
 21 22  1  0
 22 23  1  0
 22 24  1  0
 24 25  1  0
 24 26  1  0
 19 27  1  0
 27 28  1  1
 27 29  1  0
 29 30  1  0
 30 31  1  0
 31 32  1  1
  7  5  1  0
 31 10  1  0
 31 13  1  0
 27 15  1  0
 24 18  1  0
  1 33  1  0
  1 34  1  0
  1 35  1  0
  2 36  1  6
  3 37  1  0
  3 38  1  0
  4 39  1  0
  4 40  1  0
  5 41  1  6
  8 42  1  0
  8 43  1  0
  8 44  1  0
  9 45  1  0
  9 46  1  0
  9 47  1  0
 10 48  1  6
 11 49  1  0
 11 50  1  0
 12 51  1  0
 12 52  1  0
 14 53  1  0
 14 54  1  0
 14 55  1  0
 15 56  1  1
 16 57  1  0
 16 58  1  0
 17 59  1  0
 19 60  1  6
 20 61  1  0
 20 62  1  0
 21 63  1  0
 21 64  1  0
 22 65  1  6
 23 66  1  0
 25 67  1  0
 25 68  1  0
 25 69  1  0
 26 70  1  0
 26 71  1  0
 26 72  1  0
 28 73  1  0
 28 74  1  0
 28 75  1  0
 29 76  1  0
 29 77  1  0
 30 78  1  0
 30 79  1  0
 32 80  1  0
 32 81  1  0
 32 82  1  0
M  END
>  <meeko>  (10) 
{"is_sidechain": [false], "intermolecular_energy": 2.731, "internal_energy": -0.839}

$$$$
EPH_relaxed_0001_pdb2pqr_Repair_88_r2_0001_out
     RDKit          3D

 82 86  0  0  0  0  0  0  0  0999 V2000
   -0.9210   16.3780   -5.8590 C   0  0  0  0  0  0  0  0  0  0  0  0
    0.1810   15.6790   -6.6610 C   0  0  2  0  0  0  0  0  0  0  0  0
   -0.2170   15.4700   -8.1360 C   0  0  0  0  0  0  0  0  0  0  0  0
    0.4180   16.4820   -9.0930 C   0  0  0  0  0  0  0  0  0  0  0  0
    1.8260   16.1070   -9.4430 C   0  0  2  0  0  0  0  0  0  0  0  0
    2.3150   16.6850  -10.6600 O   0  0  0  0  0  0  0  0  0  0  0  0
    2.1910   15.2530  -10.6430 C   0  0  0  0  0  0  0  0  0  0  0  0
    1.1430   14.7220  -11.5700 C   0  0  0  0  0  0  0  0  0  0  0  0
    3.5040   14.5350  -10.6370 C   0  0  0  0  0  0  0  0  0  0  0  0
    0.5210   14.3390   -6.0180 C   0  0  1  0  0  0  0  0  0  0  0  0
    1.7680   13.6710   -6.6550 C   0  0  0  0  0  0  0  0  0  0  0  0
    2.5110   12.9310   -5.5140 C   0  0  0  0  0  0  0  0  0  0  0  0
    1.5050   12.9160   -4.3390 C   0  0  1  0  0  0  0  0  0  0  0  0
    0.5410   11.7290   -4.6510 C   0  0  0  0  0  0  0  0  0  0  0  0
    2.1190   12.8000   -2.9050 C   0  0  2  0  0  0  0  0  0  0  0  0
    2.8980   11.5010   -2.6330 C   0  0  0  0  0  0  0  0  0  0  0  0
    2.0900   10.3780   -2.0730 C   0  0  0  0  0  0  0  0  0  0  0  0
    0.8620   10.4900   -1.5350 C   0  0  0  0  0  0  0  0  0  0  0  0
    0.2010   11.8640   -1.3610 C   0  0  1  0  0  0  0  0  0  0  0  0
   -0.4040   11.9700    0.0640 C   0  0  0  0  0  0  0  0  0  0  0  0
   -1.3550   10.8200    0.3830 C   0  0  0  0  0  0  0  0  0  0  0  0
   -0.6460    9.4740    0.2550 C   0  0  2  0  0  0  0  0  0  0  0  0
    0.3500    9.3790    1.2780 O   0  0  0  0  0  0  0  0  0  0  0  0
    0.0120    9.2580   -1.1370 C   0  0  0  0  0  0  0  0  0  0  0  0
   -1.0890    9.0600   -2.2080 C   0  0  0  0  0  0  0  0  0  0  0  0
    0.8120    7.9290   -1.0850 C   0  0  0  0  0  0  0  0  0  0  0  0
    1.1010   13.1190   -1.7370 C   0  0  1  0  0  0  0  0  0  0  0  0
    1.9560   13.5480   -0.5060 C   0  0  0  0  0  0  0  0  0  0  0  0
    0.1650   14.3390   -2.0750 C   0  0  0  0  0  0  0  0  0  0  0  0
   -0.3110   14.4660   -3.5350 C   0  0  0  0  0  0  0  0  0  0  0  0
    0.8650   14.3420   -4.5080 C   0  0  2  0  0  0  0  0  0  0  0  0
    1.8420   15.5360   -4.2320 C   0  0  0  0  0  0  0  0  0  0  0  0
   -0.7262   16.2545   -4.7834 H   0  0  0  0  0  0  0  0  0  0  0  0
   -0.9330   17.4492   -6.1088 H   0  0  0  0  0  0  0  0  0  0  0  0
   -1.8951   15.9323   -6.1088 H   0  0  0  0  0  0  0  0  0  0  0  0
    1.0653   16.3330   -6.6478 H   0  0  0  0  0  0  0  0  0  0  0  0
    0.0956   14.4603   -8.4405 H   0  0  0  0  0  0  0  0  0  0  0  0
   -1.3065   15.6080   -8.1981 H   0  0  0  0  0  0  0  0  0  0  0  0
   -0.1795   16.5235  -10.0156 H   0  0  0  0  0  0  0  0  0  0  0  0
    0.4387   17.4610   -8.5919 H   0  0  0  0  0  0  0  0  0  0  0  0
    2.0967   16.0384   -8.3790 H   0  0  0  0  0  0  0  0  0  0  0  0
    0.3132   14.3015  -10.9830 H   0  0  0  0  0  0  0  0  0  0  0  0
    0.7668   15.5382  -12.2042 H   0  0  0  0  0  0  0  0  0  0  0  0
    1.5787   13.9359  -12.2042 H   0  0  0  0  0  0  0  0  0  0  0  0
    3.8221   14.3611   -9.5984 H   0  0  0  0  0  0  0  0  0  0  0  0
    3.3966   13.5701  -11.1541 H   0  0  0  0  0  0  0  0  0  0  0  0
    4.2585   15.1461  -11.1541 H   0  0  0  0  0  0  0  0  0  0  0  0
   -0.4271   13.8073   -6.1865 H   0  0  0  0  0  0  0  0  0  0  0  0
    1.4594   12.9562   -7.4320 H   0  0  0  0  0  0  0  0  0  0  0  0
    2.4188   14.4206   -7.1289 H   0  0  0  0  0  0  0  0  0  0  0  0
    2.7676   11.9057   -5.8186 H   0  0  0  0  0  0  0  0  0  0  0  0
    3.4583   13.4216   -5.2460 H   0  0  0  0  0  0  0  0  0  0  0  0
    0.1838   11.2892   -3.7081 H   0  0  0  0  0  0  0  0  0  0  0  0
   -0.3173   12.0968   -5.2324 H   0  0  0  0  0  0  0  0  0  0  0  0
    1.0771   10.9644   -5.2324 H   0  0  0  0  0  0  0  0  0  0  0  0
    2.8691   13.6045   -2.9027 H   0  0  0  0  0  0  0  0  0  0  0  0
    3.3372   11.1628   -3.5831 H   0  0  0  0  0  0  0  0  0  0  0  0
    3.6458   11.7498   -1.8656 H   0  0  0  0  0  0  0  0  0  0  0  0
    2.5366    9.3732   -2.1027 H   0  0  0  0  0  0  0  0  0  0  0  0
   -0.6012   11.9135   -2.1121 H   0  0  0  0  0  0  0  0  0  0  0  0
    0.4163   11.9628    0.7968 H   0  0  0  0  0  0  0  0  0  0  0  0
   -0.9821   12.9046    0.1126 H   0  0  0  0  0  0  0  0  0  0  0  0
   -1.7263   10.9348    1.4120 H   0  0  0  0  0  0  0  0  0  0  0  0
   -2.1901   10.8463   -0.3325 H   0  0  0  0  0  0  0  0  0  0  0  0
   -1.4072    8.6879    0.3672 H   0  0  0  0  0  0  0  0  0  0  0  0
   -0.1080    9.2180    2.1200 H   0  0  0  0  0  0  0  0  0  0  0  0
   -2.0555    8.8862   -1.7124 H   0  0  0  0  0  0  0  0  0  0  0  0
   -1.1557    9.9606   -2.8361 H   0  0  0  0  0  0  0  0  0  0  0  0
   -0.8378    8.1926   -2.8361 H   0  0  0  0  0  0  0  0  0  0  0  0
    0.9831    7.6448   -0.0362 H   0  0  0  0  0  0  0  0  0  0  0  0
    0.2405    7.1369   -1.5910 H   0  0  0  0  0  0  0  0  0  0  0  0
    1.7794    8.0633   -1.5910 H   0  0  0  0  0  0  0  0  0  0  0  0
    1.4252   13.2816    0.4199 H   0  0  0  0  0  0  0  0  0  0  0  0
    2.9259   13.0298   -0.5347 H   0  0  0  0  0  0  0  0  0  0  0  0
    2.1203   14.6353   -0.5347 H   0  0  0  0  0  0  0  0  0  0  0  0
   -0.7291   14.2586   -1.4393 H   0  0  0  0  0  0  0  0  0  0  0  0
    0.7804   15.2326   -1.8942 H   0  0  0  0  0  0  0  0  0  0  0  0
   -1.0388   13.6688   -3.7468 H   0  0  0  0  0  0  0  0  0  0  0  0
   -0.7735   15.4551   -3.6682 H   0  0  0  0  0  0  0  0  0  0  0  0
    1.9549   15.6740   -3.1465 H   0  0  0  0  0  0  0  0  0  0  0  0
    2.8235   15.3172   -4.6779 H   0  0  0  0  0  0  0  0  0  0  0  0
    1.4333   16.4548   -4.6779 H   0  0  0  0  0  0  0  0  0  0  0  0
  1  2  1  0
  2  3  1  0
  3  4  1  0
  4  5  1  0
  5  6  1  0
  6  7  1  0
  7  8  1  0
  7  9  1  0
  2 10  1  0
 10 11  1  0
 11 12  1  0
 12 13  1  0
 13 14  1  6
 13 15  1  0
 15 16  1  0
 16 17  1  0
 17 18  2  0
 18 19  1  0
 19 20  1  0
 20 21  1  0
 21 22  1  0
 22 23  1  0
 22 24  1  0
 24 25  1  0
 24 26  1  0
 19 27  1  0
 27 28  1  1
 27 29  1  0
 29 30  1  0
 30 31  1  0
 31 32  1  6
  7  5  1  0
 31 10  1  0
 31 13  1  0
 27 15  1  0
 24 18  1  0
  1 33  1  0
  1 34  1  0
  1 35  1  0
  2 36  1  6
  3 37  1  0
  3 38  1  0
  4 39  1  0
  4 40  1  0
  5 41  1  1
  8 42  1  0
  8 43  1  0
  8 44  1  0
  9 45  1  0
  9 46  1  0
  9 47  1  0
 10 48  1  1
 11 49  1  0
 11 50  1  0
 12 51  1  0
 12 52  1  0
 14 53  1  0
 14 54  1  0
 14 55  1  0
 15 56  1  6
 16 57  1  0
 16 58  1  0
 17 59  1  0
 19 60  1  6
 20 61  1  0
 20 62  1  0
 21 63  1  0
 21 64  1  0
 22 65  1  1
 23 66  1  0
 25 67  1  0
 25 68  1  0
 25 69  1  0
 26 70  1  0
 26 71  1  0
 26 72  1  0
 28 73  1  0
 28 74  1  0
 28 75  1  0
 29 76  1  0
 29 77  1  0
 30 78  1  0
 30 79  1  0
 32 80  1  0
 32 81  1  0
 32 82  1  0
M  END
>  <meeko>  (11) 
{"is_sidechain": [false], "intermolecular_energy": 2.731, "internal_energy": -0.839}

$$$$
EPH_relaxed_0001_pdb2pqr_Repair_88_r2_0001_out
     RDKit          3D

 82 86  0  0  0  0  0  0  0  0999 V2000
   -2.1670    7.8410   -2.0990 C   0  0  0  0  0  0  0  0  0  0  0  0
   -2.3040    8.5300   -0.7380 C   0  0  2  0  0  0  0  0  0  0  0  0
   -3.7680    8.5750   -0.2560 C   0  0  0  0  0  0  0  0  0  0  0  0
   -4.6190    7.4060   -0.7590 C   0  0  0  0  0  0  0  0  0  0  0  0
   -6.0130    7.8410   -1.0960 C   0  0  2  0  0  0  0  0  0  0  0  0
   -6.9900    6.7920   -1.0680 O   0  0  0  0  0  0  0  0  0  0  0  0
   -6.7480    7.3980   -2.3480 C   0  0  0  0  0  0  0  0  0  0  0  0
   -6.1100    6.4810   -3.3440 C   0  0  0  0  0  0  0  0  0  0  0  0
   -7.8850    8.2350   -2.8440 C   0  0  0  0  0  0  0  0  0  0  0  0
   -1.7350    9.9420   -0.8110 C   0  0  1  0  0  0  0  0  0  0  0  0
   -1.2470   10.4610    0.5680 C   0  0  0  0  0  0  0  0  0  0  0  0
   -0.0040   11.3470    0.2980 C   0  0  0  0  0  0  0  0  0  0  0  0
   -0.0150   11.5780   -1.2310 C   0  0  1  0  0  0  0  0  0  0  0  0
   -1.0420   12.7320   -1.4550 C   0  0  0  0  0  0  0  0  0  0  0  0
    1.3660   11.8980   -1.8910 C   0  0  2  0  0  0  0  0  0  0  0  0
    2.0350   13.1970   -1.4080 C   0  0  0  0  0  0  0  0  0  0  0  0
    1.6930   14.4210   -2.1920 C   0  0  0  0  0  0  0  0  0  0  0  0
    1.1120   14.4340   -3.4060 C   0  0  0  0  0  0  0  0  0  0  0  0
    0.8280   13.1280   -4.1580 C   0  0  1  0  0  0  0  0  0  0  0  0
    1.2920   13.2670   -5.6320 C   0  0  0  0  0  0  0  0  0  0  0  0
    0.6850   14.4830   -6.3250 C   0  0  0  0  0  0  0  0  0  0  0  0
    1.0380   15.7680   -5.5800 C   0  0  2  0  0  0  0  0  0  0  0  0
    2.4480   15.9900   -5.6880 O   0  0  0  0  0  0  0  0  0  0  0  0
    0.6270   15.7410   -4.0820 C   0  0  0  0  0  0  0  0  0  0  0  0
   -0.9160   15.8040   -3.9640 C   0  0  0  0  0  0  0  0  0  0  0  0
    1.1660   17.0350   -3.4150 C   0  0  0  0  0  0  0  0  0  0  0  0
    1.3670   11.8010   -3.4710 C   0  0  1  0  0  0  0  0  0  0  0  0
    2.8440   11.5420   -3.8990 C   0  0  0  0  0  0  0  0  0  0  0  0
    0.5320   10.5740   -3.9950 C   0  0  0  0  0  0  0  0  0  0  0  0
   -0.7610   10.2340   -3.2280 C   0  0  0  0  0  0  0  0  0  0  0  0
   -0.5010   10.1650   -1.7200 C   0  0  2  0  0  0  0  0  0  0  0  0
    0.5120    8.9980   -1.4620 C   0  0  0  0  0  0  0  0  0  0  0  0
   -1.9545    6.7722   -1.9491 H   0  0  0  0  0  0  0  0  0  0  0  0
   -3.1050    7.9528   -2.6627 H   0  0  0  0  0  0  0  0  0  0  0  0
   -1.3432    8.3031   -2.6627 H   0  0  0  0  0  0  0  0  0  0  0  0
   -1.7340    7.9376   -0.0072 H   0  0  0  0  0  0  0  0  0  0  0  0
   -3.7719    8.5591    0.8439 H   0  0  0  0  0  0  0  0  0  0  0  0
   -4.2123    9.4946   -0.6647 H   0  0  0  0  0  0  0  0  0  0  0  0
   -4.1492    6.9846   -1.6600 H   0  0  0  0  0  0  0  0  0  0  0  0
   -4.6781    6.6547    0.0423 H   0  0  0  0  0  0  0  0  0  0  0  0
   -5.8350    8.8339   -0.6573 H   0  0  0  0  0  0  0  0  0  0  0  0
   -5.5595    5.6898   -2.8139 H   0  0  0  0  0  0  0  0  0  0  0  0
   -6.8880    6.0267   -3.9751 H   0  0  0  0  0  0  0  0  0  0  0  0
   -5.4135    7.0526   -3.9751 H   0  0  0  0  0  0  0  0  0  0  0  0
   -8.4404    8.6439   -1.9871 H   0  0  0  0  0  0  0  0  0  0  0  0
   -7.4927    9.0615   -3.4548 H   0  0  0  0  0  0  0  0  0  0  0  0
   -8.5576    7.6149   -3.4548 H   0  0  0  0  0  0  0  0  0  0  0  0
   -2.6065   10.4713   -1.2238 H   0  0  0  0  0  0  0  0  0  0  0  0
   -2.0375   11.0544    1.0508 H   0  0  0  0  0  0  0  0  0  0  0  0
   -0.9983    9.6256    1.2390 H   0  0  0  0  0  0  0  0  0  0  0  0
   -0.0843   12.3032    0.8359 H   0  0  0  0  0  0  0  0  0  0  0  0
    0.9279   10.8746    0.6420 H   0  0  0  0  0  0  0  0  0  0  0  0
   -1.3822   13.1142   -0.4813 H   0  0  0  0  0  0  0  0  0  0  0  0
   -0.5628   13.5446   -2.0208 H   0  0  0  0  0  0  0  0  0  0  0  0
   -1.9047   12.3504   -2.0208 H   0  0  0  0  0  0  0  0  0  0  0  0
    2.0000   11.0794   -1.5198 H   0  0  0  0  0  0  0  0  0  0  0  0
    1.7330   13.3668   -0.3640 H   0  0  0  0  0  0  0  0  0  0  0  0
    3.1173   13.0471   -1.5351 H   0  0  0  0  0  0  0  0  0  0  0  0
    1.9363   15.3936   -1.7394 H   0  0  0  0  0  0  0  0  0  0  0  0
   -0.2624   12.9879   -4.1220 H   0  0  0  0  0  0  0  0  0  0  0  0
    2.3878   13.3620   -5.6491 H   0  0  0  0  0  0  0  0  0  0  0  0
    0.9544   12.3712   -6.1738 H   0  0  0  0  0  0  0  0  0  0  0  0
    1.0743   14.5437   -7.3520 H   0  0  0  0  0  0  0  0  0  0  0  0
   -0.4093   14.3719   -6.3346 H   0  0  0  0  0  0  0  0  0  0  0  0
    0.4693   16.5863   -6.0459 H   0  0  0  0  0  0  0  0  0  0  0  0
    2.6760   16.7270   -5.0970 H   0  0  0  0  0  0  0  0  0  0  0  0
   -1.2023   15.8157   -2.9020 H   0  0  0  0  0  0  0  0  0  0  0  0
   -1.2841   16.7179   -4.4531 H   0  0  0  0  0  0  0  0  0  0  0  0
   -1.3574   14.9231   -4.4531 H   0  0  0  0  0  0  0  0  0  0  0  0
    1.1220   16.9293   -2.3210 H   0  0  0  0  0  0  0  0  0  0  0  0
    2.2081   17.2010   -3.7257 H   0  0  0  0  0  0  0  0  0  0  0  0
    0.5499   17.8917   -3.7257 H   0  0  0  0  0  0  0  0  0  0  0  0
    3.4716   11.4319   -3.0024 H   0  0  0  0  0  0  0  0  0  0  0  0
    2.8960   10.6210   -4.4983 H   0  0  0  0  0  0  0  0  0  0  0  0
    3.2062   12.3903   -4.4983 H   0  0  0  0  0  0  0  0  0  0  0  0
    0.2546   10.7819   -5.0389 H   0  0  0  0  0  0  0  0  0  0  0  0
    1.1864    9.7007   -3.8566 H   0  0  0  0  0  0  0  0  0  0  0  0
   -1.5133   11.0111   -3.4284 H   0  0  0  0  0  0  0  0  0  0  0  0
   -1.1225    9.2520   -3.5672 H   0  0  0  0  0  0  0  0  0  0  0  0
    0.6371    8.8539   -0.3787 H   0  0  0  0  0  0  0  0  0  0  0  0
    0.1268    8.0716   -1.9131 H   0  0  0  0  0  0  0  0  0  0  0  0
    1.4833    9.2491   -1.9131 H   0  0  0  0  0  0  0  0  0  0  0  0
  1  2  1  0
  2  3  1  0
  3  4  1  0
  4  5  1  0
  5  6  1  0
  6  7  1  0
  7  8  1  0
  7  9  1  0
  2 10  1  0
 10 11  1  0
 11 12  1  0
 12 13  1  0
 13 14  1  1
 13 15  1  0
 15 16  1  0
 16 17  1  0
 17 18  2  0
 18 19  1  0
 19 20  1  0
 20 21  1  0
 21 22  1  0
 22 23  1  0
 22 24  1  0
 24 25  1  0
 24 26  1  0
 19 27  1  0
 27 28  1  6
 27 29  1  0
 29 30  1  0
 30 31  1  0
 31 32  1  6
  7  5  1  0
 31 10  1  0
 31 13  1  0
 27 15  1  0
 24 18  1  0
  1 33  1  0
  1 34  1  0
  1 35  1  0
  2 36  1  1
  3 37  1  0
  3 38  1  0
  4 39  1  0
  4 40  1  0
  5 41  1  1
  8 42  1  0
  8 43  1  0
  8 44  1  0
  9 45  1  0
  9 46  1  0
  9 47  1  0
 10 48  1  6
 11 49  1  0
 11 50  1  0
 12 51  1  0
 12 52  1  0
 14 53  1  0
 14 54  1  0
 14 55  1  0
 15 56  1  1
 16 57  1  0
 16 58  1  0
 17 59  1  0
 19 60  1  6
 20 61  1  0
 20 62  1  0
 21 63  1  0
 21 64  1  0
 22 65  1  6
 23 66  1  0
 25 67  1  0
 25 68  1  0
 25 69  1  0
 26 70  1  0
 26 71  1  0
 26 72  1  0
 28 73  1  0
 28 74  1  0
 28 75  1  0
 29 76  1  0
 29 77  1  0
 30 78  1  0
 30 79  1  0
 32 80  1  0
 32 81  1  0
 32 82  1  0
M  END
>  <meeko>  (12) 
{"is_sidechain": [false], "intermolecular_energy": 2.731, "internal_energy": -0.839}

$$$$
EPH_relaxed_0001_pdb2pqr_Repair_88_r2_0001_out
     RDKit          3D

 82 86  0  0  0  0  0  0  0  0999 V2000
   -0.1410    9.3430   -2.3720 C   0  0  0  0  0  0  0  0  0  0  0  0
    0.9420   10.3220   -2.8350 C   0  0  2  0  0  0  0  0  0  0  0  0
    2.3260    9.6510   -2.9360 C   0  0  0  0  0  0  0  0  0  0  0  0
    3.3140   10.4090   -3.8270 C   0  0  0  0  0  0  0  0  0  0  0  0
    4.7100   10.3470   -3.2850 C   0  0  2  0  0  0  0  0  0  0  0  0
    5.3070   11.6240   -3.0230 O   0  0  0  0  0  0  0  0  0  0  0  0
    5.9270   10.8320   -4.0500 C   0  0  0  0  0  0  0  0  0  0  0  0
    5.8040   11.4140   -5.4240 C   0  0  0  0  0  0  0  0  0  0  0  0
    7.2720   10.2970   -3.6690 C   0  0  0  0  0  0  0  0  0  0  0  0
    1.0070   11.5120   -1.8850 C   0  0  1  0  0  0  0  0  0  0  0  0
    2.0960   11.3440   -0.7920 C   0  0  0  0  0  0  0  0  0  0  0  0
    2.6760   12.7550   -0.5180 C   0  0  0  0  0  0  0  0  0  0  0  0
    1.6880   13.7240   -1.2080 C   0  0  1  0  0  0  0  0  0  0  0  0
    0.5060   13.8770   -0.2010 C   0  0  0  0  0  0  0  0  0  0  0  0
    2.2670   15.1120   -1.6350 C   0  0  2  0  0  0  0  0  0  0  0  0
    2.7710   15.9920   -0.4780 C   0  0  0  0  0  0  0  0  0  0  0  0
    1.7550   16.9120    0.1140 C   0  0  0  0  0  0  0  0  0  0  0  0
    0.5740   17.2360   -0.4440 C   0  0  0  0  0  0  0  0  0  0  0  0
    0.2010   16.7340   -1.8450 C   0  0  1  0  0  0  0  0  0  0  0  0
   -0.3700   17.9100   -2.6810 C   0  0  0  0  0  0  0  0  0  0  0  0
   -1.5310   18.6130   -1.9850 C   0  0  0  0  0  0  0  0  0  0  0  0
   -1.1050   19.1490   -0.6210 C   0  0  2  0  0  0  0  0  0  0  0  0
   -0.1480   20.1940   -0.8140 O   0  0  0  0  0  0  0  0  0  0  0  0
   -0.5040   18.0550    0.3070 C   0  0  0  0  0  0  0  0  0  0  0  0
   -1.6230   17.0850    0.7600 C   0  0  0  0  0  0  0  0  0  0  0  0
    0.0140   18.7520    1.5930 C   0  0  0  0  0  0  0  0  0  0  0  0
    1.3330   15.9290   -2.6170 C   0  0  1  0  0  0  0  0  0  0  0  0
    2.2580   16.9200   -3.3890 C   0  0  0  0  0  0  0  0  0  0  0  0
    0.6600   15.0110   -3.7050 C   0  0  0  0  0  0  0  0  0  0  0  0
    0.2190   13.6060   -3.2520 C   0  0  0  0  0  0  0  0  0  0  0  0
    1.3460   12.8940   -2.4990 C   0  0  2  0  0  0  0  0  0  0  0  0
    2.5410   12.7060   -3.4940 C   0  0  0  0  0  0  0  0  0  0  0  0
   -0.1677    9.3189   -1.2726 H   0  0  0  0  0  0  0  0  0  0  0  0
   -1.1189    9.6698   -2.7554 H   0  0  0  0  0  0  0  0  0  0  0  0
    0.0857    8.3372   -2.7554 H   0  0  0  0  0  0  0  0  0  0  0  0
    0.6684   10.6663   -3.8433 H   0  0  0  0  0  0  0  0  0  0  0  0
    2.7530    9.5817   -1.9246 H   0  0  0  0  0  0  0  0  0  0  0  0
    2.1717    8.6633   -3.3950 H   0  0  0  0  0  0  0  0  0  0  0  0
    3.3019    9.9629   -4.8324 H   0  0  0  0  0  0  0  0  0  0  0  0
    3.0057   11.4644   -3.8600 H   0  0  0  0  0  0  0  0  0  0  0  0
    4.4928    9.4004   -2.7684 H   0  0  0  0  0  0  0  0  0  0  0  0
    5.5771   12.4877   -5.3484 H   0  0  0  0  0  0  0  0  0  0  0  0
    6.7510   11.2767   -5.9665 H   0  0  0  0  0  0  0  0  0  0  0  0
    4.9935   10.9052   -5.9665 H   0  0  0  0  0  0  0  0  0  0  0  0
    7.3562   10.2635   -2.5727 H   0  0  0  0  0  0  0  0  0  0  0  0
    7.3922    9.2826   -4.0771 H   0  0  0  0  0  0  0  0  0  0  0  0
    8.0561   10.9517   -4.0771 H   0  0  0  0  0  0  0  0  0  0  0  0
   -0.0282   11.5088   -1.5132 H   0  0  0  0  0  0  0  0  0  0  0  0
    1.6510   10.9326    0.1260 H   0  0  0  0  0  0  0  0  0  0  0  0
    2.8835   10.6506   -1.1223 H   0  0  0  0  0  0  0  0  0  0  0  0
    2.7224   12.9525    0.5631 H   0  0  0  0  0  0  0  0  0  0  0  0
    3.7023   12.8651   -0.8983 H   0  0  0  0  0  0  0  0  0  0  0  0
    0.8920   13.8270    0.8278 H   0  0  0  0  0  0  0  0  0  0  0  0
    0.0116   14.8466   -0.3605 H   0  0  0  0  0  0  0  0  0  0  0  0
   -0.2190   13.0652   -0.3605 H   0  0  0  0  0  0  0  0  0  0  0  0
    3.1625   14.8284   -2.2074 H   0  0  0  0  0  0  0  0  0  0  0  0
    3.1343   15.3282    0.3204 H   0  0  0  0  0  0  0  0  0  0  0  0
    3.5529   16.6371   -0.9051 H   0  0  0  0  0  0  0  0  0  0  0  0
    1.9918   17.3632    1.0888 H   0  0  0  0  0  0  0  0  0  0  0  0
   -0.5757   15.9691   -1.6977 H   0  0  0  0  0  0  0  0  0  0  0  0
    0.4327   18.6420   -2.8541 H   0  0  0  0  0  0  0  0  0  0  0  0
   -0.7496   17.4943   -3.6260 H   0  0  0  0  0  0  0  0  0  0  0  0
   -1.8717   19.4511   -2.6108 H   0  0  0  0  0  0  0  0  0  0  0  0
   -2.3443   17.8870   -1.8387 H   0  0  0  0  0  0  0  0  0  0  0  0
   -2.0081   19.5257   -0.1185 H   0  0  0  0  0  0  0  0  0  0  0  0
    0.2030   20.4380    0.0590 H   0  0  0  0  0  0  0  0  0  0  0  0
   -1.6587   17.0540    1.8590 H   0  0  0  0  0  0  0  0  0  0  0  0
   -2.5909   17.4346    0.3714 H   0  0  0  0  0  0  0  0  0  0  0  0
   -1.4143   16.0773    0.3714 H   0  0  0  0  0  0  0  0  0  0  0  0
   -0.3763   18.2269    2.4773 H   0  0  0  0  0  0  0  0  0  0  0  0
    1.1136   18.7259    1.6067 H   0  0  0  0  0  0  0  0  0  0  0  0
   -0.3281   19.7974    1.6067 H   0  0  0  0  0  0  0  0  0  0  0  0
    2.8256   17.5281   -2.6692 H   0  0  0  0  0  0  0  0  0  0  0  0
    2.9569   16.3525   -4.0211 H   0  0  0  0  0  0  0  0  0  0  0  0
    1.6437   17.5782   -4.0211 H   0  0  0  0  0  0  0  0  0  0  0  0
   -0.2321   15.5358   -4.0776 H   0  0  0  0  0  0  0  0  0  0  0  0
    1.4418   14.8381   -4.4593 H   0  0  0  0  0  0  0  0  0  0  0  0
   -0.6539   13.6991   -2.5891 H   0  0  0  0  0  0  0  0  0  0  0  0
   -0.0358   13.0140   -4.1434 H   0  0  0  0  0  0  0  0  0  0  0  0
    3.4715   12.5596   -2.9260 H   0  0  0  0  0  0  0  0  0  0  0  0
    2.3558   11.8260   -4.1274 H   0  0  0  0  0  0  0  0  0  0  0  0
    2.6349   13.6004   -4.1274 H   0  0  0  0  0  0  0  0  0  0  0  0
  1  2  1  0
  2  3  1  0
  3  4  1  0
  4  5  1  0
  5  6  1  0
  6  7  1  0
  7  8  1  0
  7  9  1  0
  2 10  1  0
 10 11  1  0
 11 12  1  0
 12 13  1  0
 13 14  1  1
 13 15  1  0
 15 16  1  0
 16 17  1  0
 17 18  2  0
 18 19  1  0
 19 20  1  0
 20 21  1  0
 21 22  1  0
 22 23  1  0
 22 24  1  0
 24 25  1  0
 24 26  1  0
 19 27  1  0
 27 28  1  6
 27 29  1  0
 29 30  1  0
 30 31  1  0
 31 32  1  6
  7  5  1  0
 31 10  1  0
 31 13  1  0
 27 15  1  0
 24 18  1  0
  1 33  1  0
  1 34  1  0
  1 35  1  0
  2 36  1  6
  3 37  1  0
  3 38  1  0
  4 39  1  0
  4 40  1  0
  5 41  1  1
  8 42  1  0
  8 43  1  0
  8 44  1  0
  9 45  1  0
  9 46  1  0
  9 47  1  0
 10 48  1  1
 11 49  1  0
 11 50  1  0
 12 51  1  0
 12 52  1  0
 14 53  1  0
 14 54  1  0
 14 55  1  0
 15 56  1  6
 16 57  1  0
 16 58  1  0
 17 59  1  0
 19 60  1  1
 20 61  1  0
 20 62  1  0
 21 63  1  0
 21 64  1  0
 22 65  1  1
 23 66  1  0
 25 67  1  0
 25 68  1  0
 25 69  1  0
 26 70  1  0
 26 71  1  0
 26 72  1  0
 28 73  1  0
 28 74  1  0
 28 75  1  0
 29 76  1  0
 29 77  1  0
 30 78  1  0
 30 79  1  0
 32 80  1  0
 32 81  1  0
 32 82  1  0
M  END
>  <meeko>  (13) 
{"is_sidechain": [false], "intermolecular_energy": 2.731, "internal_energy": -0.839}

$$$$
EPH_relaxed_0001_pdb2pqr_Repair_88_r2_0001_out
     RDKit          3D

 82 86  0  0  0  0  0  0  0  0999 V2000
   -3.0010   10.5490   -0.8340 C   0  0  0  0  0  0  0  0  0  0  0  0
   -1.5680   10.5330   -1.3740 C   0  0  2  0  0  0  0  0  0  0  0  0
   -0.8450    9.2070   -1.0640 C   0  0  0  0  0  0  0  0  0  0  0  0
   -1.7930    8.0540   -0.7260 C   0  0  0  0  0  0  0  0  0  0  0  0
   -2.2740    7.3510   -1.9590 C   0  0  2  0  0  0  0  0  0  0  0  0
   -2.9140    8.1990   -2.9210 O   0  0  0  0  0  0  0  0  0  0  0  0
   -3.7400    7.1920   -2.3140 C   0  0  0  0  0  0  0  0  0  0  0  0
   -4.8200    7.7390   -1.4340 C   0  0  0  0  0  0  0  0  0  0  0  0
   -4.1350    6.0920   -3.2500 C   0  0  0  0  0  0  0  0  0  0  0  0
   -0.7820   11.7030   -0.7940 C   0  0  1  0  0  0  0  0  0  0  0  0
    0.4130   11.2430    0.0830 C   0  0  0  0  0  0  0  0  0  0  0  0
    1.5490   12.2770   -0.1310 C   0  0  0  0  0  0  0  0  0  0  0  0
    0.8660   13.4630   -0.8520 C   0  0  1  0  0  0  0  0  0  0  0  0
    0.1690   14.2750    0.2840 C   0  0  0  0  0  0  0  0  0  0  0  0
    1.7950   14.3700   -1.7230 C   0  0  2  0  0  0  0  0  0  0  0  0
    2.9040   15.1030   -0.9480 C   0  0  0  0  0  0  0  0  0  0  0  0
    2.5350   16.4560   -0.4360 C   0  0  0  0  0  0  0  0  0  0  0  0
    1.4680   17.1770   -0.8280 C   0  0  0  0  0  0  0  0  0  0  0  0
    0.5540   16.6820   -1.9560 C   0  0  1  0  0  0  0  0  0  0  0  0
    0.2770   17.8440   -2.9460 C   0  0  0  0  0  0  0  0  0  0  0  0
   -0.2740   19.0850   -2.2510 C   0  0  0  0  0  0  0  0  0  0  0  0
    0.6900   19.5820   -1.1760 C   0  0  2  0  0  0  0  0  0  0  0  0
    1.8830   20.0540   -1.8090 O   0  0  0  0  0  0  0  0  0  0  0  0
    1.0500   18.4930   -0.1270 C   0  0  0  0  0  0  0  0  0  0  0  0
   -0.1830   18.1990    0.7630 C   0  0  0  0  0  0  0  0  0  0  0  0
    2.1360   19.0800    0.8160 C   0  0  0  0  0  0  0  0  0  0  0  0
    1.0190   15.3520   -2.6910 C   0  0  1  0  0  0  0  0  0  0  0  0
    2.0010   15.7000   -3.8520 C   0  0  0  0  0  0  0  0  0  0  0  0
   -0.2330   14.6690   -3.3590 C   0  0  0  0  0  0  0  0  0  0  0  0
   -1.0410   13.6920   -2.4830 C   0  0  0  0  0  0  0  0  0  0  0  0
   -0.1180   12.6810   -1.7960 C   0  0  2  0  0  0  0  0  0  0  0  0
    0.5800   11.8340   -2.9130 C   0  0  0  0  0  0  0  0  0  0  0  0
   -2.9784   10.5487    0.2658 H   0  0  0  0  0  0  0  0  0  0  0  0
   -3.5169   11.4530   -1.1900 H   0  0  0  0  0  0  0  0  0  0  0  0
   -3.5370    9.6568   -1.1900 H   0  0  0  0  0  0  0  0  0  0  0  0
   -1.6253   10.6290   -2.4683 H   0  0  0  0  0  0  0  0  0  0  0  0
   -0.2508    8.9213   -1.9445 H   0  0  0  0  0  0  0  0  0  0  0  0
   -0.2209    9.3812   -0.1751 H   0  0  0  0  0  0  0  0  0  0  0  0
   -1.2624    7.3318   -0.0882 H   0  0  0  0  0  0  0  0  0  0  0  0
   -2.6681    8.4713   -0.2063 H   0  0  0  0  0  0  0  0  0  0  0  0
   -1.4476    6.6277   -1.8966 H   0  0  0  0  0  0  0  0  0  0  0  0
   -4.5406    7.5975   -0.3795 H   0  0  0  0  0  0  0  0  0  0  0  0
   -4.9508    8.8120   -1.6378 H   0  0  0  0  0  0  0  0  0  0  0  0
   -5.7624    7.2095   -1.6378 H   0  0  0  0  0  0  0  0  0  0  0  0
   -4.4508    5.2125   -2.6697 H   0  0  0  0  0  0  0  0  0  0  0  0
   -4.9675    6.4312   -3.8840 H   0  0  0  0  0  0  0  0  0  0  0  0
   -3.2769    5.8242   -3.8840 H   0  0  0  0  0  0  0  0  0  0  0  0
   -1.5886   12.2144   -0.2482 H   0  0  0  0  0  0  0  0  0  0  0  0
    0.1180   11.2182    1.1424 H   0  0  0  0  0  0  0  0  0  0  0  0
    0.7419   10.2313   -0.1967 H   0  0  0  0  0  0  0  0  0  0  0  0
    1.9684   12.5985    0.8338 H   0  0  0  0  0  0  0  0  0  0  0  0
    2.3867   11.8625   -0.7111 H   0  0  0  0  0  0  0  0  0  0  0  0
    0.4969   13.8930    1.2620 H   0  0  0  0  0  0  0  0  0  0  0  0
    0.4409   15.3372    0.1953 H   0  0  0  0  0  0  0  0  0  0  0  0
   -0.9221   14.1672    0.1953 H   0  0  0  0  0  0  0  0  0  0  0  0
    2.3113   13.6367   -2.3600 H   0  0  0  0  0  0  0  0  0  0  0  0
    3.1869   14.4791   -0.0873 H   0  0  0  0  0  0  0  0  0  0  0  0
    3.7233   15.2612   -1.6647 H   0  0  0  0  0  0  0  0  0  0  0  0
    3.1908   16.9016    0.3264 H   0  0  0  0  0  0  0  0  0  0  0  0
   -0.3844   16.3717   -1.4732 H   0  0  0  0  0  0  0  0  0  0  0  0
    1.2180   18.1103   -3.4495 H   0  0  0  0  0  0  0  0  0  0  0  0
   -0.4818   17.4981   -3.6633 H   0  0  0  0  0  0  0  0  0  0  0  0
   -0.4219   19.8796   -2.9971 H   0  0  0  0  0  0  0  0  0  0  0  0
   -1.2294   18.8242   -1.7723 H   0  0  0  0  0  0  0  0  0  0  0  0
    0.1853   20.3912   -0.6279 H   0  0  0  0  0  0  0  0  0  0  0  0
    2.2480   20.7650   -1.2560 H   0  0  0  0  0  0  0  0  0  0  0  0
    0.1048   18.2676    1.8225 H   0  0  0  0  0  0  0  0  0  0  0  0
   -0.9731   18.9339    0.5493 H   0  0  0  0  0  0  0  0  0  0  0  0
   -0.5564   17.1866    0.5493 H   0  0  0  0  0  0  0  0  0  0  0  0
    1.8385   18.9192    1.8627 H   0  0  0  0  0  0  0  0  0  0  0  0
    3.0963   18.5781    0.6265 H   0  0  0  0  0  0  0  0  0  0  0  0
    2.2422   20.1583    0.6265 H   0  0  0  0  0  0  0  0  0  0  0  0
    2.9594   16.0396   -3.4322 H   0  0  0  0  0  0  0  0  0  0  0  0
    2.1681   14.8063   -4.4712 H   0  0  0  0  0  0  0  0  0  0  0  0
    1.5681   16.4994   -4.4712 H   0  0  0  0  0  0  0  0  0  0  0  0
   -0.9156   15.4688   -3.6821 H   0  0  0  0  0  0  0  0  0  0  0  0
    0.1753   14.0542   -4.1746 H   0  0  0  0  0  0  0  0  0  0  0  0
   -1.5850   14.2622   -1.7156 H   0  0  0  0  0  0  0  0  0  0  0  0
   -1.7451   13.1439   -3.1263 H   0  0  0  0  0  0  0  0  0  0  0  0
    1.2139   11.0648   -2.4477 H   0  0  0  0  0  0  0  0  0  0  0  0
   -0.1849   11.3499   -3.5380 H   0  0  0  0  0  0  0  0  0  0  0  0
    1.2013   12.4923   -3.5380 H   0  0  0  0  0  0  0  0  0  0  0  0
  1  2  1  0
  2  3  1  0
  3  4  1  0
  4  5  1  0
  5  6  1  0
  6  7  1  0
  7  8  1  0
  7  9  1  0
  2 10  1  0
 10 11  1  0
 11 12  1  0
 12 13  1  0
 13 14  1  1
 13 15  1  0
 15 16  1  0
 16 17  1  0
 17 18  2  0
 18 19  1  0
 19 20  1  0
 20 21  1  0
 21 22  1  0
 22 23  1  0
 22 24  1  0
 24 25  1  0
 24 26  1  0
 19 27  1  0
 27 28  1  6
 27 29  1  0
 29 30  1  0
 30 31  1  0
 31 32  1  6
  7  5  1  0
 31 10  1  0
 31 13  1  0
 27 15  1  0
 24 18  1  0
  1 33  1  0
  1 34  1  0
  1 35  1  0
  2 36  1  6
  3 37  1  0
  3 38  1  0
  4 39  1  0
  4 40  1  0
  5 41  1  6
  8 42  1  0
  8 43  1  0
  8 44  1  0
  9 45  1  0
  9 46  1  0
  9 47  1  0
 10 48  1  1
 11 49  1  0
 11 50  1  0
 12 51  1  0
 12 52  1  0
 14 53  1  0
 14 54  1  0
 14 55  1  0
 15 56  1  6
 16 57  1  0
 16 58  1  0
 17 59  1  0
 19 60  1  1
 20 61  1  0
 20 62  1  0
 21 63  1  0
 21 64  1  0
 22 65  1  1
 23 66  1  0
 25 67  1  0
 25 68  1  0
 25 69  1  0
 26 70  1  0
 26 71  1  0
 26 72  1  0
 28 73  1  0
 28 74  1  0
 28 75  1  0
 29 76  1  0
 29 77  1  0
 30 78  1  0
 30 79  1  0
 32 80  1  0
 32 81  1  0
 32 82  1  0
M  END
>  <meeko>  (14) 
{"is_sidechain": [false], "intermolecular_energy": 2.731, "internal_energy": -0.839}

$$$$
EPH_relaxed_0001_pdb2pqr_Repair_88_r2_0001_out
     RDKit          3D

 82 86  0  0  0  0  0  0  0  0999 V2000
    0.0720    9.7800   -4.4900 C   0  0  0  0  0  0  0  0  0  0  0  0
    1.1060   10.5300   -3.6460 C   0  0  2  0  0  0  0  0  0  0  0  0
    1.6040    9.6880   -2.4550 C   0  0  0  0  0  0  0  0  0  0  0  0
    0.6350    8.5790   -2.0360 C   0  0  0  0  0  0  0  0  0  0  0  0
   -0.2510    9.0150   -0.9070 C   0  0  2  0  0  0  0  0  0  0  0  0
   -0.8380    7.9420   -0.1590 O   0  0  0  0  0  0  0  0  0  0  0  0
   -1.7500    8.7840   -0.8830 C   0  0  0  0  0  0  0  0  0  0  0  0
   -2.4510    8.0930   -2.0110 C   0  0  0  0  0  0  0  0  0  0  0  0
   -2.5940    9.6540   -0.0050 C   0  0  0  0  0  0  0  0  0  0  0  0
    0.5140   11.8420   -3.1440 C   0  0  1  0  0  0  0  0  0  0  0  0
   -0.8920   11.6600   -2.5120 C   0  0  0  0  0  0  0  0  0  0  0  0
   -0.9930   12.6760   -1.3450 C   0  0  0  0  0  0  0  0  0  0  0  0
    0.2100   13.6270   -1.5510 C   0  0  1  0  0  0  0  0  0  0  0  0
   -0.2620   14.6400   -2.6410 C   0  0  0  0  0  0  0  0  0  0  0  0
    0.7400   14.3580   -0.2750 C   0  0  2  0  0  0  0  0  0  0  0  0
   -0.2670   15.3080    0.3980 C   0  0  0  0  0  0  0  0  0  0  0  0
   -0.2300   16.7210   -0.0840 C   0  0  0  0  0  0  0  0  0  0  0  0
    0.7600   17.2750   -0.8080 C   0  0  0  0  0  0  0  0  0  0  0  0
    2.0350   16.4860   -1.1320 C   0  0  1  0  0  0  0  0  0  0  0  0
    3.2780   17.3730   -0.8570 C   0  0  0  0  0  0  0  0  0  0  0  0
    3.2160   18.7090   -1.5900 C   0  0  0  0  0  0  0  0  0  0  0  0
    1.9640   19.4900   -1.1970 C   0  0  2  0  0  0  0  0  0  0  0  0
    2.0690   19.8670    0.1790 O   0  0  0  0  0  0  0  0  0  0  0  0
    0.6490   18.6920   -1.4220 C   0  0  0  0  0  0  0  0  0  0  0  0
    0.3830   18.5450   -2.9400 C   0  0  0  0  0  0  0  0  0  0  0  0
   -0.5240   19.5360   -0.8550 C   0  0  0  0  0  0  0  0  0  0  0  0
    2.1510   15.0490   -0.4620 C   0  0  1  0  0  0  0  0  0  0  0  0
    2.7780   15.1740    0.9600 C   0  0  0  0  0  0  0  0  0  0  0  0
    3.1420   14.1650   -1.3080 C   0  0  0  0  0  0  0  0  0  0  0  0
    2.5370   13.3740   -2.4830 C   0  0  0  0  0  0  0  0  0  0  0  0
    1.2930   12.5980   -2.0390 C   0  0  2  0  0  0  0  0  0  0  0  0
    1.7410   11.5550   -0.9580 C   0  0  0  0  0  0  0  0  0  0  0  0
   -0.6384    9.2647   -3.8269 H   0  0  0  0  0  0  0  0  0  0  0  0
   -0.4716   10.4953   -5.1248 H   0  0  0  0  0  0  0  0  0  0  0  0
    0.5831    9.0412   -5.1248 H   0  0  0  0  0  0  0  0  0  0  0  0
    1.9731   10.7355   -4.2909 H   0  0  0  0  0  0  0  0  0  0  0  0
    2.5620    9.2248   -2.7339 H   0  0  0  0  0  0  0  0  0  0  0  0
    1.7009   10.3704   -1.5977 H   0  0  0  0  0  0  0  0  0  0  0  0
    0.0074    8.3092   -2.8982 H   0  0  0  0  0  0  0  0  0  0  0  0
    1.2268    7.7169   -1.6947 H   0  0  0  0  0  0  0  0  0  0  0  0
    0.3591    9.9157   -0.7443 H   0  0  0  0  0  0  0  0  0  0  0  0
   -3.1792    7.3752   -1.6054 H   0  0  0  0  0  0  0  0  0  0  0  0
   -2.9749    8.8377   -2.6282 H   0  0  0  0  0  0  0  0  0  0  0  0
   -1.7139    7.5584   -2.6282 H   0  0  0  0  0  0  0  0  0  0  0  0
   -2.3771    9.4305    1.0500 H   0  0  0  0  0  0  0  0  0  0  0  0
   -2.3679   10.7108   -0.2099 H   0  0  0  0  0  0  0  0  0  0  0  0
   -3.6572    9.4601   -0.2099 H   0  0  0  0  0  0  0  0  0  0  0  0
    0.5312   12.4210   -4.0791 H   0  0  0  0  0  0  0  0  0  0  0  0
   -1.6726   11.8633   -3.2598 H   0  0  0  0  0  0  0  0  0  0  0  0
   -1.0329   10.6301   -2.1522 H   0  0  0  0  0  0  0  0  0  0  0  0
   -1.9408   13.2321   -1.3951 H   0  0  0  0  0  0  0  0  0  0  0  0
   -0.9730   12.1847   -0.3610 H   0  0  0  0  0  0  0  0  0  0  0  0
   -0.6787   15.5343   -2.1546 H   0  0  0  0  0  0  0  0  0  0  0  0
    0.5942   14.9291   -3.2682 H   0  0  0  0  0  0  0  0  0  0  0  0
   -1.0341   14.1704   -3.2682 H   0  0  0  0  0  0  0  0  0  0  0  0
    0.8839   13.5264    0.4304 H   0  0  0  0  0  0  0  0  0  0  0  0
   -1.2783   14.9140    0.2189 H   0  0  0  0  0  0  0  0  0  0  0  0
    0.0101   15.3417    1.4620 H   0  0  0  0  0  0  0  0  0  0  0  0
   -1.0845   17.3635    0.1747 H   0  0  0  0  0  0  0  0  0  0  0  0
    1.9782   16.2450   -2.2038 H   0  0  0  0  0  0  0  0  0  0  0  0
    3.3412   17.5664    0.2240 H   0  0  0  0  0  0  0  0  0  0  0  0
    4.1626   16.8315   -1.2234 H   0  0  0  0  0  0  0  0  0  0  0  0
    4.1058   19.3023   -1.3328 H   0  0  0  0  0  0  0  0  0  0  0  0
    3.1829   18.5143   -2.6721 H   0  0  0  0  0  0  0  0  0  0  0  0
    1.9089   20.3751   -1.8478 H   0  0  0  0  0  0  0  0  0  0  0  0
    2.6800   19.2450    0.6090 H   0  0  0  0  0  0  0  0  0  0  0  0
   -0.5700   18.0183   -3.0959 H   0  0  0  0  0  0  0  0  0  0  0  0
    0.3306   19.5422   -3.4013 H   0  0  0  0  0  0  0  0  0  0  0  0
    1.1994   17.9700   -3.4013 H   0  0  0  0  0  0  0  0  0  0  0  0
   -0.4936   19.5141    0.2444 H   0  0  0  0  0  0  0  0  0  0  0  0
   -0.4302   20.5750   -1.2038 H   0  0  0  0  0  0  0  0  0  0  0  0
   -1.4794   19.1169   -1.2038 H   0  0  0  0  0  0  0  0  0  0  0  0
    1.9978   15.0185    1.7197 H   0  0  0  0  0  0  0  0  0  0  0  0
    3.5649   14.4151    1.0818 H   0  0  0  0  0  0  0  0  0  0  0  0
    3.2137   16.1767    1.0818 H   0  0  0  0  0  0  0  0  0  0  0  0
    3.9148   14.8315   -1.7185 H   0  0  0  0  0  0  0  0  0  0  0  0
    3.5151   13.4018   -0.6091 H   0  0  0  0  0  0  0  0  0  0  0  0
    2.2571   14.0755   -3.2828 H   0  0  0  0  0  0  0  0  0  0  0  0
    3.2873   12.6560   -2.8457 H   0  0  0  0  0  0  0  0  0  0  0  0
    1.5635   11.9682    0.0459 H   0  0  0  0  0  0  0  0  0  0  0  0
    1.1617   10.6280   -1.0806 H   0  0  0  0  0  0  0  0  0  0  0  0
    2.8122   11.3369   -1.0806 H   0  0  0  0  0  0  0  0  0  0  0  0
  1  2  1  0
  2  3  1  0
  3  4  1  0
  4  5  1  0
  5  6  1  0
  6  7  1  0
  7  8  1  0
  7  9  1  0
  2 10  1  0
 10 11  1  0
 11 12  1  0
 12 13  1  0
 13 14  1  6
 13 15  1  0
 15 16  1  0
 16 17  1  0
 17 18  2  0
 18 19  1  0
 19 20  1  0
 20 21  1  0
 21 22  1  0
 22 23  1  0
 22 24  1  0
 24 25  1  0
 24 26  1  0
 19 27  1  0
 27 28  1  1
 27 29  1  0
 29 30  1  0
 30 31  1  0
 31 32  1  1
  7  5  1  0
 31 10  1  0
 31 13  1  0
 27 15  1  0
 24 18  1  0
  1 33  1  0
  1 34  1  0
  1 35  1  0
  2 36  1  6
  3 37  1  0
  3 38  1  0
  4 39  1  0
  4 40  1  0
  5 41  1  1
  8 42  1  0
  8 43  1  0
  8 44  1  0
  9 45  1  0
  9 46  1  0
  9 47  1  0
 10 48  1  6
 11 49  1  0
 11 50  1  0
 12 51  1  0
 12 52  1  0
 14 53  1  0
 14 54  1  0
 14 55  1  0
 15 56  1  1
 16 57  1  0
 16 58  1  0
 17 59  1  0
 19 60  1  6
 20 61  1  0
 20 62  1  0
 21 63  1  0
 21 64  1  0
 22 65  1  6
 23 66  1  0
 25 67  1  0
 25 68  1  0
 25 69  1  0
 26 70  1  0
 26 71  1  0
 26 72  1  0
 28 73  1  0
 28 74  1  0
 28 75  1  0
 29 76  1  0
 29 77  1  0
 30 78  1  0
 30 79  1  0
 32 80  1  0
 32 81  1  0
 32 82  1  0
M  END
>  <meeko>  (15) 
{"is_sidechain": [false], "intermolecular_energy": 2.731, "internal_energy": -0.839}

$$$$
EPH_relaxed_0001_pdb2pqr_Repair_88_r2_0001_out
     RDKit          3D

 82 86  0  0  0  0  0  0  0  0999 V2000
   -1.7620   10.1890    0.6840 C   0  0  0  0  0  0  0  0  0  0  0  0
   -0.4070   10.4190    0.0100 C   0  0  2  0  0  0  0  0  0  0  0  0
    0.6280    9.3480    0.4050 C   0  0  0  0  0  0  0  0  0  0  0  0
    0.7370    8.1970   -0.6000 C   0  0  0  0  0  0  0  0  0  0  0  0
   -0.6120    7.7390   -1.0660 C   0  0  2  0  0  0  0  0  0  0  0  0
   -0.6290    7.1690   -2.3820 O   0  0  0  0  0  0  0  0  0  0  0  0
   -1.3670    8.3900   -2.2100 C   0  0  0  0  0  0  0  0  0  0  0  0
   -0.7990    9.5550   -2.9570 C   0  0  0  0  0  0  0  0  0  0  0  0
   -2.8520    8.2110   -2.2800 C   0  0  0  0  0  0  0  0  0  0  0  0
    0.1180   11.8060    0.3610 C   0  0  1  0  0  0  0  0  0  0  0  0
    1.3520   11.7570    1.3010 C   0  0  0  0  0  0  0  0  0  0  0  0
    2.2710   12.9380    0.8950 C   0  0  0  0  0  0  0  0  0  0  0  0
    1.3940   13.8150   -0.0280 C   0  0  1  0  0  0  0  0  0  0  0  0
    0.5180   14.6670    0.9430 C   0  0  0  0  0  0  0  0  0  0  0  0
    2.1560   14.7140   -1.0560 C   0  0  2  0  0  0  0  0  0  0  0  0
    3.0770   15.7790   -0.4350 C   0  0  0  0  0  0  0  0  0  0  0  0
    2.4370   17.1030   -0.1770 C   0  0  0  0  0  0  0  0  0  0  0  0
    1.2630   17.5170   -0.6900 C   0  0  0  0  0  0  0  0  0  0  0  0
    0.4980   16.6560   -1.7030 C   0  0  1  0  0  0  0  0  0  0  0  0
    0.0320   17.5420   -2.8880 C   0  0  0  0  0  0  0  0  0  0  0  0
   -0.7710   18.7560   -2.4310 C   0  0  0  0  0  0  0  0  0  0  0  0
    0.0440   19.6180   -1.4700 C   0  0  2  0  0  0  0  0  0  0  0  0
    1.1420   20.1930   -2.1850 O   0  0  0  0  0  0  0  0  0  0  0  0
    0.5760   18.8300   -0.2400 C   0  0  0  0  0  0  0  0  0  0  0  0
   -0.6040   18.4660    0.6950 C   0  0  0  0  0  0  0  0  0  0  0  0
    1.4970   19.7800    0.5730 C   0  0  0  0  0  0  0  0  0  0  0  0
    1.2350   15.3330   -2.1840 C   0  0  1  0  0  0  0  0  0  0  0  0
    2.1660   15.6510   -3.3940 C   0  0  0  0  0  0  0  0  0  0  0  0
    0.1610   14.3080   -2.7080 C   0  0  0  0  0  0  0  0  0  0  0  0
   -0.4690   13.3660   -1.6640 C   0  0  0  0  0  0  0  0  0  0  0  0
    0.6110   12.6970   -0.8070 C   0  0  2  0  0  0  0  0  0  0  0  0
    1.4950   11.8160   -1.7540 C   0  0  0  0  0  0  0  0  0  0  0  0
   -1.6364   10.2103    1.7766 H   0  0  0  0  0  0  0  0  0  0  0  0
   -2.4620   10.9812    0.3799 H   0  0  0  0  0  0  0  0  0  0  0  0
   -2.1614    9.2102    0.3799 H   0  0  0  0  0  0  0  0  0  0  0  0
   -0.5606   10.3431   -1.0766 H   0  0  0  0  0  0  0  0  0  0  0  0
    1.6129    9.8308    0.4883 H   0  0  0  0  0  0  0  0  0  0  0  0
    0.2923    8.9124    1.3577 H   0  0  0  0  0  0  0  0  0  0  0  0
    1.3183    8.5369   -1.4698 H   0  0  0  0  0  0  0  0  0  0  0  0
    1.2329    7.3515   -0.1009 H   0  0  0  0  0  0  0  0  0  0  0  0
   -0.9073    7.4841   -0.0375 H   0  0  0  0  0  0  0  0  0  0  0  0
   -0.4328   10.3060   -2.2416 H   0  0  0  0  0  0  0  0  0  0  0  0
    0.0340    9.2142   -3.5894 H   0  0  0  0  0  0  0  0  0  0  0  0
   -1.5806   10.0014   -3.5894 H   0  0  0  0  0  0  0  0  0  0  0  0
   -3.2638    8.1614   -1.2612 H   0  0  0  0  0  0  0  0  0  0  0  0
   -3.2991    9.0618   -2.8151 H   0  0  0  0  0  0  0  0  0  0  0  0
   -3.0841    7.2784   -2.8151 H   0  0  0  0  0  0  0  0  0  0  0  0
   -0.7893   12.2388    0.8076 H   0  0  0  0  0  0  0  0  0  0  0  0
    1.0348   11.8667    2.3485 H   0  0  0  0  0  0  0  0  0  0  0  0
    1.8800   10.7963    1.2098 H   0  0  0  0  0  0  0  0  0  0  0  0
    2.5892   13.5052    1.7821 H   0  0  0  0  0  0  0  0  0  0  0  0
    3.1911   12.5985    0.3969 H   0  0  0  0  0  0  0  0  0  0  0  0
    0.7747   14.4173    1.9831 H   0  0  0  0  0  0  0  0  0  0  0  0
    0.7072   15.7359    0.7651 H   0  0  0  0  0  0  0  0  0  0  0  0
   -0.5452   14.4482    0.7651 H   0  0  0  0  0  0  0  0  0  0  0  0
    2.8239   13.9928   -1.5497 H   0  0  0  0  0  0  0  0  0  0  0  0
    3.4497   15.3890    0.5236 H   0  0  0  0  0  0  0  0  0  0  0  0
    3.8708   15.9633   -1.1739 H   0  0  0  0  0  0  0  0  0  0  0  0
    2.9694   17.7988    0.4882 H   0  0  0  0  0  0  0  0  0  0  0  0
   -0.3767   16.2599   -1.1664 H   0  0  0  0  0  0  0  0  0  0  0  0
    0.9189   17.8921   -3.4365 H   0  0  0  0  0  0  0  0  0  0  0  0
   -0.6228   16.9295   -3.5253 H   0  0  0  0  0  0  0  0  0  0  0  0
   -1.0457   19.3577   -3.3099 H   0  0  0  0  0  0  0  0  0  0  0  0
   -1.6731   18.4044   -1.9089 H   0  0  0  0  0  0  0  0  0  0  0  0
   -0.6257   20.3970   -1.0768 H   0  0  0  0  0  0  0  0  0  0  0  0
    0.8040   20.9650   -2.6710 H   0  0  0  0  0  0  0  0  0  0  0  0
   -0.2851   18.5644    1.7432 H   0  0  0  0  0  0  0  0  0  0  0  0
   -1.4472   19.1458    0.5029 H   0  0  0  0  0  0  0  0  0  0  0  0
   -0.9177   17.4293    0.5029 H   0  0  0  0  0  0  0  0  0  0  0  0
    1.3365   19.6145    1.6486 H   0  0  0  0  0  0  0  0  0  0  0  0
    2.5483   19.5740    0.3231 H   0  0  0  0  0  0  0  0  0  0  0  0
    1.2586   20.8244    0.3231 H   0  0  0  0  0  0  0  0  0  0  0  0
    3.1464   15.9859   -3.0242 H   0  0  0  0  0  0  0  0  0  0  0  0
    2.2945   14.7458   -4.0056 H   0  0  0  0  0  0  0  0  0  0  0  0
    1.7138   16.4457   -4.0056 H   0  0  0  0  0  0  0  0  0  0  0  0
   -0.6535   14.8861   -3.1688 H   0  0  0  0  0  0  0  0  0  0  0  0
    0.7064   13.6480   -3.3986 H   0  0  0  0  0  0  0  0  0  0  0  0
   -1.1373   13.9472   -1.0117 H   0  0  0  0  0  0  0  0  0  0  0  0
   -1.0325   12.5830   -2.1926 H   0  0  0  0  0  0  0  0  0  0  0  0
    2.1459   11.1673   -1.1495 H   0  0  0  0  0  0  0  0  0  0  0  0
    0.8459   11.1949   -2.3887 H   0  0  0  0  0  0  0  0  0  0  0  0
    2.1139   12.4672   -2.3887 H   0  0  0  0  0  0  0  0  0  0  0  0
  1  2  1  0
  2  3  1  0
  3  4  1  0
  4  5  1  0
  5  6  1  0
  6  7  1  0
  7  8  1  0
  7  9  1  0
  2 10  1  0
 10 11  1  0
 11 12  1  0
 12 13  1  0
 13 14  1  1
 13 15  1  0
 15 16  1  0
 16 17  1  0
 17 18  2  0
 18 19  1  0
 19 20  1  0
 20 21  1  0
 21 22  1  0
 22 23  1  0
 22 24  1  0
 24 25  1  0
 24 26  1  0
 19 27  1  0
 27 28  1  6
 27 29  1  0
 29 30  1  0
 30 31  1  0
 31 32  1  6
  7  5  1  0
 31 10  1  0
 31 13  1  0
 27 15  1  0
 24 18  1  0
  1 33  1  0
  1 34  1  0
  1 35  1  0
  2 36  1  6
  3 37  1  0
  3 38  1  0
  4 39  1  0
  4 40  1  0
  5 41  1  1
  8 42  1  0
  8 43  1  0
  8 44  1  0
  9 45  1  0
  9 46  1  0
  9 47  1  0
 10 48  1  1
 11 49  1  0
 11 50  1  0
 12 51  1  0
 12 52  1  0
 14 53  1  0
 14 54  1  0
 14 55  1  0
 15 56  1  6
 16 57  1  0
 16 58  1  0
 17 59  1  0
 19 60  1  1
 20 61  1  0
 20 62  1  0
 21 63  1  0
 21 64  1  0
 22 65  1  1
 23 66  1  0
 25 67  1  0
 25 68  1  0
 25 69  1  0
 26 70  1  0
 26 71  1  0
 26 72  1  0
 28 73  1  0
 28 74  1  0
 28 75  1  0
 29 76  1  0
 29 77  1  0
 30 78  1  0
 30 79  1  0
 32 80  1  0
 32 81  1  0
 32 82  1  0
M  END
>  <meeko>  (16) 
{"is_sidechain": [false], "intermolecular_energy": 2.731, "internal_energy": -0.839}

$$$$
EPH_relaxed_0001_pdb2pqr_Repair_88_r2_0001_out
     RDKit          3D

 82 86  0  0  0  0  0  0  0  0999 V2000
    0.9410   14.9580   -2.6630 C   0  0  0  0  0  0  0  0  0  0  0  0
    1.1900   14.2760   -4.0110 C   0  0  2  0  0  0  0  0  0  0  0  0
    0.4720   14.9970   -5.1690 C   0  0  0  0  0  0  0  0  0  0  0  0
    0.9880   14.6010   -6.5550 C   0  0  0  0  0  0  0  0  0  0  0  0
    0.7500   15.6820   -7.5650 C   0  0  2  0  0  0  0  0  0  0  0  0
    0.4230   15.2120   -8.8790 O   0  0  0  0  0  0  0  0  0  0  0  0
    1.6600   15.9320   -8.7530 C   0  0  0  0  0  0  0  0  0  0  0  0
    2.8780   15.0960   -8.9930 C   0  0  0  0  0  0  0  0  0  0  0  0
    1.6400   17.2830   -9.3980 C   0  0  0  0  0  0  0  0  0  0  0  0
    0.7430   12.8200   -3.9470 C   0  0  1  0  0  0  0  0  0  0  0  0
    1.8720   11.8300   -4.3390 C   0  0  0  0  0  0  0  0  0  0  0  0
    1.6850   10.5670   -3.4590 C   0  0  0  0  0  0  0  0  0  0  0  0
    0.2790   10.7300   -2.8370 C   0  0  1  0  0  0  0  0  0  0  0  0
   -0.7090   10.2560   -3.9490 C   0  0  0  0  0  0  0  0  0  0  0  0
    0.0290    9.9830   -1.4870 C   0  0  2  0  0  0  0  0  0  0  0  0
    0.1360    8.4490   -1.5600 C   0  0  0  0  0  0  0  0  0  0  0  0
   -1.1390    7.7350   -1.8670 C   0  0  0  0  0  0  0  0  0  0  0  0
   -2.3720    8.2710   -1.7950 C   0  0  0  0  0  0  0  0  0  0  0  0
   -2.5810    9.6990   -1.2760 C   0  0  1  0  0  0  0  0  0  0  0  0
   -3.7500    9.7130   -0.2560 C   0  0  0  0  0  0  0  0  0  0  0  0
   -5.0290    9.1050   -0.8220 C   0  0  0  0  0  0  0  0  0  0  0  0
   -4.7950    7.6660   -1.2740 C   0  0  2  0  0  0  0  0  0  0  0  0
   -4.5220    6.8600   -0.1230 O   0  0  0  0  0  0  0  0  0  0  0  0
   -3.6330    7.5250   -2.2970 C   0  0  0  0  0  0  0  0  0  0  0  0
   -4.0560    8.1440   -3.6520 C   0  0  0  0  0  0  0  0  0  0  0  0
   -3.4100    6.0120   -2.5610 C   0  0  0  0  0  0  0  0  0  0  0  0
   -1.2840   10.4350   -0.7280 C   0  0  1  0  0  0  0  0  0  0  0  0
   -1.0700   10.0870    0.7770 C   0  0  0  0  0  0  0  0  0  0  0  0
   -1.5080   11.9920   -0.7970 C   0  0  0  0  0  0  0  0  0  0  0  0
   -1.1310   12.6910   -2.1170 C   0  0  0  0  0  0  0  0  0  0  0  0
    0.2730   12.2800   -2.5730 C   0  0  2  0  0  0  0  0  0  0  0  0
    1.2900   12.7640   -1.4850 C   0  0  0  0  0  0  0  0  0  0  0  0
    1.1945   14.2636   -1.8484 H   0  0  0  0  0  0  0  0  0  0  0  0
    1.5685   15.8582   -2.5861 H   0  0  0  0  0  0  0  0  0  0  0  0
   -0.1189   15.2421   -2.5861 H   0  0  0  0  0  0  0  0  0  0  0  0
    2.2704   14.3252   -4.2117 H   0  0  0  0  0  0  0  0  0  0  0  0
   -0.6002   14.7569   -5.1160 H   0  0  0  0  0  0  0  0  0  0  0  0
    0.6677   16.0727   -5.0484 H   0  0  0  0  0  0  0  0  0  0  0  0
    2.0685   14.4051   -6.4905 H   0  0  0  0  0  0  0  0  0  0  0  0
    0.4430   13.7024   -6.8798 H   0  0  0  0  0  0  0  0  0  0  0  0
    0.3489   16.3509   -6.7893 H   0  0  0  0  0  0  0  0  0  0  0  0
    3.3135   14.7971   -8.0281 H   0  0  0  0  0  0  0  0  0  0  0  0
    2.5996   14.1977   -9.5636 H   0  0  0  0  0  0  0  0  0  0  0  0
    3.6161   15.6787   -9.5636 H   0  0  0  0  0  0  0  0  0  0  0  0
    1.6285   18.0606   -8.6200 H   0  0  0  0  0  0  0  0  0  0  0  0
    2.5365   17.4038  -10.0239 H   0  0  0  0  0  0  0  0  0  0  0  0
    0.7404   17.3772  -10.0239 H   0  0  0  0  0  0  0  0  0  0  0  0
   -0.1048   12.8570   -4.6469 H   0  0  0  0  0  0  0  0  0  0  0  0
    1.7909   11.5653   -5.4036 H   0  0  0  0  0  0  0  0  0  0  0  0
    2.8636   12.2788   -4.1801 H   0  0  0  0  0  0  0  0  0  0  0  0
    1.7350    9.6553   -4.0725 H   0  0  0  0  0  0  0  0  0  0  0  0
    2.4706   10.4707   -2.6951 H   0  0  0  0  0  0  0  0  0  0  0  0
   -1.6070    9.8252   -3.4822 H   0  0  0  0  0  0  0  0  0  0  0  0
   -0.9965   11.1142   -4.5741 H   0  0  0  0  0  0  0  0  0  0  0  0
   -0.2195    9.4947   -4.5741 H   0  0  0  0  0  0  0  0  0  0  0  0
    0.8809   10.3135   -0.8746 H   0  0  0  0  0  0  0  0  0  0  0  0
    0.8647    8.1960   -2.3442 H   0  0  0  0  0  0  0  0  0  0  0  0
    0.4369    8.1166   -0.5555 H   0  0  0  0  0  0  0  0  0  0  0  0
   -1.0646    6.6826   -2.1782 H   0  0  0  0  0  0  0  0  0  0  0  0
   -2.8445   10.3061   -2.1546 H   0  0  0  0  0  0  0  0  0  0  0  0
   -3.4495    9.1379    0.6322 H   0  0  0  0  0  0  0  0  0  0  0  0
   -3.9621   10.7631   -0.0065 H   0  0  0  0  0  0  0  0  0  0  0  0
   -5.8075    9.1162   -0.0450 H   0  0  0  0  0  0  0  0  0  0  0  0
   -5.3454    9.6993   -1.6919 H   0  0  0  0  0  0  0  0  0  0  0  0
   -5.7076    7.3300   -1.7881 H   0  0  0  0  0  0  0  0  0  0  0  0
   -3.6750    7.1580    0.2510 H   0  0  0  0  0  0  0  0  0  0  0  0
   -4.6681    9.0398   -3.4707 H   0  0  0  0  0  0  0  0  0  0  0  0
   -3.1586    8.4227   -4.2239 H   0  0  0  0  0  0  0  0  0  0  0  0
   -4.6417    7.4092   -4.2239 H   0  0  0  0  0  0  0  0  0  0  0  0
   -3.3316    5.4800   -1.6014 H   0  0  0  0  0  0  0  0  0  0  0  0
   -4.2587    5.6108   -3.1344 H   0  0  0  0  0  0  0  0  0  0  0  0
   -2.4816    5.8728   -3.1344 H   0  0  0  0  0  0  0  0  0  0  0  0
   -1.5440   10.8577    1.4025 H   0  0  0  0  0  0  0  0  0  0  0  0
   -1.5226    9.1084    0.9950 H   0  0  0  0  0  0  0  0  0  0  0  0
    0.0075   10.0494    0.9950 H   0  0  0  0  0  0  0  0  0  0  0  0
   -2.5755   12.1830   -0.6126 H   0  0  0  0  0  0  0  0  0  0  0  0
   -0.8268   12.4141   -0.0435 H   0  0  0  0  0  0  0  0  0  0  0  0
   -1.8581   12.4105   -2.8933 H   0  0  0  0  0  0  0  0  0  0  0  0
   -1.1427   13.7788   -1.9540 H   0  0  0  0  0  0  0  0  0  0  0  0
    0.8775   12.5677   -0.4843 H   0  0  0  0  0  0  0  0  0  0  0  0
    2.2394   12.2212   -1.6032 H   0  0  0  0  0  0  0  0  0  0  0  0
    1.4675   13.8431   -1.6032 H   0  0  0  0  0  0  0  0  0  0  0  0
  1  2  1  0
  2  3  1  0
  3  4  1  0
  4  5  1  0
  5  6  1  0
  6  7  1  0
  7  8  1  0
  7  9  1  0
  2 10  1  0
 10 11  1  0
 11 12  1  0
 12 13  1  0
 13 14  1  6
 13 15  1  0
 15 16  1  0
 16 17  1  0
 17 18  2  0
 18 19  1  0
 19 20  1  0
 20 21  1  0
 21 22  1  0
 22 23  1  0
 22 24  1  0
 24 25  1  0
 24 26  1  0
 19 27  1  0
 27 28  1  1
 27 29  1  0
 29 30  1  0
 30 31  1  0
 31 32  1  1
  7  5  1  0
 31 10  1  0
 31 13  1  0
 27 15  1  0
 24 18  1  0
  1 33  1  0
  1 34  1  0
  1 35  1  0
  2 36  1  6
  3 37  1  0
  3 38  1  0
  4 39  1  0
  4 40  1  0
  5 41  1  1
  8 42  1  0
  8 43  1  0
  8 44  1  0
  9 45  1  0
  9 46  1  0
  9 47  1  0
 10 48  1  6
 11 49  1  0
 11 50  1  0
 12 51  1  0
 12 52  1  0
 14 53  1  0
 14 54  1  0
 14 55  1  0
 15 56  1  1
 16 57  1  0
 16 58  1  0
 17 59  1  0
 19 60  1  6
 20 61  1  0
 20 62  1  0
 21 63  1  0
 21 64  1  0
 22 65  1  6
 23 66  1  0
 25 67  1  0
 25 68  1  0
 25 69  1  0
 26 70  1  0
 26 71  1  0
 26 72  1  0
 28 73  1  0
 28 74  1  0
 28 75  1  0
 29 76  1  0
 29 77  1  0
 30 78  1  0
 30 79  1  0
 32 80  1  0
 32 81  1  0
 32 82  1  0
M  END
>  <meeko>  (17) 
{"is_sidechain": [false], "intermolecular_energy": 2.731, "internal_energy": -0.839}

$$$$
EPH_relaxed_0001_pdb2pqr_Repair_88_r2_0001_out
     RDKit          3D

 82 86  0  0  0  0  0  0  0  0999 V2000
   -2.5580    7.7620   -0.0840 C   0  0  0  0  0  0  0  0  0  0  0  0
   -3.1220    9.1840   -0.0140 C   0  0  2  0  0  0  0  0  0  0  0  0
   -4.6260    9.2290   -0.3490 C   0  0  0  0  0  0  0  0  0  0  0  0
   -5.1350    7.9750   -1.0650 C   0  0  0  0  0  0  0  0  0  0  0  0
   -6.6140    8.0340   -1.3020 C   0  0  2  0  0  0  0  0  0  0  0  0
   -7.3150    6.8150   -1.0210 O   0  0  0  0  0  0  0  0  0  0  0  0
   -7.3190    7.2470   -2.3920 C   0  0  0  0  0  0  0  0  0  0  0  0
   -6.5630    6.3450   -3.3160 C   0  0  0  0  0  0  0  0  0  0  0  0
   -8.6550    7.7250   -2.8690 C   0  0  0  0  0  0  0  0  0  0  0  0
   -2.3500   10.0960   -0.9600 C   0  0  1  0  0  0  0  0  0  0  0  0
   -2.9880   11.5050   -1.0840 C   0  0  0  0  0  0  0  0  0  0  0  0
   -1.8200   12.5110   -1.2520 C   0  0  0  0  0  0  0  0  0  0  0  0
   -0.5850   11.6290   -1.5520 C   0  0  1  0  0  0  0  0  0  0  0  0
   -0.6880   11.3000   -3.0750 C   0  0  0  0  0  0  0  0  0  0  0  0
    0.8060   12.2410   -1.1860 C   0  0  2  0  0  0  0  0  0  0  0  0
    1.1760   13.5240   -1.9510 C   0  0  0  0  0  0  0  0  0  0  0  0
    1.9190   13.3130   -3.2280 C   0  0  0  0  0  0  0  0  0  0  0  0
    2.5240   12.1700   -3.6020 C   0  0  0  0  0  0  0  0  0  0  0  0
    2.5790   10.9630   -2.6570 C   0  0  1  0  0  0  0  0  0  0  0  0
    4.0190   10.3860   -2.6380 C   0  0  0  0  0  0  0  0  0  0  0  0
    4.5370   10.0580   -4.0350 C   0  0  0  0  0  0  0  0  0  0  0  0
    4.5210   11.2960   -4.9270 C   0  0  2  0  0  0  0  0  0  0  0  0
    5.4770   12.2360   -4.4280 O   0  0  0  0  0  0  0  0  0  0  0  0
    3.1230   11.9690   -5.0160 C   0  0  0  0  0  0  0  0  0  0  0  0
    2.1610   11.0670   -5.8280 C   0  0  0  0  0  0  0  0  0  0  0  0
    3.2760   13.2830   -5.8300 C   0  0  0  0  0  0  0  0  0  0  0  0
    1.9960   11.1980   -1.1970 C   0  0  1  0  0  0  0  0  0  0  0  0
    3.1060   11.7780   -0.2680 C   0  0  0  0  0  0  0  0  0  0  0  0
    1.5810    9.8100   -0.5800 C   0  0  0  0  0  0  0  0  0  0  0  0
    0.1520    9.3160   -0.8790 C   0  0  0  0  0  0  0  0  0  0  0  0
   -0.8780   10.4140   -0.5980 C   0  0  2  0  0  0  0  0  0  0  0  0
   -0.8130   10.7510    0.9300 C   0  0  0  0  0  0  0  0  0  0  0  0
   -2.4055    7.3775    0.9352 H   0  0  0  0  0  0  0  0  0  0  0  0
   -3.2666    7.1124   -0.6188 H   0  0  0  0  0  0  0  0  0  0  0  0
   -1.5968    7.7747   -0.6188 H   0  0  0  0  0  0  0  0  0  0  0  0
   -3.0039    9.5366    1.0213 H   0  0  0  0  0  0  0  0  0  0  0  0
   -5.1875    9.3449    0.5897 H   0  0  0  0  0  0  0  0  0  0  0  0
   -4.7771   10.0749   -1.0357 H   0  0  0  0  0  0  0  0  0  0  0  0
   -4.6220    7.8846   -2.0338 H   0  0  0  0  0  0  0  0  0  0  0  0
   -4.9246    7.1054   -0.4251 H   0  0  0  0  0  0  0  0  0  0  0  0
   -6.6392    9.0987   -1.0267 H   0  0  0  0  0  0  0  0  0  0  0  0
   -5.9664    5.6331   -2.7267 H   0  0  0  0  0  0  0  0  0  0  0  0
   -7.2718    5.7925   -3.9503 H   0  0  0  0  0  0  0  0  0  0  0  0
   -5.8951    6.9463   -3.9503 H   0  0  0  0  0  0  0  0  0  0  0  0
   -9.2934    7.9534   -2.0028 H   0  0  0  0  0  0  0  0  0  0  0  0
   -8.5241    8.6321   -3.4774 H   0  0  0  0  0  0  0  0  0  0  0  0
   -9.1292    6.9408   -3.4774 H   0  0  0  0  0  0  0  0  0  0  0  0
   -2.3886    9.4874   -1.8755 H   0  0  0  0  0  0  0  0  0  0  0  0
   -3.6514   11.5448   -1.9606 H   0  0  0  0  0  0  0  0  0  0  0  0
   -3.5917   11.7450   -0.1964 H   0  0  0  0  0  0  0  0  0  0  0  0
   -2.0175   13.1994   -2.0869 H   0  0  0  0  0  0  0  0  0  0  0  0
   -1.6779   13.1378   -0.3593 H   0  0  0  0  0  0  0  0  0  0  0  0
   -1.0144   10.2574   -3.2037 H   0  0  0  0  0  0  0  0  0  0  0  0
   -1.4182   11.9737   -3.5471 H   0  0  0  0  0  0  0  0  0  0  0  0
    0.2960   11.4371   -3.5471 H   0  0  0  0  0  0  0  0  0  0  0  0
    0.6607   12.5484   -0.1399 H   0  0  0  0  0  0  0  0  0  0  0  0
    0.2448   14.0611   -2.1843 H   0  0  0  0  0  0  0  0  0  0  0  0
    1.8554   14.0855   -1.2929 H   0  0  0  0  0  0  0  0  0  0  0  0
    1.9773   14.1638   -3.9228 H   0  0  0  0  0  0  0  0  0  0  0  0
    1.8840   10.2188   -3.0731 H   0  0  0  0  0  0  0  0  0  0  0  0
    4.6896   11.1270   -2.1784 H   0  0  0  0  0  0  0  0  0  0  0  0
    3.9953    9.4489   -2.0624 H   0  0  0  0  0  0  0  0  0  0  0  0
    5.5683    9.6832   -3.9578 H   0  0  0  0  0  0  0  0  0  0  0  0
    3.8829    9.2948   -4.4818 H   0  0  0  0  0  0  0  0  0  0  0  0
    4.7779   10.9716   -5.9462 H   0  0  0  0  0  0  0  0  0  0  0  0
    5.7380   12.8110   -5.1680 H   0  0  0  0  0  0  0  0  0  0  0  0
    1.5366   10.4815   -5.1371 H   0  0  0  0  0  0  0  0  0  0  0  0
    1.5172   11.6946   -6.4618 H   0  0  0  0  0  0  0  0  0  0  0  0
    2.7459   10.3842   -6.4618 H   0  0  0  0  0  0  0  0  0  0  0  0
    3.3750   14.1330   -5.1389 H   0  0  0  0  0  0  0  0  0  0  0  0
    4.1728   13.2194   -6.4638 H   0  0  0  0  0  0  0  0  0  0  0  0
    2.3886   13.4271   -6.4638 H   0  0  0  0  0  0  0  0  0  0  0  0
    2.8194   11.6282    0.7834 H   0  0  0  0  0  0  0  0  0  0  0  0
    4.0568   11.2614   -0.4660 H   0  0  0  0  0  0  0  0  0  0  0  0
    3.2249   12.8535   -0.4660 H   0  0  0  0  0  0  0  0  0  0  0  0
    2.2816    9.0530   -0.9623 H   0  0  0  0  0  0  0  0  0  0  0  0
    1.6122    9.9584    0.5095 H   0  0  0  0  0  0  0  0  0  0  0  0
    0.0865    9.0236   -1.9374 H   0  0  0  0  0  0  0  0  0  0  0  0
   -0.0653    8.4565   -0.2278 H   0  0  0  0  0  0  0  0  0  0  0  0
   -0.9894    9.8363    1.5150 H   0  0  0  0  0  0  0  0  0  0  0  0
    0.1799   11.1566    1.1741 H   0  0  0  0  0  0  0  0  0  0  0  0
   -1.5839   11.4968    1.1741 H   0  0  0  0  0  0  0  0  0  0  0  0
  1  2  1  0
  2  3  1  0
  3  4  1  0
  4  5  1  0
  5  6  1  0
  6  7  1  0
  7  8  1  0
  7  9  1  0
  2 10  1  0
 10 11  1  0
 11 12  1  0
 12 13  1  0
 13 14  1  6
 13 15  1  0
 15 16  1  0
 16 17  1  0
 17 18  2  0
 18 19  1  0
 19 20  1  0
 20 21  1  0
 21 22  1  0
 22 23  1  0
 22 24  1  0
 24 25  1  0
 24 26  1  0
 19 27  1  0
 27 28  1  1
 27 29  1  0
 29 30  1  0
 30 31  1  0
 31 32  1  1
  7  5  1  0
 31 10  1  0
 31 13  1  0
 27 15  1  0
 24 18  1  0
  1 33  1  0
  1 34  1  0
  1 35  1  0
  2 36  1  1
  3 37  1  0
  3 38  1  0
  4 39  1  0
  4 40  1  0
  5 41  1  1
  8 42  1  0
  8 43  1  0
  8 44  1  0
  9 45  1  0
  9 46  1  0
  9 47  1  0
 10 48  1  6
 11 49  1  0
 11 50  1  0
 12 51  1  0
 12 52  1  0
 14 53  1  0
 14 54  1  0
 14 55  1  0
 15 56  1  1
 16 57  1  0
 16 58  1  0
 17 59  1  0
 19 60  1  6
 20 61  1  0
 20 62  1  0
 21 63  1  0
 21 64  1  0
 22 65  1  6
 23 66  1  0
 25 67  1  0
 25 68  1  0
 25 69  1  0
 26 70  1  0
 26 71  1  0
 26 72  1  0
 28 73  1  0
 28 74  1  0
 28 75  1  0
 29 76  1  0
 29 77  1  0
 30 78  1  0
 30 79  1  0
 32 80  1  0
 32 81  1  0
 32 82  1  0
M  END
>  <meeko>  (18) 
{"is_sidechain": [false], "intermolecular_energy": 2.731, "internal_energy": -0.839}

$$$$
EPH_relaxed_0001_pdb2pqr_Repair_88_r2_0001_out
     RDKit          3D

 82 86  0  0  0  0  0  0  0  0999 V2000
   -0.2710   17.2360   -3.3670 C   0  0  0  0  0  0  0  0  0  0  0  0
    0.0680   17.1000   -1.8800 C   0  0  2  0  0  0  0  0  0  0  0  0
    0.5880   18.4220   -1.2800 C   0  0  0  0  0  0  0  0  0  0  0  0
    0.5420   18.4640    0.2500 C   0  0  0  0  0  0  0  0  0  0  0  0
    1.4550   19.5150    0.8040 C   0  0  2  0  0  0  0  0  0  0  0  0
    2.4270   20.0130   -0.1250 O   0  0  0  0  0  0  0  0  0  0  0  0
    2.9430   19.3050    1.0140 C   0  0  0  0  0  0  0  0  0  0  0  0
    3.6030   18.0050    0.6740 C   0  0  0  0  0  0  0  0  0  0  0  0
    3.6580   20.1800    1.9950 C   0  0  0  0  0  0  0  0  0  0  0  0
    1.0990   15.9960   -1.6800 C   0  0  1  0  0  0  0  0  0  0  0  0
    1.2070   15.5390   -0.2010 C   0  0  0  0  0  0  0  0  0  0  0  0
    1.4990   14.0160   -0.2240 C   0  0  0  0  0  0  0  0  0  0  0  0
    1.8780   13.7140   -1.6920 C   0  0  1  0  0  0  0  0  0  0  0  0
    3.3770   14.1320   -1.8140 C   0  0  0  0  0  0  0  0  0  0  0  0
    1.6470   12.2460   -2.1770 C   0  0  2  0  0  0  0  0  0  0  0  0
    2.4730   11.1770   -1.4410 C   0  0  0  0  0  0  0  0  0  0  0  0
    3.8030   10.8700   -2.0470 C   0  0  0  0  0  0  0  0  0  0  0  0
    4.1950   11.2150   -3.2870 C   0  0  0  0  0  0  0  0  0  0  0  0
    3.2270   11.9030   -4.2570 C   0  0  1  0  0  0  0  0  0  0  0  0
    3.3130   11.2190   -5.6470 C   0  0  0  0  0  0  0  0  0  0  0  0
    4.7390   11.1660   -6.1860 C   0  0  0  0  0  0  0  0  0  0  0  0
    5.6600   10.4240   -5.2210 C   0  0  2  0  0  0  0  0  0  0  0  0
    5.2680    9.0490   -5.1760 O   0  0  0  0  0  0  0  0  0  0  0  0
    5.6490   11.0180   -3.7840 C   0  0  0  0  0  0  0  0  0  0  0  0
    6.3530   12.3980   -3.7860 C   0  0  0  0  0  0  0  0  0  0  0  0
    6.5070   10.0940   -2.8790 C   0  0  0  0  0  0  0  0  0  0  0  0
    1.7300   12.0610   -3.7470 C   0  0  1  0  0  0  0  0  0  0  0  0
    0.9130   10.7770   -4.0880 C   0  0  0  0  0  0  0  0  0  0  0  0
    1.0430   13.2440   -4.5260 C   0  0  0  0  0  0  0  0  0  0  0  0
    1.2080   14.6560   -3.9310 C   0  0  0  0  0  0  0  0  0  0  0  0
    0.8710   14.6640   -2.4370 C   0  0  2  0  0  0  0  0  0  0  0  0
   -0.6380   14.2690   -2.2850 C   0  0  0  0  0  0  0  0  0  0  0  0
   -1.2869   17.6436   -3.4757 H   0  0  0  0  0  0  0  0  0  0  0  0
    0.4496   17.9146   -3.8468 H   0  0  0  0  0  0  0  0  0  0  0  0
   -0.2192   16.2475   -3.8468 H   0  0  0  0  0  0  0  0  0  0  0  0
   -0.8611   16.8402   -1.3515 H   0  0  0  0  0  0  0  0  0  0  0  0
    1.6311   18.5620   -1.6000 H   0  0  0  0  0  0  0  0  0  0  0  0
   -0.0736   19.2221   -1.6435 H   0  0  0  0  0  0  0  0  0  0  0  0
   -0.4877   18.6820    0.5697 H   0  0  0  0  0  0  0  0  0  0  0  0
    0.8745   17.4866    0.6297 H   0  0  0  0  0  0  0  0  0  0  0  0
    0.6617   19.8874    1.4688 H   0  0  0  0  0  0  0  0  0  0  0  0
    3.8713   17.4766    1.6007 H   0  0  0  0  0  0  0  0  0  0  0  0
    2.9105   17.3850    0.0857 H   0  0  0  0  0  0  0  0  0  0  0  0
    4.5122   18.1982    0.0857 H   0  0  0  0  0  0  0  0  0  0  0  0
    3.4030   19.8679    3.0185 H   0  0  0  0  0  0  0  0  0  0  0  0
    4.7438   20.0893    1.8438 H   0  0  0  0  0  0  0  0  0  0  0  0
    3.3528   21.2259    1.8438 H   0  0  0  0  0  0  0  0  0  0  0  0
    1.9912   16.5046   -2.0741 H   0  0  0  0  0  0  0  0  0  0  0  0
    2.0258   16.0742    0.3021 H   0  0  0  0  0  0  0  0  0  0  0  0
    0.2787   15.7551    0.3482 H   0  0  0  0  0  0  0  0  0  0  0  0
    2.3322   13.7701    0.4507 H   0  0  0  0  0  0  0  0  0  0  0  0
    0.6384   13.4210    0.1156 H   0  0  0  0  0  0  0  0  0  0  0  0
    3.8072   14.2520   -0.8087 H   0  0  0  0  0  0  0  0  0  0  0  0
    3.9313   13.3542   -2.3596 H   0  0  0  0  0  0  0  0  0  0  0  0
    3.4488   15.0844   -2.3596 H   0  0  0  0  0  0  0  0  0  0  0  0
    0.6009   12.0653   -1.8888 H   0  0  0  0  0  0  0  0  0  0  0  0
    2.6409   11.5263   -0.4115 H   0  0  0  0  0  0  0  0  0  0  0  0
    1.8892   10.2466   -1.5006 H   0  0  0  0  0  0  0  0  0  0  0  0
    4.5228   10.3151   -1.4274 H   0  0  0  0  0  0  0  0  0  0  0  0
    3.5643   12.9473   -4.3331 H   0  0  0  0  0  0  0  0  0  0  0  0
    2.9312   10.1912   -5.5584 H   0  0  0  0  0  0  0  0  0  0  0  0
    2.7125   11.8150   -6.3500 H   0  0  0  0  0  0  0  0  0  0  0  0
    4.7384   10.6455   -7.1550 H   0  0  0  0  0  0  0  0  0  0  0  0
    5.1087   12.1955   -6.3025 H   0  0  0  0  0  0  0  0  0  0  0  0
    6.6881   10.5322   -5.5969 H   0  0  0  0  0  0  0  0  0  0  0  0
    5.4070    8.7330   -4.2670 H   0  0  0  0  0  0  0  0  0  0  0  0
    6.5202   12.7258   -2.7494 H   0  0  0  0  0  0  0  0  0  0  0  0
    7.3194   12.3159   -4.3050 H   0  0  0  0  0  0  0  0  0  0  0  0
    5.7193   13.1322   -4.3050 H   0  0  0  0  0  0  0  0  0  0  0  0
    6.2982   10.3188   -1.8227 H   0  0  0  0  0  0  0  0  0  0  0  0
    6.2573    9.0430   -3.0865 H   0  0  0  0  0  0  0  0  0  0  0  0
    7.5736   10.2653   -3.0865 H   0  0  0  0  0  0  0  0  0  0  0  0
    0.5992   10.2838   -3.1562 H   0  0  0  0  0  0  0  0  0  0  0  0
    0.0240   11.0529   -4.6742 H   0  0  0  0  0  0  0  0  0  0  0  0
    1.5395   10.0886   -4.6742 H   0  0  0  0  0  0  0  0  0  0  0  0
    1.4618   13.2604   -5.5430 H   0  0  0  0  0  0  0  0  0  0  0  0
   -0.0356   13.0343   -4.4751 H   0  0  0  0  0  0  0  0  0  0  0  0
    2.2490   14.9844   -4.0668 H   0  0  0  0  0  0  0  0  0  0  0  0
    0.5184   15.3381   -4.4498 H   0  0  0  0  0  0  0  0  0  0  0  0
   -0.8937   14.2021   -1.2172 H   0  0  0  0  0  0  0  0  0  0  0  0
   -1.2671   15.0327   -2.7655 H   0  0  0  0  0  0  0  0  0  0  0  0
   -0.8123   13.2950   -2.7655 H   0  0  0  0  0  0  0  0  0  0  0  0
  1  2  1  0
  2  3  1  0
  3  4  1  0
  4  5  1  0
  5  6  1  0
  6  7  1  0
  7  8  1  0
  7  9  1  0
  2 10  1  0
 10 11  1  0
 11 12  1  0
 12 13  1  0
 13 14  1  1
 13 15  1  0
 15 16  1  0
 16 17  1  0
 17 18  2  0
 18 19  1  0
 19 20  1  0
 20 21  1  0
 21 22  1  0
 22 23  1  0
 22 24  1  0
 24 25  1  0
 24 26  1  0
 19 27  1  0
 27 28  1  1
 27 29  1  0
 29 30  1  0
 30 31  1  0
 31 32  1  6
  7  5  1  0
 31 10  1  0
 31 13  1  0
 27 15  1  0
 24 18  1  0
  1 33  1  0
  1 34  1  0
  1 35  1  0
  2 36  1  1
  3 37  1  0
  3 38  1  0
  4 39  1  0
  4 40  1  0
  5 41  1  1
  8 42  1  0
  8 43  1  0
  8 44  1  0
  9 45  1  0
  9 46  1  0
  9 47  1  0
 10 48  1  6
 11 49  1  0
 11 50  1  0
 12 51  1  0
 12 52  1  0
 14 53  1  0
 14 54  1  0
 14 55  1  0
 15 56  1  1
 16 57  1  0
 16 58  1  0
 17 59  1  0
 19 60  1  6
 20 61  1  0
 20 62  1  0
 21 63  1  0
 21 64  1  0
 22 65  1  6
 23 66  1  0
 25 67  1  0
 25 68  1  0
 25 69  1  0
 26 70  1  0
 26 71  1  0
 26 72  1  0
 28 73  1  0
 28 74  1  0
 28 75  1  0
 29 76  1  0
 29 77  1  0
 30 78  1  0
 30 79  1  0
 32 80  1  0
 32 81  1  0
 32 82  1  0
M  END
>  <meeko>  (19) 
{"is_sidechain": [false], "intermolecular_energy": 2.731, "internal_energy": -0.839}

$$$$
EPH_relaxed_0001_pdb2pqr_Repair_88_r2_0001_out
     RDKit          3D

 82 86  0  0  0  0  0  0  0  0999 V2000
    2.2520   17.9980   -2.7500 C   0  0  0  0  0  0  0  0  0  0  0  0
    0.9090   17.6560   -2.0980 C   0  0  2  0  0  0  0  0  0  0  0  0
    0.9630   17.7750   -0.5620 C   0  0  0  0  0  0  0  0  0  0  0  0
    2.3640   18.0600   -0.0150 C   0  0  0  0  0  0  0  0  0  0  0  0
    2.3510   19.1710    0.9920 C   0  0  2  0  0  0  0  0  0  0  0  0
    3.3310   20.1920    0.7690 O   0  0  0  0  0  0  0  0  0  0  0  0
    3.4800   19.4230    1.9730 C   0  0  0  0  0  0  0  0  0  0  0  0
    4.7020   18.5590    1.9960 C   0  0  0  0  0  0  0  0  0  0  0  0
    3.1840   20.1950    3.2210 C   0  0  0  0  0  0  0  0  0  0  0  0
    0.4820   16.2480   -2.4970 C   0  0  1  0  0  0  0  0  0  0  0  0
    0.5380   16.0180   -4.0300 C   0  0  0  0  0  0  0  0  0  0  0  0
    0.9670   14.5440   -4.2470 C   0  0  0  0  0  0  0  0  0  0  0  0
    0.8210   13.8870   -2.8540 C   0  0  1  0  0  0  0  0  0  0  0  0
   -0.6990   13.5580   -2.7230 C   0  0  0  0  0  0  0  0  0  0  0  0
    1.7100   12.6290   -2.5870 C   0  0  2  0  0  0  0  0  0  0  0  0
    1.4290   11.4260   -3.5040 C   0  0  0  0  0  0  0  0  0  0  0  0
    0.4060   10.4630   -2.9980 C   0  0  0  0  0  0  0  0  0  0  0  0
   -0.0530   10.4030   -1.7340 C   0  0  0  0  0  0  0  0  0  0  0  0
    0.5350   11.3010   -0.6380 C   0  0  1  0  0  0  0  0  0  0  0  0
    0.8200   10.4530    0.6290 C   0  0  0  0  0  0  0  0  0  0  0  0
   -0.4070    9.6810    1.1040 C   0  0  0  0  0  0  0  0  0  0  0  0
   -0.9280    8.7560    0.0070 C   0  0  2  0  0  0  0  0  0  0  0  0
    0.0420    7.7310   -0.2300 O   0  0  0  0  0  0  0  0  0  0  0  0
   -1.2410    9.4980   -1.3220 C   0  0  0  0  0  0  0  0  0  0  0  0
   -2.4920   10.3920   -1.1380 C   0  0  0  0  0  0  0  0  0  0  0  0
   -1.6220    8.4330   -2.3850 C   0  0  0  0  0  0  0  0  0  0  0  0
    1.7780   12.1940   -1.0670 C   0  0  1  0  0  0  0  0  0  0  0  0
    3.1000   11.3840   -0.8950 C   0  0  0  0  0  0  0  0  0  0  0  0
    1.8840   13.4290   -0.0960 C   0  0  0  0  0  0  0  0  0  0  0  0
    1.0760   14.6840   -0.4770 C   0  0  0  0  0  0  0  0  0  0  0  0
    1.3170   15.0670   -1.9410 C   0  0  2  0  0  0  0  0  0  0  0  0
    2.8340   15.4260   -2.0980 C   0  0  0  0  0  0  0  0  0  0  0  0
    3.0014   18.1888   -1.9677 H   0  0  0  0  0  0  0  0  0  0  0  0
    2.5812   17.1550   -3.3753 H   0  0  0  0  0  0  0  0  0  0  0  0
    2.1380   18.8958   -3.3753 H   0  0  0  0  0  0  0  0  0  0  0  0
    0.1694   18.3855   -2.4597 H   0  0  0  0  0  0  0  0  0  0  0  0
    0.2967   18.5941   -0.2537 H   0  0  0  0  0  0  0  0  0  0  0  0
    0.6504   16.8027   -0.1534 H   0  0  0  0  0  0  0  0  0  0  0  0
    2.7516   17.1490    0.4643 H   0  0  0  0  0  0  0  0  0  0  0  0
    3.0043   18.3664   -0.8553 H   0  0  0  0  0  0  0  0  0  0  0  0
    1.2645   19.0667    1.1284 H   0  0  0  0  0  0  0  0  0  0  0  0
    4.9883   18.3565    3.0386 H   0  0  0  0  0  0  0  0  0  0  0  0
    4.4894   17.6094    1.4831 H   0  0  0  0  0  0  0  0  0  0  0  0
    5.5264   19.0761    1.4831 H   0  0  0  0  0  0  0  0  0  0  0  0
    3.4210   19.5768    4.0994 H   0  0  0  0  0  0  0  0  0  0  0  0
    3.7954   21.1093    3.2403 H   0  0  0  0  0  0  0  0  0  0  0  0
    2.1181   20.4662    3.2403 H   0  0  0  0  0  0  0  0  0  0  0  0
   -0.5284   16.2324   -2.0624 H   0  0  0  0  0  0  0  0  0  0  0  0
   -0.4523   16.1936   -4.4756 H   0  0  0  0  0  0  0  0  0  0  0  0
    1.2479   16.7098   -4.5070 H   0  0  0  0  0  0  0  0  0  0  0  0
    0.3101   14.0520   -4.9794 H   0  0  0  0  0  0  0  0  0  0  0  0
    1.9900   14.4608   -4.6427 H   0  0  0  0  0  0  0  0  0  0  0  0
   -0.9710   13.4991   -1.6588 H   0  0  0  0  0  0  0  0  0  0  0  0
   -1.2886   14.3493   -3.2089 H   0  0  0  0  0  0  0  0  0  0  0  0
   -0.9086   12.5937   -3.2089 H   0  0  0  0  0  0  0  0  0  0  0  0
    2.7135   12.9862   -2.8614 H   0  0  0  0  0  0  0  0  0  0  0  0
    1.0821   11.8118   -4.4740 H   0  0  0  0  0  0  0  0  0  0  0  0
    2.3723   10.8634   -3.5652 H   0  0  0  0  0  0  0  0  0  0  0  0
   -0.0072    9.7421   -3.7188 H   0  0  0  0  0  0  0  0  0  0  0  0
   -0.2349   12.0548   -0.4167 H   0  0  0  0  0  0  0  0  0  0  0  0
    1.6215    9.7352    0.4000 H   0  0  0  0  0  0  0  0  0  0  0  0
    1.1127   11.1432    1.4340 H   0  0  0  0  0  0  0  0  0  0  0  0
   -0.1353    9.0789    1.9836 H   0  0  0  0  0  0  0  0  0  0  0  0
   -1.1976   10.4016    1.3605 H   0  0  0  0  0  0  0  0  0  0  0  0
   -1.8789    8.3291    0.3585 H   0  0  0  0  0  0  0  0  0  0  0  0
    0.4420    7.5010    0.6250 H   0  0  0  0  0  0  0  0  0  0  0  0
   -2.6879   10.5320   -0.0647 H   0  0  0  0  0  0  0  0  0  0  0  0
   -2.3161   11.3702   -1.6093 H   0  0  0  0  0  0  0  0  0  0  0  0
   -3.3605    9.9088   -1.6093 H   0  0  0  0  0  0  0  0  0  0  0  0
   -1.9512    7.5127   -1.8804 H   0  0  0  0  0  0  0  0  0  0  0  0
   -2.4380    8.8183   -3.0140 H   0  0  0  0  0  0  0  0  0  0  0  0
   -0.7467    8.2133   -3.0140 H   0  0  0  0  0  0  0  0  0  0  0  0
    3.3132   11.2534    0.1762 H   0  0  0  0  0  0  0  0  0  0  0  0
    2.9903   10.3979   -1.3700 H   0  0  0  0  0  0  0  0  0  0  0  0
    3.9287   11.9296   -1.3700 H   0  0  0  0  0  0  0  0  0  0  0  0
    1.5419   13.1018    0.8969 H   0  0  0  0  0  0  0  0  0  0  0  0
    2.9379   13.7408   -0.1412 H   0  0  0  0  0  0  0  0  0  0  0  0
    0.0050   14.4811   -0.3296 H   0  0  0  0  0  0  0  0  0  0  0  0
    1.4010   15.5182    0.1622 H   0  0  0  0  0  0  0  0  0  0  0  0
    3.2901   15.5339   -1.1029 H   0  0  0  0  0  0  0  0  0  0  0  0
    3.3453   14.6240   -2.6507 H   0  0  0  0  0  0  0  0  0  0  0  0
    2.9316   16.3721   -2.6507 H   0  0  0  0  0  0  0  0  0  0  0  0
  1  2  1  0
  2  3  1  0
  3  4  1  0
  4  5  1  0
  5  6  1  0
  6  7  1  0
  7  8  1  0
  7  9  1  0
  2 10  1  0
 10 11  1  0
 11 12  1  0
 12 13  1  0
 13 14  1  1
 13 15  1  0
 15 16  1  0
 16 17  1  0
 17 18  2  0
 18 19  1  0
 19 20  1  0
 20 21  1  0
 21 22  1  0
 22 23  1  0
 22 24  1  0
 24 25  1  0
 24 26  1  0
 19 27  1  0
 27 28  1  6
 27 29  1  0
 29 30  1  0
 30 31  1  0
 31 32  1  1
  7  5  1  0
 31 10  1  0
 31 13  1  0
 27 15  1  0
 24 18  1  0
  1 33  1  0
  1 34  1  0
  1 35  1  0
  2 36  1  6
  3 37  1  0
  3 38  1  0
  4 39  1  0
  4 40  1  0
  5 41  1  1
  8 42  1  0
  8 43  1  0
  8 44  1  0
  9 45  1  0
  9 46  1  0
  9 47  1  0
 10 48  1  1
 11 49  1  0
 11 50  1  0
 12 51  1  0
 12 52  1  0
 14 53  1  0
 14 54  1  0
 14 55  1  0
 15 56  1  6
 16 57  1  0
 16 58  1  0
 17 59  1  0
 19 60  1  1
 20 61  1  0
 20 62  1  0
 21 63  1  0
 21 64  1  0
 22 65  1  1
 23 66  1  0
 25 67  1  0
 25 68  1  0
 25 69  1  0
 26 70  1  0
 26 71  1  0
 26 72  1  0
 28 73  1  0
 28 74  1  0
 28 75  1  0
 29 76  1  0
 29 77  1  0
 30 78  1  0
 30 79  1  0
 32 80  1  0
 32 81  1  0
 32 82  1  0
M  END
>  <meeko>  (20) 
{"is_sidechain": [false], "intermolecular_energy": 2.731, "internal_energy": -0.839}

$$$$
