EPH_relaxed_0001_pdb2pqr_Repair_170_r2_0001_out
     RDKit          3D

 82 86  0  0  0  0  0  0  0  0999 V2000
   -3.6310    7.2150   -3.2850 C   0  0  0  0  0  0  0  0  0  0  0  0
   -3.6060    7.3960   -1.7650 C   0  0  2  0  0  0  0  0  0  0  0  0
   -5.0080    7.2530   -1.1400 C   0  0  0  0  0  0  0  0  0  0  0  0
   -6.1230    7.0480   -2.1700 C   0  0  0  0  0  0  0  0  0  0  0  0
   -7.4730    7.3510   -1.5930 C   0  0  2  0  0  0  0  0  0  0  0  0
   -8.1750    6.2110   -1.0810 O   0  0  0  0  0  0  0  0  0  0  0  0
   -8.7730    6.8690   -2.2090 C   0  0  0  0  0  0  0  0  0  0  0  0
   -8.7860    6.0440   -3.4580 C   0  0  0  0  0  0  0  0  0  0  0  0
  -10.0360    7.6020   -1.8800 C   0  0  0  0  0  0  0  0  0  0  0  0
   -3.0160    8.7570   -1.4140 C   0  0  1  0  0  0  0  0  0  0  0  0
   -3.5750    9.3250   -0.0820 C   0  0  0  0  0  0  0  0  0  0  0  0
   -2.4160   10.1010    0.5950 C   0  0  0  0  0  0  0  0  0  0  0  0
   -1.3410   10.2370   -0.5080 C   0  0  1  0  0  0  0  0  0  0  0  0
   -1.8090   11.4450   -1.3790 C   0  0  0  0  0  0  0  0  0  0  0  0
    0.1330   10.4160   -0.0180 C   0  0  2  0  0  0  0  0  0  0  0  0
    0.3980   11.6910    0.8010 C   0  0  0  0  0  0  0  0  0  0  0  0
    0.8150   12.8840    0.0060 C   0  0  0  0  0  0  0  0  0  0  0  0
    1.2450   12.8630   -1.2690 C   0  0  0  0  0  0  0  0  0  0  0  0
    1.4390   11.5360   -2.0130 C   0  0  1  0  0  0  0  0  0  0  0  0
    2.8070   11.5480   -2.7450 C   0  0  0  0  0  0  0  0  0  0  0  0
    2.9690   12.7590   -3.6600 C   0  0  0  0  0  0  0  0  0  0  0  0
    2.8270   14.0590   -2.8730 C   0  0  2  0  0  0  0  0  0  0  0  0
    3.9290   14.1730   -1.9670 O   0  0  0  0  0  0  0  0  0  0  0  0
    1.4910   14.1560   -2.0850 C   0  0  0  0  0  0  0  0  0  0  0  0
    0.3140   14.3360   -3.0760 C   0  0  0  0  0  0  0  0  0  0  0  0
    1.5360   15.4480   -1.2250 C   0  0  0  0  0  0  0  0  0  0  0  0
    1.2210   10.2190   -1.1500 C   0  0  1  0  0  0  0  0  0  0  0  0
    2.5480    9.8290   -0.4290 C   0  0  0  0  0  0  0  0  0  0  0  0
    0.8720    9.0240   -2.1140 C   0  0  0  0  0  0  0  0  0  0  0  0
   -0.6150    8.8270   -2.4660 C   0  0  0  0  0  0  0  0  0  0  0  0
   -1.4820    8.8340   -1.2040 C   0  0  2  0  0  0  0  0  0  0  0  0
   -1.0490    7.6160   -0.3190 C   0  0  0  0  0  0  0  0  0  0  0  0
   -3.7779    6.1517   -3.5253 H   0  0  0  0  0  0  0  0  0  0  0  0
   -4.4562    7.8045   -3.7109 H   0  0  0  0  0  0  0  0  0  0  0  0
   -2.6768    7.5588   -3.7109 H   0  0  0  0  0  0  0  0  0  0  0  0
   -2.9753    6.5977   -1.3468 H   0  0  0  0  0  0  0  0  0  0  0  0
   -4.9990    6.3876   -0.4610 H   0  0  0  0  0  0  0  0  0  0  0  0
   -5.2240    8.1955   -0.6156 H   0  0  0  0  0  0  0  0  0  0  0  0
   -5.9438    7.7142   -3.0268 H   0  0  0  0  0  0  0  0  0  0  0  0
   -6.1122    5.9932   -2.4819 H   0  0  0  0  0  0  0  0  0  0  0  0
   -7.1357    8.3453   -1.2651 H   0  0  0  0  0  0  0  0  0  0  0  0
   -8.8028    4.9767   -3.1923 H   0  0  0  0  0  0  0  0  0  0  0  0
   -9.6804    6.2887   -4.0498 H   0  0  0  0  0  0  0  0  0  0  0  0
   -7.8843    6.2604   -4.0498 H   0  0  0  0  0  0  0  0  0  0  0  0
  -10.1482    7.6671   -0.7877 H   0  0  0  0  0  0  0  0  0  0  0  0
   -9.9931    8.6156   -2.3053 H   0  0  0  0  0  0  0  0  0  0  0  0
  -10.8948    7.0620   -2.3053 H   0  0  0  0  0  0  0  0  0  0  0  0
   -3.3019    9.3201   -2.3146 H   0  0  0  0  0  0  0  0  0  0  0  0
   -4.4178   10.0026   -0.2833 H   0  0  0  0  0  0  0  0  0  0  0  0
   -3.9424    8.5175    0.5683 H   0  0  0  0  0  0  0  0  0  0  0  0
   -2.7559   11.0920    0.9303 H   0  0  0  0  0  0  0  0  0  0  0  0
   -2.0342    9.5849    1.4882 H   0  0  0  0  0  0  0  0  0  0  0  0
   -2.1280   12.2683   -0.7229 H   0  0  0  0  0  0  0  0  0  0  0  0
   -0.9769   11.7834   -2.0139 H   0  0  0  0  0  0  0  0  0  0  0  0
   -2.6519   11.1345   -2.0139 H   0  0  0  0  0  0  0  0  0  0  0  0
    0.2506    9.5792    0.6862 H   0  0  0  0  0  0  0  0  0  0  0  0
   -0.5263   11.9474    1.3395 H   0  0  0  0  0  0  0  0  0  0  0  0
    1.2435   11.4565    1.4644 H   0  0  0  0  0  0  0  0  0  0  0  0
    0.7666   13.8632    0.5048 H   0  0  0  0  0  0  0  0  0  0  0  0
    0.6225   11.4773   -2.7478 H   0  0  0  0  0  0  0  0  0  0  0  0
    3.6095   11.5641   -1.9929 H   0  0  0  0  0  0  0  0  0  0  0  0
    2.8588   10.6457   -3.3720 H   0  0  0  0  0  0  0  0  0  0  0  0
    3.9647   12.7273   -4.1265 H   0  0  0  0  0  0  0  0  0  0  0  0
    2.1832   12.7261   -4.4291 H   0  0  0  0  0  0  0  0  0  0  0  0
    2.8231   14.8848   -3.5997 H   0  0  0  0  0  0  0  0  0  0  0  0
    3.7270   13.6280   -1.1880 H   0  0  0  0  0  0  0  0  0  0  0  0
   -0.6204   14.4789   -2.5134 H   0  0  0  0  0  0  0  0  0  0  0  0
    0.4991   15.2163   -3.7091 H   0  0  0  0  0  0  0  0  0  0  0  0
    0.2275   13.4406   -3.7091 H   0  0  0  0  0  0  0  0  0  0  0  0
    1.5266   15.1790   -0.1584 H   0  0  0  0  0  0  0  0  0  0  0  0
    2.4542   16.0089   -1.4537 H   0  0  0  0  0  0  0  0  0  0  0  0
    0.6590   16.0714   -1.4537 H   0  0  0  0  0  0  0  0  0  0  0  0
    2.4000    9.8725    0.6601 H   0  0  0  0  0  0  0  0  0  0  0  0
    2.8367    8.8080   -0.7193 H   0  0  0  0  0  0  0  0  0  0  0  0
    3.3432   10.5314   -0.7193 H   0  0  0  0  0  0  0  0  0  0  0  0
    1.4182    9.1852   -3.0551 H   0  0  0  0  0  0  0  0  0  0  0  0
    1.1602    8.1164   -1.5634 H   0  0  0  0  0  0  0  0  0  0  0  0
   -0.9388    9.6423   -3.1297 H   0  0  0  0  0  0  0  0  0  0  0  0
   -0.7313    7.8543   -2.9663 H   0  0  0  0  0  0  0  0  0  0  0  0
   -1.1439    7.8830    0.7439 H   0  0  0  0  0  0  0  0  0  0  0  0
   -1.6958    6.7541   -0.5397 H   0  0  0  0  0  0  0  0  0  0  0  0
   -0.0033    7.3558   -0.5397 H   0  0  0  0  0  0  0  0  0  0  0  0
  1  2  1  0
  2  3  1  0
  3  4  1  0
  4  5  1  0
  5  6  1  0
  6  7  1  0
  7  8  1  0
  7  9  1  0
  2 10  1  0
 10 11  1  0
 11 12  1  0
 12 13  1  0
 13 14  1  6
 13 15  1  0
 15 16  1  0
 16 17  1  0
 17 18  2  0
 18 19  1  0
 19 20  1  0
 20 21  1  0
 21 22  1  0
 22 23  1  0
 22 24  1  0
 24 25  1  0
 24 26  1  0
 19 27  1  0
 27 28  1  1
 27 29  1  0
 29 30  1  0
 30 31  1  0
 31 32  1  1
  7  5  1  0
 31 10  1  0
 31 13  1  0
 27 15  1  0
 24 18  1  0
  1 33  1  0
  1 34  1  0
  1 35  1  0
  2 36  1  1
  3 37  1  0
  3 38  1  0
  4 39  1  0
  4 40  1  0
  5 41  1  1
  8 42  1  0
  8 43  1  0
  8 44  1  0
  9 45  1  0
  9 46  1  0
  9 47  1  0
 10 48  1  6
 11 49  1  0
 11 50  1  0
 12 51  1  0
 12 52  1  0
 14 53  1  0
 14 54  1  0
 14 55  1  0
 15 56  1  1
 16 57  1  0
 16 58  1  0
 17 59  1  0
 19 60  1  6
 20 61  1  0
 20 62  1  0
 21 63  1  0
 21 64  1  0
 22 65  1  6
 23 66  1  0
 25 67  1  0
 25 68  1  0
 25 69  1  0
 26 70  1  0
 26 71  1  0
 26 72  1  0
 28 73  1  0
 28 74  1  0
 28 75  1  0
 29 76  1  0
 29 77  1  0
 30 78  1  0
 30 79  1  0
 32 80  1  0
 32 81  1  0
 32 82  1  0
M  END
>  <meeko>  (1) 
{"is_sidechain": [false], "intermolecular_energy": 2.731, "internal_energy": -0.839}

$$$$
EPH_relaxed_0001_pdb2pqr_Repair_170_r2_0001_out
     RDKit          3D

 82 86  0  0  0  0  0  0  0  0999 V2000
   -5.1160    5.9160   -1.7550 C   0  0  0  0  0  0  0  0  0  0  0  0
   -5.4380    7.4120   -1.8000 C   0  0  2  0  0  0  0  0  0  0  0  0
   -5.2250    8.0940   -0.4330 C   0  0  0  0  0  0  0  0  0  0  0  0
   -4.1780    9.2110   -0.4590 C   0  0  0  0  0  0  0  0  0  0  0  0
   -2.8180    8.6880   -0.8090 C   0  0  2  0  0  0  0  0  0  0  0  0
   -1.7890    9.0170    0.1340 O   0  0  0  0  0  0  0  0  0  0  0  0
   -1.6480    9.5800   -1.1810 C   0  0  0  0  0  0  0  0  0  0  0  0
   -1.7860   11.0700   -1.2220 C   0  0  0  0  0  0  0  0  0  0  0  0
   -0.5220    8.9910   -1.9710 C   0  0  0  0  0  0  0  0  0  0  0  0
   -6.8740    7.6210   -2.2670 C   0  0  1  0  0  0  0  0  0  0  0  0
   -7.1710    6.9150   -3.6170 C   0  0  0  0  0  0  0  0  0  0  0  0
   -8.6420    6.4270   -3.5510 C   0  0  0  0  0  0  0  0  0  0  0  0
   -9.2380    7.1500   -2.3210 C   0  0  1  0  0  0  0  0  0  0  0  0
   -9.6030    8.5790   -2.8320 C   0  0  0  0  0  0  0  0  0  0  0  0
  -10.4580    6.4530   -1.6350 C   0  0  2  0  0  0  0  0  0  0  0  0
  -11.7090    6.3100   -2.5190 C   0  0  0  0  0  0  0  0  0  0  0  0
  -12.6750    7.4460   -2.4460 C   0  0  0  0  0  0  0  0  0  0  0  0
  -12.6900    8.4000   -1.4970 C   0  0  0  0  0  0  0  0  0  0  0  0
  -11.7270    8.3400   -0.3040 C   0  0  1  0  0  0  0  0  0  0  0  0
  -12.5090    8.6190    1.0060 C   0  0  0  0  0  0  0  0  0  0  0  0
  -13.2910    9.9270    0.9540 C   0  0  0  0  0  0  0  0  0  0  0  0
  -14.2790    9.9260   -0.2100 C   0  0  2  0  0  0  0  0  0  0  0  0
  -15.2870    8.9420    0.0430 O   0  0  0  0  0  0  0  0  0  0  0  0
  -13.6080    9.6450   -1.5830 C   0  0  0  0  0  0  0  0  0  0  0  0
  -12.7410   10.8600   -1.9960 C   0  0  0  0  0  0  0  0  0  0  0  0
  -14.7300    9.5300   -2.6490 C   0  0  0  0  0  0  0  0  0  0  0  0
  -10.8210    7.0380   -0.2100 C   0  0  1  0  0  0  0  0  0  0  0  0
  -11.5860    5.9120    0.5510 C   0  0  0  0  0  0  0  0  0  0  0  0
   -9.5410    7.3630    0.6470 C   0  0  0  0  0  0  0  0  0  0  0  0
   -8.3270    7.9370   -0.1070 C   0  0  0  0  0  0  0  0  0  0  0  0
   -8.0050    7.0970   -1.3470 C   0  0  2  0  0  0  0  0  0  0  0  0
   -7.6130    5.6600   -0.8620 C   0  0  0  0  0  0  0  0  0  0  0  0
   -5.0453    5.5875   -0.7076 H   0  0  0  0  0  0  0  0  0  0  0  0
   -5.9137    5.3538   -2.2625 H   0  0  0  0  0  0  0  0  0  0  0  0
   -4.1576    5.7318   -2.2625 H   0  0  0  0  0  0  0  0  0  0  0  0
   -4.7427    7.8781   -2.5137 H   0  0  0  0  0  0  0  0  0  0  0  0
   -6.1834    8.5238   -0.1062 H   0  0  0  0  0  0  0  0  0  0  0  0
   -4.8543    7.3219    0.2572 H   0  0  0  0  0  0  0  0  0  0  0  0
   -4.4750    9.9607   -1.2072 H   0  0  0  0  0  0  0  0  0  0  0  0
   -4.1262    9.6558    0.5457 H   0  0  0  0  0  0  0  0  0  0  0  0
   -3.2575    7.8059   -1.2976 H   0  0  0  0  0  0  0  0  0  0  0  0
   -1.8224   11.4632   -0.1953 H   0  0  0  0  0  0  0  0  0  0  0  0
   -0.9242   11.5037   -1.7504 H   0  0  0  0  0  0  0  0  0  0  0  0
   -2.7128   11.3380   -1.7504 H   0  0  0  0  0  0  0  0  0  0  0  0
    0.2391    8.5929   -1.2838 H   0  0  0  0  0  0  0  0  0  0  0  0
   -0.9050    8.1777   -2.6050 H   0  0  0  0  0  0  0  0  0  0  0  0
   -0.0724    9.7694   -2.6050 H   0  0  0  0  0  0  0  0  0  0  0  0
   -6.8984    8.7201   -2.3029 H   0  0  0  0  0  0  0  0  0  0  0  0
   -7.0430    7.6214   -4.4504 H   0  0  0  0  0  0  0  0  0  0  0  0
   -6.4822    6.0736   -3.7833 H   0  0  0  0  0  0  0  0  0  0  0  0
   -9.1850    6.7057   -4.4661 H   0  0  0  0  0  0  0  0  0  0  0  0
   -8.7151    5.3326   -3.4675 H   0  0  0  0  0  0  0  0  0  0  0  0
   -9.7728    9.2436   -1.9721 H   0  0  0  0  0  0  0  0  0  0  0  0
   -8.7765    8.9725   -3.4420 H   0  0  0  0  0  0  0  0  0  0  0  0
  -10.5169    8.5279   -3.4420 H   0  0  0  0  0  0  0  0  0  0  0  0
  -10.0866    5.4300   -1.4751 H   0  0  0  0  0  0  0  0  0  0  0  0
  -11.3778    6.2121   -3.5634 H   0  0  0  0  0  0  0  0  0  0  0  0
  -12.2479    5.4278   -2.1431 H   0  0  0  0  0  0  0  0  0  0  0  0
  -13.4392    7.5085   -3.2347 H   0  0  0  0  0  0  0  0  0  0  0  0
  -10.9842    9.1340   -0.4710 H   0  0  0  0  0  0  0  0  0  0  0  0
  -13.2148    7.7930    1.1778 H   0  0  0  0  0  0  0  0  0  0  0  0
  -11.7752    8.7014    1.8213 H   0  0  0  0  0  0  0  0  0  0  0  0
  -13.8447   10.0531    1.8961 H   0  0  0  0  0  0  0  0  0  0  0  0
  -12.5811   10.7551    0.8113 H   0  0  0  0  0  0  0  0  0  0  0  0
  -14.7143   10.9341   -0.2745 H   0  0  0  0  0  0  0  0  0  0  0  0
  -14.8480    8.0760    0.0910 H   0  0  0  0  0  0  0  0  0  0  0  0
  -12.3751   11.3728   -1.0942 H   0  0  0  0  0  0  0  0  0  0  0  0
  -11.8850   10.5134   -2.5935 H   0  0  0  0  0  0  0  0  0  0  0  0
  -13.3471   11.5568   -2.5935 H   0  0  0  0  0  0  0  0  0  0  0  0
  -15.7037    9.4302   -2.1471 H   0  0  0  0  0  0  0  0  0  0  0  0
  -14.7323   10.4326   -3.2777 H   0  0  0  0  0  0  0  0  0  0  0  0
  -14.5492    8.6457   -3.2777 H   0  0  0  0  0  0  0  0  0  0  0  0
  -11.4815    6.0659    1.6352 H   0  0  0  0  0  0  0  0  0  0  0  0
  -12.6510    5.9427    0.2773 H   0  0  0  0  0  0  0  0  0  0  0  0
  -11.1651    4.9332    0.2773 H   0  0  0  0  0  0  0  0  0  0  0  0
   -9.8319    8.0947    1.4151 H   0  0  0  0  0  0  0  0  0  0  0  0
   -9.2033    6.3922    1.0389 H   0  0  0  0  0  0  0  0  0  0  0  0
   -8.5514    8.9677   -0.4188 H   0  0  0  0  0  0  0  0  0  0  0  0
   -7.4561    7.9192    0.5648 H   0  0  0  0  0  0  0  0  0  0  0  0
   -7.6057    5.6334    0.2377 H   0  0  0  0  0  0  0  0  0  0  0  0
   -8.3455    4.9324   -1.2415 H   0  0  0  0  0  0  0  0  0  0  0  0
   -6.6125    5.4051   -1.2415 H   0  0  0  0  0  0  0  0  0  0  0  0
  1  2  1  0
  2  3  1  0
  3  4  1  0
  4  5  1  0
  5  6  1  0
  6  7  1  0
  7  8  1  0
  7  9  1  0
  2 10  1  0
 10 11  1  0
 11 12  1  0
 12 13  1  0
 13 14  1  6
 13 15  1  0
 15 16  1  0
 16 17  1  0
 17 18  2  0
 18 19  1  0
 19 20  1  0
 20 21  1  0
 21 22  1  0
 22 23  1  0
 22 24  1  0
 24 25  1  0
 24 26  1  0
 19 27  1  0
 27 28  1  1
 27 29  1  0
 29 30  1  0
 30 31  1  0
 31 32  1  1
  7  5  1  0
 31 10  1  0
 31 13  1  0
 27 15  1  0
 24 18  1  0
  1 33  1  0
  1 34  1  0
  1 35  1  0
  2 36  1  6
  3 37  1  0
  3 38  1  0
  4 39  1  0
  4 40  1  0
  5 41  1  6
  8 42  1  0
  8 43  1  0
  8 44  1  0
  9 45  1  0
  9 46  1  0
  9 47  1  0
 10 48  1  6
 11 49  1  0
 11 50  1  0
 12 51  1  0
 12 52  1  0
 14 53  1  0
 14 54  1  0
 14 55  1  0
 15 56  1  1
 16 57  1  0
 16 58  1  0
 17 59  1  0
 19 60  1  6
 20 61  1  0
 20 62  1  0
 21 63  1  0
 21 64  1  0
 22 65  1  6
 23 66  1  0
 25 67  1  0
 25 68  1  0
 25 69  1  0
 26 70  1  0
 26 71  1  0
 26 72  1  0
 28 73  1  0
 28 74  1  0
 28 75  1  0
 29 76  1  0
 29 77  1  0
 30 78  1  0
 30 79  1  0
 32 80  1  0
 32 81  1  0
 32 82  1  0
M  END
>  <meeko>  (2) 
{"is_sidechain": [false], "intermolecular_energy": 2.731, "internal_energy": -0.839}

$$$$
EPH_relaxed_0001_pdb2pqr_Repair_170_r2_0001_out
     RDKit          3D

 82 86  0  0  0  0  0  0  0  0999 V2000
    0.4810   17.4830   -0.5720 C   0  0  0  0  0  0  0  0  0  0  0  0
    0.8550   17.1690   -2.0230 C   0  0  2  0  0  0  0  0  0  0  0  0
    0.3500   18.2500   -3.0000 C   0  0  0  0  0  0  0  0  0  0  0  0
   -0.2710   19.4650   -2.3060 C   0  0  0  0  0  0  0  0  0  0  0  0
   -1.4760   19.0870   -1.5000 C   0  0  2  0  0  0  0  0  0  0  0  0
   -2.2820   20.1940   -1.0740 O   0  0  0  0  0  0  0  0  0  0  0  0
   -1.6440   19.4360   -0.0330 C   0  0  0  0  0  0  0  0  0  0  0  0
   -0.5930   20.1940    0.7150 C   0  0  0  0  0  0  0  0  0  0  0  0
   -2.5950   18.6250    0.7910 C   0  0  0  0  0  0  0  0  0  0  0  0
    0.2970   15.8070   -2.4200 C   0  0  1  0  0  0  0  0  0  0  0  0
   -0.0520   15.7210   -3.9300 C   0  0  0  0  0  0  0  0  0  0  0  0
    0.2630   14.2710   -4.3790 C   0  0  0  0  0  0  0  0  0  0  0  0
    0.4620   13.4880   -3.0610 C   0  0  1  0  0  0  0  0  0  0  0  0
   -0.9810   13.1560   -2.5690 C   0  0  0  0  0  0  0  0  0  0  0  0
    1.3520   12.2050   -3.1460 C   0  0  2  0  0  0  0  0  0  0  0  0
    0.8080   11.0940   -4.0610 C   0  0  0  0  0  0  0  0  0  0  0  0
   -0.0780   10.0950   -3.3940 C   0  0  0  0  0  0  0  0  0  0  0  0
   -0.1960    9.9200   -2.0650 C   0  0  0  0  0  0  0  0  0  0  0  0
    0.6810   10.7080   -1.0850 C   0  0  1  0  0  0  0  0  0  0  0  0
    1.2580    9.7440   -0.0150 C   0  0  0  0  0  0  0  0  0  0  0  0
    0.1730    8.9380    0.6920 C   0  0  0  0  0  0  0  0  0  0  0  0
   -0.6400    8.1230   -0.3090 C   0  0  2  0  0  0  0  0  0  0  0  0
    0.2040    7.1190   -0.8800 O   0  0  0  0  0  0  0  0  0  0  0  0
   -1.2640    8.9870   -1.4400 C   0  0  0  0  0  0  0  0  0  0  0  0
   -2.3980    9.8670   -0.8590 C   0  0  0  0  0  0  0  0  0  0  0  0
   -1.9380    8.0270   -2.4580 C   0  0  0  0  0  0  0  0  0  0  0  0
    1.7970   11.6300   -1.7410 C   0  0  1  0  0  0  0  0  0  0  0  0
    3.0940   10.8000   -1.9900 C   0  0  0  0  0  0  0  0  0  0  0  0
    2.1870   12.7680   -0.7250 C   0  0  0  0  0  0  0  0  0  0  0  0
    1.3460   14.0580   -0.7710 C   0  0  0  0  0  0  0  0  0  0  0  0
    1.2120   14.5750   -2.2070 C   0  0  2  0  0  0  0  0  0  0  0  0
    2.6470   14.9380   -2.7210 C   0  0  0  0  0  0  0  0  0  0  0  0
    1.1442   16.9262    0.1063 H   0  0  0  0  0  0  0  0  0  0  0  0
    0.5925   18.5621   -0.3899 H   0  0  0  0  0  0  0  0  0  0  0  0
   -0.5625   17.1864   -0.3899 H   0  0  0  0  0  0  0  0  0  0  0  0
    1.9531   17.1542   -2.0860 H   0  0  0  0  0  0  0  0  0  0  0  0
    1.2003   18.5939   -3.6072 H   0  0  0  0  0  0  0  0  0  0  0  0
   -0.4412   17.7885   -3.6091 H   0  0  0  0  0  0  0  0  0  0  0  0
    0.4779   19.9152   -1.6378 H   0  0  0  0  0  0  0  0  0  0  0  0
   -0.5871   20.1783   -3.0814 H   0  0  0  0  0  0  0  0  0  0  0  0
   -1.5754   18.1389   -2.0488 H   0  0  0  0  0  0  0  0  0  0  0  0
   -0.7560   20.0765    1.7965 H   0  0  0  0  0  0  0  0  0  0  0  0
    0.4002   19.8029    0.4492 H   0  0  0  0  0  0  0  0  0  0  0  0
   -0.6506   21.2599    0.4492 H   0  0  0  0  0  0  0  0  0  0  0  0
   -2.3936   18.7968    1.8587 H   0  0  0  0  0  0  0  0  0  0  0  0
   -3.6279   18.9245    0.5599 H   0  0  0  0  0  0  0  0  0  0  0  0
   -2.4623   17.5578    0.5599 H   0  0  0  0  0  0  0  0  0  0  0  0
   -0.5671   15.7564   -1.7411 H   0  0  0  0  0  0  0  0  0  0  0  0
   -1.1181   15.9428   -4.0858 H   0  0  0  0  0  0  0  0  0  0  0  0
    0.5300   16.4504   -4.5124 H   0  0  0  0  0  0  0  0  0  0  0  0
   -0.5748   13.8528   -4.9562 H   0  0  0  0  0  0  0  0  0  0  0  0
    1.1469   14.2196   -5.0318 H   0  0  0  0  0  0  0  0  0  0  0  0
   -1.0014   13.1513   -1.4692 H   0  0  0  0  0  0  0  0  0  0  0  0
   -1.6808   13.9166   -2.9455 H   0  0  0  0  0  0  0  0  0  0  0  0
   -1.2781   12.1660   -2.9455 H   0  0  0  0  0  0  0  0  0  0  0  0
    2.2609   12.5806   -3.6388 H   0  0  0  0  0  0  0  0  0  0  0  0
    0.2345   11.5703   -4.8698 H   0  0  0  0  0  0  0  0  0  0  0  0
    1.6862   10.5337   -4.4142 H   0  0  0  0  0  0  0  0  0  0  0  0
   -0.6855    9.4475   -4.0433 H   0  0  0  0  0  0  0  0  0  0  0  0
    0.0169   11.4424   -0.6057 H   0  0  0  0  0  0  0  0  0  0  0  0
    1.9518    9.0462   -0.5066 H   0  0  0  0  0  0  0  0  0  0  0  0
    1.7684   10.3548    0.7442 H   0  0  0  0  0  0  0  0  0  0  0  0
    0.6446    8.2549    1.4138 H   0  0  0  0  0  0  0  0  0  0  0  0
   -0.5029    9.6358    1.2080 H   0  0  0  0  0  0  0  0  0  0  0  0
   -1.4798    7.6709    0.2390 H   0  0  0  0  0  0  0  0  0  0  0  0
   -0.3700    6.4490   -1.2880 H   0  0  0  0  0  0  0  0  0  0  0  0
   -2.3591    9.8368    0.2399 H   0  0  0  0  0  0  0  0  0  0  0  0
   -2.2696   10.9042   -1.2021 H   0  0  0  0  0  0  0  0  0  0  0  0
   -3.3708    9.4851   -1.2021 H   0  0  0  0  0  0  0  0  0  0  0  0
   -2.4877    7.2440   -1.9151 H   0  0  0  0  0  0  0  0  0  0  0  0
   -2.6369    8.5946   -3.0900 H   0  0  0  0  0  0  0  0  0  0  0  0
   -1.1668    7.5624   -3.0900 H   0  0  0  0  0  0  0  0  0  0  0  0
    3.5383   10.5157   -1.0247 H   0  0  0  0  0  0  0  0  0  0  0  0
    2.8450    9.8930   -2.5604 H   0  0  0  0  0  0  0  0  0  0  0  0
    3.8133   11.4060   -2.5604 H   0  0  0  0  0  0  0  0  0  0  0  0
    2.1025   12.3516    0.2896 H   0  0  0  0  0  0  0  0  0  0  0  0
    3.2028   13.0760   -1.0136 H   0  0  0  0  0  0  0  0  0  0  0  0
    0.3437   13.8485   -0.3691 H   0  0  0  0  0  0  0  0  0  0  0  0
    1.8503   14.8269   -0.1673 H   0  0  0  0  0  0  0  0  0  0  0  0
    3.3126   15.1064   -1.8616 H   0  0  0  0  0  0  0  0  0  0  0  0
    3.0382   14.1105   -3.3311 H   0  0  0  0  0  0  0  0  0  0  0  0
    2.5976   15.8519   -3.3311 H   0  0  0  0  0  0  0  0  0  0  0  0
  1  2  1  0
  2  3  1  0
  3  4  1  0
  4  5  1  0
  5  6  1  0
  6  7  1  0
  7  8  1  0
  7  9  1  0
  2 10  1  0
 10 11  1  0
 11 12  1  0
 12 13  1  0
 13 14  1  1
 13 15  1  0
 15 16  1  0
 16 17  1  0
 17 18  2  0
 18 19  1  0
 19 20  1  0
 20 21  1  0
 21 22  1  0
 22 23  1  0
 22 24  1  0
 24 25  1  0
 24 26  1  0
 19 27  1  0
 27 28  1  6
 27 29  1  0
 29 30  1  0
 30 31  1  0
 31 32  1  6
  7  5  1  0
 31 10  1  0
 31 13  1  0
 27 15  1  0
 24 18  1  0
  1 33  1  0
  1 34  1  0
  1 35  1  0
  2 36  1  1
  3 37  1  0
  3 38  1  0
  4 39  1  0
  4 40  1  0
  5 41  1  1
  8 42  1  0
  8 43  1  0
  8 44  1  0
  9 45  1  0
  9 46  1  0
  9 47  1  0
 10 48  1  1
 11 49  1  0
 11 50  1  0
 12 51  1  0
 12 52  1  0
 14 53  1  0
 14 54  1  0
 14 55  1  0
 15 56  1  6
 16 57  1  0
 16 58  1  0
 17 59  1  0
 19 60  1  1
 20 61  1  0
 20 62  1  0
 21 63  1  0
 21 64  1  0
 22 65  1  1
 23 66  1  0
 25 67  1  0
 25 68  1  0
 25 69  1  0
 26 70  1  0
 26 71  1  0
 26 72  1  0
 28 73  1  0
 28 74  1  0
 28 75  1  0
 29 76  1  0
 29 77  1  0
 30 78  1  0
 30 79  1  0
 32 80  1  0
 32 81  1  0
 32 82  1  0
M  END
>  <meeko>  (3) 
{"is_sidechain": [false], "intermolecular_energy": 2.731, "internal_energy": -0.839}

$$$$
EPH_relaxed_0001_pdb2pqr_Repair_170_r2_0001_out
     RDKit          3D

 82 86  0  0  0  0  0  0  0  0999 V2000
   -1.1740   10.4480    1.5070 C   0  0  0  0  0  0  0  0  0  0  0  0
   -1.8530   10.1190    0.1740 C   0  0  2  0  0  0  0  0  0  0  0  0
   -2.6790    8.8190    0.2490 C   0  0  0  0  0  0  0  0  0  0  0  0
   -4.0560    8.9260   -0.4110 C   0  0  0  0  0  0  0  0  0  0  0  0
   -4.5790    7.5830   -0.8230 C   0  0  2  0  0  0  0  0  0  0  0  0
   -4.7330    7.4090   -2.2380 O   0  0  0  0  0  0  0  0  0  0  0  0
   -5.9400    7.3750   -1.4600 C   0  0  0  0  0  0  0  0  0  0  0  0
   -6.8640    8.5240   -1.7200 C   0  0  0  0  0  0  0  0  0  0  0  0
   -6.5680    6.0180   -1.3810 C   0  0  0  0  0  0  0  0  0  0  0  0
   -0.8080   10.0100   -0.9290 C   0  0  1  0  0  0  0  0  0  0  0  0
   -1.3110    9.1960   -2.1510 C   0  0  0  0  0  0  0  0  0  0  0  0
   -0.6810    9.8440   -3.4100 C   0  0  0  0  0  0  0  0  0  0  0  0
    0.4130   10.7870   -2.8580 C   0  0  1  0  0  0  0  0  0  0  0  0
    1.6350    9.8590   -2.5700 C   0  0  0  0  0  0  0  0  0  0  0  0
    0.8080   11.9960   -3.7680 C   0  0  2  0  0  0  0  0  0  0  0  0
    1.4160   11.6160   -5.1300 C   0  0  0  0  0  0  0  0  0  0  0  0
    2.9020   11.4780   -5.1480 C   0  0  0  0  0  0  0  0  0  0  0  0
    3.7410   11.9250   -4.1960 C   0  0  0  0  0  0  0  0  0  0  0  0
    3.2180   12.7340   -3.0020 C   0  0  1  0  0  0  0  0  0  0  0  0
    4.1210   13.9770   -2.7830 C   0  0  0  0  0  0  0  0  0  0  0  0
    5.5950   13.6110   -2.6390 C   0  0  0  0  0  0  0  0  0  0  0  0
    6.0930   12.8580   -3.8700 C   0  0  2  0  0  0  0  0  0  0  0  0
    6.0770   13.7470   -4.9910 O   0  0  0  0  0  0  0  0  0  0  0  0
    5.2530   11.5910   -4.1950 C   0  0  0  0  0  0  0  0  0  0  0  0
    5.5110   10.5060   -3.1210 C   0  0  0  0  0  0  0  0  0  0  0  0
    5.7720   11.0060   -5.5370 C   0  0  0  0  0  0  0  0  0  0  0  0
    1.6720   13.1020   -3.0380 C   0  0  1  0  0  0  0  0  0  0  0  0
    1.4590   14.4280   -3.8300 C   0  0  0  0  0  0  0  0  0  0  0  0
    1.1750   13.3770   -1.5700 C   0  0  0  0  0  0  0  0  0  0  0  0
    0.6850   12.1600   -0.7620 C   0  0  0  0  0  0  0  0  0  0  0  0
   -0.3140   11.3300   -1.5740 C   0  0  2  0  0  0  0  0  0  0  0  0
   -1.5640   12.2310   -1.8590 C   0  0  0  0  0  0  0  0  0  0  0  0
   -1.8237   10.1332    2.3370 H   0  0  0  0  0  0  0  0  0  0  0  0
   -0.2137    9.9153    1.5707 H   0  0  0  0  0  0  0  0  0  0  0  0
   -0.9970   11.5318    1.5707 H   0  0  0  0  0  0  0  0  0  0  0  0
   -2.5491   10.9395   -0.0544 H   0  0  0  0  0  0  0  0  0  0  0  0
   -2.1145    8.0194   -0.2530 H   0  0  0  0  0  0  0  0  0  0  0  0
   -2.8490    8.6072    1.3149 H   0  0  0  0  0  0  0  0  0  0  0  0
   -4.7595    9.3788    0.3032 H   0  0  0  0  0  0  0  0  0  0  0  0
   -3.9564    9.5469   -1.3135 H   0  0  0  0  0  0  0  0  0  0  0  0
   -4.0834    7.1011    0.0326 H   0  0  0  0  0  0  0  0  0  0  0  0
   -7.2032    8.9457   -0.7623 H   0  0  0  0  0  0  0  0  0  0  0  0
   -6.3340    9.2981   -2.2943 H   0  0  0  0  0  0  0  0  0  0  0  0
   -7.7338    8.1724   -2.2943 H   0  0  0  0  0  0  0  0  0  0  0  0
   -6.6988    5.7354   -0.3260 H   0  0  0  0  0  0  0  0  0  0  0  0
   -7.5484    6.0381   -1.8795 H   0  0  0  0  0  0  0  0  0  0  0  0
   -5.9182    5.2837   -1.8795 H   0  0  0  0  0  0  0  0  0  0  0  0
    0.0089    9.5389   -0.3626 H   0  0  0  0  0  0  0  0  0  0  0  0
   -0.9915    8.1470   -2.0648 H   0  0  0  0  0  0  0  0  0  0  0  0
   -2.4094    9.2079   -2.2084 H   0  0  0  0  0  0  0  0  0  0  0  0
   -0.2389    9.0762   -4.0619 H   0  0  0  0  0  0  0  0  0  0  0  0
   -1.4240   10.3791   -4.0196 H   0  0  0  0  0  0  0  0  0  0  0  0
    1.7696    9.7568   -1.4831 H   0  0  0  0  0  0  0  0  0  0  0  0
    1.4550    8.8679   -3.0120 H   0  0  0  0  0  0  0  0  0  0  0  0
    2.5414   10.2985   -3.0120 H   0  0  0  0  0  0  0  0  0  0  0  0
   -0.1681   12.4508   -3.9926 H   0  0  0  0  0  0  0  0  0  0  0  0
    0.9814   10.6542   -5.4399 H   0  0  0  0  0  0  0  0  0  0  0  0
    1.1790   12.4462   -5.8116 H   0  0  0  0  0  0  0  0  0  0  0  0
    3.3494   10.9673   -6.0134 H   0  0  0  0  0  0  0  0  0  0  0  0
    3.2838   12.0665   -2.1301 H   0  0  0  0  0  0  0  0  0  0  0  0
    4.0077   14.6514   -3.6446 H   0  0  0  0  0  0  0  0  0  0  0  0
    3.8037   14.4595   -1.8468 H   0  0  0  0  0  0  0  0  0  0  0  0
    6.1843   14.5318   -2.5174 H   0  0  0  0  0  0  0  0  0  0  0  0
    5.7110   12.9611   -1.7591 H   0  0  0  0  0  0  0  0  0  0  0  0
    7.1137   12.5097   -3.6535 H   0  0  0  0  0  0  0  0  0  0  0  0
    6.9050   14.2570   -4.9740 H   0  0  0  0  0  0  0  0  0  0  0  0
    5.4057   10.9489   -2.1196 H   0  0  0  0  0  0  0  0  0  0  0  0
    4.7815    9.6913   -3.2402 H   0  0  0  0  0  0  0  0  0  0  0  0
    6.5291   10.1069   -3.2402 H   0  0  0  0  0  0  0  0  0  0  0  0
    6.4892   10.1976   -5.3316 H   0  0  0  0  0  0  0  0  0  0  0  0
    4.9253   10.6070   -6.1149 H   0  0  0  0  0  0  0  0  0  0  0  0
    6.2690   11.7991   -6.1149 H   0  0  0  0  0  0  0  0  0  0  0  0
    1.3254   15.2600   -3.1229 H   0  0  0  0  0  0  0  0  0  0  0  0
    2.3375   14.6222   -4.4629 H   0  0  0  0  0  0  0  0  0  0  0  0
    0.5639   14.3373   -4.4629 H   0  0  0  0  0  0  0  0  0  0  0  0
    2.0101   13.8300   -1.0155 H   0  0  0  0  0  0  0  0  0  0  0  0
    0.2913   14.0224   -1.6819 H   0  0  0  0  0  0  0  0  0  0  0  0
    1.5481   11.5300   -0.5009 H   0  0  0  0  0  0  0  0  0  0  0  0
    0.1834   12.5215    0.1478 H   0  0  0  0  0  0  0  0  0  0  0  0
   -2.0095   12.5521   -0.9059 H   0  0  0  0  0  0  0  0  0  0  0  0
   -1.2548   13.1153   -2.4356 H   0  0  0  0  0  0  0  0  0  0  0  0
   -2.3052   11.6581   -2.4356 H   0  0  0  0  0  0  0  0  0  0  0  0
  1  2  1  0
  2  3  1  0
  3  4  1  0
  4  5  1  0
  5  6  1  0
  6  7  1  0
  7  8  1  0
  7  9  1  0
  2 10  1  0
 10 11  1  0
 11 12  1  0
 12 13  1  0
 13 14  1  1
 13 15  1  0
 15 16  1  0
 16 17  1  0
 17 18  2  0
 18 19  1  0
 19 20  1  0
 20 21  1  0
 21 22  1  0
 22 23  1  0
 22 24  1  0
 24 25  1  0
 24 26  1  0
 19 27  1  0
 27 28  1  6
 27 29  1  0
 29 30  1  0
 30 31  1  0
 31 32  1  6
  7  5  1  0
 31 10  1  0
 31 13  1  0
 27 15  1  0
 24 18  1  0
  1 33  1  0
  1 34  1  0
  1 35  1  0
  2 36  1  6
  3 37  1  0
  3 38  1  0
  4 39  1  0
  4 40  1  0
  5 41  1  1
  8 42  1  0
  8 43  1  0
  8 44  1  0
  9 45  1  0
  9 46  1  0
  9 47  1  0
 10 48  1  1
 11 49  1  0
 11 50  1  0
 12 51  1  0
 12 52  1  0
 14 53  1  0
 14 54  1  0
 14 55  1  0
 15 56  1  6
 16 57  1  0
 16 58  1  0
 17 59  1  0
 19 60  1  1
 20 61  1  0
 20 62  1  0
 21 63  1  0
 21 64  1  0
 22 65  1  1
 23 66  1  0
 25 67  1  0
 25 68  1  0
 25 69  1  0
 26 70  1  0
 26 71  1  0
 26 72  1  0
 28 73  1  0
 28 74  1  0
 28 75  1  0
 29 76  1  0
 29 77  1  0
 30 78  1  0
 30 79  1  0
 32 80  1  0
 32 81  1  0
 32 82  1  0
M  END
>  <meeko>  (4) 
{"is_sidechain": [false], "intermolecular_energy": 2.731, "internal_energy": -0.839}

$$$$
EPH_relaxed_0001_pdb2pqr_Repair_170_r2_0001_out
     RDKit          3D

 82 86  0  0  0  0  0  0  0  0999 V2000
   -1.0550    9.0760   -2.2410 C   0  0  0  0  0  0  0  0  0  0  0  0
   -1.3830    9.2290   -0.7530 C   0  0  2  0  0  0  0  0  0  0  0  0
   -2.8800    9.0060   -0.4630 C   0  0  0  0  0  0  0  0  0  0  0  0
   -3.5550    8.0260   -1.4260 C   0  0  0  0  0  0  0  0  0  0  0  0
   -5.0340    7.9550   -1.2000 C   0  0  2  0  0  0  0  0  0  0  0  0
   -5.5280    6.6500   -0.8700 O   0  0  0  0  0  0  0  0  0  0  0  0
   -5.9860    7.2060   -2.1140 C   0  0  0  0  0  0  0  0  0  0  0  0
   -5.4930    6.4770   -3.3240 C   0  0  0  0  0  0  0  0  0  0  0  0
   -7.4330    7.5870   -2.1070 C   0  0  0  0  0  0  0  0  0  0  0  0
   -0.9580   10.6100   -0.2670 C   0  0  1  0  0  0  0  0  0  0  0  0
   -0.1760   10.5580    1.0720 C   0  0  0  0  0  0  0  0  0  0  0  0
    0.8880   11.6840    1.0130 C   0  0  0  0  0  0  0  0  0  0  0  0
    0.4720   12.5510   -0.1980 C   0  0  1  0  0  0  0  0  0  0  0  0
   -0.6620   13.4780    0.3430 C   0  0  0  0  0  0  0  0  0  0  0  0
    1.6110   13.3730   -0.8840 C   0  0  2  0  0  0  0  0  0  0  0  0
    2.2820   14.4310    0.0100 C   0  0  0  0  0  0  0  0  0  0  0  0
    1.6610   15.7880   -0.0320 C   0  0  0  0  0  0  0  0  0  0  0  0
    0.7920   16.2210   -0.9640 C   0  0  0  0  0  0  0  0  0  0  0  0
    0.4240   15.3440   -2.1670 C   0  0  1  0  0  0  0  0  0  0  0  0
    0.4870   16.1920   -3.4650 C   0  0  0  0  0  0  0  0  0  0  0  0
   -0.3660   17.4540   -3.3810 C   0  0  0  0  0  0  0  0  0  0  0  0
    0.0680   18.3280   -2.2070 C   0  0  2  0  0  0  0  0  0  0  0  0
    1.3830   18.8290   -2.4670 O   0  0  0  0  0  0  0  0  0  0  0  0
    0.0540   17.5780   -0.8460 C   0  0  0  0  0  0  0  0  0  0  0  0
   -1.4090   17.3000   -0.4200 C   0  0  0  0  0  0  0  0  0  0  0  0
    0.6460   18.5280    0.2290 C   0  0  0  0  0  0  0  0  0  0  0  0
    1.2190   13.9730   -2.2940 C   0  0  1  0  0  0  0  0  0  0  0  0
    2.5530   14.2020   -3.0680 C   0  0  0  0  0  0  0  0  0  0  0  0
    0.3710   12.9660   -3.1580 C   0  0  0  0  0  0  0  0  0  0  0  0
   -0.6540   12.0970   -2.4060 C   0  0  0  0  0  0  0  0  0  0  0  0
   -0.0150   11.4280   -1.1850 C   0  0  2  0  0  0  0  0  0  0  0  0
    1.1140   10.4730   -1.7000 C   0  0  0  0  0  0  0  0  0  0  0  0
   -0.0632    8.6134   -2.3522 H   0  0  0  0  0  0  0  0  0  0  0  0
   -1.8128    8.4384   -2.7198 H   0  0  0  0  0  0  0  0  0  0  0  0
   -1.0534   10.0663   -2.7198 H   0  0  0  0  0  0  0  0  0  0  0  0
   -0.8227    8.4545   -0.2088 H   0  0  0  0  0  0  0  0  0  0  0  0
   -2.9807    8.6129    0.5594 H   0  0  0  0  0  0  0  0  0  0  0  0
   -3.3800    9.9774   -0.5908 H   0  0  0  0  0  0  0  0  0  0  0  0
   -3.3679    8.3555   -2.4587 H   0  0  0  0  0  0  0  0  0  0  0  0
   -3.1331    7.0258   -1.2480 H   0  0  0  0  0  0  0  0  0  0  0  0
   -5.0457    8.9813   -0.8042 H   0  0  0  0  0  0  0  0  0  0  0  0
   -4.9023    5.6036   -3.0105 H   0  0  0  0  0  0  0  0  0  0  0  0
   -6.3511    6.1426   -3.9255 H   0  0  0  0  0  0  0  0  0  0  0  0
   -4.8631    7.1489   -3.9255 H   0  0  0  0  0  0  0  0  0  0  0  0
   -7.7829    7.6791   -1.0682 H   0  0  0  0  0  0  0  0  0  0  0  0
   -7.5612    8.5495   -2.6238 H   0  0  0  0  0  0  0  0  0  0  0  0
   -8.0186    6.8124   -2.6238 H   0  0  0  0  0  0  0  0  0  0  0  0
   -1.9431   11.0962   -0.2101 H   0  0  0  0  0  0  0  0  0  0  0  0
   -0.8599   10.7271    1.9168 H   0  0  0  0  0  0  0  0  0  0  0  0
    0.2968    9.5752    1.2152 H   0  0  0  0  0  0  0  0  0  0  0  0
    0.8760   12.2784    1.9385 H   0  0  0  0  0  0  0  0  0  0  0  0
    1.9092   11.2880    0.9112 H   0  0  0  0  0  0  0  0  0  0  0  0
   -0.6501   13.4683    1.4429 H   0  0  0  0  0  0  0  0  0  0  0  0
   -0.4990   14.5048   -0.0164 H   0  0  0  0  0  0  0  0  0  0  0  0
   -1.6358   13.1140   -0.0164 H   0  0  0  0  0  0  0  0  0  0  0  0
    2.3778   12.6056   -1.0660 H   0  0  0  0  0  0  0  0  0  0  0  0
    2.2438   14.0717    1.0490 H   0  0  0  0  0  0  0  0  0  0  0  0
    3.3045   14.5522   -0.3770 H   0  0  0  0  0  0  0  0  0  0  0  0
    1.9369   16.4932    0.7659 H   0  0  0  0  0  0  0  0  0  0  0  0
   -0.6080   15.0055   -1.9926 H   0  0  0  0  0  0  0  0  0  0  0  0
    1.5321   16.4841   -3.6450 H   0  0  0  0  0  0  0  0  0  0  0  0
    0.0918   15.5758   -4.2860 H   0  0  0  0  0  0  0  0  0  0  0  0
   -0.2570   18.0251   -4.3148 H   0  0  0  0  0  0  0  0  0  0  0  0
   -1.4152   17.1596   -3.2308 H   0  0  0  0  0  0  0  0  0  0  0  0
   -0.6598   19.1482   -2.1198 H   0  0  0  0  0  0  0  0  0  0  0  0
    1.5020   19.6330   -1.9330 H   0  0  0  0  0  0  0  0  0  0  0  0
   -1.4751   17.2874    0.6779 H   0  0  0  0  0  0  0  0  0  0  0  0
   -2.0631   18.0899   -0.8177 H   0  0  0  0  0  0  0  0  0  0  0  0
   -1.7278   16.3252   -0.8177 H   0  0  0  0  0  0  0  0  0  0  0  0
    0.4059   18.1428    1.2310 H   0  0  0  0  0  0  0  0  0  0  0  0
    1.7381   18.5823    0.1090 H   0  0  0  0  0  0  0  0  0  0  0  0
    0.2136   19.5323    0.1090 H   0  0  0  0  0  0  0  0  0  0  0  0
    3.3741   14.3430   -2.3497 H   0  0  0  0  0  0  0  0  0  0  0  0
    2.7650   13.3271   -3.7002 H   0  0  0  0  0  0  0  0  0  0  0  0
    2.4611   15.0975   -3.7002 H   0  0  0  0  0  0  0  0  0  0  0  0
   -0.1779   13.5527   -3.9093 H   0  0  0  0  0  0  0  0  0  0  0  0
    1.1020   12.2555   -3.5713 H   0  0  0  0  0  0  0  0  0  0  0  0
   -1.4884   12.7317   -2.0730 H   0  0  0  0  0  0  0  0  0  0  0  0
   -1.0151   11.3122   -3.0870 H   0  0  0  0  0  0  0  0  0  0  0  0
    1.6388   10.0291   -0.8412 H   0  0  0  0  0  0  0  0  0  0  0  0
    0.6681    9.6738   -2.3103 H   0  0  0  0  0  0  0  0  0  0  0  0
    1.8282   11.0452   -2.3103 H   0  0  0  0  0  0  0  0  0  0  0  0
  1  2  1  0
  2  3  1  0
  3  4  1  0
  4  5  1  0
  5  6  1  0
  6  7  1  0
  7  8  1  0
  7  9  1  0
  2 10  1  0
 10 11  1  0
 11 12  1  0
 12 13  1  0
 13 14  1  1
 13 15  1  0
 15 16  1  0
 16 17  1  0
 17 18  2  0
 18 19  1  0
 19 20  1  0
 20 21  1  0
 21 22  1  0
 22 23  1  0
 22 24  1  0
 24 25  1  0
 24 26  1  0
 19 27  1  0
 27 28  1  6
 27 29  1  0
 29 30  1  0
 30 31  1  0
 31 32  1  6
  7  5  1  0
 31 10  1  0
 31 13  1  0
 27 15  1  0
 24 18  1  0
  1 33  1  0
  1 34  1  0
  1 35  1  0
  2 36  1  1
  3 37  1  0
  3 38  1  0
  4 39  1  0
  4 40  1  0
  5 41  1  1
  8 42  1  0
  8 43  1  0
  8 44  1  0
  9 45  1  0
  9 46  1  0
  9 47  1  0
 10 48  1  1
 11 49  1  0
 11 50  1  0
 12 51  1  0
 12 52  1  0
 14 53  1  0
 14 54  1  0
 14 55  1  0
 15 56  1  6
 16 57  1  0
 16 58  1  0
 17 59  1  0
 19 60  1  1
 20 61  1  0
 20 62  1  0
 21 63  1  0
 21 64  1  0
 22 65  1  1
 23 66  1  0
 25 67  1  0
 25 68  1  0
 25 69  1  0
 26 70  1  0
 26 71  1  0
 26 72  1  0
 28 73  1  0
 28 74  1  0
 28 75  1  0
 29 76  1  0
 29 77  1  0
 30 78  1  0
 30 79  1  0
 32 80  1  0
 32 81  1  0
 32 82  1  0
M  END
>  <meeko>  (5) 
{"is_sidechain": [false], "intermolecular_energy": 2.731, "internal_energy": -0.839}

$$$$
EPH_relaxed_0001_pdb2pqr_Repair_170_r2_0001_out
     RDKit          3D

 82 86  0  0  0  0  0  0  0  0999 V2000
   -2.3850   10.0110    0.6480 C   0  0  0  0  0  0  0  0  0  0  0  0
   -0.9050   10.1790    1.0020 C   0  0  2  0  0  0  0  0  0  0  0  0
   -0.6220   11.5300    1.6900 C   0  0  0  0  0  0  0  0  0  0  0  0
    0.3890   11.4370    2.8360 C   0  0  0  0  0  0  0  0  0  0  0  0
    0.3760   12.6700    3.6880 C   0  0  2  0  0  0  0  0  0  0  0  0
    0.4880   12.4250    5.0960 O   0  0  0  0  0  0  0  0  0  0  0  0
   -0.7460   13.0100    4.6510 C   0  0  0  0  0  0  0  0  0  0  0  0
   -1.9360   12.1150    4.8100 C   0  0  0  0  0  0  0  0  0  0  0  0
   -0.9230   14.4360    5.0680 C   0  0  0  0  0  0  0  0  0  0  0  0
   -0.0520   10.0470   -0.2550 C   0  0  1  0  0  0  0  0  0  0  0  0
   -0.7500    9.2180   -1.3660 C   0  0  0  0  0  0  0  0  0  0  0  0
   -0.3300    9.8430   -2.7210 C   0  0  0  0  0  0  0  0  0  0  0  0
    0.8440   10.7860   -2.3680 C   0  0  1  0  0  0  0  0  0  0  0  0
    2.0920    9.8540   -2.2670 C   0  0  0  0  0  0  0  0  0  0  0  0
    1.0920   11.9780   -3.3490 C   0  0  2  0  0  0  0  0  0  0  0  0
    1.4700   11.5740   -4.7840 C   0  0  0  0  0  0  0  0  0  0  0  0
    2.9330   11.4250   -5.0410 C   0  0  0  0  0  0  0  0  0  0  0  0
    3.9170   11.8800   -4.2440 C   0  0  0  0  0  0  0  0  0  0  0  0
    3.5980   12.7110   -2.9940 C   0  0  1  0  0  0  0  0  0  0  0  0
    4.5300   13.9500   -2.9440 C   0  0  0  0  0  0  0  0  0  0  0  0
    6.0060   13.5750   -3.0340 C   0  0  0  0  0  0  0  0  0  0  0  0
    6.2950   12.8010   -4.3180 C   0  0  2  0  0  0  0  0  0  0  0  0
    6.1020   13.6740   -5.4350 O   0  0  0  0  0  0  0  0  0  0  0  0
    5.4080   11.5360   -4.4830 C   0  0  0  0  0  0  0  0  0  0  0  0
    5.8310   10.4640   -3.4480 C   0  0  0  0  0  0  0  0  0  0  0  0
    5.7000   10.9280   -5.8810 C   0  0  0  0  0  0  0  0  0  0  0  0
    2.0680   13.0890   -2.7850 C   0  0  1  0  0  0  0  0  0  0  0  0
    1.7360   14.4050   -3.5530 C   0  0  0  0  0  0  0  0  0  0  0  0
    1.8170   13.3890   -1.2600 C   0  0  0  0  0  0  0  0  0  0  0  0
    1.4590   12.1870   -0.3660 C   0  0  0  0  0  0  0  0  0  0  0  0
    0.3370   11.3530   -0.9920 C   0  0  2  0  0  0  0  0  0  0  0  0
   -0.9380   12.2580   -1.0850 C   0  0  0  0  0  0  0  0  0  0  0  0
   -2.9777    9.9437    1.5722 H   0  0  0  0  0  0  0  0  0  0  0  0
   -2.7216   10.8767    0.0587 H   0  0  0  0  0  0  0  0  0  0  0  0
   -2.5190    9.0919    0.0587 H   0  0  0  0  0  0  0  0  0  0  0  0
   -0.6431    9.3836    1.7153 H   0  0  0  0  0  0  0  0  0  0  0  0
   -0.2292   12.2281    0.9361 H   0  0  0  0  0  0  0  0  0  0  0  0
   -1.5715   11.8739    2.1260 H   0  0  0  0  0  0  0  0  0  0  0  0
    0.1388   10.5681    3.4625 H   0  0  0  0  0  0  0  0  0  0  0  0
    1.3933   11.3322    2.3997 H   0  0  0  0  0  0  0  0  0  0  0  0
    0.8694   13.2517    2.8954 H   0  0  0  0  0  0  0  0  0  0  0  0
   -2.1394   11.9620    5.8802 H   0  0  0  0  0  0  0  0  0  0  0  0
   -2.8112   12.5805    4.3333 H   0  0  0  0  0  0  0  0  0  0  0  0
   -1.7315   11.1450    4.3333 H   0  0  0  0  0  0  0  0  0  0  0  0
   -0.9308   14.4986    6.1662 H   0  0  0  0  0  0  0  0  0  0  0  0
   -0.0929   15.0395    4.6722 H   0  0  0  0  0  0  0  0  0  0  0  0
   -1.8755   14.8182    4.6722 H   0  0  0  0  0  0  0  0  0  0  0  0
    0.8441    9.5796    0.1791 H   0  0  0  0  0  0  0  0  0  0  0  0
   -0.4250    8.1683   -1.3161 H   0  0  0  0  0  0  0  0  0  0  0  0
   -1.8431    9.2362   -1.2446 H   0  0  0  0  0  0  0  0  0  0  0  0
   -0.0034    9.0626   -3.4241 H   0  0  0  0  0  0  0  0  0  0  0  0
   -1.1595   10.3744   -3.2104 H   0  0  0  0  0  0  0  0  0  0  0  0
    2.3314    9.6752   -1.2084 H   0  0  0  0  0  0  0  0  0  0  0  0
    1.8746    8.8954   -2.7607 H   0  0  0  0  0  0  0  0  0  0  0  0
    2.9495   10.3346   -2.7607 H   0  0  0  0  0  0  0  0  0  0  0  0
    0.0944   12.4359   -3.4209 H   0  0  0  0  0  0  0  0  0  0  0  0
    0.9866   10.6108   -5.0043 H   0  0  0  0  0  0  0  0  0  0  0  0
    1.1300   12.3962   -5.4308 H   0  0  0  0  0  0  0  0  0  0  0  0
    3.2318   10.8988   -5.9596 H   0  0  0  0  0  0  0  0  0  0  0  0
    3.8012   12.0566   -2.1335 H   0  0  0  0  0  0  0  0  0  0  0  0
    4.2822   14.6120   -3.7868 H   0  0  0  0  0  0  0  0  0  0  0  0
    4.3705   14.4493   -1.9769 H   0  0  0  0  0  0  0  0  0  0  0  0
    6.6120   14.4930   -3.0229 H   0  0  0  0  0  0  0  0  0  0  0  0
    6.2591   12.9366   -2.1747 H   0  0  0  0  0  0  0  0  0  0  0  0
    7.3357   12.4487   -4.2646 H   0  0  0  0  0  0  0  0  0  0  0  0
    6.6980   14.4330   -5.3220 H   0  0  0  0  0  0  0  0  0  0  0  0
    5.6768   10.8548   -2.4314 H   0  0  0  0  0  0  0  0  0  0  0  0
    5.2229    9.5583   -3.5888 H   0  0  0  0  0  0  0  0  0  0  0  0
    6.8938   10.2176   -3.5888 H   0  0  0  0  0  0  0  0  0  0  0  0
    6.1734    9.9424   -5.7606 H   0  0  0  0  0  0  0  0  0  0  0  0
    4.7572   10.8165   -6.4366 H   0  0  0  0  0  0  0  0  0  0  0  0
    6.3764   11.5942   -6.4366 H   0  0  0  0  0  0  0  0  0  0  0  0
    1.5330   15.2097   -2.8310 H   0  0  0  0  0  0  0  0  0  0  0  0
    2.5913   14.6865   -4.1849 H   0  0  0  0  0  0  0  0  0  0  0  0
    0.8495   14.2471   -4.1849 H   0  0  0  0  0  0  0  0  0  0  0  0
    2.7330   13.8439   -0.8551 H   0  0  0  0  0  0  0  0  0  0  0  0
    0.9303   14.0396   -1.2366 H   0  0  0  0  0  0  0  0  0  0  0  0
    2.3500   11.5544   -0.2398 H   0  0  0  0  0  0  0  0  0  0  0  0
    1.1138   12.5647    0.6078 H   0  0  0  0  0  0  0  0  0  0  0  0
   -1.2867   12.5055   -0.0715 H   0  0  0  0  0  0  0  0  0  0  0  0
   -0.6915   13.1844   -1.6244 H   0  0  0  0  0  0  0  0  0  0  0  0
   -1.7312   11.7196   -1.6244 H   0  0  0  0  0  0  0  0  0  0  0  0
  1  2  1  0
  2  3  1  0
  3  4  1  0
  4  5  1  0
  5  6  1  0
  6  7  1  0
  7  8  1  0
  7  9  1  0
  2 10  1  0
 10 11  1  0
 11 12  1  0
 12 13  1  0
 13 14  1  1
 13 15  1  0
 15 16  1  0
 16 17  1  0
 17 18  2  0
 18 19  1  0
 19 20  1  0
 20 21  1  0
 21 22  1  0
 22 23  1  0
 22 24  1  0
 24 25  1  0
 24 26  1  0
 19 27  1  0
 27 28  1  6
 27 29  1  0
 29 30  1  0
 30 31  1  0
 31 32  1  6
  7  5  1  0
 31 10  1  0
 31 13  1  0
 27 15  1  0
 24 18  1  0
  1 33  1  0
  1 34  1  0
  1 35  1  0
  2 36  1  1
  3 37  1  0
  3 38  1  0
  4 39  1  0
  4 40  1  0
  5 41  1  6
  8 42  1  0
  8 43  1  0
  8 44  1  0
  9 45  1  0
  9 46  1  0
  9 47  1  0
 10 48  1  1
 11 49  1  0
 11 50  1  0
 12 51  1  0
 12 52  1  0
 14 53  1  0
 14 54  1  0
 14 55  1  0
 15 56  1  6
 16 57  1  0
 16 58  1  0
 17 59  1  0
 19 60  1  1
 20 61  1  0
 20 62  1  0
 21 63  1  0
 21 64  1  0
 22 65  1  1
 23 66  1  0
 25 67  1  0
 25 68  1  0
 25 69  1  0
 26 70  1  0
 26 71  1  0
 26 72  1  0
 28 73  1  0
 28 74  1  0
 28 75  1  0
 29 76  1  0
 29 77  1  0
 30 78  1  0
 30 79  1  0
 32 80  1  0
 32 81  1  0
 32 82  1  0
M  END
>  <meeko>  (6) 
{"is_sidechain": [false], "intermolecular_energy": 2.731, "internal_energy": -0.839}

$$$$
EPH_relaxed_0001_pdb2pqr_Repair_170_r2_0001_out
     RDKit          3D

 82 86  0  0  0  0  0  0  0  0999 V2000
   -4.4140    7.0620   -0.1610 C   0  0  0  0  0  0  0  0  0  0  0  0
   -4.2730    7.9270   -1.4170 C   0  0  2  0  0  0  0  0  0  0  0  0
   -3.6440    7.1490   -2.5910 C   0  0  0  0  0  0  0  0  0  0  0  0
   -4.4690    5.9390   -3.0390 C   0  0  0  0  0  0  0  0  0  0  0  0
   -5.7780    6.3520   -3.6410 C   0  0  2  0  0  0  0  0  0  0  0  0
   -6.3640    7.5210   -3.0530 O   0  0  0  0  0  0  0  0  0  0  0  0
   -7.0970    6.2950   -2.8930 C   0  0  0  0  0  0  0  0  0  0  0  0
   -7.1730    5.8110   -1.4790 C   0  0  0  0  0  0  0  0  0  0  0  0
   -8.3660    6.2440   -3.6860 C   0  0  0  0  0  0  0  0  0  0  0  0
   -3.4380    9.1630   -1.1050 C   0  0  1  0  0  0  0  0  0  0  0  0
   -3.7250    9.7370    0.3080 C   0  0  0  0  0  0  0  0  0  0  0  0
   -2.3820   10.2940    0.8460 C   0  0  0  0  0  0  0  0  0  0  0  0
   -1.4500   10.3260   -0.3880 C   0  0  1  0  0  0  0  0  0  0  0  0
   -1.8340   11.6350   -1.1470 C   0  0  0  0  0  0  0  0  0  0  0  0
    0.0840   10.2560   -0.0970 C   0  0  2  0  0  0  0  0  0  0  0  0
    0.6480   11.4320    0.7190 C   0  0  0  0  0  0  0  0  0  0  0  0
    1.1380   12.5900   -0.0850 C   0  0  0  0  0  0  0  0  0  0  0  0
    1.3910   12.5730   -1.4070 C   0  0  0  0  0  0  0  0  0  0  0  0
    1.2790   11.2720   -2.2140 C   0  0  1  0  0  0  0  0  0  0  0  0
    2.5250   11.1190   -3.1250 C   0  0  0  0  0  0  0  0  0  0  0  0
    2.7540   12.3380   -4.0130 C   0  0  0  0  0  0  0  0  0  0  0  0
    2.9190   13.6020   -3.1720 C   0  0  2  0  0  0  0  0  0  0  0  0
    4.1330   13.5010   -2.4210 O   0  0  0  0  0  0  0  0  0  0  0  0
    1.7270   13.8550   -2.2070 C   0  0  0  0  0  0  0  0  0  0  0  0
    0.4750   14.2620   -3.0220 C   0  0  0  0  0  0  0  0  0  0  0  0
    2.0830   15.0780   -1.3200 C   0  0  0  0  0  0  0  0  0  0  0  0
    0.9730    9.9590   -1.3730 C   0  0  1  0  0  0  0  0  0  0  0  0
    2.3050    9.3380   -0.8520 C   0  0  0  0  0  0  0  0  0  0  0  0
    0.3210    8.8830   -2.3190 C   0  0  0  0  0  0  0  0  0  0  0  0
   -1.2120    8.9290   -2.4710 C   0  0  0  0  0  0  0  0  0  0  0  0
   -1.8970    8.9990   -1.1030 C   0  0  2  0  0  0  0  0  0  0  0  0
   -1.5470    7.6850   -0.3250 C   0  0  0  0  0  0  0  0  0  0  0  0
   -4.3109    7.6943    0.7332 H   0  0  0  0  0  0  0  0  0  0  0  0
   -5.4026    6.5797   -0.1570 H   0  0  0  0  0  0  0  0  0  0  0  0
   -3.6297    6.2907   -0.1570 H   0  0  0  0  0  0  0  0  0  0  0  0
   -5.2845    8.2293   -1.7259 H   0  0  0  0  0  0  0  0  0  0  0  0
   -3.5396    7.8339   -3.4454 H   0  0  0  0  0  0  0  0  0  0  0  0
   -2.6746    6.7654   -2.2402 H   0  0  0  0  0  0  0  0  0  0  0  0
   -3.8949    5.3738   -3.7879 H   0  0  0  0  0  0  0  0  0  0  0  0
   -4.6789    5.3207   -2.1538 H   0  0  0  0  0  0  0  0  0  0  0  0
   -5.4722    5.9724   -4.6271 H   0  0  0  0  0  0  0  0  0  0  0  0
   -7.0396    6.6605   -0.7930 H   0  0  0  0  0  0  0  0  0  0  0  0
   -8.1549    5.3477   -1.3023 H   0  0  0  0  0  0  0  0  0  0  0  0
   -6.3804    5.0690   -1.3023 H   0  0  0  0  0  0  0  0  0  0  0  0
   -9.2256    6.2095   -3.0005 H   0  0  0  0  0  0  0  0  0  0  0  0
   -8.4384    7.1400   -4.3200 H   0  0  0  0  0  0  0  0  0  0  0  0
   -8.3663    5.3451   -4.3200 H   0  0  0  0  0  0  0  0  0  0  0  0
   -3.7468    9.8090   -1.9400 H   0  0  0  0  0  0  0  0  0  0  0  0
   -4.4712   10.5428    0.2451 H   0  0  0  0  0  0  0  0  0  0  0  0
   -4.1262    8.9603    0.9757 H   0  0  0  0  0  0  0  0  0  0  0  0
   -2.5177   11.3055    1.2563 H   0  0  0  0  0  0  0  0  0  0  0  0
   -1.9728    9.6799    1.6618 H   0  0  0  0  0  0  0  0  0  0  0  0
   -2.0661   12.4263   -0.4190 H   0  0  0  0  0  0  0  0  0  0  0  0
   -0.9914   11.9534   -1.7784 H   0  0  0  0  0  0  0  0  0  0  0  0
   -2.7151   11.4477   -1.7784 H   0  0  0  0  0  0  0  0  0  0  0  0
    0.1597    9.3751    0.5574 H   0  0  0  0  0  0  0  0  0  0  0  0
   -0.1473   11.7944    1.3869 H   0  0  0  0  0  0  0  0  0  0  0  0
    1.5263   11.0386    1.2519 H   0  0  0  0  0  0  0  0  0  0  0  0
    1.3067   13.5375    0.4478 H   0  0  0  0  0  0  0  0  0  0  0  0
    0.3750   11.3744   -2.8323 H   0  0  0  0  0  0  0  0  0  0  0  0
    3.4110   10.9745   -2.4892 H   0  0  0  0  0  0  0  0  0  0  0  0
    2.3533   10.2543   -3.7829 H   0  0  0  0  0  0  0  0  0  0  0  0
    3.6640   12.1820   -4.6110 H   0  0  0  0  0  0  0  0  0  0  0  0
    1.8800   12.4640   -4.6689 H   0  0  0  0  0  0  0  0  0  0  0  0
    2.9499   14.4569   -3.8635 H   0  0  0  0  0  0  0  0  0  0  0  0
    3.9360   13.7660   -1.5070 H   0  0  0  0  0  0  0  0  0  0  0  0
   -0.3406   14.5271   -2.3332 H   0  0  0  0  0  0  0  0  0  0  0  0
    0.7158   15.1281   -3.6559 H   0  0  0  0  0  0  0  0  0  0  0  0
    0.1604   13.4199   -3.6559 H   0  0  0  0  0  0  0  0  0  0  0  0
    2.0015   14.7979   -0.2594 H   0  0  0  0  0  0  0  0  0  0  0  0
    3.1123   15.4004   -1.5360 H   0  0  0  0  0  0  0  0  0  0  0  0
    1.3876   15.9024   -1.5360 H   0  0  0  0  0  0  0  0  0  0  0  0
    2.3042    9.3384    0.2480 H   0  0  0  0  0  0  0  0  0  0  0  0
    2.3958    8.3047   -1.2182 H   0  0  0  0  0  0  0  0  0  0  0  0
    3.1548    9.9328   -1.2182 H   0  0  0  0  0  0  0  0  0  0  0  0
    0.7587    9.0111   -3.3200 H   0  0  0  0  0  0  0  0  0  0  0  0
    0.5341    7.9144   -1.8432 H   0  0  0  0  0  0  0  0  0  0  0  0
   -1.4889    9.8172   -3.0579 H   0  0  0  0  0  0  0  0  0  0  0  0
   -1.5414    8.0120   -2.9815 H   0  0  0  0  0  0  0  0  0  0  0  0
   -1.5976    7.8751    0.7573 H   0  0  0  0  0  0  0  0  0  0  0  0
   -2.2667    6.8975   -0.5930 H   0  0  0  0  0  0  0  0  0  0  0  0
   -0.5309    7.3598   -0.5930 H   0  0  0  0  0  0  0  0  0  0  0  0
  1  2  1  0
  2  3  1  0
  3  4  1  0
  4  5  1  0
  5  6  1  0
  6  7  1  0
  7  8  1  0
  7  9  1  0
  2 10  1  0
 10 11  1  0
 11 12  1  0
 12 13  1  0
 13 14  1  6
 13 15  1  0
 15 16  1  0
 16 17  1  0
 17 18  2  0
 18 19  1  0
 19 20  1  0
 20 21  1  0
 21 22  1  0
 22 23  1  0
 22 24  1  0
 24 25  1  0
 24 26  1  0
 19 27  1  0
 27 28  1  1
 27 29  1  0
 29 30  1  0
 30 31  1  0
 31 32  1  1
  7  5  1  0
 31 10  1  0
 31 13  1  0
 27 15  1  0
 24 18  1  0
  1 33  1  0
  1 34  1  0
  1 35  1  0
  2 36  1  6
  3 37  1  0
  3 38  1  0
  4 39  1  0
  4 40  1  0
  5 41  1  6
  8 42  1  0
  8 43  1  0
  8 44  1  0
  9 45  1  0
  9 46  1  0
  9 47  1  0
 10 48  1  6
 11 49  1  0
 11 50  1  0
 12 51  1  0
 12 52  1  0
 14 53  1  0
 14 54  1  0
 14 55  1  0
 15 56  1  1
 16 57  1  0
 16 58  1  0
 17 59  1  0
 19 60  1  6
 20 61  1  0
 20 62  1  0
 21 63  1  0
 21 64  1  0
 22 65  1  6
 23 66  1  0
 25 67  1  0
 25 68  1  0
 25 69  1  0
 26 70  1  0
 26 71  1  0
 26 72  1  0
 28 73  1  0
 28 74  1  0
 28 75  1  0
 29 76  1  0
 29 77  1  0
 30 78  1  0
 30 79  1  0
 32 80  1  0
 32 81  1  0
 32 82  1  0
M  END
>  <meeko>  (7) 
{"is_sidechain": [false], "intermolecular_energy": 2.731, "internal_energy": -0.839}

$$$$
EPH_relaxed_0001_pdb2pqr_Repair_170_r2_0001_out
     RDKit          3D

 82 86  0  0  0  0  0  0  0  0999 V2000
   -2.9970    9.6880    0.3360 C   0  0  0  0  0  0  0  0  0  0  0  0
   -2.8770    9.5960   -1.1870 C   0  0  2  0  0  0  0  0  0  0  0  0
   -2.5470    8.1650   -1.6580 C   0  0  0  0  0  0  0  0  0  0  0  0
   -3.7220    7.4530   -2.3350 C   0  0  0  0  0  0  0  0  0  0  0  0
   -4.9840    7.5870   -1.5380 C   0  0  2  0  0  0  0  0  0  0  0  0
   -5.5000    6.3520   -1.0230 O   0  0  0  0  0  0  0  0  0  0  0  0
   -6.3210    7.0280   -1.9890 C   0  0  0  0  0  0  0  0  0  0  0  0
   -6.4630    6.2960   -3.2860 C   0  0  0  0  0  0  0  0  0  0  0  0
   -7.5720    7.6140   -1.4130 C   0  0  0  0  0  0  0  0  0  0  0  0
   -1.8120   10.5660   -1.6840 C   0  0  1  0  0  0  0  0  0  0  0  0
   -2.1340   12.0410   -1.3270 C   0  0  0  0  0  0  0  0  0  0  0  0
   -0.7800   12.7390   -1.0410 C   0  0  0  0  0  0  0  0  0  0  0  0
    0.2870   11.7470   -1.5610 C   0  0  1  0  0  0  0  0  0  0  0  0
    0.3440   11.9900   -3.1020 C   0  0  0  0  0  0  0  0  0  0  0  0
    1.7040   11.8510   -0.9080 C   0  0  2  0  0  0  0  0  0  0  0  0
    2.4260   13.1920   -1.1270 C   0  0  0  0  0  0  0  0  0  0  0  0
    3.2900   13.2600   -2.3430 C   0  0  0  0  0  0  0  0  0  0  0  0
    3.7050   12.2040   -3.0670 C   0  0  0  0  0  0  0  0  0  0  0  0
    3.3840   10.7700   -2.6250 C   0  0  1  0  0  0  0  0  0  0  0  0
    4.6640    9.8990   -2.7240 C   0  0  0  0  0  0  0  0  0  0  0  0
    5.3040    9.9540   -4.1080 C   0  0  0  0  0  0  0  0  0  0  0  0
    5.6620   11.3880   -4.4870 C   0  0  2  0  0  0  0  0  0  0  0  0
    6.7020   11.8490   -3.6190 O   0  0  0  0  0  0  0  0  0  0  0  0
    4.4520   12.3610   -4.4150 C   0  0  0  0  0  0  0  0  0  0  0  0
    3.4590   12.0430   -5.5600 C   0  0  0  0  0  0  0  0  0  0  0  0
    4.9770   13.7970   -4.6830 C   0  0  0  0  0  0  0  0  0  0  0  0
    2.6540   10.6250   -1.2210 C   0  0  1  0  0  0  0  0  0  0  0  0
    3.7090   10.5750   -0.0750 C   0  0  0  0  0  0  0  0  0  0  0  0
    1.8880    9.2500   -1.1800 C   0  0  0  0  0  0  0  0  0  0  0  0
    0.4490    9.2380   -1.7300 C   0  0  0  0  0  0  0  0  0  0  0  0
   -0.3740   10.3850   -1.1360 C   0  0  2  0  0  0  0  0  0  0  0  0
   -0.4670   10.1560    0.4110 C   0  0  0  0  0  0  0  0  0  0  0  0
   -2.2067    9.0821    0.8033 H   0  0  0  0  0  0  0  0  0  0  0  0
   -2.8888   10.7368    0.6496 H   0  0  0  0  0  0  0  0  0  0  0  0
   -3.9817    9.3112    0.6496 H   0  0  0  0  0  0  0  0  0  0  0  0
   -3.8544    9.8668   -1.6128 H   0  0  0  0  0  0  0  0  0  0  0  0
   -1.7141    8.2187   -2.3745 H   0  0  0  0  0  0  0  0  0  0  0  0
   -2.2920    7.5821   -0.7606 H   0  0  0  0  0  0  0  0  0  0  0  0
   -3.8804    7.8936   -3.3304 H   0  0  0  0  0  0  0  0  0  0  0  0
   -3.4768    6.3835   -2.4122 H   0  0  0  0  0  0  0  0  0  0  0  0
   -4.6828    8.5836   -1.1829 H   0  0  0  0  0  0  0  0  0  0  0  0
   -6.6690    5.2340   -3.0870 H   0  0  0  0  0  0  0  0  0  0  0  0
   -7.2939    6.7290   -3.8623 H   0  0  0  0  0  0  0  0  0  0  0  0
   -5.5305    6.3869   -3.8623 H   0  0  0  0  0  0  0  0  0  0  0  0
   -7.5170    7.5883   -0.3147 H   0  0  0  0  0  0  0  0  0  0  0  0
   -7.6782    8.6555   -1.7505 H   0  0  0  0  0  0  0  0  0  0  0  0
   -8.4402    7.0289   -1.7505 H   0  0  0  0  0  0  0  0  0  0  0  0
   -1.8375   10.3328   -2.7587 H   0  0  0  0  0  0  0  0  0  0  0  0
   -2.6425   12.5321   -2.1697 H   0  0  0  0  0  0  0  0  0  0  0  0
   -2.8000   12.0991   -0.4534 H   0  0  0  0  0  0  0  0  0  0  0  0
   -0.7152   13.6964   -1.5789 H   0  0  0  0  0  0  0  0  0  0  0  0
   -0.6480   12.9728    0.0257 H   0  0  0  0  0  0  0  0  0  0  0  0
    0.5912   13.0438   -3.2981 H   0  0  0  0  0  0  0  0  0  0  0  0
    1.1149   11.3436   -3.5469 H   0  0  0  0  0  0  0  0  0  0  0  0
   -0.6339   11.7538   -3.5469 H   0  0  0  0  0  0  0  0  0  0  0  0
    1.4722   11.8082    0.1665 H   0  0  0  0  0  0  0  0  0  0  0  0
    1.6626   13.9798   -1.2080 H   0  0  0  0  0  0  0  0  0  0  0  0
    3.1002   13.3186   -0.2671 H   0  0  0  0  0  0  0  0  0  0  0  0
    3.6147   14.2572   -2.6750 H   0  0  0  0  0  0  0  0  0  0  0  0
    2.6242   10.3975   -3.3278 H   0  0  0  0  0  0  0  0  0  0  0  0
    5.3936   10.2591   -1.9837 H   0  0  0  0  0  0  0  0  0  0  0  0
    4.3733    8.8556   -2.5320 H   0  0  0  0  0  0  0  0  0  0  0  0
    6.2188    9.3431   -4.1061 H   0  0  0  0  0  0  0  0  0  0  0  0
    4.5838    9.5660   -4.8434 H   0  0  0  0  0  0  0  0  0  0  0  0
    5.9950   11.3783   -5.5353 H   0  0  0  0  0  0  0  0  0  0  0  0
    6.2870   12.3860   -2.9220 H   0  0  0  0  0  0  0  0  0  0  0  0
    2.4936   11.7338   -5.1328 H   0  0  0  0  0  0  0  0  0  0  0  0
    3.3151   12.9400   -6.1802 H   0  0  0  0  0  0  0  0  0  0  0  0
    3.8629   11.2293   -6.1802 H   0  0  0  0  0  0  0  0  0  0  0  0
    5.1625   14.3044   -3.7248 H   0  0  0  0  0  0  0  0  0  0  0  0
    5.9138   13.7437   -5.2571 H   0  0  0  0  0  0  0  0  0  0  0  0
    4.2267   14.3605   -5.2571 H   0  0  0  0  0  0  0  0  0  0  0  0
    3.1955   10.5993    0.8975 H   0  0  0  0  0  0  0  0  0  0  0  0
    4.2956    9.6480   -0.1568 H   0  0  0  0  0  0  0  0  0  0  0  0
    4.3806   11.4423   -0.1568 H   0  0  0  0  0  0  0  0  0  0  0  0
    2.4736    8.5256   -1.7651 H   0  0  0  0  0  0  0  0  0  0  0  0
    1.7890    9.0083   -0.1115 H   0  0  0  0  0  0  0  0  0  0  0  0
    0.4809    9.3469   -2.8241 H   0  0  0  0  0  0  0  0  0  0  0  0
   -0.0251    8.2852   -1.4518 H   0  0  0  0  0  0  0  0  0  0  0  0
   -0.1034   11.0512    0.9367 H   0  0  0  0  0  0  0  0  0  0  0  0
   -1.5136    9.9659    0.6913 H   0  0  0  0  0  0  0  0  0  0  0  0
    0.1507    9.2900    0.6913 H   0  0  0  0  0  0  0  0  0  0  0  0
  1  2  1  0
  2  3  1  0
  3  4  1  0
  4  5  1  0
  5  6  1  0
  6  7  1  0
  7  8  1  0
  7  9  1  0
  2 10  1  0
 10 11  1  0
 11 12  1  0
 12 13  1  0
 13 14  1  6
 13 15  1  0
 15 16  1  0
 16 17  1  0
 17 18  2  0
 18 19  1  0
 19 20  1  0
 20 21  1  0
 21 22  1  0
 22 23  1  0
 22 24  1  0
 24 25  1  0
 24 26  1  0
 19 27  1  0
 27 28  1  1
 27 29  1  0
 29 30  1  0
 30 31  1  0
 31 32  1  1
  7  5  1  0
 31 10  1  0
 31 13  1  0
 27 15  1  0
 24 18  1  0
  1 33  1  0
  1 34  1  0
  1 35  1  0
  2 36  1  6
  3 37  1  0
  3 38  1  0
  4 39  1  0
  4 40  1  0
  5 41  1  1
  8 42  1  0
  8 43  1  0
  8 44  1  0
  9 45  1  0
  9 46  1  0
  9 47  1  0
 10 48  1  6
 11 49  1  0
 11 50  1  0
 12 51  1  0
 12 52  1  0
 14 53  1  0
 14 54  1  0
 14 55  1  0
 15 56  1  1
 16 57  1  0
 16 58  1  0
 17 59  1  0
 19 60  1  6
 20 61  1  0
 20 62  1  0
 21 63  1  0
 21 64  1  0
 22 65  1  6
 23 66  1  0
 25 67  1  0
 25 68  1  0
 25 69  1  0
 26 70  1  0
 26 71  1  0
 26 72  1  0
 28 73  1  0
 28 74  1  0
 28 75  1  0
 29 76  1  0
 29 77  1  0
 30 78  1  0
 30 79  1  0
 32 80  1  0
 32 81  1  0
 32 82  1  0
M  END
>  <meeko>  (8) 
{"is_sidechain": [false], "intermolecular_energy": 2.731, "internal_energy": -0.839}

$$$$
EPH_relaxed_0001_pdb2pqr_Repair_170_r2_0001_out
     RDKit          3D

 82 86  0  0  0  0  0  0  0  0999 V2000
   -0.5850   17.0610   -1.1970 C   0  0  0  0  0  0  0  0  0  0  0  0
   -0.9070   15.7640   -0.4490 C   0  0  2  0  0  0  0  0  0  0  0  0
   -1.2790   16.0200    1.0250 C   0  0  0  0  0  0  0  0  0  0  0  0
   -1.5460   17.4940    1.3450 C   0  0  0  0  0  0  0  0  0  0  0  0
   -0.6300   18.4020    0.5810 C   0  0  2  0  0  0  0  0  0  0  0  0
   -0.4800   19.7120    1.1440 O   0  0  0  0  0  0  0  0  0  0  0  0
   -1.1030   19.6450   -0.1490 C   0  0  0  0  0  0  0  0  0  0  0  0
   -2.5440   20.0480   -0.1520 C   0  0  0  0  0  0  0  0  0  0  0  0
   -0.2550   20.1900   -1.2560 C   0  0  0  0  0  0  0  0  0  0  0  0
    0.2790   14.8100   -0.5290 C   0  0  1  0  0  0  0  0  0  0  0  0
    0.5000   14.0200    0.7880 C   0  0  0  0  0  0  0  0  0  0  0  0
    1.0080   12.6120    0.3850 C   0  0  0  0  0  0  0  0  0  0  0  0
    1.3780   12.7440   -1.1110 C   0  0  1  0  0  0  0  0  0  0  0  0
    2.7960   13.3960   -1.1170 C   0  0  0  0  0  0  0  0  0  0  0  0
    1.3450   11.4250   -1.9500 C   0  0  2  0  0  0  0  0  0  0  0  0
    2.3420   10.3420   -1.5020 C   0  0  0  0  0  0  0  0  0  0  0  0
    3.6810   10.3950   -2.1590 C   0  0  0  0  0  0  0  0  0  0  0  0
    3.9790   11.0920   -3.2710 C   0  0  0  0  0  0  0  0  0  0  0  0
    2.8890   11.8490   -4.0420 C   0  0  1  0  0  0  0  0  0  0  0  0
    3.0280   11.5540   -5.5590 C   0  0  0  0  0  0  0  0  0  0  0  0
    4.4280   11.8490   -6.0870 C   0  0  0  0  0  0  0  0  0  0  0  0
    5.4780   11.0340   -5.3350 C   0  0  2  0  0  0  0  0  0  0  0  0
    5.2900    9.6490   -5.6390 O   0  0  0  0  0  0  0  0  0  0  0  0
    5.4280   11.2430   -3.7960 C   0  0  0  0  0  0  0  0  0  0  0  0
    5.9250   12.6680   -3.4470 C   0  0  0  0  0  0  0  0  0  0  0  0
    6.4400   10.2600   -3.1480 C   0  0  0  0  0  0  0  0  0  0  0  0
    1.4030   11.6520   -3.5150 C   0  0  1  0  0  0  0  0  0  0  0  0
    0.7690   10.3870   -4.1720 C   0  0  0  0  0  0  0  0  0  0  0  0
    0.5280   12.8770   -3.9750 C   0  0  0  0  0  0  0  0  0  0  0  0
    0.5060   14.1040   -3.0440 C   0  0  0  0  0  0  0  0  0  0  0  0
    0.2210   13.6900   -1.5970 C   0  0  2  0  0  0  0  0  0  0  0  0
   -1.2090   13.0510   -1.5560 C   0  0  0  0  0  0  0  0  0  0  0  0
   -0.3859   17.8631   -0.4711 H   0  0  0  0  0  0  0  0  0  0  0  0
    0.3028   16.9093   -1.8286 H   0  0  0  0  0  0  0  0  0  0  0  0
   -1.4406   17.3421   -1.8286 H   0  0  0  0  0  0  0  0  0  0  0  0
   -1.7829   15.3102   -0.9358 H   0  0  0  0  0  0  0  0  0  0  0  0
   -2.1862   15.4438    1.2595 H   0  0  0  0  0  0  0  0  0  0  0  0
   -0.4164   15.7099    1.6330 H   0  0  0  0  0  0  0  0  0  0  0  0
   -2.5867   17.7332    1.0810 H   0  0  0  0  0  0  0  0  0  0  0  0
   -1.3659   17.6498    2.4189 H   0  0  0  0  0  0  0  0  0  0  0  0
   -0.0115   17.5499    0.2626 H   0  0  0  0  0  0  0  0  0  0  0  0
   -2.8991   20.1473    0.8844 H   0  0  0  0  0  0  0  0  0  0  0  0
   -2.6542   21.0114   -0.6713 H   0  0  0  0  0  0  0  0  0  0  0  0
   -3.1380   19.2815   -0.6713 H   0  0  0  0  0  0  0  0  0  0  0  0
    0.5977   20.7381   -0.8288 H   0  0  0  0  0  0  0  0  0  0  0  0
    0.1157   19.3606   -1.8762 H   0  0  0  0  0  0  0  0  0  0  0  0
   -0.8554   20.8717   -1.8762 H   0  0  0  0  0  0  0  0  0  0  0  0
    1.0748   15.5270   -0.7792 H   0  0  0  0  0  0  0  0  0  0  0  0
    1.2487   14.5282    1.4135 H   0  0  0  0  0  0  0  0  0  0  0  0
   -0.4315   13.9524    1.3691 H   0  0  0  0  0  0  0  0  0  0  0  0
    1.8900   12.3324    0.9799 H   0  0  0  0  0  0  0  0  0  0  0  0
    0.2541   11.8305    0.5608 H   0  0  0  0  0  0  0  0  0  0  0  0
    3.1328   13.5508   -0.0813 H   0  0  0  0  0  0  0  0  0  0  0  0
    3.5025   12.7323   -1.6370 H   0  0  0  0  0  0  0  0  0  0  0  0
    2.7521   14.3644   -1.6370 H   0  0  0  0  0  0  0  0  0  0  0  0
    0.3463   11.0243   -1.7218 H   0  0  0  0  0  0  0  0  0  0  0  0
    2.4916   10.4460   -0.4172 H   0  0  0  0  0  0  0  0  0  0  0  0
    1.8974    9.3798   -1.7960 H   0  0  0  0  0  0  0  0  0  0  0  0
    4.4928    9.8155   -1.6952 H   0  0  0  0  0  0  0  0  0  0  0  0
    3.0683   12.9175   -3.8519 H   0  0  0  0  0  0  0  0  0  0  0  0
    2.8020   10.4917   -5.7337 H   0  0  0  0  0  0  0  0  0  0  0  0
    2.3251   12.2109   -6.0923 H   0  0  0  0  0  0  0  0  0  0  0  0
    4.4710   11.5927   -7.1559 H   0  0  0  0  0  0  0  0  0  0  0  0
    4.6410   12.9180   -5.9389 H   0  0  0  0  0  0  0  0  0  0  0  0
    6.4671   11.3827   -5.6667 H   0  0  0  0  0  0  0  0  0  0  0  0
    5.7630    9.4630   -6.4680 H   0  0  0  0  0  0  0  0  0  0  0  0
    5.9657   12.7847   -2.3540 H   0  0  0  0  0  0  0  0  0  0  0  0
    6.9292   12.8199   -3.8696 H   0  0  0  0  0  0  0  0  0  0  0  0
    5.2331   13.4114   -3.8696 H   0  0  0  0  0  0  0  0  0  0  0  0
    6.3685   10.3294   -2.0525 H   0  0  0  0  0  0  0  0  0  0  0  0
    6.2085    9.2328   -3.4662 H   0  0  0  0  0  0  0  0  0  0  0  0
    7.4600   10.5213   -3.4662 H   0  0  0  0  0  0  0  0  0  0  0  0
    0.4243    9.6992   -3.3858 H   0  0  0  0  0  0  0  0  0  0  0  0
   -0.0851   10.6873   -4.7967 H   0  0  0  0  0  0  0  0  0  0  0  0
    1.5208    9.8825   -4.7967 H   0  0  0  0  0  0  0  0  0  0  0  0
    0.9073   13.2082   -4.9530 H   0  0  0  0  0  0  0  0  0  0  0  0
   -0.5068   12.5041   -3.9838 H   0  0  0  0  0  0  0  0  0  0  0  0
    1.4833   14.6069   -3.0885 H   0  0  0  0  0  0  0  0  0  0  0  0
   -0.2923   14.7831   -3.3780 H   0  0  0  0  0  0  0  0  0  0  0  0
   -1.5189   12.9125   -0.5097 H   0  0  0  0  0  0  0  0  0  0  0  0
   -1.9225   13.7159   -2.0648 H   0  0  0  0  0  0  0  0  0  0  0  0
   -1.1896   12.0759   -2.0648 H   0  0  0  0  0  0  0  0  0  0  0  0
  1  2  1  0
  2  3  1  0
  3  4  1  0
  4  5  1  0
  5  6  1  0
  6  7  1  0
  7  8  1  0
  7  9  1  0
  2 10  1  0
 10 11  1  0
 11 12  1  0
 12 13  1  0
 13 14  1  1
 13 15  1  0
 15 16  1  0
 16 17  1  0
 17 18  2  0
 18 19  1  0
 19 20  1  0
 20 21  1  0
 21 22  1  0
 22 23  1  0
 22 24  1  0
 24 25  1  0
 24 26  1  0
 19 27  1  0
 27 28  1  6
 27 29  1  0
 29 30  1  0
 30 31  1  0
 31 32  1  6
  7  5  1  0
 31 10  1  0
 31 13  1  0
 27 15  1  0
 24 18  1  0
  1 33  1  0
  1 34  1  0
  1 35  1  0
  2 36  1  6
  3 37  1  0
  3 38  1  0
  4 39  1  0
  4 40  1  0
  5 41  1  6
  8 42  1  0
  8 43  1  0
  8 44  1  0
  9 45  1  0
  9 46  1  0
  9 47  1  0
 10 48  1  6
 11 49  1  0
 11 50  1  0
 12 51  1  0
 12 52  1  0
 14 53  1  0
 14 54  1  0
 14 55  1  0
 15 56  1  6
 16 57  1  0
 16 58  1  0
 17 59  1  0
 19 60  1  6
 20 61  1  0
 20 62  1  0
 21 63  1  0
 21 64  1  0
 22 65  1  6
 23 66  1  0
 25 67  1  0
 25 68  1  0
 25 69  1  0
 26 70  1  0
 26 71  1  0
 26 72  1  0
 28 73  1  0
 28 74  1  0
 28 75  1  0
 29 76  1  0
 29 77  1  0
 30 78  1  0
 30 79  1  0
 32 80  1  0
 32 81  1  0
 32 82  1  0
M  END
>  <meeko>  (9) 
{"is_sidechain": [false], "intermolecular_energy": 2.731, "internal_energy": -0.839}

$$$$
EPH_relaxed_0001_pdb2pqr_Repair_170_r2_0001_out
     RDKit          3D

 82 86  0  0  0  0  0  0  0  0999 V2000
   -1.8520   14.6250    0.3010 C   0  0  0  0  0  0  0  0  0  0  0  0
   -0.4920   15.3090    0.4640 C   0  0  2  0  0  0  0  0  0  0  0  0
   -0.3500   16.5450   -0.4470 C   0  0  0  0  0  0  0  0  0  0  0  0
   -1.0160   17.8030    0.1150 C   0  0  0  0  0  0  0  0  0  0  0  0
   -0.4920   19.0470   -0.5370 C   0  0  2  0  0  0  0  0  0  0  0  0
   -1.2970   19.5440   -1.6140 O   0  0  0  0  0  0  0  0  0  0  0  0
    0.0210   19.0910   -1.9640 C   0  0  0  0  0  0  0  0  0  0  0  0
    0.0350   17.8670   -2.8260 C   0  0  0  0  0  0  0  0  0  0  0  0
    0.9540   20.1940   -2.3560 C   0  0  0  0  0  0  0  0  0  0  0  0
    0.6270   14.3160    0.1720 C   0  0  1  0  0  0  0  0  0  0  0  0
    0.8220   13.2830    1.3140 C   0  0  0  0  0  0  0  0  0  0  0  0
    1.2290   11.9460    0.6430 C   0  0  0  0  0  0  0  0  0  0  0  0
    1.5770   12.3310   -0.8140 C   0  0  1  0  0  0  0  0  0  0  0  0
    3.0340   12.8850   -0.7460 C   0  0  0  0  0  0  0  0  0  0  0  0
    1.4400   11.1950   -1.8800 C   0  0  2  0  0  0  0  0  0  0  0  0
    2.3720    9.9890   -1.6700 C   0  0  0  0  0  0  0  0  0  0  0  0
    3.6980   10.0820   -2.3490 C   0  0  0  0  0  0  0  0  0  0  0  0
    4.0190   10.9530   -3.3240 C   0  0  0  0  0  0  0  0  0  0  0  0
    2.9660   11.9040   -3.9070 C   0  0  1  0  0  0  0  0  0  0  0  0
    3.0540   11.8870   -5.4560 C   0  0  0  0  0  0  0  0  0  0  0  0
    4.4600   12.1900   -5.9650 C   0  0  0  0  0  0  0  0  0  0  0  0
    5.4680   11.1880   -5.4100 C   0  0  2  0  0  0  0  0  0  0  0  0
    5.1850    9.8960   -5.9570 O   0  0  0  0  0  0  0  0  0  0  0  0
    5.4640   11.1100   -3.8570 C   0  0  0  0  0  0  0  0  0  0  0  0
    6.0600   12.4130   -3.2700 C   0  0  0  0  0  0  0  0  0  0  0  0
    6.4220    9.9650   -3.4340 C   0  0  0  0  0  0  0  0  0  0  0  0
    1.4810   11.7040   -3.3780 C   0  0  1  0  0  0  0  0  0  0  0  0
    0.7520   10.6230   -4.2350 C   0  0  0  0  0  0  0  0  0  0  0  0
    0.6780   13.0440   -3.5770 C   0  0  0  0  0  0  0  0  0  0  0  0
    0.7570   14.0760   -2.4360 C   0  0  0  0  0  0  0  0  0  0  0  0
    0.4740   13.4190   -1.0810 C   0  0  2  0  0  0  0  0  0  0  0  0
   -0.9940   12.8710   -1.1120 C   0  0  0  0  0  0  0  0  0  0  0  0
   -2.2763   14.4116    1.2932 H   0  0  0  0  0  0  0  0  0  0  0  0
   -2.5319   15.2884   -0.2536 H   0  0  0  0  0  0  0  0  0  0  0  0
   -1.7248   13.6836   -0.2536 H   0  0  0  0  0  0  0  0  0  0  0  0
   -0.4193   15.6565    1.5051 H   0  0  0  0  0  0  0  0  0  0  0  0
    0.7212   16.7521   -0.5869 H   0  0  0  0  0  0  0  0  0  0  0  0
   -0.8585   16.3073   -1.3930 H   0  0  0  0  0  0  0  0  0  0  0  0
   -2.1005   17.7397   -0.0580 H   0  0  0  0  0  0  0  0  0  0  0  0
   -0.7906   17.8588    1.1902 H   0  0  0  0  0  0  0  0  0  0  0  0
   -0.0586   19.3905    0.4139 H   0  0  0  0  0  0  0  0  0  0  0  0
    0.0453   16.9701   -2.1892 H   0  0  0  0  0  0  0  0  0  0  0  0
   -0.8631   17.8555   -3.4611 H   0  0  0  0  0  0  0  0  0  0  0  0
    0.9331   17.8760   -3.4611 H   0  0  0  0  0  0  0  0  0  0  0  0
    1.3579   20.6715   -1.4511 H   0  0  0  0  0  0  0  0  0  0  0  0
    1.7806   19.7805   -2.9525 H   0  0  0  0  0  0  0  0  0  0  0  0
    0.4091   20.9405   -2.9525 H   0  0  0  0  0  0  0  0  0  0  0  0
    1.4629   15.0172    0.0323 H   0  0  0  0  0  0  0  0  0  0  0  0
    1.6145   13.6200    1.9984 H   0  0  0  0  0  0  0  0  0  0  0  0
   -0.1003   13.1652    1.9018 H   0  0  0  0  0  0  0  0  0  0  0  0
    2.1025   11.5081    1.1482 H   0  0  0  0  0  0  0  0  0  0  0  0
    0.4295   11.1923    0.6958 H   0  0  0  0  0  0  0  0  0  0  0  0
    3.3341   12.9991    0.3061 H   0  0  0  0  0  0  0  0  0  0  0  0
    3.7167   12.1837   -1.2481 H   0  0  0  0  0  0  0  0  0  0  0  0
    3.0783   13.8627   -1.2481 H   0  0  0  0  0  0  0  0  0  0  0  0
    0.4216   10.8210   -1.6982 H   0  0  0  0  0  0  0  0  0  0  0  0
    2.5501    9.8811   -0.5899 H   0  0  0  0  0  0  0  0  0  0  0  0
    1.8594    9.1262   -2.1204 H   0  0  0  0  0  0  0  0  0  0  0  0
    4.4795    9.3789   -2.0251 H   0  0  0  0  0  0  0  0  0  0  0  0
    3.2193   12.9056   -3.5293 H   0  0  0  0  0  0  0  0  0  0  0  0
    2.7558   10.8910   -5.8153 H   0  0  0  0  0  0  0  0  0  0  0  0
    2.3843   12.6719   -5.8373 H   0  0  0  0  0  0  0  0  0  0  0  0
    4.4649   12.1348   -7.0636 H   0  0  0  0  0  0  0  0  0  0  0  0
    4.7455   13.1980   -5.6295 H   0  0  0  0  0  0  0  0  0  0  0  0
    6.4703   11.5328   -5.7043 H   0  0  0  0  0  0  0  0  0  0  0  0
    4.2310    9.7360   -5.8520 H   0  0  0  0  0  0  0  0  0  0  0  0
    6.0376   12.3640   -2.1713 H   0  0  0  0  0  0  0  0  0  0  0  0
    7.0997   12.5267   -3.6108 H   0  0  0  0  0  0  0  0  0  0  0  0
    5.4661   13.2739   -3.6108 H   0  0  0  0  0  0  0  0  0  0  0  0
    6.4670    9.9113   -2.3362 H   0  0  0  0  0  0  0  0  0  0  0  0
    6.0503    9.0097   -3.8329 H   0  0  0  0  0  0  0  0  0  0  0  0
    7.4279   10.1624   -3.8329 H   0  0  0  0  0  0  0  0  0  0  0  0
    0.2622    9.8967   -3.5697 H   0  0  0  0  0  0  0  0  0  0  0  0
   -0.0047   11.1073   -4.8697 H   0  0  0  0  0  0  0  0  0  0  0  0
    1.4846   10.1029   -4.8697 H   0  0  0  0  0  0  0  0  0  0  0  0
    1.0572   13.5270   -4.4896 H   0  0  0  0  0  0  0  0  0  0  0  0
   -0.3791   12.7428   -3.6206 H   0  0  0  0  0  0  0  0  0  0  0  0
    1.7647   14.5167   -2.4187 H   0  0  0  0  0  0  0  0  0  0  0  0
   -0.0006   14.8535   -2.6136 H   0  0  0  0  0  0  0  0  0  0  0  0
   -1.3567   12.7356   -0.0824 H   0  0  0  0  0  0  0  0  0  0  0  0
   -1.6419   13.5878   -1.6377 H   0  0  0  0  0  0  0  0  0  0  0  0
   -1.0137   11.9049   -1.6377 H   0  0  0  0  0  0  0  0  0  0  0  0
  1  2  1  0
  2  3  1  0
  3  4  1  0
  4  5  1  0
  5  6  1  0
  6  7  1  0
  7  8  1  0
  7  9  1  0
  2 10  1  0
 10 11  1  0
 11 12  1  0
 12 13  1  0
 13 14  1  1
 13 15  1  0
 15 16  1  0
 16 17  1  0
 17 18  2  0
 18 19  1  0
 19 20  1  0
 20 21  1  0
 21 22  1  0
 22 23  1  0
 22 24  1  0
 24 25  1  0
 24 26  1  0
 19 27  1  0
 27 28  1  6
 27 29  1  0
 29 30  1  0
 30 31  1  0
 31 32  1  6
  7  5  1  0
 31 10  1  0
 31 13  1  0
 27 15  1  0
 24 18  1  0
  1 33  1  0
  1 34  1  0
  1 35  1  0
  2 36  1  1
  3 37  1  0
  3 38  1  0
  4 39  1  0
  4 40  1  0
  5 41  1  1
  8 42  1  0
  8 43  1  0
  8 44  1  0
  9 45  1  0
  9 46  1  0
  9 47  1  0
 10 48  1  6
 11 49  1  0
 11 50  1  0
 12 51  1  0
 12 52  1  0
 14 53  1  0
 14 54  1  0
 14 55  1  0
 15 56  1  1
 16 57  1  0
 16 58  1  0
 17 59  1  0
 19 60  1  1
 20 61  1  0
 20 62  1  0
 21 63  1  0
 21 64  1  0
 22 65  1  6
 23 66  1  0
 25 67  1  0
 25 68  1  0
 25 69  1  0
 26 70  1  0
 26 71  1  0
 26 72  1  0
 28 73  1  0
 28 74  1  0
 28 75  1  0
 29 76  1  0
 29 77  1  0
 30 78  1  0
 30 79  1  0
 32 80  1  0
 32 81  1  0
 32 82  1  0
M  END
>  <meeko>  (10) 
{"is_sidechain": [false], "intermolecular_energy": 2.731, "internal_energy": -0.839}

$$$$
EPH_relaxed_0001_pdb2pqr_Repair_170_r2_0001_out
     RDKit          3D

 82 86  0  0  0  0  0  0  0  0999 V2000
    1.8950   11.9800    4.2220 C   0  0  0  0  0  0  0  0  0  0  0  0
    0.9870   12.4790    3.0940 C   0  0  2  0  0  0  0  0  0  0  0  0
   -0.5030   12.2110    3.3870 C   0  0  0  0  0  0  0  0  0  0  0  0
   -1.3180   13.4820    3.6440 C   0  0  0  0  0  0  0  0  0  0  0  0
   -0.9580   14.1160    4.9530 C   0  0  2  0  0  0  0  0  0  0  0  0
   -0.2320   13.2660    5.8510 O   0  0  0  0  0  0  0  0  0  0  0  0
   -1.5390   13.6760    6.2840 C   0  0  0  0  0  0  0  0  0  0  0  0
   -2.5300   12.5580    6.3710 C   0  0  0  0  0  0  0  0  0  0  0  0
   -1.5190   14.6420    7.4280 C   0  0  0  0  0  0  0  0  0  0  0  0
    1.3850   11.8240    1.7770 C   0  0  1  0  0  0  0  0  0  0  0  0
    0.3880   10.7210    1.3330 C   0  0  0  0  0  0  0  0  0  0  0  0
    0.3230   10.7740   -0.2150 C   0  0  0  0  0  0  0  0  0  0  0  0
    1.5180   11.6660   -0.6250 C   0  0  1  0  0  0  0  0  0  0  0  0
    2.7580   10.7190   -0.5840 C   0  0  0  0  0  0  0  0  0  0  0  0
    1.3950   12.3960   -2.0020 C   0  0  2  0  0  0  0  0  0  0  0  0
    1.2940   11.4690   -3.2260 C   0  0  0  0  0  0  0  0  0  0  0  0
    2.5970   11.1000   -3.8560 C   0  0  0  0  0  0  0  0  0  0  0  0
    3.7730   11.7170   -3.6370 C   0  0  0  0  0  0  0  0  0  0  0  0
    3.8550   12.9670   -2.7530 C   0  0  1  0  0  0  0  0  0  0  0  0
    4.7140   14.0470   -3.4610 C   0  0  0  0  0  0  0  0  0  0  0  0
    6.0900   13.5280   -3.8650 C   0  0  0  0  0  0  0  0  0  0  0  0
    5.9670   12.3200   -4.7910 C   0  0  2  0  0  0  0  0  0  0  0  0
    5.3920   12.7470   -6.0300 O   0  0  0  0  0  0  0  0  0  0  0  0
    5.1130   11.1700   -4.1880 C   0  0  0  0  0  0  0  0  0  0  0  0
    5.8850   10.5080   -3.0190 C   0  0  0  0  0  0  0  0  0  0  0  0
    4.9500   10.0750   -5.2760 C   0  0  0  0  0  0  0  0  0  0  0  0
    2.4670   13.5380   -2.2290 C   0  0  1  0  0  0  0  0  0  0  0  0
    1.8620   14.5150   -3.2830 C   0  0  0  0  0  0  0  0  0  0  0  0
    2.7190   14.3890   -0.9280 C   0  0  0  0  0  0  0  0  0  0  0  0
    2.7110   13.6280    0.4120 C   0  0  0  0  0  0  0  0  0  0  0  0
    1.4720   12.7340    0.5270 C   0  0  2  0  0  0  0  0  0  0  0  0
    0.2090   13.6620    0.5110 C   0  0  0  0  0  0  0  0  0  0  0  0
    1.4430   12.2284    5.1936 H   0  0  0  0  0  0  0  0  0  0  0  0
    2.0145   10.8895    4.1413 H   0  0  0  0  0  0  0  0  0  0  0  0
    2.8796   12.4637    4.1413 H   0  0  0  0  0  0  0  0  0  0  0  0
    1.1186   13.5687    3.0211 H   0  0  0  0  0  0  0  0  0  0  0  0
   -0.9383   11.6881    2.5227 H   0  0  0  0  0  0  0  0  0  0  0  0
   -0.5467   11.6095    4.3069 H   0  0  0  0  0  0  0  0  0  0  0  0
   -1.1227   14.2005    2.8343 H   0  0  0  0  0  0  0  0  0  0  0  0
   -2.3822   13.2059    3.6779 H   0  0  0  0  0  0  0  0  0  0  0  0
   -0.8697   15.1036    4.4767 H   0  0  0  0  0  0  0  0  0  0  0  0
   -2.7328   12.3292    7.4277 H   0  0  0  0  0  0  0  0  0  0  0  0
   -3.4649   12.8573    5.8746 H   0  0  0  0  0  0  0  0  0  0  0  0
   -2.1207   11.6658    5.8746 H   0  0  0  0  0  0  0  0  0  0  0  0
   -1.5305   14.0864    8.3773 H   0  0  0  0  0  0  0  0  0  0  0  0
   -0.6079   15.2560    7.3735 H   0  0  0  0  0  0  0  0  0  0  0  0
   -2.4039   15.2932    7.3735 H   0  0  0  0  0  0  0  0  0  0  0  0
    2.3875   11.4613    2.0479 H   0  0  0  0  0  0  0  0  0  0  0  0
    0.7432    9.7339    1.6637 H   0  0  0  0  0  0  0  0  0  0  0  0
   -0.6054   10.8849    1.7760 H   0  0  0  0  0  0  0  0  0  0  0  0
    0.4261    9.7659   -0.6428 H   0  0  0  0  0  0  0  0  0  0  0  0
   -0.6369   11.1691   -0.5791 H   0  0  0  0  0  0  0  0  0  0  0  0
    3.0276   10.5131    0.4624 H   0  0  0  0  0  0  0  0  0  0  0  0
    2.5150    9.7745   -1.0927 H   0  0  0  0  0  0  0  0  0  0  0  0
    3.6053   11.2021   -1.0927 H   0  0  0  0  0  0  0  0  0  0  0  0
    0.4154   12.8895   -1.9196 H   0  0  0  0  0  0  0  0  0  0  0  0
    0.7947   10.5414   -2.9095 H   0  0  0  0  0  0  0  0  0  0  0  0
    0.7357   12.0317   -3.9887 H   0  0  0  0  0  0  0  0  0  0  0  0
    2.5954   10.2530   -4.5578 H   0  0  0  0  0  0  0  0  0  0  0  0
    4.3481   12.6492   -1.8225 H   0  0  0  0  0  0  0  0  0  0  0  0
    4.1842   14.3821   -4.3649 H   0  0  0  0  0  0  0  0  0  0  0  0
    4.8643   14.8728   -2.7501 H   0  0  0  0  0  0  0  0  0  0  0  0
    6.6374   14.3271   -4.3864 H   0  0  0  0  0  0  0  0  0  0  0  0
    6.6301   13.2211   -2.9572 H   0  0  0  0  0  0  0  0  0  0  0  0
    6.9784   11.9141   -4.9404 H   0  0  0  0  0  0  0  0  0  0  0  0
    4.4370   12.5700   -5.9880 H   0  0  0  0  0  0  0  0  0  0  0  0
    5.4737   10.8607   -2.0617 H   0  0  0  0  0  0  0  0  0  0  0  0
    5.7800    9.4149   -3.0827 H   0  0  0  0  0  0  0  0  0  0  0  0
    6.9493   10.7785   -3.0827 H   0  0  0  0  0  0  0  0  0  0  0  0
    4.8045    9.0973   -4.7933 H   0  0  0  0  0  0  0  0  0  0  0  0
    4.0767   10.3081   -5.9029 H   0  0  0  0  0  0  0  0  0  0  0  0
    5.8534   10.0436   -5.9029 H   0  0  0  0  0  0  0  0  0  0  0  0
    1.3507   15.3407   -2.7665 H   0  0  0  0  0  0  0  0  0  0  0  0
    2.6679   14.9196   -3.9130 H   0  0  0  0  0  0  0  0  0  0  0  0
    1.1407   13.9739   -3.9130 H   0  0  0  0  0  0  0  0  0  0  0  0
    3.7022   14.8713   -1.0310 H   0  0  0  0  0  0  0  0  0  0  0  0
    1.8686   15.0843   -0.8694 H   0  0  0  0  0  0  0  0  0  0  0  0
    3.6135   13.0024    0.4760 H   0  0  0  0  0  0  0  0  0  0  0  0
    2.6921   14.3611    1.2318 H   0  0  0  0  0  0  0  0  0  0  0  0
   -0.0950   13.8854    1.5443 H   0  0  0  0  0  0  0  0  0  0  0  0
    0.4496   14.5997   -0.0113 H   0  0  0  0  0  0  0  0  0  0  0  0
   -0.6140   13.1522   -0.0113 H   0  0  0  0  0  0  0  0  0  0  0  0
  1  2  1  0
  2  3  1  0
  3  4  1  0
  4  5  1  0
  5  6  1  0
  6  7  1  0
  7  8  1  0
  7  9  1  0
  2 10  1  0
 10 11  1  0
 11 12  1  0
 12 13  1  0
 13 14  1  6
 13 15  1  0
 15 16  1  0
 16 17  1  0
 17 18  2  0
 18 19  1  0
 19 20  1  0
 20 21  1  0
 21 22  1  0
 22 23  1  0
 22 24  1  0
 24 25  1  0
 24 26  1  0
 19 27  1  0
 27 28  1  6
 27 29  1  0
 29 30  1  0
 30 31  1  0
 31 32  1  6
  7  5  1  0
 31 10  1  0
 31 13  1  0
 27 15  1  0
 24 18  1  0
  1 33  1  0
  1 34  1  0
  1 35  1  0
  2 36  1  6
  3 37  1  0
  3 38  1  0
  4 39  1  0
  4 40  1  0
  5 41  1  6
  8 42  1  0
  8 43  1  0
  8 44  1  0
  9 45  1  0
  9 46  1  0
  9 47  1  0
 10 48  1  1
 11 49  1  0
 11 50  1  0
 12 51  1  0
 12 52  1  0
 14 53  1  0
 14 54  1  0
 14 55  1  0
 15 56  1  1
 16 57  1  0
 16 58  1  0
 17 59  1  0
 19 60  1  1
 20 61  1  0
 20 62  1  0
 21 63  1  0
 21 64  1  0
 22 65  1  6
 23 66  1  0
 25 67  1  0
 25 68  1  0
 25 69  1  0
 26 70  1  0
 26 71  1  0
 26 72  1  0
 28 73  1  0
 28 74  1  0
 28 75  1  0
 29 76  1  0
 29 77  1  0
 30 78  1  0
 30 79  1  0
 32 80  1  0
 32 81  1  0
 32 82  1  0
M  END
>  <meeko>  (11) 
{"is_sidechain": [false], "intermolecular_energy": 2.731, "internal_energy": -0.839}

$$$$
EPH_relaxed_0001_pdb2pqr_Repair_170_r2_0001_out
     RDKit          3D

 82 86  0  0  0  0  0  0  0  0999 V2000
  -14.3040    6.4410   -0.6940 C   0  0  0  0  0  0  0  0  0  0  0  0
  -13.0130    6.9060   -0.0150 C   0  0  2  0  0  0  0  0  0  0  0  0
  -13.2060    8.2290    0.7540 C   0  0  0  0  0  0  0  0  0  0  0  0
  -14.4710    8.9940    0.3560 C   0  0  0  0  0  0  0  0  0  0  0  0
  -14.1460   10.2600   -0.3770 C   0  0  2  0  0  0  0  0  0  0  0  0
  -15.2870   10.9920   -0.8430 O   0  0  0  0  0  0  0  0  0  0  0  0
  -14.4150   10.4640   -1.8560 C   0  0  0  0  0  0  0  0  0  0  0  0
  -15.0340    9.3880   -2.6920 C   0  0  0  0  0  0  0  0  0  0  0  0
  -13.6360   11.5130   -2.5870 C   0  0  0  0  0  0  0  0  0  0  0  0
  -11.9070    7.0640   -1.0520 C   0  0  1  0  0  0  0  0  0  0  0  0
  -12.1540    8.2580   -2.0130 C   0  0  0  0  0  0  0  0  0  0  0  0
  -10.7640    8.8570   -2.3470 C   0  0  0  0  0  0  0  0  0  0  0  0
   -9.7520    7.8010   -1.8450 C   0  0  1  0  0  0  0  0  0  0  0  0
   -9.7010    6.7260   -2.9760 C   0  0  0  0  0  0  0  0  0  0  0  0
   -8.3250    8.3280   -1.4840 C   0  0  2  0  0  0  0  0  0  0  0  0
   -7.5410    8.9430   -2.6550 C   0  0  0  0  0  0  0  0  0  0  0  0
   -6.6880    7.9890   -3.4230 C   0  0  0  0  0  0  0  0  0  0  0  0
   -6.3320    6.7560   -3.0160 C   0  0  0  0  0  0  0  0  0  0  0  0
   -6.7180    6.2450   -1.6220 C   0  0  1  0  0  0  0  0  0  0  0  0
   -5.4830    5.5880   -0.9520 C   0  0  0  0  0  0  0  0  0  0  0  0
   -4.8560    4.5000   -1.8190 C   0  0  0  0  0  0  0  0  0  0  0  0
   -4.4330    5.0600   -3.1750 C   0  0  2  0  0  0  0  0  0  0  0  0
   -3.3630    5.9890   -2.9760 O   0  0  0  0  0  0  0  0  0  0  0  0
   -5.5940    5.7560   -3.9400 C   0  0  0  0  0  0  0  0  0  0  0  0
   -6.6130    4.6930   -4.4180 C   0  0  0  0  0  0  0  0  0  0  0  0
   -5.0020    6.3990   -5.2230 C   0  0  0  0  0  0  0  0  0  0  0  0
   -7.4400    7.2960   -0.6740 C   0  0  1  0  0  0  0  0  0  0  0  0
   -6.3750    8.1340    0.0990 C   0  0  0  0  0  0  0  0  0  0  0  0
   -8.2700    6.5200    0.4160 C   0  0  0  0  0  0  0  0  0  0  0  0
   -9.7140    6.1320    0.0420 C   0  0  0  0  0  0  0  0  0  0  0  0
  -10.4740    7.3330   -0.5290 C   0  0  2  0  0  0  0  0  0  0  0  0
  -10.5610    8.4220    0.5940 C   0  0  0  0  0  0  0  0  0  0  0  0
  -15.0459    6.1738    0.0729 H   0  0  0  0  0  0  0  0  0  0  0  0
  -14.7012    7.2526   -1.3214 H   0  0  0  0  0  0  0  0  0  0  0  0
  -14.0925    5.5626   -1.3214 H   0  0  0  0  0  0  0  0  0  0  0  0
  -12.7287    6.1358    0.7171 H   0  0  0  0  0  0  0  0  0  0  0  0
  -13.2619    8.0009    1.8286 H   0  0  0  0  0  0  0  0  0  0  0  0
  -12.3496    8.8730    0.5053 H   0  0  0  0  0  0  0  0  0  0  0  0
  -15.0852    8.3535   -0.2940 H   0  0  0  0  0  0  0  0  0  0  0  0
  -15.0142    9.2598    1.2749 H   0  0  0  0  0  0  0  0  0  0  0  0
  -13.2456   10.4111    0.2365 H   0  0  0  0  0  0  0  0  0  0  0  0
  -15.4745    8.6222   -2.0366 H   0  0  0  0  0  0  0  0  0  0  0  0
  -15.8197    9.8233   -3.3269 H   0  0  0  0  0  0  0  0  0  0  0  0
  -14.2627    8.9276   -3.3269 H   0  0  0  0  0  0  0  0  0  0  0  0
  -13.1433   12.1764   -1.8609 H   0  0  0  0  0  0  0  0  0  0  0  0
  -12.8751   11.0312   -3.2186 H   0  0  0  0  0  0  0  0  0  0  0  0
  -14.3172   12.1021   -3.2186 H   0  0  0  0  0  0  0  0  0  0  0  0
  -11.9548    6.0715   -1.5239 H   0  0  0  0  0  0  0  0  0  0  0  0
  -12.6470    7.9089   -2.9323 H   0  0  0  0  0  0  0  0  0  0  0  0
  -12.8076    9.0109   -1.5482 H   0  0  0  0  0  0  0  0  0  0  0  0
  -10.6582    9.0114   -3.4310 H   0  0  0  0  0  0  0  0  0  0  0  0
  -10.6095    9.8391   -1.8762 H   0  0  0  0  0  0  0  0  0  0  0  0
   -9.6534    5.7231   -2.5267 H   0  0  0  0  0  0  0  0  0  0  0  0
  -10.6040    6.8062   -3.5991 H   0  0  0  0  0  0  0  0  0  0  0  0
   -8.8097    6.8913   -3.5991 H   0  0  0  0  0  0  0  0  0  0  0  0
   -8.5466    9.1629   -0.8029 H   0  0  0  0  0  0  0  0  0  0  0  0
   -8.2658    9.3881   -3.3526 H   0  0  0  0  0  0  0  0  0  0  0  0
   -6.8520    9.6750   -2.2084 H   0  0  0  0  0  0  0  0  0  0  0  0
   -6.3190    8.3214   -4.4045 H   0  0  0  0  0  0  0  0  0  0  0  0
   -7.5024    5.4903   -1.7805 H   0  0  0  0  0  0  0  0  0  0  0  0
   -4.7289    6.3662   -0.7627 H   0  0  0  0  0  0  0  0  0  0  0  0
   -5.8217    5.1164   -0.0177 H   0  0  0  0  0  0  0  0  0  0  0  0
   -3.9719    4.0948   -1.3050 H   0  0  0  0  0  0  0  0  0  0  0  0
   -5.6017    3.7081   -1.9830 H   0  0  0  0  0  0  0  0  0  0  0  0
   -4.1122    4.2114   -3.7970 H   0  0  0  0  0  0  0  0  0  0  0  0
   -3.3280    6.2000   -2.0280 H   0  0  0  0  0  0  0  0  0  0  0  0
   -7.0759    4.2101   -3.5448 H   0  0  0  0  0  0  0  0  0  0  0  0
   -7.3919    5.1783   -5.0244 H   0  0  0  0  0  0  0  0  0  0  0  0
   -6.0952    3.9353   -5.0244 H   0  0  0  0  0  0  0  0  0  0  0  0
   -4.2816    7.1814   -4.9421 H   0  0  0  0  0  0  0  0  0  0  0  0
   -4.4917    5.6273   -5.8180 H   0  0  0  0  0  0  0  0  0  0  0  0
   -5.8132    6.8439   -5.8180 H   0  0  0  0  0  0  0  0  0  0  0  0
   -6.5285    8.0132    1.1815 H   0  0  0  0  0  0  0  0  0  0  0  0
   -5.3674    7.7840   -0.1697 H   0  0  0  0  0  0  0  0  0  0  0  0
   -6.4782    9.1957   -0.1697 H   0  0  0  0  0  0  0  0  0  0  0  0
   -7.7264    5.5931    0.6512 H   0  0  0  0  0  0  0  0  0  0  0  0
   -8.3686    7.2218    1.2573 H   0  0  0  0  0  0  0  0  0  0  0  0
   -9.6877    5.3313   -0.7118 H   0  0  0  0  0  0  0  0  0  0  0  0
  -10.2314    5.7890    0.9501 H   0  0  0  0  0  0  0  0  0  0  0  0
  -10.5222    7.9359    1.5800 H   0  0  0  0  0  0  0  0  0  0  0  0
   -9.7157    9.1189    0.4952 H   0  0  0  0  0  0  0  0  0  0  0  0
  -11.5063    8.9758    0.4952 H   0  0  0  0  0  0  0  0  0  0  0  0
  1  2  1  0
  2  3  1  0
  3  4  1  0
  4  5  1  0
  5  6  1  0
  6  7  1  0
  7  8  1  0
  7  9  1  0
  2 10  1  0
 10 11  1  0
 11 12  1  0
 12 13  1  0
 13 14  1  6
 13 15  1  0
 15 16  1  0
 16 17  1  0
 17 18  2  0
 18 19  1  0
 19 20  1  0
 20 21  1  0
 21 22  1  0
 22 23  1  0
 22 24  1  0
 24 25  1  0
 24 26  1  0
 19 27  1  0
 27 28  1  1
 27 29  1  0
 29 30  1  0
 30 31  1  0
 31 32  1  1
  7  5  1  0
 31 10  1  0
 31 13  1  0
 27 15  1  0
 24 18  1  0
  1 33  1  0
  1 34  1  0
  1 35  1  0
  2 36  1  1
  3 37  1  0
  3 38  1  0
  4 39  1  0
  4 40  1  0
  5 41  1  1
  8 42  1  0
  8 43  1  0
  8 44  1  0
  9 45  1  0
  9 46  1  0
  9 47  1  0
 10 48  1  6
 11 49  1  0
 11 50  1  0
 12 51  1  0
 12 52  1  0
 14 53  1  0
 14 54  1  0
 14 55  1  0
 15 56  1  1
 16 57  1  0
 16 58  1  0
 17 59  1  0
 19 60  1  6
 20 61  1  0
 20 62  1  0
 21 63  1  0
 21 64  1  0
 22 65  1  6
 23 66  1  0
 25 67  1  0
 25 68  1  0
 25 69  1  0
 26 70  1  0
 26 71  1  0
 26 72  1  0
 28 73  1  0
 28 74  1  0
 28 75  1  0
 29 76  1  0
 29 77  1  0
 30 78  1  0
 30 79  1  0
 32 80  1  0
 32 81  1  0
 32 82  1  0
M  END
>  <meeko>  (12) 
{"is_sidechain": [false], "intermolecular_energy": 2.731, "internal_energy": -0.839}

$$$$
EPH_relaxed_0001_pdb2pqr_Repair_170_r2_0001_out
     RDKit          3D

 82 86  0  0  0  0  0  0  0  0999 V2000
  -15.0600    8.9160    0.8190 C   0  0  0  0  0  0  0  0  0  0  0  0
  -14.2090    9.1040   -0.4400 C   0  0  2  0  0  0  0  0  0  0  0  0
  -14.5930    8.1100   -1.5540 C   0  0  0  0  0  0  0  0  0  0  0  0
  -14.7280    8.7560   -2.9360 C   0  0  0  0  0  0  0  0  0  0  0  0
  -15.2860   10.1440   -2.8470 C   0  0  2  0  0  0  0  0  0  0  0  0
  -14.9940   10.9800   -3.9740 O   0  0  0  0  0  0  0  0  0  0  0  0
  -14.4250   11.3860   -2.7190 C   0  0  0  0  0  0  0  0  0  0  0  0
  -12.9310   11.2990   -2.6720 C   0  0  0  0  0  0  0  0  0  0  0  0
  -15.0390   12.6280   -2.1510 C   0  0  0  0  0  0  0  0  0  0  0  0
  -12.7320    8.9560   -0.0950 C   0  0  1  0  0  0  0  0  0  0  0  0
  -12.4790    8.8900    1.4350 C   0  0  0  0  0  0  0  0  0  0  0  0
  -11.2880    7.9210    1.6500 C   0  0  0  0  0  0  0  0  0  0  0  0
  -10.6860    7.7240    0.2390 C   0  0  1  0  0  0  0  0  0  0  0  0
   -9.7870    8.9790    0.0070 C   0  0  0  0  0  0  0  0  0  0  0  0
   -9.8940    6.3960    0.0050 C   0  0  2  0  0  0  0  0  0  0  0  0
   -8.6410    6.2210    0.8790 C   0  0  0  0  0  0  0  0  0  0  0  0
   -7.3740    6.7500    0.2920 C   0  0  0  0  0  0  0  0  0  0  0  0
   -7.1900    7.0840   -0.9980 C   0  0  0  0  0  0  0  0  0  0  0  0
   -8.2930    6.8470   -2.0380 C   0  0  1  0  0  0  0  0  0  0  0  0
   -7.6810    6.1860   -3.3010 C   0  0  0  0  0  0  0  0  0  0  0  0
   -6.5070    6.9790   -3.8660 C   0  0  0  0  0  0  0  0  0  0  0  0
   -5.4060    7.1440   -2.8210 C   0  0  2  0  0  0  0  0  0  0  0  0
   -4.8400    5.8590   -2.5430 O   0  0  0  0  0  0  0  0  0  0  0  0
   -5.9070    7.7910   -1.5000 C   0  0  0  0  0  0  0  0  0  0  0  0
   -6.2390    9.2840   -1.7460 C   0  0  0  0  0  0  0  0  0  0  0  0
   -4.7340    7.7700   -0.4830 C   0  0  0  0  0  0  0  0  0  0  0  0
   -9.5860    6.0850   -1.5160 C   0  0  1  0  0  0  0  0  0  0  0  0
   -9.3740    4.5440   -1.6210 C   0  0  0  0  0  0  0  0  0  0  0  0
  -10.8010    6.4310   -2.4560 C   0  0  0  0  0  0  0  0  0  0  0  0
  -11.6170    7.6890   -2.1020 C   0  0  0  0  0  0  0  0  0  0  0  0
  -12.0020    7.6940   -0.6200 C   0  0  2  0  0  0  0  0  0  0  0  0
  -12.9250    6.4540   -0.3610 C   0  0  0  0  0  0  0  0  0  0  0  0
  -14.4311    9.0549    1.7108 H   0  0  0  0  0  0  0  0  0  0  0  0
  -15.8738    9.6560    0.8253 H   0  0  0  0  0  0  0  0  0  0  0  0
  -15.4864    7.9020    0.8253 H   0  0  0  0  0  0  0  0  0  0  0  0
  -14.4016   10.1174   -0.8220 H   0  0  0  0  0  0  0  0  0  0  0  0
  -13.8167    7.3326   -1.6084 H   0  0  0  0  0  0  0  0  0  0  0  0
  -15.5799    7.7002   -1.2930 H   0  0  0  0  0  0  0  0  0  0  0  0
  -13.7350    8.8005   -3.4072 H   0  0  0  0  0  0  0  0  0  0  0  0
  -15.4210    8.1455   -3.5336 H   0  0  0  0  0  0  0  0  0  0  0  0
  -16.1513    9.7839   -2.2711 H   0  0  0  0  0  0  0  0  0  0  0  0
  -12.5976   11.2796   -1.6239 H   0  0  0  0  0  0  0  0  0  0  0  0
  -12.6011   10.3801   -3.1788 H   0  0  0  0  0  0  0  0  0  0  0  0
  -12.4967   12.1734   -3.1788 H   0  0  0  0  0  0  0  0  0  0  0  0
  -15.0150   12.5795   -1.0523 H   0  0  0  0  0  0  0  0  0  0  0  0
  -14.4714   13.5065   -2.4917 H   0  0  0  0  0  0  0  0  0  0  0  0
  -16.0817   12.7104   -2.4917 H   0  0  0  0  0  0  0  0  0  0  0  0
  -12.3360    9.8539   -0.5919 H   0  0  0  0  0  0  0  0  0  0  0  0
  -12.2288    9.8892    1.8210 H   0  0  0  0  0  0  0  0  0  0  0  0
  -13.3747    8.5394    1.9687 H   0  0  0  0  0  0  0  0  0  0  0  0
  -10.5456    8.3631    2.3307 H   0  0  0  0  0  0  0  0  0  0  0  0
  -11.6007    6.9704    2.1067 H   0  0  0  0  0  0  0  0  0  0  0  0
   -9.4861    9.3991    0.9781 H   0  0  0  0  0  0  0  0  0  0  0  0
   -8.8906    8.6881   -0.5603 H   0  0  0  0  0  0  0  0  0  0  0  0
  -10.3509    9.7342   -0.5603 H   0  0  0  0  0  0  0  0  0  0  0  0
  -10.6069    5.6323    0.3494 H   0  0  0  0  0  0  0  0  0  0  0  0
   -8.8166    6.7406    1.8325 H   0  0  0  0  0  0  0  0  0  0  0  0
   -8.4957    5.1361    0.9882 H   0  0  0  0  0  0  0  0  0  0  0  0
   -6.5188    6.8773    0.9720 H   0  0  0  0  0  0  0  0  0  0  0  0
   -8.6895    7.8410   -2.2923 H   0  0  0  0  0  0  0  0  0  0  0  0
   -7.3304    5.1775   -3.0364 H   0  0  0  0  0  0  0  0  0  0  0  0
   -8.4639    6.1531   -4.0730 H   0  0  0  0  0  0  0  0  0  0  0  0
   -6.0990    6.4462   -4.7376 H   0  0  0  0  0  0  0  0  0  0  0  0
   -6.8658    7.9769   -4.1582 H   0  0  0  0  0  0  0  0  0  0  0  0
   -4.6533    7.8286   -3.2391 H   0  0  0  0  0  0  0  0  0  0  0  0
   -3.8750    5.9690   -2.4890 H   0  0  0  0  0  0  0  0  0  0  0  0
   -6.3533    9.7981   -0.7803 H   0  0  0  0  0  0  0  0  0  0  0  0
   -5.4230    9.7520   -2.3162 H   0  0  0  0  0  0  0  0  0  0  0  0
   -7.1764    9.3620   -2.3162 H   0  0  0  0  0  0  0  0  0  0  0  0
   -5.1362    7.7772    0.5408 H   0  0  0  0  0  0  0  0  0  0  0  0
   -4.1335    6.8610   -0.6346 H   0  0  0  0  0  0  0  0  0  0  0  0
   -4.1013    8.6570   -0.6346 H   0  0  0  0  0  0  0  0  0  0  0  0
   -9.3146    4.1124   -0.6110 H   0  0  0  0  0  0  0  0  0  0  0  0
  -10.2187    4.0938   -2.1631 H   0  0  0  0  0  0  0  0  0  0  0  0
   -8.4391    4.3386   -2.1631 H   0  0  0  0  0  0  0  0  0  0  0  0
  -10.4064    6.5659   -3.4739 H   0  0  0  0  0  0  0  0  0  0  0  0
  -11.5022    5.5913   -2.3409 H   0  0  0  0  0  0  0  0  0  0  0  0
  -11.0134    8.5824   -2.3199 H   0  0  0  0  0  0  0  0  0  0  0  0
  -12.5380    7.6902   -2.7035 H   0  0  0  0  0  0  0  0  0  0  0  0
  -13.0386    6.3014    0.7224 H   0  0  0  0  0  0  0  0  0  0  0  0
  -13.9126    6.6315   -0.8118 H   0  0  0  0  0  0  0  0  0  0  0  0
  -12.4716    5.5589   -0.8118 H   0  0  0  0  0  0  0  0  0  0  0  0
  1  2  1  0
  2  3  1  0
  3  4  1  0
  4  5  1  0
  5  6  1  0
  6  7  1  0
  7  8  1  0
  7  9  1  0
  2 10  1  0
 10 11  1  0
 11 12  1  0
 12 13  1  0
 13 14  1  6
 13 15  1  0
 15 16  1  0
 16 17  1  0
 17 18  2  0
 18 19  1  0
 19 20  1  0
 20 21  1  0
 21 22  1  0
 22 23  1  0
 22 24  1  0
 24 25  1  0
 24 26  1  0
 19 27  1  0
 27 28  1  1
 27 29  1  0
 29 30  1  0
 30 31  1  0
 31 32  1  1
  7  5  1  0
 31 10  1  0
 31 13  1  0
 27 15  1  0
 24 18  1  0
  1 33  1  0
  1 34  1  0
  1 35  1  0
  2 36  1  6
  3 37  1  0
  3 38  1  0
  4 39  1  0
  4 40  1  0
  5 41  1  1
  8 42  1  0
  8 43  1  0
  8 44  1  0
  9 45  1  0
  9 46  1  0
  9 47  1  0
 10 48  1  6
 11 49  1  0
 11 50  1  0
 12 51  1  0
 12 52  1  0
 14 53  1  0
 14 54  1  0
 14 55  1  0
 15 56  1  1
 16 57  1  0
 16 58  1  0
 17 59  1  0
 19 60  1  6
 20 61  1  0
 20 62  1  0
 21 63  1  0
 21 64  1  0
 22 65  1  6
 23 66  1  0
 25 67  1  0
 25 68  1  0
 25 69  1  0
 26 70  1  0
 26 71  1  0
 26 72  1  0
 28 73  1  0
 28 74  1  0
 28 75  1  0
 29 76  1  0
 29 77  1  0
 30 78  1  0
 30 79  1  0
 32 80  1  0
 32 81  1  0
 32 82  1  0
M  END
>  <meeko>  (13) 
{"is_sidechain": [false], "intermolecular_energy": 2.731, "internal_energy": -0.839}

$$$$
EPH_relaxed_0001_pdb2pqr_Repair_170_r2_0001_out
     RDKit          3D

 82 86  0  0  0  0  0  0  0  0999 V2000
    2.6090   14.0630   -2.2810 C   0  0  0  0  0  0  0  0  0  0  0  0
    1.5260   13.9340   -3.3560 C   0  0  2  0  0  0  0  0  0  0  0  0
    0.3630   14.9200   -3.1300 C   0  0  0  0  0  0  0  0  0  0  0  0
    0.7530   16.1550   -2.3130 C   0  0  0  0  0  0  0  0  0  0  0  0
    0.3660   17.4250   -3.0080 C   0  0  2  0  0  0  0  0  0  0  0  0
    1.1970   18.5520   -2.7020 O   0  0  0  0  0  0  0  0  0  0  0  0
   -0.1750   18.6440   -2.2850 C   0  0  0  0  0  0  0  0  0  0  0  0
   -0.3600   18.6510   -0.8000 C   0  0  0  0  0  0  0  0  0  0  0  0
   -0.9760   19.6410   -3.0620 C   0  0  0  0  0  0  0  0  0  0  0  0
    0.9970   12.5050   -3.3910 C   0  0  1  0  0  0  0  0  0  0  0  0
    2.1170   11.4600   -3.6440 C   0  0  0  0  0  0  0  0  0  0  0  0
    1.7400   10.1950   -2.8300 C   0  0  0  0  0  0  0  0  0  0  0  0
    0.2700   10.4260   -2.4080 C   0  0  1  0  0  0  0  0  0  0  0  0
   -0.5740   10.0260   -3.6590 C   0  0  0  0  0  0  0  0  0  0  0  0
   -0.2070    9.6710   -1.1250 C   0  0  2  0  0  0  0  0  0  0  0  0
   -0.1730    8.1360   -1.2200 C   0  0  0  0  0  0  0  0  0  0  0  0
   -1.4280    7.5000   -1.7200 C   0  0  0  0  0  0  0  0  0  0  0  0
   -2.6280    8.1020   -1.8080 C   0  0  0  0  0  0  0  0  0  0  0  0
   -2.8330    9.5310   -1.2900 C   0  0  1  0  0  0  0  0  0  0  0  0
   -4.1320    9.5940   -0.4440 C   0  0  0  0  0  0  0  0  0  0  0  0
   -5.3480    9.0680   -1.2000 C   0  0  0  0  0  0  0  0  0  0  0  0
   -5.1290    7.6250   -1.6480 C   0  0  2  0  0  0  0  0  0  0  0  0
   -5.0660    6.7870   -0.4900 O   0  0  0  0  0  0  0  0  0  0  0  0
   -3.8430    7.4370   -2.5010 C   0  0  0  0  0  0  0  0  0  0  0  0
   -4.0360    8.1000   -3.8870 C   0  0  0  0  0  0  0  0  0  0  0  0
   -3.6660    5.9180   -2.7670 C   0  0  0  0  0  0  0  0  0  0  0  0
   -1.5890   10.1840   -0.5470 C   0  0  1  0  0  0  0  0  0  0  0  0
   -1.6100    9.8000    0.9640 C   0  0  0  0  0  0  0  0  0  0  0  0
   -1.7180   11.7520   -0.6090 C   0  0  0  0  0  0  0  0  0  0  0  0
   -1.1210   12.4500   -1.8460 C   0  0  0  0  0  0  0  0  0  0  0  0
    0.3090   11.9690   -2.1100 C   0  0  2  0  0  0  0  0  0  0  0  0
    1.1870   12.3770   -0.8780 C   0  0  0  0  0  0  0  0  0  0  0  0
    2.1454   14.0078   -1.2850 H   0  0  0  0  0  0  0  0  0  0  0  0
    3.3360   13.2451   -2.3929 H   0  0  0  0  0  0  0  0  0  0  0  0
    3.1235   15.0288   -2.3929 H   0  0  0  0  0  0  0  0  0  0  0  0
    1.9877   14.1841   -4.3226 H   0  0  0  0  0  0  0  0  0  0  0  0
   -0.0043   15.2546   -4.1114 H   0  0  0  0  0  0  0  0  0  0  0  0
   -0.4060   14.3836   -2.5547 H   0  0  0  0  0  0  0  0  0  0  0  0
    0.2444   16.1128   -1.3385 H   0  0  0  0  0  0  0  0  0  0  0  0
    1.8459   16.1521   -2.1881 H   0  0  0  0  0  0  0  0  0  0  0  0
    0.0018   16.8634   -3.8809 H   0  0  0  0  0  0  0  0  0  0  0  0
    0.6231   18.6138   -0.3079 H   0  0  0  0  0  0  0  0  0  0  0  0
   -0.8856   19.5697   -0.5003 H   0  0  0  0  0  0  0  0  0  0  0  0
   -0.9535   17.7747   -0.5003 H   0  0  0  0  0  0  0  0  0  0  0  0
   -1.5095   20.3051   -2.3660 H   0  0  0  0  0  0  0  0  0  0  0  0
   -0.3035   20.2379   -3.6956 H   0  0  0  0  0  0  0  0  0  0  0  0
   -1.7038   19.1129   -3.6956 H   0  0  0  0  0  0  0  0  0  0  0  0
    0.2597   12.6011   -4.2016 H   0  0  0  0  0  0  0  0  0  0  0  0
    2.1743   11.2179   -4.7155 H   0  0  0  0  0  0  0  0  0  0  0  0
    3.0983   11.8501   -3.3361 H   0  0  0  0  0  0  0  0  0  0  0  0
    1.8280    9.2923   -3.4524 H   0  0  0  0  0  0  0  0  0  0  0  0
    2.4030   10.0424   -1.9656 H   0  0  0  0  0  0  0  0  0  0  0  0
   -1.5232    9.5762   -3.3324 H   0  0  0  0  0  0  0  0  0  0  0  0
   -0.7814   10.9216   -4.2630 H   0  0  0  0  0  0  0  0  0  0  0  0
   -0.0121    9.2984   -4.2630 H   0  0  0  0  0  0  0  0  0  0  0  0
    0.5666    9.9417   -0.3913 H   0  0  0  0  0  0  0  0  0  0  0  0
    0.6446    7.8556   -1.9004 H   0  0  0  0  0  0  0  0  0  0  0  0
   -0.0354    7.7704   -0.1917 H   0  0  0  0  0  0  0  0  0  0  0  0
   -1.3662    6.4505   -2.0438 H   0  0  0  0  0  0  0  0  0  0  0  0
   -2.9376   10.1658   -2.1823 H   0  0  0  0  0  0  0  0  0  0  0  0
   -3.9917    8.9882    0.4634 H   0  0  0  0  0  0  0  0  0  0  0  0
   -4.3211   10.6499   -0.2004 H   0  0  0  0  0  0  0  0  0  0  0  0
   -6.2279    9.1109   -0.5412 H   0  0  0  0  0  0  0  0  0  0  0  0
   -5.5046    9.6928   -2.0917 H   0  0  0  0  0  0  0  0  0  0  0  0
   -5.9759    7.3474   -2.2927 H   0  0  0  0  0  0  0  0  0  0  0  0
   -5.6330    6.0150   -0.6540 H   0  0  0  0  0  0  0  0  0  0  0  0
   -4.3411    9.1483   -3.7527 H   0  0  0  0  0  0  0  0  0  0  0  0
   -3.0896    8.0624   -4.4464 H   0  0  0  0  0  0  0  0  0  0  0  0
   -4.8143    7.5603   -4.4464 H   0  0  0  0  0  0  0  0  0  0  0  0
   -3.6036    5.3827   -1.8081 H   0  0  0  0  0  0  0  0  0  0  0  0
   -4.5266    5.5435   -3.3407 H   0  0  0  0  0  0  0  0  0  0  0  0
   -2.7424    5.7514   -3.3407 H   0  0  0  0  0  0  0  0  0  0  0  0
   -1.5601   10.7132    1.5751 H   0  0  0  0  0  0  0  0  0  0  0  0
   -2.5392    9.2570    1.1914 H   0  0  0  0  0  0  0  0  0  0  0  0
   -0.7456    9.1589    1.1914 H   0  0  0  0  0  0  0  0  0  0  0  0
   -2.7892   11.9995   -0.5719 H   0  0  0  0  0  0  0  0  0  0  0  0
   -1.1292   12.1230    0.2429 H   0  0  0  0  0  0  0  0  0  0  0  0
   -1.7447   12.2231   -2.7232 H   0  0  0  0  0  0  0  0  0  0  0  0
   -1.0978   13.5339   -1.6601 H   0  0  0  0  0  0  0  0  0  0  0  0
    0.6530   12.1288    0.0511 H   0  0  0  0  0  0  0  0  0  0  0  0
    2.1407   11.8298   -0.9101 H   0  0  0  0  0  0  0  0  0  0  0  0
    1.3837   13.4588   -0.9101 H   0  0  0  0  0  0  0  0  0  0  0  0
  1  2  1  0
  2  3  1  0
  3  4  1  0
  4  5  1  0
  5  6  1  0
  6  7  1  0
  7  8  1  0
  7  9  1  0
  2 10  1  0
 10 11  1  0
 11 12  1  0
 12 13  1  0
 13 14  1  6
 13 15  1  0
 15 16  1  0
 16 17  1  0
 17 18  2  0
 18 19  1  0
 19 20  1  0
 20 21  1  0
 21 22  1  0
 22 23  1  0
 22 24  1  0
 24 25  1  0
 24 26  1  0
 19 27  1  0
 27 28  1  1
 27 29  1  0
 29 30  1  0
 30 31  1  0
 31 32  1  1
  7  5  1  0
 31 10  1  0
 31 13  1  0
 27 15  1  0
 24 18  1  0
  1 33  1  0
  1 34  1  0
  1 35  1  0
  2 36  1  6
  3 37  1  0
  3 38  1  0
  4 39  1  0
  4 40  1  0
  5 41  1  6
  8 42  1  0
  8 43  1  0
  8 44  1  0
  9 45  1  0
  9 46  1  0
  9 47  1  0
 10 48  1  6
 11 49  1  0
 11 50  1  0
 12 51  1  0
 12 52  1  0
 14 53  1  0
 14 54  1  0
 14 55  1  0
 15 56  1  1
 16 57  1  0
 16 58  1  0
 17 59  1  0
 19 60  1  6
 20 61  1  0
 20 62  1  0
 21 63  1  0
 21 64  1  0
 22 65  1  6
 23 66  1  0
 25 67  1  0
 25 68  1  0
 25 69  1  0
 26 70  1  0
 26 71  1  0
 26 72  1  0
 28 73  1  0
 28 74  1  0
 28 75  1  0
 29 76  1  0
 29 77  1  0
 30 78  1  0
 30 79  1  0
 32 80  1  0
 32 81  1  0
 32 82  1  0
M  END
>  <meeko>  (14) 
{"is_sidechain": [false], "intermolecular_energy": 2.731, "internal_energy": -0.839}

$$$$
EPH_relaxed_0001_pdb2pqr_Repair_170_r2_0001_out
     RDKit          3D

 82 86  0  0  0  0  0  0  0  0999 V2000
  -13.7310    9.7530    1.1340 C   0  0  0  0  0  0  0  0  0  0  0  0
  -13.1150    9.3750   -0.2150 C   0  0  2  0  0  0  0  0  0  0  0  0
  -14.1080    8.6120   -1.1150 C   0  0  0  0  0  0  0  0  0  0  0  0
  -15.2870    9.4650   -1.5910 C   0  0  0  0  0  0  0  0  0  0  0  0
  -15.0940    9.9410   -2.9990 C   0  0  2  0  0  0  0  0  0  0  0  0
  -13.8270   10.5630   -3.2520 O   0  0  0  0  0  0  0  0  0  0  0  0
  -14.9840   11.4060   -3.3790 C   0  0  0  0  0  0  0  0  0  0  0  0
  -15.0640   12.4880   -2.3480 C   0  0  0  0  0  0  0  0  0  0  0  0
  -15.2870   11.8040   -4.7900 C   0  0  0  0  0  0  0  0  0  0  0  0
  -11.8600    8.5380    0.0030 C   0  0  1  0  0  0  0  0  0  0  0  0
  -12.1010    7.3390    0.9580 C   0  0  0  0  0  0  0  0  0  0  0  0
  -11.2120    6.1750    0.4480 C   0  0  0  0  0  0  0  0  0  0  0  0
  -10.2510    6.8350   -0.5690 C   0  0  1  0  0  0  0  0  0  0  0  0
   -9.1270    7.4790    0.3020 C   0  0  0  0  0  0  0  0  0  0  0  0
   -9.6620    5.8960   -1.6710 C   0  0  2  0  0  0  0  0  0  0  0  0
   -8.7830    4.7470   -1.1480 C   0  0  0  0  0  0  0  0  0  0  0  0
   -7.3280    5.0590   -1.0320 C   0  0  0  0  0  0  0  0  0  0  0  0
   -6.7050    6.1090   -1.5980 C   0  0  0  0  0  0  0  0  0  0  0  0
   -7.4620    7.0650   -2.5300 C   0  0  1  0  0  0  0  0  0  0  0  0
   -6.6150    7.3260   -3.8030 C   0  0  0  0  0  0  0  0  0  0  0  0
   -5.2080    7.8200   -3.4780 C   0  0  0  0  0  0  0  0  0  0  0  0
   -4.4670    6.8160   -2.5980 C   0  0  2  0  0  0  0  0  0  0  0  0
   -4.2380    5.6230   -3.3540 O   0  0  0  0  0  0  0  0  0  0  0  0
   -5.2310    6.4680   -1.2900 C   0  0  0  0  0  0  0  0  0  0  0  0
   -5.2160    7.6900   -0.3380 C   0  0  0  0  0  0  0  0  0  0  0  0
   -4.4450    5.3430   -0.5640 C   0  0  0  0  0  0  0  0  0  0  0  0
   -8.9620    6.6610   -2.8670 C   0  0  1  0  0  0  0  0  0  0  0  0
   -8.9910    5.6950   -4.0910 C   0  0  0  0  0  0  0  0  0  0  0  0
   -9.7560    7.9500   -3.3000 C   0  0  0  0  0  0  0  0  0  0  0  0
  -10.4170    8.7690   -2.1750 C   0  0  0  0  0  0  0  0  0  0  0  0
  -11.2290    7.8650   -1.2420 C   0  0  2  0  0  0  0  0  0  0  0  0
  -12.3820    7.2210   -2.0850 C   0  0  0  0  0  0  0  0  0  0  0  0
  -13.0994    9.3654    1.9470 H   0  0  0  0  0  0  0  0  0  0  0  0
  -13.7984   10.8481    1.2123 H   0  0  0  0  0  0  0  0  0  0  0  0
  -14.7379    9.3171    1.2123 H   0  0  0  0  0  0  0  0  0  0  0  0
  -12.8534   10.3099   -0.7322 H   0  0  0  0  0  0  0  0  0  0  0  0
  -13.5651    8.2457   -1.9988 H   0  0  0  0  0  0  0  0  0  0  0  0
  -14.5263    7.7935   -0.5108 H   0  0  0  0  0  0  0  0  0  0  0  0
  -16.2060    8.8625   -1.5412 H   0  0  0  0  0  0  0  0  0  0  0  0
  -15.3580   10.3470   -0.9375 H   0  0  0  0  0  0  0  0  0  0  0  0
  -15.7194    9.1233   -3.3865 H   0  0  0  0  0  0  0  0  0  0  0  0
  -15.0309   12.0406   -1.3436 H   0  0  0  0  0  0  0  0  0  0  0  0
  -14.2142   13.1755   -2.4713 H   0  0  0  0  0  0  0  0  0  0  0  0
  -16.0056   13.0431   -2.4713 H   0  0  0  0  0  0  0  0  0  0  0  0
  -15.9533   12.6792   -4.7891 H   0  0  0  0  0  0  0  0  0  0  0  0
  -14.3505   12.0567   -5.3089 H   0  0  0  0  0  0  0  0  0  0  0  0
  -15.7798   10.9686   -5.3089 H   0  0  0  0  0  0  0  0  0  0  0  0
  -11.1856    9.3143    0.3936 H   0  0  0  0  0  0  0  0  0  0  0  0
  -11.8172    7.6102    1.9856 H   0  0  0  0  0  0  0  0  0  0  0  0
  -13.1623    7.0499    0.9689 H   0  0  0  0  0  0  0  0  0  0  0  0
  -10.6488    5.7239    1.2782 H   0  0  0  0  0  0  0  0  0  0  0  0
  -11.8037    5.3644   -0.0024 H   0  0  0  0  0  0  0  0  0  0  0  0
   -9.3651    7.3426    1.3672 H   0  0  0  0  0  0  0  0  0  0  0  0
   -8.1654    6.9948    0.0763 H   0  0  0  0  0  0  0  0  0  0  0  0
   -9.0584    8.5534    0.0763 H   0  0  0  0  0  0  0  0  0  0  0  0
  -10.5641    5.4184   -2.0811 H   0  0  0  0  0  0  0  0  0  0  0  0
   -9.1507    4.4648   -0.1504 H   0  0  0  0  0  0  0  0  0  0  0  0
   -8.8628    3.9403   -1.8915 H   0  0  0  0  0  0  0  0  0  0  0  0
   -6.7124    4.3720   -0.4327 H   0  0  0  0  0  0  0  0  0  0  0  0
   -7.5884    8.0019   -1.9676 H   0  0  0  0  0  0  0  0  0  0  0  0
   -6.5368    6.3884   -4.3730 H   0  0  0  0  0  0  0  0  0  0  0  0
   -7.1191    8.1120   -4.3844 H   0  0  0  0  0  0  0  0  0  0  0  0
   -4.6494    7.9581   -4.4155 H   0  0  0  0  0  0  0  0  0  0  0  0
   -5.2873    8.7726   -2.9337 H   0  0  0  0  0  0  0  0  0  0  0  0
   -3.5181    7.2809   -2.2923 H   0  0  0  0  0  0  0  0  0  0  0  0
   -4.3780    4.8670   -2.7590 H   0  0  0  0  0  0  0  0  0  0  0  0
   -5.2203    7.3420    0.7055 H   0  0  0  0  0  0  0  0  0  0  0  0
   -4.3105    8.2869   -0.5217 H   0  0  0  0  0  0  0  0  0  0  0  0
   -6.1066    8.3089   -0.5217 H   0  0  0  0  0  0  0  0  0  0  0  0
   -4.5371    5.4749    0.5242 H   0  0  0  0  0  0  0  0  0  0  0  0
   -4.8567    4.3641   -0.8509 H   0  0  0  0  0  0  0  0  0  0  0  0
   -3.3842    5.3929   -0.8509 H   0  0  0  0  0  0  0  0  0  0  0  0
   -9.0222    4.6543   -3.7361 H   0  0  0  0  0  0  0  0  0  0  0  0
   -9.8833    5.9016   -4.7001 H   0  0  0  0  0  0  0  0  0  0  0  0
   -8.0879    5.8477   -4.7001 H   0  0  0  0  0  0  0  0  0  0  0  0
   -9.0530    8.6131   -3.8254 H   0  0  0  0  0  0  0  0  0  0  0  0
  -10.5897    7.5814   -3.9157 H   0  0  0  0  0  0  0  0  0  0  0  0
   -9.6343    9.2769   -1.5924 H   0  0  0  0  0  0  0  0  0  0  0  0
  -11.0971    9.5042   -2.6300 H   0  0  0  0  0  0  0  0  0  0  0  0
  -13.1390    6.7982   -1.4081 H   0  0  0  0  0  0  0  0  0  0  0  0
  -12.8462    7.9905   -2.7194 H   0  0  0  0  0  0  0  0  0  0  0  0
  -11.9703    6.4222   -2.7194 H   0  0  0  0  0  0  0  0  0  0  0  0
  1  2  1  0
  2  3  1  0
  3  4  1  0
  4  5  1  0
  5  6  1  0
  6  7  1  0
  7  8  1  0
  7  9  1  0
  2 10  1  0
 10 11  1  0
 11 12  1  0
 12 13  1  0
 13 14  1  1
 13 15  1  0
 15 16  1  0
 16 17  1  0
 17 18  2  0
 18 19  1  0
 19 20  1  0
 20 21  1  0
 21 22  1  0
 22 23  1  0
 22 24  1  0
 24 25  1  0
 24 26  1  0
 19 27  1  0
 27 28  1  6
 27 29  1  0
 29 30  1  0
 30 31  1  0
 31 32  1  6
  7  5  1  0
 31 10  1  0
 31 13  1  0
 27 15  1  0
 24 18  1  0
  1 33  1  0
  1 34  1  0
  1 35  1  0
  2 36  1  6
  3 37  1  0
  3 38  1  0
  4 39  1  0
  4 40  1  0
  5 41  1  6
  8 42  1  0
  8 43  1  0
  8 44  1  0
  9 45  1  0
  9 46  1  0
  9 47  1  0
 10 48  1  1
 11 49  1  0
 11 50  1  0
 12 51  1  0
 12 52  1  0
 14 53  1  0
 14 54  1  0
 14 55  1  0
 15 56  1  6
 16 57  1  0
 16 58  1  0
 17 59  1  0
 19 60  1  1
 20 61  1  0
 20 62  1  0
 21 63  1  0
 21 64  1  0
 22 65  1  1
 23 66  1  0
 25 67  1  0
 25 68  1  0
 25 69  1  0
 26 70  1  0
 26 71  1  0
 26 72  1  0
 28 73  1  0
 28 74  1  0
 28 75  1  0
 29 76  1  0
 29 77  1  0
 30 78  1  0
 30 79  1  0
 32 80  1  0
 32 81  1  0
 32 82  1  0
M  END
>  <meeko>  (15) 
{"is_sidechain": [false], "intermolecular_energy": 2.731, "internal_energy": -0.839}

$$$$
EPH_relaxed_0001_pdb2pqr_Repair_170_r2_0001_out
     RDKit          3D

 82 86  0  0  0  0  0  0  0  0999 V2000
  -13.8460    9.9890   -0.7490 C   0  0  0  0  0  0  0  0  0  0  0  0
  -13.1940    8.9060   -1.6140 C   0  0  2  0  0  0  0  0  0  0  0  0
  -14.0840    7.6540   -1.7440 C   0  0  0  0  0  0  0  0  0  0  0  0
  -15.2870    7.8470   -2.6710 C   0  0  0  0  0  0  0  0  0  0  0  0
  -15.0480    7.2480   -4.0230 C   0  0  2  0  0  0  0  0  0  0  0  0
  -13.8250    7.6550   -4.6510 O   0  0  0  0  0  0  0  0  0  0  0  0
  -15.0390    8.0570   -5.3070 C   0  0  0  0  0  0  0  0  0  0  0  0
  -15.2740    9.5350   -5.3000 C   0  0  0  0  0  0  0  0  0  0  0  0
  -15.2870    7.3480   -6.6010 C   0  0  0  0  0  0  0  0  0  0  0  0
  -11.8380    8.5240   -1.0330 C   0  0  1  0  0  0  0  0  0  0  0  0
  -11.9560    7.8150    0.3430 C   0  0  0  0  0  0  0  0  0  0  0  0
  -10.8200    6.7620    0.4020 C   0  0  0  0  0  0  0  0  0  0  0  0
   -9.8920    7.1210   -0.7820 C   0  0  1  0  0  0  0  0  0  0  0  0
   -9.0050    8.2920   -0.2560 C   0  0  0  0  0  0  0  0  0  0  0  0
   -9.0260    5.9550   -1.3600 C   0  0  2  0  0  0  0  0  0  0  0  0
   -8.0130    5.3450   -0.3760 C   0  0  0  0  0  0  0  0  0  0  0  0
   -6.6600    5.9770   -0.3800 C   0  0  0  0  0  0  0  0  0  0  0  0
   -6.1840    6.7990   -1.3340 C   0  0  0  0  0  0  0  0  0  0  0  0
   -6.9990    7.0920   -2.6000 C   0  0  1  0  0  0  0  0  0  0  0  0
   -6.0820    6.9680   -3.8460 C   0  0  0  0  0  0  0  0  0  0  0  0
   -4.8330    7.8370   -3.7420 C   0  0  0  0  0  0  0  0  0  0  0  0
   -4.0190    7.4770   -2.5010 C   0  0  2  0  0  0  0  0  0  0  0  0
   -3.4950    6.1560   -2.6620 O   0  0  0  0  0  0  0  0  0  0  0  0
   -4.8420    7.5570   -1.1850 C   0  0  0  0  0  0  0  0  0  0  0  0
   -5.1530    9.0380   -0.8550 C   0  0  0  0  0  0  0  0  0  0  0  0
   -3.9450    7.0340   -0.0300 C   0  0  0  0  0  0  0  0  0  0  0  0
   -8.3540    6.2770   -2.7560 C   0  0  1  0  0  0  0  0  0  0  0  0
   -8.0740    4.9050   -3.4420 C   0  0  0  0  0  0  0  0  0  0  0  0
   -9.3200    7.0650   -3.7180 C   0  0  0  0  0  0  0  0  0  0  0  0
  -10.2360    8.1200   -3.0700 C   0  0  0  0  0  0  0  0  0  0  0  0
  -10.9640    7.5410   -1.8530 C   0  0  2  0  0  0  0  0  0  0  0  0
  -11.8820    6.3750   -2.3550 C   0  0  0  0  0  0  0  0  0  0  0  0
  -13.7000    9.7465    0.3140 H   0  0  0  0  0  0  0  0  0  0  0  0
  -13.3836   10.9624   -0.9699 H   0  0  0  0  0  0  0  0  0  0  0  0
  -14.9226   10.0359   -0.9699 H   0  0  0  0  0  0  0  0  0  0  0  0
  -13.0615    9.3228   -2.6233 H   0  0  0  0  0  0  0  0  0  0  0  0
  -13.4700    6.8311   -2.1387 H   0  0  0  0  0  0  0  0  0  0  0  0
  -14.4823    7.4375   -0.7417 H   0  0  0  0  0  0  0  0  0  0  0  0
  -16.1664    7.3654   -2.2184 H   0  0  0  0  0  0  0  0  0  0  0  0
  -15.4506    8.9272   -2.7992 H   0  0  0  0  0  0  0  0  0  0  0  0
  -15.5769    6.3277   -3.7345 H   0  0  0  0  0  0  0  0  0  0  0  0
  -15.3308    9.8923   -4.2612 H   0  0  0  0  0  0  0  0  0  0  0  0
  -14.4450   10.0405   -5.8168 H   0  0  0  0  0  0  0  0  0  0  0  0
  -16.2190    9.7585   -5.8168 H   0  0  0  0  0  0  0  0  0  0  0  0
  -15.6439    6.3276   -6.3975 H   0  0  0  0  0  0  0  0  0  0  0  0
  -16.0475    7.8941   -7.1784 H   0  0  0  0  0  0  0  0  0  0  0  0
  -14.3519    7.3010   -7.1784 H   0  0  0  0  0  0  0  0  0  0  0  0
  -11.3634    9.5160   -1.0048 H   0  0  0  0  0  0  0  0  0  0  0  0
  -11.8381    8.5455    1.1569 H   0  0  0  0  0  0  0  0  0  0  0  0
  -12.9413    7.3401    0.4596 H   0  0  0  0  0  0  0  0  0  0  0  0
  -10.2764    6.8305    1.3558 H   0  0  0  0  0  0  0  0  0  0  0  0
  -11.2020    5.7326    0.3349 H   0  0  0  0  0  0  0  0  0  0  0  0
   -9.0077    8.2885    0.8440 H   0  0  0  0  0  0  0  0  0  0  0  0
   -7.9751    8.1642   -0.6206 H   0  0  0  0  0  0  0  0  0  0  0  0
   -9.4070    9.2488   -0.6206 H   0  0  0  0  0  0  0  0  0  0  0  0
   -9.7763    5.1711   -1.5404 H   0  0  0  0  0  0  0  0  0  0  0  0
   -8.4277    5.4360    0.6388 H   0  0  0  0  0  0  0  0  0  0  0  0
   -7.8637    4.3042   -0.6991 H   0  0  0  0  0  0  0  0  0  0  0  0
   -5.9964    5.7519    0.4680 H   0  0  0  0  0  0  0  0  0  0  0  0
   -7.3550    8.1280   -2.5000 H   0  0  0  0  0  0  0  0  0  0  0  0
   -5.7729    5.9178   -3.9532 H   0  0  0  0  0  0  0  0  0  0  0  0
   -6.6564    7.3122   -4.7187 H   0  0  0  0  0  0  0  0  0  0  0  0
   -4.2120    7.6833   -4.6368 H   0  0  0  0  0  0  0  0  0  0  0  0
   -5.1432    8.8896   -3.6651 H   0  0  0  0  0  0  0  0  0  0  0  0
   -3.2099    8.2167   -2.4098 H   0  0  0  0  0  0  0  0  0  0  0  0
   -3.5290    5.9380   -3.6090 H   0  0  0  0  0  0  0  0  0  0  0  0
   -5.1812    9.1724    0.2364 H   0  0  0  0  0  0  0  0  0  0  0  0
   -4.3704    9.6813   -1.2835 H   0  0  0  0  0  0  0  0  0  0  0  0
   -6.1283    9.3121   -1.2835 H   0  0  0  0  0  0  0  0  0  0  0  0
   -4.3995    7.2990    0.9360 H   0  0  0  0  0  0  0  0  0  0  0  0
   -3.8525    5.9404   -0.1040 H   0  0  0  0  0  0  0  0  0  0  0  0
   -2.9477    7.4922   -0.1040 H   0  0  0  0  0  0  0  0  0  0  0  0
   -7.9169    4.1353   -2.6720 H   0  0  0  0  0  0  0  0  0  0  0  0
   -8.9338    4.6263   -4.0690 H   0  0  0  0  0  0  0  0  0  0  0  0
   -7.1738    4.9855   -4.0690 H   0  0  0  0  0  0  0  0  0  0  0  0
   -8.6985    7.5784   -4.4664 H   0  0  0  0  0  0  0  0  0  0  0  0
  -10.0013    6.3049   -4.1280 H   0  0  0  0  0  0  0  0  0  0  0  0
   -9.6265    8.9780   -2.7501 H   0  0  0  0  0  0  0  0  0  0  0  0
  -10.9862    8.4352   -3.8102 H   0  0  0  0  0  0  0  0  0  0  0  0
  -12.3024    5.8410   -1.4901 H   0  0  0  0  0  0  0  0  0  0  0  0
  -12.6998    6.7882   -2.9637 H   0  0  0  0  0  0  0  0  0  0  0  0
  -11.2884    5.6771   -2.9637 H   0  0  0  0  0  0  0  0  0  0  0  0
  1  2  1  0
  2  3  1  0
  3  4  1  0
  4  5  1  0
  5  6  1  0
  6  7  1  0
  7  8  1  0
  7  9  1  0
  2 10  1  0
 10 11  1  0
 11 12  1  0
 12 13  1  0
 13 14  1  1
 13 15  1  0
 15 16  1  0
 16 17  1  0
 17 18  2  0
 18 19  1  0
 19 20  1  0
 20 21  1  0
 21 22  1  0
 22 23  1  0
 22 24  1  0
 24 25  1  0
 24 26  1  0
 19 27  1  0
 27 28  1  6
 27 29  1  0
 29 30  1  0
 30 31  1  0
 31 32  1  6
  7  5  1  0
 31 10  1  0
 31 13  1  0
 27 15  1  0
 24 18  1  0
  1 33  1  0
  1 34  1  0
  1 35  1  0
  2 36  1  6
  3 37  1  0
  3 38  1  0
  4 39  1  0
  4 40  1  0
  5 41  1  6
  8 42  1  0
  8 43  1  0
  8 44  1  0
  9 45  1  0
  9 46  1  0
  9 47  1  0
 10 48  1  1
 11 49  1  0
 11 50  1  0
 12 51  1  0
 12 52  1  0
 14 53  1  0
 14 54  1  0
 14 55  1  0
 15 56  1  6
 16 57  1  0
 16 58  1  0
 17 59  1  0
 19 60  1  1
 20 61  1  0
 20 62  1  0
 21 63  1  0
 21 64  1  0
 22 65  1  1
 23 66  1  0
 25 67  1  0
 25 68  1  0
 25 69  1  0
 26 70  1  0
 26 71  1  0
 26 72  1  0
 28 73  1  0
 28 74  1  0
 28 75  1  0
 29 76  1  0
 29 77  1  0
 30 78  1  0
 30 79  1  0
 32 80  1  0
 32 81  1  0
 32 82  1  0
M  END
>  <meeko>  (16) 
{"is_sidechain": [false], "intermolecular_energy": 2.731, "internal_energy": -0.839}

$$$$
EPH_relaxed_0001_pdb2pqr_Repair_170_r2_0001_out
     RDKit          3D

 82 86  0  0  0  0  0  0  0  0999 V2000
    6.8220   11.7060   -3.7530 C   0  0  0  0  0  0  0  0  0  0  0  0
    6.0390   13.0010   -3.9850 C   0  0  2  0  0  0  0  0  0  0  0  0
    6.8840   14.2540   -3.6800 C   0  0  0  0  0  0  0  0  0  0  0  0
    7.1460   15.1330   -4.9060 C   0  0  0  0  0  0  0  0  0  0  0  0
    8.4640   15.8410   -4.8080 C   0  0  2  0  0  0  0  0  0  0  0  0
    8.8680   16.1730   -3.4730 O   0  0  0  0  0  0  0  0  0  0  0  0
    8.6080   17.2810   -4.3510 C   0  0  0  0  0  0  0  0  0  0  0  0
    7.4170   18.0990   -3.9620 C   0  0  0  0  0  0  0  0  0  0  0  0
    9.8370   18.0370   -4.7470 C   0  0  0  0  0  0  0  0  0  0  0  0
    4.7760   13.0040   -3.1320 C   0  0  1  0  0  0  0  0  0  0  0  0
    4.2400   14.4350   -2.8630 C   0  0  0  0  0  0  0  0  0  0  0  0
    2.6930   14.3360   -2.8340 C   0  0  0  0  0  0  0  0  0  0  0  0
    2.4010   12.8190   -2.7540 C   0  0  1  0  0  0  0  0  0  0  0  0
    2.5790   12.4550   -1.2460 C   0  0  0  0  0  0  0  0  0  0  0  0
    1.0130   12.3530   -3.3010 C   0  0  2  0  0  0  0  0  0  0  0  0
   -0.2070   12.9200   -2.5540 C   0  0  0  0  0  0  0  0  0  0  0  0
   -0.6950   12.0940   -1.4100 C   0  0  0  0  0  0  0  0  0  0  0  0
   -0.3610   10.8120   -1.1720 C   0  0  0  0  0  0  0  0  0  0  0  0
    0.5170   10.0310   -2.1590 C   0  0  1  0  0  0  0  0  0  0  0  0
   -0.1080    8.6340   -2.4140 C   0  0  0  0  0  0  0  0  0  0  0  0
   -0.3630    7.8630   -1.1230 C   0  0  0  0  0  0  0  0  0  0  0  0
   -1.2870    8.6460   -0.1930 C   0  0  2  0  0  0  0  0  0  0  0  0
   -2.5820    8.7310   -0.7940 O   0  0  0  0  0  0  0  0  0  0  0  0
   -0.7650   10.0740    0.1280 C   0  0  0  0  0  0  0  0  0  0  0  0
    0.4830    9.9800    1.0410 C   0  0  0  0  0  0  0  0  0  0  0  0
   -1.8550   10.8060    0.9570 C   0  0  0  0  0  0  0  0  0  0  0  0
    0.8890   10.7880   -3.5050 C   0  0  1  0  0  0  0  0  0  0  0  0
   -0.2310   10.5660   -4.5680 C   0  0  0  0  0  0  0  0  0  0  0  0
    2.2010   10.1580   -4.1040 C   0  0  0  0  0  0  0  0  0  0  0  0
    3.5400   10.7420   -3.6140 C   0  0  0  0  0  0  0  0  0  0  0  0
    3.5330   12.2710   -3.6980 C   0  0  2  0  0  0  0  0  0  0  0  0
    3.3790   12.6670   -5.2050 C   0  0  0  0  0  0  0  0  0  0  0  0
    6.9282   11.5303   -2.6723 H   0  0  0  0  0  0  0  0  0  0  0  0
    6.2816   10.8639   -4.2100 H   0  0  0  0  0  0  0  0  0  0  0  0
    7.8188   11.7933   -4.2100 H   0  0  0  0  0  0  0  0  0  0  0  0
    5.7685   13.0376   -5.0506 H   0  0  0  0  0  0  0  0  0  0  0  0
    6.3532   14.8562   -2.9279 H   0  0  0  0  0  0  0  0  0  0  0  0
    7.8627   13.9023   -3.3215 H   0  0  0  0  0  0  0  0  0  0  0  0
    7.1474   14.4996   -5.8053 H   0  0  0  0  0  0  0  0  0  0  0  0
    6.3517   15.8920   -4.9603 H   0  0  0  0  0  0  0  0  0  0  0  0
    8.8439   15.3054   -5.6905 H   0  0  0  0  0  0  0  0  0  0  0  0
    7.3474   18.1468   -2.8652 H   0  0  0  0  0  0  0  0  0  0  0  0
    7.5225   19.1161   -4.3674 H   0  0  0  0  0  0  0  0  0  0  0  0
    6.5055   17.6354   -4.3674 H   0  0  0  0  0  0  0  0  0  0  0  0
   10.3720   18.3661   -3.8439 H   0  0  0  0  0  0  0  0  0  0  0  0
   10.4919   17.3854   -5.3441 H   0  0  0  0  0  0  0  0  0  0  0  0
    9.5507   18.9154   -5.3441 H   0  0  0  0  0  0  0  0  0  0  0  0
    5.1526   12.4752   -2.2440 H   0  0  0  0  0  0  0  0  0  0  0  0
    4.6140   14.8040   -1.8966 H   0  0  0  0  0  0  0  0  0  0  0  0
    4.5761   15.1352   -3.6420 H   0  0  0  0  0  0  0  0  0  0  0  0
    2.2869   14.8566   -1.9542 H   0  0  0  0  0  0  0  0  0  0  0  0
    2.2282   14.8046   -3.7140 H   0  0  0  0  0  0  0  0  0  0  0  0
    2.1808   13.2693   -0.6228 H   0  0  0  0  0  0  0  0  0  0  0  0
    2.0340   11.5251   -1.0264 H   0  0  0  0  0  0  0  0  0  0  0  0
    3.6476   12.3142   -1.0264 H   0  0  0  0  0  0  0  0  0  0  0  0
    0.9891   12.8090   -4.3017 H   0  0  0  0  0  0  0  0  0  0  0  0
    0.0637   13.9128   -2.1653 H   0  0  0  0  0  0  0  0  0  0  0  0
   -1.0283   12.9421   -3.2854 H   0  0  0  0  0  0  0  0  0  0  0  0
   -1.3862   12.5739   -0.7015 H   0  0  0  0  0  0  0  0  0  0  0  0
    1.4967    9.9185   -1.6716 H   0  0  0  0  0  0  0  0  0  0  0  0
   -1.0647    8.7665   -2.9404 H   0  0  0  0  0  0  0  0  0  0  0  0
    0.6073    8.0527   -3.0144 H   0  0  0  0  0  0  0  0  0  0  0  0
   -0.8312    6.8979   -1.3666 H   0  0  0  0  0  0  0  0  0  0  0  0
    0.5984    7.7061   -0.6121 H   0  0  0  0  0  0  0  0  0  0  0  0
   -1.3283    8.1046    0.7636 H   0  0  0  0  0  0  0  0  0  0  0  0
   -3.1790    9.1480   -0.1500 H   0  0  0  0  0  0  0  0  0  0  0  0
    0.1689   10.0037    2.0949 H   0  0  0  0  0  0  0  0  0  0  0  0
    1.0157    9.0392    0.8382 H   0  0  0  0  0  0  0  0  0  0  0  0
    1.1506   10.8304    0.8382 H   0  0  0  0  0  0  0  0  0  0  0  0
   -1.6527   10.6702    2.0297 H   0  0  0  0  0  0  0  0  0  0  0  0
   -1.8415   11.8788    0.7143 H   0  0  0  0  0  0  0  0  0  0  0  0
   -2.8429   10.3876    0.7143 H   0  0  0  0  0  0  0  0  0  0  0  0
   -1.1874   10.3764   -4.0588 H   0  0  0  0  0  0  0  0  0  0  0  0
   -0.3223   11.4635   -5.1974 H   0  0  0  0  0  0  0  0  0  0  0  0
    0.0270    9.7015   -5.1974 H   0  0  0  0  0  0  0  0  0  0  0  0
    2.1966    9.0855   -3.8594 H   0  0  0  0  0  0  0  0  0  0  0  0
    2.1643   10.3865   -5.1794 H   0  0  0  0  0  0  0  0  0  0  0  0
    3.7039   10.4395   -2.5692 H   0  0  0  0  0  0  0  0  0  0  0  0
    4.3465   10.3586   -4.2562 H   0  0  0  0  0  0  0  0  0  0  0  0
    2.9812   13.6900   -5.2765 H   0  0  0  0  0  0  0  0  0  0  0  0
    4.3609   12.6201   -5.6986 H   0  0  0  0  0  0  0  0  0  0  0  0
    2.6868   11.9691   -5.6986 H   0  0  0  0  0  0  0  0  0  0  0  0
  1  2  1  0
  2  3  1  0
  3  4  1  0
  4  5  1  0
  5  6  1  0
  6  7  1  0
  7  8  1  0
  7  9  1  0
  2 10  1  0
 10 11  1  0
 11 12  1  0
 12 13  1  0
 13 14  1  1
 13 15  1  0
 15 16  1  0
 16 17  1  0
 17 18  2  0
 18 19  1  0
 19 20  1  0
 20 21  1  0
 21 22  1  0
 22 23  1  0
 22 24  1  0
 24 25  1  0
 24 26  1  0
 19 27  1  0
 27 28  1  6
 27 29  1  0
 29 30  1  0
 30 31  1  0
 31 32  1  6
  7  5  1  0
 31 10  1  0
 31 13  1  0
 27 15  1  0
 24 18  1  0
  1 33  1  0
  1 34  1  0
  1 35  1  0
  2 36  1  6
  3 37  1  0
  3 38  1  0
  4 39  1  0
  4 40  1  0
  5 41  1  6
  8 42  1  0
  8 43  1  0
  8 44  1  0
  9 45  1  0
  9 46  1  0
  9 47  1  0
 10 48  1  1
 11 49  1  0
 11 50  1  0
 12 51  1  0
 12 52  1  0
 14 53  1  0
 14 54  1  0
 14 55  1  0
 15 56  1  6
 16 57  1  0
 16 58  1  0
 17 59  1  0
 19 60  1  1
 20 61  1  0
 20 62  1  0
 21 63  1  0
 21 64  1  0
 22 65  1  1
 23 66  1  0
 25 67  1  0
 25 68  1  0
 25 69  1  0
 26 70  1  0
 26 71  1  0
 26 72  1  0
 28 73  1  0
 28 74  1  0
 28 75  1  0
 29 76  1  0
 29 77  1  0
 30 78  1  0
 30 79  1  0
 32 80  1  0
 32 81  1  0
 32 82  1  0
M  END
>  <meeko>  (17) 
{"is_sidechain": [false], "intermolecular_energy": 2.731, "internal_energy": -0.839}

$$$$
EPH_relaxed_0001_pdb2pqr_Repair_170_r2_0001_out
     RDKit          3D

 82 86  0  0  0  0  0  0  0  0999 V2000
    0.8350   14.2220   -3.7430 C   0  0  0  0  0  0  0  0  0  0  0  0
    1.0270   13.4350   -2.4440 C   0  0  2  0  0  0  0  0  0  0  0  0
    2.5030   13.4020   -1.9980 C   0  0  0  0  0  0  0  0  0  0  0  0
    3.4890   13.7870   -3.1040 C   0  0  0  0  0  0  0  0  0  0  0  0
    4.6100   12.7980   -3.2160 C   0  0  2  0  0  0  0  0  0  0  0  0
    5.4690   12.9930   -4.3470 O   0  0  0  0  0  0  0  0  0  0  0  0
    4.7120   11.7720   -4.3280 C   0  0  0  0  0  0  0  0  0  0  0  0
    3.6760   11.6820   -5.4040 C   0  0  0  0  0  0  0  0  0  0  0  0
    5.5450   10.5490   -4.1000 C   0  0  0  0  0  0  0  0  0  0  0  0
    0.5040   12.0140   -2.6150 C   0  0  1  0  0  0  0  0  0  0  0  0
    1.6400   10.9580   -2.6440 C   0  0  0  0  0  0  0  0  0  0  0  0
    1.0870    9.6860   -1.9510 C   0  0  0  0  0  0  0  0  0  0  0  0
   -0.4370    9.9310   -1.8460 C   0  0  1  0  0  0  0  0  0  0  0  0
   -1.0010    9.5620   -3.2530 C   0  0  0  0  0  0  0  0  0  0  0  0
   -1.1830    9.1640   -0.7060 C   0  0  2  0  0  0  0  0  0  0  0  0
   -1.1450    7.6300   -0.8180 C   0  0  0  0  0  0  0  0  0  0  0  0
   -2.2720    7.0190   -1.5830 C   0  0  0  0  0  0  0  0  0  0  0  0
   -3.4200    7.6390   -1.9140 C   0  0  0  0  0  0  0  0  0  0  0  0
   -3.7150    9.0630   -1.4250 C   0  0  1  0  0  0  0  0  0  0  0  0
   -5.1630    9.1310   -0.8720 C   0  0  0  0  0  0  0  0  0  0  0  0
   -6.1970    8.6330   -1.8770 C   0  0  0  0  0  0  0  0  0  0  0  0
   -5.9030    7.1940   -2.2950 C   0  0  2  0  0  0  0  0  0  0  0  0
   -6.0950    6.3380   -1.1640 O   0  0  0  0  0  0  0  0  0  0  0  0
   -4.4680    7.0010   -2.8590 C   0  0  0  0  0  0  0  0  0  0  0  0
   -4.3560    7.6870   -4.2430 C   0  0  0  0  0  0  0  0  0  0  0  0
   -4.2540    5.4840   -3.1090 C   0  0  0  0  0  0  0  0  0  0  0  0
   -2.6500    9.6870   -0.4250 C   0  0  1  0  0  0  0  0  0  0  0  0
   -2.9950    9.2810    1.0410 C   0  0  0  0  0  0  0  0  0  0  0  0
   -2.7470   11.2580   -0.4850 C   0  0  0  0  0  0  0  0  0  0  0  0
   -1.8940   11.9660   -1.5550 C   0  0  0  0  0  0  0  0  0  0  0  0
   -0.4460   11.4690   -1.5190 C   0  0  2  0  0  0  0  0  0  0  0  0
    0.1550   11.8460   -0.1220 C   0  0  0  0  0  0  0  0  0  0  0  0
    0.5804   15.2654   -3.5053 H   0  0  0  0  0  0  0  0  0  0  0  0
    1.7659   14.1959   -4.3285 H   0  0  0  0  0  0  0  0  0  0  0  0
    0.0207   13.7702   -4.3285 H   0  0  0  0  0  0  0  0  0  0  0  0
    0.4553   13.9499   -1.6579 H   0  0  0  0  0  0  0  0  0  0  0  0
    2.6286   14.1045   -1.1609 H   0  0  0  0  0  0  0  0  0  0  0  0
    2.7294   12.3641   -1.7126 H   0  0  0  0  0  0  0  0  0  0  0  0
    2.9515   13.8267   -4.0629 H   0  0  0  0  0  0  0  0  0  0  0  0
    3.9203   14.7673   -2.8531 H   0  0  0  0  0  0  0  0  0  0  0  0
    4.6715   12.7079   -2.1214 H   0  0  0  0  0  0  0  0  0  0  0  0
    2.6792   11.5954   -4.9469 H   0  0  0  0  0  0  0  0  0  0  0  0
    3.7159   12.5870   -6.0280 H   0  0  0  0  0  0  0  0  0  0  0  0
    3.8713   10.7974   -6.0280 H   0  0  0  0  0  0  0  0  0  0  0  0
    5.6601   10.3800   -3.0192 H   0  0  0  0  0  0  0  0  0  0  0  0
    5.0511    9.6786   -4.5567 H   0  0  0  0  0  0  0  0  0  0  0  0
    6.5358   10.6898   -4.5567 H   0  0  0  0  0  0  0  0  0  0  0  0
   -0.0428   12.1322   -3.5621 H   0  0  0  0  0  0  0  0  0  0  0  0
    1.9201   10.7316   -3.6834 H   0  0  0  0  0  0  0  0  0  0  0  0
    2.5377   11.3298   -2.1284 H   0  0  0  0  0  0  0  0  0  0  0  0
    1.2959    8.7918   -2.5566 H   0  0  0  0  0  0  0  0  0  0  0  0
    1.5503    9.5108   -0.9688 H   0  0  0  0  0  0  0  0  0  0  0  0
   -1.9162    8.9632   -3.1356 H   0  0  0  0  0  0  0  0  0  0  0  0
   -1.2339   10.4829   -3.8077 H   0  0  0  0  0  0  0  0  0  0  0  0
   -0.2505    8.9797   -3.8077 H   0  0  0  0  0  0  0  0  0  0  0  0
   -0.5801    9.4136    0.1795 H   0  0  0  0  0  0  0  0  0  0  0  0
   -0.2048    7.3485   -1.3148 H   0  0  0  0  0  0  0  0  0  0  0  0
   -1.2316    7.2473    0.2096 H   0  0  0  0  0  0  0  0  0  0  0  0
   -2.1543    5.9733   -1.9034 H   0  0  0  0  0  0  0  0  0  0  0  0
   -3.6216    9.7131   -2.3074 H   0  0  0  0  0  0  0  0  0  0  0  0
   -5.2240    8.5099    0.0338 H   0  0  0  0  0  0  0  0  0  0  0  0
   -5.3886   10.1857   -0.6557 H   0  0  0  0  0  0  0  0  0  0  0  0
   -7.1957    8.6776   -1.4180 H   0  0  0  0  0  0  0  0  0  0  0  0
   -6.1552    9.2735   -2.7703 H   0  0  0  0  0  0  0  0  0  0  0  0
   -6.5966    6.9382   -3.1096 H   0  0  0  0  0  0  0  0  0  0  0  0
   -5.5930    5.5210   -1.3250 H   0  0  0  0  0  0  0  0  0  0  0  0
   -4.1802    8.7641   -4.1052 H   0  0  0  0  0  0  0  0  0  0  0  0
   -3.5177    7.2474   -4.8034 H   0  0  0  0  0  0  0  0  0  0  0  0
   -5.2906    7.5368   -4.8034 H   0  0  0  0  0  0  0  0  0  0  0  0
   -4.1801    4.9603   -2.1445 H   0  0  0  0  0  0  0  0  0  0  0  0
   -5.1045    5.0829   -3.6798 H   0  0  0  0  0  0  0  0  0  0  0  0
   -3.3258    5.3338   -3.6798 H   0  0  0  0  0  0  0  0  0  0  0  0
   -2.4449    9.9283    1.7398 H   0  0  0  0  0  0  0  0  0  0  0  0
   -4.0761    9.3958    1.2085 H   0  0  0  0  0  0  0  0  0  0  0  0
   -2.7073    8.2326    1.2085 H   0  0  0  0  0  0  0  0  0  0  0  0
   -3.7991   11.5196   -0.6713 H   0  0  0  0  0  0  0  0  0  0  0  0
   -2.3488   11.6081    0.4788 H   0  0  0  0  0  0  0  0  0  0  0  0
   -2.3201   11.7613   -2.5482 H   0  0  0  0  0  0  0  0  0  0  0  0
   -1.8991   13.0465   -1.3490 H   0  0  0  0  0  0  0  0  0  0  0  0
   -0.4877   11.4429    0.6745 H   0  0  0  0  0  0  0  0  0  0  0  0
    1.1646   11.4191   -0.0299 H   0  0  0  0  0  0  0  0  0  0  0  0
    0.2100   12.9408   -0.0299 H   0  0  0  0  0  0  0  0  0  0  0  0
  1  2  1  0
  2  3  1  0
  3  4  1  0
  4  5  1  0
  5  6  1  0
  6  7  1  0
  7  8  1  0
  7  9  1  0
  2 10  1  0
 10 11  1  0
 11 12  1  0
 12 13  1  0
 13 14  1  6
 13 15  1  0
 15 16  1  0
 16 17  1  0
 17 18  2  0
 18 19  1  0
 19 20  1  0
 20 21  1  0
 21 22  1  0
 22 23  1  0
 22 24  1  0
 24 25  1  0
 24 26  1  0
 19 27  1  0
 27 28  1  1
 27 29  1  0
 29 30  1  0
 30 31  1  0
 31 32  1  1
  7  5  1  0
 31 10  1  0
 31 13  1  0
 27 15  1  0
 24 18  1  0
  1 33  1  0
  1 34  1  0
  1 35  1  0
  2 36  1  1
  3 37  1  0
  3 38  1  0
  4 39  1  0
  4 40  1  0
  5 41  1  1
  8 42  1  0
  8 43  1  0
  8 44  1  0
  9 45  1  0
  9 46  1  0
  9 47  1  0
 10 48  1  6
 11 49  1  0
 11 50  1  0
 12 51  1  0
 12 52  1  0
 14 53  1  0
 14 54  1  0
 14 55  1  0
 15 56  1  1
 16 57  1  0
 16 58  1  0
 17 59  1  0
 19 60  1  6
 20 61  1  0
 20 62  1  0
 21 63  1  0
 21 64  1  0
 22 65  1  6
 23 66  1  0
 25 67  1  0
 25 68  1  0
 25 69  1  0
 26 70  1  0
 26 71  1  0
 26 72  1  0
 28 73  1  0
 28 74  1  0
 28 75  1  0
 29 76  1  0
 29 77  1  0
 30 78  1  0
 30 79  1  0
 32 80  1  0
 32 81  1  0
 32 82  1  0
M  END
>  <meeko>  (18) 
{"is_sidechain": [false], "intermolecular_energy": 2.731, "internal_energy": -0.839}

$$$$
EPH_relaxed_0001_pdb2pqr_Repair_170_r2_0001_out
     RDKit          3D

 82 86  0  0  0  0  0  0  0  0999 V2000
    1.2530   16.6970   -0.8810 C   0  0  0  0  0  0  0  0  0  0  0  0
    1.6310   16.3410   -2.3210 C   0  0  2  0  0  0  0  0  0  0  0  0
    0.6890   17.0020   -3.3480 C   0  0  0  0  0  0  0  0  0  0  0  0
    0.4890   18.5030   -3.1240 C   0  0  0  0  0  0  0  0  0  0  0  0
   -0.8620   18.8020   -2.5470 C   0  0  2  0  0  0  0  0  0  0  0  0
   -1.2420   20.1830   -2.6000 O   0  0  0  0  0  0  0  0  0  0  0  0
   -1.0710   19.6230   -1.2880 C   0  0  0  0  0  0  0  0  0  0  0  0
    0.0850   20.1950   -0.5290 C   0  0  0  0  0  0  0  0  0  0  0  0
   -2.3510   19.4570   -0.5310 C   0  0  0  0  0  0  0  0  0  0  0  0
    1.6210   14.8280   -2.5030 C   0  0  1  0  0  0  0  0  0  0  0  0
    2.9900   14.2750   -2.9810 C   0  0  0  0  0  0  0  0  0  0  0  0
    3.1680   12.8860   -2.3140 C   0  0  0  0  0  0  0  0  0  0  0  0
    1.7700   12.5430   -1.7490 C   0  0  1  0  0  0  0  0  0  0  0  0
    0.9680   11.9930   -2.9700 C   0  0  0  0  0  0  0  0  0  0  0  0
    1.7380   11.5490   -0.5420 C   0  0  2  0  0  0  0  0  0  0  0  0
    2.2810   10.1410   -0.8420 C   0  0  0  0  0  0  0  0  0  0  0  0
    1.2680    9.1540   -1.3200 C   0  0  0  0  0  0  0  0  0  0  0  0
   -0.0670    9.3000   -1.2310 C   0  0  0  0  0  0  0  0  0  0  0  0
   -0.6820   10.5080   -0.5140 C   0  0  1  0  0  0  0  0  0  0  0  0
   -1.8120   10.0270    0.4350 C   0  0  0  0  0  0  0  0  0  0  0  0
   -2.8580    9.1810   -0.2840 C   0  0  0  0  0  0  0  0  0  0  0  0
   -2.2170    7.9580   -0.9360 C   0  0  2  0  0  0  0  0  0  0  0  0
   -1.7320    7.0890    0.0930 O   0  0  0  0  0  0  0  0  0  0  0  0
   -1.0580    8.3180   -1.9060 C   0  0  0  0  0  0  0  0  0  0  0  0
   -1.6320    9.0010   -3.1720 C   0  0  0  0  0  0  0  0  0  0  0  0
   -0.4070    6.9930   -2.3850 C   0  0  0  0  0  0  0  0  0  0  0  0
    0.3450   11.4830    0.2070 C   0  0  1  0  0  0  0  0  0  0  0  0
    0.6400   10.9740    1.6510 C   0  0  0  0  0  0  0  0  0  0  0  0
   -0.3170   12.9030    0.3630 C   0  0  0  0  0  0  0  0  0  0  0  0
   -0.1480   13.8820   -0.8140 C   0  0  0  0  0  0  0  0  0  0  0  0
    1.3170   13.9640   -1.2530 C   0  0  2  0  0  0  0  0  0  0  0  0
    2.1450   14.5350   -0.0520 C   0  0  0  0  0  0  0  0  0  0  0  0
    1.8727   16.1134   -0.1843 H   0  0  0  0  0  0  0  0  0  0  0  0
    1.4231   17.7705   -0.7120 H   0  0  0  0  0  0  0  0  0  0  0  0
    0.1916   16.4629   -0.7120 H   0  0  0  0  0  0  0  0  0  0  0  0
    2.6438   16.7297   -2.5032 H   0  0  0  0  0  0  0  0  0  0  0  0
    1.1122   16.8543   -4.3525 H   0  0  0  0  0  0  0  0  0  0  0  0
   -0.2961   16.5262   -3.2329 H   0  0  0  0  0  0  0  0  0  0  0  0
    1.2614   18.8660   -2.4300 H   0  0  0  0  0  0  0  0  0  0  0  0
    0.5655   19.0084   -4.0980 H   0  0  0  0  0  0  0  0  0  0  0  0
   -1.2387   17.8155   -2.8552 H   0  0  0  0  0  0  0  0  0  0  0  0
   -0.1032   20.1019    0.5508 H   0  0  0  0  0  0  0  0  0  0  0  0
    1.0023   19.6468   -0.7899 H   0  0  0  0  0  0  0  0  0  0  0  0
    0.2056   21.2568   -0.7899 H   0  0  0  0  0  0  0  0  0  0  0  0
   -2.1443   19.4838    0.5491 H   0  0  0  0  0  0  0  0  0  0  0  0
   -3.0403   20.2733   -0.7928 H   0  0  0  0  0  0  0  0  0  0  0  0
   -2.8093   18.4919   -0.7928 H   0  0  0  0  0  0  0  0  0  0  0  0
    0.8033   14.7348   -3.2328 H   0  0  0  0  0  0  0  0  0  0  0  0
    2.9960   14.1730   -4.0762 H   0  0  0  0  0  0  0  0  0  0  0  0
    3.8094   14.9545   -2.7039 H   0  0  0  0  0  0  0  0  0  0  0  0
    3.4819   12.1365   -3.0554 H   0  0  0  0  0  0  0  0  0  0  0  0
    3.9430   12.8941   -1.5335 H   0  0  0  0  0  0  0  0  0  0  0  0
    0.1106   11.4050   -2.6107 H   0  0  0  0  0  0  0  0  0  0  0  0
    0.6062   12.8339   -3.5799 H   0  0  0  0  0  0  0  0  0  0  0  0
    1.6221   11.3525   -3.5799 H   0  0  0  0  0  0  0  0  0  0  0  0
    2.4554   12.0039    0.1569 H   0  0  0  0  0  0  0  0  0  0  0  0
    3.0565   10.2340   -1.6166 H   0  0  0  0  0  0  0  0  0  0  0  0
    2.6577    9.7505    0.1149 H   0  0  0  0  0  0  0  0  0  0  0  0
    1.6442    8.2302   -1.7837 H   0  0  0  0  0  0  0  0  0  0  0  0
   -1.1037   11.1475   -1.3034 H   0  0  0  0  0  0  0  0  0  0  0  0
   -1.3645    9.4256    1.2400 H   0  0  0  0  0  0  0  0  0  0  0  0
   -2.3186   10.9196    0.8308 H   0  0  0  0  0  0  0  0  0  0  0  0
   -3.6127    8.8471    0.4432 H   0  0  0  0  0  0  0  0  0  0  0  0
   -3.3250    9.7932   -1.0696 H   0  0  0  0  0  0  0  0  0  0  0  0
   -2.9901    7.4632   -1.5422 H   0  0  0  0  0  0  0  0  0  0  0  0
   -2.0570    6.1940   -0.1020 H   0  0  0  0  0  0  0  0  0  0  0  0
   -2.3133    9.8117   -2.8743 H   0  0  0  0  0  0  0  0  0  0  0  0
   -0.8076    9.4161   -3.7704 H   0  0  0  0  0  0  0  0  0  0  0  0
   -2.1828    8.2604   -3.7704 H   0  0  0  0  0  0  0  0  0  0  0  0
   -0.1121    6.3927   -1.5117 H   0  0  0  0  0  0  0  0  0  0  0  0
   -1.1299    6.4276   -2.9914 H   0  0  0  0  0  0  0  0  0  0  0  0
    0.4823    7.2197   -2.9914 H   0  0  0  0  0  0  0  0  0  0  0  0
    0.2278   11.6853    2.3819 H   0  0  0  0  0  0  0  0  0  0  0  0
    0.1731    9.9885    1.7949 H   0  0  0  0  0  0  0  0  0  0  0  0
    1.7272   10.8892    1.7949 H   0  0  0  0  0  0  0  0  0  0  0  0
   -1.3955   12.7520    0.5178 H   0  0  0  0  0  0  0  0  0  0  0  0
    0.2087   13.3742    1.2066 H   0  0  0  0  0  0  0  0  0  0  0  0
   -0.7585   13.5354   -1.6608 H   0  0  0  0  0  0  0  0  0  0  0  0
   -0.4730   14.8812   -0.4884 H   0  0  0  0  0  0  0  0  0  0  0  0
    1.6843   14.2173    0.8950 H   0  0  0  0  0  0  0  0  0  0  0  0
    3.1760   14.1550   -0.1038 H   0  0  0  0  0  0  0  0  0  0  0  0
    2.1562   15.6337   -0.1038 H   0  0  0  0  0  0  0  0  0  0  0  0
  1  2  1  0
  2  3  1  0
  3  4  1  0
  4  5  1  0
  5  6  1  0
  6  7  1  0
  7  8  1  0
  7  9  1  0
  2 10  1  0
 10 11  1  0
 11 12  1  0
 12 13  1  0
 13 14  1  6
 13 15  1  0
 15 16  1  0
 16 17  1  0
 17 18  2  0
 18 19  1  0
 19 20  1  0
 20 21  1  0
 21 22  1  0
 22 23  1  0
 22 24  1  0
 24 25  1  0
 24 26  1  0
 19 27  1  0
 27 28  1  1
 27 29  1  0
 29 30  1  0
 30 31  1  0
 31 32  1  1
  7  5  1  0
 31 10  1  0
 31 13  1  0
 27 15  1  0
 24 18  1  0
  1 33  1  0
  1 34  1  0
  1 35  1  0
  2 36  1  6
  3 37  1  0
  3 38  1  0
  4 39  1  0
  4 40  1  0
  5 41  1  1
  8 42  1  0
  8 43  1  0
  8 44  1  0
  9 45  1  0
  9 46  1  0
  9 47  1  0
 10 48  1  6
 11 49  1  0
 11 50  1  0
 12 51  1  0
 12 52  1  0
 14 53  1  0
 14 54  1  0
 14 55  1  0
 15 56  1  1
 16 57  1  0
 16 58  1  0
 17 59  1  0
 19 60  1  6
 20 61  1  0
 20 62  1  0
 21 63  1  0
 21 64  1  0
 22 65  1  6
 23 66  1  0
 25 67  1  0
 25 68  1  0
 25 69  1  0
 26 70  1  0
 26 71  1  0
 26 72  1  0
 28 73  1  0
 28 74  1  0
 28 75  1  0
 29 76  1  0
 29 77  1  0
 30 78  1  0
 30 79  1  0
 32 80  1  0
 32 81  1  0
 32 82  1  0
M  END
>  <meeko>  (19) 
{"is_sidechain": [false], "intermolecular_energy": 2.731, "internal_energy": -0.839}

$$$$
