EPH_relaxed_0001_pdb2pqr_Repair_203_r2_0001_out
     RDKit          3D

 82 86  0  0  0  0  0  0  0  0999 V2000
   -1.5840    8.3420   -1.7840 C   0  0  0  0  0  0  0  0  0  0  0  0
   -1.9430    9.0010   -0.4490 C   0  0  2  0  0  0  0  0  0  0  0  0
   -3.4130    9.4650   -0.4070 C   0  0  0  0  0  0  0  0  0  0  0  0
   -4.4170    8.3170   -0.2720 C   0  0  0  0  0  0  0  0  0  0  0  0
   -5.1030    8.0240   -1.5720 C   0  0  2  0  0  0  0  0  0  0  0  0
   -6.3360    8.7270   -1.7710 O   0  0  0  0  0  0  0  0  0  0  0  0
   -6.4300    7.2970   -1.6730 C   0  0  0  0  0  0  0  0  0  0  0  0
   -7.1510    6.8160   -0.4520 C   0  0  0  0  0  0  0  0  0  0  0  0
   -6.7830    6.6260   -2.9640 C   0  0  0  0  0  0  0  0  0  0  0  0
   -1.0160   10.1820   -0.1870 C   0  0  1  0  0  0  0  0  0  0  0  0
    0.1610    9.8190    0.7580 C   0  0  0  0  0  0  0  0  0  0  0  0
    1.3870   10.6380    0.2790 C   0  0  0  0  0  0  0  0  0  0  0  0
    0.8010   11.6810   -0.7010 C   0  0  1  0  0  0  0  0  0  0  0  0
    0.2400   12.8170    0.2120 C   0  0  0  0  0  0  0  0  0  0  0  0
    1.7810   12.2410   -1.7820 C   0  0  2  0  0  0  0  0  0  0  0  0
    2.9920   13.0130   -1.2290 C   0  0  0  0  0  0  0  0  0  0  0  0
    2.7870   14.4820   -1.0590 C   0  0  0  0  0  0  0  0  0  0  0  0
    1.7850   15.2000   -1.6000 C   0  0  0  0  0  0  0  0  0  0  0  0
    0.7780   14.5500   -2.5570 C   0  0  1  0  0  0  0  0  0  0  0  0
    0.5810   15.4610   -3.7980 C   0  0  0  0  0  0  0  0  0  0  0  0
    0.1920   16.8870   -3.4210 C   0  0  0  0  0  0  0  0  0  0  0  0
    1.2460   17.5190   -2.5160 C   0  0  2  0  0  0  0  0  0  0  0  0
    2.4540   17.6890   -3.2640 O   0  0  0  0  0  0  0  0  0  0  0  0
    1.5360   16.6850   -1.2370 C   0  0  0  0  0  0  0  0  0  0  0  0
    0.3170   16.7540   -0.2830 C   0  0  0  0  0  0  0  0  0  0  0  0
    2.7150   17.3590   -0.4850 C   0  0  0  0  0  0  0  0  0  0  0  0
    1.0710   13.0390   -2.9500 C   0  0  1  0  0  0  0  0  0  0  0  0
    2.0340   12.9840   -4.1760 C   0  0  0  0  0  0  0  0  0  0  0  0
   -0.2720   12.3570   -3.4100 C   0  0  0  0  0  0  0  0  0  0  0  0
   -1.1390   11.7180   -2.3090 C   0  0  0  0  0  0  0  0  0  0  0  0
   -0.2980   10.8070   -1.4080 C   0  0  2  0  0  0  0  0  0  0  0  0
    0.2610    9.6420   -2.2940 C   0  0  0  0  0  0  0  0  0  0  0  0
   -1.0656    7.3903   -1.5954 H   0  0  0  0  0  0  0  0  0  0  0  0
   -2.5030    8.1515   -2.3577 H   0  0  0  0  0  0  0  0  0  0  0  0
   -0.9256    9.0108   -2.3577 H   0  0  0  0  0  0  0  0  0  0  0  0
   -1.8134    8.2446    0.3391 H   0  0  0  0  0  0  0  0  0  0  0  0
   -3.5397   10.1400    0.4522 H   0  0  0  0  0  0  0  0  0  0  0  0
   -3.6206    9.9626   -1.3658 H   0  0  0  0  0  0  0  0  0  0  0  0
   -3.8836    7.4144    0.0609 H   0  0  0  0  0  0  0  0  0  0  0  0
   -5.1823    8.6153    0.4597 H   0  0  0  0  0  0  0  0  0  0  0  0
   -4.1362    7.8677   -2.0729 H   0  0  0  0  0  0  0  0  0  0  0  0
   -6.6240    7.1675    0.4473 H   0  0  0  0  0  0  0  0  0  0  0  0
   -8.1778    7.2107   -0.4532 H   0  0  0  0  0  0  0  0  0  0  0  0
   -7.1809    5.7164   -0.4532 H   0  0  0  0  0  0  0  0  0  0  0  0
   -7.2858    5.6702   -2.7550 H   0  0  0  0  0  0  0  0  0  0  0  0
   -7.4561    7.2755   -3.5428 H   0  0  0  0  0  0  0  0  0  0  0  0
   -5.8664    6.4392   -3.5428 H   0  0  0  0  0  0  0  0  0  0  0  0
   -1.7412   10.8970    0.2288 H   0  0  0  0  0  0  0  0  0  0  0  0
   -0.0902   10.0846    1.7955 H   0  0  0  0  0  0  0  0  0  0  0  0
    0.3715    8.7397    0.7306 H   0  0  0  0  0  0  0  0  0  0  0  0
    1.8772   11.1359    1.1285 H   0  0  0  0  0  0  0  0  0  0  0  0
    2.1523   10.0051   -0.1941 H   0  0  0  0  0  0  0  0  0  0  0  0
    0.3768   12.5401    1.2678 H   0  0  0  0  0  0  0  0  0  0  0  0
    0.7793   13.7532    0.0057 H   0  0  0  0  0  0  0  0  0  0  0  0
   -0.8313   12.9579    0.0057 H   0  0  0  0  0  0  0  0  0  0  0  0
    2.1908   11.3220   -2.2263 H   0  0  0  0  0  0  0  0  0  0  0  0
    3.2457   12.5890   -0.2462 H   0  0  0  0  0  0  0  0  0  0  0  0
    3.7917   12.9013   -1.9760 H   0  0  0  0  0  0  0  0  0  0  0  0
    3.5166   15.0236   -0.4391 H   0  0  0  0  0  0  0  0  0  0  0  0
   -0.1660   14.4712   -1.9978 H   0  0  0  0  0  0  0  0  0  0  0  0
    1.5222   15.4909   -4.3665 H   0  0  0  0  0  0  0  0  0  0  0  0
   -0.2398   15.0380   -4.3958 H   0  0  0  0  0  0  0  0  0  0  0  0
    0.0969   17.4883   -4.3372 H   0  0  0  0  0  0  0  0  0  0  0  0
   -0.7646   16.8581   -2.8787 H   0  0  0  0  0  0  0  0  0  0  0  0
    0.8501   18.4871   -2.1753 H   0  0  0  0  0  0  0  0  0  0  0  0
    2.4220   17.0750   -4.0170 H   0  0  0  0  0  0  0  0  0  0  0  0
    0.6661   16.7342    0.7600 H   0  0  0  0  0  0  0  0  0  0  0  0
   -0.2395   17.6851   -0.4658 H   0  0  0  0  0  0  0  0  0  0  0  0
   -0.3410   15.8917   -0.4658 H   0  0  0  0  0  0  0  0  0  0  0  0
    2.5573   17.2689    0.5999 H   0  0  0  0  0  0  0  0  0  0  0  0
    3.6573   16.8631   -0.7610 H   0  0  0  0  0  0  0  0  0  0  0  0
    2.7658   18.4226   -0.7610 H   0  0  0  0  0  0  0  0  0  0  0  0
    3.0741   12.9246   -3.8229 H   0  0  0  0  0  0  0  0  0  0  0  0
    1.8023   12.0976   -4.7848 H   0  0  0  0  0  0  0  0  0  0  0  0
    1.9047   13.8910   -4.7848 H   0  0  0  0  0  0  0  0  0  0  0  0
   -0.8811   13.1248   -3.9095 H   0  0  0  0  0  0  0  0  0  0  0  0
    0.0360   11.5211   -4.0553 H   0  0  0  0  0  0  0  0  0  0  0  0
   -1.5879   12.5142   -1.6970 H   0  0  0  0  0  0  0  0  0  0  0  0
   -1.9225   11.1118   -2.7872 H   0  0  0  0  0  0  0  0  0  0  0  0
    0.6455    8.8406   -1.6460 H   0  0  0  0  0  0  0  0  0  0  0  0
   -0.5448    9.2452   -2.9290 H   0  0  0  0  0  0  0  0  0  0  0  0
    1.0747   10.0223   -2.9290 H   0  0  0  0  0  0  0  0  0  0  0  0
  1  2  1  0
  2  3  1  0
  3  4  1  0
  4  5  1  0
  5  6  1  0
  6  7  1  0
  7  8  1  0
  7  9  1  0
  2 10  1  0
 10 11  1  0
 11 12  1  0
 12 13  1  0
 13 14  1  1
 13 15  1  0
 15 16  1  0
 16 17  1  0
 17 18  2  0
 18 19  1  0
 19 20  1  0
 20 21  1  0
 21 22  1  0
 22 23  1  0
 22 24  1  0
 24 25  1  0
 24 26  1  0
 19 27  1  0
 27 28  1  6
 27 29  1  0
 29 30  1  0
 30 31  1  0
 31 32  1  6
  7  5  1  0
 31 10  1  0
 31 13  1  0
 27 15  1  0
 24 18  1  0
  1 33  1  0
  1 34  1  0
  1 35  1  0
  2 36  1  1
  3 37  1  0
  3 38  1  0
  4 39  1  0
  4 40  1  0
  5 41  1  6
  8 42  1  0
  8 43  1  0
  8 44  1  0
  9 45  1  0
  9 46  1  0
  9 47  1  0
 10 48  1  1
 11 49  1  0
 11 50  1  0
 12 51  1  0
 12 52  1  0
 14 53  1  0
 14 54  1  0
 14 55  1  0
 15 56  1  6
 16 57  1  0
 16 58  1  0
 17 59  1  0
 19 60  1  1
 20 61  1  0
 20 62  1  0
 21 63  1  0
 21 64  1  0
 22 65  1  1
 23 66  1  0
 25 67  1  0
 25 68  1  0
 25 69  1  0
 26 70  1  0
 26 71  1  0
 26 72  1  0
 28 73  1  0
 28 74  1  0
 28 75  1  0
 29 76  1  0
 29 77  1  0
 30 78  1  0
 30 79  1  0
 32 80  1  0
 32 81  1  0
 32 82  1  0
M  END
>  <meeko>  (1) 
{"is_sidechain": [false], "intermolecular_energy": 2.731, "internal_energy": -0.839}

$$$$
EPH_relaxed_0001_pdb2pqr_Repair_203_r2_0001_out
     RDKit          3D

 82 86  0  0  0  0  0  0  0  0999 V2000
    2.2920   18.3020   -2.6750 C   0  0  0  0  0  0  0  0  0  0  0  0
    0.9390   17.9430   -2.0550 C   0  0  2  0  0  0  0  0  0  0  0  0
    0.9530   18.0690   -0.5180 C   0  0  0  0  0  0  0  0  0  0  0  0
    0.4980   19.4390   -0.0080 C   0  0  0  0  0  0  0  0  0  0  0  0
   -0.9470   19.4300    0.3910 C   0  0  2  0  0  0  0  0  0  0  0  0
   -1.7310   18.3980   -0.2200 O   0  0  0  0  0  0  0  0  0  0  0  0
   -2.0810   19.7480   -0.5650 C   0  0  0  0  0  0  0  0  0  0  0  0
   -1.8200   20.0980   -1.9960 C   0  0  0  0  0  0  0  0  0  0  0  0
   -3.3920   20.1940    0.0030 C   0  0  0  0  0  0  0  0  0  0  0  0
    0.5410   16.5280   -2.4580 C   0  0  1  0  0  0  0  0  0  0  0  0
    0.6530   16.2890   -3.9880 C   0  0  0  0  0  0  0  0  0  0  0  0
    1.1050   14.8190   -4.1780 C   0  0  0  0  0  0  0  0  0  0  0  0
    0.9170   14.1690   -2.7870 C   0  0  1  0  0  0  0  0  0  0  0  0
   -0.6030   13.8240   -2.7080 C   0  0  0  0  0  0  0  0  0  0  0  0
    1.8080   12.9220   -2.4810 C   0  0  2  0  0  0  0  0  0  0  0  0
    1.5730   11.7100   -3.3990 C   0  0  0  0  0  0  0  0  0  0  0  0
    0.5430   10.7400   -2.9220 C   0  0  0  0  0  0  0  0  0  0  0  0
    0.0400   10.6830   -1.6750 C   0  0  0  0  0  0  0  0  0  0  0  0
    0.5800   11.5950   -0.5650 C   0  0  1  0  0  0  0  0  0  0  0  0
    0.8290   10.7580    0.7170 C   0  0  0  0  0  0  0  0  0  0  0  0
   -0.4060    9.9760    1.1540 C   0  0  0  0  0  0  0  0  0  0  0  0
   -0.8790    9.0390    0.0460 C   0  0  2  0  0  0  0  0  0  0  0  0
    0.1090    8.0220   -0.1500 O   0  0  0  0  0  0  0  0  0  0  0  0
   -1.1520    9.7680   -1.2990 C   0  0  0  0  0  0  0  0  0  0  0  0
   -2.4180   10.6500   -1.1650 C   0  0  0  0  0  0  0  0  0  0  0  0
   -1.4840    8.6920   -2.3670 C   0  0  0  0  0  0  0  0  0  0  0  0
    1.8280   12.4980   -0.9560 C   0  0  1  0  0  0  0  0  0  0  0  0
    3.1510   11.7040   -0.7320 C   0  0  0  0  0  0  0  0  0  0  0  0
    1.8860   13.7400    0.0100 C   0  0  0  0  0  0  0  0  0  0  0  0
    1.0790   14.9840   -0.4090 C   0  0  0  0  0  0  0  0  0  0  0  0
    1.3670   15.3600   -1.8650 C   0  0  2  0  0  0  0  0  0  0  0  0
    2.8850   15.7340   -1.9720 C   0  0  0  0  0  0  0  0  0  0  0  0
    3.0220   18.4957   -1.8752 H   0  0  0  0  0  0  0  0  0  0  0  0
    2.6434   17.4660   -3.2976 H   0  0  0  0  0  0  0  0  0  0  0  0
    2.1827   19.2022   -3.2976 H   0  0  0  0  0  0  0  0  0  0  0  0
    0.1987   18.6605   -2.4385 H   0  0  0  0  0  0  0  0  0  0  0  0
    0.2827   17.3031   -0.1008 H   0  0  0  0  0  0  0  0  0  0  0  0
    1.9958   17.9359   -0.1943 H   0  0  0  0  0  0  0  0  0  0  0  0
    1.1073   19.7147    0.8654 H   0  0  0  0  0  0  0  0  0  0  0  0
    0.6244   20.1675   -0.8225 H   0  0  0  0  0  0  0  0  0  0  0  0
   -0.6967   19.8118    1.3918 H   0  0  0  0  0  0  0  0  0  0  0  0
   -1.1630   20.9790   -2.0441 H   0  0  0  0  0  0  0  0  0  0  0  0
   -1.3325   19.2493   -2.4980 H   0  0  0  0  0  0  0  0  0  0  0  0
   -2.7725   20.3231   -2.4980 H   0  0  0  0  0  0  0  0  0  0  0  0
   -3.3406   20.1765    1.1017 H   0  0  0  0  0  0  0  0  0  0  0  0
   -3.6102   21.2169   -0.3376 H   0  0  0  0  0  0  0  0  0  0  0  0
   -4.1887   19.5164   -0.3376 H   0  0  0  0  0  0  0  0  0  0  0  0
   -0.4835   16.5041   -2.0583 H   0  0  0  0  0  0  0  0  0  0  0  0
   -0.3229   16.4506   -4.4692 H   0  0  0  0  0  0  0  0  0  0  0  0
    1.3710   16.9856   -4.4454 H   0  0  0  0  0  0  0  0  0  0  0  0
    0.4800   14.3148   -4.9297 H   0  0  0  0  0  0  0  0  0  0  0  0
    2.1425   14.7450   -4.5358 H   0  0  0  0  0  0  0  0  0  0  0  0
   -0.9089   13.7546   -1.6537 H   0  0  0  0  0  0  0  0  0  0  0  0
   -1.1845   14.6130   -3.2073 H   0  0  0  0  0  0  0  0  0  0  0  0
   -0.7869   12.8613   -3.2073 H   0  0  0  0  0  0  0  0  0  0  0  0
    2.8165   13.2880   -2.7237 H   0  0  0  0  0  0  0  0  0  0  0  0
    1.2566   12.0853   -4.3834 H   0  0  0  0  0  0  0  0  0  0  0  0
    2.5238   11.1574   -3.4235 H   0  0  0  0  0  0  0  0  0  0  0  0
    0.1630   10.0099   -3.6518 H   0  0  0  0  0  0  0  0  0  0  0  0
   -0.2048   12.3424   -0.3763 H   0  0  0  0  0  0  0  0  0  0  0  0
    1.6454   10.0473    0.5211 H   0  0  0  0  0  0  0  0  0  0  0  0
    1.0860   11.4563    1.5271 H   0  0  0  0  0  0  0  0  0  0  0  0
   -0.1589    9.3823    2.0464 H   0  0  0  0  0  0  0  0  0  0  0  0
   -1.2124   10.6899    1.3779 H   0  0  0  0  0  0  0  0  0  0  0  0
   -1.8377    8.6058    0.3674 H   0  0  0  0  0  0  0  0  0  0  0  0
   -0.2740    7.1790    0.1450 H   0  0  0  0  0  0  0  0  0  0  0  0
   -2.6441   10.8075   -0.1001 H   0  0  0  0  0  0  0  0  0  0  0  0
   -2.2411   11.6214   -1.6499 H   0  0  0  0  0  0  0  0  0  0  0  0
   -3.2679   10.1475   -1.6499 H   0  0  0  0  0  0  0  0  0  0  0  0
   -1.7729    7.7558   -1.8668 H   0  0  0  0  0  0  0  0  0  0  0  0
   -2.3155    9.0436   -2.9956 H   0  0  0  0  0  0  0  0  0  0  0  0
   -0.5990    8.5140   -2.9956 H   0  0  0  0  0  0  0  0  0  0  0  0
    3.3344   11.5939    0.3470 H   0  0  0  0  0  0  0  0  0  0  0  0
    3.0638   10.7088   -1.1925 H   0  0  0  0  0  0  0  0  0  0  0  0
    3.9882   12.2490   -1.1925 H   0  0  0  0  0  0  0  0  0  0  0  0
    1.5115   13.4156    0.9921 H   0  0  0  0  0  0  0  0  0  0  0  0
    2.9376   14.0626    0.0014 H   0  0  0  0  0  0  0  0  0  0  0  0
    0.0056   14.7706   -0.2981 H   0  0  0  0  0  0  0  0  0  0  0  0
    1.3730   15.8258    0.2351 H   0  0  0  0  0  0  0  0  0  0  0  0
    3.3089   15.8385   -0.9624 H   0  0  0  0  0  0  0  0  0  0  0  0
    3.4207   14.9410   -2.5144 H   0  0  0  0  0  0  0  0  0  0  0  0
    2.9910   16.6851   -2.5144 H   0  0  0  0  0  0  0  0  0  0  0  0
  1  2  1  0
  2  3  1  0
  3  4  1  0
  4  5  1  0
  5  6  1  0
  6  7  1  0
  7  8  1  0
  7  9  1  0
  2 10  1  0
 10 11  1  0
 11 12  1  0
 12 13  1  0
 13 14  1  1
 13 15  1  0
 15 16  1  0
 16 17  1  0
 17 18  2  0
 18 19  1  0
 19 20  1  0
 20 21  1  0
 21 22  1  0
 22 23  1  0
 22 24  1  0
 24 25  1  0
 24 26  1  0
 19 27  1  0
 27 28  1  6
 27 29  1  0
 29 30  1  0
 30 31  1  0
 31 32  1  1
  7  5  1  0
 31 10  1  0
 31 13  1  0
 27 15  1  0
 24 18  1  0
  1 33  1  0
  1 34  1  0
  1 35  1  0
  2 36  1  6
  3 37  1  0
  3 38  1  0
  4 39  1  0
  4 40  1  0
  5 41  1  1
  8 42  1  0
  8 43  1  0
  8 44  1  0
  9 45  1  0
  9 46  1  0
  9 47  1  0
 10 48  1  1
 11 49  1  0
 11 50  1  0
 12 51  1  0
 12 52  1  0
 14 53  1  0
 14 54  1  0
 14 55  1  0
 15 56  1  6
 16 57  1  0
 16 58  1  0
 17 59  1  0
 19 60  1  1
 20 61  1  0
 20 62  1  0
 21 63  1  0
 21 64  1  0
 22 65  1  1
 23 66  1  0
 25 67  1  0
 25 68  1  0
 25 69  1  0
 26 70  1  0
 26 71  1  0
 26 72  1  0
 28 73  1  0
 28 74  1  0
 28 75  1  0
 29 76  1  0
 29 77  1  0
 30 78  1  0
 30 79  1  0
 32 80  1  0
 32 81  1  0
 32 82  1  0
M  END
>  <meeko>  (2) 
{"is_sidechain": [false], "intermolecular_energy": 2.731, "internal_energy": -0.839}

$$$$
EPH_relaxed_0001_pdb2pqr_Repair_203_r2_0001_out
     RDKit          3D

 82 86  0  0  0  0  0  0  0  0999 V2000
    0.1570    8.8030   -2.3030 C   0  0  0  0  0  0  0  0  0  0  0  0
    0.9080    9.9520   -2.9800 C   0  0  2  0  0  0  0  0  0  0  0  0
    2.4190    9.9170   -2.6770 C   0  0  0  0  0  0  0  0  0  0  0  0
    3.2860   10.4830   -3.8050 C   0  0  0  0  0  0  0  0  0  0  0  0
    4.6780   10.7850   -3.3360 C   0  0  2  0  0  0  0  0  0  0  0  0
    5.2400   11.9920   -3.8670 O   0  0  0  0  0  0  0  0  0  0  0  0
    5.8900   10.7680   -4.2480 C   0  0  0  0  0  0  0  0  0  0  0  0
    5.7670   10.4410   -5.7030 C   0  0  0  0  0  0  0  0  0  0  0  0
    7.2440   10.5890   -3.6350 C   0  0  0  0  0  0  0  0  0  0  0  0
    0.3190   11.2880   -2.5410 C   0  0  1  0  0  0  0  0  0  0  0  0
   -1.0050   11.1250   -1.7480 C   0  0  0  0  0  0  0  0  0  0  0  0
   -1.0250   12.2450   -0.6770 C   0  0  0  0  0  0  0  0  0  0  0  0
    0.1110   13.2070   -1.0970 C   0  0  1  0  0  0  0  0  0  0  0  0
   -0.5110   14.0960   -2.2190 C   0  0  0  0  0  0  0  0  0  0  0  0
    0.7410   14.0730    0.0430 C   0  0  2  0  0  0  0  0  0  0  0  0
   -0.2270   15.0530    0.7290 C   0  0  0  0  0  0  0  0  0  0  0  0
   -0.2970   16.4130    0.1180 C   0  0  0  0  0  0  0  0  0  0  0  0
    0.5900   16.9240   -0.7560 C   0  0  0  0  0  0  0  0  0  0  0  0
    1.8550   16.1460   -1.1410 C   0  0  1  0  0  0  0  0  0  0  0  0
    3.0830   17.0930   -1.0830 C   0  0  0  0  0  0  0  0  0  0  0  0
    2.8920   18.3500   -1.9260 C   0  0  0  0  0  0  0  0  0  0  0  0
    1.6580   19.1270   -1.4750 C   0  0  2  0  0  0  0  0  0  0  0  0
    1.8900   19.6380   -0.1590 O   0  0  0  0  0  0  0  0  0  0  0  0
    0.3600   18.2720   -1.4830 C   0  0  0  0  0  0  0  0  0  0  0  0
   -0.0570   17.9720   -2.9440 C   0  0  0  0  0  0  0  0  0  0  0  0
   -0.7810   19.1320   -0.8740 C   0  0  0  0  0  0  0  0  0  0  0  0
    2.0960   14.7850   -0.3580 C   0  0  1  0  0  0  0  0  0  0  0  0
    2.8620   15.0640    0.9720 C   0  0  0  0  0  0  0  0  0  0  0  0
    3.0290   13.8540   -1.2200 C   0  0  0  0  0  0  0  0  0  0  0  0
    2.3380   12.9350   -2.2450 C   0  0  0  0  0  0  0  0  0  0  0  0
    1.1790   12.1690   -1.6010 C   0  0  2  0  0  0  0  0  0  0  0  0
    1.7770   11.2490   -0.4820 C   0  0  0  0  0  0  0  0  0  0  0  0
    0.2281    8.9117   -1.2107 H   0  0  0  0  0  0  0  0  0  0  0  0
   -0.9002    8.8271   -2.6059 H   0  0  0  0  0  0  0  0  0  0  0  0
    0.6034    7.8444   -2.6059 H   0  0  0  0  0  0  0  0  0  0  0  0
    0.7870    9.8314   -4.0667 H   0  0  0  0  0  0  0  0  0  0  0  0
    2.6045   10.5066   -1.7671 H   0  0  0  0  0  0  0  0  0  0  0  0
    2.6983    8.8599   -2.5562 H   0  0  0  0  0  0  0  0  0  0  0  0
    3.3364    9.7460   -4.6200 H   0  0  0  0  0  0  0  0  0  0  0  0
    2.8291   11.4221   -4.1506 H   0  0  0  0  0  0  0  0  0  0  0  0
    4.4792   10.3089   -2.3645 H   0  0  0  0  0  0  0  0  0  0  0  0
    5.3818    9.4170   -5.8174 H   0  0  0  0  0  0  0  0  0  0  0  0
    5.0737   11.1490   -6.1806 H   0  0  0  0  0  0  0  0  0  0  0  0
    6.7550   10.5166   -6.1806 H   0  0  0  0  0  0  0  0  0  0  0  0
    7.1546   10.6008   -2.5387 H   0  0  0  0  0  0  0  0  0  0  0  0
    7.6684    9.6269   -3.9579 H   0  0  0  0  0  0  0  0  0  0  0  0
    7.9038   11.4077   -3.9579 H   0  0  0  0  0  0  0  0  0  0  0  0
    0.2146   11.7754   -3.5216 H   0  0  0  0  0  0  0  0  0  0  0  0
   -1.8667   11.2312   -2.4234 H   0  0  0  0  0  0  0  0  0  0  0  0
   -1.0662   10.1308   -1.2812 H   0  0  0  0  0  0  0  0  0  0  0  0
   -1.9942   12.7652   -0.6772 H   0  0  0  0  0  0  0  0  0  0  0  0
   -0.8836   11.8517    0.3405 H   0  0  0  0  0  0  0  0  0  0  0  0
   -1.0845   14.9157   -1.7616 H   0  0  0  0  0  0  0  0  0  0  0  0
    0.2925   14.5143   -2.8431 H   0  0  0  0  0  0  0  0  0  0  0  0
   -1.1793   13.4845   -2.8431 H   0  0  0  0  0  0  0  0  0  0  0  0
    0.9896   13.3177    0.8030 H   0  0  0  0  0  0  0  0  0  0  0  0
   -1.2349   14.6136    0.6967 H   0  0  0  0  0  0  0  0  0  0  0  0
    0.1584   15.1973    1.7491 H   0  0  0  0  0  0  0  0  0  0  0  0
   -1.1450   17.0516    0.4063 H   0  0  0  0  0  0  0  0  0  0  0  0
    1.6983   15.8015   -2.1738 H   0  0  0  0  0  0  0  0  0  0  0  0
    3.2492   17.3914   -0.0374 H   0  0  0  0  0  0  0  0  0  0  0  0
    3.9463   16.5459   -1.4897 H   0  0  0  0  0  0  0  0  0  0  0  0
    3.7794   18.9916   -1.8218 H   0  0  0  0  0  0  0  0  0  0  0  0
    2.7545   18.0512   -2.9757 H   0  0  0  0  0  0  0  0  0  0  0  0
    1.5004   19.9434   -2.1952 H   0  0  0  0  0  0  0  0  0  0  0  0
    2.7610   20.0690   -0.1600 H   0  0  0  0  0  0  0  0  0  0  0  0
   -0.9499   17.3296   -2.9459 H   0  0  0  0  0  0  0  0  0  0  0  0
   -0.2831   18.9157   -3.4619 H   0  0  0  0  0  0  0  0  0  0  0  0
    0.7659   17.4576   -3.4619 H   0  0  0  0  0  0  0  0  0  0  0  0
   -0.7256   19.0903    0.2238 H   0  0  0  0  0  0  0  0  0  0  0  0
   -0.6721   20.1746   -1.2073 H   0  0  0  0  0  0  0  0  0  0  0  0
   -1.7533   18.7402   -1.2073 H   0  0  0  0  0  0  0  0  0  0  0  0
    2.2112   14.8270    1.8266 H   0  0  0  0  0  0  0  0  0  0  0  0
    3.7648   14.4370    1.0136 H   0  0  0  0  0  0  0  0  0  0  0  0
    3.1501   16.1248    1.0136 H   0  0  0  0  0  0  0  0  0  0  0  0
    3.7273   14.5012   -1.7710 H   0  0  0  0  0  0  0  0  0  0  0  0
    3.5032   13.1736   -0.4974 H   0  0  0  0  0  0  0  0  0  0  0  0
    1.9492   13.5470   -3.0723 H   0  0  0  0  0  0  0  0  0  0  0  0
    3.0750   12.2080   -2.6169 H   0  0  0  0  0  0  0  0  0  0  0  0
    1.5133   11.6546    0.5059 H   0  0  0  0  0  0  0  0  0  0  0  0
    1.3656   10.2338   -0.5833 H   0  0  0  0  0  0  0  0  0  0  0  0
    2.8717   11.2128   -0.5833 H   0  0  0  0  0  0  0  0  0  0  0  0
  1  2  1  0
  2  3  1  0
  3  4  1  0
  4  5  1  0
  5  6  1  0
  6  7  1  0
  7  8  1  0
  7  9  1  0
  2 10  1  0
 10 11  1  0
 11 12  1  0
 12 13  1  0
 13 14  1  6
 13 15  1  0
 15 16  1  0
 16 17  1  0
 17 18  2  0
 18 19  1  0
 19 20  1  0
 20 21  1  0
 21 22  1  0
 22 23  1  0
 22 24  1  0
 24 25  1  0
 24 26  1  0
 19 27  1  0
 27 28  1  1
 27 29  1  0
 29 30  1  0
 30 31  1  0
 31 32  1  1
  7  5  1  0
 31 10  1  0
 31 13  1  0
 27 15  1  0
 24 18  1  0
  1 33  1  0
  1 34  1  0
  1 35  1  0
  2 36  1  6
  3 37  1  0
  3 38  1  0
  4 39  1  0
  4 40  1  0
  5 41  1  1
  8 42  1  0
  8 43  1  0
  8 44  1  0
  9 45  1  0
  9 46  1  0
  9 47  1  0
 10 48  1  6
 11 49  1  0
 11 50  1  0
 12 51  1  0
 12 52  1  0
 14 53  1  0
 14 54  1  0
 14 55  1  0
 15 56  1  1
 16 57  1  0
 16 58  1  0
 17 59  1  0
 19 60  1  6
 20 61  1  0
 20 62  1  0
 21 63  1  0
 21 64  1  0
 22 65  1  6
 23 66  1  0
 25 67  1  0
 25 68  1  0
 25 69  1  0
 26 70  1  0
 26 71  1  0
 26 72  1  0
 28 73  1  0
 28 74  1  0
 28 75  1  0
 29 76  1  0
 29 77  1  0
 30 78  1  0
 30 79  1  0
 32 80  1  0
 32 81  1  0
 32 82  1  0
M  END
>  <meeko>  (3) 
{"is_sidechain": [false], "intermolecular_energy": 2.731, "internal_energy": -0.839}

$$$$
EPH_relaxed_0001_pdb2pqr_Repair_203_r2_0001_out
     RDKit          3D

 82 86  0  0  0  0  0  0  0  0999 V2000
    2.1810   17.9880   -2.2030 C   0  0  0  0  0  0  0  0  0  0  0  0
    0.7100   17.9100   -2.6230 C   0  0  2  0  0  0  0  0  0  0  0  0
   -0.2310   18.5010   -1.5550 C   0  0  0  0  0  0  0  0  0  0  0  0
   -0.0180   17.9190   -0.1560 C   0  0  0  0  0  0  0  0  0  0  0  0
   -1.3170   17.7110    0.5620 C   0  0  2  0  0  0  0  0  0  0  0  0
   -1.2330   17.8040    1.9900 O   0  0  0  0  0  0  0  0  0  0  0  0
   -1.5960   16.5190    1.4600 C   0  0  0  0  0  0  0  0  0  0  0  0
   -0.5680   15.4560    1.6860 C   0  0  0  0  0  0  0  0  0  0  0  0
   -3.0190   16.1390    1.7220 C   0  0  0  0  0  0  0  0  0  0  0  0
    0.3280   16.4620   -2.9100 C   0  0  1  0  0  0  0  0  0  0  0  0
    0.3330   16.1330   -4.4270 C   0  0  0  0  0  0  0  0  0  0  0  0
    0.8160   14.6660   -4.5640 C   0  0  0  0  0  0  0  0  0  0  0  0
    0.7540   14.0990   -3.1270 C   0  0  1  0  0  0  0  0  0  0  0  0
   -0.7440   13.7180   -2.9100 C   0  0  0  0  0  0  0  0  0  0  0  0
    1.7050   12.8970   -2.8160 C   0  0  2  0  0  0  0  0  0  0  0  0
    1.4400   11.6250   -3.6390 C   0  0  0  0  0  0  0  0  0  0  0  0
    0.4800   10.6590   -3.0280 C   0  0  0  0  0  0  0  0  0  0  0  0
    0.0740   10.6650   -1.7450 C   0  0  0  0  0  0  0  0  0  0  0  0
    0.6660   11.6580   -0.7360 C   0  0  1  0  0  0  0  0  0  0  0  0
    1.0370   10.9090    0.5710 C   0  0  0  0  0  0  0  0  0  0  0  0
   -0.1360   10.1220    1.1470 C   0  0  0  0  0  0  0  0  0  0  0  0
   -0.6600    9.1050    0.1360 C   0  0  2  0  0  0  0  0  0  0  0  0
    0.3430    8.1060   -0.0750 O   0  0  0  0  0  0  0  0  0  0  0  0
   -1.0560    9.7430   -1.2250 C   0  0  0  0  0  0  0  0  0  0  0  0
   -2.3360   10.5960   -1.0470 C   0  0  0  0  0  0  0  0  0  0  0  0
   -1.4330    8.5940   -2.1990 C   0  0  0  0  0  0  0  0  0  0  0  0
    1.8520   12.5690   -1.2750 C   0  0  1  0  0  0  0  0  0  0  0  0
    3.2130   11.8260   -1.1060 C   0  0  0  0  0  0  0  0  0  0  0  0
    1.9430   13.8690   -0.3920 C   0  0  0  0  0  0  0  0  0  0  0  0
    1.0680   15.0630   -0.8200 C   0  0  0  0  0  0  0  0  0  0  0  0
    1.2340   15.3560   -2.3140 C   0  0  2  0  0  0  0  0  0  0  0  0
    2.7270   15.7640   -2.5590 C   0  0  0  0  0  0  0  0  0  0  0  0
    2.2492   17.9916   -1.1051 H   0  0  0  0  0  0  0  0  0  0  0  0
    2.7227   17.1173   -2.6011 H   0  0  0  0  0  0  0  0  0  0  0  0
    2.6275   18.9111   -2.6011 H   0  0  0  0  0  0  0  0  0  0  0  0
    0.5938   18.5135   -3.5353 H   0  0  0  0  0  0  0  0  0  0  0  0
   -0.0640   19.5872   -1.5081 H   0  0  0  0  0  0  0  0  0  0  0  0
   -1.2580   18.2462   -1.8557 H   0  0  0  0  0  0  0  0  0  0  0  0
    0.4977   16.9517   -0.2471 H   0  0  0  0  0  0  0  0  0  0  0  0
    0.5838   18.6337    0.4245 H   0  0  0  0  0  0  0  0  0  0  0  0
   -1.8777   18.1506   -0.2761 H   0  0  0  0  0  0  0  0  0  0  0  0
   -0.4250   15.3081    2.7666 H   0  0  0  0  0  0  0  0  0  0  0  0
   -0.9072   14.5148    1.2288 H   0  0  0  0  0  0  0  0  0  0  0  0
    0.3841   15.7635    1.2288 H   0  0  0  0  0  0  0  0  0  0  0  0
   -3.1923   16.0927    2.8073 H   0  0  0  0  0  0  0  0  0  0  0  0
   -3.6872   16.8902    1.2757 H   0  0  0  0  0  0  0  0  0  0  0  0
   -3.2238   15.1547    1.2757 H   0  0  0  0  0  0  0  0  0  0  0  0
   -0.6626   16.4341   -2.4325 H   0  0  0  0  0  0  0  0  0  0  0  0
   -0.6807   16.2385   -4.8410 H   0  0  0  0  0  0  0  0  0  0  0  0
    0.9925   16.8195   -4.9782 H   0  0  0  0  0  0  0  0  0  0  0  0
    0.1523   14.0996   -5.2339 H   0  0  0  0  0  0  0  0  0  0  0  0
    1.8253   14.5978   -4.9961 H   0  0  0  0  0  0  0  0  0  0  0  0
   -0.9562   13.6640   -1.8320 H   0  0  0  0  0  0  0  0  0  0  0  0
   -1.3872   14.4812   -3.3725 H   0  0  0  0  0  0  0  0  0  0  0  0
   -0.9444   12.7403   -3.3725 H   0  0  0  0  0  0  0  0  0  0  0  0
    2.6806   13.2741   -3.1565 H   0  0  0  0  0  0  0  0  0  0  0  0
    1.0391   11.9302   -4.6168 H   0  0  0  0  0  0  0  0  0  0  0  0
    2.4032   11.0977   -3.7030 H   0  0  0  0  0  0  0  0  0  0  0  0
    0.0695    9.8756   -3.6821 H   0  0  0  0  0  0  0  0  0  0  0  0
   -0.1260   12.3937   -0.5323 H   0  0  0  0  0  0  0  0  0  0  0  0
    1.8588   10.2102    0.3559 H   0  0  0  0  0  0  0  0  0  0  0  0
    1.3313   11.6629    1.3160 H   0  0  0  0  0  0  0  0  0  0  0  0
    0.1959    9.5918    2.0519 H   0  0  0  0  0  0  0  0  0  0  0  0
   -0.9460   10.8259    1.3888 H   0  0  0  0  0  0  0  0  0  0  0  0
   -1.5770    8.6651    0.5552 H   0  0  0  0  0  0  0  0  0  0  0  0
    0.8050    8.3230   -0.9020 H   0  0  0  0  0  0  0  0  0  0  0  0
   -2.5399   10.7319    0.0254 H   0  0  0  0  0  0  0  0  0  0  0  0
   -2.1906   11.5784   -1.5200 H   0  0  0  0  0  0  0  0  0  0  0  0
   -3.1868   10.0837   -1.5200 H   0  0  0  0  0  0  0  0  0  0  0  0
   -1.7248    7.7046   -1.6213 H   0  0  0  0  0  0  0  0  0  0  0  0
   -2.2740    8.9117   -2.8328 H   0  0  0  0  0  0  0  0  0  0  0  0
   -0.5672    8.3517   -2.8328 H   0  0  0  0  0  0  0  0  0  0  0  0
    3.4343   11.7052   -0.0353 H   0  0  0  0  0  0  0  0  0  0  0  0
    3.1519   10.8361   -1.5818 H   0  0  0  0  0  0  0  0  0  0  0  0
    4.0126   12.4127   -1.5818 H   0  0  0  0  0  0  0  0  0  0  0  0
    1.6540   13.5955    0.6335 H   0  0  0  0  0  0  0  0  0  0  0  0
    2.9802   14.2188   -0.5013 H   0  0  0  0  0  0  0  0  0  0  0  0
    0.0132   14.8283   -0.6143 H   0  0  0  0  0  0  0  0  0  0  0  0
    1.3827   15.9504   -0.2513 H   0  0  0  0  0  0  0  0  0  0  0  0
    3.2328   15.9022   -1.5920 H   0  0  0  0  0  0  0  0  0  0  0  0
    3.2349   14.9717   -3.1285 H   0  0  0  0  0  0  0  0  0  0  0  0
    2.7614   16.7045   -3.1285 H   0  0  0  0  0  0  0  0  0  0  0  0
  1  2  1  0
  2  3  1  0
  3  4  1  0
  4  5  1  0
  5  6  1  0
  6  7  1  0
  7  8  1  0
  7  9  1  0
  2 10  1  0
 10 11  1  0
 11 12  1  0
 12 13  1  0
 13 14  1  1
 13 15  1  0
 15 16  1  0
 16 17  1  0
 17 18  2  0
 18 19  1  0
 19 20  1  0
 20 21  1  0
 21 22  1  0
 22 23  1  0
 22 24  1  0
 24 25  1  0
 24 26  1  0
 19 27  1  0
 27 28  1  6
 27 29  1  0
 29 30  1  0
 30 31  1  0
 31 32  1  1
  7  5  1  0
 31 10  1  0
 31 13  1  0
 27 15  1  0
 24 18  1  0
  1 33  1  0
  1 34  1  0
  1 35  1  0
  2 36  1  6
  3 37  1  0
  3 38  1  0
  4 39  1  0
  4 40  1  0
  5 41  1  6
  8 42  1  0
  8 43  1  0
  8 44  1  0
  9 45  1  0
  9 46  1  0
  9 47  1  0
 10 48  1  1
 11 49  1  0
 11 50  1  0
 12 51  1  0
 12 52  1  0
 14 53  1  0
 14 54  1  0
 14 55  1  0
 15 56  1  6
 16 57  1  0
 16 58  1  0
 17 59  1  0
 19 60  1  1
 20 61  1  0
 20 62  1  0
 21 63  1  0
 21 64  1  0
 22 65  1  1
 23 66  1  0
 25 67  1  0
 25 68  1  0
 25 69  1  0
 26 70  1  0
 26 71  1  0
 26 72  1  0
 28 73  1  0
 28 74  1  0
 28 75  1  0
 29 76  1  0
 29 77  1  0
 30 78  1  0
 30 79  1  0
 32 80  1  0
 32 81  1  0
 32 82  1  0
M  END
>  <meeko>  (4) 
{"is_sidechain": [false], "intermolecular_energy": 2.731, "internal_energy": -0.839}

$$$$
EPH_relaxed_0001_pdb2pqr_Repair_203_r2_0001_out
     RDKit          3D

 82 86  0  0  0  0  0  0  0  0999 V2000
   -5.2360    5.8180   -1.5970 C   0  0  0  0  0  0  0  0  0  0  0  0
   -5.4720    7.3150   -1.8120 C   0  0  2  0  0  0  0  0  0  0  0  0
   -5.1860    8.1370   -0.5390 C   0  0  0  0  0  0  0  0  0  0  0  0
   -4.2010    9.2890   -0.7590 C   0  0  0  0  0  0  0  0  0  0  0  0
   -2.8030    8.9030   -0.3820 C   0  0  2  0  0  0  0  0  0  0  0  0
   -2.2430    9.6620    0.6970 O   0  0  0  0  0  0  0  0  0  0  0  0
   -1.6030    9.8090   -0.5810 C   0  0  0  0  0  0  0  0  0  0  0  0
   -1.7450   11.1730   -1.1800 C   0  0  0  0  0  0  0  0  0  0  0  0
   -0.2420    9.1890   -0.6480 C   0  0  0  0  0  0  0  0  0  0  0  0
   -6.9050    7.5540   -2.2750 C   0  0  1  0  0  0  0  0  0  0  0  0
   -7.2190    6.8640   -3.6290 C   0  0  0  0  0  0  0  0  0  0  0  0
   -8.6980    6.4030   -3.5630 C   0  0  0  0  0  0  0  0  0  0  0  0
   -9.2780    7.1270   -2.3260 C   0  0  1  0  0  0  0  0  0  0  0  0
   -9.6170    8.5660   -2.8260 C   0  0  0  0  0  0  0  0  0  0  0  0
  -10.5090    6.4480   -1.6420 C   0  0  2  0  0  0  0  0  0  0  0  0
  -11.7650    6.3340   -2.5250 C   0  0  0  0  0  0  0  0  0  0  0  0
  -12.7090    7.4880   -2.4410 C   0  0  0  0  0  0  0  0  0  0  0  0
  -12.7040    8.4350   -1.4850 C   0  0  0  0  0  0  0  0  0  0  0  0
  -11.7400    8.3480   -0.2950 C   0  0  1  0  0  0  0  0  0  0  0  0
  -12.5130    8.6320    1.0200 C   0  0  0  0  0  0  0  0  0  0  0  0
  -13.2710    9.9550    0.9790 C   0  0  0  0  0  0  0  0  0  0  0  0
  -14.2620    9.9800   -0.1830 C   0  0  2  0  0  0  0  0  0  0  0  0
  -15.2870    9.0130    0.0650 O   0  0  0  0  0  0  0  0  0  0  0  0
  -13.5990    9.6970   -1.5600 C   0  0  0  0  0  0  0  0  0  0  0  0
  -12.7100   10.8990   -1.9660 C   0  0  0  0  0  0  0  0  0  0  0  0
  -14.7260    9.6110   -2.6240 C   0  0  0  0  0  0  0  0  0  0  0  0
  -10.8580    7.0290   -0.2120 C   0  0  1  0  0  0  0  0  0  0  0  0
  -11.6420    5.9110    0.5430 C   0  0  0  0  0  0  0  0  0  0  0  0
   -9.5700    7.3240    0.6440 C   0  0  0  0  0  0  0  0  0  0  0  0
   -8.3480    7.8810   -0.1090 C   0  0  0  0  0  0  0  0  0  0  0  0
   -8.0430    7.0450   -1.3560 C   0  0  2  0  0  0  0  0  0  0  0  0
   -7.6770    5.5970   -0.8830 C   0  0  0  0  0  0  0  0  0  0  0  0
   -5.2022    5.6033   -0.5187 H   0  0  0  0  0  0  0  0  0  0  0  0
   -6.0553    5.2476   -2.0589 H   0  0  0  0  0  0  0  0  0  0  0  0
   -4.2809    5.5273   -2.0589 H   0  0  0  0  0  0  0  0  0  0  0  0
   -4.7690    7.6526   -2.5878 H   0  0  0  0  0  0  0  0  0  0  0  0
   -6.1357    8.5566   -0.1758 H   0  0  0  0  0  0  0  0  0  0  0  0
   -4.7241    7.4533    0.1884 H   0  0  0  0  0  0  0  0  0  0  0  0
   -4.2178    9.5744   -1.8212 H   0  0  0  0  0  0  0  0  0  0  0  0
   -4.5086   10.1298   -0.1198 H   0  0  0  0  0  0  0  0  0  0  0  0
   -2.9913    7.8560   -0.6619 H   0  0  0  0  0  0  0  0  0  0  0  0
   -1.8228   11.9201   -0.3764 H   0  0  0  0  0  0  0  0  0  0  0  0
   -0.8650   11.3938   -1.8020 H   0  0  0  0  0  0  0  0  0  0  0  0
   -2.6516   11.2078   -1.8020 H   0  0  0  0  0  0  0  0  0  0  0  0
    0.1336    9.0179    0.3716 H   0  0  0  0  0  0  0  0  0  0  0  0
   -0.3021    8.2294   -1.1824 H   0  0  0  0  0  0  0  0  0  0  0  0
    0.4426    9.8641   -1.1824 H   0  0  0  0  0  0  0  0  0  0  0  0
   -6.9082    8.6536   -2.3039 H   0  0  0  0  0  0  0  0  0  0  0  0
   -7.0801    7.5742   -4.4574 H   0  0  0  0  0  0  0  0  0  0  0  0
   -6.5466    6.0111   -3.8032 H   0  0  0  0  0  0  0  0  0  0  0  0
   -9.2379    6.6988   -4.4746 H   0  0  0  0  0  0  0  0  0  0  0  0
   -8.7909    5.3095   -3.4877 H   0  0  0  0  0  0  0  0  0  0  0  0
   -9.7728    9.2275   -1.9610 H   0  0  0  0  0  0  0  0  0  0  0  0
   -8.7843    8.9483   -3.4347 H   0  0  0  0  0  0  0  0  0  0  0  0
  -10.5328    8.5364   -3.4347 H   0  0  0  0  0  0  0  0  0  0  0  0
  -10.1562    5.4173   -1.4898 H   0  0  0  0  0  0  0  0  0  0  0  0
  -11.4380    6.2375   -3.5708 H   0  0  0  0  0  0  0  0  0  0  0  0
  -12.3194    5.4589   -2.1550 H   0  0  0  0  0  0  0  0  0  0  0  0
  -13.4735    7.5710   -3.2275 H   0  0  0  0  0  0  0  0  0  0  0  0
  -10.9835    9.1295   -0.4591 H   0  0  0  0  0  0  0  0  0  0  0  0
  -13.2334    7.8180    1.1883 H   0  0  0  0  0  0  0  0  0  0  0  0
  -11.7756    8.6949    1.8338 H   0  0  0  0  0  0  0  0  0  0  0  0
  -13.8200   10.0849    1.9233 H   0  0  0  0  0  0  0  0  0  0  0  0
  -12.5464   10.7709    0.8403 H   0  0  0  0  0  0  0  0  0  0  0  0
  -14.6793   10.9962   -0.2390 H   0  0  0  0  0  0  0  0  0  0  0  0
  -14.8600    8.2160    0.4220 H   0  0  0  0  0  0  0  0  0  0  0  0
  -12.3380   11.4020   -1.0612 H   0  0  0  0  0  0  0  0  0  0  0  0
  -11.8583   10.5402   -2.5625 H   0  0  0  0  0  0  0  0  0  0  0  0
  -13.3025   11.6083   -2.5625 H   0  0  0  0  0  0  0  0  0  0  0  0
  -15.7010    9.5366   -2.1202 H   0  0  0  0  0  0  0  0  0  0  0  0
  -14.7061   10.5133   -3.2529 H   0  0  0  0  0  0  0  0  0  0  0  0
  -14.5695    8.7222   -3.2529 H   0  0  0  0  0  0  0  0  0  0  0  0
  -11.5381    6.0591    1.6280 H   0  0  0  0  0  0  0  0  0  0  0  0
  -12.7057    5.9585    0.2666 H   0  0  0  0  0  0  0  0  0  0  0  0
  -11.2349    4.9272    0.2666 H   0  0  0  0  0  0  0  0  0  0  0  0
   -9.8454    8.0552    1.4182 H   0  0  0  0  0  0  0  0  0  0  0  0
   -9.2492    6.3444    1.0280 H   0  0  0  0  0  0  0  0  0  0  0  0
   -8.5547    8.9178   -0.4128 H   0  0  0  0  0  0  0  0  0  0  0  0
   -7.4762    7.8419    0.5607 H   0  0  0  0  0  0  0  0  0  0  0  0
   -7.6681    5.5617    0.2164 H   0  0  0  0  0  0  0  0  0  0  0  0
   -8.4237    4.8862   -1.2666 H   0  0  0  0  0  0  0  0  0  0  0  0
   -6.6822    5.3264   -1.2666 H   0  0  0  0  0  0  0  0  0  0  0  0
  1  2  1  0
  2  3  1  0
  3  4  1  0
  4  5  1  0
  5  6  1  0
  6  7  1  0
  7  8  1  0
  7  9  1  0
  2 10  1  0
 10 11  1  0
 11 12  1  0
 12 13  1  0
 13 14  1  6
 13 15  1  0
 15 16  1  0
 16 17  1  0
 17 18  2  0
 18 19  1  0
 19 20  1  0
 20 21  1  0
 21 22  1  0
 22 23  1  0
 22 24  1  0
 24 25  1  0
 24 26  1  0
 19 27  1  0
 27 28  1  1
 27 29  1  0
 29 30  1  0
 30 31  1  0
 31 32  1  1
  7  5  1  0
 31 10  1  0
 31 13  1  0
 27 15  1  0
 24 18  1  0
  1 33  1  0
  1 34  1  0
  1 35  1  0
  2 36  1  6
  3 37  1  0
  3 38  1  0
  4 39  1  0
  4 40  1  0
  5 41  1  1
  8 42  1  0
  8 43  1  0
  8 44  1  0
  9 45  1  0
  9 46  1  0
  9 47  1  0
 10 48  1  6
 11 49  1  0
 11 50  1  0
 12 51  1  0
 12 52  1  0
 14 53  1  0
 14 54  1  0
 14 55  1  0
 15 56  1  1
 16 57  1  0
 16 58  1  0
 17 59  1  0
 19 60  1  6
 20 61  1  0
 20 62  1  0
 21 63  1  0
 21 64  1  0
 22 65  1  6
 23 66  1  0
 25 67  1  0
 25 68  1  0
 25 69  1  0
 26 70  1  0
 26 71  1  0
 26 72  1  0
 28 73  1  0
 28 74  1  0
 28 75  1  0
 29 76  1  0
 29 77  1  0
 30 78  1  0
 30 79  1  0
 32 80  1  0
 32 81  1  0
 32 82  1  0
M  END
>  <meeko>  (5) 
{"is_sidechain": [false], "intermolecular_energy": 2.731, "internal_energy": -0.839}

$$$$
EPH_relaxed_0001_pdb2pqr_Repair_203_r2_0001_out
     RDKit          3D

 82 86  0  0  0  0  0  0  0  0999 V2000
   -0.1140    9.4400   -4.1490 C   0  0  0  0  0  0  0  0  0  0  0  0
    0.0800    9.5850   -2.6370 C   0  0  2  0  0  0  0  0  0  0  0  0
   -0.7030    8.5170   -1.8460 C   0  0  0  0  0  0  0  0  0  0  0  0
   -2.2190    8.5880   -2.0500 C   0  0  0  0  0  0  0  0  0  0  0  0
   -2.7570    7.3240   -2.6490 C   0  0  2  0  0  0  0  0  0  0  0  0
   -3.7940    7.5150   -3.6200 O   0  0  0  0  0  0  0  0  0  0  0  0
   -4.1710    6.8250   -2.4180 C   0  0  0  0  0  0  0  0  0  0  0  0
   -5.1350    7.5820   -1.5580 C   0  0  0  0  0  0  0  0  0  0  0  0
   -4.4590    5.3700   -2.6230 C   0  0  0  0  0  0  0  0  0  0  0  0
   -0.3450   10.9790   -2.1910 C   0  0  1  0  0  0  0  0  0  0  0  0
   -1.5480   10.9520   -1.2110 C   0  0  0  0  0  0  0  0  0  0  0  0
   -1.3350   12.1150   -0.2080 C   0  0  0  0  0  0  0  0  0  0  0  0
   -0.2080   12.9680   -0.8340 C   0  0  1  0  0  0  0  0  0  0  0  0
   -0.9220   13.8540   -1.9030 C   0  0  0  0  0  0  0  0  0  0  0  0
    0.6390   13.8300    0.1580 C   0  0  2  0  0  0  0  0  0  0  0  0
   -0.1490   14.9090    0.9210 C   0  0  0  0  0  0  0  0  0  0  0  0
   -0.2110   16.2440    0.2550 C   0  0  0  0  0  0  0  0  0  0  0  0
    0.5730   16.6490   -0.7610 C   0  0  0  0  0  0  0  0  0  0  0  0
    1.7120   15.7610   -1.2780 C   0  0  1  0  0  0  0  0  0  0  0  0
    2.9980   16.6120   -1.4440 C   0  0  0  0  0  0  0  0  0  0  0  0
    2.7760   17.8440   -2.3170 C   0  0  0  0  0  0  0  0  0  0  0  0
    1.6770   18.7310   -1.7380 C   0  0  2  0  0  0  0  0  0  0  0  0
    2.1320   19.2780   -0.4960 O   0  0  0  0  0  0  0  0  0  0  0  0
    0.3350   17.9790   -1.5180 C   0  0  0  0  0  0  0  0  0  0  0  0
   -0.3080   17.6500   -2.8870 C   0  0  0  0  0  0  0  0  0  0  0  0
   -0.6430   18.9480   -0.8000 C   0  0  0  0  0  0  0  0  0  0  0  0
    1.9690   14.4190   -0.4660 C   0  0  1  0  0  0  0  0  0  0  0  0
    2.9360   14.6950    0.7250 C   0  0  0  0  0  0  0  0  0  0  0  0
    2.7000   13.3840   -1.4010 C   0  0  0  0  0  0  0  0  0  0  0  0
    1.8050   12.4790   -2.2690 C   0  0  0  0  0  0  0  0  0  0  0  0
    0.7010   11.8310   -1.4280 C   0  0  2  0  0  0  0  0  0  0  0  0
    1.3890   10.9160   -0.3580 C   0  0  0  0  0  0  0  0  0  0  0  0
   -0.9807    8.7922   -4.3470 H   0  0  0  0  0  0  0  0  0  0  0  0
   -0.2880   10.4312   -4.5931 H   0  0  0  0  0  0  0  0  0  0  0  0
    0.7874    8.9924   -4.5931 H   0  0  0  0  0  0  0  0  0  0  0  0
    1.1488    9.4357   -2.4240 H   0  0  0  0  0  0  0  0  0  0  0  0
   -0.3557    7.5236   -2.1663 H   0  0  0  0  0  0  0  0  0  0  0  0
   -0.5132    8.7041   -0.7788 H   0  0  0  0  0  0  0  0  0  0  0  0
   -2.7024    8.7550   -1.0761 H   0  0  0  0  0  0  0  0  0  0  0  0
   -2.4336    9.4147   -2.7432 H   0  0  0  0  0  0  0  0  0  0  0  0
   -1.7767    6.8342   -2.5541 H   0  0  0  0  0  0  0  0  0  0  0  0
   -4.9026    7.3995   -0.4984 H   0  0  0  0  0  0  0  0  0  0  0  0
   -5.0506    8.6577   -1.7719 H   0  0  0  0  0  0  0  0  0  0  0  0
   -6.1600    7.2449   -1.7719 H   0  0  0  0  0  0  0  0  0  0  0  0
   -4.5571    4.8744   -1.6459 H   0  0  0  0  0  0  0  0  0  0  0  0
   -5.3968    5.2577   -3.1869 H   0  0  0  0  0  0  0  0  0  0  0  0
   -3.6347    4.9089   -3.1869 H   0  0  0  0  0  0  0  0  0  0  0  0
   -0.5557   11.4302   -3.1718 H   0  0  0  0  0  0  0  0  0  0  0  0
   -2.4890   11.0951   -1.7625 H   0  0  0  0  0  0  0  0  0  0  0  0
   -1.6095    9.9862   -0.6881 H   0  0  0  0  0  0  0  0  0  0  0  0
   -2.2555   12.7073   -0.0990 H   0  0  0  0  0  0  0  0  0  0  0  0
   -1.0760   11.7555    0.7988 H   0  0  0  0  0  0  0  0  0  0  0  0
   -1.5353   14.6150   -1.3982 H   0  0  0  0  0  0  0  0  0  0  0  0
   -0.1676   14.3492   -2.5320 H   0  0  0  0  0  0  0  0  0  0  0  0
   -1.5662   13.2221   -2.5320 H   0  0  0  0  0  0  0  0  0  0  0  0
    0.9418   13.0899    0.9133 H   0  0  0  0  0  0  0  0  0  0  0  0
   -1.1793   14.5473    1.0539 H   0  0  0  0  0  0  0  0  0  0  0  0
    0.3884   15.0659    1.8679 H   0  0  0  0  0  0  0  0  0  0  0  0
   -0.9615   16.9572    0.6265 H   0  0  0  0  0  0  0  0  0  0  0  0
    1.3833   15.3861   -2.2585 H   0  0  0  0  0  0  0  0  0  0  0  0
    3.3342   16.9405   -0.4495 H   0  0  0  0  0  0  0  0  0  0  0  0
    3.7526   15.9834   -1.9394 H   0  0  0  0  0  0  0  0  0  0  0  0
    3.7117   18.4196   -2.3722 H   0  0  0  0  0  0  0  0  0  0  0  0
    2.4687   17.5132   -3.3201 H   0  0  0  0  0  0  0  0  0  0  0  0
    1.4742   19.5257   -2.4711 H   0  0  0  0  0  0  0  0  0  0  0  0
    2.6330   18.5840   -0.0350 H   0  0  0  0  0  0  0  0  0  0  0  0
   -1.2769   17.1543   -2.7274 H   0  0  0  0  0  0  0  0  0  0  0  0
   -0.4611   18.5805   -3.4533 H   0  0  0  0  0  0  0  0  0  0  0  0
    0.3571   16.9814   -3.4533 H   0  0  0  0  0  0  0  0  0  0  0  0
   -0.5333   18.8393    0.2891 H   0  0  0  0  0  0  0  0  0  0  0  0
   -0.4121   19.9836   -1.0902 H   0  0  0  0  0  0  0  0  0  0  0  0
   -1.6764   18.7076   -1.0902 H   0  0  0  0  0  0  0  0  0  0  0  0
    2.4015   14.5424    1.6742 H   0  0  0  0  0  0  0  0  0  0  0  0
    3.7910   14.0050    0.6706 H   0  0  0  0  0  0  0  0  0  0  0  0
    3.2980   15.7323    0.6706 H   0  0  0  0  0  0  0  0  0  0  0  0
    3.3551   13.9520   -2.0780 H   0  0  0  0  0  0  0  0  0  0  0  0
    3.2248   12.6998   -0.7180 H   0  0  0  0  0  0  0  0  0  0  0  0
    1.3439   13.0843   -3.0633 H   0  0  0  0  0  0  0  0  0  0  0  0
    2.4276   11.6831   -2.7037 H   0  0  0  0  0  0  0  0  0  0  0  0
    1.1244   11.2679    0.6500 H   0  0  0  0  0  0  0  0  0  0  0  0
    1.0449    9.8791   -0.4865 H   0  0  0  0  0  0  0  0  0  0  0  0
    2.4806   10.9587   -0.4865 H   0  0  0  0  0  0  0  0  0  0  0  0
  1  2  1  0
  2  3  1  0
  3  4  1  0
  4  5  1  0
  5  6  1  0
  6  7  1  0
  7  8  1  0
  7  9  1  0
  2 10  1  0
 10 11  1  0
 11 12  1  0
 12 13  1  0
 13 14  1  6
 13 15  1  0
 15 16  1  0
 16 17  1  0
 17 18  2  0
 18 19  1  0
 19 20  1  0
 20 21  1  0
 21 22  1  0
 22 23  1  0
 22 24  1  0
 24 25  1  0
 24 26  1  0
 19 27  1  0
 27 28  1  1
 27 29  1  0
 29 30  1  0
 30 31  1  0
 31 32  1  1
  7  5  1  0
 31 10  1  0
 31 13  1  0
 27 15  1  0
 24 18  1  0
  1 33  1  0
  1 34  1  0
  1 35  1  0
  2 36  1  6
  3 37  1  0
  3 38  1  0
  4 39  1  0
  4 40  1  0
  5 41  1  6
  8 42  1  0
  8 43  1  0
  8 44  1  0
  9 45  1  0
  9 46  1  0
  9 47  1  0
 10 48  1  6
 11 49  1  0
 11 50  1  0
 12 51  1  0
 12 52  1  0
 14 53  1  0
 14 54  1  0
 14 55  1  0
 15 56  1  1
 16 57  1  0
 16 58  1  0
 17 59  1  0
 19 60  1  6
 20 61  1  0
 20 62  1  0
 21 63  1  0
 21 64  1  0
 22 65  1  6
 23 66  1  0
 25 67  1  0
 25 68  1  0
 25 69  1  0
 26 70  1  0
 26 71  1  0
 26 72  1  0
 28 73  1  0
 28 74  1  0
 28 75  1  0
 29 76  1  0
 29 77  1  0
 30 78  1  0
 30 79  1  0
 32 80  1  0
 32 81  1  0
 32 82  1  0
M  END
>  <meeko>  (6) 
{"is_sidechain": [false], "intermolecular_energy": 2.731, "internal_energy": -0.839}

$$$$
EPH_relaxed_0001_pdb2pqr_Repair_203_r2_0001_out
     RDKit          3D

 82 86  0  0  0  0  0  0  0  0999 V2000
   -1.4670   15.1700    1.2200 C   0  0  0  0  0  0  0  0  0  0  0  0
   -0.2450   15.8390    0.5850 C   0  0  2  0  0  0  0  0  0  0  0  0
   -0.6070   16.6100   -0.7000 C   0  0  0  0  0  0  0  0  0  0  0  0
   -0.1540   18.0730   -0.6890 C   0  0  0  0  0  0  0  0  0  0  0  0
    1.3100   18.1970   -0.3940 C   0  0  2  0  0  0  0  0  0  0  0  0
    1.9370   19.3600   -0.9520 O   0  0  0  0  0  0  0  0  0  0  0  0
    2.3890   18.0930   -1.4560 C   0  0  0  0  0  0  0  0  0  0  0  0
    2.0490   17.8540   -2.8940 C   0  0  0  0  0  0  0  0  0  0  0  0
    3.7800   17.7370   -1.0310 C   0  0  0  0  0  0  0  0  0  0  0  0
    0.8220   14.7940    0.2830 C   0  0  1  0  0  0  0  0  0  0  0  0
    1.0510   13.8150    1.4650 C   0  0  0  0  0  0  0  0  0  0  0  0
    1.3730   12.4310    0.8440 C   0  0  0  0  0  0  0  0  0  0  0  0
    1.6450   12.7270   -0.6490 C   0  0  1  0  0  0  0  0  0  0  0  0
    3.1210   13.2320   -0.6960 C   0  0  0  0  0  0  0  0  0  0  0  0
    1.4070   11.5430   -1.6430 C   0  0  2  0  0  0  0  0  0  0  0  0
    2.3100   10.3170   -1.4240 C   0  0  0  0  0  0  0  0  0  0  0  0
    3.5950   10.3270   -2.1830 C   0  0  0  0  0  0  0  0  0  0  0  0
    3.8850   11.1350   -3.2200 C   0  0  0  0  0  0  0  0  0  0  0  0
    2.8300   12.0920   -3.7910 C   0  0  1  0  0  0  0  0  0  0  0  0
    2.8240   11.9920   -5.3390 C   0  0  0  0  0  0  0  0  0  0  0  0
    4.2060   12.2170   -5.9450 C   0  0  0  0  0  0  0  0  0  0  0  0
    5.2130   11.2100   -5.3960 C   0  0  2  0  0  0  0  0  0  0  0  0
    4.8550    9.9030   -5.8560 O   0  0  0  0  0  0  0  0  0  0  0  0
    5.3000   11.2130   -3.8450 C   0  0  0  0  0  0  0  0  0  0  0  0
    5.9720   12.5220   -3.3640 C   0  0  0  0  0  0  0  0  0  0  0  0
    6.2440   10.0570   -3.4170 C   0  0  0  0  0  0  0  0  0  0  0  0
    1.3740   11.9720   -3.1660 C   0  0  1  0  0  0  0  0  0  0  0  0
    0.5600   10.8760   -3.9190 C   0  0  0  0  0  0  0  0  0  0  0  0
    0.6050   13.3280   -3.3890 C   0  0  0  0  0  0  0  0  0  0  0  0
    0.7860   14.4150   -2.3120 C   0  0  0  0  0  0  0  0  0  0  0  0
    0.5640   13.8390   -0.9100 C   0  0  2  0  0  0  0  0  0  0  0  0
   -0.9200   13.3430   -0.8260 C   0  0  0  0  0  0  0  0  0  0  0  0
   -1.3824   15.2163    2.3158 H   0  0  0  0  0  0  0  0  0  0  0  0
   -2.3796   15.6943    0.9002 H   0  0  0  0  0  0  0  0  0  0  0  0
   -1.5170   14.1187    0.9002 H   0  0  0  0  0  0  0  0  0  0  0  0
    0.1453   16.5695    1.3088 H   0  0  0  0  0  0  0  0  0  0  0  0
   -0.1306   16.1054   -1.5535 H   0  0  0  0  0  0  0  0  0  0  0  0
   -1.7045   16.6141   -0.7738 H   0  0  0  0  0  0  0  0  0  0  0  0
   -0.3580   18.5169   -1.6746 H   0  0  0  0  0  0  0  0  0  0  0  0
   -0.7092   18.5983    0.1021 H   0  0  0  0  0  0  0  0  0  0  0  0
    1.1805   17.6984    0.5779 H   0  0  0  0  0  0  0  0  0  0  0  0
    1.1506   17.2225   -2.9583 H   0  0  0  0  0  0  0  0  0  0  0  0
    1.8568   18.8167   -3.3902 H   0  0  0  0  0  0  0  0  0  0  0  0
    2.8898   17.3472   -3.3902 H   0  0  0  0  0  0  0  0  0  0  0  0
    3.8354   17.7228    0.0675 H   0  0  0  0  0  0  0  0  0  0  0  0
    4.0405   16.7432   -1.4242 H   0  0  0  0  0  0  0  0  0  0  0  0
    4.4859   18.4834   -1.4242 H   0  0  0  0  0  0  0  0  0  0  0  0
    1.6709   15.4566    0.0586 H   0  0  0  0  0  0  0  0  0  0  0  0
    1.8937   14.1581    2.0831 H   0  0  0  0  0  0  0  0  0  0  0  0
    0.1621   13.7609    2.1108 H   0  0  0  0  0  0  0  0  0  0  0  0
    2.2605   11.9888    1.3201 H   0  0  0  0  0  0  0  0  0  0  0  0
    0.5538   11.7103    0.9838 H   0  0  0  0  0  0  0  0  0  0  0  0
    3.4973   13.3608    0.3296 H   0  0  0  0  0  0  0  0  0  0  0  0
    3.7437   12.4958   -1.2254 H   0  0  0  0  0  0  0  0  0  0  0  0
    3.1622   14.1954   -1.2254 H   0  0  0  0  0  0  0  0  0  0  0  0
    0.3898   11.2158   -1.3818 H   0  0  0  0  0  0  0  0  0  0  0  0
    2.5491   10.2583   -0.3519 H   0  0  0  0  0  0  0  0  0  0  0  0
    1.7432    9.4514   -1.7974 H   0  0  0  0  0  0  0  0  0  0  0  0
    4.3710    9.6136   -1.8684 H   0  0  0  0  0  0  0  0  0  0  0  0
    3.1378   13.1023   -3.4834 H   0  0  0  0  0  0  0  0  0  0  0  0
    2.4718   10.9903   -5.6263 H   0  0  0  0  0  0  0  0  0  0  0  0
    2.1591   12.7801   -5.7220 H   0  0  0  0  0  0  0  0  0  0  0  0
    4.1428   12.1039   -7.0373 H   0  0  0  0  0  0  0  0  0  0  0  0
    4.5439   13.2303   -5.6821 H   0  0  0  0  0  0  0  0  0  0  0  0
    6.2069   11.5028   -5.7653 H   0  0  0  0  0  0  0  0  0  0  0  0
    5.5440    9.6090   -6.4760 H   0  0  0  0  0  0  0  0  0  0  0  0
    5.9840   12.5454   -2.2643 H   0  0  0  0  0  0  0  0  0  0  0  0
    7.0038   12.5652   -3.7429 H   0  0  0  0  0  0  0  0  0  0  0  0
    5.4057   13.3856   -3.7429 H   0  0  0  0  0  0  0  0  0  0  0  0
    6.2861   10.0054   -2.3190 H   0  0  0  0  0  0  0  0  0  0  0  0
    5.8617    9.1052   -3.8144 H   0  0  0  0  0  0  0  0  0  0  0  0
    7.2530   10.2414   -3.8144 H   0  0  0  0  0  0  0  0  0  0  0  0
    0.0699   10.2161   -3.1880 H   0  0  0  0  0  0  0  0  0  0  0  0
   -0.2031   11.3548   -4.5501 H   0  0  0  0  0  0  0  0  0  0  0  0
    1.2389   10.2838   -4.5501 H   0  0  0  0  0  0  0  0  0  0  0  0
    0.9440   13.7491   -4.3470 H   0  0  0  0  0  0  0  0  0  0  0  0
   -0.4620   13.0628   -3.3536 H   0  0  0  0  0  0  0  0  0  0  0  0
    1.8066   14.8201   -2.3773 H   0  0  0  0  0  0  0  0  0  0  0  0
    0.0451   15.2091   -2.4867 H   0  0  0  0  0  0  0  0  0  0  0  0
   -1.2145   13.2446    0.2293 H   0  0  0  0  0  0  0  0  0  0  0  0
   -1.5783   14.0699   -1.3241 H   0  0  0  0  0  0  0  0  0  0  0  0
   -1.0089   12.3663   -1.3241 H   0  0  0  0  0  0  0  0  0  0  0  0
  1  2  1  0
  2  3  1  0
  3  4  1  0
  4  5  1  0
  5  6  1  0
  6  7  1  0
  7  8  1  0
  7  9  1  0
  2 10  1  0
 10 11  1  0
 11 12  1  0
 12 13  1  0
 13 14  1  1
 13 15  1  0
 15 16  1  0
 16 17  1  0
 17 18  2  0
 18 19  1  0
 19 20  1  0
 20 21  1  0
 21 22  1  0
 22 23  1  0
 22 24  1  0
 24 25  1  0
 24 26  1  0
 19 27  1  0
 27 28  1  6
 27 29  1  0
 29 30  1  0
 30 31  1  0
 31 32  1  6
  7  5  1  0
 31 10  1  0
 31 13  1  0
 27 15  1  0
 24 18  1  0
  1 33  1  0
  1 34  1  0
  1 35  1  0
  2 36  1  1
  3 37  1  0
  3 38  1  0
  4 39  1  0
  4 40  1  0
  5 41  1  1
  8 42  1  0
  8 43  1  0
  8 44  1  0
  9 45  1  0
  9 46  1  0
  9 47  1  0
 10 48  1  6
 11 49  1  0
 11 50  1  0
 12 51  1  0
 12 52  1  0
 14 53  1  0
 14 54  1  0
 14 55  1  0
 15 56  1  1
 16 57  1  0
 16 58  1  0
 17 59  1  0
 19 60  1  6
 20 61  1  0
 20 62  1  0
 21 63  1  0
 21 64  1  0
 22 65  1  6
 23 66  1  0
 25 67  1  0
 25 68  1  0
 25 69  1  0
 26 70  1  0
 26 71  1  0
 26 72  1  0
 28 73  1  0
 28 74  1  0
 28 75  1  0
 29 76  1  0
 29 77  1  0
 30 78  1  0
 30 79  1  0
 32 80  1  0
 32 81  1  0
 32 82  1  0
M  END
>  <meeko>  (7) 
{"is_sidechain": [false], "intermolecular_energy": 2.731, "internal_energy": -0.839}

$$$$
EPH_relaxed_0001_pdb2pqr_Repair_203_r2_0001_out
     RDKit          3D

 82 86  0  0  0  0  0  0  0  0999 V2000
   -0.3280   16.9970   -1.0340 C   0  0  0  0  0  0  0  0  0  0  0  0
   -0.6250   15.7530   -0.1920 C   0  0  2  0  0  0  0  0  0  0  0  0
   -0.8640   16.0990    1.2920 C   0  0  0  0  0  0  0  0  0  0  0  0
   -1.3680   17.5270    1.5170 C   0  0  0  0  0  0  0  0  0  0  0  0
   -0.6650   18.5090    0.6300 C   0  0  2  0  0  0  0  0  0  0  0  0
   -0.6940   19.8650    1.0970 O   0  0  0  0  0  0  0  0  0  0  0  0
   -1.3810   19.6040   -0.1380 C   0  0  0  0  0  0  0  0  0  0  0  0
   -2.8660   19.7730   -0.0550 C   0  0  0  0  0  0  0  0  0  0  0  0
   -0.7080   20.1940   -1.3380 C   0  0  0  0  0  0  0  0  0  0  0  0
    0.5210   14.7550   -0.3160 C   0  0  1  0  0  0  0  0  0  0  0  0
    0.6980   13.8870    0.9580 C   0  0  0  0  0  0  0  0  0  0  0  0
    1.1500   12.4820    0.4820 C   0  0  0  0  0  0  0  0  0  0  0  0
    1.5370   12.6790   -1.0020 C   0  0  1  0  0  0  0  0  0  0  0  0
    2.9820   13.2700   -0.9650 C   0  0  0  0  0  0  0  0  0  0  0  0
    1.4560   11.4100   -1.9110 C   0  0  2  0  0  0  0  0  0  0  0  0
    2.4020   10.2620   -1.5160 C   0  0  0  0  0  0  0  0  0  0  0  0
    3.7480   10.2950   -2.1620 C   0  0  0  0  0  0  0  0  0  0  0  0
    4.0830   11.0370   -3.2340 C   0  0  0  0  0  0  0  0  0  0  0  0
    3.0330   11.8790   -3.9690 C   0  0  1  0  0  0  0  0  0  0  0  0
    3.1710   11.6600   -5.4980 C   0  0  0  0  0  0  0  0  0  0  0  0
    4.5860   11.9230   -6.0020 C   0  0  0  0  0  0  0  0  0  0  0  0
    5.5950   11.0260   -5.2890 C   0  0  2  0  0  0  0  0  0  0  0  0
    5.3520    9.6680   -5.6680 O   0  0  0  0  0  0  0  0  0  0  0  0
    5.5420   11.1540   -3.7410 C   0  0  0  0  0  0  0  0  0  0  0  0
    6.0950   12.5360   -3.3140 C   0  0  0  0  0  0  0  0  0  0  0  0
    6.5070   10.0960   -3.1410 C   0  0  0  0  0  0  0  0  0  0  0  0
    1.5350   11.7170   -3.4620 C   0  0  1  0  0  0  0  0  0  0  0  0
    0.8540   10.5170   -4.1890 C   0  0  0  0  0  0  0  0  0  0  0  0
    0.7160   13.0010   -3.8600 C   0  0  0  0  0  0  0  0  0  0  0  0
    0.7380   14.1760   -2.8640 C   0  0  0  0  0  0  0  0  0  0  0  0
    0.4240   13.6970   -1.4440 C   0  0  2  0  0  0  0  0  0  0  0  0
   -1.0320   13.1180   -1.4450 C   0  0  0  0  0  0  0  0  0  0  0  0
   -0.1245   17.8496   -0.3694 H   0  0  0  0  0  0  0  0  0  0  0  0
    0.5505   16.8090   -1.6687 H   0  0  0  0  0  0  0  0  0  0  0  0
   -1.1967   17.2261   -1.6687 H   0  0  0  0  0  0  0  0  0  0  0  0
   -1.5518   15.3050   -0.5799 H   0  0  0  0  0  0  0  0  0  0  0  0
   -1.6106   15.3994    1.6959 H   0  0  0  0  0  0  0  0  0  0  0  0
    0.1071   16.0165    1.8020 H   0  0  0  0  0  0  0  0  0  0  0  0
   -2.4465   17.5622    1.3034 H   0  0  0  0  0  0  0  0  0  0  0  0
   -1.1640   17.8019    2.5624 H   0  0  0  0  0  0  0  0  0  0  0  0
    0.0618   17.7441    0.3191 H   0  0  0  0  0  0  0  0  0  0  0  0
   -3.1726   19.8079    1.0008 H   0  0  0  0  0  0  0  0  0  0  0  0
   -3.1568   20.7100   -0.5524 H   0  0  0  0  0  0  0  0  0  0  0  0
   -3.3599   18.9253   -0.5524 H   0  0  0  0  0  0  0  0  0  0  0  0
    0.0820   20.8865   -1.0119 H   0  0  0  0  0  0  0  0  0  0  0  0
   -0.2636   19.3891   -1.9419 H   0  0  0  0  0  0  0  0  0  0  0  0
   -1.4478   20.7399   -1.9419 H   0  0  0  0  0  0  0  0  0  0  0  0
    1.3487   15.4496   -0.5222 H   0  0  0  0  0  0  0  0  0  0  0  0
    1.4623   14.3288    1.6143 H   0  0  0  0  0  0  0  0  0  0  0  0
   -0.2401   13.8279    1.5294 H   0  0  0  0  0  0  0  0  0  0  0  0
    2.0147   12.1337    1.0659 H   0  0  0  0  0  0  0  0  0  0  0  0
    0.3628   11.7246    0.6109 H   0  0  0  0  0  0  0  0  0  0  0  0
    3.2985   13.3995    0.0805 H   0  0  0  0  0  0  0  0  0  0  0  0
    3.6727   12.5821   -1.4747 H   0  0  0  0  0  0  0  0  0  0  0  0
    2.9927   14.2447   -1.4747 H   0  0  0  0  0  0  0  0  0  0  0  0
    0.4393   11.0412   -1.7101 H   0  0  0  0  0  0  0  0  0  0  0  0
    2.5468   10.3003   -0.4262 H   0  0  0  0  0  0  0  0  0  0  0  0
    1.9198    9.3364   -1.8636 H   0  0  0  0  0  0  0  0  0  0  0  0
    4.5320    9.6592   -1.7249 H   0  0  0  0  0  0  0  0  0  0  0  0
    3.2561   12.9271   -3.7206 H   0  0  0  0  0  0  0  0  0  0  0  0
    2.9018   10.6191   -5.7307 H   0  0  0  0  0  0  0  0  0  0  0  0
    2.5005   12.3738   -5.9990 H   0  0  0  0  0  0  0  0  0  0  0  0
    4.6263   11.7220   -7.0827 H   0  0  0  0  0  0  0  0  0  0  0  0
    4.8425   12.9727   -5.7960 H   0  0  0  0  0  0  0  0  0  0  0  0
    6.6002   11.3507   -5.5960 H   0  0  0  0  0  0  0  0  0  0  0  0
    6.2150    9.2480   -5.8280 H   0  0  0  0  0  0  0  0  0  0  0  0
    6.1197   12.5977   -2.2160 H   0  0  0  0  0  0  0  0  0  0  0  0
    7.1129   12.6623   -3.7113 H   0  0  0  0  0  0  0  0  0  0  0  0
    5.4452   13.3296   -3.7113 H   0  0  0  0  0  0  0  0  0  0  0  0
    6.4648   10.1423   -2.0428 H   0  0  0  0  0  0  0  0  0  0  0  0
    6.2064    9.0928   -3.4776 H   0  0  0  0  0  0  0  0  0  0  0  0
    7.5335   10.3033   -3.4776 H   0  0  0  0  0  0  0  0  0  0  0  0
    0.4553    9.8144   -3.4424 H   0  0  0  0  0  0  0  0  0  0  0  0
    0.0321   10.8884   -4.8187 H   0  0  0  0  0  0  0  0  0  0  0  0
    1.5943   10.0018   -4.8187 H   0  0  0  0  0  0  0  0  0  0  0  0
    1.1168   13.3680   -4.8164 H   0  0  0  0  0  0  0  0  0  0  0  0
   -0.3335   12.6733   -3.8950 H   0  0  0  0  0  0  0  0  0  0  0  0
    1.7359   14.6386   -2.8753 H   0  0  0  0  0  0  0  0  0  0  0  0
   -0.0281   14.9056   -3.1654 H   0  0  0  0  0  0  0  0  0  0  0  0
   -1.3733   12.9823   -0.4081 H   0  0  0  0  0  0  0  0  0  0  0  0
   -1.7043   13.8172   -1.9638 H   0  0  0  0  0  0  0  0  0  0  0  0
   -1.0405   12.1481   -1.9638 H   0  0  0  0  0  0  0  0  0  0  0  0
  1  2  1  0
  2  3  1  0
  3  4  1  0
  4  5  1  0
  5  6  1  0
  6  7  1  0
  7  8  1  0
  7  9  1  0
  2 10  1  0
 10 11  1  0
 11 12  1  0
 12 13  1  0
 13 14  1  1
 13 15  1  0
 15 16  1  0
 16 17  1  0
 17 18  2  0
 18 19  1  0
 19 20  1  0
 20 21  1  0
 21 22  1  0
 22 23  1  0
 22 24  1  0
 24 25  1  0
 24 26  1  0
 19 27  1  0
 27 28  1  6
 27 29  1  0
 29 30  1  0
 30 31  1  0
 31 32  1  6
  7  5  1  0
 31 10  1  0
 31 13  1  0
 27 15  1  0
 24 18  1  0
  1 33  1  0
  1 34  1  0
  1 35  1  0
  2 36  1  6
  3 37  1  0
  3 38  1  0
  4 39  1  0
  4 40  1  0
  5 41  1  6
  8 42  1  0
  8 43  1  0
  8 44  1  0
  9 45  1  0
  9 46  1  0
  9 47  1  0
 10 48  1  6
 11 49  1  0
 11 50  1  0
 12 51  1  0
 12 52  1  0
 14 53  1  0
 14 54  1  0
 14 55  1  0
 15 56  1  6
 16 57  1  0
 16 58  1  0
 17 59  1  0
 19 60  1  6
 20 61  1  0
 20 62  1  0
 21 63  1  0
 21 64  1  0
 22 65  1  6
 23 66  1  0
 25 67  1  0
 25 68  1  0
 25 69  1  0
 26 70  1  0
 26 71  1  0
 26 72  1  0
 28 73  1  0
 28 74  1  0
 28 75  1  0
 29 76  1  0
 29 77  1  0
 30 78  1  0
 30 79  1  0
 32 80  1  0
 32 81  1  0
 32 82  1  0
M  END
>  <meeko>  (8) 
{"is_sidechain": [false], "intermolecular_energy": 2.731, "internal_energy": -0.839}

$$$$
EPH_relaxed_0001_pdb2pqr_Repair_203_r2_0001_out
     RDKit          3D

 82 86  0  0  0  0  0  0  0  0999 V2000
    3.0970   18.2700   -4.0220 C   0  0  0  0  0  0  0  0  0  0  0  0
    2.0110   18.1500   -2.9500 C   0  0  2  0  0  0  0  0  0  0  0  0
    2.0250   19.3430   -1.9730 C   0  0  0  0  0  0  0  0  0  0  0  0
    0.7260   20.1530   -1.9720 C   0  0  0  0  0  0  0  0  0  0  0  0
   -0.4070   19.3840   -1.3640 C   0  0  2  0  0  0  0  0  0  0  0  0
   -1.4580   20.1940   -0.8210 O   0  0  0  0  0  0  0  0  0  0  0  0
   -0.7240   19.3950    0.1200 C   0  0  0  0  0  0  0  0  0  0  0  0
    0.0950   20.1910    1.0870 C   0  0  0  0  0  0  0  0  0  0  0  0
   -1.5140   18.2590    0.6910 C   0  0  0  0  0  0  0  0  0  0  0  0
    2.1810   16.8450   -2.1810 C   0  0  1  0  0  0  0  0  0  0  0  0
    2.4830   17.0730   -0.6760 C   0  0  0  0  0  0  0  0  0  0  0  0
    1.7900   15.9230    0.0980 C   0  0  0  0  0  0  0  0  0  0  0  0
    1.3990   14.8980   -0.9930 C   0  0  1  0  0  0  0  0  0  0  0  0
    2.7050   14.0920   -1.2720 C   0  0  0  0  0  0  0  0  0  0  0  0
    0.1980   13.9550   -0.6560 C   0  0  2  0  0  0  0  0  0  0  0  0
    0.4190   13.0230    0.5480 C   0  0  0  0  0  0  0  0  0  0  0  0
    1.0110   11.6910    0.2240 C   0  0  0  0  0  0  0  0  0  0  0  0
    1.0890   11.1480   -1.0050 C   0  0  0  0  0  0  0  0  0  0  0  0
    0.4610   11.8490   -2.2170 C   0  0  1  0  0  0  0  0  0  0  0  0
   -0.3450   10.8180   -3.0510 C   0  0  0  0  0  0  0  0  0  0  0  0
    0.4910    9.6050   -3.4470 C   0  0  0  0  0  0  0  0  0  0  0  0
    1.0500    8.9010   -2.2130 C   0  0  2  0  0  0  0  0  0  0  0  0
   -0.0360    8.3330   -1.4740 O   0  0  0  0  0  0  0  0  0  0  0  0
    1.8730    9.8440   -1.2900 C   0  0  0  0  0  0  0  0  0  0  0  0
    3.2050   10.2200   -1.9850 C   0  0  0  0  0  0  0  0  0  0  0  0
    2.2580    9.0460   -0.0150 C   0  0  0  0  0  0  0  0  0  0  0  0
   -0.3740   13.1640   -1.9010 C   0  0  1  0  0  0  0  0  0  0  0  0
   -1.8470   12.7890   -1.5530 C   0  0  0  0  0  0  0  0  0  0  0  0
   -0.4380   14.0550   -3.1980 C   0  0  0  0  0  0  0  0  0  0  0  0
    0.7170   15.0520   -3.4130 C   0  0  0  0  0  0  0  0  0  0  0  0
    0.9730   15.8760   -2.1480 C   0  0  2  0  0  0  0  0  0  0  0  0
   -0.3170   16.7160   -1.8540 C   0  0  0  0  0  0  0  0  0  0  0  0
    4.0791   18.3785   -3.5385 H   0  0  0  0  0  0  0  0  0  0  0  0
    3.0948   17.3661   -4.6489 H   0  0  0  0  0  0  0  0  0  0  0  0
    2.8975   19.1516   -4.6489 H   0  0  0  0  0  0  0  0  0  0  0  0
    1.0380   18.1548   -3.4631 H   0  0  0  0  0  0  0  0  0  0  0  0
    2.1947   18.9576   -0.9568 H   0  0  0  0  0  0  0  0  0  0  0  0
    2.8259   20.0204   -2.3043 H   0  0  0  0  0  0  0  0  0  0  0  0
    0.8817   21.0754   -1.3933 H   0  0  0  0  0  0  0  0  0  0  0  0
    0.4639   20.3814   -3.0156 H   0  0  0  0  0  0  0  0  0  0  0  0
   -0.2666   18.5633   -2.0829 H   0  0  0  0  0  0  0  0  0  0  0  0
   -0.1849   19.9190    2.1154 H   0  0  0  0  0  0  0  0  0  0  0  0
    1.1619   19.9755    0.9282 H   0  0  0  0  0  0  0  0  0  0  0  0
   -0.0900   21.2636    0.9282 H   0  0  0  0  0  0  0  0  0  0  0  0
   -1.4816   18.3055    1.7895 H   0  0  0  0  0  0  0  0  0  0  0  0
   -2.5578   18.3311    0.3515 H   0  0  0  0  0  0  0  0  0  0  0  0
   -1.0831   17.3055    0.3515 H   0  0  0  0  0  0  0  0  0  0  0  0
    3.0052   16.3985   -2.7566 H   0  0  0  0  0  0  0  0  0  0  0  0
    3.5685   17.0483   -0.4994 H   0  0  0  0  0  0  0  0  0  0  0  0
    2.1119   18.0534   -0.3427 H   0  0  0  0  0  0  0  0  0  0  0  0
    2.4818   15.4719    0.8246 H   0  0  0  0  0  0  0  0  0  0  0  0
    0.9198   16.2724    0.6730 H   0  0  0  0  0  0  0  0  0  0  0  0
    3.1698   13.8051   -0.3172 H   0  0  0  0  0  0  0  0  0  0  0  0
    2.4614   13.1869   -1.8478 H   0  0  0  0  0  0  0  0  0  0  0  0
    3.4048   14.7156   -1.8478 H   0  0  0  0  0  0  0  0  0  0  0  0
   -0.5808   14.6667   -0.3447 H   0  0  0  0  0  0  0  0  0  0  0  0
    1.0931   13.5321    1.2526 H   0  0  0  0  0  0  0  0  0  0  0  0
   -0.5795   12.8193    0.9622 H   0  0  0  0  0  0  0  0  0  0  0  0
    1.4178   11.1039    1.0606 H   0  0  0  0  0  0  0  0  0  0  0  0
    1.3002   12.2371   -2.8129 H   0  0  0  0  0  0  0  0  0  0  0  0
   -1.2032   10.4753   -2.4543 H   0  0  0  0  0  0  0  0  0  0  0  0
   -0.6690   11.3169   -3.9763 H   0  0  0  0  0  0  0  0  0  0  0  0
   -0.1403    8.9005   -4.0083 H   0  0  0  0  0  0  0  0  0  0  0  0
    1.3325    9.9462   -4.0678 H   0  0  0  0  0  0  0  0  0  0  0  0
    1.7425    8.1215   -2.5636 H   0  0  0  0  0  0  0  0  0  0  0  0
   -0.7920    8.2500   -2.0800 H   0  0  0  0  0  0  0  0  0  0  0  0
    3.9682   10.4354   -1.2227 H   0  0  0  0  0  0  0  0  0  0  0  0
    3.5404    9.3814   -2.6129 H   0  0  0  0  0  0  0  0  0  0  0  0
    3.0524   11.1102   -2.6129 H   0  0  0  0  0  0  0  0  0  0  0  0
    1.9789    9.6246    0.8779 H   0  0  0  0  0  0  0  0  0  0  0  0
    1.7250    8.0838   -0.0098 H   0  0  0  0  0  0  0  0  0  0  0  0
    3.3429    8.8643   -0.0098 H   0  0  0  0  0  0  0  0  0  0  0  0
   -1.9691   12.7579   -0.4602 H   0  0  0  0  0  0  0  0  0  0  0  0
   -2.5271   13.5427   -1.9766 H   0  0  0  0  0  0  0  0  0  0  0  0
   -2.0839   11.8019   -1.9766 H   0  0  0  0  0  0  0  0  0  0  0  0
   -0.4601   13.3790   -4.0655 H   0  0  0  0  0  0  0  0  0  0  0  0
   -1.3368   14.6773   -3.0759 H   0  0  0  0  0  0  0  0  0  0  0  0
    1.6299   14.4949   -3.6703 H   0  0  0  0  0  0  0  0  0  0  0  0
    0.4413   15.7374   -4.2280 H   0  0  0  0  0  0  0  0  0  0  0  0
   -0.4558   16.8064   -0.7665 H   0  0  0  0  0  0  0  0  0  0  0  0
   -0.2102   17.7183   -2.2946 H   0  0  0  0  0  0  0  0  0  0  0  0
   -1.1904   16.2130   -2.2946 H   0  0  0  0  0  0  0  0  0  0  0  0
  1  2  1  0
  2  3  1  0
  3  4  1  0
  4  5  1  0
  5  6  1  0
  6  7  1  0
  7  8  1  0
  7  9  1  0
  2 10  1  0
 10 11  1  0
 11 12  1  0
 12 13  1  0
 13 14  1  6
 13 15  1  0
 15 16  1  0
 16 17  1  0
 17 18  2  0
 18 19  1  0
 19 20  1  0
 20 21  1  0
 21 22  1  0
 22 23  1  0
 22 24  1  0
 24 25  1  0
 24 26  1  0
 19 27  1  0
 27 28  1  1
 27 29  1  0
 29 30  1  0
 30 31  1  0
 31 32  1  1
  7  5  1  0
 31 10  1  0
 31 13  1  0
 27 15  1  0
 24 18  1  0
  1 33  1  0
  1 34  1  0
  1 35  1  0
  2 36  1  6
  3 37  1  0
  3 38  1  0
  4 39  1  0
  4 40  1  0
  5 41  1  6
  8 42  1  0
  8 43  1  0
  8 44  1  0
  9 45  1  0
  9 46  1  0
  9 47  1  0
 10 48  1  6
 11 49  1  0
 11 50  1  0
 12 51  1  0
 12 52  1  0
 14 53  1  0
 14 54  1  0
 14 55  1  0
 15 56  1  1
 16 57  1  0
 16 58  1  0
 17 59  1  0
 19 60  1  6
 20 61  1  0
 20 62  1  0
 21 63  1  0
 21 64  1  0
 22 65  1  6
 23 66  1  0
 25 67  1  0
 25 68  1  0
 25 69  1  0
 26 70  1  0
 26 71  1  0
 26 72  1  0
 28 73  1  0
 28 74  1  0
 28 75  1  0
 29 76  1  0
 29 77  1  0
 30 78  1  0
 30 79  1  0
 32 80  1  0
 32 81  1  0
 32 82  1  0
M  END
>  <meeko>  (9) 
{"is_sidechain": [false], "intermolecular_energy": 2.731, "internal_energy": -0.839}

$$$$
EPH_relaxed_0001_pdb2pqr_Repair_203_r2_0001_out
     RDKit          3D

 82 86  0  0  0  0  0  0  0  0999 V2000
   -0.7700   17.3300    0.9780 C   0  0  0  0  0  0  0  0  0  0  0  0
   -0.0060   17.4560   -0.3430 C   0  0  2  0  0  0  0  0  0  0  0  0
   -0.5120   18.6370   -1.1960 C   0  0  0  0  0  0  0  0  0  0  0  0
    0.4350   19.8390   -1.2050 C   0  0  0  0  0  0  0  0  0  0  0  0
    1.7830   19.4870   -0.6510 C   0  0  2  0  0  0  0  0  0  0  0  0
    2.8780   20.1940   -1.2480 O   0  0  0  0  0  0  0  0  0  0  0  0
    2.8550   18.7720   -1.4510 C   0  0  0  0  0  0  0  0  0  0  0  0
    2.6270   18.3650   -2.8730 C   0  0  0  0  0  0  0  0  0  0  0  0
    3.9310   18.0400   -0.7120 C   0  0  0  0  0  0  0  0  0  0  0  0
   -0.1180   16.1570   -1.1330 C   0  0  1  0  0  0  0  0  0  0  0  0
    0.2420   16.3370   -2.6320 C   0  0  0  0  0  0  0  0  0  0  0  0
    0.9400   15.0290   -3.0850 C   0  0  0  0  0  0  0  0  0  0  0  0
    0.6650   14.0240   -1.9420 C   0  0  1  0  0  0  0  0  0  0  0  0
   -0.7790   13.4960   -2.2120 C   0  0  0  0  0  0  0  0  0  0  0  0
    1.6890   12.8530   -1.7890 C   0  0  2  0  0  0  0  0  0  0  0  0
    1.7760   11.9010   -2.9950 C   0  0  0  0  0  0  0  0  0  0  0  0
    0.8550   10.7280   -2.9480 C   0  0  0  0  0  0  0  0  0  0  0  0
    0.1980   10.2910   -1.8570 C   0  0  0  0  0  0  0  0  0  0  0  0
    0.4300   10.9410   -0.4870 C   0  0  1  0  0  0  0  0  0  0  0  0
    0.6250    9.8360    0.5840 C   0  0  0  0  0  0  0  0  0  0  0  0
   -0.5200    8.8290    0.6020 C   0  0  0  0  0  0  0  0  0  0  0  0
   -0.6810    8.1620   -0.7620 C   0  0  2  0  0  0  0  0  0  0  0  0
    0.4710    7.3530   -1.0180 O   0  0  0  0  0  0  0  0  0  0  0  0
   -0.8760    9.1780   -1.9220 C   0  0  0  0  0  0  0  0  0  0  0  0
   -2.2710    9.8410   -1.8050 C   0  0  0  0  0  0  0  0  0  0  0  0
   -0.8830    8.3840   -3.2560 C   0  0  0  0  0  0  0  0  0  0  0  0
    1.5630   12.0540   -0.4290 C   0  0  1  0  0  0  0  0  0  0  0  0
    2.9490   11.3890   -0.1730 C   0  0  0  0  0  0  0  0  0  0  0  0
    1.2910   13.0020    0.7990 C   0  0  0  0  0  0  0  0  0  0  0  0
    0.3650   14.2080    0.5530 C   0  0  0  0  0  0  0  0  0  0  0  0
    0.7910   14.9800   -0.7000 C   0  0  2  0  0  0  0  0  0  0  0  0
    2.2310   15.5430   -0.4490 C   0  0  0  0  0  0  0  0  0  0  0  0
   -0.0702   17.4454    1.8188 H   0  0  0  0  0  0  0  0  0  0  0  0
   -1.5405   18.1132    1.0321 H   0  0  0  0  0  0  0  0  0  0  0  0
   -1.2482   16.3409    1.0321 H   0  0  0  0  0  0  0  0  0  0  0  0
    1.0482   17.6534   -0.0988 H   0  0  0  0  0  0  0  0  0  0  0  0
   -0.6401   18.2880   -2.2313 H   0  0  0  0  0  0  0  0  0  0  0  0
   -1.4575   18.9758   -0.7475 H   0  0  0  0  0  0  0  0  0  0  0  0
    0.5557   20.1900   -2.2405 H   0  0  0  0  0  0  0  0  0  0  0  0
   -0.0019   20.6245   -0.5709 H   0  0  0  0  0  0  0  0  0  0  0  0
    1.3510   19.2931    0.3418 H   0  0  0  0  0  0  0  0  0  0  0  0
    2.0895   17.4056   -2.8981 H   0  0  0  0  0  0  0  0  0  0  0  0
    2.0284   19.1341   -3.3830 H   0  0  0  0  0  0  0  0  0  0  0  0
    3.5955   18.2562   -3.3830 H   0  0  0  0  0  0  0  0  0  0  0  0
    3.7712   18.1487    0.3709 H   0  0  0  0  0  0  0  0  0  0  0  0
    3.9012   16.9740   -0.9819 H   0  0  0  0  0  0  0  0  0  0  0  0
    4.9115   18.4592   -0.9819 H   0  0  0  0  0  0  0  0  0  0  0  0
   -1.1717   15.9112   -0.9346 H   0  0  0  0  0  0  0  0  0  0  0  0
   -0.6705   16.5037   -3.2233 H   0  0  0  0  0  0  0  0  0  0  0  0
    0.8996   17.2065   -2.7784 H   0  0  0  0  0  0  0  0  0  0  0  0
    0.5112   14.6677   -4.0313 H   0  0  0  0  0  0  0  0  0  0  0  0
    2.0157   15.1712   -3.2656 H   0  0  0  0  0  0  0  0  0  0  0  0
   -1.2866   13.3104   -1.2540 H   0  0  0  0  0  0  0  0  0  0  0  0
   -1.3424   14.2463   -2.7862 H   0  0  0  0  0  0  0  0  0  0  0  0
   -0.7255   12.5593   -2.7862 H   0  0  0  0  0  0  0  0  0  0  0  0
    2.6516   13.3844   -1.7577 H   0  0  0  0  0  0  0  0  0  0  0  0
    1.5445   12.4790   -3.9018 H   0  0  0  0  0  0  0  0  0  0  0  0
    2.7956   11.4883   -2.9844 H   0  0  0  0  0  0  0  0  0  0  0  0
    0.6995   10.1728   -3.8848 H   0  0  0  0  0  0  0  0  0  0  0  0
   -0.4803   11.5181   -0.2670 H   0  0  0  0  0  0  0  0  0  0  0  0
    1.5620    9.3005    0.3713 H   0  0  0  0  0  0  0  0  0  0  0  0
    0.6529   10.3267    1.5681 H   0  0  0  0  0  0  0  0  0  0  0  0
   -0.3093    8.0576    1.3574 H   0  0  0  0  0  0  0  0  0  0  0  0
   -1.4517    9.3608    0.8451 H   0  0  0  0  0  0  0  0  0  0  0  0
   -1.5948    7.5508   -0.7249 H   0  0  0  0  0  0  0  0  0  0  0  0
    0.2810    6.8110   -1.8020 H   0  0  0  0  0  0  0  0  0  0  0  0
   -2.5305    9.9643   -0.7432 H   0  0  0  0  0  0  0  0  0  0  0  0
   -2.2511   10.8259   -2.2944 H   0  0  0  0  0  0  0  0  0  0  0  0
   -3.0221    9.2036   -2.2944 H   0  0  0  0  0  0  0  0  0  0  0  0
   -0.8925    7.3053   -3.0406 H   0  0  0  0  0  0  0  0  0  0  0  0
   -1.7788    8.6500   -3.8363 H   0  0  0  0  0  0  0  0  0  0  0  0
    0.0174    8.6341   -3.8363 H   0  0  0  0  0  0  0  0  0  0  0  0
    3.1215   11.3062    0.9102 H   0  0  0  0  0  0  0  0  0  0  0  0
    2.9634   10.3859   -0.6243 H   0  0  0  0  0  0  0  0  0  0  0  0
    3.7404   12.0055   -0.6243 H   0  0  0  0  0  0  0  0  0  0  0  0
    0.8397   12.3930    1.5961 H   0  0  0  0  0  0  0  0  0  0  0  0
    2.2698   13.4368    1.0496 H   0  0  0  0  0  0  0  0  0  0  0  0
   -0.6663   13.8488    0.4211 H   0  0  0  0  0  0  0  0  0  0  0  0
    0.4299   14.8825    1.4195 H   0  0  0  0  0  0  0  0  0  0  0  0
    2.4133   15.6143    0.6334 H   0  0  0  0  0  0  0  0  0  0  0  0
    2.9725   14.8686   -0.9021 H   0  0  0  0  0  0  0  0  0  0  0  0
    2.3184   16.5415   -0.9021 H   0  0  0  0  0  0  0  0  0  0  0  0
  1  2  1  0
  2  3  1  0
  3  4  1  0
  4  5  1  0
  5  6  1  0
  6  7  1  0
  7  8  1  0
  7  9  1  0
  2 10  1  0
 10 11  1  0
 11 12  1  0
 12 13  1  0
 13 14  1  6
 13 15  1  0
 15 16  1  0
 16 17  1  0
 17 18  2  0
 18 19  1  0
 19 20  1  0
 20 21  1  0
 21 22  1  0
 22 23  1  0
 22 24  1  0
 24 25  1  0
 24 26  1  0
 19 27  1  0
 27 28  1  1
 27 29  1  0
 29 30  1  0
 30 31  1  0
 31 32  1  1
  7  5  1  0
 31 10  1  0
 31 13  1  0
 27 15  1  0
 24 18  1  0
  1 33  1  0
  1 34  1  0
  1 35  1  0
  2 36  1  1
  3 37  1  0
  3 38  1  0
  4 39  1  0
  4 40  1  0
  5 41  1  1
  8 42  1  0
  8 43  1  0
  8 44  1  0
  9 45  1  0
  9 46  1  0
  9 47  1  0
 10 48  1  6
 11 49  1  0
 11 50  1  0
 12 51  1  0
 12 52  1  0
 14 53  1  0
 14 54  1  0
 14 55  1  0
 15 56  1  1
 16 57  1  0
 16 58  1  0
 17 59  1  0
 19 60  1  1
 20 61  1  0
 20 62  1  0
 21 63  1  0
 21 64  1  0
 22 65  1  1
 23 66  1  0
 25 67  1  0
 25 68  1  0
 25 69  1  0
 26 70  1  0
 26 71  1  0
 26 72  1  0
 28 73  1  0
 28 74  1  0
 28 75  1  0
 29 76  1  0
 29 77  1  0
 30 78  1  0
 30 79  1  0
 32 80  1  0
 32 81  1  0
 32 82  1  0
M  END
>  <meeko>  (10) 
{"is_sidechain": [false], "intermolecular_energy": 2.731, "internal_energy": -0.839}

$$$$
EPH_relaxed_0001_pdb2pqr_Repair_203_r2_0001_out
     RDKit          3D

 82 86  0  0  0  0  0  0  0  0999 V2000
   -1.3270   16.5110   -5.8690 C   0  0  0  0  0  0  0  0  0  0  0  0
   -0.0780   15.8010   -6.4000 C   0  0  2  0  0  0  0  0  0  0  0  0
   -0.2280   15.3890   -7.8780 C   0  0  0  0  0  0  0  0  0  0  0  0
    0.3420   16.4130   -8.8630 C   0  0  0  0  0  0  0  0  0  0  0  0
    1.7540   16.0870   -9.2460 C   0  0  2  0  0  0  0  0  0  0  0  0
    2.2140   16.7340  -10.4400 O   0  0  0  0  0  0  0  0  0  0  0  0
    2.1230   15.3020  -10.4910 C   0  0  0  0  0  0  0  0  0  0  0  0
    1.0760   14.7920  -11.4310 C   0  0  0  0  0  0  0  0  0  0  0  0
    3.4510   14.6130  -10.5350 C   0  0  0  0  0  0  0  0  0  0  0  0
    0.2250   14.5760   -5.5450 C   0  0  1  0  0  0  0  0  0  0  0  0
    1.1660   13.5690   -6.2580 C   0  0  0  0  0  0  0  0  0  0  0  0
    2.0640   12.9420   -5.1610 C   0  0  0  0  0  0  0  0  0  0  0  0
    1.3960   13.3530   -3.8280 C   0  0  1  0  0  0  0  0  0  0  0  0
    0.2300   12.3340   -3.6330 C   0  0  0  0  0  0  0  0  0  0  0  0
    2.3300   13.4090   -2.5750 C   0  0  2  0  0  0  0  0  0  0  0  0
    2.9660   12.0660   -2.1760 C   0  0  0  0  0  0  0  0  0  0  0  0
    2.1790   11.2510   -1.2040 C   0  0  0  0  0  0  0  0  0  0  0  0
    1.1540   11.7000   -0.4560 C   0  0  0  0  0  0  0  0  0  0  0  0
    0.7550   13.1820   -0.4760 C   0  0  1  0  0  0  0  0  0  0  0  0
    0.5500   13.6820    0.9780 C   0  0  0  0  0  0  0  0  0  0  0  0
   -0.4380   12.8210    1.7590 C   0  0  0  0  0  0  0  0  0  0  0  0
    0.0230   11.3670    1.8060 C   0  0  2  0  0  0  0  0  0  0  0  0
    1.2220   11.2890    2.5830 O   0  0  0  0  0  0  0  0  0  0  0  0
    0.2710   10.7570    0.3980 C   0  0  0  0  0  0  0  0  0  0  0  0
   -1.0810   10.5650   -0.3310 C   0  0  0  0  0  0  0  0  0  0  0  0
    0.8670    9.3370    0.5910 C   0  0  0  0  0  0  0  0  0  0  0  0
    1.6940   14.1420   -1.3250 C   0  0  1  0  0  0  0  0  0  0  0  0
    2.8840   14.6360   -0.4460 C   0  0  0  0  0  0  0  0  0  0  0  0
    0.8810   15.4260   -1.7340 C   0  0  0  0  0  0  0  0  0  0  0  0
    0.0740   15.3490   -3.0440 C   0  0  0  0  0  0  0  0  0  0  0  0
    0.9370   14.8130   -4.1900 C   0  0  2  0  0  0  0  0  0  0  0  0
    2.1060   15.8290   -4.4240 C   0  0  0  0  0  0  0  0  0  0  0  0
   -1.3134   16.5033   -4.7691 H   0  0  0  0  0  0  0  0  0  0  0  0
   -1.3384   17.5506   -6.2283 H   0  0  0  0  0  0  0  0  0  0  0  0
   -2.2261   15.9890   -6.2283 H   0  0  0  0  0  0  0  0  0  0  0  0
    0.7586   16.5127   -6.3401 H   0  0  0  0  0  0  0  0  0  0  0  0
    0.2969   14.4339   -8.0273 H   0  0  0  0  0  0  0  0  0  0  0  0
   -1.3061   15.3117   -8.0824 H   0  0  0  0  0  0  0  0  0  0  0  0
   -0.2807   16.4205   -9.7697 H   0  0  0  0  0  0  0  0  0  0  0  0
    0.3380   17.3984   -8.3741 H   0  0  0  0  0  0  0  0  0  0  0  0
    2.0396   15.9726   -8.1899 H   0  0  0  0  0  0  0  0  0  0  0  0
    0.2339   14.3818  -10.8543 H   0  0  0  0  0  0  0  0  0  0  0  0
    0.7190   15.6171  -12.0648 H   0  0  0  0  0  0  0  0  0  0  0  0
    1.5056   14.0022  -12.0648 H   0  0  0  0  0  0  0  0  0  0  0  0
    3.8034   14.4302   -9.5091 H   0  0  0  0  0  0  0  0  0  0  0  0
    3.3492   13.6540  -11.0641 H   0  0  0  0  0  0  0  0  0  0  0  0
    4.1764   15.2485  -11.0641 H   0  0  0  0  0  0  0  0  0  0  0  0
   -0.7990   14.2127   -5.3731 H   0  0  0  0  0  0  0  0  0  0  0  0
    0.5753   12.7866   -6.7569 H   0  0  0  0  0  0  0  0  0  0  0  0
    1.7729   14.0712   -7.0258 H   0  0  0  0  0  0  0  0  0  0  0  0
    2.0910   11.8468   -5.2603 H   0  0  0  0  0  0  0  0  0  0  0  0
    3.1067   13.2859   -5.2285 H   0  0  0  0  0  0  0  0  0  0  0  0
    0.0536   12.1799   -2.5582 H   0  0  0  0  0  0  0  0  0  0  0  0
   -0.6837   12.7283   -4.1017 H   0  0  0  0  0  0  0  0  0  0  0  0
    0.4983   11.3757   -4.1017 H   0  0  0  0  0  0  0  0  0  0  0  0
    3.1597   14.0400   -2.9262 H   0  0  0  0  0  0  0  0  0  0  0  0
    3.1002   11.4688   -3.0899 H   0  0  0  0  0  0  0  0  0  0  0  0
    3.9102   12.3152   -1.6696 H   0  0  0  0  0  0  0  0  0  0  0  0
    2.4606   10.1939   -1.0893 H   0  0  0  0  0  0  0  0  0  0  0  0
   -0.1960   13.2335   -1.0264 H   0  0  0  0  0  0  0  0  0  0  0  0
    1.5198   13.6646    1.4969 H   0  0  0  0  0  0  0  0  0  0  0  0
    0.1369   14.7002    0.9258 H   0  0  0  0  0  0  0  0  0  0  0  0
   -0.5178   13.2066    2.7861 H   0  0  0  0  0  0  0  0  0  0  0  0
   -1.4148   12.8632    1.2550 H   0  0  0  0  0  0  0  0  0  0  0  0
   -0.7859   10.7787    2.2638 H   0  0  0  0  0  0  0  0  0  0  0  0
    1.0950   10.5940    3.2510 H   0  0  0  0  0  0  0  0  0  0  0  0
   -1.8848   10.4509    0.4112 H   0  0  0  0  0  0  0  0  0  0  0  0
   -1.2858   11.4431   -0.9611 H   0  0  0  0  0  0  0  0  0  0  0  0
   -1.0332    9.6646   -0.9611 H   0  0  0  0  0  0  0  0  0  0  0  0
    0.9579    9.1204    1.6656 H   0  0  0  0  0  0  0  0  0  0  0  0
    0.2046    8.5945    0.1221 H   0  0  0  0  0  0  0  0  0  0  0  0
    1.8609    9.2897    0.1221 H   0  0  0  0  0  0  0  0  0  0  0  0
    2.6239   14.5280    0.6174 H   0  0  0  0  0  0  0  0  0  0  0  0
    3.7780   14.0347   -0.6677 H   0  0  0  0  0  0  0  0  0  0  0  0
    3.0893   15.6937   -0.6677 H   0  0  0  0  0  0  0  0  0  0  0  0
    0.1743   15.6457   -0.9202 H   0  0  0  0  0  0  0  0  0  0  0  0
    1.6394   16.2035   -1.9083 H   0  0  0  0  0  0  0  0  0  0  0  0
   -0.7861   14.6790   -2.8977 H   0  0  0  0  0  0  0  0  0  0  0  0
   -0.2663   16.3617   -3.3058 H   0  0  0  0  0  0  0  0  0  0  0  0
    2.4966   16.1685   -3.4533 H   0  0  0  0  0  0  0  0  0  0  0  0
    2.9103   15.3381   -4.9915 H   0  0  0  0  0  0  0  0  0  0  0  0
    1.7320   16.6939   -4.9915 H   0  0  0  0  0  0  0  0  0  0  0  0
  1  2  1  0
  2  3  1  0
  3  4  1  0
  4  5  1  0
  5  6  1  0
  6  7  1  0
  7  8  1  0
  7  9  1  0
  2 10  1  0
 10 11  1  0
 11 12  1  0
 12 13  1  0
 13 14  1  1
 13 15  1  0
 15 16  1  0
 16 17  1  0
 17 18  2  0
 18 19  1  0
 19 20  1  0
 20 21  1  0
 21 22  1  0
 22 23  1  0
 22 24  1  0
 24 25  1  0
 24 26  1  0
 19 27  1  0
 27 28  1  1
 27 29  1  0
 29 30  1  0
 30 31  1  0
 31 32  1  6
  7  5  1  0
 31 10  1  0
 31 13  1  0
 27 15  1  0
 24 18  1  0
  1 33  1  0
  1 34  1  0
  1 35  1  0
  2 36  1  6
  3 37  1  0
  3 38  1  0
  4 39  1  0
  4 40  1  0
  5 41  1  1
  8 42  1  0
  8 43  1  0
  8 44  1  0
  9 45  1  0
  9 46  1  0
  9 47  1  0
 10 48  1  1
 11 49  1  0
 11 50  1  0
 12 51  1  0
 12 52  1  0
 14 53  1  0
 14 54  1  0
 14 55  1  0
 15 56  1  6
 16 57  1  0
 16 58  1  0
 17 59  1  0
 19 60  1  6
 20 61  1  0
 20 62  1  0
 21 63  1  0
 21 64  1  0
 22 65  1  1
 23 66  1  0
 25 67  1  0
 25 68  1  0
 25 69  1  0
 26 70  1  0
 26 71  1  0
 26 72  1  0
 28 73  1  0
 28 74  1  0
 28 75  1  0
 29 76  1  0
 29 77  1  0
 30 78  1  0
 30 79  1  0
 32 80  1  0
 32 81  1  0
 32 82  1  0
M  END
>  <meeko>  (11) 
{"is_sidechain": [false], "intermolecular_energy": 2.731, "internal_energy": -0.839}

$$$$
EPH_relaxed_0001_pdb2pqr_Repair_203_r2_0001_out
     RDKit          3D

 82 86  0  0  0  0  0  0  0  0999 V2000
    0.0590   17.3230   -0.4640 C   0  0  0  0  0  0  0  0  0  0  0  0
   -0.3950   15.9450    0.0250 C   0  0  2  0  0  0  0  0  0  0  0  0
   -0.8420   15.9710    1.5010 C   0  0  0  0  0  0  0  0  0  0  0  0
   -1.2440   14.5980    2.0460 C   0  0  0  0  0  0  0  0  0  0  0  0
   -1.4930   14.6390    3.5230 C   0  0  2  0  0  0  0  0  0  0  0  0
   -0.3530   15.0070    4.3120 O   0  0  0  0  0  0  0  0  0  0  0  0
   -0.8550   13.6750    4.5060 C   0  0  0  0  0  0  0  0  0  0  0  0
    0.0810   12.6000    4.0490 C   0  0  0  0  0  0  0  0  0  0  0  0
   -1.5140   13.4660    5.8340 C   0  0  0  0  0  0  0  0  0  0  0  0
    0.7290   14.9320   -0.1610 C   0  0  1  0  0  0  0  0  0  0  0  0
    0.9730   14.0710    1.1070 C   0  0  0  0  0  0  0  0  0  0  0  0
    1.3770   12.6570    0.6170 C   0  0  0  0  0  0  0  0  0  0  0  0
    1.6740   12.8370   -0.8900 C   0  0  1  0  0  0  0  0  0  0  0  0
    3.1250   13.4090   -0.9470 C   0  0  0  0  0  0  0  0  0  0  0  0
    1.5210   11.5620   -1.7820 C   0  0  2  0  0  0  0  0  0  0  0  0
    2.4750   10.4050   -1.4360 C   0  0  0  0  0  0  0  0  0  0  0  0
    3.7790   10.4150   -2.1640 C   0  0  0  0  0  0  0  0  0  0  0  0
    4.0570   11.1440   -3.2610 C   0  0  0  0  0  0  0  0  0  0  0  0
    2.9740   11.9950   -3.9370 C   0  0  1  0  0  0  0  0  0  0  0  0
    3.0140   11.7610   -5.4700 C   0  0  0  0  0  0  0  0  0  0  0  0
    4.3990   12.0030   -6.0620 C   0  0  0  0  0  0  0  0  0  0  0  0
    5.4380   11.0980   -5.4050 C   0  0  2  0  0  0  0  0  0  0  0  0
    5.1560    9.7400   -5.7570 O   0  0  0  0  0  0  0  0  0  0  0  0
    5.4830   11.2390   -3.8580 C   0  0  0  0  0  0  0  0  0  0  0  0
    6.0790   12.6170   -3.4770 C   0  0  0  0  0  0  0  0  0  0  0  0
    6.4690   10.1730   -3.3090 C   0  0  0  0  0  0  0  0  0  0  0  0
    1.5090   11.8560   -3.3370 C   0  0  1  0  0  0  0  0  0  0  0  0
    0.7690   10.6600   -4.0100 C   0  0  0  0  0  0  0  0  0  0  0  0
    0.6820   13.1470   -3.6950 C   0  0  0  0  0  0  0  0  0  0  0  0
    0.7810   14.3300   -2.7130 C   0  0  0  0  0  0  0  0  0  0  0  0
    0.5490   13.8670   -1.2710 C   0  0  2  0  0  0  0  0  0  0  0  0
   -0.9110   13.3060   -1.1780 C   0  0  0  0  0  0  0  0  0  0  0  0
    0.2714   17.9676    0.4017 H   0  0  0  0  0  0  0  0  0  0  0  0
    0.9689   17.2147   -1.0725 H   0  0  0  0  0  0  0  0  0  0  0  0
   -0.7371   17.7768   -1.0725 H   0  0  0  0  0  0  0  0  0  0  0  0
   -1.2659   15.6495   -0.5785 H   0  0  0  0  0  0  0  0  0  0  0  0
   -0.0102   16.3562    2.1091 H   0  0  0  0  0  0  0  0  0  0  0  0
   -1.7338   16.6126    1.5558 H   0  0  0  0  0  0  0  0  0  0  0  0
   -2.1626   14.2681    1.5387 H   0  0  0  0  0  0  0  0  0  0  0  0
   -0.4163   13.8985    1.8572 H   0  0  0  0  0  0  0  0  0  0  0  0
   -2.5371   14.9459    3.3627 H   0  0  0  0  0  0  0  0  0  0  0  0
    0.5182   12.0979    4.9246 H   0  0  0  0  0  0  0  0  0  0  0  0
   -0.4710   11.8663    3.4433 H   0  0  0  0  0  0  0  0  0  0  0  0
    0.8837   13.0458    3.4433 H   0  0  0  0  0  0  0  0  0  0  0  0
   -0.7985   13.6929    6.6381 H   0  0  0  0  0  0  0  0  0  0  0  0
   -2.3853   14.1319    5.9198 H   0  0  0  0  0  0  0  0  0  0  0  0
   -1.8423   12.4196    5.9198 H   0  0  0  0  0  0  0  0  0  0  0  0
    1.5510   15.6143   -0.4235 H   0  0  0  0  0  0  0  0  0  0  0  0
    1.7816   14.5077    1.7115 H   0  0  0  0  0  0  0  0  0  0  0  0
    0.0708   14.0284    1.7349 H   0  0  0  0  0  0  0  0  0  0  0  0
    2.2717   12.3023    1.1496 H   0  0  0  0  0  0  0  0  0  0  0  0
    0.5900   11.9108    0.8011 H   0  0  0  0  0  0  0  0  0  0  0  0
    3.5011   13.5573    0.0760 H   0  0  0  0  0  0  0  0  0  0  0  0
    3.7777   12.7009   -1.4786 H   0  0  0  0  0  0  0  0  0  0  0  0
    3.1189   14.3720   -1.4786 H   0  0  0  0  0  0  0  0  0  0  0  0
    0.5138   11.2083   -1.5164 H   0  0  0  0  0  0  0  0  0  0  0  0
    2.6872   10.4502   -0.3576 H   0  0  0  0  0  0  0  0  0  0  0  0
    1.9606    9.4831   -1.7451 H   0  0  0  0  0  0  0  0  0  0  0  0
    4.5802    9.7722   -1.7704 H   0  0  0  0  0  0  0  0  0  0  0  0
    3.2252   13.0421   -3.7124 H   0  0  0  0  0  0  0  0  0  0  0  0
    2.7190   10.7215   -5.6760 H   0  0  0  0  0  0  0  0  0  0  0  0
    2.3216   12.4777   -5.9357 H   0  0  0  0  0  0  0  0  0  0  0  0
    4.3707   11.7942   -7.1416 H   0  0  0  0  0  0  0  0  0  0  0  0
    4.6806   13.0508   -5.8805 H   0  0  0  0  0  0  0  0  0  0  0  0
    6.4262   11.4070   -5.7765 H   0  0  0  0  0  0  0  0  0  0  0  0
    5.8550    9.4420   -6.3630 H   0  0  0  0  0  0  0  0  0  0  0  0
    6.1188   12.7091   -2.3816 H   0  0  0  0  0  0  0  0  0  0  0  0
    7.0951   12.7037   -3.8894 H   0  0  0  0  0  0  0  0  0  0  0  0
    5.4464   13.4168   -3.8894 H   0  0  0  0  0  0  0  0  0  0  0  0
    6.4528   10.1905   -2.2093 H   0  0  0  0  0  0  0  0  0  0  0  0
    6.1671    9.1767   -3.6644 H   0  0  0  0  0  0  0  0  0  0  0  0
    7.4858   10.3965   -3.6644 H   0  0  0  0  0  0  0  0  0  0  0  0
    0.3594    9.9981   -3.2328 H   0  0  0  0  0  0  0  0  0  0  0  0
   -0.0510   11.0416   -4.6360 H   0  0  0  0  0  0  0  0  0  0  0  0
    1.4765   10.0965   -4.6360 H   0  0  0  0  0  0  0  0  0  0  0  0
    1.0263   13.5008   -4.6780 H   0  0  0  0  0  0  0  0  0  0  0  0
   -0.3715   12.8324   -3.6613 H   0  0  0  0  0  0  0  0  0  0  0  0
    1.7823   14.7788   -2.7901 H   0  0  0  0  0  0  0  0  0  0  0  0
    0.0074   15.0674   -2.9732 H   0  0  0  0  0  0  0  0  0  0  0  0
   -1.1952   13.1968   -0.1210 H   0  0  0  0  0  0  0  0  0  0  0  0
   -1.6035   14.0021   -1.6739 H   0  0  0  0  0  0  0  0  0  0  0  0
   -0.9593   12.3253   -1.6739 H   0  0  0  0  0  0  0  0  0  0  0  0
  1  2  1  0
  2  3  1  0
  3  4  1  0
  4  5  1  0
  5  6  1  0
  6  7  1  0
  7  8  1  0
  7  9  1  0
  2 10  1  0
 10 11  1  0
 11 12  1  0
 12 13  1  0
 13 14  1  1
 13 15  1  0
 15 16  1  0
 16 17  1  0
 17 18  2  0
 18 19  1  0
 19 20  1  0
 20 21  1  0
 21 22  1  0
 22 23  1  0
 22 24  1  0
 24 25  1  0
 24 26  1  0
 19 27  1  0
 27 28  1  6
 27 29  1  0
 29 30  1  0
 30 31  1  0
 31 32  1  6
  7  5  1  0
 31 10  1  0
 31 13  1  0
 27 15  1  0
 24 18  1  0
  1 33  1  0
  1 34  1  0
  1 35  1  0
  2 36  1  6
  3 37  1  0
  3 38  1  0
  4 39  1  0
  4 40  1  0
  5 41  1  6
  8 42  1  0
  8 43  1  0
  8 44  1  0
  9 45  1  0
  9 46  1  0
  9 47  1  0
 10 48  1  6
 11 49  1  0
 11 50  1  0
 12 51  1  0
 12 52  1  0
 14 53  1  0
 14 54  1  0
 14 55  1  0
 15 56  1  1
 16 57  1  0
 16 58  1  0
 17 59  1  0
 19 60  1  6
 20 61  1  0
 20 62  1  0
 21 63  1  0
 21 64  1  0
 22 65  1  6
 23 66  1  0
 25 67  1  0
 25 68  1  0
 25 69  1  0
 26 70  1  0
 26 71  1  0
 26 72  1  0
 28 73  1  0
 28 74  1  0
 28 75  1  0
 29 76  1  0
 29 77  1  0
 30 78  1  0
 30 79  1  0
 32 80  1  0
 32 81  1  0
 32 82  1  0
M  END
>  <meeko>  (12) 
{"is_sidechain": [false], "intermolecular_energy": 2.731, "internal_energy": -0.839}

$$$$
EPH_relaxed_0001_pdb2pqr_Repair_203_r2_0001_out
     RDKit          3D

 82 86  0  0  0  0  0  0  0  0999 V2000
   -1.0420    7.1330   -3.0640 C   0  0  0  0  0  0  0  0  0  0  0  0
   -2.2840    7.5020   -2.2470 C   0  0  2  0  0  0  0  0  0  0  0  0
   -3.5720    7.4430   -3.0920 C   0  0  0  0  0  0  0  0  0  0  0  0
   -4.4360    6.2100   -2.8120 C   0  0  0  0  0  0  0  0  0  0  0  0
   -5.8220    6.3680   -3.3600 C   0  0  2  0  0  0  0  0  0  0  0  0
   -6.4210    7.6470   -3.1140 O   0  0  0  0  0  0  0  0  0  0  0  0
   -7.0540    6.5190   -2.4880 C   0  0  0  0  0  0  0  0  0  0  0  0
   -6.9590    6.5180   -0.9950 C   0  0  0  0  0  0  0  0  0  0  0  0
   -8.3900    6.1770   -3.0720 C   0  0  0  0  0  0  0  0  0  0  0  0
   -2.1170    8.8930   -1.6480 C   0  0  1  0  0  0  0  0  0  0  0  0
   -3.0280    9.1250   -0.4140 C   0  0  0  0  0  0  0  0  0  0  0  0
   -2.2360   10.0300    0.5640 C   0  0  0  0  0  0  0  0  0  0  0  0
   -1.0450   10.5580   -0.2710 C   0  0  1  0  0  0  0  0  0  0  0  0
   -1.6300   11.7460   -1.0960 C   0  0  0  0  0  0  0  0  0  0  0  0
    0.2270   10.9830    0.5320 C   0  0  2  0  0  0  0  0  0  0  0  0
    0.0210   12.1530    1.5100 C   0  0  0  0  0  0  0  0  0  0  0  0
    0.2690   13.5110    0.9420 C   0  0  0  0  0  0  0  0  0  0  0  0
    0.9140   13.7700   -0.2110 C   0  0  0  0  0  0  0  0  0  0  0  0
    1.5570   12.6400   -1.0250 C   0  0  1  0  0  0  0  0  0  0  0  0
    2.9890   13.0590   -1.4510 C   0  0  0  0  0  0  0  0  0  0  0  0
    3.0130   14.3950   -2.1870 C   0  0  0  0  0  0  0  0  0  0  0  0
    2.4180   15.5040   -1.3230 C   0  0  2  0  0  0  0  0  0  0  0  0
    3.2780   15.7250   -0.2000 O   0  0  0  0  0  0  0  0  0  0  0  0
    0.9800   15.1900   -0.8260 C   0  0  0  0  0  0  0  0  0  0  0  0
   -0.0070   15.2490   -2.0190 C   0  0  0  0  0  0  0  0  0  0  0  0
    0.5520   16.3210    0.1470 C   0  0  0  0  0  0  0  0  0  0  0  0
    1.5160   11.1970   -0.3610 C   0  0  1  0  0  0  0  0  0  0  0  0
    2.7450   11.0080    0.5790 C   0  0  0  0  0  0  0  0  0  0  0  0
    1.6490   10.1070   -1.4900 C   0  0  0  0  0  0  0  0  0  0  0  0
    0.3430    9.6410   -2.1630 C   0  0  0  0  0  0  0  0  0  0  0  0
   -0.7120    9.2740   -1.1160 C   0  0  2  0  0  0  0  0  0  0  0  0
   -0.1620    8.0660   -0.2840 C   0  0  0  0  0  0  0  0  0  0  0  0
   -0.2144    6.8871   -2.3823 H   0  0  0  0  0  0  0  0  0  0  0  0
   -1.2656    6.2625   -3.6982 H   0  0  0  0  0  0  0  0  0  0  0  0
   -0.7540    7.9844   -3.6982 H   0  0  0  0  0  0  0  0  0  0  0  0
   -2.3834    6.7600   -1.4410 H   0  0  0  0  0  0  0  0  0  0  0  0
   -4.1693    8.3415   -2.8778 H   0  0  0  0  0  0  0  0  0  0  0  0
   -3.2626    7.3861   -4.1461 H   0  0  0  0  0  0  0  0  0  0  0  0
   -3.9660    5.3319   -3.2790 H   0  0  0  0  0  0  0  0  0  0  0  0
   -4.5107    6.0842   -1.7218 H   0  0  0  0  0  0  0  0  0  0  0  0
   -5.5911    5.6977   -4.2011 H   0  0  0  0  0  0  0  0  0  0  0  0
   -7.9707    6.5286   -0.5632 H   0  0  0  0  0  0  0  0  0  0  0  0
   -6.4277    5.6142   -0.6620 H   0  0  0  0  0  0  0  0  0  0  0  0
   -6.4088    7.4104   -0.6620 H   0  0  0  0  0  0  0  0  0  0  0  0
   -9.1089    5.9930   -2.2600 H   0  0  0  0  0  0  0  0  0  0  0  0
   -8.7439    7.0135   -3.6925 H   0  0  0  0  0  0  0  0  0  0  0  0
   -8.2985    5.2733   -3.6925 H   0  0  0  0  0  0  0  0  0  0  0  0
   -2.3646    9.5042   -2.5284 H   0  0  0  0  0  0  0  0  0  0  0  0
   -3.9601    9.6226   -0.7197 H   0  0  0  0  0  0  0  0  0  0  0  0
   -3.2979    8.1708    0.0622 H   0  0  0  0  0  0  0  0  0  0  0  0
   -2.8625   10.8626    0.9165 H   0  0  0  0  0  0  0  0  0  0  0  0
   -1.9075    9.4866    1.4622 H   0  0  0  0  0  0  0  0  0  0  0  0
   -2.0097   12.5172   -0.4096 H   0  0  0  0  0  0  0  0  0  0  0  0
   -0.8406   12.1760   -1.7300 H   0  0  0  0  0  0  0  0  0  0  0  0
   -2.4521   11.3824   -1.7300 H   0  0  0  0  0  0  0  0  0  0  0  0
    0.4157   10.0991    1.1590 H   0  0  0  0  0  0  0  0  0  0  0  0
   -1.0190   12.1186    1.8666 H   0  0  0  0  0  0  0  0  0  0  0  0
    0.7656   12.0167    2.3081 H   0  0  0  0  0  0  0  0  0  0  0  0
   -0.1068   14.3725    1.5135 H   0  0  0  0  0  0  0  0  0  0  0  0
    0.9252   12.5097   -1.9160 H   0  0  0  0  0  0  0  0  0  0  0  0
    3.6149   13.1414   -0.5502 H   0  0  0  0  0  0  0  0  0  0  0  0
    3.3704   12.2912   -2.1402 H   0  0  0  0  0  0  0  0  0  0  0  0
    4.0537   14.6509   -2.4350 H   0  0  0  0  0  0  0  0  0  0  0  0
    2.4112   14.3023   -3.1031 H   0  0  0  0  0  0  0  0  0  0  0  0
    2.3425   16.4050   -1.9495 H   0  0  0  0  0  0  0  0  0  0  0  0
    4.0650   15.1680   -0.3180 H   0  0  0  0  0  0  0  0  0  0  0  0
   -1.0376   15.3106   -1.6395 H   0  0  0  0  0  0  0  0  0  0  0  0
    0.2116   16.1357   -2.6322 H   0  0  0  0  0  0  0  0  0  0  0  0
    0.1044   14.3426   -2.6322 H   0  0  0  0  0  0  0  0  0  0  0  0
    0.6810   15.9801    1.1849 H   0  0  0  0  0  0  0  0  0  0  0  0
    1.1758   17.2101   -0.0271 H   0  0  0  0  0  0  0  0  0  0  0  0
   -0.5042   16.5743   -0.0271 H   0  0  0  0  0  0  0  0  0  0  0  0
    2.4160   11.0586    1.6274 H   0  0  0  0  0  0  0  0  0  0  0  0
    3.2067   10.0283    0.3865 H   0  0  0  0  0  0  0  0  0  0  0  0
    3.4797   11.8037    0.3865 H   0  0  0  0  0  0  0  0  0  0  0  0
    2.2996   10.5191   -2.2755 H   0  0  0  0  0  0  0  0  0  0  0  0
    2.0462    9.2149   -0.9836 H   0  0  0  0  0  0  0  0  0  0  0  0
   -0.0452   10.4526   -2.7959 H   0  0  0  0  0  0  0  0  0  0  0  0
    0.5598    8.7496   -2.7700 H   0  0  0  0  0  0  0  0  0  0  0  0
   -0.2615    8.2846    0.7895 H   0  0  0  0  0  0  0  0  0  0  0  0
   -0.7366    7.1604   -0.5286 H   0  0  0  0  0  0  0  0  0  0  0  0
    0.8983    7.9048   -0.5286 H   0  0  0  0  0  0  0  0  0  0  0  0
  1  2  1  0
  2  3  1  0
  3  4  1  0
  4  5  1  0
  5  6  1  0
  6  7  1  0
  7  8  1  0
  7  9  1  0
  2 10  1  0
 10 11  1  0
 11 12  1  0
 12 13  1  0
 13 14  1  6
 13 15  1  0
 15 16  1  0
 16 17  1  0
 17 18  2  0
 18 19  1  0
 19 20  1  0
 20 21  1  0
 21 22  1  0
 22 23  1  0
 22 24  1  0
 24 25  1  0
 24 26  1  0
 19 27  1  0
 27 28  1  1
 27 29  1  0
 29 30  1  0
 30 31  1  0
 31 32  1  1
  7  5  1  0
 31 10  1  0
 31 13  1  0
 27 15  1  0
 24 18  1  0
  1 33  1  0
  1 34  1  0
  1 35  1  0
  2 36  1  1
  3 37  1  0
  3 38  1  0
  4 39  1  0
  4 40  1  0
  5 41  1  6
  8 42  1  0
  8 43  1  0
  8 44  1  0
  9 45  1  0
  9 46  1  0
  9 47  1  0
 10 48  1  6
 11 49  1  0
 11 50  1  0
 12 51  1  0
 12 52  1  0
 14 53  1  0
 14 54  1  0
 14 55  1  0
 15 56  1  1
 16 57  1  0
 16 58  1  0
 17 59  1  0
 19 60  1  6
 20 61  1  0
 20 62  1  0
 21 63  1  0
 21 64  1  0
 22 65  1  6
 23 66  1  0
 25 67  1  0
 25 68  1  0
 25 69  1  0
 26 70  1  0
 26 71  1  0
 26 72  1  0
 28 73  1  0
 28 74  1  0
 28 75  1  0
 29 76  1  0
 29 77  1  0
 30 78  1  0
 30 79  1  0
 32 80  1  0
 32 81  1  0
 32 82  1  0
M  END
>  <meeko>  (13) 
{"is_sidechain": [false], "intermolecular_energy": 2.731, "internal_energy": -0.839}

$$$$
EPH_relaxed_0001_pdb2pqr_Repair_203_r2_0001_out
     RDKit          3D

 82 86  0  0  0  0  0  0  0  0999 V2000
   -4.0170    7.4610   -3.7050 C   0  0  0  0  0  0  0  0  0  0  0  0
   -3.6060    7.2780   -2.2420 C   0  0  2  0  0  0  0  0  0  0  0  0
   -4.7540    6.7130   -1.3820 C   0  0  0  0  0  0  0  0  0  0  0  0
   -6.0940    6.6350   -2.1180 C   0  0  0  0  0  0  0  0  0  0  0  0
   -7.2350    6.4180   -1.1720 C   0  0  2  0  0  0  0  0  0  0  0  0
   -8.2960    5.6050   -1.6900 O   0  0  0  0  0  0  0  0  0  0  0  0
   -8.6290    6.9730   -1.4000 C   0  0  0  0  0  0  0  0  0  0  0  0
   -8.9550    7.7890   -2.6110 C   0  0  0  0  0  0  0  0  0  0  0  0
   -9.5360    7.1360   -0.2210 C   0  0  0  0  0  0  0  0  0  0  0  0
   -3.1280    8.6060   -1.6660 C   0  0  1  0  0  0  0  0  0  0  0  0
   -3.8060    8.9480   -0.3130 C   0  0  0  0  0  0  0  0  0  0  0  0
   -2.7450    9.6850    0.5450 C   0  0  0  0  0  0  0  0  0  0  0  0
   -1.6140   10.0340   -0.4490 C   0  0  1  0  0  0  0  0  0  0  0  0
   -2.1040   11.3250   -1.1770 C   0  0  0  0  0  0  0  0  0  0  0  0
   -0.1880   10.2240    0.1650 C   0  0  2  0  0  0  0  0  0  0  0  0
   -0.0590   11.3840    1.1670 C   0  0  0  0  0  0  0  0  0  0  0  0
    0.3280   12.6990    0.5750 C   0  0  0  0  0  0  0  0  0  0  0  0
    0.8380   12.8820   -0.6570 C   0  0  0  0  0  0  0  0  0  0  0  0
    1.1650   11.6860   -1.5600 C   0  0  1  0  0  0  0  0  0  0  0  0
    2.5710   11.8780   -2.1850 C   0  0  0  0  0  0  0  0  0  0  0  0
    2.7120   13.2120   -2.9100 C   0  0  0  0  0  0  0  0  0  0  0  0
    2.4360   14.3790   -1.9650 C   0  0  2  0  0  0  0  0  0  0  0  0
    3.4690   14.4250   -0.9760 O   0  0  0  0  0  0  0  0  0  0  0  0
    1.0500   14.2890   -1.2690 C   0  0  0  0  0  0  0  0  0  0  0  0
   -0.0720   14.5410   -2.3070 C   0  0  0  0  0  0  0  0  0  0  0  0
    0.9560   15.4470   -0.2390 C   0  0  0  0  0  0  0  0  0  0  0  0
    0.9790   10.2500   -0.9030 C   0  0  1  0  0  0  0  0  0  0  0  0
    2.2810    9.8370   -0.1500 C   0  0  0  0  0  0  0  0  0  0  0  0
    0.7700    9.1860   -2.0450 C   0  0  0  0  0  0  0  0  0  0  0  0
   -0.6760    8.9580   -2.5250 C   0  0  0  0  0  0  0  0  0  0  0  0
   -1.6200    8.7380   -1.3390 C   0  0  2  0  0  0  0  0  0  0  0  0
   -1.1650    7.4340   -0.6000 C   0  0  0  0  0  0  0  0  0  0  0  0
   -5.0210    7.9080   -3.7506 H   0  0  0  0  0  0  0  0  0  0  0  0
   -3.2973    8.1237   -4.2079 H   0  0  0  0  0  0  0  0  0  0  0  0
   -4.0280    6.4827   -4.2079 H   0  0  0  0  0  0  0  0  0  0  0  0
   -2.7854    6.5458   -2.2184 H   0  0  0  0  0  0  0  0  0  0  0  0
   -4.4773    5.6994   -1.0562 H   0  0  0  0  0  0  0  0  0  0  0  0
   -4.8916    7.4030   -0.5365 H   0  0  0  0  0  0  0  0  0  0  0  0
   -6.2568    7.5768   -2.6625 H   0  0  0  0  0  0  0  0  0  0  0  0
   -6.0555    5.7807   -2.8099 H   0  0  0  0  0  0  0  0  0  0  0  0
   -6.5565    6.4608   -0.3073 H   0  0  0  0  0  0  0  0  0  0  0  0
   -9.3463    8.7685   -2.2987 H   0  0  0  0  0  0  0  0  0  0  0  0
   -8.0451    7.9324   -3.2123 H   0  0  0  0  0  0  0  0  0  0  0  0
   -9.7132    7.2660   -3.2123 H   0  0  0  0  0  0  0  0  0  0  0  0
   -8.9540    7.0314    0.7066 H   0  0  0  0  0  0  0  0  0  0  0  0
  -10.0015    8.1322   -0.2514 H   0  0  0  0  0  0  0  0  0  0  0  0
  -10.3192    6.3642   -0.2514 H   0  0  0  0  0  0  0  0  0  0  0  0
   -3.3916    9.2740   -2.4992 H   0  0  0  0  0  0  0  0  0  0  0  0
   -4.6771    9.5987   -0.4795 H   0  0  0  0  0  0  0  0  0  0  0  0
   -4.1601    8.0376    0.1928 H   0  0  0  0  0  0  0  0  0  0  0  0
   -3.1693   10.5986    0.9869 H   0  0  0  0  0  0  0  0  0  0  0  0
   -2.3877    9.0709    1.3847 H   0  0  0  0  0  0  0  0  0  0  0  0
   -2.3907   12.0804   -0.4306 H   0  0  0  0  0  0  0  0  0  0  0  0
   -1.2936   11.7209   -1.8067 H   0  0  0  0  0  0  0  0  0  0  0  0
   -2.9730   11.0834   -1.8067 H   0  0  0  0  0  0  0  0  0  0  0  0
   -0.0602    9.3043    0.7547 H   0  0  0  0  0  0  0  0  0  0  0  0
   -1.0301   11.5096    1.6682 H   0  0  0  0  0  0  0  0  0  0  0  0
    0.7571   11.1062    1.8502 H   0  0  0  0  0  0  0  0  0  0  0  0
    0.1841   13.5938    1.1984 H   0  0  0  0  0  0  0  0  0  0  0  0
    0.4020   11.6854   -2.3524 H   0  0  0  0  0  0  0  0  0  0  0  0
    3.3226   11.8314   -1.3831 H   0  0  0  0  0  0  0  0  0  0  0  0
    2.7189   11.0784   -2.9258 H   0  0  0  0  0  0  0  0  0  0  0  0
    3.7354   13.3015   -3.3032 H   0  0  0  0  0  0  0  0  0  0  0  0
    1.9802   13.2444   -3.7307 H   0  0  0  0  0  0  0  0  0  0  0  0
    2.4237   15.2977   -2.5699 H   0  0  0  0  0  0  0  0  0  0  0  0
    3.1170   14.0250   -0.1630 H   0  0  0  0  0  0  0  0  0  0  0  0
   -1.0156   14.7529   -1.7828 H   0  0  0  0  0  0  0  0  0  0  0  0
    0.1983   15.4008   -2.9376 H   0  0  0  0  0  0  0  0  0  0  0  0
   -0.1954   13.6482   -2.9376 H   0  0  0  0  0  0  0  0  0  0  0  0
    0.9895   15.0347    0.7803 H   0  0  0  0  0  0  0  0  0  0  0  0
    1.8012   16.1360   -0.3838 H   0  0  0  0  0  0  0  0  0  0  0  0
    0.0108   15.9907   -0.3838 H   0  0  0  0  0  0  0  0  0  0  0  0
    2.1098    9.8913    0.9352 H   0  0  0  0  0  0  0  0  0  0  0  0
    2.5541    8.8081   -0.4271 H   0  0  0  0  0  0  0  0  0  0  0  0
    3.0973   10.5203   -0.4271 H   0  0  0  0  0  0  0  0  0  0  0  0
    1.3620    9.5095   -2.9138 H   0  0  0  0  0  0  0  0  0  0  0  0
    1.0824    8.2270   -1.6060 H   0  0  0  0  0  0  0  0  0  0  0  0
   -1.0100    9.8395   -3.0919 H   0  0  0  0  0  0  0  0  0  0  0  0
   -0.6968    8.0604   -3.1606 H   0  0  0  0  0  0  0  0  0  0  0  0
   -1.2197    7.5907    0.4874 H   0  0  0  0  0  0  0  0  0  0  0  0
   -1.8259    6.6019   -0.8842 H   0  0  0  0  0  0  0  0  0  0  0  0
   -0.1299    7.1937   -0.8842 H   0  0  0  0  0  0  0  0  0  0  0  0
  1  2  1  0
  2  3  1  0
  3  4  1  0
  4  5  1  0
  5  6  1  0
  6  7  1  0
  7  8  1  0
  7  9  1  0
  2 10  1  0
 10 11  1  0
 11 12  1  0
 12 13  1  0
 13 14  1  6
 13 15  1  0
 15 16  1  0
 16 17  1  0
 17 18  2  0
 18 19  1  0
 19 20  1  0
 20 21  1  0
 21 22  1  0
 22 23  1  0
 22 24  1  0
 24 25  1  0
 24 26  1  0
 19 27  1  0
 27 28  1  1
 27 29  1  0
 29 30  1  0
 30 31  1  0
 31 32  1  1
  7  5  1  0
 31 10  1  0
 31 13  1  0
 27 15  1  0
 24 18  1  0
  1 33  1  0
  1 34  1  0
  1 35  1  0
  2 36  1  6
  3 37  1  0
  3 38  1  0
  4 39  1  0
  4 40  1  0
  5 41  1  1
  8 42  1  0
  8 43  1  0
  8 44  1  0
  9 45  1  0
  9 46  1  0
  9 47  1  0
 10 48  1  6
 11 49  1  0
 11 50  1  0
 12 51  1  0
 12 52  1  0
 14 53  1  0
 14 54  1  0
 14 55  1  0
 15 56  1  1
 16 57  1  0
 16 58  1  0
 17 59  1  0
 19 60  1  6
 20 61  1  0
 20 62  1  0
 21 63  1  0
 21 64  1  0
 22 65  1  6
 23 66  1  0
 25 67  1  0
 25 68  1  0
 25 69  1  0
 26 70  1  0
 26 71  1  0
 26 72  1  0
 28 73  1  0
 28 74  1  0
 28 75  1  0
 29 76  1  0
 29 77  1  0
 30 78  1  0
 30 79  1  0
 32 80  1  0
 32 81  1  0
 32 82  1  0
M  END
>  <meeko>  (14) 
{"is_sidechain": [false], "intermolecular_energy": 2.731, "internal_energy": -0.839}

$$$$
EPH_relaxed_0001_pdb2pqr_Repair_203_r2_0001_out
     RDKit          3D

 82 86  0  0  0  0  0  0  0  0999 V2000
   -0.9230   16.3870   -5.8940 C   0  0  0  0  0  0  0  0  0  0  0  0
    0.1840   15.6920   -6.6920 C   0  0  2  0  0  0  0  0  0  0  0  0
   -0.2030   15.4940   -8.1710 C   0  0  0  0  0  0  0  0  0  0  0  0
    0.4500   16.5050   -9.1190 C   0  0  0  0  0  0  0  0  0  0  0  0
    1.8540   16.1120   -9.4660 C   0  0  2  0  0  0  0  0  0  0  0  0
    2.3480   16.6760  -10.6880 O   0  0  0  0  0  0  0  0  0  0  0  0
    2.2090   15.2460  -10.6600 C   0  0  0  0  0  0  0  0  0  0  0  0
    1.1550   14.7190  -11.5830 C   0  0  0  0  0  0  0  0  0  0  0  0
    3.5140   14.5140  -10.6500 C   0  0  0  0  0  0  0  0  0  0  0  0
    0.5160   14.3470   -6.0560 C   0  0  1  0  0  0  0  0  0  0  0  0
    1.7420   13.6610   -6.7160 C   0  0  0  0  0  0  0  0  0  0  0  0
    2.4940   12.9090   -5.5890 C   0  0  0  0  0  0  0  0  0  0  0  0
    1.5100   12.9080   -4.3960 C   0  0  1  0  0  0  0  0  0  0  0  0
    0.5230   11.7360   -4.6910 C   0  0  0  0  0  0  0  0  0  0  0  0
    2.1480   12.7820   -2.9740 C   0  0  2  0  0  0  0  0  0  0  0  0
    2.9130   11.4720   -2.7160 C   0  0  0  0  0  0  0  0  0  0  0  0
    2.0990   10.3600   -2.1420 C   0  0  0  0  0  0  0  0  0  0  0  0
    0.8820   10.4910   -1.5810 C   0  0  0  0  0  0  0  0  0  0  0  0
    0.2450   11.8740   -1.3940 C   0  0  1  0  0  0  0  0  0  0  0  0
   -0.3320   11.9880    0.0410 C   0  0  0  0  0  0  0  0  0  0  0  0
   -1.2940   10.8520    0.3770 C   0  0  0  0  0  0  0  0  0  0  0  0
   -0.6070    9.4960    0.2360 C   0  0  2  0  0  0  0  0  0  0  0  0
    0.4060    9.3860    1.2400 O   0  0  0  0  0  0  0  0  0  0  0  0
    0.0220    9.2710   -1.1680 C   0  0  0  0  0  0  0  0  0  0  0  0
   -1.1010    9.0900   -2.2180 C   0  0  0  0  0  0  0  0  0  0  0  0
    0.8030    7.9300   -1.1310 C   0  0  0  0  0  0  0  0  0  0  0  0
    1.1560   13.1150   -1.7870 C   0  0  1  0  0  0  0  0  0  0  0  0
    2.0400   13.5320   -0.5710 C   0  0  0  0  0  0  0  0  0  0  0  0
    0.2320   14.3500   -2.1070 C   0  0  0  0  0  0  0  0  0  0  0  0
   -0.2680   14.4840   -3.5580 C   0  0  0  0  0  0  0  0  0  0  0  0
    0.8880   14.3440   -4.5520 C   0  0  2  0  0  0  0  0  0  0  0  0
    1.8870   15.5230   -4.2940 C   0  0  0  0  0  0  0  0  0  0  0  0
   -0.7304   16.2661   -4.8178 H   0  0  0  0  0  0  0  0  0  0  0  0
   -0.9393   17.4577   -6.1455 H   0  0  0  0  0  0  0  0  0  0  0  0
   -1.8944   15.9364   -6.1455 H   0  0  0  0  0  0  0  0  0  0  0  0
    1.0694   16.3442   -6.6673 H   0  0  0  0  0  0  0  0  0  0  0  0
    0.1027   14.4828   -8.4776 H   0  0  0  0  0  0  0  0  0  0  0  0
   -1.2906   15.6431   -8.2415 H   0  0  0  0  0  0  0  0  0  0  0  0
   -0.1433   16.5616  -10.0436 H   0  0  0  0  0  0  0  0  0  0  0  0
    0.4822   17.4803   -8.6113 H   0  0  0  0  0  0  0  0  0  0  0  0
    2.1248   16.0479   -8.4018 H   0  0  0  0  0  0  0  0  0  0  0  0
    0.3248   14.3039  -10.9926 H   0  0  0  0  0  0  0  0  0  0  0  0
    0.7811   15.5362  -12.2173 H   0  0  0  0  0  0  0  0  0  0  0  0
    1.5845   13.9296  -12.2173 H   0  0  0  0  0  0  0  0  0  0  0  0
    3.8277   14.3380   -9.6105 H   0  0  0  0  0  0  0  0  0  0  0  0
    3.3974   13.5496  -11.1661 H   0  0  0  0  0  0  0  0  0  0  0  0
    4.2762   15.1163  -11.1661 H   0  0  0  0  0  0  0  0  0  0  0  0
   -0.4427   13.8294   -6.2075 H   0  0  0  0  0  0  0  0  0  0  0  0
    1.4091   12.9516   -7.4880 H   0  0  0  0  0  0  0  0  0  0  0  0
    2.3953   14.4014   -7.2009 H   0  0  0  0  0  0  0  0  0  0  0  0
    2.7295   11.8802   -5.8989 H   0  0  0  0  0  0  0  0  0  0  0  0
    3.4532   13.3853   -5.3379 H   0  0  0  0  0  0  0  0  0  0  0  0
    0.1648   11.3106   -3.7419 H   0  0  0  0  0  0  0  0  0  0  0  0
   -0.3328   12.1141   -5.2695 H   0  0  0  0  0  0  0  0  0  0  0  0
    1.0412   10.9570   -5.2695 H   0  0  0  0  0  0  0  0  0  0  0  0
    2.9097   13.5755   -2.9859 H   0  0  0  0  0  0  0  0  0  0  0  0
    3.3306   11.1281   -3.6738 H   0  0  0  0  0  0  0  0  0  0  0  0
    3.6775   11.7099   -1.9617 H   0  0  0  0  0  0  0  0  0  0  0  0
    2.5297    9.3485   -2.1806 H   0  0  0  0  0  0  0  0  0  0  0  0
   -0.5706   11.9361   -2.1295 H   0  0  0  0  0  0  0  0  0  0  0  0
    0.5014   11.9682    0.7587 H   0  0  0  0  0  0  0  0  0  0  0  0
   -0.8952   12.9310    0.1004 H   0  0  0  0  0  0  0  0  0  0  0  0
   -1.6450   10.9719    1.4126 H   0  0  0  0  0  0  0  0  0  0  0  0
   -2.1415   10.8908   -0.3231 H   0  0  0  0  0  0  0  0  0  0  0  0
   -1.3774    8.7211    0.3624 H   0  0  0  0  0  0  0  0  0  0  0  0
    0.6610   10.2870    1.5020 H   0  0  0  0  0  0  0  0  0  0  0  0
   -2.0615    8.9352   -1.7046 H   0  0  0  0  0  0  0  0  0  0  0  0
   -1.1627    9.9898   -2.8477 H   0  0  0  0  0  0  0  0  0  0  0  0
   -0.8768    8.2164   -2.8477 H   0  0  0  0  0  0  0  0  0  0  0  0
    0.9750    7.6346   -0.0855 H   0  0  0  0  0  0  0  0  0  0  0  0
    0.2176    7.1506   -1.6407 H   0  0  0  0  0  0  0  0  0  0  0  0
    1.7698    8.0546   -1.6407 H   0  0  0  0  0  0  0  0  0  0  0  0
    1.5167   13.2851    0.3645 H   0  0  0  0  0  0  0  0  0  0  0  0
    2.9965   12.9901   -0.6101 H   0  0  0  0  0  0  0  0  0  0  0  0
    2.2301   14.6147   -0.6101 H   0  0  0  0  0  0  0  0  0  0  0  0
   -0.6515   14.2827   -1.4551 H   0  0  0  0  0  0  0  0  0  0  0  0
    0.8633   15.2345   -1.9365 H   0  0  0  0  0  0  0  0  0  0  0  0
   -1.0105   13.6971   -3.7567 H   0  0  0  0  0  0  0  0  0  0  0  0
   -0.7187   15.4796   -3.6827 H   0  0  0  0  0  0  0  0  0  0  0  0
    2.0104   15.6686   -3.2107 H   0  0  0  0  0  0  0  0  0  0  0  0
    2.8612   15.2835   -4.7451 H   0  0  0  0  0  0  0  0  0  0  0  0
    1.4908   16.4447   -4.7451 H   0  0  0  0  0  0  0  0  0  0  0  0
  1  2  1  0
  2  3  1  0
  3  4  1  0
  4  5  1  0
  5  6  1  0
  6  7  1  0
  7  8  1  0
  7  9  1  0
  2 10  1  0
 10 11  1  0
 11 12  1  0
 12 13  1  0
 13 14  1  6
 13 15  1  0
 15 16  1  0
 16 17  1  0
 17 18  2  0
 18 19  1  0
 19 20  1  0
 20 21  1  0
 21 22  1  0
 22 23  1  0
 22 24  1  0
 24 25  1  0
 24 26  1  0
 19 27  1  0
 27 28  1  1
 27 29  1  0
 29 30  1  0
 30 31  1  0
 31 32  1  6
  7  5  1  0
 31 10  1  0
 31 13  1  0
 27 15  1  0
 24 18  1  0
  1 33  1  0
  1 34  1  0
  1 35  1  0
  2 36  1  6
  3 37  1  0
  3 38  1  0
  4 39  1  0
  4 40  1  0
  5 41  1  1
  8 42  1  0
  8 43  1  0
  8 44  1  0
  9 45  1  0
  9 46  1  0
  9 47  1  0
 10 48  1  1
 11 49  1  0
 11 50  1  0
 12 51  1  0
 12 52  1  0
 14 53  1  0
 14 54  1  0
 14 55  1  0
 15 56  1  6
 16 57  1  0
 16 58  1  0
 17 59  1  0
 19 60  1  6
 20 61  1  0
 20 62  1  0
 21 63  1  0
 21 64  1  0
 22 65  1  1
 23 66  1  0
 25 67  1  0
 25 68  1  0
 25 69  1  0
 26 70  1  0
 26 71  1  0
 26 72  1  0
 28 73  1  0
 28 74  1  0
 28 75  1  0
 29 76  1  0
 29 77  1  0
 30 78  1  0
 30 79  1  0
 32 80  1  0
 32 81  1  0
 32 82  1  0
M  END
>  <meeko>  (15) 
{"is_sidechain": [false], "intermolecular_energy": 2.731, "internal_energy": -0.839}

$$$$
EPH_relaxed_0001_pdb2pqr_Repair_203_r2_0001_out
     RDKit          3D

 82 86  0  0  0  0  0  0  0  0999 V2000
   -0.2240   18.2720   -3.0440 C   0  0  0  0  0  0  0  0  0  0  0  0
    0.4590   17.7500   -1.7770 C   0  0  2  0  0  0  0  0  0  0  0  0
    1.6530   18.6300   -1.3560 C   0  0  0  0  0  0  0  0  0  0  0  0
    1.4820   19.2830    0.0190 C   0  0  0  0  0  0  0  0  0  0  0  0
    0.2130   20.0760    0.1010 C   0  0  2  0  0  0  0  0  0  0  0  0
   -0.3340   20.1940    1.4210 O   0  0  0  0  0  0  0  0  0  0  0  0
   -1.1300   19.4710    0.4670 C   0  0  0  0  0  0  0  0  0  0  0  0
   -1.2710   18.0130    0.7730 C   0  0  0  0  0  0  0  0  0  0  0  0
   -2.3750   20.1910    0.0520 C   0  0  0  0  0  0  0  0  0  0  0  0
    0.9220   16.3130   -1.9900 C   0  0  1  0  0  0  0  0  0  0  0  0
    2.4440   16.2110   -2.2720 C   0  0  0  0  0  0  0  0  0  0  0  0
    2.9330   14.8940   -1.6160 C   0  0  0  0  0  0  0  0  0  0  0  0
    1.6360   14.1250   -1.2720 C   0  0  1  0  0  0  0  0  0  0  0  0
    1.2050   13.4460   -2.6100 C   0  0  0  0  0  0  0  0  0  0  0  0
    1.7360   13.0890   -0.1060 C   0  0  2  0  0  0  0  0  0  0  0  0
    2.7070   11.9210   -0.3520 C   0  0  0  0  0  0  0  0  0  0  0  0
    2.1040   10.7160   -0.9960 C   0  0  0  0  0  0  0  0  0  0  0  0
    0.7870   10.4630   -1.1030 C   0  0  0  0  0  0  0  0  0  0  0  0
   -0.2490   11.3930   -0.4580 C   0  0  1  0  0  0  0  0  0  0  0  0
   -1.3040   10.5460    0.3010 C   0  0  0  0  0  0  0  0  0  0  0  0
   -1.9460    9.4810   -0.5820 C   0  0  0  0  0  0  0  0  0  0  0  0
   -0.8900    8.5410   -1.1580 C   0  0  2  0  0  0  0  0  0  0  0  0
   -0.3130    7.7850   -0.0880 O   0  0  0  0  0  0  0  0  0  0  0  0
    0.2310    9.2830   -1.9380 C   0  0  0  0  0  0  0  0  0  0  0  0
   -0.3420    9.8500   -3.2600 C   0  0  0  0  0  0  0  0  0  0  0  0
    1.3040    8.2360   -2.3430 C   0  0  0  0  0  0  0  0  0  0  0  0
    0.3370   12.5750    0.4270 C   0  0  1  0  0  0  0  0  0  0  0  0
    0.5710   12.0810    1.8870 C   0  0  0  0  0  0  0  0  0  0  0  0
   -0.7300   13.7300    0.5150 C   0  0  0  0  0  0  0  0  0  0  0  0
   -0.7000   14.7890   -0.6030 C   0  0  0  0  0  0  0  0  0  0  0  0
    0.7200   15.3200   -0.8190 C   0  0  2  0  0  0  0  0  0  0  0  0
    1.1730   16.0270    0.5040 C   0  0  0  0  0  0  0  0  0  0  0  0
   -1.0694   18.9181   -2.7651 H   0  0  0  0  0  0  0  0  0  0  0  0
    0.4988   18.8500   -3.6386 H   0  0  0  0  0  0  0  0  0  0  0  0
   -0.5920   17.4228   -3.6386 H   0  0  0  0  0  0  0  0  0  0  0  0
   -0.2811   17.7861   -0.9640 H   0  0  0  0  0  0  0  0  0  0  0  0
    2.5559   18.0021   -1.3324 H   0  0  0  0  0  0  0  0  0  0  0  0
    1.7273   19.4444   -2.0917 H   0  0  0  0  0  0  0  0  0  0  0  0
    1.4612   18.4962    0.7874 H   0  0  0  0  0  0  0  0  0  0  0  0
    2.3266   19.9690    0.1807 H   0  0  0  0  0  0  0  0  0  0  0  0
    0.5303   20.7152   -0.7361 H   0  0  0  0  0  0  0  0  0  0  0  0
   -1.2851   17.8668    1.8632 H   0  0  0  0  0  0  0  0  0  0  0  0
   -2.2097   17.6367    0.3404 H   0  0  0  0  0  0  0  0  0  0  0  0
   -0.4218   17.4637    0.3404 H   0  0  0  0  0  0  0  0  0  0  0  0
   -2.9289   20.5113    0.9468 H   0  0  0  0  0  0  0  0  0  0  0  0
   -2.1059   21.0729   -0.5479 H   0  0  0  0  0  0  0  0  0  0  0  0
   -3.0052   19.5179   -0.5479 H   0  0  0  0  0  0  0  0  0  0  0  0
    0.2749   16.0344   -2.8348 H   0  0  0  0  0  0  0  0  0  0  0  0
    2.6275   16.1850   -3.3563 H   0  0  0  0  0  0  0  0  0  0  0  0
    2.9807   17.0794   -1.8623 H   0  0  0  0  0  0  0  0  0  0  0  0
    3.5521   14.3167   -2.3185 H   0  0  0  0  0  0  0  0  0  0  0  0
    3.5577   15.0764   -0.7292 H   0  0  0  0  0  0  0  0  0  0  0  0
    0.6274   12.5361   -2.3900 H   0  0  0  0  0  0  0  0  0  0  0  0
    0.5837   14.1431   -3.1914 H   0  0  0  0  0  0  0  0  0  0  0  0
    2.1002   13.1804   -3.1914 H   0  0  0  0  0  0  0  0  0  0  0  0
    2.1853   13.6861    0.7013 H   0  0  0  0  0  0  0  0  0  0  0  0
    3.5177   12.2837   -1.0011 H   0  0  0  0  0  0  0  0  0  0  0  0
    3.0504   11.5960    0.6412 H   0  0  0  0  0  0  0  0  0  0  0  0
    2.7954    9.9722   -1.4187 H   0  0  0  0  0  0  0  0  0  0  0  0
   -0.7307   11.9331   -1.2864 H   0  0  0  0  0  0  0  0  0  0  0  0
   -0.8124   10.0498    1.1508 H   0  0  0  0  0  0  0  0  0  0  0  0
   -2.1008   11.2270    0.6347 H   0  0  0  0  0  0  0  0  0  0  0  0
   -2.6587    8.8969    0.0188 H   0  0  0  0  0  0  0  0  0  0  0  0
   -2.4634    9.9802   -1.4145 H   0  0  0  0  0  0  0  0  0  0  0  0
   -1.3931    7.8838   -1.8825 H   0  0  0  0  0  0  0  0  0  0  0  0
   -0.8450    7.9510    0.7090 H   0  0  0  0  0  0  0  0  0  0  0  0
   -1.1071   10.6071   -3.0331 H   0  0  0  0  0  0  0  0  0  0  0  0
    0.4687   10.3113   -3.8430 H   0  0  0  0  0  0  0  0  0  0  0  0
   -0.7947    9.0344   -3.8430 H   0  0  0  0  0  0  0  0  0  0  0  0
    1.7509    7.7999   -1.4374 H   0  0  0  0  0  0  0  0  0  0  0  0
    0.8333    7.4404   -2.9392 H   0  0  0  0  0  0  0  0  0  0  0  0
    2.0878    8.7261   -2.9392 H   0  0  0  0  0  0  0  0  0  0  0  0
    0.2103   12.8426    2.5940 H   0  0  0  0  0  0  0  0  0  0  0  0
    0.0222   11.1414    2.0486 H   0  0  0  0  0  0  0  0  0  0  0  0
    1.6456   11.9104    2.0486 H   0  0  0  0  0  0  0  0  0  0  0  0
   -1.7264   13.2641    0.5056 H   0  0  0  0  0  0  0  0  0  0  0  0
   -0.4863   14.2777    1.4373 H   0  0  0  0  0  0  0  0  0  0  0  0
   -1.0603   14.3351   -1.5380 H   0  0  0  0  0  0  0  0  0  0  0  0
   -1.3466   15.6285   -0.3076 H   0  0  0  0  0  0  0  0  0  0  0  0
    0.8066   15.4552    1.3693 H   0  0  0  0  0  0  0  0  0  0  0  0
    2.2714   16.0765    0.5357 H   0  0  0  0  0  0  0  0  0  0  0  0
    0.7590   17.0456    0.5357 H   0  0  0  0  0  0  0  0  0  0  0  0
  1  2  1  0
  2  3  1  0
  3  4  1  0
  4  5  1  0
  5  6  1  0
  6  7  1  0
  7  8  1  0
  7  9  1  0
  2 10  1  0
 10 11  1  0
 11 12  1  0
 12 13  1  0
 13 14  1  6
 13 15  1  0
 15 16  1  0
 16 17  1  0
 17 18  2  0
 18 19  1  0
 19 20  1  0
 20 21  1  0
 21 22  1  0
 22 23  1  0
 22 24  1  0
 24 25  1  0
 24 26  1  0
 19 27  1  0
 27 28  1  1
 27 29  1  0
 29 30  1  0
 30 31  1  0
 31 32  1  1
  7  5  1  0
 31 10  1  0
 31 13  1  0
 27 15  1  0
 24 18  1  0
  1 33  1  0
  1 34  1  0
  1 35  1  0
  2 36  1  1
  3 37  1  0
  3 38  1  0
  4 39  1  0
  4 40  1  0
  5 41  1  6
  8 42  1  0
  8 43  1  0
  8 44  1  0
  9 45  1  0
  9 46  1  0
  9 47  1  0
 10 48  1  6
 11 49  1  0
 11 50  1  0
 12 51  1  0
 12 52  1  0
 14 53  1  0
 14 54  1  0
 14 55  1  0
 15 56  1  1
 16 57  1  0
 16 58  1  0
 17 59  1  0
 19 60  1  6
 20 61  1  0
 20 62  1  0
 21 63  1  0
 21 64  1  0
 22 65  1  6
 23 66  1  0
 25 67  1  0
 25 68  1  0
 25 69  1  0
 26 70  1  0
 26 71  1  0
 26 72  1  0
 28 73  1  0
 28 74  1  0
 28 75  1  0
 29 76  1  0
 29 77  1  0
 30 78  1  0
 30 79  1  0
 32 80  1  0
 32 81  1  0
 32 82  1  0
M  END
>  <meeko>  (16) 
{"is_sidechain": [false], "intermolecular_energy": 2.731, "internal_energy": -0.839}

$$$$
EPH_relaxed_0001_pdb2pqr_Repair_203_r2_0001_out
     RDKit          3D

 82 86  0  0  0  0  0  0  0  0999 V2000
   -1.9170    7.8410   -1.9490 C   0  0  0  0  0  0  0  0  0  0  0  0
   -2.1450    8.5780   -0.6270 C   0  0  2  0  0  0  0  0  0  0  0  0
   -3.6370    8.6360   -0.2430 C   0  0  0  0  0  0  0  0  0  0  0  0
   -4.5720    8.0850   -1.3240 C   0  0  0  0  0  0  0  0  0  0  0  0
   -5.6900    7.2810   -0.7330 C   0  0  2  0  0  0  0  0  0  0  0  0
   -6.1480    6.1980   -1.5520 O   0  0  0  0  0  0  0  0  0  0  0  0
   -7.0940    7.2510   -1.3080 C   0  0  0  0  0  0  0  0  0  0  0  0
   -7.4540    8.0400   -2.5280 C   0  0  0  0  0  0  0  0  0  0  0  0
   -8.2250    6.8500   -0.4140 C   0  0  0  0  0  0  0  0  0  0  0  0
   -1.5750    9.9890   -0.7140 C   0  0  1  0  0  0  0  0  0  0  0  0
   -1.0270   10.4970    0.6470 C   0  0  0  0  0  0  0  0  0  0  0  0
    0.2060   11.3810    0.3300 C   0  0  0  0  0  0  0  0  0  0  0  0
    0.1310   11.6240   -1.1960 C   0  0  1  0  0  0  0  0  0  0  0  0
   -0.9010   12.7820   -1.3670 C   0  0  0  0  0  0  0  0  0  0  0  0
    1.4830   11.9450   -1.9120 C   0  0  2  0  0  0  0  0  0  0  0  0
    2.1760   13.2380   -1.4490 C   0  0  0  0  0  0  0  0  0  0  0  0
    1.8050   14.4680   -2.2090 C   0  0  0  0  0  0  0  0  0  0  0  0
    1.1730   14.4920   -3.3980 C   0  0  0  0  0  0  0  0  0  0  0  0
    0.8520   13.1920   -4.1460 C   0  0  1  0  0  0  0  0  0  0  0  0
    1.2540   13.3400   -5.6370 C   0  0  0  0  0  0  0  0  0  0  0  0
    0.6210   14.5620   -6.2940 C   0  0  0  0  0  0  0  0  0  0  0  0
    1.0100   15.8410   -5.5570 C   0  0  2  0  0  0  0  0  0  0  0  0
    2.4150   16.0600   -5.7240 O   0  0  0  0  0  0  0  0  0  0  0  0
    0.6630   15.8050   -4.0420 C   0  0  0  0  0  0  0  0  0  0  0  0
   -0.8730   15.8710   -3.8590 C   0  0  0  0  0  0  0  0  0  0  0  0
    1.2350   17.0930   -3.3910 C   0  0  0  0  0  0  0  0  0  0  0  0
    1.4170   11.8580   -3.4910 C   0  0  1  0  0  0  0  0  0  0  0  0
    2.8730   11.5980   -3.9840 C   0  0  0  0  0  0  0  0  0  0  0  0
    0.5560   10.6370   -3.9870 C   0  0  0  0  0  0  0  0  0  0  0  0
   -0.7040   10.2960   -3.1680 C   0  0  0  0  0  0  0  0  0  0  0  0
   -0.3800   10.2160   -1.6730 C   0  0  2  0  0  0  0  0  0  0  0  0
    0.6400    9.0440   -1.4670 C   0  0  0  0  0  0  0  0  0  0  0  0
   -1.5977    6.8087   -1.7430 H   0  0  0  0  0  0  0  0  0  0  0  0
   -2.8528    7.8269   -2.5270 H   0  0  0  0  0  0  0  0  0  0  0  0
   -1.1367    8.3577   -2.5270 H   0  0  0  0  0  0  0  0  0  0  0  0
   -1.6237    8.0134    0.1601 H   0  0  0  0  0  0  0  0  0  0  0  0
   -3.7826    8.0478    0.6751 H   0  0  0  0  0  0  0  0  0  0  0  0
   -3.8931    9.6970   -0.1062 H   0  0  0  0  0  0  0  0  0  0  0  0
   -4.9984    8.9268   -1.8893 H   0  0  0  0  0  0  0  0  0  0  0  0
   -3.9856    7.4257   -1.9808 H   0  0  0  0  0  0  0  0  0  0  0  0
   -5.3127    7.4618    0.2843 H   0  0  0  0  0  0  0  0  0  0  0  0
   -7.8931    9.0023   -2.2260 H   0  0  0  0  0  0  0  0  0  0  0  0
   -6.5496    8.2216   -3.1273 H   0  0  0  0  0  0  0  0  0  0  0  0
   -8.1839    7.4759   -3.1273 H   0  0  0  0  0  0  0  0  0  0  0  0
   -7.9182    6.9588    0.6367 H   0  0  0  0  0  0  0  0  0  0  0  0
   -9.0943    7.4947   -0.6108 H   0  0  0  0  0  0  0  0  0  0  0  0
   -8.4940    5.8017   -0.6108 H   0  0  0  0  0  0  0  0  0  0  0  0
   -2.4619   10.5231   -1.0857 H   0  0  0  0  0  0  0  0  0  0  0  0
   -1.7942   11.0893    1.1671 H   0  0  0  0  0  0  0  0  0  0  0  0
   -0.7528    9.6563    1.3013 H   0  0  0  0  0  0  0  0  0  0  0  0
    0.1520   12.3333    0.8778 H   0  0  0  0  0  0  0  0  0  0  0  0
    1.1500   10.9027    0.6300 H   0  0  0  0  0  0  0  0  0  0  0  0
   -1.2191   13.1389   -0.3763 H   0  0  0  0  0  0  0  0  0  0  0  0
   -0.4352   13.6092   -1.9226 H   0  0  0  0  0  0  0  0  0  0  0  0
   -1.7762   12.4141   -1.9226 H   0  0  0  0  0  0  0  0  0  0  0  0
    2.1298   11.1222   -1.5736 H   0  0  0  0  0  0  0  0  0  0  0  0
    1.9193   13.4013   -0.3919 H   0  0  0  0  0  0  0  0  0  0  0  0
    3.2514   13.0858   -1.6230 H   0  0  0  0  0  0  0  0  0  0  0  0
    2.0702   15.4365   -1.7600 H   0  0  0  0  0  0  0  0  0  0  0  0
   -0.2364   13.0547   -4.0648 H   0  0  0  0  0  0  0  0  0  0  0  0
    2.3483   13.4329   -5.6998 H   0  0  0  0  0  0  0  0  0  0  0  0
    0.8925   12.4487   -6.1707 H   0  0  0  0  0  0  0  0  0  0  0  0
    0.9649   14.6287   -7.3367 H   0  0  0  0  0  0  0  0  0  0  0  0
   -0.4730   14.4538   -6.2558 H   0  0  0  0  0  0  0  0  0  0  0  0
    0.4249   16.6641   -5.9930 H   0  0  0  0  0  0  0  0  0  0  0  0
    2.7890   16.2500   -4.8470 H   0  0  0  0  0  0  0  0  0  0  0  0
   -1.1143   15.8814   -2.7858 H   0  0  0  0  0  0  0  0  0  0  0  0
   -1.2594   16.7866   -4.3306 H   0  0  0  0  0  0  0  0  0  0  0  0
   -1.3366   14.9919   -4.3306 H   0  0  0  0  0  0  0  0  0  0  0  0
    1.1936   16.9997   -2.2957 H   0  0  0  0  0  0  0  0  0  0  0  0
    2.2792   17.2314   -3.7080 H   0  0  0  0  0  0  0  0  0  0  0  0
    0.6375   17.9605   -3.7080 H   0  0  0  0  0  0  0  0  0  0  0  0
    3.5383   11.4792   -3.1161 H   0  0  0  0  0  0  0  0  0  0  0  0
    2.8961   10.6815   -4.5919 H   0  0  0  0  0  0  0  0  0  0  0  0
    3.2119   12.4498   -4.5919 H   0  0  0  0  0  0  0  0  0  0  0  0
    0.2350   10.8528   -5.0168 H   0  0  0  0  0  0  0  0  0  0  0  0
    1.2127    9.7608   -3.8824 H   0  0  0  0  0  0  0  0  0  0  0  0
   -1.4615   11.0768   -3.3309 H   0  0  0  0  0  0  0  0  0  0  0  0
   -1.0831    9.3175   -3.4980 H   0  0  0  0  0  0  0  0  0  0  0  0
    0.7891    8.8726   -0.3907 H   0  0  0  0  0  0  0  0  0  0  0  0
    0.2459    8.1288   -1.9329 H   0  0  0  0  0  0  0  0  0  0  0  0
    1.6009    9.3080   -1.9329 H   0  0  0  0  0  0  0  0  0  0  0  0
  1  2  1  0
  2  3  1  0
  3  4  1  0
  4  5  1  0
  5  6  1  0
  6  7  1  0
  7  8  1  0
  7  9  1  0
  2 10  1  0
 10 11  1  0
 11 12  1  0
 12 13  1  0
 13 14  1  1
 13 15  1  0
 15 16  1  0
 16 17  1  0
 17 18  2  0
 18 19  1  0
 19 20  1  0
 20 21  1  0
 21 22  1  0
 22 23  1  0
 22 24  1  0
 24 25  1  0
 24 26  1  0
 19 27  1  0
 27 28  1  6
 27 29  1  0
 29 30  1  0
 30 31  1  0
 31 32  1  6
  7  5  1  0
 31 10  1  0
 31 13  1  0
 27 15  1  0
 24 18  1  0
  1 33  1  0
  1 34  1  0
  1 35  1  0
  2 36  1  1
  3 37  1  0
  3 38  1  0
  4 39  1  0
  4 40  1  0
  5 41  1  1
  8 42  1  0
  8 43  1  0
  8 44  1  0
  9 45  1  0
  9 46  1  0
  9 47  1  0
 10 48  1  6
 11 49  1  0
 11 50  1  0
 12 51  1  0
 12 52  1  0
 14 53  1  0
 14 54  1  0
 14 55  1  0
 15 56  1  1
 16 57  1  0
 16 58  1  0
 17 59  1  0
 19 60  1  6
 20 61  1  0
 20 62  1  0
 21 63  1  0
 21 64  1  0
 22 65  1  6
 23 66  1  0
 25 67  1  0
 25 68  1  0
 25 69  1  0
 26 70  1  0
 26 71  1  0
 26 72  1  0
 28 73  1  0
 28 74  1  0
 28 75  1  0
 29 76  1  0
 29 77  1  0
 30 78  1  0
 30 79  1  0
 32 80  1  0
 32 81  1  0
 32 82  1  0
M  END
>  <meeko>  (17) 
{"is_sidechain": [false], "intermolecular_energy": 2.731, "internal_energy": -0.839}

$$$$
EPH_relaxed_0001_pdb2pqr_Repair_203_r2_0001_out
     RDKit          3D

 82 86  0  0  0  0  0  0  0  0999 V2000
    1.2370    9.5590   -2.1160 C   0  0  0  0  0  0  0  0  0  0  0  0
    0.3810   10.2910   -3.1520 C   0  0  2  0  0  0  0  0  0  0  0  0
    1.1470   10.5400   -4.4670 C   0  0  0  0  0  0  0  0  0  0  0  0
    1.8100   11.9180   -4.5410 C   0  0  0  0  0  0  0  0  0  0  0  0
    1.4510   12.6390   -5.8050 C   0  0  2  0  0  0  0  0  0  0  0  0
    2.3750   13.6640   -6.1930 O   0  0  0  0  0  0  0  0  0  0  0  0
    1.0510   14.1020   -5.8500 C   0  0  0  0  0  0  0  0  0  0  0  0
    0.9880   14.9320   -4.6060 C   0  0  0  0  0  0  0  0  0  0  0  0
    0.2550   14.5910   -7.0200 C   0  0  0  0  0  0  0  0  0  0  0  0
   -0.1130   11.6140   -2.5780 C   0  0  1  0  0  0  0  0  0  0  0  0
   -1.3430   11.4390   -1.6480 C   0  0  0  0  0  0  0  0  0  0  0  0
   -1.2070   12.4970   -0.5230 C   0  0  0  0  0  0  0  0  0  0  0  0
   -0.0960   13.4530   -1.0180 C   0  0  1  0  0  0  0  0  0  0  0  0
   -0.8130   14.4190   -2.0120 C   0  0  0  0  0  0  0  0  0  0  0  0
    0.6850   14.2360    0.0870 C   0  0  2  0  0  0  0  0  0  0  0  0
   -0.1690   15.1990    0.9310 C   0  0  0  0  0  0  0  0  0  0  0  0
   -0.2640   16.5930    0.4060 C   0  0  0  0  0  0  0  0  0  0  0  0
    0.5340   17.1310   -0.5350 C   0  0  0  0  0  0  0  0  0  0  0  0
    1.7220   16.3450   -1.1030 C   0  0  1  0  0  0  0  0  0  0  0  0
    2.9780   17.2560   -1.1350 C   0  0  0  0  0  0  0  0  0  0  0  0
    2.7330   18.5630   -1.8820 C   0  0  0  0  0  0  0  0  0  0  0  0
    1.5820   19.3440   -1.2520 C   0  0  2  0  0  0  0  0  0  0  0  0
    1.9770   19.7730    0.0550 O   0  0  0  0  0  0  0  0  0  0  0  0
    0.2650   18.5230   -1.1570 C   0  0  0  0  0  0  0  0  0  0  0  0
   -0.3230   18.3170   -2.5750 C   0  0  0  0  0  0  0  0  0  0  0  0
   -0.7730   19.3750   -0.3760 C   0  0  0  0  0  0  0  0  0  0  0  0
    2.0080   14.9350   -0.4270 C   0  0  1  0  0  0  0  0  0  0  0  0
    2.9270   15.1200    0.8190 C   0  0  0  0  0  0  0  0  0  0  0  0
    2.8080   14.0320   -1.4390 C   0  0  0  0  0  0  0  0  0  0  0  0
    1.9770   13.1910   -2.4260 C   0  0  0  0  0  0  0  0  0  0  0  0
    0.8750   12.4180   -1.6960 C   0  0  2  0  0  0  0  0  0  0  0  0
    1.5660   11.4210   -0.7040 C   0  0  0  0  0  0  0  0  0  0  0  0
    0.9085    9.8399   -1.1045 H   0  0  0  0  0  0  0  0  0  0  0  0
    1.1252    8.4729   -2.2494 H   0  0  0  0  0  0  0  0  0  0  0  0
    2.2926    9.8381   -2.2494 H   0  0  0  0  0  0  0  0  0  0  0  0
   -0.4775    9.6448   -3.3875 H   0  0  0  0  0  0  0  0  0  0  0  0
    1.9291    9.7726   -4.5641 H   0  0  0  0  0  0  0  0  0  0  0  0
    0.4101   10.4934   -5.2823 H   0  0  0  0  0  0  0  0  0  0  0  0
    1.4792   12.5193   -3.6814 H   0  0  0  0  0  0  0  0  0  0  0  0
    2.9006   11.7750   -4.5258 H   0  0  0  0  0  0  0  0  0  0  0  0
    0.9817   11.7328   -6.2157 H   0  0  0  0  0  0  0  0  0  0  0  0
    1.0378   14.2759   -3.7245 H   0  0  0  0  0  0  0  0  0  0  0  0
    1.8355   15.6330   -4.5896 H   0  0  0  0  0  0  0  0  0  0  0  0
    0.0444   15.4971   -4.5896 H   0  0  0  0  0  0  0  0  0  0  0  0
   -0.6305   15.1350   -6.6594 H   0  0  0  0  0  0  0  0  0  0  0  0
    0.8755   15.2639   -7.6301 H   0  0  0  0  0  0  0  0  0  0  0  0
   -0.0648   13.7334   -7.6301 H   0  0  0  0  0  0  0  0  0  0  0  0
   -0.3126   12.1588   -3.5125 H   0  0  0  0  0  0  0  0  0  0  0  0
   -2.2720   11.6045   -2.2134 H   0  0  0  0  0  0  0  0  0  0  0  0
   -1.3815   10.4218   -1.2311 H   0  0  0  0  0  0  0  0  0  0  0  0
   -2.1534   13.0403   -0.3845 H   0  0  0  0  0  0  0  0  0  0  0  0
   -0.9640   12.0431    0.4491 H   0  0  0  0  0  0  0  0  0  0  0  0
   -1.3752   15.1764   -1.4461 H   0  0  0  0  0  0  0  0  0  0  0  0
   -0.0634   14.9161   -2.6453 H   0  0  0  0  0  0  0  0  0  0  0  0
   -1.5058   13.8455   -2.6453 H   0  0  0  0  0  0  0  0  0  0  0  0
    0.9943   13.4329    0.7721 H   0  0  0  0  0  0  0  0  0  0  0  0
   -1.1875   14.7877    0.9898 H   0  0  0  0  0  0  0  0  0  0  0  0
    0.3323   15.2747    1.9072 H   0  0  0  0  0  0  0  0  0  0  0  0
   -1.0533   17.2353    0.8236 H   0  0  0  0  0  0  0  0  0  0  0  0
    1.4383   16.0639   -2.1279 H   0  0  0  0  0  0  0  0  0  0  0  0
    3.2702   17.4903   -0.1007 H   0  0  0  0  0  0  0  0  0  0  0  0
    3.7724   16.7113   -1.6663 H   0  0  0  0  0  0  0  0  0  0  0  0
    3.6461   19.1753   -1.8453 H   0  0  0  0  0  0  0  0  0  0  0  0
    2.4692   18.3279   -2.9237 H   0  0  0  0  0  0  0  0  0  0  0  0
    1.3697   20.2036   -1.9047 H   0  0  0  0  0  0  0  0  0  0  0  0
    1.7360   19.0690    0.6810 H   0  0  0  0  0  0  0  0  0  0  0  0
   -1.3583   17.9543   -2.4935 H   0  0  0  0  0  0  0  0  0  0  0  0
   -0.3111   19.2728   -3.1193 H   0  0  0  0  0  0  0  0  0  0  0  0
    0.2828   17.5776   -3.1193 H   0  0  0  0  0  0  0  0  0  0  0  0
   -0.6150   19.2453    0.7048 H   0  0  0  0  0  0  0  0  0  0  0  0
   -0.6497   20.4357   -0.6399 H   0  0  0  0  0  0  0  0  0  0  0  0
   -1.7893   19.0473   -0.6399 H   0  0  0  0  0  0  0  0  0  0  0  0
    2.3307   15.0000    1.7355 H   0  0  0  0  0  0  0  0  0  0  0  0
    3.7266   14.3648    0.8003 H   0  0  0  0  0  0  0  0  0  0  0  0
    3.3721   16.1258    0.8003 H   0  0  0  0  0  0  0  0  0  0  0  0
    3.4595   14.6919   -2.0306 H   0  0  0  0  0  0  0  0  0  0  0  0
    3.3394   13.2998   -0.8134 H   0  0  0  0  0  0  0  0  0  0  0  0
    1.5163   13.8590   -3.1686 H   0  0  0  0  0  0  0  0  0  0  0  0
    2.6442   12.4685   -2.9189 H   0  0  0  0  0  0  0  0  0  0  0  0
    1.3537   11.7273    0.3309 H   0  0  0  0  0  0  0  0  0  0  0  0
    1.1765   10.4063   -0.8733 H   0  0  0  0  0  0  0  0  0  0  0  0
    2.6529   11.4295   -0.8733 H   0  0  0  0  0  0  0  0  0  0  0  0
  1  2  1  0
  2  3  1  0
  3  4  1  0
  4  5  1  0
  5  6  1  0
  6  7  1  0
  7  8  1  0
  7  9  1  0
  2 10  1  0
 10 11  1  0
 11 12  1  0
 12 13  1  0
 13 14  1  6
 13 15  1  0
 15 16  1  0
 16 17  1  0
 17 18  2  0
 18 19  1  0
 19 20  1  0
 20 21  1  0
 21 22  1  0
 22 23  1  0
 22 24  1  0
 24 25  1  0
 24 26  1  0
 19 27  1  0
 27 28  1  1
 27 29  1  0
 29 30  1  0
 30 31  1  0
 31 32  1  1
  7  5  1  0
 31 10  1  0
 31 13  1  0
 27 15  1  0
 24 18  1  0
  1 33  1  0
  1 34  1  0
  1 35  1  0
  2 36  1  6
  3 37  1  0
  3 38  1  0
  4 39  1  0
  4 40  1  0
  5 41  1  6
  8 42  1  0
  8 43  1  0
  8 44  1  0
  9 45  1  0
  9 46  1  0
  9 47  1  0
 10 48  1  6
 11 49  1  0
 11 50  1  0
 12 51  1  0
 12 52  1  0
 14 53  1  0
 14 54  1  0
 14 55  1  0
 15 56  1  1
 16 57  1  0
 16 58  1  0
 17 59  1  0
 19 60  1  6
 20 61  1  0
 20 62  1  0
 21 63  1  0
 21 64  1  0
 22 65  1  6
 23 66  1  0
 25 67  1  0
 25 68  1  0
 25 69  1  0
 26 70  1  0
 26 71  1  0
 26 72  1  0
 28 73  1  0
 28 74  1  0
 28 75  1  0
 29 76  1  0
 29 77  1  0
 30 78  1  0
 30 79  1  0
 32 80  1  0
 32 81  1  0
 32 82  1  0
M  END
>  <meeko>  (18) 
{"is_sidechain": [false], "intermolecular_energy": 2.731, "internal_energy": -0.839}

$$$$
EPH_relaxed_0001_pdb2pqr_Repair_203_r2_0001_out
     RDKit          3D

 82 86  0  0  0  0  0  0  0  0999 V2000
   -0.3650   10.2870   -3.2630 C   0  0  0  0  0  0  0  0  0  0  0  0
    0.4360   10.0670   -1.9770 C   0  0  2  0  0  0  0  0  0  0  0  0
   -0.2200    9.0200   -1.0550 C   0  0  0  0  0  0  0  0  0  0  0  0
   -1.6210    8.5960   -1.5050 C   0  0  0  0  0  0  0  0  0  0  0  0
   -2.6880    9.4120   -0.8390 C   0  0  2  0  0  0  0  0  0  0  0  0
   -3.0800    8.9420    0.4570 O   0  0  0  0  0  0  0  0  0  0  0  0
   -4.0880    8.8950   -0.5660 C   0  0  0  0  0  0  0  0  0  0  0  0
   -4.4970    7.5080   -0.9530 C   0  0  0  0  0  0  0  0  0  0  0  0
   -5.1910    9.8870   -0.3710 C   0  0  0  0  0  0  0  0  0  0  0  0
    0.5990   11.3870   -1.2330 C   0  0  1  0  0  0  0  0  0  0  0  0
    1.6540   11.3080   -0.0980 C   0  0  0  0  0  0  0  0  0  0  0  0
    2.3570   12.6890   -0.0440 C   0  0  0  0  0  0  0  0  0  0  0  0
    1.4690   13.6130   -0.9100 C   0  0  1  0  0  0  0  0  0  0  0  0
    0.2940   14.0330    0.0270 C   0  0  0  0  0  0  0  0  0  0  0  0
    2.1760   14.8560   -1.5430 C   0  0  2  0  0  0  0  0  0  0  0  0
    2.7450   15.8670   -0.5320 C   0  0  0  0  0  0  0  0  0  0  0  0
    1.8090   16.9580   -0.1260 C   0  0  0  0  0  0  0  0  0  0  0  0
    0.6690   17.2870   -0.7610 C   0  0  0  0  0  0  0  0  0  0  0  0
    0.2680   16.5940   -2.0700 C   0  0  1  0  0  0  0  0  0  0  0  0
   -0.1840   17.6610   -3.1030 C   0  0  0  0  0  0  0  0  0  0  0  0
   -1.2850   18.5680   -2.5620 C   0  0  0  0  0  0  0  0  0  0  0  0
   -0.8280   19.2830   -1.2930 C   0  0  2  0  0  0  0  0  0  0  0  0
    0.2220   20.1940   -1.6300 O   0  0  0  0  0  0  0  0  0  0  0  0
   -0.3400   18.3100   -0.1830 C   0  0  0  0  0  0  0  0  0  0  0  0
   -1.5470   17.5300    0.3930 C   0  0  0  0  0  0  0  0  0  0  0  0
    0.2240   19.1630    0.9850 C   0  0  0  0  0  0  0  0  0  0  0  0
    1.3320   15.5770   -2.6700 C   0  0  1  0  0  0  0  0  0  0  0  0
    2.3510   16.3410   -3.5690 C   0  0  0  0  0  0  0  0  0  0  0  0
    0.5910   14.5540   -3.6100 C   0  0  0  0  0  0  0  0  0  0  0  0
    0.0190   13.2880   -2.9450 C   0  0  0  0  0  0  0  0  0  0  0  0
    1.0680   12.6130   -2.0560 C   0  0  2  0  0  0  0  0  0  0  0  0
    2.2530   12.1600   -2.9740 C   0  0  0  0  0  0  0  0  0  0  0  0
   -1.3969   10.5704   -3.0083 H   0  0  0  0  0  0  0  0  0  0  0  0
    0.1011   11.0904   -3.8524 H   0  0  0  0  0  0  0  0  0  0  0  0
   -0.3747    9.3583   -3.8524 H   0  0  0  0  0  0  0  0  0  0  0  0
    1.4239    9.6789   -2.2660 H   0  0  0  0  0  0  0  0  0  0  0  0
    0.4222    8.1272   -1.0310 H   0  0  0  0  0  0  0  0  0  0  0  0
   -0.3275    9.4860   -0.0644 H   0  0  0  0  0  0  0  0  0  0  0  0
   -1.7002    8.7265   -2.5944 H   0  0  0  0  0  0  0  0  0  0  0  0
   -1.7680    7.5431   -1.2224 H   0  0  0  0  0  0  0  0  0  0  0  0
   -2.3215   10.3293   -1.3230 H   0  0  0  0  0  0  0  0  0  0  0  0
   -4.6730    6.9111   -0.0460 H   0  0  0  0  0  0  0  0  0  0  0  0
   -5.4207    7.5509   -1.5487 H   0  0  0  0  0  0  0  0  0  0  0  0
   -3.6978    7.0428   -1.5487 H   0  0  0  0  0  0  0  0  0  0  0  0
   -5.3608   10.0397    0.7050 H   0  0  0  0  0  0  0  0  0  0  0  0
   -4.9110   10.8431   -0.8373 H   0  0  0  0  0  0  0  0  0  0  0  0
   -6.1121    9.5075   -0.8373 H   0  0  0  0  0  0  0  0  0  0  0  0
   -0.4364   11.5357   -0.8926 H   0  0  0  0  0  0  0  0  0  0  0  0
    1.1618   11.0956    0.8626 H   0  0  0  0  0  0  0  0  0  0  0  0
    2.3790   10.5028   -0.2879 H   0  0  0  0  0  0  0  0  0  0  0  0
    2.4085   13.0583    0.9909 H   0  0  0  0  0  0  0  0  0  0  0  0
    3.3935   12.6441   -0.4097 H   0  0  0  0  0  0  0  0  0  0  0  0
    0.6043   13.9221    1.0765 H   0  0  0  0  0  0  0  0  0  0  0  0
    0.0270   15.0822   -0.1675 H   0  0  0  0  0  0  0  0  0  0  0  0
   -0.5776   13.3908   -0.1675 H   0  0  0  0  0  0  0  0  0  0  0  0
    3.0489   14.4054   -2.0381 H   0  0  0  0  0  0  0  0  0  0  0  0
    3.0368   15.3148    0.3735 H   0  0  0  0  0  0  0  0  0  0  0  0
    3.5880   16.3612   -1.0370 H   0  0  0  0  0  0  0  0  0  0  0  0
    2.0740   17.5420    0.7677 H   0  0  0  0  0  0  0  0  0  0  0  0
   -0.5764   15.9351   -1.8194 H   0  0  0  0  0  0  0  0  0  0  0  0
    0.6836   18.2813   -3.3721 H   0  0  0  0  0  0  0  0  0  0  0  0
   -0.5880   17.1298   -3.9774 H   0  0  0  0  0  0  0  0  0  0  0  0
   -1.5414   19.3176   -3.3251 H   0  0  0  0  0  0  0  0  0  0  0  0
   -2.1622   17.9498   -2.3203 H   0  0  0  0  0  0  0  0  0  0  0  0
   -1.6989   19.8150   -0.8825 H   0  0  0  0  0  0  0  0  0  0  0  0
    0.2230   20.9020   -0.9630 H   0  0  0  0  0  0  0  0  0  0  0  0
   -1.5088   17.5547    1.4921 H   0  0  0  0  0  0  0  0  0  0  0  0
   -2.4824   17.9949    0.0481 H   0  0  0  0  0  0  0  0  0  0  0  0
   -1.5074   16.4862    0.0481 H   0  0  0  0  0  0  0  0  0  0  0  0
   -0.0731   18.7136    1.9440 H   0  0  0  0  0  0  0  0  0  0  0  0
    1.3216   19.1946    0.9193 H   0  0  0  0  0  0  0  0  0  0  0  0
   -0.1768   20.1853    0.9193 H   0  0  0  0  0  0  0  0  0  0  0  0
    3.0692   16.8795   -2.9332 H   0  0  0  0  0  0  0  0  0  0  0  0
    2.8902   15.6227   -4.2041 H   0  0  0  0  0  0  0  0  0  0  0  0
    1.8126   17.0599   -4.2041 H   0  0  0  0  0  0  0  0  0  0  0  0
   -0.2453   15.0860   -4.0871 H   0  0  0  0  0  0  0  0  0  0  0  0
    1.3626   14.1905   -4.3046 H   0  0  0  0  0  0  0  0  0  0  0  0
   -0.8491   13.5660   -2.3293 H   0  0  0  0  0  0  0  0  0  0  0  0
   -0.2785   12.5817   -3.7340 H   0  0  0  0  0  0  0  0  0  0  0  0
    3.0984   11.8368   -2.3488 H   0  0  0  0  0  0  0  0  0  0  0  0
    1.9258   11.3235   -3.6090 H   0  0  0  0  0  0  0  0  0  0  0  0
    2.5672   13.0014   -3.6090 H   0  0  0  0  0  0  0  0  0  0  0  0
  1  2  1  0
  2  3  1  0
  3  4  1  0
  4  5  1  0
  5  6  1  0
  6  7  1  0
  7  8  1  0
  7  9  1  0
  2 10  1  0
 10 11  1  0
 11 12  1  0
 12 13  1  0
 13 14  1  1
 13 15  1  0
 15 16  1  0
 16 17  1  0
 17 18  2  0
 18 19  1  0
 19 20  1  0
 20 21  1  0
 21 22  1  0
 22 23  1  0
 22 24  1  0
 24 25  1  0
 24 26  1  0
 19 27  1  0
 27 28  1  6
 27 29  1  0
 29 30  1  0
 30 31  1  0
 31 32  1  6
  7  5  1  0
 31 10  1  0
 31 13  1  0
 27 15  1  0
 24 18  1  0
  1 33  1  0
  1 34  1  0
  1 35  1  0
  2 36  1  6
  3 37  1  0
  3 38  1  0
  4 39  1  0
  4 40  1  0
  5 41  1  1
  8 42  1  0
  8 43  1  0
  8 44  1  0
  9 45  1  0
  9 46  1  0
  9 47  1  0
 10 48  1  1
 11 49  1  0
 11 50  1  0
 12 51  1  0
 12 52  1  0
 14 53  1  0
 14 54  1  0
 14 55  1  0
 15 56  1  6
 16 57  1  0
 16 58  1  0
 17 59  1  0
 19 60  1  1
 20 61  1  0
 20 62  1  0
 21 63  1  0
 21 64  1  0
 22 65  1  1
 23 66  1  0
 25 67  1  0
 25 68  1  0
 25 69  1  0
 26 70  1  0
 26 71  1  0
 26 72  1  0
 28 73  1  0
 28 74  1  0
 28 75  1  0
 29 76  1  0
 29 77  1  0
 30 78  1  0
 30 79  1  0
 32 80  1  0
 32 81  1  0
 32 82  1  0
M  END
>  <meeko>  (19) 
{"is_sidechain": [false], "intermolecular_energy": 2.731, "internal_energy": -0.839}

$$$$
