EPH_relaxed_0001_pdb2pqr_Repair_38_r2_0001_out
     RDKit          3D

 82 86  0  0  0  0  0  0  0  0999 V2000
   -1.5060    8.6090   -1.9990 C   0  0  0  0  0  0  0  0  0  0  0  0
   -1.8260    9.0200   -0.5590 C   0  0  2  0  0  0  0  0  0  0  0  0
   -3.3320    9.2720   -0.3480 C   0  0  0  0  0  0  0  0  0  0  0  0
   -4.1780    7.9970   -0.3680 C   0  0  0  0  0  0  0  0  0  0  0  0
   -5.5820    8.2700   -0.8180 C   0  0  2  0  0  0  0  0  0  0  0  0
   -6.4880    7.1710   -0.6530 O   0  0  0  0  0  0  0  0  0  0  0  0
   -6.2290    7.5810   -2.0060 C   0  0  0  0  0  0  0  0  0  0  0  0
   -5.4870    6.5660   -2.8180 C   0  0  0  0  0  0  0  0  0  0  0  0
   -7.3960    8.2440   -2.6680 C   0  0  0  0  0  0  0  0  0  0  0  0
   -1.0320   10.2670   -0.1870 C   0  0  1  0  0  0  0  0  0  0  0  0
   -0.0130   10.0080    0.9550 C   0  0  0  0  0  0  0  0  0  0  0  0
    1.2240   10.8950    0.6600 C   0  0  0  0  0  0  0  0  0  0  0  0
    0.7500   11.8720   -0.4410 C   0  0  1  0  0  0  0  0  0  0  0  0
   -0.0270   12.9900    0.3220 C   0  0  0  0  0  0  0  0  0  0  0  0
    1.8640   12.4680   -1.3620 C   0  0  2  0  0  0  0  0  0  0  0  0
    2.9130   13.3340   -0.6410 C   0  0  0  0  0  0  0  0  0  0  0  0
    2.5920   14.7890   -0.5610 C   0  0  0  0  0  0  0  0  0  0  0  0
    1.6550   15.4250   -1.2880 C   0  0  0  0  0  0  0  0  0  0  0  0
    0.8680   14.6850   -2.3780 C   0  0  1  0  0  0  0  0  0  0  0  0
    0.8290   15.5490   -3.6660 C   0  0  0  0  0  0  0  0  0  0  0  0
    0.2940   16.9550   -3.4120 C   0  0  0  0  0  0  0  0  0  0  0  0
    1.1370   17.6790   -2.3650 C   0  0  2  0  0  0  0  0  0  0  0  0
    2.4420   17.9100   -2.9050 O   0  0  0  0  0  0  0  0  0  0  0  0
    1.2550   16.8980   -1.0270 C   0  0  0  0  0  0  0  0  0  0  0  0
   -0.1090   16.9090   -0.2950 C   0  0  0  0  0  0  0  0  0  0  0  0
    2.2450   17.6680   -0.1110 C   0  0  0  0  0  0  0  0  0  0  0  0
    1.3160   13.1870   -2.6610 C   0  0  1  0  0  0  0  0  0  0  0  0
    2.4750   13.1670   -3.7040 C   0  0  0  0  0  0  0  0  0  0  0  0
    0.1160   12.4060   -3.3150 C   0  0  0  0  0  0  0  0  0  0  0  0
   -0.8850   11.7370   -2.3530 C   0  0  0  0  0  0  0  0  0  0  0  0
   -0.1550   10.9090   -1.2920 C   0  0  2  0  0  0  0  0  0  0  0  0
    0.6170    9.7620   -2.0280 C   0  0  0  0  0  0  0  0  0  0  0  0
   -0.8302    7.7411   -1.9910 H   0  0  0  0  0  0  0  0  0  0  0  0
   -2.4376    8.3436   -2.5202 H   0  0  0  0  0  0  0  0  0  0  0  0
   -1.0203    9.4471   -2.5202 H   0  0  0  0  0  0  0  0  0  0  0  0
   -1.5366    8.1850    0.0961 H   0  0  0  0  0  0  0  0  0  0  0  0
   -3.4686    9.7641    0.6263 H   0  0  0  0  0  0  0  0  0  0  0  0
   -3.6736    9.8975   -1.1858 H   0  0  0  0  0  0  0  0  0  0  0  0
   -3.7170    7.2741   -1.0571 H   0  0  0  0  0  0  0  0  0  0  0  0
   -4.2178    7.5958    0.6555 H   0  0  0  0  0  0  0  0  0  0  0  0
   -5.4900    9.3304   -0.5402 H   0  0  0  0  0  0  0  0  0  0  0  0
   -4.9732    5.8631   -2.1457 H   0  0  0  0  0  0  0  0  0  0  0  0
   -6.1963    6.0144   -3.4525 H   0  0  0  0  0  0  0  0  0  0  0  0
   -4.7462    7.0745   -3.4525 H   0  0  0  0  0  0  0  0  0  0  0  0
   -8.0808    8.6330   -1.9001 H   0  0  0  0  0  0  0  0  0  0  0  0
   -7.0388    9.0741   -3.2952 H   0  0  0  0  0  0  0  0  0  0  0  0
   -7.9261    7.5122   -3.2952 H   0  0  0  0  0  0  0  0  0  0  0  0
   -1.8608   10.9413    0.0745 H   0  0  0  0  0  0  0  0  0  0  0  0
   -0.4532   10.2823    1.9250 H   0  0  0  0  0  0  0  0  0  0  0  0
    0.2654    8.9449    1.0025 H   0  0  0  0  0  0  0  0  0  0  0  0
    1.5311   11.4454    1.5616 H   0  0  0  0  0  0  0  0  0  0  0  0
    2.0961   10.3031    0.3452 H   0  0  0  0  0  0  0  0  0  0  0  0
    0.0798   12.8363    1.4060 H   0  0  0  0  0  0  0  0  0  0  0  0
    0.3833   13.9734    0.0489 H   0  0  0  0  0  0  0  0  0  0  0  0
   -1.0917   12.9483    0.0489 H   0  0  0  0  0  0  0  0  0  0  0  0
    2.3989   11.5672   -1.6973 H   0  0  0  0  0  0  0  0  0  0  0  0
    3.0212   12.9529    0.3852 H   0  0  0  0  0  0  0  0  0  0  0  0
    3.8334   13.2578   -1.2386 H   0  0  0  0  0  0  0  0  0  0  0  0
    3.1706   15.3933    0.1531 H   0  0  0  0  0  0  0  0  0  0  0  0
   -0.1509   14.5574   -1.9835 H   0  0  0  0  0  0  0  0  0  0  0  0
    1.8496   15.6276   -4.0688 H   0  0  0  0  0  0  0  0  0  0  0  0
    0.1495   15.0569   -4.3774 H   0  0  0  0  0  0  0  0  0  0  0  0
    0.3200   17.5253   -4.3522 H   0  0  0  0  0  0  0  0  0  0  0  0
   -0.7376   16.8758   -3.0385 H   0  0  0  0  0  0  0  0  0  0  0  0
    0.6306   18.6268   -2.1303 H   0  0  0  0  0  0  0  0  0  0  0  0
    3.0160   18.1970   -2.1740 H   0  0  0  0  0  0  0  0  0  0  0  0
    0.0583   16.9077    0.7922 H   0  0  0  0  0  0  0  0  0  0  0  0
   -0.6700   17.8117   -0.5785 H   0  0  0  0  0  0  0  0  0  0  0  0
   -0.6845   16.0155   -0.5785 H   0  0  0  0  0  0  0  0  0  0  0  0
    1.9959   17.4743    0.9428 H   0  0  0  0  0  0  0  0  0  0  0  0
    3.2716   17.3286   -0.3135 H   0  0  0  0  0  0  0  0  0  0  0  0
    2.1687   18.7465   -0.3135 H   0  0  0  0  0  0  0  0  0  0  0  0
    3.4411   13.1503   -3.1783 H   0  0  0  0  0  0  0  0  0  0  0  0
    2.3852   12.2703   -4.3347 H   0  0  0  0  0  0  0  0  0  0  0  0
    2.4162   14.0663   -4.3347 H   0  0  0  0  0  0  0  0  0  0  0  0
   -0.4456   13.1189   -3.9366 H   0  0  0  0  0  0  0  0  0  0  0  0
    0.5803   11.5769   -3.8691 H   0  0  0  0  0  0  0  0  0  0  0  0
   -1.4807   12.5159   -1.8546 H   0  0  0  0  0  0  0  0  0  0  0  0
   -1.5361   11.0673   -2.9340 H   0  0  0  0  0  0  0  0  0  0  0  0
    1.0698    9.0892   -1.2848 H   0  0  0  0  0  0  0  0  0  0  0  0
   -0.0834    9.1941   -2.6580 H   0  0  0  0  0  0  0  0  0  0  0  0
    1.4068   10.1971   -2.6580 H   0  0  0  0  0  0  0  0  0  0  0  0
  1  2  1  0
  2  3  1  0
  3  4  1  0
  4  5  1  0
  5  6  1  0
  6  7  1  0
  7  8  1  0
  7  9  1  0
  2 10  1  0
 10 11  1  0
 11 12  1  0
 12 13  1  0
 13 14  1  1
 13 15  1  0
 15 16  1  0
 16 17  1  0
 17 18  2  0
 18 19  1  0
 19 20  1  0
 20 21  1  0
 21 22  1  0
 22 23  1  0
 22 24  1  0
 24 25  1  0
 24 26  1  0
 19 27  1  0
 27 28  1  6
 27 29  1  0
 29 30  1  0
 30 31  1  0
 31 32  1  6
  7  5  1  0
 31 10  1  0
 31 13  1  0
 27 15  1  0
 24 18  1  0
  1 33  1  0
  1 34  1  0
  1 35  1  0
  2 36  1  1
  3 37  1  0
  3 38  1  0
  4 39  1  0
  4 40  1  0
  5 41  1  1
  8 42  1  0
  8 43  1  0
  8 44  1  0
  9 45  1  0
  9 46  1  0
  9 47  1  0
 10 48  1  1
 11 49  1  0
 11 50  1  0
 12 51  1  0
 12 52  1  0
 14 53  1  0
 14 54  1  0
 14 55  1  0
 15 56  1  6
 16 57  1  0
 16 58  1  0
 17 59  1  0
 19 60  1  1
 20 61  1  0
 20 62  1  0
 21 63  1  0
 21 64  1  0
 22 65  1  1
 23 66  1  0
 25 67  1  0
 25 68  1  0
 25 69  1  0
 26 70  1  0
 26 71  1  0
 26 72  1  0
 28 73  1  0
 28 74  1  0
 28 75  1  0
 29 76  1  0
 29 77  1  0
 30 78  1  0
 30 79  1  0
 32 80  1  0
 32 81  1  0
 32 82  1  0
M  END
>  <meeko>  (1) 
{"is_sidechain": [false], "intermolecular_energy": 2.731, "internal_energy": -0.839}

$$$$
EPH_relaxed_0001_pdb2pqr_Repair_38_r2_0001_out
     RDKit          3D

 82 86  0  0  0  0  0  0  0  0999 V2000
    4.2380   17.5290   -0.6290 C   0  0  0  0  0  0  0  0  0  0  0  0
    2.8770   18.1130   -0.2390 C   0  0  2  0  0  0  0  0  0  0  0  0
    2.9220   18.8340    1.1230 C   0  0  0  0  0  0  0  0  0  0  0  0
    4.2750   18.7260    1.8310 C   0  0  0  0  0  0  0  0  0  0  0  0
    4.2070   19.2400    3.2370 C   0  0  2  0  0  0  0  0  0  0  0  0
    5.2280   20.1870    3.5790 O   0  0  0  0  0  0  0  0  0  0  0  0
    5.2580   18.9380    4.2900 C   0  0  0  0  0  0  0  0  0  0  0  0
    6.4520   18.0910    3.9800 C   0  0  0  0  0  0  0  0  0  0  0  0
    4.8790   19.0570    5.7330 C   0  0  0  0  0  0  0  0  0  0  0  0
    1.8270   17.0080   -0.2090 C   0  0  1  0  0  0  0  0  0  0  0  0
    0.3970   17.5350   -0.5020 C   0  0  0  0  0  0  0  0  0  0  0  0
   -0.3370   16.4200   -1.2910 C   0  0  0  0  0  0  0  0  0  0  0  0
    0.5670   15.1740   -1.1380 C   0  0  1  0  0  0  0  0  0  0  0  0
    0.2110   14.5900    0.2650 C   0  0  0  0  0  0  0  0  0  0  0  0
    0.4480   14.0920   -2.2600 C   0  0  2  0  0  0  0  0  0  0  0  0
   -0.9360   13.4310   -2.3850 C   0  0  0  0  0  0  0  0  0  0  0  0
   -1.1290   12.1980   -1.5660 C   0  0  0  0  0  0  0  0  0  0  0  0
   -0.1470   11.4830   -0.9850 C   0  0  0  0  0  0  0  0  0  0  0  0
    1.3270   11.8430   -1.2070 C   0  0  1  0  0  0  0  0  0  0  0  0
    2.1320   10.5570   -1.5300 C   0  0  0  0  0  0  0  0  0  0  0  0
    1.9490    9.4720   -0.4730 C   0  0  0  0  0  0  0  0  0  0  0  0
    0.4770    9.1000   -0.3220 C   0  0  2  0  0  0  0  0  0  0  0  0
    0.0350    8.4690   -1.5280 O   0  0  0  0  0  0  0  0  0  0  0  0
   -0.4340   10.3190   -0.0050 C   0  0  0  0  0  0  0  0  0  0  0  0
   -0.1560   10.8160    1.4350 C   0  0  0  0  0  0  0  0  0  0  0  0
   -1.9080    9.8300   -0.0180 C   0  0  0  0  0  0  0  0  0  0  0  0
    1.6050   13.0140   -2.2460 C   0  0  1  0  0  0  0  0  0  0  0  0
    1.6910   12.4330   -3.6910 C   0  0  0  0  0  0  0  0  0  0  0  0
    3.0120   13.6500   -1.9390 C   0  0  0  0  0  0  0  0  0  0  0  0
    3.0470   14.7950   -0.9090 C   0  0  0  0  0  0  0  0  0  0  0  0
    1.9830   15.8500   -1.2260 C   0  0  2  0  0  0  0  0  0  0  0  0
    2.3270   16.4710   -2.6230 C   0  0  0  0  0  0  0  0  0  0  0  0
    4.8065   17.2850    0.2805 H   0  0  0  0  0  0  0  0  0  0  0  0
    4.0883   16.6159   -1.2238 H   0  0  0  0  0  0  0  0  0  0  0  0
    4.7967   18.2666   -1.2238 H   0  0  0  0  0  0  0  0  0  0  0  0
    2.6084   18.8614   -0.9991 H   0  0  0  0  0  0  0  0  0  0  0  0
    2.6992   19.8988    0.9600 H   0  0  0  0  0  0  0  0  0  0  0  0
    2.1798   18.3448    1.7709 H   0  0  0  0  0  0  0  0  0  0  0  0
    4.5832   17.6703    1.8518 H   0  0  0  0  0  0  0  0  0  0  0  0
    5.0020   19.3379    1.2768 H   0  0  0  0  0  0  0  0  0  0  0  0
    3.1107   19.1504    3.2416 H   0  0  0  0  0  0  0  0  0  0  0  0
    6.9198   17.7591    4.9186 H   0  0  0  0  0  0  0  0  0  0  0  0
    6.1373   17.2131    3.3967 H   0  0  0  0  0  0  0  0  0  0  0  0
    7.1766   18.6782    3.3967 H   0  0  0  0  0  0  0  0  0  0  0  0
    5.7401   18.7866    6.3618 H   0  0  0  0  0  0  0  0  0  0  0  0
    4.5782   20.0928    5.9489 H   0  0  0  0  0  0  0  0  0  0  0  0
    4.0401   18.3790    5.9489 H   0  0  0  0  0  0  0  0  0  0  0  0
    1.9831   16.6335    0.8135 H   0  0  0  0  0  0  0  0  0  0  0  0
   -0.1309   17.7425    0.4405 H   0  0  0  0  0  0  0  0  0  0  0  0
    0.4312   18.4707   -1.0793 H   0  0  0  0  0  0  0  0  0  0  0  0
   -1.3327   16.2323   -0.8627 H   0  0  0  0  0  0  0  0  0  0  0  0
   -0.4982   16.6916   -2.3447 H   0  0  0  0  0  0  0  0  0  0  0  0
    0.6126   15.2488    1.0490 H   0  0  0  0  0  0  0  0  0  0  0  0
   -0.8821   14.5223    0.3674 H   0  0  0  0  0  0  0  0  0  0  0  0
    0.6516   13.5873    0.3674 H   0  0  0  0  0  0  0  0  0  0  0  0
    0.5781   14.6869   -3.1761 H   0  0  0  0  0  0  0  0  0  0  0  0
   -1.6933   14.1665   -2.0760 H   0  0  0  0  0  0  0  0  0  0  0  0
   -1.0301   13.1172   -3.4351 H   0  0  0  0  0  0  0  0  0  0  0  0
   -2.1608   11.8435   -1.4252 H   0  0  0  0  0  0  0  0  0  0  0  0
    1.6804   12.2756   -0.2594 H   0  0  0  0  0  0  0  0  0  0  0  0
    1.7949   10.1643   -2.5006 H   0  0  0  0  0  0  0  0  0  0  0  0
    3.1982   10.8266   -1.5510 H   0  0  0  0  0  0  0  0  0  0  0  0
    2.5171    8.5788   -0.7720 H   0  0  0  0  0  0  0  0  0  0  0  0
    2.3146    9.8558    0.4908 H   0  0  0  0  0  0  0  0  0  0  0  0
    0.3957    8.4169    0.5364 H   0  0  0  0  0  0  0  0  0  0  0  0
    0.8250    8.1850   -2.0180 H   0  0  0  0  0  0  0  0  0  0  0  0
   -0.5610   10.0920    2.1574 H   0  0  0  0  0  0  0  0  0  0  0  0
    0.9291   10.9161    1.5853 H   0  0  0  0  0  0  0  0  0  0  0  0
   -0.6386   11.7930    1.5853 H   0  0  0  0  0  0  0  0  0  0  0  0
   -2.2642    9.7118    1.0160 H   0  0  0  0  0  0  0  0  0  0  0  0
   -2.5347   10.5684   -0.5396 H   0  0  0  0  0  0  0  0  0  0  0  0
   -1.9691    8.8635   -0.5396 H   0  0  0  0  0  0  0  0  0  0  0  0
    1.8519   11.3460   -3.6402 H   0  0  0  0  0  0  0  0  0  0  0  0
    0.7524   12.6401   -4.2259 H   0  0  0  0  0  0  0  0  0  0  0  0
    2.5293   12.9031   -4.2259 H   0  0  0  0  0  0  0  0  0  0  0  0
    3.6658   12.8475   -1.5668 H   0  0  0  0  0  0  0  0  0  0  0  0
    3.3349   14.1055   -2.8868 H   0  0  0  0  0  0  0  0  0  0  0  0
    2.8581   14.3832    0.0934 H   0  0  0  0  0  0  0  0  0  0  0  0
    4.0372   15.2724   -0.9487 H   0  0  0  0  0  0  0  0  0  0  0  0
    2.8555   17.4251   -2.4800 H   0  0  0  0  0  0  0  0  0  0  0  0
    2.9691   15.7767   -3.1848 H   0  0  0  0  0  0  0  0  0  0  0  0
    1.3978   16.6471   -3.1848 H   0  0  0  0  0  0  0  0  0  0  0  0
  1  2  1  0
  2  3  1  0
  3  4  1  0
  4  5  1  0
  5  6  1  0
  6  7  1  0
  7  8  1  0
  7  9  1  0
  2 10  1  0
 10 11  1  0
 11 12  1  0
 12 13  1  0
 13 14  1  1
 13 15  1  0
 15 16  1  0
 16 17  1  0
 17 18  2  0
 18 19  1  0
 19 20  1  0
 20 21  1  0
 21 22  1  0
 22 23  1  0
 22 24  1  0
 24 25  1  0
 24 26  1  0
 19 27  1  0
 27 28  1  6
 27 29  1  0
 29 30  1  0
 30 31  1  0
 31 32  1  6
  7  5  1  0
 31 10  1  0
 31 13  1  0
 27 15  1  0
 24 18  1  0
  1 33  1  0
  1 34  1  0
  1 35  1  0
  2 36  1  6
  3 37  1  0
  3 38  1  0
  4 39  1  0
  4 40  1  0
  5 41  1  1
  8 42  1  0
  8 43  1  0
  8 44  1  0
  9 45  1  0
  9 46  1  0
  9 47  1  0
 10 48  1  1
 11 49  1  0
 11 50  1  0
 12 51  1  0
 12 52  1  0
 14 53  1  0
 14 54  1  0
 14 55  1  0
 15 56  1  6
 16 57  1  0
 16 58  1  0
 17 59  1  0
 19 60  1  1
 20 61  1  0
 20 62  1  0
 21 63  1  0
 21 64  1  0
 22 65  1  1
 23 66  1  0
 25 67  1  0
 25 68  1  0
 25 69  1  0
 26 70  1  0
 26 71  1  0
 26 72  1  0
 28 73  1  0
 28 74  1  0
 28 75  1  0
 29 76  1  0
 29 77  1  0
 30 78  1  0
 30 79  1  0
 32 80  1  0
 32 81  1  0
 32 82  1  0
M  END
>  <meeko>  (2) 
{"is_sidechain": [false], "intermolecular_energy": 2.731, "internal_energy": -0.839}

$$$$
EPH_relaxed_0001_pdb2pqr_Repair_38_r2_0001_out
     RDKit          3D

 82 86  0  0  0  0  0  0  0  0999 V2000
    2.3130   18.0700   -2.8200 C   0  0  0  0  0  0  0  0  0  0  0  0
    1.0360   17.6900   -2.0660 C   0  0  2  0  0  0  0  0  0  0  0  0
    1.2180   17.7750   -0.5370 C   0  0  0  0  0  0  0  0  0  0  0  0
    0.8830   19.1500    0.0480 C   0  0  0  0  0  0  0  0  0  0  0  0
   -0.5450   19.2280    0.4960 C   0  0  2  0  0  0  0  0  0  0  0  0
   -1.4250   18.2920   -0.1400 O   0  0  0  0  0  0  0  0  0  0  0  0
   -1.6810   19.6820   -0.4020 C   0  0  0  0  0  0  0  0  0  0  0  0
   -1.4380   20.0880   -1.8220 C   0  0  0  0  0  0  0  0  0  0  0  0
   -2.9350   20.1940    0.2340 C   0  0  0  0  0  0  0  0  0  0  0  0
    0.5970   16.2850   -2.4610 C   0  0  1  0  0  0  0  0  0  0  0  0
    0.6840   16.0410   -3.9910 C   0  0  0  0  0  0  0  0  0  0  0  0
    1.0970   14.5590   -4.1850 C   0  0  0  0  0  0  0  0  0  0  0  0
    0.9110   13.9170   -2.7900 C   0  0  1  0  0  0  0  0  0  0  0  0
   -0.6160   13.6100   -2.6900 C   0  0  0  0  0  0  0  0  0  0  0  0
    1.7750   12.6480   -2.4930 C   0  0  2  0  0  0  0  0  0  0  0  0
    1.4970   11.4410   -3.4050 C   0  0  0  0  0  0  0  0  0  0  0  0
    0.4500   10.4980   -2.9130 C   0  0  0  0  0  0  0  0  0  0  0  0
   -0.0380   10.4550   -1.6590 C   0  0  0  0  0  0  0  0  0  0  0  0
    0.5390   11.3550   -0.5590 C   0  0  1  0  0  0  0  0  0  0  0  0
    0.7830   10.5150    0.7220 C   0  0  0  0  0  0  0  0  0  0  0  0
   -0.4650    9.7650    1.1770 C   0  0  0  0  0  0  0  0  0  0  0  0
   -0.9750    8.8370    0.0760 C   0  0  2  0  0  0  0  0  0  0  0  0
   -0.0150    7.7960   -0.1300 O   0  0  0  0  0  0  0  0  0  0  0  0
   -1.2470    9.5710   -1.2660 C   0  0  0  0  0  0  0  0  0  0  0  0
   -2.4890   10.4840   -1.1180 C   0  0  0  0  0  0  0  0  0  0  0  0
   -1.6190    8.5010   -2.3280 C   0  0  0  0  0  0  0  0  0  0  0  0
    1.8040   12.2270   -0.9680 C   0  0  1  0  0  0  0  0  0  0  0  0
    3.1090   11.4000   -0.7590 C   0  0  0  0  0  0  0  0  0  0  0  0
    1.9050   13.4680   -0.0050 C   0  0  0  0  0  0  0  0  0  0  0  0
    1.1240   14.7310   -0.4150 C   0  0  0  0  0  0  0  0  0  0  0  0
    1.4030   15.0980   -1.8760 C   0  0  2  0  0  0  0  0  0  0  0  0
    2.9280   15.4330   -2.0030 C   0  0  0  0  0  0  0  0  0  0  0  0
    3.1084   18.3067   -2.0980 H   0  0  0  0  0  0  0  0  0  0  0  0
    2.6302   17.2273   -3.4519 H   0  0  0  0  0  0  0  0  0  0  0  0
    2.1179   18.9490   -3.4519 H   0  0  0  0  0  0  0  0  0  0  0  0
    0.2578   18.4148   -2.3470 H   0  0  0  0  0  0  0  0  0  0  0  0
    0.5609   17.0284   -0.0671 H   0  0  0  0  0  0  0  0  0  0  0  0
    2.2819   17.5882   -0.3293 H   0  0  0  0  0  0  0  0  0  0  0  0
    1.5383   19.3397    0.9109 H   0  0  0  0  0  0  0  0  0  0  0  0
    1.0380   19.9042   -0.7376 H   0  0  0  0  0  0  0  0  0  0  0  0
   -0.2350   19.5351    1.5058 H   0  0  0  0  0  0  0  0  0  0  0  0
   -0.8732   21.0317   -1.8420 H   0  0  0  0  0  0  0  0  0  0  0  0
   -0.8605   19.3041   -2.3338 H   0  0  0  0  0  0  0  0  0  0  0  0
   -2.4018   20.2266   -2.3338 H   0  0  0  0  0  0  0  0  0  0  0  0
   -2.8342   20.1528    1.3286 H   0  0  0  0  0  0  0  0  0  0  0  0
   -3.1068   21.2343   -0.0795 H   0  0  0  0  0  0  0  0  0  0  0  0
   -3.7858   19.5713   -0.0795 H   0  0  0  0  0  0  0  0  0  0  0  0
   -0.4229   16.2867   -2.0489 H   0  0  0  0  0  0  0  0  0  0  0  0
   -0.2934   16.2264   -4.4603 H   0  0  0  0  0  0  0  0  0  0  0  0
    1.4137   16.7187   -4.4581 H   0  0  0  0  0  0  0  0  0  0  0  0
    0.4496   14.0693   -4.9274 H   0  0  0  0  0  0  0  0  0  0  0  0
    2.1273   14.4580   -4.5569 H   0  0  0  0  0  0  0  0  0  0  0  0
   -0.9096   13.5510   -1.6315 H   0  0  0  0  0  0  0  0  0  0  0  0
   -1.1843   14.4119   -3.1840 H   0  0  0  0  0  0  0  0  0  0  0  0
   -0.8303   12.6508   -3.1840 H   0  0  0  0  0  0  0  0  0  0  0  0
    2.7894   12.9874   -2.7497 H   0  0  0  0  0  0  0  0  0  0  0  0
    1.1769   11.8226   -4.3858 H   0  0  0  0  0  0  0  0  0  0  0  0
    2.4332   10.8646   -3.4407 H   0  0  0  0  0  0  0  0  0  0  0  0
    0.0424    9.7767   -3.6366 H   0  0  0  0  0  0  0  0  0  0  0  0
   -0.2243   12.1223   -0.3624 H   0  0  0  0  0  0  0  0  0  0  0  0
    1.5789    9.7837    0.5177 H   0  0  0  0  0  0  0  0  0  0  0  0
    1.0672   11.2089    1.5268 H   0  0  0  0  0  0  0  0  0  0  0  0
   -0.2213    9.1672    2.0676 H   0  0  0  0  0  0  0  0  0  0  0  0
   -1.2506   10.4988    1.4100 H   0  0  0  0  0  0  0  0  0  0  0  0
   -1.9397    8.4271    0.4097 H   0  0  0  0  0  0  0  0  0  0  0  0
    0.8530    8.1370    0.1450 H   0  0  0  0  0  0  0  0  0  0  0  0
   -2.7032   10.6415   -0.0506 H   0  0  0  0  0  0  0  0  0  0  0  0
   -2.2910   11.4532   -1.5991 H   0  0  0  0  0  0  0  0  0  0  0  0
   -3.3550   10.0059   -1.5991 H   0  0  0  0  0  0  0  0  0  0  0  0
   -1.9398    7.5784   -1.8222 H   0  0  0  0  0  0  0  0  0  0  0  0
   -2.4387    8.8783   -2.9571 H   0  0  0  0  0  0  0  0  0  0  0  0
   -0.7420    8.2884   -2.9571 H   0  0  0  0  0  0  0  0  0  0  0  0
    3.2985   11.2799    0.3179 H   0  0  0  0  0  0  0  0  0  0  0  0
    2.9939   10.4097   -1.2237 H   0  0  0  0  0  0  0  0  0  0  0  0
    3.9554   11.9269   -1.2237 H   0  0  0  0  0  0  0  0  0  0  0  0
    1.5353   13.1540    0.9823 H   0  0  0  0  0  0  0  0  0  0  0  0
    2.9640   13.7645   -0.0279 H   0  0  0  0  0  0  0  0  0  0  0  0
    0.0471   14.5446   -0.2901 H   0  0  0  0  0  0  0  0  0  0  0  0
    1.4468   15.5660    0.2242 H   0  0  0  0  0  0  0  0  0  0  0  0
    3.3671   15.5295   -0.9990 H   0  0  0  0  0  0  0  0  0  0  0  0
    3.4366   14.6252   -2.5496 H   0  0  0  0  0  0  0  0  0  0  0  0
    3.0512   16.3796   -2.5496 H   0  0  0  0  0  0  0  0  0  0  0  0
  1  2  1  0
  2  3  1  0
  3  4  1  0
  4  5  1  0
  5  6  1  0
  6  7  1  0
  7  8  1  0
  7  9  1  0
  2 10  1  0
 10 11  1  0
 11 12  1  0
 12 13  1  0
 13 14  1  1
 13 15  1  0
 15 16  1  0
 16 17  1  0
 17 18  2  0
 18 19  1  0
 19 20  1  0
 20 21  1  0
 21 22  1  0
 22 23  1  0
 22 24  1  0
 24 25  1  0
 24 26  1  0
 19 27  1  0
 27 28  1  6
 27 29  1  0
 29 30  1  0
 30 31  1  0
 31 32  1  1
  7  5  1  0
 31 10  1  0
 31 13  1  0
 27 15  1  0
 24 18  1  0
  1 33  1  0
  1 34  1  0
  1 35  1  0
  2 36  1  6
  3 37  1  0
  3 38  1  0
  4 39  1  0
  4 40  1  0
  5 41  1  1
  8 42  1  0
  8 43  1  0
  8 44  1  0
  9 45  1  0
  9 46  1  0
  9 47  1  0
 10 48  1  1
 11 49  1  0
 11 50  1  0
 12 51  1  0
 12 52  1  0
 14 53  1  0
 14 54  1  0
 14 55  1  0
 15 56  1  6
 16 57  1  0
 16 58  1  0
 17 59  1  0
 19 60  1  1
 20 61  1  0
 20 62  1  0
 21 63  1  0
 21 64  1  0
 22 65  1  1
 23 66  1  0
 25 67  1  0
 25 68  1  0
 25 69  1  0
 26 70  1  0
 26 71  1  0
 26 72  1  0
 28 73  1  0
 28 74  1  0
 28 75  1  0
 29 76  1  0
 29 77  1  0
 30 78  1  0
 30 79  1  0
 32 80  1  0
 32 81  1  0
 32 82  1  0
M  END
>  <meeko>  (3) 
{"is_sidechain": [false], "intermolecular_energy": 2.731, "internal_energy": -0.839}

$$$$
EPH_relaxed_0001_pdb2pqr_Repair_38_r2_0001_out
     RDKit          3D

 82 86  0  0  0  0  0  0  0  0999 V2000
    2.1080   18.0450   -2.5900 C   0  0  0  0  0  0  0  0  0  0  0  0
    0.5880   17.8680   -2.6290 C   0  0  2  0  0  0  0  0  0  0  0  0
   -0.0820   18.3160   -1.3140 C   0  0  0  0  0  0  0  0  0  0  0  0
    0.6970   17.9150   -0.0580 C   0  0  0  0  0  0  0  0  0  0  0  0
    1.2640   19.1100    0.6470 C   0  0  2  0  0  0  0  0  0  0  0  0
    2.1590   19.9030   -0.1430 O   0  0  0  0  0  0  0  0  0  0  0  0
    2.7320   19.2530    1.0030 C   0  0  0  0  0  0  0  0  0  0  0  0
    3.7240   18.1850    0.6650 C   0  0  0  0  0  0  0  0  0  0  0  0
    3.1130   20.1940    2.1030 C   0  0  0  0  0  0  0  0  0  0  0  0
    0.2410   16.4130   -2.9210 C   0  0  1  0  0  0  0  0  0  0  0  0
    0.3270   16.0700   -4.4320 C   0  0  0  0  0  0  0  0  0  0  0  0
    0.8360   14.6090   -4.5300 C   0  0  0  0  0  0  0  0  0  0  0  0
    0.7100   14.0540   -3.0920 C   0  0  1  0  0  0  0  0  0  0  0  0
   -0.7920   13.6530   -2.9480 C   0  0  0  0  0  0  0  0  0  0  0  0
    1.6610   12.8690   -2.7230 C   0  0  2  0  0  0  0  0  0  0  0  0
    1.4550   11.5860   -3.5460 C   0  0  0  0  0  0  0  0  0  0  0  0
    0.4790   10.6110   -2.9750 C   0  0  0  0  0  0  0  0  0  0  0  0
    0.0090   10.6230   -1.7140 C   0  0  0  0  0  0  0  0  0  0  0  0
    0.5360   11.6330   -0.6860 C   0  0  1  0  0  0  0  0  0  0  0  0
    0.8510   10.9010    0.6450 C   0  0  0  0  0  0  0  0  0  0  0  0
   -0.3380   10.1030    1.1690 C   0  0  0  0  0  0  0  0  0  0  0  0
   -0.7960    9.0700    0.1430 C   0  0  2  0  0  0  0  0  0  0  0  0
    0.2290    8.0830   -0.0080 O   0  0  0  0  0  0  0  0  0  0  0  0
   -1.1330    9.6900   -1.2420 C   0  0  0  0  0  0  0  0  0  0  0  0
   -2.4320   10.5260   -1.1360 C   0  0  0  0  0  0  0  0  0  0  0  0
   -1.4440    8.5270   -2.2230 C   0  0  0  0  0  0  0  0  0  0  0  0
    1.7350   12.5570   -1.1730 C   0  0  1  0  0  0  0  0  0  0  0  0
    3.0960   11.8350   -0.9290 C   0  0  0  0  0  0  0  0  0  0  0  0
    1.7630   13.8660   -0.2990 C   0  0  0  0  0  0  0  0  0  0  0  0
    0.8940   15.0430   -0.7820 C   0  0  0  0  0  0  0  0  0  0  0  0
    1.1310   15.3250   -2.2690 C   0  0  2  0  0  0  0  0  0  0  0  0
    2.6280   15.7520   -2.4420 C   0  0  0  0  0  0  0  0  0  0  0  0
    2.4458   18.0843   -1.5439 H   0  0  0  0  0  0  0  0  0  0  0  0
    2.5891   17.1968   -3.0990 H   0  0  0  0  0  0  0  0  0  0  0  0
    2.3813   18.9810   -3.0990 H   0  0  0  0  0  0  0  0  0  0  0  0
    0.2004   18.5107   -3.4332 H   0  0  0  0  0  0  0  0  0  0  0  0
   -0.1771   19.4118   -1.3285 H   0  0  0  0  0  0  0  0  0  0  0  0
   -1.0576   17.8105   -1.2620 H   0  0  0  0  0  0  0  0  0  0  0  0
    0.0197   17.3847    0.6276 H   0  0  0  0  0  0  0  0  0  0  0  0
    1.5328   17.2687   -0.3643 H   0  0  0  0  0  0  0  0  0  0  0  0
    0.3459   19.2232    1.2423 H   0  0  0  0  0  0  0  0  0  0  0  0
    4.1265   17.7516    1.5925 H   0  0  0  0  0  0  0  0  0  0  0  0
    3.2293   17.3979    0.0770 H   0  0  0  0  0  0  0  0  0  0  0  0
    4.5454   18.6203    0.0770 H   0  0  0  0  0  0  0  0  0  0  0  0
    2.9203   19.7181    3.0758 H   0  0  0  0  0  0  0  0  0  0  0  0
    4.1818   20.4406    2.0208 H   0  0  0  0  0  0  0  0  0  0  0  0
    2.5168   21.1148    2.0208 H   0  0  0  0  0  0  0  0  0  0  0  0
   -0.7721   16.3758   -2.4941 H   0  0  0  0  0  0  0  0  0  0  0  0
   -0.6658   16.1574   -4.8975 H   0  0  0  0  0  0  0  0  0  0  0  0
    1.0042   16.7605   -4.9561 H   0  0  0  0  0  0  0  0  0  0  0  0
    0.2144   14.0272   -5.2265 H   0  0  0  0  0  0  0  0  0  0  0  0
    1.8665   14.5512   -4.9104 H   0  0  0  0  0  0  0  0  0  0  0  0
   -1.0523   13.5835   -1.8815 H   0  0  0  0  0  0  0  0  0  0  0  0
   -1.4226   14.4142   -3.4305 H   0  0  0  0  0  0  0  0  0  0  0  0
   -0.9593   12.6787   -3.4305 H   0  0  0  0  0  0  0  0  0  0  0  0
    2.6472   13.2567   -3.0183 H   0  0  0  0  0  0  0  0  0  0  0  0
    1.0994   11.8769   -4.5455 H   0  0  0  0  0  0  0  0  0  0  0  0
    2.4275   11.0720   -3.5563 H   0  0  0  0  0  0  0  0  0  0  0  0
    0.1132    9.8158   -3.6412 H   0  0  0  0  0  0  0  0  0  0  0  0
   -0.2755   12.3590   -0.5297 H   0  0  0  0  0  0  0  0  0  0  0  0
    1.6921   10.2120    0.4780 H   0  0  0  0  0  0  0  0  0  0  0  0
    1.0972   11.6657    1.3965 H   0  0  0  0  0  0  0  0  0  0  0  0
   -0.0447    9.5858    2.0945 H   0  0  0  0  0  0  0  0  0  0  0  0
   -1.1688   10.7973    1.3633 H   0  0  0  0  0  0  0  0  0  0  0  0
   -1.7265    8.6209    0.5204 H   0  0  0  0  0  0  0  0  0  0  0  0
    1.0120    8.3960    0.4780 H   0  0  0  0  0  0  0  0  0  0  0  0
   -2.6799   10.6855   -0.0762 H   0  0  0  0  0  0  0  0  0  0  0  0
   -2.2834   11.4984   -1.6282 H   0  0  0  0  0  0  0  0  0  0  0  0
   -3.2555    9.9879   -1.6282 H   0  0  0  0  0  0  0  0  0  0  0  0
   -1.6867    7.6195   -1.6507 H   0  0  0  0  0  0  0  0  0  0  0  0
   -2.3005    8.8009   -2.8566 H   0  0  0  0  0  0  0  0  0  0  0  0
   -0.5652    8.3368   -2.8566 H   0  0  0  0  0  0  0  0  0  0  0  0
    3.2726   11.7413    0.1527 H   0  0  0  0  0  0  0  0  0  0  0  0
    3.0667   10.8339   -1.3838 H   0  0  0  0  0  0  0  0  0  0  0  0
    3.9085   12.4207   -1.3838 H   0  0  0  0  0  0  0  0  0  0  0  0
    1.4265   13.5974    0.7132 H   0  0  0  0  0  0  0  0  0  0  0  0
    2.7993   14.2299   -0.3592 H   0  0  0  0  0  0  0  0  0  0  0  0
   -0.1664   14.7947   -0.6273 H   0  0  0  0  0  0  0  0  0  0  0  0
    1.1671   15.9400   -0.2068 H   0  0  0  0  0  0  0  0  0  0  0  0
    3.0886   15.8834   -1.4518 H   0  0  0  0  0  0  0  0  0  0  0  0
    3.1697   14.9726   -2.9979 H   0  0  0  0  0  0  0  0  0  0  0  0
    2.6770   16.6999   -2.9979 H   0  0  0  0  0  0  0  0  0  0  0  0
  1  2  1  0
  2  3  1  0
  3  4  1  0
  4  5  1  0
  5  6  1  0
  6  7  1  0
  7  8  1  0
  7  9  1  0
  2 10  1  0
 10 11  1  0
 11 12  1  0
 12 13  1  0
 13 14  1  1
 13 15  1  0
 15 16  1  0
 16 17  1  0
 17 18  2  0
 18 19  1  0
 19 20  1  0
 20 21  1  0
 21 22  1  0
 22 23  1  0
 22 24  1  0
 24 25  1  0
 24 26  1  0
 19 27  1  0
 27 28  1  6
 27 29  1  0
 29 30  1  0
 30 31  1  0
 31 32  1  1
  7  5  1  0
 31 10  1  0
 31 13  1  0
 27 15  1  0
 24 18  1  0
  1 33  1  0
  1 34  1  0
  1 35  1  0
  2 36  1  6
  3 37  1  0
  3 38  1  0
  4 39  1  0
  4 40  1  0
  5 41  1  1
  8 42  1  0
  8 43  1  0
  8 44  1  0
  9 45  1  0
  9 46  1  0
  9 47  1  0
 10 48  1  1
 11 49  1  0
 11 50  1  0
 12 51  1  0
 12 52  1  0
 14 53  1  0
 14 54  1  0
 14 55  1  0
 15 56  1  6
 16 57  1  0
 16 58  1  0
 17 59  1  0
 19 60  1  1
 20 61  1  0
 20 62  1  0
 21 63  1  0
 21 64  1  0
 22 65  1  1
 23 66  1  0
 25 67  1  0
 25 68  1  0
 25 69  1  0
 26 70  1  0
 26 71  1  0
 26 72  1  0
 28 73  1  0
 28 74  1  0
 28 75  1  0
 29 76  1  0
 29 77  1  0
 30 78  1  0
 30 79  1  0
 32 80  1  0
 32 81  1  0
 32 82  1  0
M  END
>  <meeko>  (4) 
{"is_sidechain": [false], "intermolecular_energy": 2.731, "internal_energy": -0.839}

$$$$
EPH_relaxed_0001_pdb2pqr_Repair_38_r2_0001_out
     RDKit          3D

 82 86  0  0  0  0  0  0  0  0999 V2000
    3.8960   17.4770    0.3330 C   0  0  0  0  0  0  0  0  0  0  0  0
    2.8150   17.8550   -0.6830 C   0  0  2  0  0  0  0  0  0  0  0  0
    2.1840   19.2280   -0.3780 C   0  0  0  0  0  0  0  0  0  0  0  0
    1.1530   19.1940    0.7530 C   0  0  0  0  0  0  0  0  0  0  0  0
   -0.0860   19.9600    0.3970 C   0  0  2  0  0  0  0  0  0  0  0  0
   -0.9810   20.1940    1.4920 O   0  0  0  0  0  0  0  0  0  0  0  0
   -1.4790   19.3610    0.4330 C   0  0  0  0  0  0  0  0  0  0  0  0
   -1.7060   17.9370    0.8340 C   0  0  0  0  0  0  0  0  0  0  0  0
   -2.5560   20.0040   -0.3840 C   0  0  0  0  0  0  0  0  0  0  0  0
    1.7330   16.7810   -0.7150 C   0  0  1  0  0  0  0  0  0  0  0  0
    0.4150   17.2800   -1.3640 C   0  0  0  0  0  0  0  0  0  0  0  0
   -0.1940   16.0730   -2.1230 C   0  0  0  0  0  0  0  0  0  0  0  0
    0.6060   14.8500   -1.6180 C   0  0  1  0  0  0  0  0  0  0  0  0
   -0.0480   14.4800   -0.2500 C   0  0  0  0  0  0  0  0  0  0  0  0
    0.6670   13.6190   -2.5800 C   0  0  2  0  0  0  0  0  0  0  0  0
   -0.6900   12.9660   -2.8920 C   0  0  0  0  0  0  0  0  0  0  0  0
   -1.0970   11.8670   -1.9660 C   0  0  0  0  0  0  0  0  0  0  0  0
   -0.2830   11.2300   -1.1040 C   0  0  0  0  0  0  0  0  0  0  0  0
    1.2210   11.5330   -1.0690 C   0  0  1  0  0  0  0  0  0  0  0  0
    2.0170   10.2020   -1.0390 C   0  0  0  0  0  0  0  0  0  0  0  0
    1.5800    9.2850    0.0990 C   0  0  0  0  0  0  0  0  0  0  0  0
    0.0930    8.9590   -0.0040 C   0  0  2  0  0  0  0  0  0  0  0  0
   -0.1260    8.1670   -1.1750 O   0  0  0  0  0  0  0  0  0  0  0  0
   -0.8100   10.2230   -0.0510 C   0  0  0  0  0  0  0  0  0  0  0  0
   -0.8040   10.9190    1.3320 C   0  0  0  0  0  0  0  0  0  0  0  0
   -2.2710    9.7590   -0.2970 C   0  0  0  0  0  0  0  0  0  0  0  0
    1.7510   12.5370   -2.1810 C   0  0  1  0  0  0  0  0  0  0  0  0
    2.0990   11.7530   -3.4830 C   0  0  0  0  0  0  0  0  0  0  0  0
    3.0940   13.1910   -1.6840 C   0  0  0  0  0  0  0  0  0  0  0  0
    2.9720   14.4730   -0.8370 C   0  0  0  0  0  0  0  0  0  0  0  0
    2.0400   15.4860   -1.5080 C   0  0  2  0  0  0  0  0  0  0  0  0
    2.6830   15.8940   -2.8780 C   0  0  0  0  0  0  0  0  0  0  0  0
    3.5052   17.6136    1.3521 H   0  0  0  0  0  0  0  0  0  0  0  0
    4.1833   16.4251    0.1884 H   0  0  0  0  0  0  0  0  0  0  0  0
    4.7762   18.1207    0.1884 H   0  0  0  0  0  0  0  0  0  0  0  0
    3.2989   17.9260   -1.6683 H   0  0  0  0  0  0  0  0  0  0  0  0
    2.9873   19.9241   -0.0948 H   0  0  0  0  0  0  0  0  0  0  0  0
    1.6533   19.5469   -1.2872 H   0  0  0  0  0  0  0  0  0  0  0  0
    0.8797   18.1478    0.9549 H   0  0  0  0  0  0  0  0  0  0  0  0
    1.6025   19.6623    1.6410 H   0  0  0  0  0  0  0  0  0  0  0  0
    0.4559   20.5216   -0.3782 H   0  0  0  0  0  0  0  0  0  0  0  0
   -1.7179   17.8625    1.9314 H   0  0  0  0  0  0  0  0  0  0  0  0
   -2.6704   17.5923    0.4327 H   0  0  0  0  0  0  0  0  0  0  0  0
   -0.8965   17.3096    0.4327 H   0  0  0  0  0  0  0  0  0  0  0  0
   -3.3058   20.4516    0.2849 H   0  0  0  0  0  0  0  0  0  0  0  0
   -2.1164   20.7876   -1.0186 H   0  0  0  0  0  0  0  0  0  0  0  0
   -3.0372   19.2453   -1.0186 H   0  0  0  0  0  0  0  0  0  0  0  0
    1.6641   16.5564    0.3596 H   0  0  0  0  0  0  0  0  0  0  0  0
   -0.2811   17.6296   -0.5873 H   0  0  0  0  0  0  0  0  0  0  0  0
    0.6045   18.1214   -2.0467 H   0  0  0  0  0  0  0  0  0  0  0  0
   -1.2623   15.9634   -1.8847 H   0  0  0  0  0  0  0  0  0  0  0  0
   -0.1296   16.1915   -3.2147 H   0  0  0  0  0  0  0  0  0  0  0  0
    0.5895   14.8407    0.5707 H   0  0  0  0  0  0  0  0  0  0  0  0
   -1.0395   14.9510   -0.1783 H   0  0  0  0  0  0  0  0  0  0  0  0
   -0.1550   13.3876   -0.1783 H   0  0  0  0  0  0  0  0  0  0  0  0
    1.0027   14.0745   -3.5233 H   0  0  0  0  0  0  0  0  0  0  0  0
   -1.4616   13.7489   -2.8502 H   0  0  0  0  0  0  0  0  0  0  0  0
   -0.5844   12.5041   -3.8847 H   0  0  0  0  0  0  0  0  0  0  0  0
   -2.1506   11.5518   -1.9906 H   0  0  0  0  0  0  0  0  0  0  0  0
    1.3974   12.0934   -0.1390 H   0  0  0  0  0  0  0  0  0  0  0  0
    1.8631    9.6774   -1.9935 H   0  0  0  0  0  0  0  0  0  0  0  0
    3.0768   10.4501   -0.8799 H   0  0  0  0  0  0  0  0  0  0  0  0
    2.1577    8.3502    0.0502 H   0  0  0  0  0  0  0  0  0  0  0  0
    1.7613    9.7997    1.0541 H   0  0  0  0  0  0  0  0  0  0  0  0
   -0.1870    8.4078    0.9058 H   0  0  0  0  0  0  0  0  0  0  0  0
    0.7410    7.8610   -1.4900 H   0  0  0  0  0  0  0  0  0  0  0  0
   -0.8106   10.1575    2.1257 H   0  0  0  0  0  0  0  0  0  0  0  0
    0.0995   11.5393    1.4264 H   0  0  0  0  0  0  0  0  0  0  0  0
   -1.6967   11.5547    1.4264 H   0  0  0  0  0  0  0  0  0  0  0  0
   -2.7727    9.5997    0.6689 H   0  0  0  0  0  0  0  0  0  0  0  0
   -2.8096   10.5303   -0.8671 H   0  0  0  0  0  0  0  0  0  0  0  0
   -2.2659    8.8183   -0.8671 H   0  0  0  0  0  0  0  0  0  0  0  0
    2.5322   10.7771   -3.2186 H   0  0  0  0  0  0  0  0  0  0  0  0
    1.1843   11.6000   -4.0745 H   0  0  0  0  0  0  0  0  0  0  0  0
    2.8261   12.3288   -4.0745 H   0  0  0  0  0  0  0  0  0  0  0  0
    3.6247   12.4416   -1.0785 H   0  0  0  0  0  0  0  0  0  0  0  0
    3.6191   13.5004   -2.5997 H   0  0  0  0  0  0  0  0  0  0  0  0
    2.5686   14.2134    0.1529 H   0  0  0  0  0  0  0  0  0  0  0  0
    3.9699   14.9253   -0.7392 H   0  0  0  0  0  0  0  0  0  0  0  0
    3.5988   16.4751   -2.6946 H   0  0  0  0  0  0  0  0  0  0  0  0
    2.9319   14.9883   -3.4504 H   0  0  0  0  0  0  0  0  0  0  0  0
    1.9695   16.5050   -3.4504 H   0  0  0  0  0  0  0  0  0  0  0  0
  1  2  1  0
  2  3  1  0
  3  4  1  0
  4  5  1  0
  5  6  1  0
  6  7  1  0
  7  8  1  0
  7  9  1  0
  2 10  1  0
 10 11  1  0
 11 12  1  0
 12 13  1  0
 13 14  1  1
 13 15  1  0
 15 16  1  0
 16 17  1  0
 17 18  2  0
 18 19  1  0
 19 20  1  0
 20 21  1  0
 21 22  1  0
 22 23  1  0
 22 24  1  0
 24 25  1  0
 24 26  1  0
 19 27  1  0
 27 28  1  6
 27 29  1  0
 29 30  1  0
 30 31  1  0
 31 32  1  6
  7  5  1  0
 31 10  1  0
 31 13  1  0
 27 15  1  0
 24 18  1  0
  1 33  1  0
  1 34  1  0
  1 35  1  0
  2 36  1  6
  3 37  1  0
  3 38  1  0
  4 39  1  0
  4 40  1  0
  5 41  1  6
  8 42  1  0
  8 43  1  0
  8 44  1  0
  9 45  1  0
  9 46  1  0
  9 47  1  0
 10 48  1  1
 11 49  1  0
 11 50  1  0
 12 51  1  0
 12 52  1  0
 14 53  1  0
 14 54  1  0
 14 55  1  0
 15 56  1  6
 16 57  1  0
 16 58  1  0
 17 59  1  0
 19 60  1  1
 20 61  1  0
 20 62  1  0
 21 63  1  0
 21 64  1  0
 22 65  1  1
 23 66  1  0
 25 67  1  0
 25 68  1  0
 25 69  1  0
 26 70  1  0
 26 71  1  0
 26 72  1  0
 28 73  1  0
 28 74  1  0
 28 75  1  0
 29 76  1  0
 29 77  1  0
 30 78  1  0
 30 79  1  0
 32 80  1  0
 32 81  1  0
 32 82  1  0
M  END
>  <meeko>  (5) 
{"is_sidechain": [false], "intermolecular_energy": 2.731, "internal_energy": -0.839}

$$$$
EPH_relaxed_0001_pdb2pqr_Repair_38_r2_0001_out
     RDKit          3D

 82 86  0  0  0  0  0  0  0  0999 V2000
   -0.2440    9.6150   -2.1730 C   0  0  0  0  0  0  0  0  0  0  0  0
   -0.9030   10.0430   -0.8580 C   0  0  2  0  0  0  0  0  0  0  0  0
   -2.4290   10.2080   -1.0010 C   0  0  0  0  0  0  0  0  0  0  0  0
   -3.2310    9.4810    0.0820 C   0  0  0  0  0  0  0  0  0  0  0  0
   -3.7380    8.1550   -0.3990 C   0  0  2  0  0  0  0  0  0  0  0  0
   -3.8270    8.0290   -1.8240 O   0  0  0  0  0  0  0  0  0  0  0  0
   -5.0690    7.9740   -1.1040 C   0  0  0  0  0  0  0  0  0  0  0  0
   -5.9770    9.1350   -1.3680 C   0  0  0  0  0  0  0  0  0  0  0  0
   -5.7030    6.6180   -1.0990 C   0  0  0  0  0  0  0  0  0  0  0  0
   -0.2820   11.3440   -0.3650 C   0  0  1  0  0  0  0  0  0  0  0  0
    0.9400   11.1100    0.5620 C   0  0  0  0  0  0  0  0  0  0  0  0
    1.9420   12.2590    0.2790 C   0  0  0  0  0  0  0  0  0  0  0  0
    1.1340   13.2880   -0.5450 C   0  0  1  0  0  0  0  0  0  0  0  0
    0.3150   14.0930    0.5120 C   0  0  0  0  0  0  0  0  0  0  0  0
    1.9630   14.2320   -1.4750 C   0  0  2  0  0  0  0  0  0  0  0  0
    2.9530   15.1590   -0.7480 C   0  0  0  0  0  0  0  0  0  0  0  0
    2.4070   16.4910   -0.3530 C   0  0  0  0  0  0  0  0  0  0  0  0
    1.2680   17.0390   -0.8170 C   0  0  0  0  0  0  0  0  0  0  0  0
    0.4500   16.3440   -1.9130 C   0  0  1  0  0  0  0  0  0  0  0  0
    0.0530   17.3800   -2.9970 C   0  0  0  0  0  0  0  0  0  0  0  0
   -0.6650   18.5930   -2.4140 C   0  0  0  0  0  0  0  0  0  0  0  0
    0.2040   19.2900   -1.3700 C   0  0  2  0  0  0  0  0  0  0  0  0
    1.3440   19.8580   -2.0240 O   0  0  0  0  0  0  0  0  0  0  0  0
    0.6730   18.3430   -0.2310 C   0  0  0  0  0  0  0  0  0  0  0  0
   -0.5340   17.9670    0.6640 C   0  0  0  0  0  0  0  0  0  0  0  0
    1.6550   19.1340    0.6750 C   0  0  0  0  0  0  0  0  0  0  0  0
    1.0940   15.0290   -2.5310 C   0  0  1  0  0  0  0  0  0  0  0  0
    2.0510   15.4060   -3.7030 C   0  0  0  0  0  0  0  0  0  0  0  0
   -0.0480   14.1430   -3.1560 C   0  0  0  0  0  0  0  0  0  0  0  0
   -0.7480   13.1450   -2.2150 C   0  0  0  0  0  0  0  0  0  0  0  0
    0.2770   12.3150   -1.4350 C   0  0  2  0  0  0  0  0  0  0  0  0
    1.1020   11.4770   -2.4710 C   0  0  0  0  0  0  0  0  0  0  0  0
    0.6603    9.0277   -1.9558 H   0  0  0  0  0  0  0  0  0  0  0  0
   -0.9488    9.0018   -2.7537 H   0  0  0  0  0  0  0  0  0  0  0  0
    0.0296   10.5082   -2.7537 H   0  0  0  0  0  0  0  0  0  0  0  0
   -0.7248    9.2445   -0.1227 H   0  0  0  0  0  0  0  0  0  0  0  0
   -2.6687   11.2803   -0.9496 H   0  0  0  0  0  0  0  0  0  0  0  0
   -2.7117    9.7604   -1.9652 H   0  0  0  0  0  0  0  0  0  0  0  0
   -2.5837    9.3191    0.9565 H   0  0  0  0  0  0  0  0  0  0  0  0
   -4.0983   10.1052    0.3433 H   0  0  0  0  0  0  0  0  0  0  0  0
   -3.2833    7.6427    0.4617 H   0  0  0  0  0  0  0  0  0  0  0  0
   -6.3120    9.5633   -0.4118 H   0  0  0  0  0  0  0  0  0  0  0  0
   -5.4356    9.9006   -1.9431 H   0  0  0  0  0  0  0  0  0  0  0  0
   -6.8505    8.7940   -1.9431 H   0  0  0  0  0  0  0  0  0  0  0  0
   -5.8568    6.2890   -0.0607 H   0  0  0  0  0  0  0  0  0  0  0  0
   -6.6726    6.6647   -1.6163 H   0  0  0  0  0  0  0  0  0  0  0  0
   -5.0454    5.9039   -1.6163 H   0  0  0  0  0  0  0  0  0  0  0  0
   -1.1580   11.7909    0.1278 H   0  0  0  0  0  0  0  0  0  0  0  0
    0.6258   11.1323    1.6159 H   0  0  0  0  0  0  0  0  0  0  0  0
    1.3993   10.1290    0.3704 H   0  0  0  0  0  0  0  0  0  0  0  0
    2.2953   12.7064    1.2197 H   0  0  0  0  0  0  0  0  0  0  0  0
    2.8379   11.9088   -0.2546 H   0  0  0  0  0  0  0  0  0  0  0  0
    0.6235   13.7898    1.5234 H   0  0  0  0  0  0  0  0  0  0  0  0
    0.5017   15.1688    0.3788 H   0  0  0  0  0  0  0  0  0  0  0  0
   -0.7574   13.8877    0.3788 H   0  0  0  0  0  0  0  0  0  0  0  0
    2.5810   13.5205   -2.0423 H   0  0  0  0  0  0  0  0  0  0  0  0
    3.2914   14.6462    0.1645 H   0  0  0  0  0  0  0  0  0  0  0  0
    3.7621   15.3623   -1.4650 H   0  0  0  0  0  0  0  0  0  0  0  0
    2.9842   17.0744    0.3794 H   0  0  0  0  0  0  0  0  0  0  0  0
   -0.4529   15.9556   -1.4192 H   0  0  0  0  0  0  0  0  0  0  0  0
    0.9650   17.7224   -3.5079 H   0  0  0  0  0  0  0  0  0  0  0  0
   -0.6404   16.8850   -3.6929 H   0  0  0  0  0  0  0  0  0  0  0  0
   -0.8921   19.3011   -3.2245 H   0  0  0  0  0  0  0  0  0  0  0  0
   -1.5924   18.2535   -1.9297 H   0  0  0  0  0  0  0  0  0  0  0  0
   -0.4114   20.0688   -0.8958 H   0  0  0  0  0  0  0  0  0  0  0  0
    1.3620   20.8060   -1.8120 H   0  0  0  0  0  0  0  0  0  0  0  0
   -0.2476   18.0562    1.7223 H   0  0  0  0  0  0  0  0  0  0  0  0
   -1.3729   18.6464    0.4526 H   0  0  0  0  0  0  0  0  0  0  0  0
   -0.8387   16.9314    0.4526 H   0  0  0  0  0  0  0  0  0  0  0  0
    1.4156   18.9412    1.7312 H   0  0  0  0  0  0  0  0  0  0  0  0
    2.6859   18.8111    0.4678 H   0  0  0  0  0  0  0  0  0  0  0  0
    1.5591   20.2101    0.4678 H   0  0  0  0  0  0  0  0  0  0  0  0
    3.0013   15.7803   -3.2945 H   0  0  0  0  0  0  0  0  0  0  0  0
    2.2426   14.5162   -4.3206 H   0  0  0  0  0  0  0  0  0  0  0  0
    1.5842   16.1874   -4.3206 H   0  0  0  0  0  0  0  0  0  0  0  0
   -0.8172   14.8226   -3.5516 H   0  0  0  0  0  0  0  0  0  0  0  0
    0.4525   13.5214   -3.9130 H   0  0  0  0  0  0  0  0  0  0  0  0
   -1.3766   13.7011   -1.5040 H   0  0  0  0  0  0  0  0  0  0  0  0
   -1.3628   12.4635   -2.8213 H   0  0  0  0  0  0  0  0  0  0  0  0
    1.7760   10.7924   -1.9352 H   0  0  0  0  0  0  0  0  0  0  0  0
    0.4145   10.8951   -3.1025 H   0  0  0  0  0  0  0  0  0  0  0  0
    1.6946   12.1553   -3.1025 H   0  0  0  0  0  0  0  0  0  0  0  0
  1  2  1  0
  2  3  1  0
  3  4  1  0
  4  5  1  0
  5  6  1  0
  6  7  1  0
  7  8  1  0
  7  9  1  0
  2 10  1  0
 10 11  1  0
 11 12  1  0
 12 13  1  0
 13 14  1  1
 13 15  1  0
 15 16  1  0
 16 17  1  0
 17 18  2  0
 18 19  1  0
 19 20  1  0
 20 21  1  0
 21 22  1  0
 22 23  1  0
 22 24  1  0
 24 25  1  0
 24 26  1  0
 19 27  1  0
 27 28  1  6
 27 29  1  0
 29 30  1  0
 30 31  1  0
 31 32  1  6
  7  5  1  0
 31 10  1  0
 31 13  1  0
 27 15  1  0
 24 18  1  0
  1 33  1  0
  1 34  1  0
  1 35  1  0
  2 36  1  1
  3 37  1  0
  3 38  1  0
  4 39  1  0
  4 40  1  0
  5 41  1  1
  8 42  1  0
  8 43  1  0
  8 44  1  0
  9 45  1  0
  9 46  1  0
  9 47  1  0
 10 48  1  1
 11 49  1  0
 11 50  1  0
 12 51  1  0
 12 52  1  0
 14 53  1  0
 14 54  1  0
 14 55  1  0
 15 56  1  6
 16 57  1  0
 16 58  1  0
 17 59  1  0
 19 60  1  1
 20 61  1  0
 20 62  1  0
 21 63  1  0
 21 64  1  0
 22 65  1  1
 23 66  1  0
 25 67  1  0
 25 68  1  0
 25 69  1  0
 26 70  1  0
 26 71  1  0
 26 72  1  0
 28 73  1  0
 28 74  1  0
 28 75  1  0
 29 76  1  0
 29 77  1  0
 30 78  1  0
 30 79  1  0
 32 80  1  0
 32 81  1  0
 32 82  1  0
M  END
>  <meeko>  (6) 
{"is_sidechain": [false], "intermolecular_energy": 2.731, "internal_energy": -0.839}

$$$$
EPH_relaxed_0001_pdb2pqr_Repair_38_r2_0001_out
     RDKit          3D

 82 86  0  0  0  0  0  0  0  0999 V2000
    0.4370    8.8150   -2.4180 C   0  0  0  0  0  0  0  0  0  0  0  0
    1.1830    9.9630   -3.1020 C   0  0  2  0  0  0  0  0  0  0  0  0
    2.6820    9.9790   -2.7420 C   0  0  0  0  0  0  0  0  0  0  0  0
    3.5680   10.6040   -3.8220 C   0  0  0  0  0  0  0  0  0  0  0  0
    4.9660   10.8310   -3.3300 C   0  0  2  0  0  0  0  0  0  0  0  0
    5.5730   12.0450   -3.7910 O   0  0  0  0  0  0  0  0  0  0  0  0
    6.1830   10.8220   -4.2350 C   0  0  0  0  0  0  0  0  0  0  0  0
    6.0590   10.5800   -5.7070 C   0  0  0  0  0  0  0  0  0  0  0  0
    7.5260   10.5630   -3.6260 C   0  0  0  0  0  0  0  0  0  0  0  0
    0.5430   11.2950   -2.7270 C   0  0  1  0  0  0  0  0  0  0  0  0
   -0.8360   11.1220   -2.0370 C   0  0  0  0  0  0  0  0  0  0  0  0
   -0.9550   12.2530   -0.9840 C   0  0  0  0  0  0  0  0  0  0  0  0
    0.1960   13.2280   -1.3270 C   0  0  1  0  0  0  0  0  0  0  0  0
   -0.3490   14.0940   -2.5050 C   0  0  0  0  0  0  0  0  0  0  0  0
    0.7230   14.1150   -0.1530 C   0  0  2  0  0  0  0  0  0  0  0  0
   -0.3090   15.0880    0.4440 C   0  0  0  0  0  0  0  0  0  0  0  0
   -0.3510   16.4400   -0.1870 C   0  0  0  0  0  0  0  0  0  0  0  0
    0.5940   16.9550   -0.9960 C   0  0  0  0  0  0  0  0  0  0  0  0
    1.8960   16.1920   -1.2720 C   0  0  1  0  0  0  0  0  0  0  0  0
    3.1020   17.1570   -1.1310 C   0  0  0  0  0  0  0  0  0  0  0  0
    2.9600   18.4020   -2.0010 C   0  0  0  0  0  0  0  0  0  0  0  0
    1.6830   19.1650   -1.6580 C   0  0  2  0  0  0  0  0  0  0  0  0
    1.8050   19.6940   -0.3340 O   0  0  0  0  0  0  0  0  0  0  0  0
    0.4020   18.2910   -1.7550 C   0  0  0  0  0  0  0  0  0  0  0  0
    0.1040   17.9680   -3.2400 C   0  0  0  0  0  0  0  0  0  0  0  0
   -0.7950   19.1400   -1.2480 C   0  0  0  0  0  0  0  0  0  0  0  0
    2.0950   14.8430   -0.4550 C   0  0  1  0  0  0  0  0  0  0  0  0
    2.7510   15.1490    0.9260 C   0  0  0  0  0  0  0  0  0  0  0  0
    3.1050   13.9170   -1.2310 C   0  0  0  0  0  0  0  0  0  0  0  0
    2.5090   12.9760   -2.2950 C   0  0  0  0  0  0  0  0  0  0  0  0
    1.3140   12.2000   -1.7330 C   0  0  2  0  0  0  0  0  0  0  0  0
    1.8370   11.3020   -0.5610 C   0  0  0  0  0  0  0  0  0  0  0  0
    0.5108    8.9286   -1.3264 H   0  0  0  0  0  0  0  0  0  0  0  0
   -0.6211    8.8350   -2.7180 H   0  0  0  0  0  0  0  0  0  0  0  0
    0.8851    7.8562   -2.7180 H   0  0  0  0  0  0  0  0  0  0  0  0
    1.1067    9.8060   -4.1881 H   0  0  0  0  0  0  0  0  0  0  0  0
    2.8098   10.5536   -1.8127 H   0  0  0  0  0  0  0  0  0  0  0  0
    2.9977    8.9308   -2.6344 H   0  0  0  0  0  0  0  0  0  0  0  0
    3.6009    9.9296   -4.6904 H   0  0  0  0  0  0  0  0  0  0  0  0
    3.1385   11.5789   -4.0959 H   0  0  0  0  0  0  0  0  0  0  0  0
    4.7440   10.3095   -2.3873 H   0  0  0  0  0  0  0  0  0  0  0  0
    5.5636    9.6131   -5.8792 H   0  0  0  0  0  0  0  0  0  0  0  0
    5.4618   11.3841   -6.1618 H   0  0  0  0  0  0  0  0  0  0  0  0
    7.0605   10.5650   -6.1618 H   0  0  0  0  0  0  0  0  0  0  0  0
    7.4407   10.5795   -2.5294 H   0  0  0  0  0  0  0  0  0  0  0  0
    7.8919    9.5777   -3.9506 H   0  0  0  0  0  0  0  0  0  0  0  0
    8.2321   11.3415   -3.9506 H   0  0  0  0  0  0  0  0  0  0  0  0
    0.5092   11.7688   -3.7192 H   0  0  0  0  0  0  0  0  0  0  0  0
   -1.6439   11.2084   -2.7785 H   0  0  0  0  0  0  0  0  0  0  0  0
   -0.9194   10.1323   -1.5643 H   0  0  0  0  0  0  0  0  0  0  0  0
   -1.9289   12.7580   -1.0649 H   0  0  0  0  0  0  0  0  0  0  0  0
   -0.8868   11.8729    0.0460 H   0  0  0  0  0  0  0  0  0  0  0  0
   -0.8941   14.9602   -2.1017 H   0  0  0  0  0  0  0  0  0  0  0  0
    0.4916   14.4446   -3.1219 H   0  0  0  0  0  0  0  0  0  0  0  0
   -1.0287   13.4878   -3.1219 H   0  0  0  0  0  0  0  0  0  0  0  0
    0.9224   13.3711    0.6324 H   0  0  0  0  0  0  0  0  0  0  0  0
   -1.3051   14.6331    0.3393 H   0  0  0  0  0  0  0  0  0  0  0  0
   -0.0056   15.2495    1.4889 H   0  0  0  0  0  0  0  0  0  0  0  0
   -1.2280   17.0686    0.0270 H   0  0  0  0  0  0  0  0  0  0  0  0
    1.8245   15.8338   -2.3096 H   0  0  0  0  0  0  0  0  0  0  0  0
    3.1827   17.4691   -0.0793 H   0  0  0  0  0  0  0  0  0  0  0  0
    4.0014   16.6181   -1.4636 H   0  0  0  0  0  0  0  0  0  0  0  0
    3.8270   19.0582   -1.8346 H   0  0  0  0  0  0  0  0  0  0  0  0
    2.9101   18.0900   -3.0546 H   0  0  0  0  0  0  0  0  0  0  0  0
    1.5699   19.9697   -2.3994 H   0  0  0  0  0  0  0  0  0  0  0  0
    2.1810   18.9960    0.2290 H   0  0  0  0  0  0  0  0  0  0  0  0
   -0.6409   17.1606   -3.2973 H   0  0  0  0  0  0  0  0  0  0  0  0
   -0.2895   18.8660   -3.7387 H   0  0  0  0  0  0  0  0  0  0  0  0
    1.0307   17.6480   -3.7387 H   0  0  0  0  0  0  0  0  0  0  0  0
   -0.8015   19.1446   -0.1480 H   0  0  0  0  0  0  0  0  0  0  0  0
   -0.6962   20.1710   -1.6184 H   0  0  0  0  0  0  0  0  0  0  0  0
   -1.7354   18.7059   -1.6184 H   0  0  0  0  0  0  0  0  0  0  0  0
    2.0728   14.8327    1.7322 H   0  0  0  0  0  0  0  0  0  0  0  0
    3.7012   14.6012    1.0100 H   0  0  0  0  0  0  0  0  0  0  0  0
    2.9418   16.2291    1.0100 H   0  0  0  0  0  0  0  0  0  0  0  0
    3.8343   14.5687   -1.7344 H   0  0  0  0  0  0  0  0  0  0  0  0
    3.5315   13.2520   -0.4656 H   0  0  0  0  0  0  0  0  0  0  0  0
    2.1772   13.5725   -3.1576 H   0  0  0  0  0  0  0  0  0  0  0  0
    3.2829   12.2560   -2.5995 H   0  0  0  0  0  0  0  0  0  0  0  0
    1.5689   11.7623    0.4014 H   0  0  0  0  0  0  0  0  0  0  0  0
    1.3786   10.3045   -0.6307 H   0  0  0  0  0  0  0  0  0  0  0  0
    2.9308   11.2085   -0.6307 H   0  0  0  0  0  0  0  0  0  0  0  0
  1  2  1  0
  2  3  1  0
  3  4  1  0
  4  5  1  0
  5  6  1  0
  6  7  1  0
  7  8  1  0
  7  9  1  0
  2 10  1  0
 10 11  1  0
 11 12  1  0
 12 13  1  0
 13 14  1  6
 13 15  1  0
 15 16  1  0
 16 17  1  0
 17 18  2  0
 18 19  1  0
 19 20  1  0
 20 21  1  0
 21 22  1  0
 22 23  1  0
 22 24  1  0
 24 25  1  0
 24 26  1  0
 19 27  1  0
 27 28  1  1
 27 29  1  0
 29 30  1  0
 30 31  1  0
 31 32  1  1
  7  5  1  0
 31 10  1  0
 31 13  1  0
 27 15  1  0
 24 18  1  0
  1 33  1  0
  1 34  1  0
  1 35  1  0
  2 36  1  6
  3 37  1  0
  3 38  1  0
  4 39  1  0
  4 40  1  0
  5 41  1  1
  8 42  1  0
  8 43  1  0
  8 44  1  0
  9 45  1  0
  9 46  1  0
  9 47  1  0
 10 48  1  6
 11 49  1  0
 11 50  1  0
 12 51  1  0
 12 52  1  0
 14 53  1  0
 14 54  1  0
 14 55  1  0
 15 56  1  1
 16 57  1  0
 16 58  1  0
 17 59  1  0
 19 60  1  6
 20 61  1  0
 20 62  1  0
 21 63  1  0
 21 64  1  0
 22 65  1  6
 23 66  1  0
 25 67  1  0
 25 68  1  0
 25 69  1  0
 26 70  1  0
 26 71  1  0
 26 72  1  0
 28 73  1  0
 28 74  1  0
 28 75  1  0
 29 76  1  0
 29 77  1  0
 30 78  1  0
 30 79  1  0
 32 80  1  0
 32 81  1  0
 32 82  1  0
M  END
>  <meeko>  (7) 
{"is_sidechain": [false], "intermolecular_energy": 2.731, "internal_energy": -0.839}

$$$$
EPH_relaxed_0001_pdb2pqr_Repair_38_r2_0001_out
     RDKit          3D

 82 86  0  0  0  0  0  0  0  0999 V2000
    2.7780   18.9030   -1.3240 C   0  0  0  0  0  0  0  0  0  0  0  0
    2.3600   17.8310   -2.3340 C   0  0  2  0  0  0  0  0  0  0  0  0
    0.8990   18.0060   -2.7950 C   0  0  0  0  0  0  0  0  0  0  0  0
    0.2460   19.2970   -2.2940 C   0  0  0  0  0  0  0  0  0  0  0  0
   -1.0340   19.0230   -1.5630 C   0  0  2  0  0  0  0  0  0  0  0  0
   -1.7460   20.1940   -1.1430 O   0  0  0  0  0  0  0  0  0  0  0  0
   -1.2460   19.3470   -0.0960 C   0  0  0  0  0  0  0  0  0  0  0  0
   -0.1650   19.9720    0.7290 C   0  0  0  0  0  0  0  0  0  0  0  0
   -2.3170   18.6150    0.6510 C   0  0  0  0  0  0  0  0  0  0  0  0
    2.5530   16.4450   -1.7300 C   0  0  1  0  0  0  0  0  0  0  0  0
    3.2250   16.4900   -0.3320 C   0  0  0  0  0  0  0  0  0  0  0  0
    2.6040   15.3390    0.5000 C   0  0  0  0  0  0  0  0  0  0  0  0
    1.8500   14.4720   -0.5350 C   0  0  1  0  0  0  0  0  0  0  0  0
    2.9500   13.5760   -1.1850 C   0  0  0  0  0  0  0  0  0  0  0  0
    0.6610   13.6180    0.0150 C   0  0  2  0  0  0  0  0  0  0  0  0
    1.0480   12.5530    1.0550 C   0  0  0  0  0  0  0  0  0  0  0  0
    1.3870   11.2100    0.4970 C   0  0  0  0  0  0  0  0  0  0  0  0
    1.1090   10.7890   -0.7510 C   0  0  0  0  0  0  0  0  0  0  0  0
    0.2990   11.6650   -1.7160 C   0  0  1  0  0  0  0  0  0  0  0  0
   -0.7940   10.8050   -2.4010 C   0  0  0  0  0  0  0  0  0  0  0  0
   -0.2230    9.5630   -3.0800 C   0  0  0  0  0  0  0  0  0  0  0  0
    0.5250    8.6890   -2.0760 C   0  0  2  0  0  0  0  0  0  0  0  0
   -0.4160    8.1560   -1.1390 O   0  0  0  0  0  0  0  0  0  0  0  0
    1.6460    9.4510   -1.3160 C   0  0  0  0  0  0  0  0  0  0  0  0
    2.8110    9.7660   -2.2860 C   0  0  0  0  0  0  0  0  0  0  0  0
    2.2250    8.4960   -0.2370 C   0  0  0  0  0  0  0  0  0  0  0  0
   -0.2770   13.0150   -1.1080 C   0  0  1  0  0  0  0  0  0  0  0  0
   -1.6600   12.7490   -0.4380 C   0  0  0  0  0  0  0  0  0  0  0  0
   -0.5400   14.0340   -2.2790 C   0  0  0  0  0  0  0  0  0  0  0  0
    0.6390   14.9330   -2.6960 C   0  0  0  0  0  0  0  0  0  0  0  0
    1.2810   15.5970   -1.4740 C   0  0  2  0  0  0  0  0  0  0  0  0
    0.2040   16.5220   -0.8110 C   0  0  0  0  0  0  0  0  0  0  0  0
    2.6296   18.5223   -0.3027 H   0  0  0  0  0  0  0  0  0  0  0  0
    3.8392   19.1522   -1.4718 H   0  0  0  0  0  0  0  0  0  0  0  0
    2.1656   19.8047   -1.4718 H   0  0  0  0  0  0  0  0  0  0  0  0
    3.0015   17.9430   -3.2205 H   0  0  0  0  0  0  0  0  0  0  0  0
    0.8802   18.0114   -3.8948 H   0  0  0  0  0  0  0  0  0  0  0  0
    0.3253   17.1695   -2.3695 H   0  0  0  0  0  0  0  0  0  0  0  0
    0.9428   19.8082   -1.6135 H   0  0  0  0  0  0  0  0  0  0  0  0
    0.0150   19.9257   -3.1666 H   0  0  0  0  0  0  0  0  0  0  0  0
   -1.1983   18.1055   -2.1471 H   0  0  0  0  0  0  0  0  0  0  0  0
   -0.3951   19.8390    1.7964 H   0  0  0  0  0  0  0  0  0  0  0  0
    0.7969   19.4907    0.4985 H   0  0  0  0  0  0  0  0  0  0  0  0
   -0.1022   21.0457    0.4985 H   0  0  0  0  0  0  0  0  0  0  0  0
   -2.1521   18.7277    1.7327 H   0  0  0  0  0  0  0  0  0  0  0  0
   -3.2998   19.0312    0.3846 H   0  0  0  0  0  0  0  0  0  0  0  0
   -2.2862   17.5482    0.3846 H   0  0  0  0  0  0  0  0  0  0  0  0
    3.1608   15.9825   -2.5217 H   0  0  0  0  0  0  0  0  0  0  0  0
    4.3110   16.3442   -0.4289 H   0  0  0  0  0  0  0  0  0  0  0  0
    3.0598   17.4626    0.1545 H   0  0  0  0  0  0  0  0  0  0  0  0
    3.3898   14.7527    0.9988 H   0  0  0  0  0  0  0  0  0  0  0  0
    1.9409   15.7100    1.2954 H   0  0  0  0  0  0  0  0  0  0  0  0
    3.5434   13.0927   -0.3949 H   0  0  0  0  0  0  0  0  0  0  0  0
    2.4738   12.8055   -1.8091 H   0  0  0  0  0  0  0  0  0  0  0  0
    3.6082   14.1982   -1.8091 H   0  0  0  0  0  0  0  0  0  0  0  0
    0.0667   14.3655    0.5609 H   0  0  0  0  0  0  0  0  0  0  0  0
    1.9237   12.9217    1.6093 H   0  0  0  0  0  0  0  0  0  0  0  0
    0.1582   12.4051    1.6846 H   0  0  0  0  0  0  0  0  0  0  0  0
    1.9078   10.5053    1.1619 H   0  0  0  0  0  0  0  0  0  0  0  0
    1.0127   12.0298   -2.4694 H   0  0  0  0  0  0  0  0  0  0  0  0
   -1.5212   10.4873   -1.6393 H   0  0  0  0  0  0  0  0  0  0  0  0
   -1.2657   11.4232   -3.1790 H   0  0  0  0  0  0  0  0  0  0  0  0
   -1.0470    8.9819   -3.5198 H   0  0  0  0  0  0  0  0  0  0  0  0
    0.4818    9.8823   -3.8619 H   0  0  0  0  0  0  0  0  0  0  0  0
    1.0206    7.8862   -2.6416 H   0  0  0  0  0  0  0  0  0  0  0  0
   -0.9830    7.5260   -1.6160 H   0  0  0  0  0  0  0  0  0  0  0  0
    3.7141   10.0102   -1.7074 H   0  0  0  0  0  0  0  0  0  0  0  0
    3.0077    8.8888   -2.9199 H   0  0  0  0  0  0  0  0  0  0  0  0
    2.5389   10.6228   -2.9199 H   0  0  0  0  0  0  0  0  0  0  0  0
    1.9881    8.8867    0.7636 H   0  0  0  0  0  0  0  0  0  0  0  0
    1.7805    7.4968   -0.3552 H   0  0  0  0  0  0  0  0  0  0  0  0
    3.3165    8.4280   -0.3552 H   0  0  0  0  0  0  0  0  0  0  0  0
   -1.5476   12.7706    0.6560 H   0  0  0  0  0  0  0  0  0  0  0  0
   -2.3735   13.5264   -0.7487 H   0  0  0  0  0  0  0  0  0  0  0  0
   -2.0343   11.7624   -0.7487 H   0  0  0  0  0  0  0  0  0  0  0  0
   -0.8448   13.4540   -3.1626 H   0  0  0  0  0  0  0  0  0  0  0  0
   -1.3052   14.7238   -1.8935 H   0  0  0  0  0  0  0  0  0  0  0  0
    1.3939   14.3206   -3.2109 H   0  0  0  0  0  0  0  0  0  0  0  0
    0.2605   15.7202   -3.3646 H   0  0  0  0  0  0  0  0  0  0  0  0
    0.2849   16.4525    0.2838 H   0  0  0  0  0  0  0  0  0  0  0  0
    0.3707   17.5628   -1.1257 H   0  0  0  0  0  0  0  0  0  0  0  0
   -0.7997   16.2001   -1.1257 H   0  0  0  0  0  0  0  0  0  0  0  0
  1  2  1  0
  2  3  1  0
  3  4  1  0
  4  5  1  0
  5  6  1  0
  6  7  1  0
  7  8  1  0
  7  9  1  0
  2 10  1  0
 10 11  1  0
 11 12  1  0
 12 13  1  0
 13 14  1  6
 13 15  1  0
 15 16  1  0
 16 17  1  0
 17 18  2  0
 18 19  1  0
 19 20  1  0
 20 21  1  0
 21 22  1  0
 22 23  1  0
 22 24  1  0
 24 25  1  0
 24 26  1  0
 19 27  1  0
 27 28  1  1
 27 29  1  0
 29 30  1  0
 30 31  1  0
 31 32  1  1
  7  5  1  0
 31 10  1  0
 31 13  1  0
 27 15  1  0
 24 18  1  0
  1 33  1  0
  1 34  1  0
  1 35  1  0
  2 36  1  6
  3 37  1  0
  3 38  1  0
  4 39  1  0
  4 40  1  0
  5 41  1  6
  8 42  1  0
  8 43  1  0
  8 44  1  0
  9 45  1  0
  9 46  1  0
  9 47  1  0
 10 48  1  6
 11 49  1  0
 11 50  1  0
 12 51  1  0
 12 52  1  0
 14 53  1  0
 14 54  1  0
 14 55  1  0
 15 56  1  1
 16 57  1  0
 16 58  1  0
 17 59  1  0
 19 60  1  6
 20 61  1  0
 20 62  1  0
 21 63  1  0
 21 64  1  0
 22 65  1  6
 23 66  1  0
 25 67  1  0
 25 68  1  0
 25 69  1  0
 26 70  1  0
 26 71  1  0
 26 72  1  0
 28 73  1  0
 28 74  1  0
 28 75  1  0
 29 76  1  0
 29 77  1  0
 30 78  1  0
 30 79  1  0
 32 80  1  0
 32 81  1  0
 32 82  1  0
M  END
>  <meeko>  (8) 
{"is_sidechain": [false], "intermolecular_energy": 2.731, "internal_energy": -0.839}

$$$$
EPH_relaxed_0001_pdb2pqr_Repair_38_r2_0001_out
     RDKit          3D

 82 86  0  0  0  0  0  0  0  0999 V2000
   -0.8390   16.3230   -5.8260 C   0  0  0  0  0  0  0  0  0  0  0  0
    0.2520   15.6160   -6.6340 C   0  0  2  0  0  0  0  0  0  0  0  0
   -0.1510   15.4240   -8.1100 C   0  0  0  0  0  0  0  0  0  0  0  0
    0.4640   16.4590   -9.0560 C   0  0  0  0  0  0  0  0  0  0  0  0
    1.8670   16.0980   -9.4380 C   0  0  2  0  0  0  0  0  0  0  0  0
    2.3220   16.6800  -10.6660 O   0  0  0  0  0  0  0  0  0  0  0  0
    2.2120   15.2470  -10.6460 C   0  0  0  0  0  0  0  0  0  0  0  0
    1.1490   14.7050  -11.5480 C   0  0  0  0  0  0  0  0  0  0  0  0
    3.5320   14.5410  -10.6700 C   0  0  0  0  0  0  0  0  0  0  0  0
    0.5760   14.2670   -6.0020 C   0  0  1  0  0  0  0  0  0  0  0  0
    1.8390   13.6080   -6.6160 C   0  0  0  0  0  0  0  0  0  0  0  0
    2.5520   12.8510   -5.4660 C   0  0  0  0  0  0  0  0  0  0  0  0
    1.5150   12.8200   -4.3180 C   0  0  1  0  0  0  0  0  0  0  0  0
    0.5600   11.6380   -4.6730 C   0  0  0  0  0  0  0  0  0  0  0  0
    2.0910   12.6820   -2.8710 C   0  0  2  0  0  0  0  0  0  0  0  0
    2.8630   11.3800   -2.5970 C   0  0  0  0  0  0  0  0  0  0  0  0
    2.0410   10.2490   -2.0750 C   0  0  0  0  0  0  0  0  0  0  0  0
    0.7980   10.3540   -1.5680 C   0  0  0  0  0  0  0  0  0  0  0  0
    0.1330   11.7250   -1.3910 C   0  0  1  0  0  0  0  0  0  0  0  0
   -0.5100   11.8100    0.0180 C   0  0  0  0  0  0  0  0  0  0  0  0
   -1.4680   10.6560    0.2960 C   0  0  0  0  0  0  0  0  0  0  0  0
   -0.7560    9.3130    0.1670 C   0  0  2  0  0  0  0  0  0  0  0  0
    0.2130    9.2020    1.2150 O   0  0  0  0  0  0  0  0  0  0  0  0
   -0.0610    9.1160   -1.2100 C   0  0  0  0  0  0  0  0  0  0  0  0
   -1.1340    8.9340   -2.3120 C   0  0  0  0  0  0  0  0  0  0  0  0
    0.7370    7.7860   -1.1560 C   0  0  0  0  0  0  0  0  0  0  0  0
    1.0420   12.9850   -1.7250 C   0  0  1  0  0  0  0  0  0  0  0  0
    1.8650   13.3960   -0.4660 C   0  0  0  0  0  0  0  0  0  0  0  0
    0.1150   14.2100   -2.0700 C   0  0  0  0  0  0  0  0  0  0  0  0
   -0.3220   14.3580   -3.5400 C   0  0  0  0  0  0  0  0  0  0  0  0
    0.8800   14.2480   -4.4830 C   0  0  2  0  0  0  0  0  0  0  0  0
    1.8490   15.4370   -4.1650 C   0  0  0  0  0  0  0  0  0  0  0  0
   -0.6409   16.1946   -4.7516 H   0  0  0  0  0  0  0  0  0  0  0  0
   -0.8416   17.3949   -6.0729 H   0  0  0  0  0  0  0  0  0  0  0  0
   -1.8185   15.8875   -6.0729 H   0  0  0  0  0  0  0  0  0  0  0  0
    1.1450   16.2580   -6.6167 H   0  0  0  0  0  0  0  0  0  0  0  0
    0.1741   14.4235   -8.4313 H   0  0  0  0  0  0  0  0  0  0  0  0
   -1.2426   15.5482   -8.1638 H   0  0  0  0  0  0  0  0  0  0  0  0
   -0.1494   16.5176   -9.9672 H   0  0  0  0  0  0  0  0  0  0  0  0
    0.4896   17.4270   -8.5342 H   0  0  0  0  0  0  0  0  0  0  0  0
    2.1632   16.0328   -8.3806 H   0  0  0  0  0  0  0  0  0  0  0  0
    0.3313   14.2881  -10.9418 H   0  0  0  0  0  0  0  0  0  0  0  0
    0.7590   15.5143  -12.1828 H   0  0  0  0  0  0  0  0  0  0  0  0
    1.5750   13.9140  -12.1828 H   0  0  0  0  0  0  0  0  0  0  0  0
    3.8699   14.3603   -9.6389 H   0  0  0  0  0  0  0  0  0  0  0  0
    3.4244   13.5800  -11.1944 H   0  0  0  0  0  0  0  0  0  0  0  0
    4.2715   15.1640  -11.1944 H   0  0  0  0  0  0  0  0  0  0  0  0
   -0.3671   13.7377   -6.2031 H   0  0  0  0  0  0  0  0  0  0  0  0
    1.5508   12.9046   -7.4111 H   0  0  0  0  0  0  0  0  0  0  0  0
    2.5019   14.3640   -7.0621 H   0  0  0  0  0  0  0  0  0  0  0  0
    2.8163   11.8299   -5.7783 H   0  0  0  0  0  0  0  0  0  0  0  0
    3.4921   13.3371   -5.1662 H   0  0  0  0  0  0  0  0  0  0  0  0
    0.1873   11.1768   -3.7465 H   0  0  0  0  0  0  0  0  0  0  0  0
   -0.2889   12.0165   -5.2614 H   0  0  0  0  0  0  0  0  0  0  0  0
    1.1084   10.8876   -5.2614 H   0  0  0  0  0  0  0  0  0  0  0  0
    2.8414   13.4856   -2.8379 H   0  0  0  0  0  0  0  0  0  0  0  0
    3.3277   11.0556   -3.5398 H   0  0  0  0  0  0  0  0  0  0  0  0
    3.5899   11.6180   -1.8064 H   0  0  0  0  0  0  0  0  0  0  0  0
    2.4884    9.2446   -2.1072 H   0  0  0  0  0  0  0  0  0  0  0  0
   -0.6490   11.7860   -2.1622 H   0  0  0  0  0  0  0  0  0  0  0  0
    0.2905   11.7928    0.7722 H   0  0  0  0  0  0  0  0  0  0  0  0
   -1.0904   12.7433    0.0637 H   0  0  0  0  0  0  0  0  0  0  0  0
   -1.8655   10.7561    1.3168 H   0  0  0  0  0  0  0  0  0  0  0  0
   -2.2846   10.6925   -0.4401 H   0  0  0  0  0  0  0  0  0  0  0  0
   -1.5206    8.5262    0.2472 H   0  0  0  0  0  0  0  0  0  0  0  0
   -0.2520    9.3260    2.0590 H   0  0  0  0  0  0  0  0  0  0  0  0
   -2.1155    8.7675   -1.8441 H   0  0  0  0  0  0  0  0  0  0  0  0
   -1.1745    9.8381   -2.9373 H   0  0  0  0  0  0  0  0  0  0  0  0
   -0.8741    8.0671   -2.9373 H   0  0  0  0  0  0  0  0  0  0  0  0
    0.9070    7.5027   -0.1068 H   0  0  0  0  0  0  0  0  0  0  0  0
    0.1647    6.9942   -1.6615 H   0  0  0  0  0  0  0  0  0  0  0  0
    1.7050    7.9184   -1.6615 H   0  0  0  0  0  0  0  0  0  0  0  0
    1.3094   13.1185    0.4419 H   0  0  0  0  0  0  0  0  0  0  0  0
    2.8344   12.8762   -0.4759 H   0  0  0  0  0  0  0  0  0  0  0  0
    2.0318   14.4832   -0.4759 H   0  0  0  0  0  0  0  0  0  0  0  0
   -0.7956   14.1206   -1.4595 H   0  0  0  0  0  0  0  0  0  0  0  0
    0.7251   15.1009   -1.8599 H   0  0  0  0  0  0  0  0  0  0  0  0
   -1.0435   13.5639   -3.7826 H   0  0  0  0  0  0  0  0  0  0  0  0
   -0.7813   15.3489   -3.6713 H   0  0  0  0  0  0  0  0  0  0  0  0
    1.9428   15.5521   -3.0751 H   0  0  0  0  0  0  0  0  0  0  0  0
    2.8385   15.2295   -4.5983 H   0  0  0  0  0  0  0  0  0  0  0  0
    1.4461   16.3643   -4.5983 H   0  0  0  0  0  0  0  0  0  0  0  0
  1  2  1  0
  2  3  1  0
  3  4  1  0
  4  5  1  0
  5  6  1  0
  6  7  1  0
  7  8  1  0
  7  9  1  0
  2 10  1  0
 10 11  1  0
 11 12  1  0
 12 13  1  0
 13 14  1  6
 13 15  1  0
 15 16  1  0
 16 17  1  0
 17 18  2  0
 18 19  1  0
 19 20  1  0
 20 21  1  0
 21 22  1  0
 22 23  1  0
 22 24  1  0
 24 25  1  0
 24 26  1  0
 19 27  1  0
 27 28  1  1
 27 29  1  0
 29 30  1  0
 30 31  1  0
 31 32  1  6
  7  5  1  0
 31 10  1  0
 31 13  1  0
 27 15  1  0
 24 18  1  0
  1 33  1  0
  1 34  1  0
  1 35  1  0
  2 36  1  6
  3 37  1  0
  3 38  1  0
  4 39  1  0
  4 40  1  0
  5 41  1  1
  8 42  1  0
  8 43  1  0
  8 44  1  0
  9 45  1  0
  9 46  1  0
  9 47  1  0
 10 48  1  1
 11 49  1  0
 11 50  1  0
 12 51  1  0
 12 52  1  0
 14 53  1  0
 14 54  1  0
 14 55  1  0
 15 56  1  6
 16 57  1  0
 16 58  1  0
 17 59  1  0
 19 60  1  6
 20 61  1  0
 20 62  1  0
 21 63  1  0
 21 64  1  0
 22 65  1  1
 23 66  1  0
 25 67  1  0
 25 68  1  0
 25 69  1  0
 26 70  1  0
 26 71  1  0
 26 72  1  0
 28 73  1  0
 28 74  1  0
 28 75  1  0
 29 76  1  0
 29 77  1  0
 30 78  1  0
 30 79  1  0
 32 80  1  0
 32 81  1  0
 32 82  1  0
M  END
>  <meeko>  (9) 
{"is_sidechain": [false], "intermolecular_energy": 2.731, "internal_energy": -0.839}

$$$$
EPH_relaxed_0001_pdb2pqr_Repair_38_r2_0001_out
     RDKit          3D

 82 86  0  0  0  0  0  0  0  0999 V2000
    0.1190   17.6980   -2.4740 C   0  0  0  0  0  0  0  0  0  0  0  0
   -0.0900   16.8270   -1.2310 C   0  0  2  0  0  0  0  0  0  0  0  0
   -0.0960   17.6590    0.0670 C   0  0  0  0  0  0  0  0  0  0  0  0
    0.4790   19.0680   -0.1030 C   0  0  0  0  0  0  0  0  0  0  0  0
    1.6180   19.3190    0.8380 C   0  0  2  0  0  0  0  0  0  0  0  0
    2.6340   20.1930    0.3290 O   0  0  0  0  0  0  0  0  0  0  0  0
    3.0350   18.8370    0.5850 C   0  0  0  0  0  0  0  0  0  0  0  0
    3.3870   18.0640   -0.6480 C   0  0  0  0  0  0  0  0  0  0  0  0
    3.9610   18.6910    1.7520 C   0  0  0  0  0  0  0  0  0  0  0  0
    0.9920   15.7570   -1.1590 C   0  0  1  0  0  0  0  0  0  0  0  0
    1.1870   15.2000    0.2770 C   0  0  0  0  0  0  0  0  0  0  0  0
    1.5380   13.6970    0.1300 C   0  0  0  0  0  0  0  0  0  0  0  0
    1.8590   13.5160   -1.3720 C   0  0  1  0  0  0  0  0  0  0  0  0
    3.3330   14.0050   -1.5280 C   0  0  0  0  0  0  0  0  0  0  0  0
    1.6630   12.0780   -1.9520 C   0  0  2  0  0  0  0  0  0  0  0  0
    2.5650   10.9960   -1.3330 C   0  0  0  0  0  0  0  0  0  0  0  0
    3.8750   10.7890   -2.0170 C   0  0  0  0  0  0  0  0  0  0  0  0
    4.1950   11.2380   -3.2450 C   0  0  0  0  0  0  0  0  0  0  0  0
    3.1560   11.9510   -4.1190 C   0  0  1  0  0  0  0  0  0  0  0  0
    3.2040   11.3720   -5.5580 C   0  0  0  0  0  0  0  0  0  0  0  0
    4.6040   11.4200   -6.1610 C   0  0  0  0  0  0  0  0  0  0  0  0
    5.5980   10.6500   -5.2940 C   0  0  2  0  0  0  0  0  0  0  0  0
    5.2630    9.2600   -5.3330 O   0  0  0  0  0  0  0  0  0  0  0  0
    5.6300   11.1400   -3.8190 C   0  0  0  0  0  0  0  0  0  0  0  0
    6.2790   12.5440   -3.7510 C   0  0  0  0  0  0  0  0  0  0  0  0
    6.5660   10.1910   -3.0220 C   0  0  0  0  0  0  0  0  0  0  0  0
    1.6800   12.0090   -3.5330 C   0  0  1  0  0  0  0  0  0  0  0  0
    0.8990   10.7190   -3.9310 C   0  0  0  0  0  0  0  0  0  0  0  0
    0.9110   13.2140   -4.1930 C   0  0  0  0  0  0  0  0  0  0  0  0
    1.0480   14.5860   -3.5040 C   0  0  0  0  0  0  0  0  0  0  0  0
    0.7810   14.4730   -2.0000 C   0  0  2  0  0  0  0  0  0  0  0  0
   -0.7020   14.0050   -1.8110 C   0  0  0  0  0  0  0  0  0  0  0  0
    0.3653   18.7246   -2.1652 H   0  0  0  0  0  0  0  0  0  0  0  0
    0.9442   17.2878   -3.0746 H   0  0  0  0  0  0  0  0  0  0  0  0
   -0.8025   17.7069   -3.0746 H   0  0  0  0  0  0  0  0  0  0  0  0
   -1.0777   16.3515   -1.3222 H   0  0  0  0  0  0  0  0  0  0  0  0
   -1.1347   17.7477    0.4180 H   0  0  0  0  0  0  0  0  0  0  0  0
    0.5471   17.1340    0.7886 H   0  0  0  0  0  0  0  0  0  0  0  0
    0.8380   19.1843   -1.1363 H   0  0  0  0  0  0  0  0  0  0  0  0
   -0.3174   19.7928    0.1215 H   0  0  0  0  0  0  0  0  0  0  0  0
    0.9508   19.2247    1.7075 H   0  0  0  0  0  0  0  0  0  0  0  0
    3.8271   17.0974   -0.3616 H   0  0  0  0  0  0  0  0  0  0  0  0
    2.4788   17.8911   -1.2441 H   0  0  0  0  0  0  0  0  0  0  0  0
    4.1136   18.6355   -1.2441 H   0  0  0  0  0  0  0  0  0  0  0  0
    3.3892   18.7812    2.6873 H   0  0  0  0  0  0  0  0  0  0  0  0
    4.4473   17.7051    1.7131 H   0  0  0  0  0  0  0  0  0  0  0  0
    4.7270   19.4795    1.7131 H   0  0  0  0  0  0  0  0  0  0  0  0
    1.8435   16.3301   -1.5546 H   0  0  0  0  0  0  0  0  0  0  0  0
    2.0063   15.7327    0.7819 H   0  0  0  0  0  0  0  0  0  0  0  0
    0.2773   15.3359    0.8803 H   0  0  0  0  0  0  0  0  0  0  0  0
    2.4114   13.4401    0.7474 H   0  0  0  0  0  0  0  0  0  0  0  0
    0.7187   13.0429    0.4631 H   0  0  0  0  0  0  0  0  0  0  0  0
    3.7777   14.1525   -0.5327 H   0  0  0  0  0  0  0  0  0  0  0  0
    3.9129   13.2511   -2.0806 H   0  0  0  0  0  0  0  0  0  0  0  0
    3.3473   14.9560   -2.0806 H   0  0  0  0  0  0  0  0  0  0  0  0
    0.6395   11.8325   -1.6324 H   0  0  0  0  0  0  0  0  0  0  0  0
    2.7676   11.2788   -0.2895 H   0  0  0  0  0  0  0  0  0  0  0  0
    2.0161   10.0482   -1.4345 H   0  0  0  0  0  0  0  0  0  0  0  0
    4.6438   10.2218   -1.4719 H   0  0  0  0  0  0  0  0  0  0  0  0
    3.4476   13.0115   -4.1341 H   0  0  0  0  0  0  0  0  0  0  0  0
    2.8686   10.3248   -5.5282 H   0  0  0  0  0  0  0  0  0  0  0  0
    2.5474   11.9895   -6.1886 H   0  0  0  0  0  0  0  0  0  0  0  0
    4.5791   10.9715   -7.1651 H   0  0  0  0  0  0  0  0  0  0  0  0
    4.9266   12.4702   -6.2169 H   0  0  0  0  0  0  0  0  0  0  0  0
    6.6027   10.8272   -5.7053 H   0  0  0  0  0  0  0  0  0  0  0  0
    6.0790    8.7560   -5.1740 H   0  0  0  0  0  0  0  0  0  0  0  0
    6.4136   12.8352   -2.6988 H   0  0  0  0  0  0  0  0  0  0  0  0
    7.2575   12.5203   -4.2529 H   0  0  0  0  0  0  0  0  0  0  0  0
    5.6270   13.2740   -4.2529 H   0  0  0  0  0  0  0  0  0  0  0  0
    6.4132   10.3459   -1.9437 H   0  0  0  0  0  0  0  0  0  0  0  0
    6.3344    9.1468   -3.2789 H   0  0  0  0  0  0  0  0  0  0  0  0
    7.6133   10.4082   -3.2789 H   0  0  0  0  0  0  0  0  0  0  0  0
    0.5783   10.1893   -3.0218 H   0  0  0  0  0  0  0  0  0  0  0  0
    0.0156   10.9941   -4.5259 H   0  0  0  0  0  0  0  0  0  0  0  0
    1.5522   10.0638   -4.5259 H   0  0  0  0  0  0  0  0  0  0  0  0
    1.2808   13.3206   -5.2235 H   0  0  0  0  0  0  0  0  0  0  0  0
   -0.1550   12.9553   -4.1106 H   0  0  0  0  0  0  0  0  0  0  0  0
    2.0678   14.9672   -3.6608 H   0  0  0  0  0  0  0  0  0  0  0  0
    0.3087   15.2734   -3.9409 H   0  0  0  0  0  0  0  0  0  0  0  0
   -0.9298   13.9331   -0.7372 H   0  0  0  0  0  0  0  0  0  0  0  0
   -1.3791   14.7331   -2.2815 H   0  0  0  0  0  0  0  0  0  0  0  0
   -0.8385   13.0201   -2.2815 H   0  0  0  0  0  0  0  0  0  0  0  0
  1  2  1  0
  2  3  1  0
  3  4  1  0
  4  5  1  0
  5  6  1  0
  6  7  1  0
  7  8  1  0
  7  9  1  0
  2 10  1  0
 10 11  1  0
 11 12  1  0
 12 13  1  0
 13 14  1  1
 13 15  1  0
 15 16  1  0
 16 17  1  0
 17 18  2  0
 18 19  1  0
 19 20  1  0
 20 21  1  0
 21 22  1  0
 22 23  1  0
 22 24  1  0
 24 25  1  0
 24 26  1  0
 19 27  1  0
 27 28  1  1
 27 29  1  0
 29 30  1  0
 30 31  1  0
 31 32  1  6
  7  5  1  0
 31 10  1  0
 31 13  1  0
 27 15  1  0
 24 18  1  0
  1 33  1  0
  1 34  1  0
  1 35  1  0
  2 36  1  6
  3 37  1  0
  3 38  1  0
  4 39  1  0
  4 40  1  0
  5 41  1  1
  8 42  1  0
  8 43  1  0
  8 44  1  0
  9 45  1  0
  9 46  1  0
  9 47  1  0
 10 48  1  6
 11 49  1  0
 11 50  1  0
 12 51  1  0
 12 52  1  0
 14 53  1  0
 14 54  1  0
 14 55  1  0
 15 56  1  1
 16 57  1  0
 16 58  1  0
 17 59  1  0
 19 60  1  6
 20 61  1  0
 20 62  1  0
 21 63  1  0
 21 64  1  0
 22 65  1  6
 23 66  1  0
 25 67  1  0
 25 68  1  0
 25 69  1  0
 26 70  1  0
 26 71  1  0
 26 72  1  0
 28 73  1  0
 28 74  1  0
 28 75  1  0
 29 76  1  0
 29 77  1  0
 30 78  1  0
 30 79  1  0
 32 80  1  0
 32 81  1  0
 32 82  1  0
M  END
>  <meeko>  (10) 
{"is_sidechain": [false], "intermolecular_energy": 2.731, "internal_energy": -0.839}

$$$$
EPH_relaxed_0001_pdb2pqr_Repair_38_r2_0001_out
     RDKit          3D

 82 86  0  0  0  0  0  0  0  0999 V2000
   -4.0680    7.0730   -3.1770 C   0  0  0  0  0  0  0  0  0  0  0  0
   -4.1900    7.3110   -1.6690 C   0  0  2  0  0  0  0  0  0  0  0  0
   -5.6560    7.2790   -1.1920 C   0  0  0  0  0  0  0  0  0  0  0  0
   -6.6710    7.5470   -2.3070 C   0  0  0  0  0  0  0  0  0  0  0  0
   -8.0090    7.9360   -1.7560 C   0  0  2  0  0  0  0  0  0  0  0  0
   -8.5720    6.9970   -0.8300 O   0  0  0  0  0  0  0  0  0  0  0  0
   -9.2910    7.1830   -2.0610 C   0  0  0  0  0  0  0  0  0  0  0  0
   -9.2960    5.9800   -2.9500 C   0  0  0  0  0  0  0  0  0  0  0  0
  -10.5960    7.8970   -1.8940 C   0  0  0  0  0  0  0  0  0  0  0  0
   -3.5500    8.6440   -1.3000 C   0  0  1  0  0  0  0  0  0  0  0  0
   -4.1150    9.2330    0.0210 C   0  0  0  0  0  0  0  0  0  0  0  0
   -2.9410    9.9580    0.7260 C   0  0  0  0  0  0  0  0  0  0  0  0
   -1.8360   10.0500   -0.3520 C   0  0  1  0  0  0  0  0  0  0  0  0
   -2.2330   11.2790   -1.2290 C   0  0  0  0  0  0  0  0  0  0  0  0
   -0.3670   10.1650    0.1720 C   0  0  2  0  0  0  0  0  0  0  0  0
   -0.0670   11.4260    1.0010 C   0  0  0  0  0  0  0  0  0  0  0  0
    0.4170   12.6030    0.2200 C   0  0  0  0  0  0  0  0  0  0  0  0
    0.8750   12.5670   -1.0460 C   0  0  0  0  0  0  0  0  0  0  0  0
    1.0300   11.2340   -1.7890 C   0  0  1  0  0  0  0  0  0  0  0  0
    2.4130   11.1900   -2.4910 C   0  0  0  0  0  0  0  0  0  0  0  0
    2.6470   12.3950   -3.3970 C   0  0  0  0  0  0  0  0  0  0  0  0
    2.5420   13.6990   -2.6100 C   0  0  2  0  0  0  0  0  0  0  0  0
    3.6270   13.7640   -1.6790 O   0  0  0  0  0  0  0  0  0  0  0  0
    1.1940   13.8500   -1.8520 C   0  0  0  0  0  0  0  0  0  0  0  0
    0.0490   14.0820   -2.8690 C   0  0  0  0  0  0  0  0  0  0  0  0
    1.2740   15.1360   -0.9870 C   0  0  0  0  0  0  0  0  0  0  0  0
    0.7370    9.9260   -0.9360 C   0  0  1  0  0  0  0  0  0  0  0  0
    2.0300    9.4790   -0.1870 C   0  0  0  0  0  0  0  0  0  0  0  0
    0.3600    8.7490   -1.9120 C   0  0  0  0  0  0  0  0  0  0  0  0
   -1.1250    8.6150   -2.2980 C   0  0  0  0  0  0  0  0  0  0  0  0
   -2.0210    8.6560   -1.0550 C   0  0  2  0  0  0  0  0  0  0  0  0
   -1.6590    7.4190   -0.1640 C   0  0  0  0  0  0  0  0  0  0  0  0
   -3.5730    6.1073   -3.3569 H   0  0  0  0  0  0  0  0  0  0  0  0
   -5.0710    7.0607   -3.6286 H   0  0  0  0  0  0  0  0  0  0  0  0
   -3.4724    7.8801   -3.6286 H   0  0  0  0  0  0  0  0  0  0  0  0
   -3.6607    6.4915   -1.1608 H   0  0  0  0  0  0  0  0  0  0  0  0
   -5.8614    6.2856   -0.7665 H   0  0  0  0  0  0  0  0  0  0  0  0
   -5.7712    8.0841   -0.4514 H   0  0  0  0  0  0  0  0  0  0  0  0
   -6.2959    8.3631   -2.9420 H   0  0  0  0  0  0  0  0  0  0  0  0
   -6.7951    6.6211   -2.8878 H   0  0  0  0  0  0  0  0  0  0  0  0
   -7.7485    9.0031   -1.8143 H   0  0  0  0  0  0  0  0  0  0  0  0
   -9.2998    5.0688   -2.3338 H   0  0  0  0  0  0  0  0  0  0  0  0
  -10.1941    5.9970   -3.5849 H   0  0  0  0  0  0  0  0  0  0  0  0
   -8.3978    5.9896   -3.5849 H   0  0  0  0  0  0  0  0  0  0  0  0
  -10.8142    8.0164   -0.8225 H   0  0  0  0  0  0  0  0  0  0  0  0
  -10.5353    8.8876   -2.3684 H   0  0  0  0  0  0  0  0  0  0  0  0
  -11.3975    7.3117   -2.3684 H   0  0  0  0  0  0  0  0  0  0  0  0
   -3.7905    9.2200   -2.2058 H   0  0  0  0  0  0  0  0  0  0  0  0
   -4.9238    9.9458   -0.1976 H   0  0  0  0  0  0  0  0  0  0  0  0
   -4.5306    8.4404    0.6606 H   0  0  0  0  0  0  0  0  0  0  0  0
   -3.2464   10.9620    1.0558 H   0  0  0  0  0  0  0  0  0  0  0  0
   -2.6020    9.4251    1.6266 H   0  0  0  0  0  0  0  0  0  0  0  0
   -2.5053   12.1220   -0.5770 H   0  0  0  0  0  0  0  0  0  0  0  0
   -1.3820   11.5665   -1.8640 H   0  0  0  0  0  0  0  0  0  0  0  0
   -3.0914   11.0144   -1.8640 H   0  0  0  0  0  0  0  0  0  0  0  0
   -0.3010    9.3220    0.8755 H   0  0  0  0  0  0  0  0  0  0  0  0
   -0.9915   11.7194    1.5199 H   0  0  0  0  0  0  0  0  0  0  0  0
    0.7534   11.1545    1.6816 H   0  0  0  0  0  0  0  0  0  0  0  0
    0.3979   13.5821    0.7209 H   0  0  0  0  0  0  0  0  0  0  0  0
    0.2282   11.2110   -2.5417 H   0  0  0  0  0  0  0  0  0  0  0  0
    3.1987   11.1694   -1.7214 H   0  0  0  0  0  0  0  0  0  0  0  0
    2.4397   10.2884   -3.1205 H   0  0  0  0  0  0  0  0  0  0  0  0
    3.6510   12.3222   -3.8405 H   0  0  0  0  0  0  0  0  0  0  0  0
    1.8779   12.3971   -4.1835 H   0  0  0  0  0  0  0  0  0  0  0  0
    2.5892   14.5259   -3.3339 H   0  0  0  0  0  0  0  0  0  0  0  0
    3.7990   14.7020   -1.4920 H   0  0  0  0  0  0  0  0  0  0  0  0
   -0.8894   14.2721   -2.3275 H   0  0  0  0  0  0  0  0  0  0  0  0
    0.2900   14.9496   -3.5009 H   0  0  0  0  0  0  0  0  0  0  0  0
   -0.0667   13.1891   -3.5009 H   0  0  0  0  0  0  0  0  0  0  0  0
    1.2570   14.8629    0.0784 H   0  0  0  0  0  0  0  0  0  0  0  0
    2.2073   15.6725   -1.2132 H   0  0  0  0  0  0  0  0  0  0  0  0
    0.4144   15.7841   -1.2132 H   0  0  0  0  0  0  0  0  0  0  0  0
    1.8633    9.5366    0.8988 H   0  0  0  0  0  0  0  0  0  0  0  0
    2.2759    8.4437   -0.4658 H   0  0  0  0  0  0  0  0  0  0  0  0
    2.8628   10.1414   -0.4658 H   0  0  0  0  0  0  0  0  0  0  0  0
    0.9336    8.8897   -2.8400 H   0  0  0  0  0  0  0  0  0  0  0  0
    0.5974    7.8288   -1.3581 H   0  0  0  0  0  0  0  0  0  0  0  0
   -1.3992    9.4442   -2.9667 H   0  0  0  0  0  0  0  0  0  0  0  0
   -1.2702    7.6487   -2.8032 H   0  0  0  0  0  0  0  0  0  0  0  0
   -1.7399    7.6955    0.8976 H   0  0  0  0  0  0  0  0  0  0  0  0
   -2.3535    6.5943   -0.3820 H   0  0  0  0  0  0  0  0  0  0  0  0
   -0.6295    7.0988   -0.3820 H   0  0  0  0  0  0  0  0  0  0  0  0
  1  2  1  0
  2  3  1  0
  3  4  1  0
  4  5  1  0
  5  6  1  0
  6  7  1  0
  7  8  1  0
  7  9  1  0
  2 10  1  0
 10 11  1  0
 11 12  1  0
 12 13  1  0
 13 14  1  6
 13 15  1  0
 15 16  1  0
 16 17  1  0
 17 18  2  0
 18 19  1  0
 19 20  1  0
 20 21  1  0
 21 22  1  0
 22 23  1  0
 22 24  1  0
 24 25  1  0
 24 26  1  0
 19 27  1  0
 27 28  1  1
 27 29  1  0
 29 30  1  0
 30 31  1  0
 31 32  1  1
  7  5  1  0
 31 10  1  0
 31 13  1  0
 27 15  1  0
 24 18  1  0
  1 33  1  0
  1 34  1  0
  1 35  1  0
  2 36  1  1
  3 37  1  0
  3 38  1  0
  4 39  1  0
  4 40  1  0
  5 41  1  1
  8 42  1  0
  8 43  1  0
  8 44  1  0
  9 45  1  0
  9 46  1  0
  9 47  1  0
 10 48  1  6
 11 49  1  0
 11 50  1  0
 12 51  1  0
 12 52  1  0
 14 53  1  0
 14 54  1  0
 14 55  1  0
 15 56  1  1
 16 57  1  0
 16 58  1  0
 17 59  1  0
 19 60  1  6
 20 61  1  0
 20 62  1  0
 21 63  1  0
 21 64  1  0
 22 65  1  6
 23 66  1  0
 25 67  1  0
 25 68  1  0
 25 69  1  0
 26 70  1  0
 26 71  1  0
 26 72  1  0
 28 73  1  0
 28 74  1  0
 28 75  1  0
 29 76  1  0
 29 77  1  0
 30 78  1  0
 30 79  1  0
 32 80  1  0
 32 81  1  0
 32 82  1  0
M  END
>  <meeko>  (11) 
{"is_sidechain": [false], "intermolecular_energy": 2.731, "internal_energy": -0.839}

$$$$
EPH_relaxed_0001_pdb2pqr_Repair_38_r2_0001_out
     RDKit          3D

 82 86  0  0  0  0  0  0  0  0999 V2000
    0.8810   14.9360   -2.6750 C   0  0  0  0  0  0  0  0  0  0  0  0
    1.1500   14.2570   -4.0210 C   0  0  2  0  0  0  0  0  0  0  0  0
    0.4400   14.9760   -5.1860 C   0  0  0  0  0  0  0  0  0  0  0  0
    0.9880   14.6010   -6.5660 C   0  0  0  0  0  0  0  0  0  0  0  0
    0.7600   15.6920   -7.5680 C   0  0  2  0  0  0  0  0  0  0  0  0
    0.3980   15.2360   -8.8780 O   0  0  0  0  0  0  0  0  0  0  0  0
    1.6550   15.9240   -8.7710 C   0  0  0  0  0  0  0  0  0  0  0  0
    2.8470   15.0580   -9.0340 C   0  0  0  0  0  0  0  0  0  0  0  0
    1.6580   17.2770   -9.4100 C   0  0  0  0  0  0  0  0  0  0  0  0
    0.7100   12.7980   -3.9650 C   0  0  1  0  0  0  0  0  0  0  0  0
    1.8360   11.8180   -4.3910 C   0  0  0  0  0  0  0  0  0  0  0  0
    1.6720   10.5450   -3.5210 C   0  0  0  0  0  0  0  0  0  0  0  0
    0.2780   10.6940   -2.8690 C   0  0  1  0  0  0  0  0  0  0  0  0
   -0.7300   10.2280   -3.9650 C   0  0  0  0  0  0  0  0  0  0  0  0
    0.0610    9.9310   -1.5220 C   0  0  2  0  0  0  0  0  0  0  0  0
    0.1730    8.3990   -1.6150 C   0  0  0  0  0  0  0  0  0  0  0  0
   -1.1050    7.6820   -1.9030 C   0  0  0  0  0  0  0  0  0  0  0  0
   -2.3390    8.2110   -1.7990 C   0  0  0  0  0  0  0  0  0  0  0  0
   -2.5440    9.6320   -1.2600 C   0  0  1  0  0  0  0  0  0  0  0  0
   -3.6910    9.6300   -0.2150 C   0  0  0  0  0  0  0  0  0  0  0  0
   -4.9790    9.0220   -0.7620 C   0  0  0  0  0  0  0  0  0  0  0  0
   -4.7480    7.5890   -1.2340 C   0  0  2  0  0  0  0  0  0  0  0  0
   -4.4470    6.7720   -0.0980 O   0  0  0  0  0  0  0  0  0  0  0  0
   -3.6070    7.4650   -2.2830 C   0  0  0  0  0  0  0  0  0  0  0  0
   -4.0600    8.0960   -3.6220 C   0  0  0  0  0  0  0  0  0  0  0  0
   -3.3820    5.9560   -2.5680 C   0  0  0  0  0  0  0  0  0  0  0  0
   -1.2380   10.3680   -0.7310 C   0  0  1  0  0  0  0  0  0  0  0  0
   -0.9920   10.0050    0.7650 C   0  0  0  0  0  0  0  0  0  0  0  0
   -1.4710   11.9250   -0.7770 C   0  0  0  0  0  0  0  0  0  0  0  0
   -1.1240   12.6400   -2.0970 C   0  0  0  0  0  0  0  0  0  0  0  0
    0.2710   12.2410   -2.5870 C   0  0  2  0  0  0  0  0  0  0  0  0
    1.3090   12.7170   -1.5150 C   0  0  0  0  0  0  0  0  0  0  0  0
    1.1523   14.2511   -1.8581 H   0  0  0  0  0  0  0  0  0  0  0  0
    1.4837   15.8531   -2.6000 H   0  0  0  0  0  0  0  0  0  0  0  0
   -0.1863   15.1915   -2.6000 H   0  0  0  0  0  0  0  0  0  0  0  0
    2.2325   14.3122   -4.2086 H   0  0  0  0  0  0  0  0  0  0  0  0
   -0.6286   14.7169   -5.1545 H   0  0  0  0  0  0  0  0  0  0  0  0
    0.6144   16.0539   -5.0528 H   0  0  0  0  0  0  0  0  0  0  0  0
    2.0688   14.4145   -6.4818 H   0  0  0  0  0  0  0  0  0  0  0  0
    0.4586   13.7011   -6.9123 H   0  0  0  0  0  0  0  0  0  0  0  0
    0.3898   16.3675   -6.7828 H   0  0  0  0  0  0  0  0  0  0  0  0
    3.2865   14.7387   -8.0775 H   0  0  0  0  0  0  0  0  0  0  0  0
    2.5374   14.1728   -9.6089 H   0  0  0  0  0  0  0  0  0  0  0  0
    3.5932   15.6260   -9.6089 H   0  0  0  0  0  0  0  0  0  0  0  0
    1.6597   18.0514   -8.6288 H   0  0  0  0  0  0  0  0  0  0  0  0
    2.5564   17.3851  -10.0355 H   0  0  0  0  0  0  0  0  0  0  0  0
    0.7601   17.3891  -10.0355 H   0  0  0  0  0  0  0  0  0  0  0  0
   -0.1521   12.8381   -4.6470 H   0  0  0  0  0  0  0  0  0  0  0  0
    1.7348   11.5645   -5.4566 H   0  0  0  0  0  0  0  0  0  0  0  0
    2.8287   12.2698   -4.2478 H   0  0  0  0  0  0  0  0  0  0  0  0
    1.7139    9.6402   -4.1452 H   0  0  0  0  0  0  0  0  0  0  0  0
    2.4730   10.4448   -2.7738 H   0  0  0  0  0  0  0  0  0  0  0  0
   -1.6281    9.8128   -3.4844 H   0  0  0  0  0  0  0  0  0  0  0  0
   -1.0131   11.0866   -4.5916 H   0  0  0  0  0  0  0  0  0  0  0  0
   -0.2594    9.4561   -4.5916 H   0  0  0  0  0  0  0  0  0  0  0  0
    0.9241   10.2586   -0.9239 H   0  0  0  0  0  0  0  0  0  0  0  0
    0.8859    8.1585   -2.4174 H   0  0  0  0  0  0  0  0  0  0  0  0
    0.4964    8.0567   -0.6209 H   0  0  0  0  0  0  0  0  0  0  0  0
   -1.0322    6.6334   -2.2274 H   0  0  0  0  0  0  0  0  0  0  0  0
   -2.8297   10.2470   -2.1261 H   0  0  0  0  0  0  0  0  0  0  0  0
   -3.3696    9.0466    0.6604 H   0  0  0  0  0  0  0  0  0  0  0  0
   -3.9022   10.6762    0.0514 H   0  0  0  0  0  0  0  0  0  0  0  0
   -5.7418    9.0215    0.0305 H   0  0  0  0  0  0  0  0  0  0  0  0
   -5.3153    9.6241   -1.6190 H   0  0  0  0  0  0  0  0  0  0  0  0
   -5.6698    7.2538   -1.7320 H   0  0  0  0  0  0  0  0  0  0  0  0
   -4.3250    7.3620    0.6650 H   0  0  0  0  0  0  0  0  0  0  0  0
   -4.6905    8.9742   -3.4188 H   0  0  0  0  0  0  0  0  0  0  0  0
   -3.1761    8.4049   -4.1994 H   0  0  0  0  0  0  0  0  0  0  0  0
   -4.6353    7.3573   -4.1994 H   0  0  0  0  0  0  0  0  0  0  0  0
   -3.3008    5.4112   -1.6159 H   0  0  0  0  0  0  0  0  0  0  0  0
   -4.2312    5.5612   -3.1451 H   0  0  0  0  0  0  0  0  0  0  0  0
   -2.4546    5.8261   -3.1451 H   0  0  0  0  0  0  0  0  0  0  0  0
   -1.4925   10.7435    1.4086 H   0  0  0  0  0  0  0  0  0  0  0  0
   -1.3985    9.0038    0.9710 H   0  0  0  0  0  0  0  0  0  0  0  0
    0.0885   10.0116    0.9710 H   0  0  0  0  0  0  0  0  0  0  0  0
   -2.5354   12.1086   -0.5687 H   0  0  0  0  0  0  0  0  0  0  0  0
   -0.7773   12.3423   -0.0323 H   0  0  0  0  0  0  0  0  0  0  0  0
   -1.8660   12.3648   -2.8610 H   0  0  0  0  0  0  0  0  0  0  0  0
   -1.1364   13.7258   -1.9212 H   0  0  0  0  0  0  0  0  0  0  0  0
    0.9068   12.5326   -0.5079 H   0  0  0  0  0  0  0  0  0  0  0  0
    2.2490   12.1600   -1.6421 H   0  0  0  0  0  0  0  0  0  0  0  0
    1.5002   13.7928   -1.6421 H   0  0  0  0  0  0  0  0  0  0  0  0
  1  2  1  0
  2  3  1  0
  3  4  1  0
  4  5  1  0
  5  6  1  0
  6  7  1  0
  7  8  1  0
  7  9  1  0
  2 10  1  0
 10 11  1  0
 11 12  1  0
 12 13  1  0
 13 14  1  6
 13 15  1  0
 15 16  1  0
 16 17  1  0
 17 18  2  0
 18 19  1  0
 19 20  1  0
 20 21  1  0
 21 22  1  0
 22 23  1  0
 22 24  1  0
 24 25  1  0
 24 26  1  0
 19 27  1  0
 27 28  1  1
 27 29  1  0
 29 30  1  0
 30 31  1  0
 31 32  1  1
  7  5  1  0
 31 10  1  0
 31 13  1  0
 27 15  1  0
 24 18  1  0
  1 33  1  0
  1 34  1  0
  1 35  1  0
  2 36  1  6
  3 37  1  0
  3 38  1  0
  4 39  1  0
  4 40  1  0
  5 41  1  1
  8 42  1  0
  8 43  1  0
  8 44  1  0
  9 45  1  0
  9 46  1  0
  9 47  1  0
 10 48  1  6
 11 49  1  0
 11 50  1  0
 12 51  1  0
 12 52  1  0
 14 53  1  0
 14 54  1  0
 14 55  1  0
 15 56  1  1
 16 57  1  0
 16 58  1  0
 17 59  1  0
 19 60  1  6
 20 61  1  0
 20 62  1  0
 21 63  1  0
 21 64  1  0
 22 65  1  6
 23 66  1  0
 25 67  1  0
 25 68  1  0
 25 69  1  0
 26 70  1  0
 26 71  1  0
 26 72  1  0
 28 73  1  0
 28 74  1  0
 28 75  1  0
 29 76  1  0
 29 77  1  0
 30 78  1  0
 30 79  1  0
 32 80  1  0
 32 81  1  0
 32 82  1  0
M  END
>  <meeko>  (12) 
{"is_sidechain": [false], "intermolecular_energy": 2.731, "internal_energy": -0.839}

$$$$
EPH_relaxed_0001_pdb2pqr_Repair_38_r2_0001_out
     RDKit          3D

 82 86  0  0  0  0  0  0  0  0999 V2000
   -2.3410    7.7970   -2.0000 C   0  0  0  0  0  0  0  0  0  0  0  0
   -2.5080    8.5070   -0.6530 C   0  0  2  0  0  0  0  0  0  0  0  0
   -3.9830    8.5760   -0.2110 C   0  0  0  0  0  0  0  0  0  0  0  0
   -4.8020    7.3430   -0.6050 C   0  0  0  0  0  0  0  0  0  0  0  0
   -5.6880    7.6190   -1.7820 C   0  0  2  0  0  0  0  0  0  0  0  0
   -6.3750    8.8770   -1.7320 O   0  0  0  0  0  0  0  0  0  0  0  0
   -7.2000    7.7020   -1.6890 C   0  0  0  0  0  0  0  0  0  0  0  0
   -7.9140    7.5060   -0.3880 C   0  0  0  0  0  0  0  0  0  0  0  0
   -8.0060    7.4850   -2.9320 C   0  0  0  0  0  0  0  0  0  0  0  0
   -1.9210    9.9120   -0.7310 C   0  0  1  0  0  0  0  0  0  0  0  0
   -1.4640   10.4460    0.6530 C   0  0  0  0  0  0  0  0  0  0  0  0
   -0.2040   11.3140    0.4040 C   0  0  0  0  0  0  0  0  0  0  0  0
   -0.1720   11.5240   -1.1280 C   0  0  1  0  0  0  0  0  0  0  0  0
   -1.1800   12.6860   -1.3950 C   0  0  0  0  0  0  0  0  0  0  0  0
    1.2290   11.8200   -1.7560 C   0  0  2  0  0  0  0  0  0  0  0  0
    1.8990   13.1180   -1.2740 C   0  0  0  0  0  0  0  0  0  0  0  0
    1.5910   14.3340   -2.0840 C   0  0  0  0  0  0  0  0  0  0  0  0
    1.0430   14.3360   -3.3130 C   0  0  0  0  0  0  0  0  0  0  0  0
    0.7640   13.0220   -4.0540 C   0  0  1  0  0  0  0  0  0  0  0  0
    1.2680   13.1350   -5.5170 C   0  0  0  0  0  0  0  0  0  0  0  0
    0.6920   14.3470   -6.2420 C   0  0  0  0  0  0  0  0  0  0  0  0
    1.0410   15.6390   -5.5070 C   0  0  2  0  0  0  0  0  0  0  0  0
    2.4550   15.8440   -5.5810 O   0  0  0  0  0  0  0  0  0  0  0  0
    0.5900   15.6380   -4.0190 C   0  0  0  0  0  0  0  0  0  0  0  0
   -0.9550   15.7190   -3.9440 C   0  0  0  0  0  0  0  0  0  0  0  0
    1.1260   16.9360   -3.3570 C   0  0  0  0  0  0  0  0  0  0  0  0
    1.2700   11.6990   -3.3340 C   0  0  1  0  0  0  0  0  0  0  0  0
    2.7550   11.4190   -3.7200 C   0  0  0  0  0  0  0  0  0  0  0  0
    0.4350   10.4740   -3.8620 C   0  0  0  0  0  0  0  0  0  0  0  0
   -0.8800   10.1600   -3.1250 C   0  0  0  0  0  0  0  0  0  0  0  0
   -0.6610   10.1090   -1.6100 C   0  0  2  0  0  0  0  0  0  0  0  0
    0.3320    8.9350   -1.3090 C   0  0  0  0  0  0  0  0  0  0  0  0
   -2.0922    6.7393   -1.8286 H   0  0  0  0  0  0  0  0  0  0  0  0
   -3.2797    7.8653   -2.5693 H   0  0  0  0  0  0  0  0  0  0  0  0
   -1.5311    8.2766   -2.5693 H   0  0  0  0  0  0  0  0  0  0  0  0
   -1.9656    7.9180    0.1012 H   0  0  0  0  0  0  0  0  0  0  0  0
   -4.0131    8.6776    0.8839 H   0  0  0  0  0  0  0  0  0  0  0  0
   -4.4327    9.4384   -0.7249 H   0  0  0  0  0  0  0  0  0  0  0  0
   -4.1132    6.5246   -0.8614 H   0  0  0  0  0  0  0  0  0  0  0  0
   -5.4403    7.0684    0.2478 H   0  0  0  0  0  0  0  0  0  0  0  0
   -5.0195    7.0539   -2.4482 H   0  0  0  0  0  0  0  0  0  0  0  0
   -7.2197    7.6966    0.4436 H   0  0  0  0  0  0  0  0  0  0  0  0
   -8.7612    8.2048   -0.3258 H   0  0  0  0  0  0  0  0  0  0  0  0
   -8.2857    6.4726   -0.3258 H   0  0  0  0  0  0  0  0  0  0  0  0
   -9.0348    7.2080   -2.6582 H   0  0  0  0  0  0  0  0  0  0  0  0
   -8.0212    8.4110   -3.5255 H   0  0  0  0  0  0  0  0  0  0  0  0
   -7.5542    6.6765   -3.5255 H   0  0  0  0  0  0  0  0  0  0  0  0
   -2.7754   10.4442   -1.1745 H   0  0  0  0  0  0  0  0  0  0  0  0
   -2.2602   11.0552    1.1056 H   0  0  0  0  0  0  0  0  0  0  0  0
   -1.2430    9.6178    1.3424 H   0  0  0  0  0  0  0  0  0  0  0  0
   -0.2872   12.2784    0.9266 H   0  0  0  0  0  0  0  0  0  0  0  0
    0.7129   10.8358    0.7789 H   0  0  0  0  0  0  0  0  0  0  0  0
   -1.5329   13.0929   -0.4359 H   0  0  0  0  0  0  0  0  0  0  0  0
   -0.6802   13.4804   -1.9686 H   0  0  0  0  0  0  0  0  0  0  0  0
   -2.0371   12.3034   -1.9686 H   0  0  0  0  0  0  0  0  0  0  0  0
    1.8449   11.0007   -1.3567 H   0  0  0  0  0  0  0  0  0  0  0  0
    1.5716   13.3060   -0.2408 H   0  0  0  0  0  0  0  0  0  0  0  0
    2.9826   12.9549   -1.3702 H   0  0  0  0  0  0  0  0  0  0  0  0
    1.8324   15.3104   -1.6386 H   0  0  0  0  0  0  0  0  0  0  0  0
   -0.3285   12.8939   -4.0450 H   0  0  0  0  0  0  0  0  0  0  0  0
    2.3648   13.2187   -5.5067 H   0  0  0  0  0  0  0  0  0  0  0  0
    0.9357   12.2350   -6.0551 H   0  0  0  0  0  0  0  0  0  0  0  0
    1.1070   14.3885   -7.2599 H   0  0  0  0  0  0  0  0  0  0  0  0
   -0.4029   14.2477   -6.2770 H   0  0  0  0  0  0  0  0  0  0  0  0
    0.4950   16.4569   -5.9998 H   0  0  0  0  0  0  0  0  0  0  0  0
    2.6910   16.5100   -4.9130 H   0  0  0  0  0  0  0  0  0  0  0  0
   -1.2706   15.7355   -2.8904 H   0  0  0  0  0  0  0  0  0  0  0  0
   -1.2988   16.6364   -4.4442 H   0  0  0  0  0  0  0  0  0  0  0  0
   -1.3928   14.8426   -4.4442 H   0  0  0  0  0  0  0  0  0  0  0  0
    1.0838   16.8338   -2.2626 H   0  0  0  0  0  0  0  0  0  0  0  0
    2.1671   17.1041   -3.6697 H   0  0  0  0  0  0  0  0  0  0  0  0
    0.5068   17.7897   -3.6697 H   0  0  0  0  0  0  0  0  0  0  0  0
    3.3563   11.3056   -2.8059 H   0  0  0  0  0  0  0  0  0  0  0  0
    2.8116   10.4944   -4.3132 H   0  0  0  0  0  0  0  0  0  0  0  0
    3.1444   12.2595   -4.3132 H   0  0  0  0  0  0  0  0  0  0  0  0
    0.1872   10.6697   -4.9157 H   0  0  0  0  0  0  0  0  0  0  0  0
    1.0755    9.5956   -3.6941 H   0  0  0  0  0  0  0  0  0  0  0  0
   -1.6175   10.9428   -3.3558 H   0  0  0  0  0  0  0  0  0  0  0  0
   -1.2436    9.1774   -3.4600 H   0  0  0  0  0  0  0  0  0  0  0  0
    0.4357    8.8124   -0.2208 H   0  0  0  0  0  0  0  0  0  0  0  0
   -0.0570    8.0042   -1.7474 H   0  0  0  0  0  0  0  0  0  0  0  0
    1.3145    9.1642   -1.7474 H   0  0  0  0  0  0  0  0  0  0  0  0
  1  2  1  0
  2  3  1  0
  3  4  1  0
  4  5  1  0
  5  6  1  0
  6  7  1  0
  7  8  1  0
  7  9  1  0
  2 10  1  0
 10 11  1  0
 11 12  1  0
 12 13  1  0
 13 14  1  1
 13 15  1  0
 15 16  1  0
 16 17  1  0
 17 18  2  0
 18 19  1  0
 19 20  1  0
 20 21  1  0
 21 22  1  0
 22 23  1  0
 22 24  1  0
 24 25  1  0
 24 26  1  0
 19 27  1  0
 27 28  1  6
 27 29  1  0
 29 30  1  0
 30 31  1  0
 31 32  1  6
  7  5  1  0
 31 10  1  0
 31 13  1  0
 27 15  1  0
 24 18  1  0
  1 33  1  0
  1 34  1  0
  1 35  1  0
  2 36  1  1
  3 37  1  0
  3 38  1  0
  4 39  1  0
  4 40  1  0
  5 41  1  6
  8 42  1  0
  8 43  1  0
  8 44  1  0
  9 45  1  0
  9 46  1  0
  9 47  1  0
 10 48  1  6
 11 49  1  0
 11 50  1  0
 12 51  1  0
 12 52  1  0
 14 53  1  0
 14 54  1  0
 14 55  1  0
 15 56  1  1
 16 57  1  0
 16 58  1  0
 17 59  1  0
 19 60  1  6
 20 61  1  0
 20 62  1  0
 21 63  1  0
 21 64  1  0
 22 65  1  6
 23 66  1  0
 25 67  1  0
 25 68  1  0
 25 69  1  0
 26 70  1  0
 26 71  1  0
 26 72  1  0
 28 73  1  0
 28 74  1  0
 28 75  1  0
 29 76  1  0
 29 77  1  0
 30 78  1  0
 30 79  1  0
 32 80  1  0
 32 81  1  0
 32 82  1  0
M  END
>  <meeko>  (13) 
{"is_sidechain": [false], "intermolecular_energy": 2.731, "internal_energy": -0.839}

$$$$
EPH_relaxed_0001_pdb2pqr_Repair_38_r2_0001_out
     RDKit          3D

 82 86  0  0  0  0  0  0  0  0999 V2000
    1.4650   10.7510   -4.8600 C   0  0  0  0  0  0  0  0  0  0  0  0
    0.8450   10.5790   -3.4700 C   0  0  2  0  0  0  0  0  0  0  0  0
   -0.2680    9.5120   -3.4590 C   0  0  0  0  0  0  0  0  0  0  0  0
   -0.0570    8.4140   -2.4130 C   0  0  0  0  0  0  0  0  0  0  0  0
    0.1690    8.9850   -1.0460 C   0  0  2  0  0  0  0  0  0  0  0  0
   -0.1870    8.1130    0.0340 O   0  0  0  0  0  0  0  0  0  0  0  0
   -0.9540    9.3220   -0.0840 C   0  0  0  0  0  0  0  0  0  0  0  0
   -2.3880    9.1000   -0.4500 C   0  0  0  0  0  0  0  0  0  0  0  0
   -0.6890   10.3130    1.0070 C   0  0  0  0  0  0  0  0  0  0  0  0
    0.2940   11.9120   -2.9780 C   0  0  1  0  0  0  0  0  0  0  0  0
   -1.0700   11.7640   -2.2530 C   0  0  0  0  0  0  0  0  0  0  0  0
   -1.0900   12.8210   -1.1190 C   0  0  0  0  0  0  0  0  0  0  0  0
    0.1030   13.7540   -1.4330 C   0  0  1  0  0  0  0  0  0  0  0  0
   -0.4310   14.7320   -2.5260 C   0  0  0  0  0  0  0  0  0  0  0  0
    0.7160   14.5240   -0.2190 C   0  0  2  0  0  0  0  0  0  0  0  0
   -0.2390   15.5050    0.4820 C   0  0  0  0  0  0  0  0  0  0  0  0
   -0.2250   16.9000   -0.0500 C   0  0  0  0  0  0  0  0  0  0  0  0
    0.7210   17.4200   -0.8540 C   0  0  0  0  0  0  0  0  0  0  0  0
    1.9680   16.6100   -1.2300 C   0  0  1  0  0  0  0  0  0  0  0  0
    3.2310   17.4960   -1.0650 C   0  0  0  0  0  0  0  0  0  0  0  0
    3.1310   18.8070   -1.8390 C   0  0  0  0  0  0  0  0  0  0  0  0
    1.9110   19.6110   -1.3960 C   0  0  2  0  0  0  0  0  0  0  0  0
    2.1050   20.0350   -0.0430 O   0  0  0  0  0  0  0  0  0  0  0  0
    0.5800   18.8160   -1.5090 C   0  0  0  0  0  0  0  0  0  0  0  0
    0.2170   18.6190   -3.0010 C   0  0  0  0  0  0  0  0  0  0  0  0
   -0.5500   19.6890   -0.8990 C   0  0  0  0  0  0  0  0  0  0  0  0
    2.1170   15.1960   -0.5190 C   0  0  1  0  0  0  0  0  0  0  0  0
    2.8330   15.3650    0.8560 C   0  0  0  0  0  0  0  0  0  0  0  0
    3.0470   14.2760   -1.3940 C   0  0  0  0  0  0  0  0  0  0  0  0
    2.3650   13.4490   -2.5010 C   0  0  0  0  0  0  0  0  0  0  0  0
    1.1470   12.6990   -1.9520 C   0  0  2  0  0  0  0  0  0  0  0  0
    1.6550   11.6910   -0.8660 C   0  0  0  0  0  0  0  0  0  0  0  0
    2.5203   11.0438   -4.7571 H   0  0  0  0  0  0  0  0  0  0  0  0
    1.4001    9.8009   -5.4106 H   0  0  0  0  0  0  0  0  0  0  0  0
    0.9199   11.5318   -5.4106 H   0  0  0  0  0  0  0  0  0  0  0  0
    1.6403   10.2333   -2.7932 H   0  0  0  0  0  0  0  0  0  0  0  0
   -1.2257   10.0112   -3.2503 H   0  0  0  0  0  0  0  0  0  0  0  0
   -0.2555    9.0239   -4.4447 H   0  0  0  0  0  0  0  0  0  0  0  0
   -0.9487    7.7704   -2.3873 H   0  0  0  0  0  0  0  0  0  0  0  0
    0.8370    7.8389   -2.6959 H   0  0  0  0  0  0  0  0  0  0  0  0
    1.0312    9.5655   -1.4059 H   0  0  0  0  0  0  0  0  0  0  0  0
   -2.9900    9.0068    0.4659 H   0  0  0  0  0  0  0  0  0  0  0  0
   -2.7514    9.9526   -1.0425 H   0  0  0  0  0  0  0  0  0  0  0  0
   -2.4766    8.1774   -1.0425 H   0  0  0  0  0  0  0  0  0  0  0  0
   -0.8193    9.8257    1.9845 H   0  0  0  0  0  0  0  0  0  0  0  0
    0.3411   10.6886    0.9189 H   0  0  0  0  0  0  0  0  0  0  0  0
   -1.3942   11.1526    0.9189 H   0  0  0  0  0  0  0  0  0  0  0  0
    0.2547   12.4583   -3.9319 H   0  0  0  0  0  0  0  0  0  0  0  0
   -1.8951   11.9477   -2.9568 H   0  0  0  0  0  0  0  0  0  0  0  0
   -1.1947   10.7485   -1.8490 H   0  0  0  0  0  0  0  0  0  0  0  0
   -2.0355   13.3831   -1.1289 H   0  0  0  0  0  0  0  0  0  0  0  0
   -1.0104   12.3639   -0.1217 H   0  0  0  0  0  0  0  0  0  0  0  0
   -0.9045   15.5991   -2.0424 H   0  0  0  0  0  0  0  0  0  0  0  0
    0.4059   15.0735   -3.1529 H   0  0  0  0  0  0  0  0  0  0  0  0
   -1.1707   14.2126   -3.1529 H   0  0  0  0  0  0  0  0  0  0  0  0
    0.8973   13.7160    0.5051 H   0  0  0  0  0  0  0  0  0  0  0  0
   -1.2620   15.1134    0.3817 H   0  0  0  0  0  0  0  0  0  0  0  0
    0.1068   15.5736    1.5240 H   0  0  0  0  0  0  0  0  0  0  0  0
   -1.0576   17.5580    0.2394 H   0  0  0  0  0  0  0  0  0  0  0  0
    1.8427   16.3325   -2.2870 H   0  0  0  0  0  0  0  0  0  0  0  0
    3.3634   17.7260    0.0025 H   0  0  0  0  0  0  0  0  0  0  0  0
    4.0873   16.9350   -1.4675 H   0  0  0  0  0  0  0  0  0  0  0  0
    4.0387   19.4016   -1.6587 H   0  0  0  0  0  0  0  0  0  0  0  0
    3.0289   18.5756   -2.9095 H   0  0  0  0  0  0  0  0  0  0  0  0
    1.8199   20.4731   -2.0731 H   0  0  0  0  0  0  0  0  0  0  0  0
    2.2510   20.9960   -0.0540 H   0  0  0  0  0  0  0  0  0  0  0  0
   -0.7474   18.0956   -3.0777 H   0  0  0  0  0  0  0  0  0  0  0  0
    0.1419   19.6001   -3.4927 H   0  0  0  0  0  0  0  0  0  0  0  0
    0.9987   18.0213   -3.4927 H   0  0  0  0  0  0  0  0  0  0  0  0
   -0.4944   19.6461    0.1988 H   0  0  0  0  0  0  0  0  0  0  0  0
   -0.4289   20.7304   -1.2318 H   0  0  0  0  0  0  0  0  0  0  0  0
   -1.5271   19.3089   -1.2318 H   0  0  0  0  0  0  0  0  0  0  0  0
    2.1114   15.1947    1.6686 H   0  0  0  0  0  0  0  0  0  0  0  0
    3.6527   14.6356    0.9347 H   0  0  0  0  0  0  0  0  0  0  0  0
    3.2400   16.3839    0.9347 H   0  0  0  0  0  0  0  0  0  0  0  0
    3.7961   14.9220   -1.8752 H   0  0  0  0  0  0  0  0  0  0  0  0
    3.4586   13.5344   -0.6936 H   0  0  0  0  0  0  0  0  0  0  0  0
    2.0393   14.1242   -3.3060 H   0  0  0  0  0  0  0  0  0  0  0  0
    3.0869   12.7132   -2.8850 H   0  0  0  0  0  0  0  0  0  0  0  0
    1.4503   12.0971    0.1356 H   0  0  0  0  0  0  0  0  0  0  0  0
    1.1337   10.7298   -0.9855 H   0  0  0  0  0  0  0  0  0  0  0  0
    2.7378   11.5382   -0.9855 H   0  0  0  0  0  0  0  0  0  0  0  0
  1  2  1  0
  2  3  1  0
  3  4  1  0
  4  5  1  0
  5  6  1  0
  6  7  1  0
  7  8  1  0
  7  9  1  0
  2 10  1  0
 10 11  1  0
 11 12  1  0
 12 13  1  0
 13 14  1  6
 13 15  1  0
 15 16  1  0
 16 17  1  0
 17 18  2  0
 18 19  1  0
 19 20  1  0
 20 21  1  0
 21 22  1  0
 22 23  1  0
 22 24  1  0
 24 25  1  0
 24 26  1  0
 19 27  1  0
 27 28  1  1
 27 29  1  0
 29 30  1  0
 30 31  1  0
 31 32  1  1
  7  5  1  0
 31 10  1  0
 31 13  1  0
 27 15  1  0
 24 18  1  0
  1 33  1  0
  1 34  1  0
  1 35  1  0
  2 36  1  1
  3 37  1  0
  3 38  1  0
  4 39  1  0
  4 40  1  0
  5 41  1  1
  8 42  1  0
  8 43  1  0
  8 44  1  0
  9 45  1  0
  9 46  1  0
  9 47  1  0
 10 48  1  6
 11 49  1  0
 11 50  1  0
 12 51  1  0
 12 52  1  0
 14 53  1  0
 14 54  1  0
 14 55  1  0
 15 56  1  1
 16 57  1  0
 16 58  1  0
 17 59  1  0
 19 60  1  6
 20 61  1  0
 20 62  1  0
 21 63  1  0
 21 64  1  0
 22 65  1  6
 23 66  1  0
 25 67  1  0
 25 68  1  0
 25 69  1  0
 26 70  1  0
 26 71  1  0
 26 72  1  0
 28 73  1  0
 28 74  1  0
 28 75  1  0
 29 76  1  0
 29 77  1  0
 30 78  1  0
 30 79  1  0
 32 80  1  0
 32 81  1  0
 32 82  1  0
M  END
>  <meeko>  (14) 
{"is_sidechain": [false], "intermolecular_energy": 2.731, "internal_energy": -0.839}

$$$$
EPH_relaxed_0001_pdb2pqr_Repair_38_r2_0001_out
     RDKit          3D

 82 86  0  0  0  0  0  0  0  0999 V2000
    0.5070    7.9510   -2.4980 C   0  0  0  0  0  0  0  0  0  0  0  0
   -0.9000    8.2910   -1.9990 C   0  0  2  0  0  0  0  0  0  0  0  0
   -1.9970    7.7230   -2.9230 C   0  0  0  0  0  0  0  0  0  0  0  0
   -3.2610    7.2840   -2.1800 C   0  0  0  0  0  0  0  0  0  0  0  0
   -4.2220    6.5790   -3.0890 C   0  0  2  0  0  0  0  0  0  0  0  0
   -4.9380    7.4390   -3.9860 O   0  0  0  0  0  0  0  0  0  0  0  0
   -5.7280    6.7460   -3.0060 C   0  0  0  0  0  0  0  0  0  0  0  0
   -6.3590    7.6430   -1.9870 C   0  0  0  0  0  0  0  0  0  0  0  0
   -6.5990    5.6740   -3.5830 C   0  0  0  0  0  0  0  0  0  0  0  0
   -1.0560    9.8010   -1.8730 C   0  0  1  0  0  0  0  0  0  0  0  0
   -2.5030   10.2240   -1.5040 C   0  0  0  0  0  0  0  0  0  0  0  0
   -2.3860   11.4690   -0.5870 C   0  0  0  0  0  0  0  0  0  0  0  0
   -0.9130   11.9180   -0.7270 C   0  0  1  0  0  0  0  0  0  0  0  0
   -0.8670   12.7360   -2.0560 C   0  0  0  0  0  0  0  0  0  0  0  0
   -0.3210   12.7300    0.4710 C   0  0  2  0  0  0  0  0  0  0  0  0
   -1.0090   14.0790    0.7480 C   0  0  0  0  0  0  0  0  0  0  0  0
   -0.4260   15.2510    0.0310 C   0  0  0  0  0  0  0  0  0  0  0  0
    0.7760   15.2780   -0.5760 C   0  0  0  0  0  0  0  0  0  0  0  0
    1.7270   14.0770   -0.4940 C   0  0  1  0  0  0  0  0  0  0  0  0
    3.1560   14.5710   -0.1510 C   0  0  0  0  0  0  0  0  0  0  0  0
    3.6520   15.6440   -1.1150 C   0  0  0  0  0  0  0  0  0  0  0  0
    2.7120   16.8460   -1.1250 C   0  0  2  0  0  0  0  0  0  0  0  0
    2.7730   17.4890    0.1520 O   0  0  0  0  0  0  0  0  0  0  0  0
    1.2390   16.4690   -1.4500 C   0  0  0  0  0  0  0  0  0  0  0  0
    1.1250   16.0540   -2.9380 C   0  0  0  0  0  0  0  0  0  0  0  0
    0.3730   17.7470   -1.2880 C   0  0  0  0  0  0  0  0  0  0  0  0
    1.2540   12.8800    0.4380 C   0  0  1  0  0  0  0  0  0  0  0  0
    1.7070   13.1390    1.9080 C   0  0  0  0  0  0  0  0  0  0  0  0
    1.9710   11.5560   -0.0210 C   0  0  0  0  0  0  0  0  0  0  0  0
    1.2770   10.7360   -1.1250 C   0  0  0  0  0  0  0  0  0  0  0  0
   -0.2030   10.5170   -0.7960 C   0  0  2  0  0  0  0  0  0  0  0  0
   -0.2810    9.6770    0.5250 C   0  0  0  0  0  0  0  0  0  0  0  0
    1.1725    7.7902   -1.6370 H   0  0  0  0  0  0  0  0  0  0  0  0
    0.4687    7.0363   -3.1077 H   0  0  0  0  0  0  0  0  0  0  0  0
    0.8906    8.7823   -3.1077 H   0  0  0  0  0  0  0  0  0  0  0  0
   -1.0235    7.8211   -1.0121 H   0  0  0  0  0  0  0  0  0  0  0  0
   -2.2742    8.4996   -3.6510 H   0  0  0  0  0  0  0  0  0  0  0  0
   -1.5793    6.8264   -3.4042 H   0  0  0  0  0  0  0  0  0  0  0  0
   -2.9766    6.6028   -1.3645 H   0  0  0  0  0  0  0  0  0  0  0  0
   -3.7576    8.1835   -1.7873 H   0  0  0  0  0  0  0  0  0  0  0  0
   -3.5790    5.6869   -3.1160 H   0  0  0  0  0  0  0  0  0  0  0  0
   -6.1074    7.2853   -0.9777 H   0  0  0  0  0  0  0  0  0  0  0  0
   -5.9820    8.6681   -2.1173 H   0  0  0  0  0  0  0  0  0  0  0  0
   -7.4512    7.6346   -2.1173 H   0  0  0  0  0  0  0  0  0  0  0  0
   -7.0644    5.1012   -2.7674 H   0  0  0  0  0  0  0  0  0  0  0  0
   -7.3834    6.1329   -4.2028 H   0  0  0  0  0  0  0  0  0  0  0  0
   -5.9892    5.0002   -4.2028 H   0  0  0  0  0  0  0  0  0  0  0  0
   -0.7260   10.1042   -2.8776 H   0  0  0  0  0  0  0  0  0  0  0  0
   -3.0676   10.4756   -2.4139 H   0  0  0  0  0  0  0  0  0  0  0  0
   -3.0351    9.4072   -0.9944 H   0  0  0  0  0  0  0  0  0  0  0  0
   -3.0681   12.2641   -0.9225 H   0  0  0  0  0  0  0  0  0  0  0  0
   -2.6576   11.2468    0.4555 H   0  0  0  0  0  0  0  0  0  0  0  0
   -0.8066   13.8095   -1.8239 H   0  0  0  0  0  0  0  0  0  0  0  0
    0.0157   12.4370   -2.6402 H   0  0  0  0  0  0  0  0  0  0  0  0
   -1.7777   12.5378   -2.6402 H   0  0  0  0  0  0  0  0  0  0  0  0
   -0.5618   12.0892    1.3320 H   0  0  0  0  0  0  0  0  0  0  0  0
   -2.0644   13.9896    0.4512 H   0  0  0  0  0  0  0  0  0  0  0  0
   -0.8684   14.2777    1.8207 H   0  0  0  0  0  0  0  0  0  0  0  0
   -1.0289   16.1704   -0.0047 H   0  0  0  0  0  0  0  0  0  0  0  0
    1.7215   13.6159   -1.4927 H   0  0  0  0  0  0  0  0  0  0  0  0
    3.1501   14.9874    0.8671 H   0  0  0  0  0  0  0  0  0  0  0  0
    3.8352   13.7096   -0.2326 H   0  0  0  0  0  0  0  0  0  0  0  0
    4.6539   15.9733   -0.8023 H   0  0  0  0  0  0  0  0  0  0  0  0
    3.6858   15.2168   -2.1281 H   0  0  0  0  0  0  0  0  0  0  0  0
    3.0474   17.5207   -1.9264 H   0  0  0  0  0  0  0  0  0  0  0  0
    2.2410   18.3010    0.0980 H   0  0  0  0  0  0  0  0  0  0  0  0
    0.8341   14.9951   -3.0021 H   0  0  0  0  0  0  0  0  0  0  0  0
    0.3639   16.6740   -3.4343 H   0  0  0  0  0  0  0  0  0  0  0  0
    2.0960   16.1982   -3.4343 H   0  0  0  0  0  0  0  0  0  0  0  0
    0.2292   17.9593   -0.2183 H   0  0  0  0  0  0  0  0  0  0  0  0
    0.8816   18.5975   -1.7654 H   0  0  0  0  0  0  0  0  0  0  0  0
   -0.6054   17.5899   -1.7654 H   0  0  0  0  0  0  0  0  0  0  0  0
    0.9650   12.7148    2.6005 H   0  0  0  0  0  0  0  0  0  0  0  0
    2.6835   12.6627    2.0801 H   0  0  0  0  0  0  0  0  0  0  0  0
    1.7919   14.2221    2.0801 H   0  0  0  0  0  0  0  0  0  0  0  0
    2.9709   11.8296   -0.3888 H   0  0  0  0  0  0  0  0  0  0  0  0
    1.9675   10.9050    0.8657 H   0  0  0  0  0  0  0  0  0  0  0  0
    1.3574   11.2768   -2.0795 H   0  0  0  0  0  0  0  0  0  0  0  0
    1.7697    9.7551   -1.1960 H   0  0  0  0  0  0  0  0  0  0  0  0
   -0.2184   10.3508    1.3922 H   0  0  0  0  0  0  0  0  0  0  0  0
   -1.2340    9.1284    0.5549 H   0  0  0  0  0  0  0  0  0  0  0  0
    0.5546    8.9623    0.5549 H   0  0  0  0  0  0  0  0  0  0  0  0
  1  2  1  0
  2  3  1  0
  3  4  1  0
  4  5  1  0
  5  6  1  0
  6  7  1  0
  7  8  1  0
  7  9  1  0
  2 10  1  0
 10 11  1  0
 11 12  1  0
 12 13  1  0
 13 14  1  6
 13 15  1  0
 15 16  1  0
 16 17  1  0
 17 18  2  0
 18 19  1  0
 19 20  1  0
 20 21  1  0
 21 22  1  0
 22 23  1  0
 22 24  1  0
 24 25  1  0
 24 26  1  0
 19 27  1  0
 27 28  1  1
 27 29  1  0
 29 30  1  0
 30 31  1  0
 31 32  1  1
  7  5  1  0
 31 10  1  0
 31 13  1  0
 27 15  1  0
 24 18  1  0
  1 33  1  0
  1 34  1  0
  1 35  1  0
  2 36  1  1
  3 37  1  0
  3 38  1  0
  4 39  1  0
  4 40  1  0
  5 41  1  6
  8 42  1  0
  8 43  1  0
  8 44  1  0
  9 45  1  0
  9 46  1  0
  9 47  1  0
 10 48  1  6
 11 49  1  0
 11 50  1  0
 12 51  1  0
 12 52  1  0
 14 53  1  0
 14 54  1  0
 14 55  1  0
 15 56  1  1
 16 57  1  0
 16 58  1  0
 17 59  1  0
 19 60  1  6
 20 61  1  0
 20 62  1  0
 21 63  1  0
 21 64  1  0
 22 65  1  6
 23 66  1  0
 25 67  1  0
 25 68  1  0
 25 69  1  0
 26 70  1  0
 26 71  1  0
 26 72  1  0
 28 73  1  0
 28 74  1  0
 28 75  1  0
 29 76  1  0
 29 77  1  0
 30 78  1  0
 30 79  1  0
 32 80  1  0
 32 81  1  0
 32 82  1  0
M  END
>  <meeko>  (15) 
{"is_sidechain": [false], "intermolecular_energy": 2.731, "internal_energy": -0.839}

$$$$
EPH_relaxed_0001_pdb2pqr_Repair_38_r2_0001_out
     RDKit          3D

 82 86  0  0  0  0  0  0  0  0999 V2000
    1.0170   14.7670   -5.1540 C   0  0  0  0  0  0  0  0  0  0  0  0
    0.4690   14.3590   -3.7840 C   0  0  2  0  0  0  0  0  0  0  0  0
    1.4480   14.7000   -2.6420 C   0  0  0  0  0  0  0  0  0  0  0  0
    1.5770   16.2010   -2.3690 C   0  0  0  0  0  0  0  0  0  0  0  0
    2.1870   16.4690   -1.0270 C   0  0  2  0  0  0  0  0  0  0  0  0
    1.2920   17.0460   -0.0670 O   0  0  0  0  0  0  0  0  0  0  0  0
    2.4020   17.8640   -0.4700 C   0  0  0  0  0  0  0  0  0  0  0  0
    2.0090   19.0830   -1.2450 C   0  0  0  0  0  0  0  0  0  0  0  0
    3.4290   18.0560    0.6020 C   0  0  0  0  0  0  0  0  0  0  0  0
    0.1540   12.8680   -3.7730 C   0  0  1  0  0  0  0  0  0  0  0  0
    1.3800   11.9960   -4.1540 C   0  0  0  0  0  0  0  0  0  0  0  0
    1.2830   10.6960   -3.3150 C   0  0  0  0  0  0  0  0  0  0  0  0
   -0.1510   10.7130   -2.7340 C   0  0  1  0  0  0  0  0  0  0  0  0
   -1.0580   10.1850   -3.8890 C   0  0  0  0  0  0  0  0  0  0  0  0
   -0.3710    9.9070   -1.4130 C   0  0  2  0  0  0  0  0  0  0  0  0
   -0.1230    8.3930   -1.5230 C   0  0  0  0  0  0  0  0  0  0  0  0
   -1.3180    7.5760   -1.8890 C   0  0  0  0  0  0  0  0  0  0  0  0
   -2.5960    7.9960   -1.8420 C   0  0  0  0  0  0  0  0  0  0  0  0
   -2.9500    9.3840   -1.2930 C   0  0  1  0  0  0  0  0  0  0  0  0
   -4.1440    9.2630   -0.3110 C   0  0  0  0  0  0  0  0  0  0  0  0
   -5.3450    8.5580   -0.9340 C   0  0  0  0  0  0  0  0  0  0  0  0
   -4.9680    7.1600   -1.4160 C   0  0  2  0  0  0  0  0  0  0  0  0
   -4.6580    6.3490   -0.2780 O   0  0  0  0  0  0  0  0  0  0  0  0
   -3.7690    7.1550   -2.4040 C   0  0  0  0  0  0  0  0  0  0  0  0
   -4.2060    7.7710   -3.7560 C   0  0  0  0  0  0  0  0  0  0  0  0
   -3.4010    5.6760   -2.7010 C   0  0  0  0  0  0  0  0  0  0  0  0
   -1.7410   10.2170   -0.6850 C   0  0  1  0  0  0  0  0  0  0  0  0
   -1.5420    9.8460    0.8170 C   0  0  0  0  0  0  0  0  0  0  0  0
   -2.1040   11.7490   -0.7190 C   0  0  0  0  0  0  0  0  0  0  0  0
   -1.7530   12.5170   -2.0080 C   0  0  0  0  0  0  0  0  0  0  0  0
   -0.3060   12.2480   -2.4300 C   0  0  2  0  0  0  0  0  0  0  0  0
    0.6310   12.7890   -1.2970 C   0  0  0  0  0  0  0  0  0  0  0  0
    1.8927   15.4190   -5.0193 H   0  0  0  0  0  0  0  0  0  0  0  0
    1.3124   13.8672   -5.7135 H   0  0  0  0  0  0  0  0  0  0  0  0
    0.2397   15.3080   -5.7135 H   0  0  0  0  0  0  0  0  0  0  0  0
   -0.4525   14.9344   -3.6114 H   0  0  0  0  0  0  0  0  0  0  0  0
    1.0943   14.2092   -1.7233 H   0  0  0  0  0  0  0  0  0  0  0  0
    2.4411   14.3435   -2.9530 H   0  0  0  0  0  0  0  0  0  0  0  0
    2.2123   16.6515   -3.1459 H   0  0  0  0  0  0  0  0  0  0  0  0
    0.5685   16.6400   -2.3815 H   0  0  0  0  0  0  0  0  0  0  0  0
    2.8595   15.6051   -1.1336 H   0  0  0  0  0  0  0  0  0  0  0  0
    1.7480   19.8926   -0.5475 H   0  0  0  0  0  0  0  0  0  0  0  0
    2.8499   19.4017   -1.8785 H   0  0  0  0  0  0  0  0  0  0  0  0
    1.1403   18.8505   -1.8785 H   0  0  0  0  0  0  0  0  0  0  0  0
    2.9505   17.9665    1.5884 H   0  0  0  0  0  0  0  0  0  0  0  0
    4.2106   17.2884    0.5027 H   0  0  0  0  0  0  0  0  0  0  0  0
    3.8805   19.0541    0.5027 H   0  0  0  0  0  0  0  0  0  0  0  0
   -0.6725   12.8488   -4.4986 H   0  0  0  0  0  0  0  0  0  0  0  0
    1.3556   11.7567   -5.2274 H   0  0  0  0  0  0  0  0  0  0  0  0
    2.3212   12.5278   -3.9505 H   0  0  0  0  0  0  0  0  0  0  0  0
    1.4340    9.8112   -3.9509 H   0  0  0  0  0  0  0  0  0  0  0  0
    2.0511   10.6483   -2.5291 H   0  0  0  0  0  0  0  0  0  0  0  0
   -1.9344    9.6748   -3.4629 H   0  0  0  0  0  0  0  0  0  0  0  0
   -1.3913   11.0302   -4.5091 H   0  0  0  0  0  0  0  0  0  0  0  0
   -0.4876    9.4778   -4.5091 H   0  0  0  0  0  0  0  0  0  0  0  0
    0.4293   10.2940   -0.7652 H   0  0  0  0  0  0  0  0  0  0  0  0
    0.6483    8.2297   -2.2901 H   0  0  0  0  0  0  0  0  0  0  0  0
    0.1773    8.0600   -0.5185 H   0  0  0  0  0  0  0  0  0  0  0  0
   -1.1389    6.5441   -2.2253 H   0  0  0  0  0  0  0  0  0  0  0  0
   -3.2429    9.9903   -2.1628 H   0  0  0  0  0  0  0  0  0  0  0  0
   -3.8186    8.6921    0.5711 H   0  0  0  0  0  0  0  0  0  0  0  0
   -4.4583   10.2818   -0.0406 H   0  0  0  0  0  0  0  0  0  0  0  0
   -6.1440    8.4762   -0.1824 H   0  0  0  0  0  0  0  0  0  0  0  0
   -5.6879    9.1463   -1.7979 H   0  0  0  0  0  0  0  0  0  0  0  0
   -5.8299    6.7574   -1.9682 H   0  0  0  0  0  0  0  0  0  0  0  0
   -3.9780    5.7090   -0.5490 H   0  0  0  0  0  0  0  0  0  0  0  0
   -4.8333    8.6553   -3.5703 H   0  0  0  0  0  0  0  0  0  0  0  0
   -3.3150    8.0673   -4.3290 H   0  0  0  0  0  0  0  0  0  0  0  0
   -4.7801    7.0280   -4.3290 H   0  0  0  0  0  0  0  0  0  0  0  0
   -3.2662    5.1343   -1.7532 H   0  0  0  0  0  0  0  0  0  0  0  0
   -4.2096    5.2061   -3.2801 H   0  0  0  0  0  0  0  0  0  0  0  0
   -2.4665    5.6399   -3.2801 H   0  0  0  0  0  0  0  0  0  0  0  0
   -1.9672   10.6388    1.4500 H   0  0  0  0  0  0  0  0  0  0  0  0
   -2.0507    8.8943    1.0301 H   0  0  0  0  0  0  0  0  0  0  0  0
   -0.4677    9.7433    1.0301 H   0  0  0  0  0  0  0  0  0  0  0  0
   -3.1894   11.8375   -0.5638 H   0  0  0  0  0  0  0  0  0  0  0  0
   -1.4873   12.2088    0.0673 H   0  0  0  0  0  0  0  0  0  0  0  0
   -2.4286   12.1948   -2.8140 H   0  0  0  0  0  0  0  0  0  0  0  0
   -1.8678   13.5941   -1.8165 H   0  0  0  0  0  0  0  0  0  0  0  0
    0.2008   12.5406   -0.3156 H   0  0  0  0  0  0  0  0  0  0  0  0
    1.6242   12.3253   -1.3899 H   0  0  0  0  0  0  0  0  0  0  0  0
    0.7260   13.8809   -1.3899 H   0  0  0  0  0  0  0  0  0  0  0  0
  1  2  1  0
  2  3  1  0
  3  4  1  0
  4  5  1  0
  5  6  1  0
  6  7  1  0
  7  8  1  0
  7  9  1  0
  2 10  1  0
 10 11  1  0
 11 12  1  0
 12 13  1  0
 13 14  1  6
 13 15  1  0
 15 16  1  0
 16 17  1  0
 17 18  2  0
 18 19  1  0
 19 20  1  0
 20 21  1  0
 21 22  1  0
 22 23  1  0
 22 24  1  0
 24 25  1  0
 24 26  1  0
 19 27  1  0
 27 28  1  1
 27 29  1  0
 29 30  1  0
 30 31  1  0
 31 32  1  1
  7  5  1  0
 31 10  1  0
 31 13  1  0
 27 15  1  0
 24 18  1  0
  1 33  1  0
  1 34  1  0
  1 35  1  0
  2 36  1  1
  3 37  1  0
  3 38  1  0
  4 39  1  0
  4 40  1  0
  5 41  1  1
  8 42  1  0
  8 43  1  0
  8 44  1  0
  9 45  1  0
  9 46  1  0
  9 47  1  0
 10 48  1  6
 11 49  1  0
 11 50  1  0
 12 51  1  0
 12 52  1  0
 14 53  1  0
 14 54  1  0
 14 55  1  0
 15 56  1  1
 16 57  1  0
 16 58  1  0
 17 59  1  0
 19 60  1  6
 20 61  1  0
 20 62  1  0
 21 63  1  0
 21 64  1  0
 22 65  1  6
 23 66  1  0
 25 67  1  0
 25 68  1  0
 25 69  1  0
 26 70  1  0
 26 71  1  0
 26 72  1  0
 28 73  1  0
 28 74  1  0
 28 75  1  0
 29 76  1  0
 29 77  1  0
 30 78  1  0
 30 79  1  0
 32 80  1  0
 32 81  1  0
 32 82  1  0
M  END
>  <meeko>  (16) 
{"is_sidechain": [false], "intermolecular_energy": 2.731, "internal_energy": -0.839}

$$$$
EPH_relaxed_0001_pdb2pqr_Repair_38_r2_0001_out
     RDKit          3D

 82 86  0  0  0  0  0  0  0  0999 V2000
   -4.7780    6.6530   -1.9250 C   0  0  0  0  0  0  0  0  0  0  0  0
   -5.3420    8.0690   -1.7790 C   0  0  2  0  0  0  0  0  0  0  0  0
   -5.2380    8.5900   -0.3320 C   0  0  0  0  0  0  0  0  0  0  0  0
   -4.0930    9.5840   -0.1160 C   0  0  0  0  0  0  0  0  0  0  0  0
   -2.7660    8.9870   -0.4740 C   0  0  2  0  0  0  0  0  0  0  0  0
   -1.6740    9.4200    0.3470 O   0  0  0  0  0  0  0  0  0  0  0  0
   -1.6110    9.7930   -1.0390 C   0  0  0  0  0  0  0  0  0  0  0  0
   -1.7310   11.2660   -1.2780 C   0  0  0  0  0  0  0  0  0  0  0  0
   -0.5470    9.0760   -1.8090 C   0  0  0  0  0  0  0  0  0  0  0  0
   -6.7940    8.1000   -2.2410 C   0  0  1  0  0  0  0  0  0  0  0  0
   -7.0230    7.2960   -3.5480 C   0  0  0  0  0  0  0  0  0  0  0  0
   -8.4320    6.6600   -3.4420 C   0  0  0  0  0  0  0  0  0  0  0  0
   -9.0950    7.3790   -2.2430 C   0  0  1  0  0  0  0  0  0  0  0  0
   -9.6120    8.7330   -2.8240 C   0  0  0  0  0  0  0  0  0  0  0  0
  -10.2310    6.5950   -1.5090 C   0  0  2  0  0  0  0  0  0  0  0  0
  -11.4650    6.2740   -2.3700 C   0  0  0  0  0  0  0  0  0  0  0  0
  -12.5450    7.3030   -2.3460 C   0  0  0  0  0  0  0  0  0  0  0  0
  -12.6560    8.2990   -1.4470 C   0  0  0  0  0  0  0  0  0  0  0  0
  -11.6850    8.4040   -0.2640 C   0  0  1  0  0  0  0  0  0  0  0  0
  -12.4840    8.6680    1.0400 C   0  0  0  0  0  0  0  0  0  0  0  0
  -13.4020    9.8810    0.9280 C   0  0  0  0  0  0  0  0  0  0  0  0
  -14.3900    9.7140   -0.2230 C   0  0  2  0  0  0  0  0  0  0  0  0
  -15.2870    8.6440    0.0920 O   0  0  0  0  0  0  0  0  0  0  0  0
  -13.7010    9.4340   -1.5870 C   0  0  0  0  0  0  0  0  0  0  0  0
  -12.9700   10.7100   -2.0720 C   0  0  0  0  0  0  0  0  0  0  0  0
  -14.8110    9.1450   -2.6330 C   0  0  0  0  0  0  0  0  0  0  0  0
  -10.6460    7.2120   -0.1120 C   0  0  1  0  0  0  0  0  0  0  0  0
  -11.2820    6.0530    0.7150 C   0  0  0  0  0  0  0  0  0  0  0  0
   -9.4030    7.7150    0.7130 C   0  0  0  0  0  0  0  0  0  0  0  0
   -8.2610    8.3740   -0.0840 C   0  0  0  0  0  0  0  0  0  0  0  0
   -7.8580    7.5090   -1.2820 C   0  0  2  0  0  0  0  0  0  0  0  0
   -7.3130    6.1490   -0.7280 C   0  0  0  0  0  0  0  0  0  0  0  0
   -4.6063    6.2220   -0.9276 H   0  0  0  0  0  0  0  0  0  0  0  0
   -5.4956    6.0275   -2.4761 H   0  0  0  0  0  0  0  0  0  0  0  0
   -3.8268    6.6922   -2.4761 H   0  0  0  0  0  0  0  0  0  0  0  0
   -4.7358    8.7333   -2.4125 H   0  0  0  0  0  0  0  0  0  0  0  0
   -6.1839    9.0885   -0.0736 H   0  0  0  0  0  0  0  0  0  0  0  0
   -5.0332    7.7198    0.3089 H   0  0  0  0  0  0  0  0  0  0  0  0
   -4.2666   10.4699   -0.7446 H   0  0  0  0  0  0  0  0  0  0  0  0
   -4.0707    9.8552    0.9498 H   0  0  0  0  0  0  0  0  0  0  0  0
   -3.2480    8.0557   -0.8063 H   0  0  0  0  0  0  0  0  0  0  0  0
   -1.7738   11.7918   -0.3127 H   0  0  0  0  0  0  0  0  0  0  0  0
   -0.8585   11.6172   -1.8484 H   0  0  0  0  0  0  0  0  0  0  0  0
   -2.6488   11.4713   -1.8484 H   0  0  0  0  0  0  0  0  0  0  0  0
    0.1563    8.6021   -1.1084 H   0  0  0  0  0  0  0  0  0  0  0  0
   -1.0095    8.3046   -2.4423 H   0  0  0  0  0  0  0  0  0  0  0  0
   -0.0056    9.7942   -2.4423 H   0  0  0  0  0  0  0  0  0  0  0  0
   -6.9340    9.1870   -2.3351 H   0  0  0  0  0  0  0  0  0  0  0  0
   -6.9749    7.9668   -4.4185 H   0  0  0  0  0  0  0  0  0  0  0  0
   -6.2503    6.5237   -3.6766 H   0  0  0  0  0  0  0  0  0  0  0  0
   -9.0063    6.8324   -4.3642 H   0  0  0  0  0  0  0  0  0  0  0  0
   -8.3884    5.5697   -3.3027 H   0  0  0  0  0  0  0  0  0  0  0  0
   -9.8711    9.4114   -1.9978 H   0  0  0  0  0  0  0  0  0  0  0  0
   -8.8255    9.1911   -3.4417 H   0  0  0  0  0  0  0  0  0  0  0  0
  -10.5036    8.5503   -3.4417 H   0  0  0  0  0  0  0  0  0  0  0  0
   -9.7522    5.6267   -1.3014 H   0  0  0  0  0  0  0  0  0  0  0  0
  -11.1312    6.1561   -3.4115 H   0  0  0  0  0  0  0  0  0  0  0  0
  -11.9052    5.3613   -1.9419 H   0  0  0  0  0  0  0  0  0  0  0  0
  -13.3155    7.2428   -3.1288 H   0  0  0  0  0  0  0  0  0  0  0  0
  -11.0320    9.2620   -0.4819 H   0  0  0  0  0  0  0  0  0  0  0  0
  -13.0962    7.7820    1.2639 H   0  0  0  0  0  0  0  0  0  0  0  0
  -11.7581    8.8715    1.8410 H   0  0  0  0  0  0  0  0  0  0  0  0
  -13.9611    9.9971    1.8682 H   0  0  0  0  0  0  0  0  0  0  0  0
  -12.7852   10.7709    0.7343 H   0  0  0  0  0  0  0  0  0  0  0  0
  -14.9299   10.6658   -0.3350 H   0  0  0  0  0  0  0  0  0  0  0  0
  -16.1720    9.0280    0.2140 H   0  0  0  0  0  0  0  0  0  0  0  0
  -12.6354   11.2940   -1.2019 H   0  0  0  0  0  0  0  0  0  0  0  0
  -12.0983   10.4248   -2.6793 H   0  0  0  0  0  0  0  0  0  0  0  0
  -13.6570   11.3177   -2.6793 H   0  0  0  0  0  0  0  0  0  0  0  0
  -15.7495    8.9007   -2.1138 H   0  0  0  0  0  0  0  0  0  0  0  0
  -14.9613   10.0339   -3.2632 H   0  0  0  0  0  0  0  0  0  0  0  0
  -14.5088    8.2956   -3.2632 H   0  0  0  0  0  0  0  0  0  0  0  0
  -11.1669    6.2627    1.7887 H   0  0  0  0  0  0  0  0  0  0  0  0
  -12.3512    5.9715    0.4698 H   0  0  0  0  0  0  0  0  0  0  0  0
  -10.7765    5.1073    0.4698 H   0  0  0  0  0  0  0  0  0  0  0  0
   -9.7656    8.4512    1.4455 H   0  0  0  0  0  0  0  0  0  0  0  0
   -8.9619    6.8075    1.1511 H   0  0  0  0  0  0  0  0  0  0  0  0
   -8.5959    9.3571   -0.4465 H   0  0  0  0  0  0  0  0  0  0  0  0
   -7.3894    8.4840    0.5780 H   0  0  0  0  0  0  0  0  0  0  0  0
   -7.3219    6.1711    0.3717 H   0  0  0  0  0  0  0  0  0  0  0  0
   -7.9509    5.3263   -1.0833 H   0  0  0  0  0  0  0  0  0  0  0  0
   -6.2835    5.9945   -1.0833 H   0  0  0  0  0  0  0  0  0  0  0  0
  1  2  1  0
  2  3  1  0
  3  4  1  0
  4  5  1  0
  5  6  1  0
  6  7  1  0
  7  8  1  0
  7  9  1  0
  2 10  1  0
 10 11  1  0
 11 12  1  0
 12 13  1  0
 13 14  1  6
 13 15  1  0
 15 16  1  0
 16 17  1  0
 17 18  2  0
 18 19  1  0
 19 20  1  0
 20 21  1  0
 21 22  1  0
 22 23  1  0
 22 24  1  0
 24 25  1  0
 24 26  1  0
 19 27  1  0
 27 28  1  1
 27 29  1  0
 29 30  1  0
 30 31  1  0
 31 32  1  1
  7  5  1  0
 31 10  1  0
 31 13  1  0
 27 15  1  0
 24 18  1  0
  1 33  1  0
  1 34  1  0
  1 35  1  0
  2 36  1  6
  3 37  1  0
  3 38  1  0
  4 39  1  0
  4 40  1  0
  5 41  1  6
  8 42  1  0
  8 43  1  0
  8 44  1  0
  9 45  1  0
  9 46  1  0
  9 47  1  0
 10 48  1  6
 11 49  1  0
 11 50  1  0
 12 51  1  0
 12 52  1  0
 14 53  1  0
 14 54  1  0
 14 55  1  0
 15 56  1  1
 16 57  1  0
 16 58  1  0
 17 59  1  0
 19 60  1  6
 20 61  1  0
 20 62  1  0
 21 63  1  0
 21 64  1  0
 22 65  1  6
 23 66  1  0
 25 67  1  0
 25 68  1  0
 25 69  1  0
 26 70  1  0
 26 71  1  0
 26 72  1  0
 28 73  1  0
 28 74  1  0
 28 75  1  0
 29 76  1  0
 29 77  1  0
 30 78  1  0
 30 79  1  0
 32 80  1  0
 32 81  1  0
 32 82  1  0
M  END
>  <meeko>  (17) 
{"is_sidechain": [false], "intermolecular_energy": 2.731, "internal_energy": -0.839}

$$$$
EPH_relaxed_0001_pdb2pqr_Repair_38_r2_0001_out
     RDKit          3D

 82 86  0  0  0  0  0  0  0  0999 V2000
   -0.3740    9.2150   -1.7290 C   0  0  0  0  0  0  0  0  0  0  0  0
    0.6530   10.1670   -2.3470 C   0  0  2  0  0  0  0  0  0  0  0  0
    2.0290    9.4970   -2.5320 C   0  0  0  0  0  0  0  0  0  0  0  0
    3.1780   10.4910   -2.7230 C   0  0  0  0  0  0  0  0  0  0  0  0
    4.1630   10.0100   -3.7460 C   0  0  2  0  0  0  0  0  0  0  0  0
    5.5260    9.9920   -3.3020 O   0  0  0  0  0  0  0  0  0  0  0  0
    5.2200   10.9010   -4.3720 C   0  0  0  0  0  0  0  0  0  0  0  0
    5.3440   12.3450   -3.9990 C   0  0  0  0  0  0  0  0  0  0  0  0
    5.8050   10.4980   -5.6900 C   0  0  0  0  0  0  0  0  0  0  0  0
    0.7940   11.4140   -1.4810 C   0  0  1  0  0  0  0  0  0  0  0  0
    1.8930   11.2660   -0.3960 C   0  0  0  0  0  0  0  0  0  0  0  0
    2.5450   12.6630   -0.2270 C   0  0  0  0  0  0  0  0  0  0  0  0
    1.5920   13.6300   -0.9660 C   0  0  1  0  0  0  0  0  0  0  0  0
    0.4370   13.9080    0.0470 C   0  0  0  0  0  0  0  0  0  0  0  0
    2.2270   14.9570   -1.4950 C   0  0  2  0  0  0  0  0  0  0  0  0
    2.7950   15.8870   -0.4080 C   0  0  0  0  0  0  0  0  0  0  0  0
    1.8350   16.8930    0.1360 C   0  0  0  0  0  0  0  0  0  0  0  0
    0.6600   17.2360   -0.4240 C   0  0  0  0  0  0  0  0  0  0  0  0
    0.2370   16.6600   -1.7820 C   0  0  1  0  0  0  0  0  0  0  0  0
   -0.2930   17.8030   -2.6860 C   0  0  0  0  0  0  0  0  0  0  0  0
   -1.4060   18.6070   -2.0210 C   0  0  0  0  0  0  0  0  0  0  0  0
   -0.9290   19.2120   -0.7030 C   0  0  2  0  0  0  0  0  0  0  0  0
    0.0730   20.1940   -0.9820 O   0  0  0  0  0  0  0  0  0  0  0  0
   -0.3630   18.1550    0.2860 C   0  0  0  0  0  0  0  0  0  0  0  0
   -1.5180   17.2730    0.8220 C   0  0  0  0  0  0  0  0  0  0  0  0
    0.2120   18.9110    1.5150 C   0  0  0  0  0  0  0  0  0  0  0  0
    1.3150   15.7510   -2.5160 C   0  0  1  0  0  0  0  0  0  0  0  0
    2.2710   16.6420   -3.3670 C   0  0  0  0  0  0  0  0  0  0  0  0
    0.5780   14.7960   -3.5280 C   0  0  0  0  0  0  0  0  0  0  0  0
    0.0790   13.4480   -2.9730 C   0  0  0  0  0  0  0  0  0  0  0  0
    1.1860   12.7330   -2.1920 C   0  0  2  0  0  0  0  0  0  0  0  0
    2.3520   12.4210   -3.1910 C   0  0  0  0  0  0  0  0  0  0  0  0
   -0.3129    9.2716   -0.6322 H   0  0  0  0  0  0  0  0  0  0  0  0
   -1.3841    9.5033   -2.0554 H   0  0  0  0  0  0  0  0  0  0  0  0
   -0.1630    8.1859   -2.0554 H   0  0  0  0  0  0  0  0  0  0  0  0
    0.2849   10.4468   -3.3451 H   0  0  0  0  0  0  0  0  0  0  0  0
    2.2413    8.8882   -1.6408 H   0  0  0  0  0  0  0  0  0  0  0  0
    1.9712    8.8930   -3.4495 H   0  0  0  0  0  0  0  0  0  0  0  0
    2.7640   11.4554   -3.0525 H   0  0  0  0  0  0  0  0  0  0  0  0
    3.7043   10.5955   -1.7627 H   0  0  0  0  0  0  0  0  0  0  0  0
    3.4145    9.3333   -4.1840 H   0  0  0  0  0  0  0  0  0  0  0  0
    5.3523   12.4413   -2.9033 H   0  0  0  0  0  0  0  0  0  0  0  0
    6.2803   12.7507   -4.4098 H   0  0  0  0  0  0  0  0  0  0  0  0
    4.4906   12.9044   -4.4098 H   0  0  0  0  0  0  0  0  0  0  0  0
    6.7001    9.8814   -5.5207 H   0  0  0  0  0  0  0  0  0  0  0  0
    5.0628    9.9186   -6.2588 H   0  0  0  0  0  0  0  0  0  0  0  0
    6.0819   11.3979   -6.2588 H   0  0  0  0  0  0  0  0  0  0  0  0
   -0.2330   11.4868   -1.0938 H   0  0  0  0  0  0  0  0  0  0  0  0
    1.4457   10.9392    0.5543 H   0  0  0  0  0  0  0  0  0  0  0  0
    2.6401   10.5141   -0.6902 H   0  0  0  0  0  0  0  0  0  0  0  0
    2.6205   12.9301    0.8374 H   0  0  0  0  0  0  0  0  0  0  0  0
    3.5683   12.6972   -0.6292 H   0  0  0  0  0  0  0  0  0  0  0  0
    0.8200   13.8158    1.0741 H   0  0  0  0  0  0  0  0  0  0  0  0
    0.0488   14.9252   -0.1097 H   0  0  0  0  0  0  0  0  0  0  0  0
   -0.3715   13.1788   -0.1097 H   0  0  0  0  0  0  0  0  0  0  0  0
    3.0967   14.5925   -2.0613 H   0  0  0  0  0  0  0  0  0  0  0  0
    3.1414   15.2612    0.4277 H   0  0  0  0  0  0  0  0  0  0  0  0
    3.5988   16.4629   -0.8898 H   0  0  0  0  0  0  0  0  0  0  0  0
    2.1115   17.3966    1.0741 H   0  0  0  0  0  0  0  0  0  0  0  0
   -0.5720   15.9453   -1.5708 H   0  0  0  0  0  0  0  0  0  0  0  0
    0.5401   18.4817   -2.9210 H   0  0  0  0  0  0  0  0  0  0  0  0
   -0.7100   17.3439   -3.5945 H   0  0  0  0  0  0  0  0  0  0  0  0
   -1.7183   19.4168   -2.6968 H   0  0  0  0  0  0  0  0  0  0  0  0
   -2.2500   17.9329   -1.8129 H   0  0  0  0  0  0  0  0  0  0  0  0
   -1.8032   19.6651   -0.2125 H   0  0  0  0  0  0  0  0  0  0  0  0
    0.8870   19.7230   -1.2280 H   0  0  0  0  0  0  0  0  0  0  0  0
   -1.5062   17.2820    1.9219 H   0  0  0  0  0  0  0  0  0  0  0  0
   -2.4791   17.6691    0.4624 H   0  0  0  0  0  0  0  0  0  0  0  0
   -1.3889   16.2415    0.4624 H   0  0  0  0  0  0  0  0  0  0  0  0
   -0.1490   18.4363    2.4393 H   0  0  0  0  0  0  0  0  0  0  0  0
    1.3110   18.8723    1.4880 H   0  0  0  0  0  0  0  0  0  0  0  0
   -0.1187   19.9598    1.4880 H   0  0  0  0  0  0  0  0  0  0  0  0
    2.9098   17.2373   -2.6980 H   0  0  0  0  0  0  0  0  0  0  0  0
    2.9011   16.0015   -4.0016 H   0  0  0  0  0  0  0  0  0  0  0  0
    1.6764   17.3156   -4.0016 H   0  0  0  0  0  0  0  0  0  0  0  0
   -0.2949   15.3376   -3.9213 H   0  0  0  0  0  0  0  0  0  0  0  0
    1.3358   14.5345   -4.2812 H   0  0  0  0  0  0  0  0  0  0  0  0
   -0.7748   13.6285   -2.3034 H   0  0  0  0  0  0  0  0  0  0  0  0
   -0.2220   12.8108   -3.8176 H   0  0  0  0  0  0  0  0  0  0  0  0
    3.2636   12.1771   -2.6258 H   0  0  0  0  0  0  0  0  0  0  0  0
    2.0733   11.5658   -3.8243 H   0  0  0  0  0  0  0  0  0  0  0  0
    2.5376   13.3011   -3.8243 H   0  0  0  0  0  0  0  0  0  0  0  0
  1  2  1  0
  2  3  1  0
  3  4  1  0
  4  5  1  0
  5  6  1  0
  6  7  1  0
  7  8  1  0
  7  9  1  0
  2 10  1  0
 10 11  1  0
 11 12  1  0
 12 13  1  0
 13 14  1  1
 13 15  1  0
 15 16  1  0
 16 17  1  0
 17 18  2  0
 18 19  1  0
 19 20  1  0
 20 21  1  0
 21 22  1  0
 22 23  1  0
 22 24  1  0
 24 25  1  0
 24 26  1  0
 19 27  1  0
 27 28  1  6
 27 29  1  0
 29 30  1  0
 30 31  1  0
 31 32  1  6
  7  5  1  0
 31 10  1  0
 31 13  1  0
 27 15  1  0
 24 18  1  0
  1 33  1  0
  1 34  1  0
  1 35  1  0
  2 36  1  6
  3 37  1  0
  3 38  1  0
  4 39  1  0
  4 40  1  0
  5 41  1  6
  8 42  1  0
  8 43  1  0
  8 44  1  0
  9 45  1  0
  9 46  1  0
  9 47  1  0
 10 48  1  1
 11 49  1  0
 11 50  1  0
 12 51  1  0
 12 52  1  0
 14 53  1  0
 14 54  1  0
 14 55  1  0
 15 56  1  6
 16 57  1  0
 16 58  1  0
 17 59  1  0
 19 60  1  1
 20 61  1  0
 20 62  1  0
 21 63  1  0
 21 64  1  0
 22 65  1  1
 23 66  1  0
 25 67  1  0
 25 68  1  0
 25 69  1  0
 26 70  1  0
 26 71  1  0
 26 72  1  0
 28 73  1  0
 28 74  1  0
 28 75  1  0
 29 76  1  0
 29 77  1  0
 30 78  1  0
 30 79  1  0
 32 80  1  0
 32 81  1  0
 32 82  1  0
M  END
>  <meeko>  (18) 
{"is_sidechain": [false], "intermolecular_energy": 2.731, "internal_energy": -0.839}

$$$$
EPH_relaxed_0001_pdb2pqr_Repair_38_r2_0001_out
     RDKit          3D

 82 86  0  0  0  0  0  0  0  0999 V2000
   -2.5530    7.6600   -0.1450 C   0  0  0  0  0  0  0  0  0  0  0  0
   -3.1530    9.0670   -0.0840 C   0  0  2  0  0  0  0  0  0  0  0  0
   -4.6490    9.0780   -0.4600 C   0  0  0  0  0  0  0  0  0  0  0  0
   -5.2190    7.6880   -0.7550 C   0  0  0  0  0  0  0  0  0  0  0  0
   -5.5290    7.5130   -2.2110 C   0  0  2  0  0  0  0  0  0  0  0  0
   -6.5070    6.5060   -2.4980 O   0  0  0  0  0  0  0  0  0  0  0  0
   -5.1820    6.2620   -2.9960 C   0  0  0  0  0  0  0  0  0  0  0  0
   -4.4930    5.1010   -2.3500 C   0  0  0  0  0  0  0  0  0  0  0  0
   -5.0700    6.3610   -4.4860 C   0  0  0  0  0  0  0  0  0  0  0  0
   -2.3780   10.0030   -1.0040 C   0  0  1  0  0  0  0  0  0  0  0  0
   -3.0170   11.4150   -1.0950 C   0  0  0  0  0  0  0  0  0  0  0  0
   -1.8490   12.4260   -1.2340 C   0  0  0  0  0  0  0  0  0  0  0  0
   -0.6130   11.5520   -1.5500 C   0  0  1  0  0  0  0  0  0  0  0  0
   -0.7080   11.2610   -3.0800 C   0  0  0  0  0  0  0  0  0  0  0  0
    0.7770   12.1560   -1.1630 C   0  0  2  0  0  0  0  0  0  0  0  0
    1.1490   13.4580   -1.8940 C   0  0  0  0  0  0  0  0  0  0  0  0
    1.8980   13.2790   -3.1730 C   0  0  0  0  0  0  0  0  0  0  0  0
    2.5050   12.1460   -3.5720 C   0  0  0  0  0  0  0  0  0  0  0  0
    2.5570   10.9160   -2.6570 C   0  0  1  0  0  0  0  0  0  0  0  0
    3.9980   10.3400   -2.6450 C   0  0  0  0  0  0  0  0  0  0  0  0
    4.5220   10.0470   -4.0480 C   0  0  0  0  0  0  0  0  0  0  0  0
    4.5080   11.3070   -4.9100 C   0  0  2  0  0  0  0  0  0  0  0  0
    5.4610   12.2350   -4.3830 O   0  0  0  0  0  0  0  0  0  0  0  0
    3.1100   11.9810   -4.9880 C   0  0  0  0  0  0  0  0  0  0  0  0
    2.1530   11.0980   -5.8260 C   0  0  0  0  0  0  0  0  0  0  0  0
    3.2660   13.3140   -5.7680 C   0  0  0  0  0  0  0  0  0  0  0  0
    1.9680   11.1140   -1.1940 C   0  0  1  0  0  0  0  0  0  0  0  0
    3.0730   11.6720   -0.2460 C   0  0  0  0  0  0  0  0  0  0  0  0
    1.5510    9.7110   -0.6140 C   0  0  0  0  0  0  0  0  0  0  0  0
    0.1240    9.2240   -0.9310 C   0  0  0  0  0  0  0  0  0  0  0  0
   -0.9080   10.3140   -0.6270 C   0  0  2  0  0  0  0  0  0  0  0  0
   -0.8500   10.6120    0.9100 C   0  0  0  0  0  0  0  0  0  0  0  0
   -2.3931    7.2850    0.8767 H   0  0  0  0  0  0  0  0  0  0  0  0
   -3.2436    6.9897   -0.6777 H   0  0  0  0  0  0  0  0  0  0  0  0
   -1.5912    7.6943   -0.6777 H   0  0  0  0  0  0  0  0  0  0  0  0
   -3.0717    9.4162    0.9559 H   0  0  0  0  0  0  0  0  0  0  0  0
   -5.2142    9.5149    0.3764 H   0  0  0  0  0  0  0  0  0  0  0  0
   -4.7442    9.6675   -1.3838 H   0  0  0  0  0  0  0  0  0  0  0  0
   -4.4817    6.9292   -0.4539 H   0  0  0  0  0  0  0  0  0  0  0  0
   -6.1555    7.5745   -0.1892 H   0  0  0  0  0  0  0  0  0  0  0  0
   -5.3422    8.5799   -2.4028 H   0  0  0  0  0  0  0  0  0  0  0  0
   -4.5527    5.2015   -1.2562 H   0  0  0  0  0  0  0  0  0  0  0  0
   -4.9823    4.1657   -2.6595 H   0  0  0  0  0  0  0  0  0  0  0  0
   -3.4376    5.0825   -2.6595 H   0  0  0  0  0  0  0  0  0  0  0  0
   -4.2694    7.0687   -4.7473 H   0  0  0  0  0  0  0  0  0  0  0  0
   -4.8343    5.3706   -4.9026 H   0  0  0  0  0  0  0  0  0  0  0  0
   -6.0240    6.7165   -4.9026 H   0  0  0  0  0  0  0  0  0  0  0  0
   -2.4121    9.4174   -1.9345 H   0  0  0  0  0  0  0  0  0  0  0  0
   -3.6775   11.4761   -1.9725 H   0  0  0  0  0  0  0  0  0  0  0  0
   -3.6238   11.6323   -0.2036 H   0  0  0  0  0  0  0  0  0  0  0  0
   -2.0436   13.1342   -2.0529 H   0  0  0  0  0  0  0  0  0  0  0  0
   -1.7109   13.0316   -0.3262 H   0  0  0  0  0  0  0  0  0  0  0  0
   -1.0459   10.2259   -3.2361 H   0  0  0  0  0  0  0  0  0  0  0  0
   -1.4263   11.9547   -3.5413 H   0  0  0  0  0  0  0  0  0  0  0  0
    0.2813   11.3972   -3.5413 H   0  0  0  0  0  0  0  0  0  0  0  0
    0.6272   12.4374   -0.1102 H   0  0  0  0  0  0  0  0  0  0  0  0
    0.2184   14.0000   -2.1180 H   0  0  0  0  0  0  0  0  0  0  0  0
    1.8248   14.0037   -1.2191 H   0  0  0  0  0  0  0  0  0  0  0  0
    1.9589   14.1467   -3.8463 H   0  0  0  0  0  0  0  0  0  0  0  0
    1.8645   10.1822   -3.0952 H   0  0  0  0  0  0  0  0  0  0  0  0
    4.6658   11.0702   -2.1644 H   0  0  0  0  0  0  0  0  0  0  0  0
    3.9733    9.3893   -2.0922 H   0  0  0  0  0  0  0  0  0  0  0  0
    5.5535    9.6716   -3.9759 H   0  0  0  0  0  0  0  0  0  0  0  0
    3.8705    9.2943   -4.5159 H   0  0  0  0  0  0  0  0  0  0  0  0
    4.7688   11.0083   -5.9360 H   0  0  0  0  0  0  0  0  0  0  0  0
    5.9530   12.6090   -5.1340 H   0  0  0  0  0  0  0  0  0  0  0  0
    1.5139   10.5083   -5.1523 H   0  0  0  0  0  0  0  0  0  0  0  0
    1.5236   11.7393   -6.4605 H   0  0  0  0  0  0  0  0  0  0  0  0
    2.7417   10.4191   -6.4605 H   0  0  0  0  0  0  0  0  0  0  0  0
    3.3634   14.1465   -5.0556 H   0  0  0  0  0  0  0  0  0  0  0  0
    4.1646   13.2657   -6.4006 H   0  0  0  0  0  0  0  0  0  0  0  0
    2.3805   13.4745   -6.4006 H   0  0  0  0  0  0  0  0  0  0  0  0
    2.7700   11.5190    0.8003 H   0  0  0  0  0  0  0  0  0  0  0  0
    4.0191   11.1436   -0.4348 H   0  0  0  0  0  0  0  0  0  0  0  0
    3.2094   12.7471   -0.4348 H   0  0  0  0  0  0  0  0  0  0  0  0
    2.2536    8.9642   -1.0123 H   0  0  0  0  0  0  0  0  0  0  0  0
    1.5774    9.8322    0.4790 H   0  0  0  0  0  0  0  0  0  0  0  0
    0.0631    8.9581   -1.9966 H   0  0  0  0  0  0  0  0  0  0  0  0
   -0.0953    8.3485   -0.3022 H   0  0  0  0  0  0  0  0  0  0  0  0
   -1.0308    9.6830    1.4707 H   0  0  0  0  0  0  0  0  0  0  0  0
    0.1424   11.0095    1.1692 H   0  0  0  0  0  0  0  0  0  0  0  0
   -1.6208   11.3527    1.1692 H   0  0  0  0  0  0  0  0  0  0  0  0
  1  2  1  0
  2  3  1  0
  3  4  1  0
  4  5  1  0
  5  6  1  0
  6  7  1  0
  7  8  1  0
  7  9  1  0
  2 10  1  0
 10 11  1  0
 11 12  1  0
 12 13  1  0
 13 14  1  6
 13 15  1  0
 15 16  1  0
 16 17  1  0
 17 18  2  0
 18 19  1  0
 19 20  1  0
 20 21  1  0
 21 22  1  0
 22 23  1  0
 22 24  1  0
 24 25  1  0
 24 26  1  0
 19 27  1  0
 27 28  1  1
 27 29  1  0
 29 30  1  0
 30 31  1  0
 31 32  1  1
  7  5  1  0
 31 10  1  0
 31 13  1  0
 27 15  1  0
 24 18  1  0
  1 33  1  0
  1 34  1  0
  1 35  1  0
  2 36  1  1
  3 37  1  0
  3 38  1  0
  4 39  1  0
  4 40  1  0
  5 41  1  6
  8 42  1  0
  8 43  1  0
  8 44  1  0
  9 45  1  0
  9 46  1  0
  9 47  1  0
 10 48  1  6
 11 49  1  0
 11 50  1  0
 12 51  1  0
 12 52  1  0
 14 53  1  0
 14 54  1  0
 14 55  1  0
 15 56  1  1
 16 57  1  0
 16 58  1  0
 17 59  1  0
 19 60  1  6
 20 61  1  0
 20 62  1  0
 21 63  1  0
 21 64  1  0
 22 65  1  6
 23 66  1  0
 25 67  1  0
 25 68  1  0
 25 69  1  0
 26 70  1  0
 26 71  1  0
 26 72  1  0
 28 73  1  0
 28 74  1  0
 28 75  1  0
 29 76  1  0
 29 77  1  0
 30 78  1  0
 30 79  1  0
 32 80  1  0
 32 81  1  0
 32 82  1  0
M  END
>  <meeko>  (19) 
{"is_sidechain": [false], "intermolecular_energy": 2.731, "internal_energy": -0.839}

$$$$
