EPH_relaxed_0001_pdb2pqr_Repair_44_r2_0001_out
     RDKit          3D

 82 86  0  0  0  0  0  0  0  0999 V2000
   -1.5990    8.5660   -1.8130 C   0  0  0  0  0  0  0  0  0  0  0  0
   -2.0130    9.1480   -0.4580 C   0  0  2  0  0  0  0  0  0  0  0  0
   -3.5020    9.5480   -0.4280 C   0  0  0  0  0  0  0  0  0  0  0  0
   -4.4560    8.3580   -0.2950 C   0  0  0  0  0  0  0  0  0  0  0  0
   -5.0870    8.0030   -1.6080 C   0  0  2  0  0  0  0  0  0  0  0  0
   -6.3460    8.6400   -1.8580 O   0  0  0  0  0  0  0  0  0  0  0  0
   -6.3740    7.2100   -1.7300 C   0  0  0  0  0  0  0  0  0  0  0  0
   -7.1070    6.7200   -0.5210 C   0  0  0  0  0  0  0  0  0  0  0  0
   -6.6540    6.4950   -3.0150 C   0  0  0  0  0  0  0  0  0  0  0  0
   -1.1430   10.3540   -0.1240 C   0  0  1  0  0  0  0  0  0  0  0  0
   -0.0740   10.0390    0.9560 C   0  0  0  0  0  0  0  0  0  0  0  0
    1.1830   10.8710    0.5980 C   0  0  0  0  0  0  0  0  0  0  0  0
    0.6930   11.8790   -0.4680 C   0  0  1  0  0  0  0  0  0  0  0  0
    0.0120   13.0240    0.3450 C   0  0  0  0  0  0  0  0  0  0  0  0
    1.7800   12.4330   -1.4470 C   0  0  2  0  0  0  0  0  0  0  0  0
    2.9050   13.2440   -0.7800 C   0  0  0  0  0  0  0  0  0  0  0  0
    2.6560   14.7120   -0.6730 C   0  0  0  0  0  0  0  0  0  0  0  0
    1.7090   15.3950   -1.3420 C   0  0  0  0  0  0  0  0  0  0  0  0
    0.8290   14.7020   -2.3900 C   0  0  1  0  0  0  0  0  0  0  0  0
    0.7580   15.5780   -3.6680 C   0  0  0  0  0  0  0  0  0  0  0  0
    0.3020   17.0050   -3.3740 C   0  0  0  0  0  0  0  0  0  0  0  0
    1.2350   17.6800   -2.3730 C   0  0  2  0  0  0  0  0  0  0  0  0
    2.5170   17.8570   -2.9840 O   0  0  0  0  0  0  0  0  0  0  0  0
    1.3930   16.8830   -1.0480 C   0  0  0  0  0  0  0  0  0  0  0  0
    0.0740   16.9490   -0.2400 C   0  0  0  0  0  0  0  0  0  0  0  0
    2.4670   17.5990   -0.1850 C   0  0  0  0  0  0  0  0  0  0  0  0
    1.1920   13.1880   -2.7070 C   0  0  1  0  0  0  0  0  0  0  0  0
    2.2880   13.1250   -3.8150 C   0  0  0  0  0  0  0  0  0  0  0  0
   -0.0780   12.4680   -3.2980 C   0  0  0  0  0  0  0  0  0  0  0  0
   -1.0520   11.8360   -2.2850 C   0  0  0  0  0  0  0  0  0  0  0  0
   -0.3020   10.9660   -1.2720 C   0  0  2  0  0  0  0  0  0  0  0  0
    0.3750    9.7920   -2.0590 C   0  0  0  0  0  0  0  0  0  0  0  0
   -0.9681    7.6791   -1.6538 H   0  0  0  0  0  0  0  0  0  0  0  0
   -2.4977    8.2799   -2.3792 H   0  0  0  0  0  0  0  0  0  0  0  0
   -1.0339    9.3211   -2.3792 H   0  0  0  0  0  0  0  0  0  0  0  0
   -1.8673    8.3627    0.2984 H   0  0  0  0  0  0  0  0  0  0  0  0
   -3.6639   10.2203    0.4275 H   0  0  0  0  0  0  0  0  0  0  0  0
   -3.7243   10.0325   -1.3902 H   0  0  0  0  0  0  0  0  0  0  0  0
   -3.8925    7.4892    0.0761 H   0  0  0  0  0  0  0  0  0  0  0  0
   -5.2567    8.6373    0.4056 H   0  0  0  0  0  0  0  0  0  0  0  0
   -4.0994    7.8832   -2.0773 H   0  0  0  0  0  0  0  0  0  0  0  0
   -6.5900    7.0656    0.3863 H   0  0  0  0  0  0  0  0  0  0  0  0
   -8.1341    7.1138   -0.5303 H   0  0  0  0  0  0  0  0  0  0  0  0
   -7.1358    5.6204   -0.5303 H   0  0  0  0  0  0  0  0  0  0  0  0
   -7.0472    5.4909   -2.7978 H   0  0  0  0  0  0  0  0  0  0  0  0
   -7.3966    7.0618   -3.5957 H   0  0  0  0  0  0  0  0  0  0  0  0
   -5.7240    6.4068   -3.5957 H   0  0  0  0  0  0  0  0  0  0  0  0
   -1.9244   11.0624    0.1885 H   0  0  0  0  0  0  0  0  0  0  0  0
   -0.4458   10.3239    1.9513 H   0  0  0  0  0  0  0  0  0  0  0  0
    0.1580    8.9640    0.9799 H   0  0  0  0  0  0  0  0  0  0  0  0
    1.5651   11.3984    1.4845 H   0  0  0  0  0  0  0  0  0  0  0  0
    2.0081   10.2432    0.2304 H   0  0  0  0  0  0  0  0  0  0  0  0
    0.1282   12.8287    1.4213 H   0  0  0  0  0  0  0  0  0  0  0  0
    0.4859   13.9843    0.0934 H   0  0  0  0  0  0  0  0  0  0  0  0
   -1.0580   13.0661    0.0934 H   0  0  0  0  0  0  0  0  0  0  0  0
    2.2548   11.5131   -1.8191 H   0  0  0  0  0  0  0  0  0  0  0  0
    3.0519   12.8493    0.2362 H   0  0  0  0  0  0  0  0  0  0  0  0
    3.7865   13.1315   -1.4283 H   0  0  0  0  0  0  0  0  0  0  0  0
    3.3011   15.2837    0.0104 H   0  0  0  0  0  0  0  0  0  0  0  0
   -0.1712   14.6178   -1.9400 H   0  0  0  0  0  0  0  0  0  0  0  0
    1.7571   15.6144   -4.1267 H   0  0  0  0  0  0  0  0  0  0  0  0
    0.0189   15.1235   -4.3441 H   0  0  0  0  0  0  0  0  0  0  0  0
    0.2999   17.5824   -4.3103 H   0  0  0  0  0  0  0  0  0  0  0  0
   -0.7091   16.9687   -2.9424 H   0  0  0  0  0  0  0  0  0  0  0  0
    0.7858   18.6476   -2.1048 H   0  0  0  0  0  0  0  0  0  0  0  0
    3.1800   17.4550   -2.3980 H   0  0  0  0  0  0  0  0  0  0  0  0
    0.3022   16.9376    0.8360 H   0  0  0  0  0  0  0  0  0  0  0  0
   -0.4638   17.8752   -0.4910 H   0  0  0  0  0  0  0  0  0  0  0  0
   -0.5536   16.0811   -0.4910 H   0  0  0  0  0  0  0  0  0  0  0  0
    2.2410   17.4483    0.8809 H   0  0  0  0  0  0  0  0  0  0  0  0
    3.4586   17.1807   -0.4123 H   0  0  0  0  0  0  0  0  0  0  0  0
    2.4622   18.6753   -0.4123 H   0  0  0  0  0  0  0  0  0  0  0  0
    3.2811   13.0679   -3.3455 H   0  0  0  0  0  0  0  0  0  0  0  0
    2.1264   12.2347   -4.4404 H   0  0  0  0  0  0  0  0  0  0  0  0
    2.2294   14.0280   -4.4404 H   0  0  0  0  0  0  0  0  0  0  0  0
   -0.6407   13.2115   -3.8816 H   0  0  0  0  0  0  0  0  0  0  0  0
    0.3157   11.6244   -3.8840 H   0  0  0  0  0  0  0  0  0  0  0  0
   -1.5826   12.6364   -1.7486 H   0  0  0  0  0  0  0  0  0  0  0  0
   -1.7643   11.2014   -2.8326 H   0  0  0  0  0  0  0  0  0  0  0  0
    0.7936    9.0662   -1.3463 H   0  0  0  0  0  0  0  0  0  0  0  0
   -0.3747    9.2942   -2.6916 H   0  0  0  0  0  0  0  0  0  0  0  0
    1.1814   10.1916   -2.6916 H   0  0  0  0  0  0  0  0  0  0  0  0
  1  2  1  0
  2  3  1  0
  3  4  1  0
  4  5  1  0
  5  6  1  0
  6  7  1  0
  7  8  1  0
  7  9  1  0
  2 10  1  0
 10 11  1  0
 11 12  1  0
 12 13  1  0
 13 14  1  1
 13 15  1  0
 15 16  1  0
 16 17  1  0
 17 18  2  0
 18 19  1  0
 19 20  1  0
 20 21  1  0
 21 22  1  0
 22 23  1  0
 22 24  1  0
 24 25  1  0
 24 26  1  0
 19 27  1  0
 27 28  1  6
 27 29  1  0
 29 30  1  0
 30 31  1  0
 31 32  1  6
  7  5  1  0
 31 10  1  0
 31 13  1  0
 27 15  1  0
 24 18  1  0
  1 33  1  0
  1 34  1  0
  1 35  1  0
  2 36  1  1
  3 37  1  0
  3 38  1  0
  4 39  1  0
  4 40  1  0
  5 41  1  6
  8 42  1  0
  8 43  1  0
  8 44  1  0
  9 45  1  0
  9 46  1  0
  9 47  1  0
 10 48  1  1
 11 49  1  0
 11 50  1  0
 12 51  1  0
 12 52  1  0
 14 53  1  0
 14 54  1  0
 14 55  1  0
 15 56  1  6
 16 57  1  0
 16 58  1  0
 17 59  1  0
 19 60  1  1
 20 61  1  0
 20 62  1  0
 21 63  1  0
 21 64  1  0
 22 65  1  1
 23 66  1  0
 25 67  1  0
 25 68  1  0
 25 69  1  0
 26 70  1  0
 26 71  1  0
 26 72  1  0
 28 73  1  0
 28 74  1  0
 28 75  1  0
 29 76  1  0
 29 77  1  0
 30 78  1  0
 30 79  1  0
 32 80  1  0
 32 81  1  0
 32 82  1  0
M  END
>  <meeko>  (1) 
{"is_sidechain": [false], "intermolecular_energy": 2.731, "internal_energy": -0.839}

$$$$
EPH_relaxed_0001_pdb2pqr_Repair_44_r2_0001_out
     RDKit          3D

 82 86  0  0  0  0  0  0  0  0999 V2000
    1.9800   19.5780   -0.6160 C   0  0  0  0  0  0  0  0  0  0  0  0
    2.3830   18.3510    0.2060 C   0  0  2  0  0  0  0  0  0  0  0  0
    3.8260   17.8980   -0.0950 C   0  0  0  0  0  0  0  0  0  0  0  0
    4.8580   18.4260    0.9050 C   0  0  0  0  0  0  0  0  0  0  0  0
    4.2170   18.8520    2.1910 C   0  0  2  0  0  0  0  0  0  0  0  0
    4.5160   20.1940    2.5940 O   0  0  0  0  0  0  0  0  0  0  0  0
    4.9980   19.1510    3.4570 C   0  0  0  0  0  0  0  0  0  0  0  0
    6.4900   19.0370    3.4980 C   0  0  0  0  0  0  0  0  0  0  0  0
    4.2860   19.0790    4.7710 C   0  0  0  0  0  0  0  0  0  0  0  0
    1.4120   17.2060   -0.0580 C   0  0  1  0  0  0  0  0  0  0  0  0
    0.1260   17.6720   -0.7910 C   0  0  0  0  0  0  0  0  0  0  0  0
   -0.2920   16.5170   -1.7370 C   0  0  0  0  0  0  0  0  0  0  0  0
    0.5610   15.3100   -1.2810 C   0  0  1  0  0  0  0  0  0  0  0  0
   -0.1910   14.7340   -0.0400 C   0  0  0  0  0  0  0  0  0  0  0  0
    0.8290   14.2070   -2.3560 C   0  0  2  0  0  0  0  0  0  0  0  0
   -0.4260   13.4900   -2.8830 C   0  0  0  0  0  0  0  0  0  0  0  0
   -0.8220   12.2630   -2.1300 C   0  0  0  0  0  0  0  0  0  0  0  0
   -0.0450   11.5960   -1.2560 C   0  0  0  0  0  0  0  0  0  0  0  0
    1.4140   12.0110   -1.0240 C   0  0  1  0  0  0  0  0  0  0  0  0
    2.3210   10.7520   -1.0490 C   0  0  0  0  0  0  0  0  0  0  0  0
    1.8560    9.6780   -0.0700 C   0  0  0  0  0  0  0  0  0  0  0  0
    0.4220    9.2500   -0.3700 C   0  0  2  0  0  0  0  0  0  0  0  0
    0.3950    8.5840   -1.6360 O   0  0  0  0  0  0  0  0  0  0  0  0
   -0.5820   10.4370   -0.3810 C   0  0  0  0  0  0  0  0  0  0  0  0
   -0.7780   10.9670    1.0610 C   0  0  0  0  0  0  0  0  0  0  0  0
   -1.9620    9.8900   -0.8340 C   0  0  0  0  0  0  0  0  0  0  0  0
    1.9610   13.1750   -1.9570 C   0  0  1  0  0  0  0  0  0  0  0  0
    2.5070   12.5770   -3.2890 C   0  0  0  0  0  0  0  0  0  0  0  0
    3.1830   13.8710   -1.2490 C   0  0  0  0  0  0  0  0  0  0  0  0
    2.8600   15.0320   -0.2890 C   0  0  0  0  0  0  0  0  0  0  0  0
    1.9120   16.0400   -0.9470 C   0  0  2  0  0  0  0  0  0  0  0  0
    2.6500   16.6530   -2.1860 C   0  0  0  0  0  0  0  0  0  0  0  0
    1.7097   20.4009    0.0620 H   0  0  0  0  0  0  0  0  0  0  0  0
    2.8237   19.8876   -1.2503 H   0  0  0  0  0  0  0  0  0  0  0  0
    1.1171   19.3271   -1.2503 H   0  0  0  0  0  0  0  0  0  0  0  0
    2.3414   18.6364    1.2675 H   0  0  0  0  0  0  0  0  0  0  0  0
    3.8558   16.7986   -0.0769 H   0  0  0  0  0  0  0  0  0  0  0  0
    4.0931   18.3089   -1.0798 H   0  0  0  0  0  0  0  0  0  0  0  0
    5.5881   17.6310    1.1169 H   0  0  0  0  0  0  0  0  0  0  0  0
    5.3489   19.3038    0.4595 H   0  0  0  0  0  0  0  0  0  0  0  0
    3.3459   18.2092    1.9961 H   0  0  0  0  0  0  0  0  0  0  0  0
    6.8271   19.0112    4.5447 H   0  0  0  0  0  0  0  0  0  0  0  0
    6.8012   18.1125    2.9897 H   0  0  0  0  0  0  0  0  0  0  0  0
    6.9381   19.9035    2.9897 H   0  0  0  0  0  0  0  0  0  0  0  0
    5.0177   19.1530    5.5890 H   0  0  0  0  0  0  0  0  0  0  0  0
    3.5681   19.9091    4.8450 H   0  0  0  0  0  0  0  0  0  0  0  0
    3.7488   18.1220    4.8450 H   0  0  0  0  0  0  0  0  0  0  0  0
    1.2573   16.8534    0.9724 H   0  0  0  0  0  0  0  0  0  0  0  0
   -0.6734   17.8735   -0.0627 H   0  0  0  0  0  0  0  0  0  0  0  0
    0.3063   18.5992   -1.3548 H   0  0  0  0  0  0  0  0  0  0  0  0
   -1.3645   16.2968   -1.6305 H   0  0  0  0  0  0  0  0  0  0  0  0
   -0.1294   16.7660   -2.7960 H   0  0  0  0  0  0  0  0  0  0  0  0
    0.2868   15.1000    0.8807 H   0  0  0  0  0  0  0  0  0  0  0  0
   -1.2410   15.0611   -0.0632 H   0  0  0  0  0  0  0  0  0  0  0  0
   -0.1487   13.6351   -0.0632 H   0  0  0  0  0  0  0  0  0  0  0  0
    1.2151   14.7924   -3.2035 H   0  0  0  0  0  0  0  0  0  0  0  0
   -1.2654   14.1997   -2.8423 H   0  0  0  0  0  0  0  0  0  0  0  0
   -0.1809   13.1563   -3.9021 H   0  0  0  0  0  0  0  0  0  0  0  0
   -1.8348   11.8706   -2.3042 H   0  0  0  0  0  0  0  0  0  0  0  0
    1.4432   12.4728   -0.0261 H   0  0  0  0  0  0  0  0  0  0  0  0
    2.3122   10.3309   -2.0652 H   0  0  0  0  0  0  0  0  0  0  0  0
    3.3327   11.0626   -0.7490 H   0  0  0  0  0  0  0  0  0  0  0  0
    2.5178    8.8034   -0.1542 H   0  0  0  0  0  0  0  0  0  0  0  0
    1.8929   10.0918    0.9485 H   0  0  0  0  0  0  0  0  0  0  0  0
    0.1021    8.5770    0.4391 H   0  0  0  0  0  0  0  0  0  0  0  0
   -0.5360    8.4100   -1.8570 H   0  0  0  0  0  0  0  0  0  0  0  0
   -0.4895   10.1868    1.7808 H   0  0  0  0  0  0  0  0  0  0  0  0
   -0.1495   11.8568    1.2132 H   0  0  0  0  0  0  0  0  0  0  0  0
   -1.8343   11.2338    1.2132 H   0  0  0  0  0  0  0  0  0  0  0  0
   -2.5694    9.6492    0.0509 H   0  0  0  0  0  0  0  0  0  0  0  0
   -2.4783   10.6515   -1.4370 H   0  0  0  0  0  0  0  0  0  0  0  0
   -1.8164    8.9816   -1.4370 H   0  0  0  0  0  0  0  0  0  0  0  0
    3.2330   11.7819   -3.0636 H   0  0  0  0  0  0  0  0  0  0  0  0
    1.6734   12.1580   -3.8717 H   0  0  0  0  0  0  0  0  0  0  0  0
    2.9999   13.3691   -3.8717 H   0  0  0  0  0  0  0  0  0  0  0  0
    3.7164   13.1009   -0.6724 H   0  0  0  0  0  0  0  0  0  0  0  0
    3.7675   14.3245   -2.0631 H   0  0  0  0  0  0  0  0  0  0  0  0
    2.3837   14.6282    0.6166 H   0  0  0  0  0  0  0  0  0  0  0  0
    3.7977   15.5473   -0.0337 H   0  0  0  0  0  0  0  0  0  0  0  0
    3.4535   17.3204   -1.8410 H   0  0  0  0  0  0  0  0  0  0  0  0
    3.0812   15.8436   -2.7934 H   0  0  0  0  0  0  0  0  0  0  0  0
    1.9334   17.2254   -2.7934 H   0  0  0  0  0  0  0  0  0  0  0  0
  1  2  1  0
  2  3  1  0
  3  4  1  0
  4  5  1  0
  5  6  1  0
  6  7  1  0
  7  8  1  0
  7  9  1  0
  2 10  1  0
 10 11  1  0
 11 12  1  0
 12 13  1  0
 13 14  1  1
 13 15  1  0
 15 16  1  0
 16 17  1  0
 17 18  2  0
 18 19  1  0
 19 20  1  0
 20 21  1  0
 21 22  1  0
 22 23  1  0
 22 24  1  0
 24 25  1  0
 24 26  1  0
 19 27  1  0
 27 28  1  6
 27 29  1  0
 29 30  1  0
 30 31  1  0
 31 32  1  6
  7  5  1  0
 31 10  1  0
 31 13  1  0
 27 15  1  0
 24 18  1  0
  1 33  1  0
  1 34  1  0
  1 35  1  0
  2 36  1  1
  3 37  1  0
  3 38  1  0
  4 39  1  0
  4 40  1  0
  5 41  1  1
  8 42  1  0
  8 43  1  0
  8 44  1  0
  9 45  1  0
  9 46  1  0
  9 47  1  0
 10 48  1  1
 11 49  1  0
 11 50  1  0
 12 51  1  0
 12 52  1  0
 14 53  1  0
 14 54  1  0
 14 55  1  0
 15 56  1  6
 16 57  1  0
 16 58  1  0
 17 59  1  0
 19 60  1  1
 20 61  1  0
 20 62  1  0
 21 63  1  0
 21 64  1  0
 22 65  1  1
 23 66  1  0
 25 67  1  0
 25 68  1  0
 25 69  1  0
 26 70  1  0
 26 71  1  0
 26 72  1  0
 28 73  1  0
 28 74  1  0
 28 75  1  0
 29 76  1  0
 29 77  1  0
 30 78  1  0
 30 79  1  0
 32 80  1  0
 32 81  1  0
 32 82  1  0
M  END
>  <meeko>  (2) 
{"is_sidechain": [false], "intermolecular_energy": 2.731, "internal_energy": -0.839}

$$$$
EPH_relaxed_0001_pdb2pqr_Repair_44_r2_0001_out
     RDKit          3D

 82 86  0  0  0  0  0  0  0  0999 V2000
    0.4220   18.4460    0.0110 C   0  0  0  0  0  0  0  0  0  0  0  0
    1.5120   17.3950   -0.2200 C   0  0  2  0  0  0  0  0  0  0  0  0
    2.7210   17.9700   -0.9830 C   0  0  0  0  0  0  0  0  0  0  0  0
    3.9550   18.1910   -0.1040 C   0  0  0  0  0  0  0  0  0  0  0  0
    3.5800   18.6420    1.2750 C   0  0  2  0  0  0  0  0  0  0  0  0
    3.8300   20.0290    1.5400 O   0  0  0  0  0  0  0  0  0  0  0  0
    4.5910   19.0880    2.3140 C   0  0  0  0  0  0  0  0  0  0  0  0
    6.0580   19.1030    2.0190 C   0  0  0  0  0  0  0  0  0  0  0  0
    4.2020   19.0410    3.7590 C   0  0  0  0  0  0  0  0  0  0  0  0
    0.9340   16.2060   -0.9790 C   0  0  1  0  0  0  0  0  0  0  0  0
    0.7770   16.4860   -2.4970 C   0  0  0  0  0  0  0  0  0  0  0  0
    1.0650   15.1500   -3.2300 C   0  0  0  0  0  0  0  0  0  0  0  0
    1.0500   14.0810   -2.1130 C   0  0  1  0  0  0  0  0  0  0  0  0
   -0.4610   13.7700   -1.8750 C   0  0  0  0  0  0  0  0  0  0  0  0
    1.8700   12.7790   -2.3910 C   0  0  2  0  0  0  0  0  0  0  0  0
    1.3860   11.9470   -3.5920 C   0  0  0  0  0  0  0  0  0  0  0  0
    0.3680   10.9020   -3.2760 C   0  0  0  0  0  0  0  0  0  0  0  0
    0.0710   10.4480   -2.0440 C   0  0  0  0  0  0  0  0  0  0  0  0
    0.8590   10.9240   -0.8170 C   0  0  1  0  0  0  0  0  0  0  0  0
    1.2400    9.7030    0.0600 C   0  0  0  0  0  0  0  0  0  0  0  0
    0.0300    8.8530    0.4370 C   0  0  0  0  0  0  0  0  0  0  0  0
   -0.6930    8.3510   -0.8090 C   0  0  2  0  0  0  0  0  0  0  0  0
    0.1600    7.4310   -1.4980 O   0  0  0  0  0  0  0  0  0  0  0  0
   -1.1180    9.4930   -1.7740 C   0  0  0  0  0  0  0  0  0  0  0  0
   -2.2660   10.3130   -1.1360 C   0  0  0  0  0  0  0  0  0  0  0  0
   -1.7090    8.8420   -3.0540 C   0  0  0  0  0  0  0  0  0  0  0  0
    2.1000   11.8720   -1.1150 C   0  0  1  0  0  0  0  0  0  0  0  0
    3.3690   11.0130   -1.4020 C   0  0  0  0  0  0  0  0  0  0  0  0
    2.4190   12.7200    0.1720 C   0  0  0  0  0  0  0  0  0  0  0  0
    1.6640   14.0540    0.3310 C   0  0  0  0  0  0  0  0  0  0  0  0
    1.7440   14.8850   -0.9540 C   0  0  2  0  0  0  0  0  0  0  0  0
    3.2500   15.2320   -1.2070 C   0  0  0  0  0  0  0  0  0  0  0  0
    0.2737   18.5890    1.0915 H   0  0  0  0  0  0  0  0  0  0  0  0
    0.7282   19.3984   -0.4463 H   0  0  0  0  0  0  0  0  0  0  0  0
   -0.5186   18.1053   -0.4463 H   0  0  0  0  0  0  0  0  0  0  0  0
    1.8708   17.0676    0.7670 H   0  0  0  0  0  0  0  0  0  0  0  0
    2.9888   17.2696   -1.7878 H   0  0  0  0  0  0  0  0  0  0  0  0
    2.4194   18.9555   -1.3674 H   0  0  0  0  0  0  0  0  0  0  0  0
    4.5140   17.2465   -0.0304 H   0  0  0  0  0  0  0  0  0  0  0  0
    4.5691   18.9776   -0.5668 H   0  0  0  0  0  0  0  0  0  0  0  0
    2.7547   17.9157    1.3131 H   0  0  0  0  0  0  0  0  0  0  0  0
    6.6219   19.1088    2.9635 H   0  0  0  0  0  0  0  0  0  0  0  0
    6.3244   18.2075    1.4383 H   0  0  0  0  0  0  0  0  0  0  0  0
    6.3061   20.0037    1.4383 H   0  0  0  0  0  0  0  0  0  0  0  0
    5.1005   19.1496    4.3843 H   0  0  0  0  0  0  0  0  0  0  0  0
    3.5021   19.8611    3.9772 H   0  0  0  0  0  0  0  0  0  0  0  0
    3.7176   18.0778    3.9772 H   0  0  0  0  0  0  0  0  0  0  0  0
   -0.0111   16.0785   -0.4309 H   0  0  0  0  0  0  0  0  0  0  0  0
   -0.2462   16.8253   -2.7159 H   0  0  0  0  0  0  0  0  0  0  0  0
    1.4689   17.2749   -2.8270 H   0  0  0  0  0  0  0  0  0  0  0  0
    0.2855   14.9414   -3.9776 H   0  0  0  0  0  0  0  0  0  0  0  0
    2.0204   15.1707   -3.7747 H   0  0  0  0  0  0  0  0  0  0  0  0
   -0.6611   13.7288   -0.7941 H   0  0  0  0  0  0  0  0  0  0  0  0
   -1.0744   14.5607   -2.3316 H   0  0  0  0  0  0  0  0  0  0  0  0
   -0.7123   12.8013   -2.3316 H   0  0  0  0  0  0  0  0  0  0  0  0
    2.8536   13.1777   -2.6802 H   0  0  0  0  0  0  0  0  0  0  0  0
    0.9477   12.6366   -4.3284 H   0  0  0  0  0  0  0  0  0  0  0  0
    2.2697   11.4078   -3.9641 H   0  0  0  0  0  0  0  0  0  0  0  0
   -0.1859   10.4664   -4.1206 H   0  0  0  0  0  0  0  0  0  0  0  0
    0.1812   11.5869   -0.2592 H   0  0  0  0  0  0  0  0  0  0  0  0
    1.9511    9.0762   -0.4980 H   0  0  0  0  0  0  0  0  0  0  0  0
    1.6823   10.0860    0.9915 H   0  0  0  0  0  0  0  0  0  0  0  0
    0.3670    7.9900    1.0300 H   0  0  0  0  0  0  0  0  0  0  0  0
   -0.6662    9.4727    1.0212 H   0  0  0  0  0  0  0  0  0  0  0  0
   -1.6201    7.8609   -0.4768 H   0  0  0  0  0  0  0  0  0  0  0  0
   -0.3690    6.6440   -1.7140 H   0  0  0  0  0  0  0  0  0  0  0  0
   -2.1901   10.2588   -0.0400 H   0  0  0  0  0  0  0  0  0  0  0  0
   -2.1897   11.3622   -1.4574 H   0  0  0  0  0  0  0  0  0  0  0  0
   -3.2338    9.9005   -1.4574 H   0  0  0  0  0  0  0  0  0  0  0  0
   -2.4231    8.0554   -2.7690 H   0  0  0  0  0  0  0  0  0  0  0  0
   -2.2262    9.6084   -3.6498 H   0  0  0  0  0  0  0  0  0  0  0  0
   -0.8963    8.4010   -3.6498 H   0  0  0  0  0  0  0  0  0  0  0  0
    3.8255   10.7040   -0.4501 H   0  0  0  0  0  0  0  0  0  0  0  0
    3.0849   10.1207   -1.9792 H   0  0  0  0  0  0  0  0  0  0  0  0
    4.0919   11.6082   -1.9792 H   0  0  0  0  0  0  0  0  0  0  0  0
    2.1824   12.0975    1.0475 H   0  0  0  0  0  0  0  0  0  0  0  0
    3.4788   12.9991    0.0769 H   0  0  0  0  0  0  0  0  0  0  0  0
    0.6085   13.8452    0.5596 H   0  0  0  0  0  0  0  0  0  0  0  0
    2.1288   14.6253    1.1481 H   0  0  0  0  0  0  0  0  0  0  0  0
    3.7659   15.3509   -0.2428 H   0  0  0  0  0  0  0  0  0  0  0  0
    3.7226   14.4192   -1.7780 H   0  0  0  0  0  0  0  0  0  0  0  0
    3.3193   16.1697   -1.7780 H   0  0  0  0  0  0  0  0  0  0  0  0
  1  2  1  0
  2  3  1  0
  3  4  1  0
  4  5  1  0
  5  6  1  0
  6  7  1  0
  7  8  1  0
  7  9  1  0
  2 10  1  0
 10 11  1  0
 11 12  1  0
 12 13  1  0
 13 14  1  1
 13 15  1  0
 15 16  1  0
 16 17  1  0
 17 18  2  0
 18 19  1  0
 19 20  1  0
 20 21  1  0
 21 22  1  0
 22 23  1  0
 22 24  1  0
 24 25  1  0
 24 26  1  0
 19 27  1  0
 27 28  1  6
 27 29  1  0
 29 30  1  0
 30 31  1  0
 31 32  1  6
  7  5  1  0
 31 10  1  0
 31 13  1  0
 27 15  1  0
 24 18  1  0
  1 33  1  0
  1 34  1  0
  1 35  1  0
  2 36  1  1
  3 37  1  0
  3 38  1  0
  4 39  1  0
  4 40  1  0
  5 41  1  1
  8 42  1  0
  8 43  1  0
  8 44  1  0
  9 45  1  0
  9 46  1  0
  9 47  1  0
 10 48  1  1
 11 49  1  0
 11 50  1  0
 12 51  1  0
 12 52  1  0
 14 53  1  0
 14 54  1  0
 14 55  1  0
 15 56  1  6
 16 57  1  0
 16 58  1  0
 17 59  1  0
 19 60  1  1
 20 61  1  0
 20 62  1  0
 21 63  1  0
 21 64  1  0
 22 65  1  1
 23 66  1  0
 25 67  1  0
 25 68  1  0
 25 69  1  0
 26 70  1  0
 26 71  1  0
 26 72  1  0
 28 73  1  0
 28 74  1  0
 28 75  1  0
 29 76  1  0
 29 77  1  0
 30 78  1  0
 30 79  1  0
 32 80  1  0
 32 81  1  0
 32 82  1  0
M  END
>  <meeko>  (3) 
{"is_sidechain": [false], "intermolecular_energy": 2.731, "internal_energy": -0.839}

$$$$
EPH_relaxed_0001_pdb2pqr_Repair_44_r2_0001_out
     RDKit          3D

 82 86  0  0  0  0  0  0  0  0999 V2000
    2.3300   18.1260   -2.7280 C   0  0  0  0  0  0  0  0  0  0  0  0
    1.0900   17.6920   -1.9410 C   0  0  2  0  0  0  0  0  0  0  0  0
    1.3310   17.7170   -0.4180 C   0  0  0  0  0  0  0  0  0  0  0  0
    1.0370   19.0740    0.2280 C   0  0  0  0  0  0  0  0  0  0  0  0
   -0.3960   19.1870    0.6530 C   0  0  2  0  0  0  0  0  0  0  0  0
   -1.2840   18.2580    0.0160 O   0  0  0  0  0  0  0  0  0  0  0  0
   -1.5080   19.6480   -0.2710 C   0  0  0  0  0  0  0  0  0  0  0  0
   -1.2350   20.0280   -1.6920 C   0  0  0  0  0  0  0  0  0  0  0  0
   -2.7630   20.1940    0.3370 C   0  0  0  0  0  0  0  0  0  0  0  0
    0.6610   16.2960   -2.3780 C   0  0  1  0  0  0  0  0  0  0  0  0
    0.7940   16.0820   -3.9090 C   0  0  0  0  0  0  0  0  0  0  0  0
    1.2080   14.6020   -4.1190 C   0  0  0  0  0  0  0  0  0  0  0  0
    0.9780   13.9340   -2.7430 C   0  0  1  0  0  0  0  0  0  0  0  0
   -0.5520   13.6300   -2.6960 C   0  0  0  0  0  0  0  0  0  0  0  0
    1.8300   12.6570   -2.4440 C   0  0  2  0  0  0  0  0  0  0  0  0
    1.5770   11.4690   -3.3880 C   0  0  0  0  0  0  0  0  0  0  0  0
    0.5130   10.5190   -2.9470 C   0  0  0  0  0  0  0  0  0  0  0  0
   -0.0140   10.4540   -1.7100 C   0  0  0  0  0  0  0  0  0  0  0  0
    0.5310   11.3300   -0.5750 C   0  0  1  0  0  0  0  0  0  0  0  0
    0.7340   10.4640    0.6960 C   0  0  0  0  0  0  0  0  0  0  0  0
   -0.5290    9.7090    1.0970 C   0  0  0  0  0  0  0  0  0  0  0  0
   -1.0070    8.8050   -0.0360 C   0  0  2  0  0  0  0  0  0  0  0  0
   -0.0440    7.7650   -0.2330 O   0  0  0  0  0  0  0  0  0  0  0  0
   -1.2360    9.5660   -1.3720 C   0  0  0  0  0  0  0  0  0  0  0  0
   -2.4800   10.4800   -1.2430 C   0  0  0  0  0  0  0  0  0  0  0  0
   -1.5790    8.5180   -2.4650 C   0  0  0  0  0  0  0  0  0  0  0  0
    1.8100   12.2060   -0.9280 C   0  0  1  0  0  0  0  0  0  0  0  0
    3.1070   11.3710   -0.6950 C   0  0  0  0  0  0  0  0  0  0  0  0
    1.8860   13.4280    0.0620 C   0  0  0  0  0  0  0  0  0  0  0  0
    1.1210   14.7010   -0.3470 C   0  0  0  0  0  0  0  0  0  0  0  0
    1.4450   15.0950   -1.7920 C   0  0  2  0  0  0  0  0  0  0  0  0
    2.9740   15.4280   -1.8650 C   0  0  0  0  0  0  0  0  0  0  0  0
    3.1299   18.4060   -2.0268 H   0  0  0  0  0  0  0  0  0  0  0  0
    2.6721   17.2942   -3.3613 H   0  0  0  0  0  0  0  0  0  0  0  0
    2.0787   18.9896   -3.3613 H   0  0  0  0  0  0  0  0  0  0  0  0
    0.2888   18.4132   -2.1599 H   0  0  0  0  0  0  0  0  0  0  0  0
    0.6818   16.9618    0.0491 H   0  0  0  0  0  0  0  0  0  0  0  0
    2.3990   17.5084   -0.2574 H   0  0  0  0  0  0  0  0  0  0  0  0
    1.6814   19.1954    1.1112 H   0  0  0  0  0  0  0  0  0  0  0  0
    1.2367   19.8587   -0.5166 H   0  0  0  0  0  0  0  0  0  0  0  0
   -0.0968   19.5038    1.6630 H   0  0  0  0  0  0  0  0  0  0  0  0
   -0.5933   20.9211   -1.7159 H   0  0  0  0  0  0  0  0  0  0  0  0
   -0.7260   19.1971   -2.2025 H   0  0  0  0  0  0  0  0  0  0  0  0
   -2.1849   20.2452   -2.2025 H   0  0  0  0  0  0  0  0  0  0  0  0
   -2.6842   20.1597    1.4336 H   0  0  0  0  0  0  0  0  0  0  0  0
   -2.9050   21.2352    0.0120 H   0  0  0  0  0  0  0  0  0  0  0  0
   -3.6216   19.5881    0.0120 H   0  0  0  0  0  0  0  0  0  0  0  0
   -0.3711   16.2928   -1.9976 H   0  0  0  0  0  0  0  0  0  0  0  0
   -0.1680   16.2803   -4.4043 H   0  0  0  0  0  0  0  0  0  0  0  0
    1.5397   16.7660   -4.3404 H   0  0  0  0  0  0  0  0  0  0  0  0
    0.5817   14.1291   -4.8898 H   0  0  0  0  0  0  0  0  0  0  0  0
    2.2487   14.5043   -4.4616 H   0  0  0  0  0  0  0  0  0  0  0  0
   -0.8808   13.5647   -1.6483 H   0  0  0  0  0  0  0  0  0  0  0  0
   -1.1018   14.4365   -3.2033 H   0  0  0  0  0  0  0  0  0  0  0  0
   -0.7518   12.6746   -3.2033 H   0  0  0  0  0  0  0  0  0  0  0  0
    2.8528   12.9983   -2.6616 H   0  0  0  0  0  0  0  0  0  0  0  0
    1.2878   11.8710   -4.3702 H   0  0  0  0  0  0  0  0  0  0  0  0
    2.5125   10.8907   -3.4066 H   0  0  0  0  0  0  0  0  0  0  0  0
    0.1270    9.8123   -3.6964 H   0  0  0  0  0  0  0  0  0  0  0  0
   -0.2363   12.0952   -0.3862 H   0  0  0  0  0  0  0  0  0  0  0  0
    1.5341    9.7346    0.5016 H   0  0  0  0  0  0  0  0  0  0  0  0
    0.9953   11.1407    1.5229 H   0  0  0  0  0  0  0  0  0  0  0  0
   -0.3143    9.0931    1.9828 H   0  0  0  0  0  0  0  0  0  0  0  0
   -1.3196   10.4407    1.3197 H   0  0  0  0  0  0  0  0  0  0  0  0
   -1.9825    8.3920    0.2603 H   0  0  0  0  0  0  0  0  0  0  0  0
    0.6270    8.1000   -0.8530 H   0  0  0  0  0  0  0  0  0  0  0  0
   -2.7049   10.6452   -0.1790 H   0  0  0  0  0  0  0  0  0  0  0  0
   -2.2775   11.4457   -1.7292 H   0  0  0  0  0  0  0  0  0  0  0  0
   -3.3410    9.9981   -1.7292 H   0  0  0  0  0  0  0  0  0  0  0  0
   -1.8871    7.5766   -1.9866 H   0  0  0  0  0  0  0  0  0  0  0  0
   -2.4000    8.8968   -3.0914 H   0  0  0  0  0  0  0  0  0  0  0  0
   -0.6929    8.3381   -3.0914 H   0  0  0  0  0  0  0  0  0  0  0  0
    3.2816   11.2586    0.3852 H   0  0  0  0  0  0  0  0  0  0  0  0
    2.9908   10.3776   -1.1530 H   0  0  0  0  0  0  0  0  0  0  0  0
    3.9631   11.8880   -1.1530 H   0  0  0  0  0  0  0  0  0  0  0  0
    1.4861   13.0963    1.0316 H   0  0  0  0  0  0  0  0  0  0  0  0
    2.9461   13.7212    0.0770 H   0  0  0  0  0  0  0  0  0  0  0  0
    0.0404   14.5156   -0.2582 H   0  0  0  0  0  0  0  0  0  0  0  0
    1.4265   15.5226    0.3175 H   0  0  0  0  0  0  0  0  0  0  0  0
    3.3791   15.5162   -0.8461 H   0  0  0  0  0  0  0  0  0  0  0  0
    3.4994   14.6232   -2.4001 H   0  0  0  0  0  0  0  0  0  0  0  0
    3.1171   16.3784   -2.4001 H   0  0  0  0  0  0  0  0  0  0  0  0
  1  2  1  0
  2  3  1  0
  3  4  1  0
  4  5  1  0
  5  6  1  0
  6  7  1  0
  7  8  1  0
  7  9  1  0
  2 10  1  0
 10 11  1  0
 11 12  1  0
 12 13  1  0
 13 14  1  1
 13 15  1  0
 15 16  1  0
 16 17  1  0
 17 18  2  0
 18 19  1  0
 19 20  1  0
 20 21  1  0
 21 22  1  0
 22 23  1  0
 22 24  1  0
 24 25  1  0
 24 26  1  0
 19 27  1  0
 27 28  1  6
 27 29  1  0
 29 30  1  0
 30 31  1  0
 31 32  1  1
  7  5  1  0
 31 10  1  0
 31 13  1  0
 27 15  1  0
 24 18  1  0
  1 33  1  0
  1 34  1  0
  1 35  1  0
  2 36  1  1
  3 37  1  0
  3 38  1  0
  4 39  1  0
  4 40  1  0
  5 41  1  1
  8 42  1  0
  8 43  1  0
  8 44  1  0
  9 45  1  0
  9 46  1  0
  9 47  1  0
 10 48  1  1
 11 49  1  0
 11 50  1  0
 12 51  1  0
 12 52  1  0
 14 53  1  0
 14 54  1  0
 14 55  1  0
 15 56  1  6
 16 57  1  0
 16 58  1  0
 17 59  1  0
 19 60  1  1
 20 61  1  0
 20 62  1  0
 21 63  1  0
 21 64  1  0
 22 65  1  1
 23 66  1  0
 25 67  1  0
 25 68  1  0
 25 69  1  0
 26 70  1  0
 26 71  1  0
 26 72  1  0
 28 73  1  0
 28 74  1  0
 28 75  1  0
 29 76  1  0
 29 77  1  0
 30 78  1  0
 30 79  1  0
 32 80  1  0
 32 81  1  0
 32 82  1  0
M  END
>  <meeko>  (4) 
{"is_sidechain": [false], "intermolecular_energy": 2.731, "internal_energy": -0.839}

$$$$
EPH_relaxed_0001_pdb2pqr_Repair_44_r2_0001_out
     RDKit          3D

 82 86  0  0  0  0  0  0  0  0999 V2000
    3.6510   17.6070    0.4880 C   0  0  0  0  0  0  0  0  0  0  0  0
    2.7290   17.8570   -0.7090 C   0  0  2  0  0  0  0  0  0  0  0  0
    2.0610   19.2460   -0.6460 C   0  0  0  0  0  0  0  0  0  0  0  0
    1.2880   19.4990    0.6510 C   0  0  0  0  0  0  0  0  0  0  0  0
   -0.0490   20.1230    0.3870 C   0  0  2  0  0  0  0  0  0  0  0  0
   -0.9130   20.1940    1.5290 O   0  0  0  0  0  0  0  0  0  0  0  0
   -1.3570   19.3560    0.4500 C   0  0  0  0  0  0  0  0  0  0  0  0
   -1.3920   17.8980    0.7860 C   0  0  0  0  0  0  0  0  0  0  0  0
   -2.5410   19.9000   -0.2870 C   0  0  0  0  0  0  0  0  0  0  0  0
    1.6640   16.7700   -0.7810 C   0  0  1  0  0  0  0  0  0  0  0  0
    0.3730   17.2440   -1.5010 C   0  0  0  0  0  0  0  0  0  0  0  0
   -0.1830   16.0210   -2.2750 C   0  0  0  0  0  0  0  0  0  0  0  0
    0.6070   14.8140   -1.7170 C   0  0  1  0  0  0  0  0  0  0  0  0
   -0.1100   14.4510   -0.3780 C   0  0  0  0  0  0  0  0  0  0  0  0
    0.7310   13.5740   -2.6600 C   0  0  2  0  0  0  0  0  0  0  0  0
   -0.6020   12.9000   -3.0300 C   0  0  0  0  0  0  0  0  0  0  0  0
   -1.0400   11.8060   -2.1140 C   0  0  0  0  0  0  0  0  0  0  0  0
   -0.2620   11.1890   -1.2050 C   0  0  0  0  0  0  0  0  0  0  0  0
    1.2340   11.5120   -1.0980 C   0  0  1  0  0  0  0  0  0  0  0  0
    2.0440   10.1920   -1.0130 C   0  0  0  0  0  0  0  0  0  0  0  0
    1.5630    9.2820    0.1120 C   0  0  0  0  0  0  0  0  0  0  0  0
    0.0860    8.9360   -0.0600 C   0  0  2  0  0  0  0  0  0  0  0  0
   -0.0650    8.1280   -1.2320 O   0  0  0  0  0  0  0  0  0  0  0  0
   -0.8290   10.1880   -0.1680 C   0  0  0  0  0  0  0  0  0  0  0  0
   -0.9000   10.8990    1.2060 C   0  0  0  0  0  0  0  0  0  0  0  0
   -2.2690    9.7020   -0.4800 C   0  0  0  0  0  0  0  0  0  0  0  0
    1.8070   12.5110   -2.1940 C   0  0  1  0  0  0  0  0  0  0  0  0
    2.2290   11.7170   -3.4680 C   0  0  0  0  0  0  0  0  0  0  0  0
    3.1150   13.1870   -1.6390 C   0  0  0  0  0  0  0  0  0  0  0  0
    2.9350   14.4760   -0.8150 C   0  0  0  0  0  0  0  0  0  0  0  0
    2.0250   15.4700   -1.5430 C   0  0  2  0  0  0  0  0  0  0  0  0
    2.7300   15.8710   -2.8840 C   0  0  0  0  0  0  0  0  0  0  0  0
    3.0894   17.7593    1.4215 H   0  0  0  0  0  0  0  0  0  0  0  0
    4.0279   16.5742    0.4511 H   0  0  0  0  0  0  0  0  0  0  0  0
    4.4980   18.3079    0.4511 H   0  0  0  0  0  0  0  0  0  0  0  0
    3.3497   17.8292   -1.6167 H   0  0  0  0  0  0  0  0  0  0  0  0
    2.8444   20.0126   -0.7385 H   0  0  0  0  0  0  0  0  0  0  0  0
    1.3318   19.2896   -1.4685 H   0  0  0  0  0  0  0  0  0  0  0  0
    1.1379   18.5404    1.1693 H   0  0  0  0  0  0  0  0  0  0  0  0
    1.8746   20.1941    1.2697 H   0  0  0  0  0  0  0  0  0  0  0  0
    0.3838   20.7824   -0.3797 H   0  0  0  0  0  0  0  0  0  0  0  0
   -1.3950   17.7736    1.8789 H   0  0  0  0  0  0  0  0  0  0  0  0
   -2.3013   17.4460    0.3630 H   0  0  0  0  0  0  0  0  0  0  0  0
   -0.5055   17.4029    0.3630 H   0  0  0  0  0  0  0  0  0  0  0  0
   -3.2950   20.2464    0.4352 H   0  0  0  0  0  0  0  0  0  0  0  0
   -2.2241   20.7428   -0.9189 H   0  0  0  0  0  0  0  0  0  0  0  0
   -2.9740   19.1105   -0.9189 H   0  0  0  0  0  0  0  0  0  0  0  0
    1.5454   16.5576    0.2918 H   0  0  0  0  0  0  0  0  0  0  0  0
   -0.3652   17.5932   -0.7640 H   0  0  0  0  0  0  0  0  0  0  0  0
    0.5860   18.0797   -2.1838 H   0  0  0  0  0  0  0  0  0  0  0  0
   -1.2602   15.9000   -2.0879 H   0  0  0  0  0  0  0  0  0  0  0  0
   -0.0668   16.1283   -3.3636 H   0  0  0  0  0  0  0  0  0  0  0  0
    0.5150   14.7674    0.4701 H   0  0  0  0  0  0  0  0  0  0  0  0
   -1.0807   14.9662   -0.3305 H   0  0  0  0  0  0  0  0  0  0  0  0
   -0.2693   13.3636   -0.3305 H   0  0  0  0  0  0  0  0  0  0  0  0
    1.1075   14.0220   -3.5914 H   0  0  0  0  0  0  0  0  0  0  0  0
   -1.3842   13.6734   -3.0339 H   0  0  0  0  0  0  0  0  0  0  0  0
   -0.4425   12.4292   -4.0113 H   0  0  0  0  0  0  0  0  0  0  0  0
   -2.0868   11.4761   -2.1879 H   0  0  0  0  0  0  0  0  0  0  0  0
    1.3562   12.0847   -0.1668 H   0  0  0  0  0  0  0  0  0  0  0  0
    1.9443    9.6550   -1.9678 H   0  0  0  0  0  0  0  0  0  0  0  0
    3.0913   10.4559   -0.8042 H   0  0  0  0  0  0  0  0  0  0  0  0
    2.1537    8.3541    0.1019 H   0  0  0  0  0  0  0  0  0  0  0  0
    1.6911    9.8090    1.0690 H   0  0  0  0  0  0  0  0  0  0  0  0
   -0.2319    8.3922    0.8418 H   0  0  0  0  0  0  0  0  0  0  0  0
    0.4830    7.3340   -1.1140 H   0  0  0  0  0  0  0  0  0  0  0  0
   -0.8254   10.1518    2.0098 H   0  0  0  0  0  0  0  0  0  0  0  0
   -0.0688   11.6144    1.2921 H   0  0  0  0  0  0  0  0  0  0  0  0
   -1.8562   11.4359    1.2921 H   0  0  0  0  0  0  0  0  0  0  0  0
   -2.8069    9.5205    0.4622 H   0  0  0  0  0  0  0  0  0  0  0  0
   -2.7977   10.4715   -1.0617 H   0  0  0  0  0  0  0  0  0  0  0  0
   -2.2233    8.7695   -1.0617 H   0  0  0  0  0  0  0  0  0  0  0  0
    2.7259   10.7821   -3.1695 H   0  0  0  0  0  0  0  0  0  0  0  0
    1.3363   11.4829   -4.0666 H   0  0  0  0  0  0  0  0  0  0  0  0
    2.9225   12.3259   -4.0666 H   0  0  0  0  0  0  0  0  0  0  0  0
    3.6239   12.4513   -0.9989 H   0  0  0  0  0  0  0  0  0  0  0  0
    3.6817   13.4925   -2.5309 H   0  0  0  0  0  0  0  0  0  0  0  0
    2.4860   14.2221    0.1566 H   0  0  0  0  0  0  0  0  0  0  0  0
    3.9212   14.9423   -0.6736 H   0  0  0  0  0  0  0  0  0  0  0  0
    3.6663   16.4036   -2.6610 H   0  0  0  0  0  0  0  0  0  0  0  0
    2.9533   14.9648   -3.4661 H   0  0  0  0  0  0  0  0  0  0  0  0
    2.0652   16.5261   -3.4661 H   0  0  0  0  0  0  0  0  0  0  0  0
  1  2  1  0
  2  3  1  0
  3  4  1  0
  4  5  1  0
  5  6  1  0
  6  7  1  0
  7  8  1  0
  7  9  1  0
  2 10  1  0
 10 11  1  0
 11 12  1  0
 12 13  1  0
 13 14  1  1
 13 15  1  0
 15 16  1  0
 16 17  1  0
 17 18  2  0
 18 19  1  0
 19 20  1  0
 20 21  1  0
 21 22  1  0
 22 23  1  0
 22 24  1  0
 24 25  1  0
 24 26  1  0
 19 27  1  0
 27 28  1  6
 27 29  1  0
 29 30  1  0
 30 31  1  0
 31 32  1  6
  7  5  1  0
 31 10  1  0
 31 13  1  0
 27 15  1  0
 24 18  1  0
  1 33  1  0
  1 34  1  0
  1 35  1  0
  2 36  1  6
  3 37  1  0
  3 38  1  0
  4 39  1  0
  4 40  1  0
  5 41  1  6
  8 42  1  0
  8 43  1  0
  8 44  1  0
  9 45  1  0
  9 46  1  0
  9 47  1  0
 10 48  1  1
 11 49  1  0
 11 50  1  0
 12 51  1  0
 12 52  1  0
 14 53  1  0
 14 54  1  0
 14 55  1  0
 15 56  1  6
 16 57  1  0
 16 58  1  0
 17 59  1  0
 19 60  1  1
 20 61  1  0
 20 62  1  0
 21 63  1  0
 21 64  1  0
 22 65  1  1
 23 66  1  0
 25 67  1  0
 25 68  1  0
 25 69  1  0
 26 70  1  0
 26 71  1  0
 26 72  1  0
 28 73  1  0
 28 74  1  0
 28 75  1  0
 29 76  1  0
 29 77  1  0
 30 78  1  0
 30 79  1  0
 32 80  1  0
 32 81  1  0
 32 82  1  0
M  END
>  <meeko>  (5) 
{"is_sidechain": [false], "intermolecular_energy": 2.731, "internal_energy": -0.839}

$$$$
EPH_relaxed_0001_pdb2pqr_Repair_44_r2_0001_out
     RDKit          3D

 82 86  0  0  0  0  0  0  0  0999 V2000
  -14.7370    5.7560    0.7220 C   0  0  0  0  0  0  0  0  0  0  0  0
  -14.0710    7.0930    0.3830 C   0  0  2  0  0  0  0  0  0  0  0  0
  -15.1010    8.1770    0.0100 C   0  0  0  0  0  0  0  0  0  0  0  0
  -14.5470    9.6030    0.0770 C   0  0  0  0  0  0  0  0  0  0  0  0
  -15.2750   10.5260   -0.8520 C   0  0  2  0  0  0  0  0  0  0  0  0
  -15.2380   10.1370   -2.2320 O   0  0  0  0  0  0  0  0  0  0  0  0
  -14.5820   11.3730   -1.9030 C   0  0  0  0  0  0  0  0  0  0  0  0
  -13.0960   11.3380   -2.0780 C   0  0  0  0  0  0  0  0  0  0  0  0
  -15.2870   12.5870   -2.4230 C   0  0  0  0  0  0  0  0  0  0  0  0
  -13.0760    6.9040   -0.7560 C   0  0  1  0  0  0  0  0  0  0  0  0
  -13.4140    7.7770   -1.9940 C   0  0  0  0  0  0  0  0  0  0  0  0
  -12.0630    8.2050   -2.6220 C   0  0  0  0  0  0  0  0  0  0  0  0
  -11.0100    7.3050   -1.9340 C   0  0  1  0  0  0  0  0  0  0  0  0
  -11.0810    5.9470   -2.7020 C   0  0  0  0  0  0  0  0  0  0  0  0
   -9.5510    7.8630   -1.8810 C   0  0  2  0  0  0  0  0  0  0  0  0
   -8.8880    8.0860   -3.2510 C   0  0  0  0  0  0  0  0  0  0  0  0
   -8.1230    6.9200   -3.7860 C   0  0  0  0  0  0  0  0  0  0  0  0
   -7.7340    5.8460   -3.0740 C   0  0  0  0  0  0  0  0  0  0  0  0
   -7.9770    5.7750   -1.5610 C   0  0  1  0  0  0  0  0  0  0  0  0
   -6.6840    5.2960   -0.8510 C   0  0  0  0  0  0  0  0  0  0  0  0
   -6.1550    3.9830   -1.4200 C   0  0  0  0  0  0  0  0  0  0  0  0
   -5.8700    4.1120   -2.9140 C   0  0  2  0  0  0  0  0  0  0  0  0
   -4.7800    5.0200   -3.0990 O   0  0  0  0  0  0  0  0  0  0  0  0
   -7.0990    4.5970   -3.7330 C   0  0  0  0  0  0  0  0  0  0  0  0
   -8.1680    3.4770   -3.7800 C   0  0  0  0  0  0  0  0  0  0  0  0
   -6.6390    4.8200   -5.1990 C   0  0  0  0  0  0  0  0  0  0  0  0
   -8.5920    7.0800   -0.8950 C   0  0  1  0  0  0  0  0  0  0  0  0
   -7.4500    8.0680   -0.5060 C   0  0  0  0  0  0  0  0  0  0  0  0
   -9.3110    6.6820    0.4480 C   0  0  0  0  0  0  0  0  0  0  0  0
  -10.7870    6.2530    0.3450 C   0  0  0  0  0  0  0  0  0  0  0  0
  -11.5960    7.2630   -0.4750 C   0  0  2  0  0  0  0  0  0  0  0  0
  -11.5620    8.6330    0.2840 C   0  0  0  0  0  0  0  0  0  0  0  0
  -14.7941    5.6414    1.8145 H   0  0  0  0  0  0  0  0  0  0  0  0
  -15.7515    5.7337    0.2975 H   0  0  0  0  0  0  0  0  0  0  0  0
  -14.1437    4.9327    0.2975 H   0  0  0  0  0  0  0  0  0  0  0  0
  -13.5426    7.4374    1.2842 H   0  0  0  0  0  0  0  0  0  0  0  0
  -15.4482    7.9874   -1.0164 H   0  0  0  0  0  0  0  0  0  0  0  0
  -15.9149    8.1138    0.7473 H   0  0  0  0  0  0  0  0  0  0  0  0
  -14.6516    9.9778    1.1059 H   0  0  0  0  0  0  0  0  0  0  0  0
  -13.4903    9.5744   -0.2274 H   0  0  0  0  0  0  0  0  0  0  0  0
  -16.0071   10.7748   -0.0696 H   0  0  0  0  0  0  0  0  0  0  0  0
  -12.6107   11.3266   -1.0909 H   0  0  0  0  0  0  0  0  0  0  0  0
  -12.8137   10.4330   -2.6359 H   0  0  0  0  0  0  0  0  0  0  0  0
  -12.7714   12.2287   -2.6359 H   0  0  0  0  0  0  0  0  0  0  0  0
  -15.6406   13.1958   -1.5778 H   0  0  0  0  0  0  0  0  0  0  0  0
  -14.5925   13.1796   -3.0366 H   0  0  0  0  0  0  0  0  0  0  0  0
  -16.1459   12.2775   -3.0366 H   0  0  0  0  0  0  0  0  0  0  0  0
  -13.1765    5.8196   -0.9108 H   0  0  0  0  0  0  0  0  0  0  0  0
  -14.0012    7.1946   -2.7193 H   0  0  0  0  0  0  0  0  0  0  0  0
  -14.0117    8.6547   -1.7069 H   0  0  0  0  0  0  0  0  0  0  0  0
  -12.0687    8.0348   -3.7087 H   0  0  0  0  0  0  0  0  0  0  0  0
  -11.8559    9.2754   -2.4762 H   0  0  0  0  0  0  0  0  0  0  0  0
  -11.1243    5.1189   -1.9793 H   0  0  0  0  0  0  0  0  0  0  0  0
  -11.9813    5.9297   -3.3338 H   0  0  0  0  0  0  0  0  0  0  0  0
  -10.1874    5.8359   -3.3338 H   0  0  0  0  0  0  0  0  0  0  0  0
   -9.6978    8.8657   -1.4532 H   0  0  0  0  0  0  0  0  0  0  0  0
   -9.6781    8.3353   -3.9746 H   0  0  0  0  0  0  0  0  0  0  0  0
   -8.1534    8.8919   -3.1064 H   0  0  0  0  0  0  0  0  0  0  0  0
   -7.8547    6.9408   -4.8526 H   0  0  0  0  0  0  0  0  0  0  0  0
   -8.7781    5.0352   -1.4162 H   0  0  0  0  0  0  0  0  0  0  0  0
   -5.9100    6.0686   -0.9694 H   0  0  0  0  0  0  0  0  0  0  0  0
   -6.9285    5.1260    0.2079 H   0  0  0  0  0  0  0  0  0  0  0  0
   -5.2251    3.7130   -0.8980 H   0  0  0  0  0  0  0  0  0  0  0  0
   -6.9179    3.2041   -1.2738 H   0  0  0  0  0  0  0  0  0  0  0  0
   -5.6193    3.1089   -3.2893 H   0  0  0  0  0  0  0  0  0  0  0  0
   -4.7760    5.2870   -4.0340 H   0  0  0  0  0  0  0  0  0  0  0  0
   -8.4428    3.1891   -2.7545 H   0  0  0  0  0  0  0  0  0  0  0  0
   -9.0599    3.8434   -4.3094 H   0  0  0  0  0  0  0  0  0  0  0  0
   -7.7605    2.6031   -4.3094 H   0  0  0  0  0  0  0  0  0  0  0  0
   -5.6492    5.2998   -5.2037 H   0  0  0  0  0  0  0  0  0  0  0  0
   -6.5792    3.8509   -5.7160 H   0  0  0  0  0  0  0  0  0  0  0  0
   -7.3627    5.4673   -5.7160 H   0  0  0  0  0  0  0  0  0  0  0  0
   -7.3771    8.1310    0.5898 H   0  0  0  0  0  0  0  0  0  0  0  0
   -6.4960    7.7057   -0.9167 H   0  0  0  0  0  0  0  0  0  0  0  0
   -7.6713    9.0642   -0.9167 H   0  0  0  0  0  0  0  0  0  0  0  0
   -8.7511    5.8445    0.8897 H   0  0  0  0  0  0  0  0  0  0  0  0
   -9.3198    7.6007    1.0530 H   0  0  0  0  0  0  0  0  0  0  0  0
  -10.8423    5.2680   -0.1415 H   0  0  0  0  0  0  0  0  0  0  0  0
  -11.2100    6.2059    1.3593 H   0  0  0  0  0  0  0  0  0  0  0  0
  -11.5665    8.4513    1.3689 H   0  0  0  0  0  0  0  0  0  0  0  0
  -10.6499    9.1825    0.0080 H   0  0  0  0  0  0  0  0  0  0  0  0
  -12.4457    9.2271    0.0080 H   0  0  0  0  0  0  0  0  0  0  0  0
  1  2  1  0
  2  3  1  0
  3  4  1  0
  4  5  1  0
  5  6  1  0
  6  7  1  0
  7  8  1  0
  7  9  1  0
  2 10  1  0
 10 11  1  0
 11 12  1  0
 12 13  1  0
 13 14  1  6
 13 15  1  0
 15 16  1  0
 16 17  1  0
 17 18  2  0
 18 19  1  0
 19 20  1  0
 20 21  1  0
 21 22  1  0
 22 23  1  0
 22 24  1  0
 24 25  1  0
 24 26  1  0
 19 27  1  0
 27 28  1  1
 27 29  1  0
 29 30  1  0
 30 31  1  0
 31 32  1  1
  7  5  1  0
 31 10  1  0
 31 13  1  0
 27 15  1  0
 24 18  1  0
  1 33  1  0
  1 34  1  0
  1 35  1  0
  2 36  1  1
  3 37  1  0
  3 38  1  0
  4 39  1  0
  4 40  1  0
  5 41  1  1
  8 42  1  0
  8 43  1  0
  8 44  1  0
  9 45  1  0
  9 46  1  0
  9 47  1  0
 10 48  1  6
 11 49  1  0
 11 50  1  0
 12 51  1  0
 12 52  1  0
 14 53  1  0
 14 54  1  0
 14 55  1  0
 15 56  1  1
 16 57  1  0
 16 58  1  0
 17 59  1  0
 19 60  1  6
 20 61  1  0
 20 62  1  0
 21 63  1  0
 21 64  1  0
 22 65  1  6
 23 66  1  0
 25 67  1  0
 25 68  1  0
 25 69  1  0
 26 70  1  0
 26 71  1  0
 26 72  1  0
 28 73  1  0
 28 74  1  0
 28 75  1  0
 29 76  1  0
 29 77  1  0
 30 78  1  0
 30 79  1  0
 32 80  1  0
 32 81  1  0
 32 82  1  0
M  END
>  <meeko>  (6) 
{"is_sidechain": [false], "intermolecular_energy": 2.731, "internal_energy": -0.839}

$$$$
EPH_relaxed_0001_pdb2pqr_Repair_44_r2_0001_out
     RDKit          3D

 82 86  0  0  0  0  0  0  0  0999 V2000
   -4.9690    8.1710   -1.2860 C   0  0  0  0  0  0  0  0  0  0  0  0
   -5.6870    6.9410   -1.8480 C   0  0  2  0  0  0  0  0  0  0  0  0
   -4.9200    6.3100   -3.0280 C   0  0  0  0  0  0  0  0  0  0  0  0
   -4.4840    4.8640   -2.7770 C   0  0  0  0  0  0  0  0  0  0  0  0
   -5.6080    4.0330   -2.2340 C   0  0  2  0  0  0  0  0  0  0  0  0
   -5.5650    2.6510   -2.6100 O   0  0  0  0  0  0  0  0  0  0  0  0
   -6.6810    3.4070   -3.1050 C   0  0  0  0  0  0  0  0  0  0  0  0
   -6.6840    3.5870   -4.5900 C   0  0  0  0  0  0  0  0  0  0  0  0
   -7.9870    3.0370   -2.4740 C   0  0  0  0  0  0  0  0  0  0  0  0
   -7.0980    7.3170   -2.2860 C   0  0  1  0  0  0  0  0  0  0  0  0
   -7.4880    6.6870   -3.6490 C   0  0  0  0  0  0  0  0  0  0  0  0
   -9.0010    6.3580   -3.5730 C   0  0  0  0  0  0  0  0  0  0  0  0
   -9.4990    7.1030   -2.3130 C   0  0  1  0  0  0  0  0  0  0  0  0
   -9.7150    8.5780   -2.7770 C   0  0  0  0  0  0  0  0  0  0  0  0
  -10.7780    6.5210   -1.6260 C   0  0  2  0  0  0  0  0  0  0  0  0
  -12.0490    6.5390   -2.4930 C   0  0  0  0  0  0  0  0  0  0  0  0
  -12.8860    7.7700   -2.3720 C   0  0  0  0  0  0  0  0  0  0  0  0
  -12.7850    8.6910   -1.3960 C   0  0  0  0  0  0  0  0  0  0  0  0
  -11.8180    8.4920   -0.2220 C   0  0  1  0  0  0  0  0  0  0  0  0
  -12.5470    8.8140    1.1100 C   0  0  0  0  0  0  0  0  0  0  0  0
  -13.1850   10.2000    1.1080 C   0  0  0  0  0  0  0  0  0  0  0  0
  -14.1830   10.3390   -0.0390 C   0  0  2  0  0  0  0  0  0  0  0  0
  -15.2870    9.4620    0.2030 O   0  0  0  0  0  0  0  0  0  0  0  0
  -13.5640   10.0290   -1.4310 C   0  0  0  0  0  0  0  0  0  0  0  0
  -12.5770   11.1560   -1.8240 C   0  0  0  0  0  0  0  0  0  0  0  0
  -14.7080   10.0680   -2.4800 C   0  0  0  0  0  0  0  0  0  0  0  0
  -11.0570    7.0980   -0.1790 C   0  0  1  0  0  0  0  0  0  0  0  0
  -11.9270    6.0380    0.5630 C   0  0  0  0  0  0  0  0  0  0  0  0
   -9.7370    7.2580    0.6650 C   0  0  0  0  0  0  0  0  0  0  0  0
   -8.4790    7.7220   -0.0940 C   0  0  0  0  0  0  0  0  0  0  0  0
   -8.2660    6.8900   -1.3620 C   0  0  2  0  0  0  0  0  0  0  0  0
   -8.0240    5.4050   -0.9250 C   0  0  0  0  0  0  0  0  0  0  0  0
   -4.9890    8.1368   -0.1867 H   0  0  0  0  0  0  0  0  0  0  0  0
   -3.9254    8.1772   -1.6338 H   0  0  0  0  0  0  0  0  0  0  0  0
   -5.4768    9.0827   -1.6338 H   0  0  0  0  0  0  0  0  0  0  0  0
   -5.7347    6.1904   -1.0453 H   0  0  0  0  0  0  0  0  0  0  0  0
   -5.5713    6.3273   -3.9143 H   0  0  0  0  0  0  0  0  0  0  0  0
   -4.0035    6.9019   -3.1684 H   0  0  0  0  0  0  0  0  0  0  0  0
   -4.1419    4.4249   -3.7257 H   0  0  0  0  0  0  0  0  0  0  0  0
   -3.6739    4.8740   -2.0329 H   0  0  0  0  0  0  0  0  0  0  0  0
   -5.6626    4.6549   -1.3283 H   0  0  0  0  0  0  0  0  0  0  0  0
   -6.7019    4.6605   -4.8292 H   0  0  0  0  0  0  0  0  0  0  0  0
   -5.7781    3.1314   -5.0164 H   0  0  0  0  0  0  0  0  0  0  0  0
   -7.5742    3.1015   -5.0164 H   0  0  0  0  0  0  0  0  0  0  0  0
   -7.8863    3.0655   -1.3790 H   0  0  0  0  0  0  0  0  0  0  0  0
   -8.7620    3.7509   -2.7897 H   0  0  0  0  0  0  0  0  0  0  0  0
   -8.2724    2.0226   -2.7897 H   0  0  0  0  0  0  0  0  0  0  0  0
   -7.0039    8.4129   -2.2921 H   0  0  0  0  0  0  0  0  0  0  0  0
   -7.2958    7.3997   -4.4646 H   0  0  0  0  0  0  0  0  0  0  0  0
   -6.8965    5.7815   -3.8493 H   0  0  0  0  0  0  0  0  0  0  0  0
   -9.5230    6.7211   -4.4706 H   0  0  0  0  0  0  0  0  0  0  0  0
   -9.1905    5.2757   -3.5201 H   0  0  0  0  0  0  0  0  0  0  0  0
   -9.8104    9.2294   -1.8957 H   0  0  0  0  0  0  0  0  0  0  0  0
   -8.8547    8.9021   -3.3811 H   0  0  0  0  0  0  0  0  0  0  0  0
  -10.6321    8.6418   -3.3811 H   0  0  0  0  0  0  0  0  0  0  0  0
  -10.5162    5.4600   -1.5007 H   0  0  0  0  0  0  0  0  0  0  0  0
  -11.7443    6.4371   -3.5450 H   0  0  0  0  0  0  0  0  0  0  0  0
  -12.6747    5.7088   -2.1333 H   0  0  0  0  0  0  0  0  0  0  0  0
  -13.6494    7.9380   -3.1459 H   0  0  0  0  0  0  0  0  0  0  0  0
  -10.9967    9.2064   -0.3805 H   0  0  0  0  0  0  0  0  0  0  0  0
  -13.3349    8.0635    1.2711 H   0  0  0  0  0  0  0  0  0  0  0  0
  -11.7970    8.7930    1.9144 H   0  0  0  0  0  0  0  0  0  0  0  0
  -13.7092   10.3565    2.0623 H   0  0  0  0  0  0  0  0  0  0  0  0
  -12.3924   10.9514    0.9771 H   0  0  0  0  0  0  0  0  0  0  0  0
  -14.5086   11.3893   -0.0681 H   0  0  0  0  0  0  0  0  0  0  0  0
  -16.0920    9.9080   -0.1120 H   0  0  0  0  0  0  0  0  0  0  0  0
  -12.1700   11.6208   -0.9139 H   0  0  0  0  0  0  0  0  0  0  0  0
  -11.7544   10.7321   -2.4186 H   0  0  0  0  0  0  0  0  0  0  0  0
  -13.1057   11.9156   -2.4186 H   0  0  0  0  0  0  0  0  0  0  0  0
  -15.6784   10.1011   -1.9631 H   0  0  0  0  0  0  0  0  0  0  0  0
  -14.5974   10.9629   -3.1100 H   0  0  0  0  0  0  0  0  0  0  0  0
  -14.6586    9.1676   -3.1100 H   0  0  0  0  0  0  0  0  0  0  0  0
  -11.8185    6.1702    1.6496 H   0  0  0  0  0  0  0  0  0  0  0  0
  -12.9824    6.1678    0.2814 H   0  0  0  0  0  0  0  0  0  0  0  0
  -11.5939    5.0282    0.2814 H   0  0  0  0  0  0  0  0  0  0  0  0
   -9.9366    7.9928    1.4588 H   0  0  0  0  0  0  0  0  0  0  0  0
   -9.4999    6.2453    1.0232 H   0  0  0  0  0  0  0  0  0  0  0  0
   -8.5966    8.7795   -0.3730 H   0  0  0  0  0  0  0  0  0  0  0  0
   -7.6056    7.5918    0.5619 H   0  0  0  0  0  0  0  0  0  0  0  0
   -8.0139    5.3430    0.1732 H   0  0  0  0  0  0  0  0  0  0  0  0
   -8.8306    4.7703   -1.3207 H   0  0  0  0  0  0  0  0  0  0  0  0
   -7.0577    5.0592   -1.3207 H   0  0  0  0  0  0  0  0  0  0  0  0
  1  2  1  0
  2  3  1  0
  3  4  1  0
  4  5  1  0
  5  6  1  0
  6  7  1  0
  7  8  1  0
  7  9  1  0
  2 10  1  0
 10 11  1  0
 11 12  1  0
 12 13  1  0
 13 14  1  6
 13 15  1  0
 15 16  1  0
 16 17  1  0
 17 18  2  0
 18 19  1  0
 19 20  1  0
 20 21  1  0
 21 22  1  0
 22 23  1  0
 22 24  1  0
 24 25  1  0
 24 26  1  0
 19 27  1  0
 27 28  1  1
 27 29  1  0
 29 30  1  0
 30 31  1  0
 31 32  1  1
  7  5  1  0
 31 10  1  0
 31 13  1  0
 27 15  1  0
 24 18  1  0
  1 33  1  0
  1 34  1  0
  1 35  1  0
  2 36  1  1
  3 37  1  0
  3 38  1  0
  4 39  1  0
  4 40  1  0
  5 41  1  1
  8 42  1  0
  8 43  1  0
  8 44  1  0
  9 45  1  0
  9 46  1  0
  9 47  1  0
 10 48  1  6
 11 49  1  0
 11 50  1  0
 12 51  1  0
 12 52  1  0
 14 53  1  0
 14 54  1  0
 14 55  1  0
 15 56  1  1
 16 57  1  0
 16 58  1  0
 17 59  1  0
 19 60  1  6
 20 61  1  0
 20 62  1  0
 21 63  1  0
 21 64  1  0
 22 65  1  6
 23 66  1  0
 25 67  1  0
 25 68  1  0
 25 69  1  0
 26 70  1  0
 26 71  1  0
 26 72  1  0
 28 73  1  0
 28 74  1  0
 28 75  1  0
 29 76  1  0
 29 77  1  0
 30 78  1  0
 30 79  1  0
 32 80  1  0
 32 81  1  0
 32 82  1  0
M  END
>  <meeko>  (7) 
{"is_sidechain": [false], "intermolecular_energy": 2.731, "internal_energy": -0.839}

$$$$
EPH_relaxed_0001_pdb2pqr_Repair_44_r2_0001_out
     RDKit          3D

 82 86  0  0  0  0  0  0  0  0999 V2000
   -0.0370   10.4000   -3.6200 C   0  0  0  0  0  0  0  0  0  0  0  0
    1.0510   10.2260   -2.5560 C   0  0  2  0  0  0  0  0  0  0  0  0
    0.8270    8.9650   -1.6980 C   0  0  0  0  0  0  0  0  0  0  0  0
    0.1260    9.2440   -0.3650 C   0  0  0  0  0  0  0  0  0  0  0  0
   -1.2990    8.7800   -0.3800 C   0  0  2  0  0  0  0  0  0  0  0  0
   -1.9420    8.8620   -1.6590 O   0  0  0  0  0  0  0  0  0  0  0  0
   -2.4770    9.7040   -0.6260 C   0  0  0  0  0  0  0  0  0  0  0  0
   -2.2830   11.1680   -0.8730 C   0  0  0  0  0  0  0  0  0  0  0  0
   -3.8300    9.2820   -0.1450 C   0  0  0  0  0  0  0  0  0  0  0  0
    1.1080   11.4600   -1.6640 C   0  0  1  0  0  0  0  0  0  0  0  0
    2.1710   11.3360   -0.5400 C   0  0  0  0  0  0  0  0  0  0  0  0
    2.7590   12.7530   -0.3220 C   0  0  0  0  0  0  0  0  0  0  0  0
    1.7960   13.6960   -1.0810 C   0  0  1  0  0  0  0  0  0  0  0  0
    0.5940   13.9090   -0.1080 C   0  0  0  0  0  0  0  0  0  0  0  0
    2.3980   15.0570   -1.5610 C   0  0  2  0  0  0  0  0  0  0  0  0
    2.8860   15.9880   -0.4370 C   0  0  0  0  0  0  0  0  0  0  0  0
    1.8670   16.9450    0.0860 C   0  0  0  0  0  0  0  0  0  0  0  0
    0.7020   17.2520   -0.5130 C   0  0  0  0  0  0  0  0  0  0  0  0
    0.3540   16.6850   -1.8960 C   0  0  1  0  0  0  0  0  0  0  0  0
   -0.1870   17.8230   -2.8010 C   0  0  0  0  0  0  0  0  0  0  0  0
   -1.3560   18.5700   -2.1660 C   0  0  0  0  0  0  0  0  0  0  0  0
   -0.9540   19.1680   -0.8200 C   0  0  2  0  0  0  0  0  0  0  0  0
    0.0180   20.1940   -1.0430 O   0  0  0  0  0  0  0  0  0  0  0  0
   -0.3850   18.1160    0.1730 C   0  0  0  0  0  0  0  0  0  0  0  0
   -1.5230   17.1800    0.6480 C   0  0  0  0  0  0  0  0  0  0  0  0
    0.1120   18.8710    1.4350 C   0  0  0  0  0  0  0  0  0  0  0  0
    1.4940   15.8330   -2.6030 C   0  0  1  0  0  0  0  0  0  0  0  0
    2.4460   16.7770   -3.4010 C   0  0  0  0  0  0  0  0  0  0  0  0
    0.8360   14.8690   -3.6590 C   0  0  0  0  0  0  0  0  0  0  0  0
    0.3700   13.4920   -3.1480 C   0  0  0  0  0  0  0  0  0  0  0  0
    1.4740   12.8070   -2.3370 C   0  0  2  0  0  0  0  0  0  0  0  0
    2.6890   12.5600   -3.2940 C   0  0  0  0  0  0  0  0  0  0  0  0
   -1.0088   10.5554   -3.1287 H   0  0  0  0  0  0  0  0  0  0  0  0
    0.2001   11.2716   -4.2477 H   0  0  0  0  0  0  0  0  0  0  0  0
   -0.0836    9.4979   -4.2477 H   0  0  0  0  0  0  0  0  0  0  0  0
    2.0101   10.1024   -3.0803 H   0  0  0  0  0  0  0  0  0  0  0  0
    0.2107    8.2585   -2.2733 H   0  0  0  0  0  0  0  0  0  0  0  0
    1.8206    8.5576   -1.4597 H   0  0  0  0  0  0  0  0  0  0  0  0
    0.6637    8.7178    0.4375 H   0  0  0  0  0  0  0  0  0  0  0  0
    0.1308   10.3309   -0.1961 H   0  0  0  0  0  0  0  0  0  0  0  0
   -1.0918    8.0424    0.4093 H   0  0  0  0  0  0  0  0  0  0  0  0
   -2.2130   11.6961    0.0894 H   0  0  0  0  0  0  0  0  0  0  0  0
   -1.3564   11.3237   -1.4449 H   0  0  0  0  0  0  0  0  0  0  0  0
   -3.1371   11.5597   -1.4449 H   0  0  0  0  0  0  0  0  0  0  0  0
   -3.8433    9.2779    0.9549 H   0  0  0  0  0  0  0  0  0  0  0  0
   -4.5880    9.9864   -0.5182 H   0  0  0  0  0  0  0  0  0  0  0  0
   -4.0531    8.2716   -0.5182 H   0  0  0  0  0  0  0  0  0  0  0  0
    0.0650   11.4842   -1.3152 H   0  0  0  0  0  0  0  0  0  0  0  0
    1.7018   10.9739    0.3867 H   0  0  0  0  0  0  0  0  0  0  0  0
    2.9585   10.6203   -0.8186 H   0  0  0  0  0  0  0  0  0  0  0  0
    2.7833   13.0028    0.7490 H   0  0  0  0  0  0  0  0  0  0  0  0
    3.7946   12.8351   -0.6837 H   0  0  0  0  0  0  0  0  0  0  0  0
    0.9482   13.8462    0.9315 H   0  0  0  0  0  0  0  0  0  0  0  0
    0.1501   14.8998   -0.2850 H   0  0  0  0  0  0  0  0  0  0  0  0
   -0.1633   13.1311   -0.2850 H   0  0  0  0  0  0  0  0  0  0  0  0
    3.3035   14.7383   -2.0981 H   0  0  0  0  0  0  0  0  0  0  0  0
    3.2247   15.3608    0.4008 H   0  0  0  0  0  0  0  0  0  0  0  0
    3.6841   16.6039   -0.8772 H   0  0  0  0  0  0  0  0  0  0  0  0
    2.0872   17.4415    1.0425 H   0  0  0  0  0  0  0  0  0  0  0  0
   -0.4333   15.9354   -1.7279 H   0  0  0  0  0  0  0  0  0  0  0  0
    0.6265   18.5384   -2.9922 H   0  0  0  0  0  0  0  0  0  0  0  0
   -0.5503   17.3645   -3.7326 H   0  0  0  0  0  0  0  0  0  0  0  0
   -1.6743   19.3797   -2.8391 H   0  0  0  0  0  0  0  0  0  0  0  0
   -2.1799   17.8597   -2.0029 H   0  0  0  0  0  0  0  0  0  0  0  0
   -1.8638   19.5767   -0.3562 H   0  0  0  0  0  0  0  0  0  0  0  0
    0.4960   20.3330   -0.2080 H   0  0  0  0  0  0  0  0  0  0  0  0
   -1.5468   17.1604    1.7476 H   0  0  0  0  0  0  0  0  0  0  0  0
   -2.4859   17.5509    0.2670 H   0  0  0  0  0  0  0  0  0  0  0  0
   -1.3449   16.1636    0.2670 H   0  0  0  0  0  0  0  0  0  0  0  0
   -0.2342   18.3451    2.3370 H   0  0  0  0  0  0  0  0  0  0  0  0
    1.2114   18.9076    1.4311 H   0  0  0  0  0  0  0  0  0  0  0  0
   -0.2890   19.8953    1.4311 H   0  0  0  0  0  0  0  0  0  0  0  0
    3.0464   17.3723   -2.6974 H   0  0  0  0  0  0  0  0  0  0  0  0
    3.1138   16.1743   -4.0341 H   0  0  0  0  0  0  0  0  0  0  0  0
    1.8490   17.4499   -4.0341 H   0  0  0  0  0  0  0  0  0  0  0  0
   -0.0419   15.3832   -4.0772 H   0  0  0  0  0  0  0  0  0  0  0  0
    1.6327   14.6515   -4.3856 H   0  0  0  0  0  0  0  0  0  0  0  0
   -0.5156   13.6258   -2.5094 H   0  0  0  0  0  0  0  0  0  0  0  0
    0.1271   12.8596   -4.0147 H   0  0  0  0  0  0  0  0  0  0  0  0
    3.5944   12.3759   -2.6971 H   0  0  0  0  0  0  0  0  0  0  0  0
    2.4840   11.6852   -3.9285 H   0  0  0  0  0  0  0  0  0  0  0  0
    2.8419   13.4454   -3.9285 H   0  0  0  0  0  0  0  0  0  0  0  0
  1  2  1  0
  2  3  1  0
  3  4  1  0
  4  5  1  0
  5  6  1  0
  6  7  1  0
  7  8  1  0
  7  9  1  0
  2 10  1  0
 10 11  1  0
 11 12  1  0
 12 13  1  0
 13 14  1  1
 13 15  1  0
 15 16  1  0
 16 17  1  0
 17 18  2  0
 18 19  1  0
 19 20  1  0
 20 21  1  0
 21 22  1  0
 22 23  1  0
 22 24  1  0
 24 25  1  0
 24 26  1  0
 19 27  1  0
 27 28  1  6
 27 29  1  0
 29 30  1  0
 30 31  1  0
 31 32  1  6
  7  5  1  0
 31 10  1  0
 31 13  1  0
 27 15  1  0
 24 18  1  0
  1 33  1  0
  1 34  1  0
  1 35  1  0
  2 36  1  6
  3 37  1  0
  3 38  1  0
  4 39  1  0
  4 40  1  0
  5 41  1  1
  8 42  1  0
  8 43  1  0
  8 44  1  0
  9 45  1  0
  9 46  1  0
  9 47  1  0
 10 48  1  1
 11 49  1  0
 11 50  1  0
 12 51  1  0
 12 52  1  0
 14 53  1  0
 14 54  1  0
 14 55  1  0
 15 56  1  6
 16 57  1  0
 16 58  1  0
 17 59  1  0
 19 60  1  1
 20 61  1  0
 20 62  1  0
 21 63  1  0
 21 64  1  0
 22 65  1  1
 23 66  1  0
 25 67  1  0
 25 68  1  0
 25 69  1  0
 26 70  1  0
 26 71  1  0
 26 72  1  0
 28 73  1  0
 28 74  1  0
 28 75  1  0
 29 76  1  0
 29 77  1  0
 30 78  1  0
 30 79  1  0
 32 80  1  0
 32 81  1  0
 32 82  1  0
M  END
>  <meeko>  (8) 
{"is_sidechain": [false], "intermolecular_energy": 2.731, "internal_energy": -0.839}

$$$$
EPH_relaxed_0001_pdb2pqr_Repair_44_r2_0001_out
     RDKit          3D

 82 86  0  0  0  0  0  0  0  0999 V2000
    0.4530    8.8120   -2.3780 C   0  0  0  0  0  0  0  0  0  0  0  0
    1.1930    9.9570   -3.0760 C   0  0  2  0  0  0  0  0  0  0  0  0
    2.6930    9.9800   -2.7210 C   0  0  0  0  0  0  0  0  0  0  0  0
    3.5770   10.5760   -3.8200 C   0  0  0  0  0  0  0  0  0  0  0  0
    4.9730   10.8230   -3.3360 C   0  0  2  0  0  0  0  0  0  0  0  0
    5.5670   12.0370   -3.8150 O   0  0  0  0  0  0  0  0  0  0  0  0
    6.1880   10.8140   -4.2450 C   0  0  0  0  0  0  0  0  0  0  0  0
    6.0620   10.5510   -5.7130 C   0  0  0  0  0  0  0  0  0  0  0  0
    7.5350   10.5760   -3.6370 C   0  0  0  0  0  0  0  0  0  0  0  0
    0.5500   11.2900   -2.7110 C   0  0  1  0  0  0  0  0  0  0  0  0
   -0.8310   11.1190   -2.0250 C   0  0  0  0  0  0  0  0  0  0  0  0
   -0.9550   12.2570   -0.9800 C   0  0  0  0  0  0  0  0  0  0  0  0
    0.1960   13.2310   -1.3250 C   0  0  1  0  0  0  0  0  0  0  0  0
   -0.3460   14.0900   -2.5100 C   0  0  0  0  0  0  0  0  0  0  0  0
    0.7180   14.1270   -0.1540 C   0  0  2  0  0  0  0  0  0  0  0  0
   -0.3180   15.1020    0.4330 C   0  0  0  0  0  0  0  0  0  0  0  0
   -0.3580   16.4500   -0.2070 C   0  0  0  0  0  0  0  0  0  0  0  0
    0.5890   16.9610   -1.0160 C   0  0  0  0  0  0  0  0  0  0  0  0
    1.8930   16.1970   -1.2820 C   0  0  1  0  0  0  0  0  0  0  0  0
    3.0970   17.1650   -1.1430 C   0  0  0  0  0  0  0  0  0  0  0  0
    2.9560   18.4040   -2.0220 C   0  0  0  0  0  0  0  0  0  0  0  0
    1.6780   19.1680   -1.6870 C   0  0  2  0  0  0  0  0  0  0  0  0
    1.7940   19.7050   -0.3660 O   0  0  0  0  0  0  0  0  0  0  0  0
    0.3980   18.2920   -1.7840 C   0  0  0  0  0  0  0  0  0  0  0  0
    0.1060   17.9590   -3.2680 C   0  0  0  0  0  0  0  0  0  0  0  0
   -0.8020   19.1420   -1.2860 C   0  0  0  0  0  0  0  0  0  0  0  0
    2.0900   14.8540   -0.4570 C   0  0  1  0  0  0  0  0  0  0  0  0
    2.7410   15.1690    0.9250 C   0  0  0  0  0  0  0  0  0  0  0  0
    3.1040   13.9240   -1.2230 C   0  0  0  0  0  0  0  0  0  0  0  0
    2.5120   12.9760   -2.2830 C   0  0  0  0  0  0  0  0  0  0  0  0
    1.3170   12.2020   -1.7210 C   0  0  2  0  0  0  0  0  0  0  0  0
    1.8360   11.3110   -0.5410 C   0  0  0  0  0  0  0  0  0  0  0  0
    0.5324    8.9348   -1.2878 H   0  0  0  0  0  0  0  0  0  0  0  0
   -0.6067    8.8269   -2.6725 H   0  0  0  0  0  0  0  0  0  0  0  0
    0.9019    7.8519   -2.6725 H   0  0  0  0  0  0  0  0  0  0  0  0
    1.1133    9.7908   -4.1604 H   0  0  0  0  0  0  0  0  0  0  0  0
    2.8244   10.5781   -1.8072 H   0  0  0  0  0  0  0  0  0  0  0  0
    3.0076    8.9344   -2.5874 H   0  0  0  0  0  0  0  0  0  0  0  0
    3.6124    9.8759   -4.6677 H   0  0  0  0  0  0  0  0  0  0  0  0
    3.1436   11.5406   -4.1228 H   0  0  0  0  0  0  0  0  0  0  0  0
    4.7589   10.3118   -2.3858 H   0  0  0  0  0  0  0  0  0  0  0  0
    5.5916    9.5692   -5.8706 H   0  0  0  0  0  0  0  0  0  0  0  0
    5.4409   11.3333   -6.1737 H   0  0  0  0  0  0  0  0  0  0  0  0
    7.0609   10.5572   -6.1737 H   0  0  0  0  0  0  0  0  0  0  0  0
    7.4501   10.5910   -2.5404 H   0  0  0  0  0  0  0  0  0  0  0  0
    7.9161    9.5966   -3.9619 H   0  0  0  0  0  0  0  0  0  0  0  0
    8.2286   11.3655   -3.9619 H   0  0  0  0  0  0  0  0  0  0  0  0
    0.5184   11.7581   -3.7059 H   0  0  0  0  0  0  0  0  0  0  0  0
   -1.6365   11.1992   -2.7698 H   0  0  0  0  0  0  0  0  0  0  0  0
   -0.9148   10.1322   -1.5462 H   0  0  0  0  0  0  0  0  0  0  0  0
   -1.9291   12.7604   -1.0679 H   0  0  0  0  0  0  0  0  0  0  0  0
   -0.8901   11.8838    0.0527 H   0  0  0  0  0  0  0  0  0  0  0  0
   -0.8935   14.9577   -2.1135 H   0  0  0  0  0  0  0  0  0  0  0  0
    0.4963   14.4381   -3.1259 H   0  0  0  0  0  0  0  0  0  0  0  0
   -1.0228   13.4796   -3.1259 H   0  0  0  0  0  0  0  0  0  0  0  0
    0.9159   13.3897    0.6379 H   0  0  0  0  0  0  0  0  0  0  0  0
   -1.3131   14.6454    0.3267 H   0  0  0  0  0  0  0  0  0  0  0  0
   -0.0202   15.2698    1.4785 H   0  0  0  0  0  0  0  0  0  0  0  0
   -1.2360   17.0794    0.0000 H   0  0  0  0  0  0  0  0  0  0  0  0
    1.8262   15.8312   -2.3172 H   0  0  0  0  0  0  0  0  0  0  0  0
    3.1734   17.4843   -0.0931 H   0  0  0  0  0  0  0  0  0  0  0  0
    3.9986   16.6254   -1.4686 H   0  0  0  0  0  0  0  0  0  0  0  0
    3.8222   19.0620   -1.8582 H   0  0  0  0  0  0  0  0  0  0  0  0
    2.9087   18.0848   -3.0736 H   0  0  0  0  0  0  0  0  0  0  0  0
    1.5677   19.9690   -2.4328 H   0  0  0  0  0  0  0  0  0  0  0  0
    1.2180   19.1820    0.2160 H   0  0  0  0  0  0  0  0  0  0  0  0
   -0.6183   17.1330   -3.3228 H   0  0  0  0  0  0  0  0  0  0  0  0
   -0.3108   18.8459   -3.7676 H   0  0  0  0  0  0  0  0  0  0  0  0
    1.0398   17.6616   -3.7676 H   0  0  0  0  0  0  0  0  0  0  0  0
   -0.8139   19.1505   -0.1861 H   0  0  0  0  0  0  0  0  0  0  0  0
   -0.7020   20.1718   -1.6595 H   0  0  0  0  0  0  0  0  0  0  0  0
   -1.7403   18.7060   -1.6595 H   0  0  0  0  0  0  0  0  0  0  0  0
    2.0669   14.8428    1.7307 H   0  0  0  0  0  0  0  0  0  0  0  0
    3.6988   14.6347    1.0094 H   0  0  0  0  0  0  0  0  0  0  0  0
    2.9164   16.2516    1.0094 H   0  0  0  0  0  0  0  0  0  0  0  0
    3.8347   14.5730   -1.7278 H   0  0  0  0  0  0  0  0  0  0  0  0
    3.5288   13.2644   -0.4519 H   0  0  0  0  0  0  0  0  0  0  0  0
    2.1821   13.5671   -3.1500 H   0  0  0  0  0  0  0  0  0  0  0  0
    3.2877   12.2551   -2.5805 H   0  0  0  0  0  0  0  0  0  0  0  0
    1.5644   11.7773    0.4175 H   0  0  0  0  0  0  0  0  0  0  0  0
    1.3779   10.3131   -0.6061 H   0  0  0  0  0  0  0  0  0  0  0  0
    2.9301   11.2172   -0.6061 H   0  0  0  0  0  0  0  0  0  0  0  0
  1  2  1  0
  2  3  1  0
  3  4  1  0
  4  5  1  0
  5  6  1  0
  6  7  1  0
  7  8  1  0
  7  9  1  0
  2 10  1  0
 10 11  1  0
 11 12  1  0
 12 13  1  0
 13 14  1  6
 13 15  1  0
 15 16  1  0
 16 17  1  0
 17 18  2  0
 18 19  1  0
 19 20  1  0
 20 21  1  0
 21 22  1  0
 22 23  1  0
 22 24  1  0
 24 25  1  0
 24 26  1  0
 19 27  1  0
 27 28  1  1
 27 29  1  0
 29 30  1  0
 30 31  1  0
 31 32  1  1
  7  5  1  0
 31 10  1  0
 31 13  1  0
 27 15  1  0
 24 18  1  0
  1 33  1  0
  1 34  1  0
  1 35  1  0
  2 36  1  6
  3 37  1  0
  3 38  1  0
  4 39  1  0
  4 40  1  0
  5 41  1  1
  8 42  1  0
  8 43  1  0
  8 44  1  0
  9 45  1  0
  9 46  1  0
  9 47  1  0
 10 48  1  6
 11 49  1  0
 11 50  1  0
 12 51  1  0
 12 52  1  0
 14 53  1  0
 14 54  1  0
 14 55  1  0
 15 56  1  1
 16 57  1  0
 16 58  1  0
 17 59  1  0
 19 60  1  6
 20 61  1  0
 20 62  1  0
 21 63  1  0
 21 64  1  0
 22 65  1  6
 23 66  1  0
 25 67  1  0
 25 68  1  0
 25 69  1  0
 26 70  1  0
 26 71  1  0
 26 72  1  0
 28 73  1  0
 28 74  1  0
 28 75  1  0
 29 76  1  0
 29 77  1  0
 30 78  1  0
 30 79  1  0
 32 80  1  0
 32 81  1  0
 32 82  1  0
M  END
>  <meeko>  (9) 
{"is_sidechain": [false], "intermolecular_energy": 2.731, "internal_energy": -0.839}

$$$$
EPH_relaxed_0001_pdb2pqr_Repair_44_r2_0001_out
     RDKit          3D

 82 86  0  0  0  0  0  0  0  0999 V2000
   -5.2230    5.7700   -1.6160 C   0  0  0  0  0  0  0  0  0  0  0  0
   -5.4650    7.2750   -1.7600 C   0  0  2  0  0  0  0  0  0  0  0  0
   -5.2110    8.0330   -0.4420 C   0  0  0  0  0  0  0  0  0  0  0  0
   -4.1950    9.1710   -0.5720 C   0  0  0  0  0  0  0  0  0  0  0  0
   -2.8070    8.6530   -0.7930 C   0  0  2  0  0  0  0  0  0  0  0  0
   -1.8640    9.0120    0.2260 O   0  0  0  0  0  0  0  0  0  0  0  0
   -1.6160    9.5480   -1.0840 C   0  0  0  0  0  0  0  0  0  0  0  0
   -1.7600   11.0350   -1.1700 C   0  0  0  0  0  0  0  0  0  0  0  0
   -0.4220    8.9520   -1.7620 C   0  0  0  0  0  0  0  0  0  0  0  0
   -6.8890    7.5290   -2.2410 C   0  0  1  0  0  0  0  0  0  0  0  0
   -7.1910    6.8450   -3.6010 C   0  0  0  0  0  0  0  0  0  0  0  0
   -8.6750    6.3980   -3.5570 C   0  0  0  0  0  0  0  0  0  0  0  0
   -9.2650    7.1250   -2.3250 C   0  0  1  0  0  0  0  0  0  0  0  0
   -9.5840    8.5680   -2.8250 C   0  0  0  0  0  0  0  0  0  0  0  0
  -10.5110    6.4560   -1.6590 C   0  0  2  0  0  0  0  0  0  0  0  0
  -11.7560    6.3570   -2.5580 C   0  0  0  0  0  0  0  0  0  0  0  0
  -12.6910    7.5190   -2.4840 C   0  0  0  0  0  0  0  0  0  0  0  0
  -12.6890    8.4630   -1.5250 C   0  0  0  0  0  0  0  0  0  0  0  0
  -11.7420    8.3640   -0.3230 C   0  0  1  0  0  0  0  0  0  0  0  0
  -12.5290    8.6510    0.9830 C   0  0  0  0  0  0  0  0  0  0  0  0
  -13.2740    9.9810    0.9360 C   0  0  0  0  0  0  0  0  0  0  0  0
  -14.2490   10.0190   -0.2390 C   0  0  2  0  0  0  0  0  0  0  0  0
  -15.2870    9.0620   -0.0070 O   0  0  0  0  0  0  0  0  0  0  0  0
  -13.5710    9.7340   -1.6080 C   0  0  0  0  0  0  0  0  0  0  0  0
  -12.6660   10.9280   -1.9990 C   0  0  0  0  0  0  0  0  0  0  0  0
  -14.6840    9.6620   -2.6870 C   0  0  0  0  0  0  0  0  0  0  0  0
  -10.8740    7.0360   -0.2320 C   0  0  1  0  0  0  0  0  0  0  0  0
  -11.6780    5.9240    0.5090 C   0  0  0  0  0  0  0  0  0  0  0  0
   -9.5940    7.3160    0.6420 C   0  0  0  0  0  0  0  0  0  0  0  0
   -8.3570    7.8640   -0.0940 C   0  0  0  0  0  0  0  0  0  0  0  0
   -8.0440    7.0280   -1.3390 C   0  0  2  0  0  0  0  0  0  0  0  0
   -7.6980    5.5750   -0.8650 C   0  0  0  0  0  0  0  0  0  0  0  0
   -5.1805    5.5059   -0.5490 H   0  0  0  0  0  0  0  0  0  0  0  0
   -6.0441    5.2188   -2.0978 H   0  0  0  0  0  0  0  0  0  0  0  0
   -4.2705    5.5040   -2.0978 H   0  0  0  0  0  0  0  0  0  0  0  0
   -4.7483    7.6555   -2.5027 H   0  0  0  0  0  0  0  0  0  0  0  0
   -6.1651    8.4572   -0.0960 H   0  0  0  0  0  0  0  0  0  0  0  0
   -4.7913    7.3074    0.2702 H   0  0  0  0  0  0  0  0  0  0  0  0
   -4.4783    9.8060   -1.4244 H   0  0  0  0  0  0  0  0  0  0  0  0
   -4.2012    9.7446    0.3666 H   0  0  0  0  0  0  0  0  0  0  0  0
   -3.1969    7.7563   -1.2969 H   0  0  0  0  0  0  0  0  0  0  0  0
   -1.8010   11.4587   -0.1557 H   0  0  0  0  0  0  0  0  0  0  0  0
   -0.8984   11.4563   -1.7088 H   0  0  0  0  0  0  0  0  0  0  0  0
   -2.6864   11.2831   -1.7088 H   0  0  0  0  0  0  0  0  0  0  0  0
    0.2908    8.5962   -1.0035 H   0  0  0  0  0  0  0  0  0  0  0  0
   -0.7408    8.1073   -2.3904 H   0  0  0  0  0  0  0  0  0  0  0  0
    0.0615    9.7145   -2.3904 H   0  0  0  0  0  0  0  0  0  0  0  0
   -6.8817    8.6287   -2.2666 H   0  0  0  0  0  0  0  0  0  0  0  0
   -7.0338    7.5558   -4.4257 H   0  0  0  0  0  0  0  0  0  0  0  0
   -6.5245    5.9859   -3.7677 H   0  0  0  0  0  0  0  0  0  0  0  0
   -9.1994    6.7015   -4.4751 H   0  0  0  0  0  0  0  0  0  0  0  0
   -8.7797    5.3053   -3.4864 H   0  0  0  0  0  0  0  0  0  0  0  0
   -9.7307    9.2317   -1.9601 H   0  0  0  0  0  0  0  0  0  0  0  0
   -8.7461    8.9387   -3.4337 H   0  0  0  0  0  0  0  0  0  0  0  0
  -10.5001    8.5510   -3.4337 H   0  0  0  0  0  0  0  0  0  0  0  0
  -10.1691    5.4218   -1.5052 H   0  0  0  0  0  0  0  0  0  0  0  0
  -11.4161    6.2602   -3.5997 H   0  0  0  0  0  0  0  0  0  0  0  0
  -12.3235    5.4867   -2.1967 H   0  0  0  0  0  0  0  0  0  0  0  0
  -13.4445    7.6110   -3.2801 H   0  0  0  0  0  0  0  0  0  0  0  0
  -10.9767    9.1393   -0.4753 H   0  0  0  0  0  0  0  0  0  0  0  0
  -13.2590    7.8432    1.1397 H   0  0  0  0  0  0  0  0  0  0  0  0
  -11.8017    8.7044    1.8065 H   0  0  0  0  0  0  0  0  0  0  0  0
  -13.8344   10.1131    1.8733 H   0  0  0  0  0  0  0  0  0  0  0  0
  -12.5400   10.7904    0.8096 H   0  0  0  0  0  0  0  0  0  0  0  0
  -14.6553   11.0395   -0.2978 H   0  0  0  0  0  0  0  0  0  0  0  0
  -16.1230    9.5500    0.0800 H   0  0  0  0  0  0  0  0  0  0  0  0
  -12.2935   11.4194   -1.0881 H   0  0  0  0  0  0  0  0  0  0  0  0
  -11.8150   10.5639   -2.5933 H   0  0  0  0  0  0  0  0  0  0  0  0
  -13.2466   11.6489   -2.5933 H   0  0  0  0  0  0  0  0  0  0  0  0
  -15.6666    9.5984   -2.1966 H   0  0  0  0  0  0  0  0  0  0  0  0
  -14.6452   10.5645   -3.3146 H   0  0  0  0  0  0  0  0  0  0  0  0
  -14.5292    8.7720   -3.3146 H   0  0  0  0  0  0  0  0  0  0  0  0
  -11.5783    6.0619    1.5958 H   0  0  0  0  0  0  0  0  0  0  0  0
  -12.7392    5.9891    0.2270 H   0  0  0  0  0  0  0  0  0  0  0  0
  -11.2836    4.9366    0.2270 H   0  0  0  0  0  0  0  0  0  0  0  0
   -9.8724    8.0473    1.4151 H   0  0  0  0  0  0  0  0  0  0  0  0
   -9.2875    6.3323    1.0271 H   0  0  0  0  0  0  0  0  0  0  0  0
   -8.5503    8.9034   -0.3979 H   0  0  0  0  0  0  0  0  0  0  0  0
   -7.4942    7.8157    0.5866 H   0  0  0  0  0  0  0  0  0  0  0  0
   -7.6897    5.5402    0.2344 H   0  0  0  0  0  0  0  0  0  0  0  0
   -8.4544    4.8744   -1.2483 H   0  0  0  0  0  0  0  0  0  0  0  0
   -6.7070    5.2905   -1.2483 H   0  0  0  0  0  0  0  0  0  0  0  0
  1  2  1  0
  2  3  1  0
  3  4  1  0
  4  5  1  0
  5  6  1  0
  6  7  1  0
  7  8  1  0
  7  9  1  0
  2 10  1  0
 10 11  1  0
 11 12  1  0
 12 13  1  0
 13 14  1  6
 13 15  1  0
 15 16  1  0
 16 17  1  0
 17 18  2  0
 18 19  1  0
 19 20  1  0
 20 21  1  0
 21 22  1  0
 22 23  1  0
 22 24  1  0
 24 25  1  0
 24 26  1  0
 19 27  1  0
 27 28  1  1
 27 29  1  0
 29 30  1  0
 30 31  1  0
 31 32  1  1
  7  5  1  0
 31 10  1  0
 31 13  1  0
 27 15  1  0
 24 18  1  0
  1 33  1  0
  1 34  1  0
  1 35  1  0
  2 36  1  6
  3 37  1  0
  3 38  1  0
  4 39  1  0
  4 40  1  0
  5 41  1  6
  8 42  1  0
  8 43  1  0
  8 44  1  0
  9 45  1  0
  9 46  1  0
  9 47  1  0
 10 48  1  6
 11 49  1  0
 11 50  1  0
 12 51  1  0
 12 52  1  0
 14 53  1  0
 14 54  1  0
 14 55  1  0
 15 56  1  1
 16 57  1  0
 16 58  1  0
 17 59  1  0
 19 60  1  6
 20 61  1  0
 20 62  1  0
 21 63  1  0
 21 64  1  0
 22 65  1  6
 23 66  1  0
 25 67  1  0
 25 68  1  0
 25 69  1  0
 26 70  1  0
 26 71  1  0
 26 72  1  0
 28 73  1  0
 28 74  1  0
 28 75  1  0
 29 76  1  0
 29 77  1  0
 30 78  1  0
 30 79  1  0
 32 80  1  0
 32 81  1  0
 32 82  1  0
M  END
>  <meeko>  (10) 
{"is_sidechain": [false], "intermolecular_energy": 2.731, "internal_energy": -0.839}

$$$$
EPH_relaxed_0001_pdb2pqr_Repair_44_r2_0001_out
     RDKit          3D

 82 86  0  0  0  0  0  0  0  0999 V2000
    2.3660   19.3940   -0.7000 C   0  0  0  0  0  0  0  0  0  0  0  0
    2.3740   18.5050   -1.9470 C   0  0  2  0  0  0  0  0  0  0  0  0
    1.0280   18.5450   -2.6980 C   0  0  0  0  0  0  0  0  0  0  0  0
    0.1100   19.6880   -2.2550 C   0  0  0  0  0  0  0  0  0  0  0  0
   -1.1480   19.1760   -1.6220 C   0  0  2  0  0  0  0  0  0  0  0  0
   -2.0790   20.1930   -1.2300 O   0  0  0  0  0  0  0  0  0  0  0  0
   -1.5090   19.4120   -0.1670 C   0  0  0  0  0  0  0  0  0  0  0  0
   -0.6100   20.1870    0.7440 C   0  0  0  0  0  0  0  0  0  0  0  0
   -2.4840   18.4840    0.4880 C   0  0  0  0  0  0  0  0  0  0  0  0
    2.7120   17.0700   -1.5600 C   0  0  1  0  0  0  0  0  0  0  0  0
    3.6030   16.9870   -0.2920 C   0  0  0  0  0  0  0  0  0  0  0  0
    3.1670   15.7140    0.4780 C   0  0  0  0  0  0  0  0  0  0  0  0
    2.2840   14.9340   -0.5250 C   0  0  1  0  0  0  0  0  0  0  0  0
    3.2930   14.1830   -1.4490 C   0  0  0  0  0  0  0  0  0  0  0  0
    1.2320   13.9580    0.0950 C   0  0  2  0  0  0  0  0  0  0  0  0
    1.8220   12.8000    0.9190 C   0  0  0  0  0  0  0  0  0  0  0  0
    2.1110   11.5530    0.1510 C   0  0  0  0  0  0  0  0  0  0  0  0
    1.6470   11.2680   -1.0800 C   0  0  0  0  0  0  0  0  0  0  0  0
    0.6600   12.2050   -1.7870 C   0  0  1  0  0  0  0  0  0  0  0  0
   -0.5010   11.3740   -2.3920 C   0  0  0  0  0  0  0  0  0  0  0  0
   -0.0060   10.2540   -3.3020 C   0  0  0  0  0  0  0  0  0  0  0  0
    0.9260    9.3100   -2.5480 C   0  0  2  0  0  0  0  0  0  0  0  0
    0.1720    8.6190   -1.5470 O   0  0  0  0  0  0  0  0  0  0  0  0
    2.1300   10.0370   -1.8860 C   0  0  0  0  0  0  0  0  0  0  0  0
    3.1080   10.5270   -2.9820 C   0  0  0  0  0  0  0  0  0  0  0  0
    2.9110    8.9950   -1.0420 C   0  0  0  0  0  0  0  0  0  0  0  0
    0.1440   13.4410   -0.9310 C   0  0  1  0  0  0  0  0  0  0  0  0
   -1.1000   13.0230   -0.0880 C   0  0  0  0  0  0  0  0  0  0  0  0
   -0.3430   14.5760   -1.9080 C   0  0  0  0  0  0  0  0  0  0  0  0
    0.7200   15.5810   -2.3910 C   0  0  0  0  0  0  0  0  0  0  0  0
    1.5300   16.1300   -1.2130 C   0  0  2  0  0  0  0  0  0  0  0  0
    0.5450   16.9100   -0.2770 C   0  0  0  0  0  0  0  0  0  0  0  0
    2.3717   18.7624    0.2006 H   0  0  0  0  0  0  0  0  0  0  0  0
    3.2584   20.0371   -0.7025 H   0  0  0  0  0  0  0  0  0  0  0  0
    1.4622   20.0210   -0.7025 H   0  0  0  0  0  0  0  0  0  0  0  0
    3.1434   18.8977   -2.6281 H   0  0  0  0  0  0  0  0  0  0  0  0
    1.2331   18.6608   -3.7725 H   0  0  0  0  0  0  0  0  0  0  0  0
    0.5043   17.6050   -2.4697 H   0  0  0  0  0  0  0  0  0  0  0  0
    0.6463   20.3138   -1.5265 H   0  0  0  0  0  0  0  0  0  0  0  0
   -0.1673   20.2697   -3.1464 H   0  0  0  0  0  0  0  0  0  0  0  0
   -1.1118   18.2631   -2.2346 H   0  0  0  0  0  0  0  0  0  0  0  0
   -0.8680   19.9646    1.7899 H   0  0  0  0  0  0  0  0  0  0  0  0
    0.4359   19.9028    0.5559 H   0  0  0  0  0  0  0  0  0  0  0  0
   -0.7370   21.2633    0.5559 H   0  0  0  0  0  0  0  0  0  0  0  0
   -2.3941   18.5696    1.5810 H   0  0  0  0  0  0  0  0  0  0  0  0
   -3.5064   18.7508    0.1822 H   0  0  0  0  0  0  0  0  0  0  0  0
   -2.2680   17.4497    0.1822 H   0  0  0  0  0  0  0  0  0  0  0  0
    3.1969   16.7376   -2.4898 H   0  0  0  0  0  0  0  0  0  0  0  0
    4.6626   16.9126   -0.5777 H   0  0  0  0  0  0  0  0  0  0  0  0
    3.4869   17.8854    0.3320 H   0  0  0  0  0  0  0  0  0  0  0  0
    4.0438   15.1170    0.7693 H   0  0  0  0  0  0  0  0  0  0  0  0
    2.6305   15.9525    1.4082 H   0  0  0  0  0  0  0  0  0  0  0  0
    4.0226   13.6400   -0.8303 H   0  0  0  0  0  0  0  0  0  0  0  0
    2.7475   13.4694   -2.0840 H   0  0  0  0  0  0  0  0  0  0  0  0
    3.8200   14.9103   -2.0840 H   0  0  0  0  0  0  0  0  0  0  0  0
    0.7094   14.6026    0.8171 H   0  0  0  0  0  0  0  0  0  0  0  0
    2.7636   13.1481    1.3686 H   0  0  0  0  0  0  0  0  0  0  0  0
    1.0536   12.5305    1.6586 H   0  0  0  0  0  0  0  0  0  0  0  0
    2.7576   10.8039    0.6315 H   0  0  0  0  0  0  0  0  0  0  0  0
    1.2281   12.6932   -2.5925 H   0  0  0  0  0  0  0  0  0  0  0  0
   -1.0823   10.9300   -1.5705 H   0  0  0  0  0  0  0  0  0  0  0  0
   -1.1154   12.0529   -3.0017 H   0  0  0  0  0  0  0  0  0  0  0  0
   -0.8702    9.6847   -3.6749 H   0  0  0  0  0  0  0  0  0  0  0  0
    0.5500   10.7017   -4.1389 H   0  0  0  0  0  0  0  0  0  0  0  0
    1.3484    8.6081   -3.2821 H   0  0  0  0  0  0  0  0  0  0  0  0
    0.7960    8.0950   -1.0180 H   0  0  0  0  0  0  0  0  0  0  0  0
    3.9959   10.9718   -2.5089 H   0  0  0  0  0  0  0  0  0  0  0  0
    3.4138    9.6756   -3.6078 H   0  0  0  0  0  0  0  0  0  0  0  0
    2.6091   11.2816   -3.6078 H   0  0  0  0  0  0  0  0  0  0  0  0
    2.7572    9.2001    0.0277 H   0  0  0  0  0  0  0  0  0  0  0  0
    2.5460    7.9844   -1.2777 H   0  0  0  0  0  0  0  0  0  0  0  0
    3.9834    9.0618   -1.2777 H   0  0  0  0  0  0  0  0  0  0  0  0
   -0.8611   13.1033    0.9827 H   0  0  0  0  0  0  0  0  0  0  0  0
   -1.9442   13.6868   -0.3261 H   0  0  0  0  0  0  0  0  0  0  0  0
   -1.3720   11.9841   -0.3261 H   0  0  0  0  0  0  0  0  0  0  0  0
   -0.7689   14.0890   -2.7976 H   0  0  0  0  0  0  0  0  0  0  0  0
   -1.0576   15.1727   -1.3221 H   0  0  0  0  0  0  0  0  0  0  0  0
    1.4010   15.0757   -3.0916 H   0  0  0  0  0  0  0  0  0  0  0  0
    0.2100   16.4197   -2.8874 H   0  0  0  0  0  0  0  0  0  0  0  0
    0.8002   16.7079    0.7737 H   0  0  0  0  0  0  0  0  0  0  0  0
    0.6292   17.9890   -0.4738 H   0  0  0  0  0  0  0  0  0  0  0  0
   -0.4860   16.5807   -0.4738 H   0  0  0  0  0  0  0  0  0  0  0  0
  1  2  1  0
  2  3  1  0
  3  4  1  0
  4  5  1  0
  5  6  1  0
  6  7  1  0
  7  8  1  0
  7  9  1  0
  2 10  1  0
 10 11  1  0
 11 12  1  0
 12 13  1  0
 13 14  1  6
 13 15  1  0
 15 16  1  0
 16 17  1  0
 17 18  2  0
 18 19  1  0
 19 20  1  0
 20 21  1  0
 21 22  1  0
 22 23  1  0
 22 24  1  0
 24 25  1  0
 24 26  1  0
 19 27  1  0
 27 28  1  1
 27 29  1  0
 29 30  1  0
 30 31  1  0
 31 32  1  1
  7  5  1  0
 31 10  1  0
 31 13  1  0
 27 15  1  0
 24 18  1  0
  1 33  1  0
  1 34  1  0
  1 35  1  0
  2 36  1  6
  3 37  1  0
  3 38  1  0
  4 39  1  0
  4 40  1  0
  5 41  1  6
  8 42  1  0
  8 43  1  0
  8 44  1  0
  9 45  1  0
  9 46  1  0
  9 47  1  0
 10 48  1  6
 11 49  1  0
 11 50  1  0
 12 51  1  0
 12 52  1  0
 14 53  1  0
 14 54  1  0
 14 55  1  0
 15 56  1  1
 16 57  1  0
 16 58  1  0
 17 59  1  0
 19 60  1  6
 20 61  1  0
 20 62  1  0
 21 63  1  0
 21 64  1  0
 22 65  1  6
 23 66  1  0
 25 67  1  0
 25 68  1  0
 25 69  1  0
 26 70  1  0
 26 71  1  0
 26 72  1  0
 28 73  1  0
 28 74  1  0
 28 75  1  0
 29 76  1  0
 29 77  1  0
 30 78  1  0
 30 79  1  0
 32 80  1  0
 32 81  1  0
 32 82  1  0
M  END
>  <meeko>  (11) 
{"is_sidechain": [false], "intermolecular_energy": 2.731, "internal_energy": -0.839}

$$$$
EPH_relaxed_0001_pdb2pqr_Repair_44_r2_0001_out
     RDKit          3D

 82 86  0  0  0  0  0  0  0  0999 V2000
    0.2100   17.7300   -2.5520 C   0  0  0  0  0  0  0  0  0  0  0  0
   -0.0230   16.8590   -1.3140 C   0  0  2  0  0  0  0  0  0  0  0  0
   -0.0240   17.6860   -0.0130 C   0  0  0  0  0  0  0  0  0  0  0  0
    0.5570   19.0930   -0.1780 C   0  0  0  0  0  0  0  0  0  0  0  0
    1.6940   19.3380    0.7680 C   0  0  2  0  0  0  0  0  0  0  0  0
    2.7240   20.1930    0.2560 O   0  0  0  0  0  0  0  0  0  0  0  0
    3.1050   18.8350    0.5270 C   0  0  0  0  0  0  0  0  0  0  0  0
    3.4540   18.0450   -0.6950 C   0  0  0  0  0  0  0  0  0  0  0  0
    4.0220   18.6880    1.7010 C   0  0  0  0  0  0  0  0  0  0  0  0
    1.0410   15.7700   -1.2380 C   0  0  1  0  0  0  0  0  0  0  0  0
    1.2180   15.2080    0.1980 C   0  0  0  0  0  0  0  0  0  0  0  0
    1.5440   13.6990    0.0500 C   0  0  0  0  0  0  0  0  0  0  0  0
    1.8690   13.5150   -1.4500 C   0  0  1  0  0  0  0  0  0  0  0  0
    3.3520   13.9780   -1.5990 C   0  0  0  0  0  0  0  0  0  0  0  0
    1.6510   12.0810   -2.0340 C   0  0  2  0  0  0  0  0  0  0  0  0
    2.5310   10.9830   -1.4120 C   0  0  0  0  0  0  0  0  0  0  0  0
    3.8410   10.7550   -2.0900 C   0  0  0  0  0  0  0  0  0  0  0  0
    4.1750   11.1990   -3.3160 C   0  0  0  0  0  0  0  0  0  0  0  0
    3.1520   11.9320   -4.1940 C   0  0  1  0  0  0  0  0  0  0  0  0
    3.1970   11.3540   -5.6330 C   0  0  0  0  0  0  0  0  0  0  0  0
    4.6010   11.3780   -6.2290 C   0  0  0  0  0  0  0  0  0  0  0  0
    5.5770   10.5900   -5.3590 C   0  0  2  0  0  0  0  0  0  0  0  0
    5.2180    9.2060   -5.4010 O   0  0  0  0  0  0  0  0  0  0  0  0
    5.6110   11.0770   -3.8830 C   0  0  0  0  0  0  0  0  0  0  0  0
    6.2830   12.4700   -3.8090 C   0  0  0  0  0  0  0  0  0  0  0  0
    6.5260   10.1110   -3.0830 C   0  0  0  0  0  0  0  0  0  0  0  0
    1.6740   12.0140   -3.6150 C   0  0  1  0  0  0  0  0  0  0  0  0
    0.8730   10.7390   -4.0180 C   0  0  0  0  0  0  0  0  0  0  0  0
    0.9300   13.2340   -4.2760 C   0  0  0  0  0  0  0  0  0  0  0  0
    1.0870   14.6010   -3.5850 C   0  0  0  0  0  0  0  0  0  0  0  0
    0.8110   14.4910   -2.0820 C   0  0  2  0  0  0  0  0  0  0  0  0
   -0.6810   14.0480   -1.9010 C   0  0  0  0  0  0  0  0  0  0  0  0
    0.4824   18.7484   -2.2378 H   0  0  0  0  0  0  0  0  0  0  0  0
    1.0251   17.3015   -3.1537 H   0  0  0  0  0  0  0  0  0  0  0  0
   -0.7102   17.7657   -3.1537 H   0  0  0  0  0  0  0  0  0  0  0  0
   -1.0182   16.4012   -1.4141 H   0  0  0  0  0  0  0  0  0  0  0  0
   -1.0620   17.7780    0.3393 H   0  0  0  0  0  0  0  0  0  0  0  0
    0.6176   17.1554    0.7059 H   0  0  0  0  0  0  0  0  0  0  0  0
    0.9202   19.2100   -1.2097 H   0  0  0  0  0  0  0  0  0  0  0  0
   -0.2375   19.8203    0.0451 H   0  0  0  0  0  0  0  0  0  0  0  0
    1.0212   19.2612    1.6349 H   0  0  0  0  0  0  0  0  0  0  0  0
    3.8818   17.0767   -0.3959 H   0  0  0  0  0  0  0  0  0  0  0  0
    2.5469   17.8758   -1.2937 H   0  0  0  0  0  0  0  0  0  0  0  0
    4.1899   18.6017   -1.2937 H   0  0  0  0  0  0  0  0  0  0  0  0
    3.4435   18.7807    2.6320 H   0  0  0  0  0  0  0  0  0  0  0  0
    4.5060   17.7008    1.6669 H   0  0  0  0  0  0  0  0  0  0  0  0
    4.7903   19.4744    1.6669 H   0  0  0  0  0  0  0  0  0  0  0  0
    1.9050   16.3281   -1.6280 H   0  0  0  0  0  0  0  0  0  0  0  0
    2.0435   15.7257    0.7085 H   0  0  0  0  0  0  0  0  0  0  0  0
    0.3075   15.3589    0.7965 H   0  0  0  0  0  0  0  0  0  0  0  0
    2.4099   13.4261    0.6712 H   0  0  0  0  0  0  0  0  0  0  0  0
    0.7119   13.0586    0.3779 H   0  0  0  0  0  0  0  0  0  0  0  0
    3.7949   14.1163   -0.6017 H   0  0  0  0  0  0  0  0  0  0  0  0
    3.9208   13.2147   -2.1502 H   0  0  0  0  0  0  0  0  0  0  0  0
    3.3855   14.9294   -2.1502 H   0  0  0  0  0  0  0  0  0  0  0  0
    0.6217   11.8526   -1.7204 H   0  0  0  0  0  0  0  0  0  0  0  0
    2.7330   11.2608   -0.3670 H   0  0  0  0  0  0  0  0  0  0  0  0
    1.9666   10.0448   -1.5175 H   0  0  0  0  0  0  0  0  0  0  0  0
    4.5976   10.1750   -1.5413 H   0  0  0  0  0  0  0  0  0  0  0  0
    3.4615   12.9875   -4.2057 H   0  0  0  0  0  0  0  0  0  0  0  0
    2.8430   10.3129   -5.6061 H   0  0  0  0  0  0  0  0  0  0  0  0
    2.5545   11.9836   -6.2661 H   0  0  0  0  0  0  0  0  0  0  0  0
    4.5731   10.9313   -7.2338 H   0  0  0  0  0  0  0  0  0  0  0  0
    4.9422   12.4224   -6.2815 H   0  0  0  0  0  0  0  0  0  0  0  0
    6.5863   10.7505   -5.7659 H   0  0  0  0  0  0  0  0  0  0  0  0
    4.2790    9.1520   -5.6460 H   0  0  0  0  0  0  0  0  0  0  0  0
    6.4206   12.7552   -2.7556 H   0  0  0  0  0  0  0  0  0  0  0  0
    7.2618   12.4320   -4.3094 H   0  0  0  0  0  0  0  0  0  0  0  0
    5.6440   13.2124   -4.3094 H   0  0  0  0  0  0  0  0  0  0  0  0
    6.3746   10.2708   -2.0053 H   0  0  0  0  0  0  0  0  0  0  0  0
    6.2738    9.0712   -3.3385 H   0  0  0  0  0  0  0  0  0  0  0  0
    7.5779   10.3065   -3.3385 H   0  0  0  0  0  0  0  0  0  0  0  0
    0.5419   10.2120   -3.1110 H   0  0  0  0  0  0  0  0  0  0  0  0
   -0.0046   11.0304   -4.6137 H   0  0  0  0  0  0  0  0  0  0  0  0
    1.5164   10.0748   -4.6137 H   0  0  0  0  0  0  0  0  0  0  0  0
    1.3068   13.3359   -5.3044 H   0  0  0  0  0  0  0  0  0  0  0  0
   -0.1407   12.9940   -4.1986 H   0  0  0  0  0  0  0  0  0  0  0  0
    2.1139   14.9649   -3.7365 H   0  0  0  0  0  0  0  0  0  0  0  0
    0.3614   15.3013   -4.0244 H   0  0  0  0  0  0  0  0  0  0  0  0
   -0.9153   13.9784   -0.8285 H   0  0  0  0  0  0  0  0  0  0  0  0
   -1.3432   14.7883   -2.3737 H   0  0  0  0  0  0  0  0  0  0  0  0
   -0.8319   13.0663   -2.3737 H   0  0  0  0  0  0  0  0  0  0  0  0
  1  2  1  0
  2  3  1  0
  3  4  1  0
  4  5  1  0
  5  6  1  0
  6  7  1  0
  7  8  1  0
  7  9  1  0
  2 10  1  0
 10 11  1  0
 11 12  1  0
 12 13  1  0
 13 14  1  1
 13 15  1  0
 15 16  1  0
 16 17  1  0
 17 18  2  0
 18 19  1  0
 19 20  1  0
 20 21  1  0
 21 22  1  0
 22 23  1  0
 22 24  1  0
 24 25  1  0
 24 26  1  0
 19 27  1  0
 27 28  1  1
 27 29  1  0
 29 30  1  0
 30 31  1  0
 31 32  1  6
  7  5  1  0
 31 10  1  0
 31 13  1  0
 27 15  1  0
 24 18  1  0
  1 33  1  0
  1 34  1  0
  1 35  1  0
  2 36  1  6
  3 37  1  0
  3 38  1  0
  4 39  1  0
  4 40  1  0
  5 41  1  1
  8 42  1  0
  8 43  1  0
  8 44  1  0
  9 45  1  0
  9 46  1  0
  9 47  1  0
 10 48  1  6
 11 49  1  0
 11 50  1  0
 12 51  1  0
 12 52  1  0
 14 53  1  0
 14 54  1  0
 14 55  1  0
 15 56  1  1
 16 57  1  0
 16 58  1  0
 17 59  1  0
 19 60  1  6
 20 61  1  0
 20 62  1  0
 21 63  1  0
 21 64  1  0
 22 65  1  6
 23 66  1  0
 25 67  1  0
 25 68  1  0
 25 69  1  0
 26 70  1  0
 26 71  1  0
 26 72  1  0
 28 73  1  0
 28 74  1  0
 28 75  1  0
 29 76  1  0
 29 77  1  0
 30 78  1  0
 30 79  1  0
 32 80  1  0
 32 81  1  0
 32 82  1  0
M  END
>  <meeko>  (12) 
{"is_sidechain": [false], "intermolecular_energy": 2.731, "internal_energy": -0.839}

$$$$
EPH_relaxed_0001_pdb2pqr_Repair_44_r2_0001_out
     RDKit          3D

 82 86  0  0  0  0  0  0  0  0999 V2000
   -0.9320   16.3900   -5.8810 C   0  0  0  0  0  0  0  0  0  0  0  0
    0.1730   15.6990   -6.6840 C   0  0  2  0  0  0  0  0  0  0  0  0
   -0.2170   15.5060   -8.1630 C   0  0  0  0  0  0  0  0  0  0  0  0
    0.4410   16.5130   -9.1100 C   0  0  0  0  0  0  0  0  0  0  0  0
    1.8450   16.1170   -9.4530 C   0  0  2  0  0  0  0  0  0  0  0  0
    2.3420   16.6740  -10.6770 O   0  0  0  0  0  0  0  0  0  0  0  0
    2.2000   15.2450  -10.6420 C   0  0  0  0  0  0  0  0  0  0  0  0
    1.1470   14.7150  -11.5650 C   0  0  0  0  0  0  0  0  0  0  0  0
    3.5050   14.5100  -10.6270 C   0  0  0  0  0  0  0  0  0  0  0  0
    0.5090   14.3530   -6.0530 C   0  0  1  0  0  0  0  0  0  0  0  0
    1.7420   13.6760   -6.7110 C   0  0  0  0  0  0  0  0  0  0  0  0
    2.4930   12.9220   -5.5830 C   0  0  0  0  0  0  0  0  0  0  0  0
    1.5030   12.9110   -4.3950 C   0  0  1  0  0  0  0  0  0  0  0  0
    0.5230   11.7350   -4.7010 C   0  0  0  0  0  0  0  0  0  0  0  0
    2.1340   12.7800   -2.9710 C   0  0  2  0  0  0  0  0  0  0  0  0
    2.9050   11.4730   -2.7160 C   0  0  0  0  0  0  0  0  0  0  0  0
    2.0940   10.3540   -2.1510 C   0  0  0  0  0  0  0  0  0  0  0  0
    0.8740   10.4750   -1.5960 C   0  0  0  0  0  0  0  0  0  0  0  0
    0.2290   11.8540   -1.4050 C   0  0  1  0  0  0  0  0  0  0  0  0
   -0.3560   11.9580    0.0280 C   0  0  0  0  0  0  0  0  0  0  0  0
   -1.3140   10.8150    0.3530 C   0  0  0  0  0  0  0  0  0  0  0  0
   -0.6190    9.4640    0.2090 C   0  0  2  0  0  0  0  0  0  0  0  0
    0.3900    9.3540    1.2180 O   0  0  0  0  0  0  0  0  0  0  0  0
    0.0180    9.2490   -1.1930 C   0  0  0  0  0  0  0  0  0  0  0  0
   -1.0990    9.0680   -2.2500 C   0  0  0  0  0  0  0  0  0  0  0  0
    0.8060    7.9120   -1.1600 C   0  0  0  0  0  0  0  0  0  0  0  0
    1.1350   13.1020   -1.7870 C   0  0  1  0  0  0  0  0  0  0  0  0
    2.0110   13.5170   -0.5650 C   0  0  0  0  0  0  0  0  0  0  0  0
    0.2060   14.3330   -2.1050 C   0  0  0  0  0  0  0  0  0  0  0  0
   -0.2880   14.4730   -3.5580 C   0  0  0  0  0  0  0  0  0  0  0  0
    0.8740   14.3440   -4.5470 C   0  0  2  0  0  0  0  0  0  0  0  0
    1.8650   15.5270   -4.2790 C   0  0  0  0  0  0  0  0  0  0  0  0
   -0.7354   16.2671   -4.8057 H   0  0  0  0  0  0  0  0  0  0  0  0
   -0.9511   17.4612   -6.1301 H   0  0  0  0  0  0  0  0  0  0  0  0
   -1.9035   15.9382   -6.1301 H   0  0  0  0  0  0  0  0  0  0  0  0
    1.0577   16.3522   -6.6597 H   0  0  0  0  0  0  0  0  0  0  0  0
    0.0814   14.4932   -8.4714 H   0  0  0  0  0  0  0  0  0  0  0  0
   -1.3036   15.6629   -8.2318 H   0  0  0  0  0  0  0  0  0  0  0  0
   -0.1496   16.5696  -10.0363 H   0  0  0  0  0  0  0  0  0  0  0  0
    0.4744   17.4886   -8.6030 H   0  0  0  0  0  0  0  0  0  0  0  0
    2.1142   16.0582   -8.3881 H   0  0  0  0  0  0  0  0  0  0  0  0
    0.3180   14.2978  -10.9745 H   0  0  0  0  0  0  0  0  0  0  0  0
    0.7709   15.5312  -12.1993 H   0  0  0  0  0  0  0  0  0  0  0  0
    1.5785   13.9267  -12.1993 H   0  0  0  0  0  0  0  0  0  0  0  0
    3.8154   14.3352   -9.5863 H   0  0  0  0  0  0  0  0  0  0  0  0
    3.3882   13.5450  -11.1418 H   0  0  0  0  0  0  0  0  0  0  0  0
    4.2697   15.1101  -11.1418 H   0  0  0  0  0  0  0  0  0  0  0  0
   -0.4466   13.8317   -6.2114 H   0  0  0  0  0  0  0  0  0  0  0  0
    1.4162   12.9686   -7.4878 H   0  0  0  0  0  0  0  0  0  0  0  0
    2.3937   14.4218   -7.1896 H   0  0  0  0  0  0  0  0  0  0  0  0
    2.7351   11.8957   -5.8963 H   0  0  0  0  0  0  0  0  0  0  0  0
    3.4487   13.4017   -5.3252 H   0  0  0  0  0  0  0  0  0  0  0  0
    0.1627   11.3026   -3.7559 H   0  0  0  0  0  0  0  0  0  0  0  0
   -0.3321   12.1118   -5.2814 H   0  0  0  0  0  0  0  0  0  0  0  0
    1.0479   10.9619   -5.2814 H   0  0  0  0  0  0  0  0  0  0  0  0
    2.8916   13.5775   -2.9752 H   0  0  0  0  0  0  0  0  0  0  0  0
    3.3287   11.1360   -3.6735 H   0  0  0  0  0  0  0  0  0  0  0  0
    3.6651   11.7111   -1.9574 H   0  0  0  0  0  0  0  0  0  0  0  0
    2.5307    9.3452   -2.1918 H   0  0  0  0  0  0  0  0  0  0  0  0
   -0.5830   11.9152   -2.1446 H   0  0  0  0  0  0  0  0  0  0  0  0
    0.4737   11.9388    0.7499 H   0  0  0  0  0  0  0  0  0  0  0  0
   -0.9242   12.8979    0.0895 H   0  0  0  0  0  0  0  0  0  0  0  0
   -1.6714   10.9277    1.3872 H   0  0  0  0  0  0  0  0  0  0  0  0
   -2.1579   10.8528   -0.3515 H   0  0  0  0  0  0  0  0  0  0  0  0
   -1.3859    8.6845    0.3280 H   0  0  0  0  0  0  0  0  0  0  0  0
    0.9510    8.5930    0.9900 H   0  0  0  0  0  0  0  0  0  0  0  0
   -2.0623    8.9119   -1.7424 H   0  0  0  0  0  0  0  0  0  0  0  0
   -1.1578    9.9683   -2.8792 H   0  0  0  0  0  0  0  0  0  0  0  0
   -0.8704    8.1952   -2.8792 H   0  0  0  0  0  0  0  0  0  0  0  0
    0.9809    7.6152   -0.1153 H   0  0  0  0  0  0  0  0  0  0  0  0
    0.2240    7.1307   -1.6706 H   0  0  0  0  0  0  0  0  0  0  0  0
    1.7715    8.0427   -1.6706 H   0  0  0  0  0  0  0  0  0  0  0  0
    1.4826   13.2667    0.3668 H   0  0  0  0  0  0  0  0  0  0  0  0
    2.9686   12.9768   -0.6000 H   0  0  0  0  0  0  0  0  0  0  0  0
    2.1995   14.6002   -0.6000 H   0  0  0  0  0  0  0  0  0  0  0  0
   -0.6803   14.2571   -1.4579 H   0  0  0  0  0  0  0  0  0  0  0  0
    0.8319   15.2199   -1.9268 H   0  0  0  0  0  0  0  0  0  0  0  0
   -1.0258   13.6838   -3.7648 H   0  0  0  0  0  0  0  0  0  0  0  0
   -0.7431   15.4671   -3.6794 H   0  0  0  0  0  0  0  0  0  0  0  0
    1.9830   15.6679   -3.1945 H   0  0  0  0  0  0  0  0  0  0  0  0
    2.8425   15.2952   -4.7272 H   0  0  0  0  0  0  0  0  0  0  0  0
    1.4655   16.4487   -4.7272 H   0  0  0  0  0  0  0  0  0  0  0  0
  1  2  1  0
  2  3  1  0
  3  4  1  0
  4  5  1  0
  5  6  1  0
  6  7  1  0
  7  8  1  0
  7  9  1  0
  2 10  1  0
 10 11  1  0
 11 12  1  0
 12 13  1  0
 13 14  1  6
 13 15  1  0
 15 16  1  0
 16 17  1  0
 17 18  2  0
 18 19  1  0
 19 20  1  0
 20 21  1  0
 21 22  1  0
 22 23  1  0
 22 24  1  0
 24 25  1  0
 24 26  1  0
 19 27  1  0
 27 28  1  1
 27 29  1  0
 29 30  1  0
 30 31  1  0
 31 32  1  6
  7  5  1  0
 31 10  1  0
 31 13  1  0
 27 15  1  0
 24 18  1  0
  1 33  1  0
  1 34  1  0
  1 35  1  0
  2 36  1  6
  3 37  1  0
  3 38  1  0
  4 39  1  0
  4 40  1  0
  5 41  1  1
  8 42  1  0
  8 43  1  0
  8 44  1  0
  9 45  1  0
  9 46  1  0
  9 47  1  0
 10 48  1  1
 11 49  1  0
 11 50  1  0
 12 51  1  0
 12 52  1  0
 14 53  1  0
 14 54  1  0
 14 55  1  0
 15 56  1  6
 16 57  1  0
 16 58  1  0
 17 59  1  0
 19 60  1  6
 20 61  1  0
 20 62  1  0
 21 63  1  0
 21 64  1  0
 22 65  1  1
 23 66  1  0
 25 67  1  0
 25 68  1  0
 25 69  1  0
 26 70  1  0
 26 71  1  0
 26 72  1  0
 28 73  1  0
 28 74  1  0
 28 75  1  0
 29 76  1  0
 29 77  1  0
 30 78  1  0
 30 79  1  0
 32 80  1  0
 32 81  1  0
 32 82  1  0
M  END
>  <meeko>  (13) 
{"is_sidechain": [false], "intermolecular_energy": 2.731, "internal_energy": -0.839}

$$$$
EPH_relaxed_0001_pdb2pqr_Repair_44_r2_0001_out
     RDKit          3D

 82 86  0  0  0  0  0  0  0  0999 V2000
   -4.3330    7.4260   -3.5960 C   0  0  0  0  0  0  0  0  0  0  0  0
   -3.7420    7.2490   -2.1950 C   0  0  2  0  0  0  0  0  0  0  0  0
   -4.7640    6.6560   -1.2040 C   0  0  0  0  0  0  0  0  0  0  0  0
   -6.0340    6.1260   -1.8740 C   0  0  0  0  0  0  0  0  0  0  0  0
   -6.0360    4.6290   -1.9530 C   0  0  2  0  0  0  0  0  0  0  0  0
   -4.9720    4.0700   -2.7350 O   0  0  0  0  0  0  0  0  0  0  0  0
   -6.3030    3.8590   -3.2330 C   0  0  0  0  0  0  0  0  0  0  0  0
   -6.5890    4.5640   -4.5220 C   0  0  0  0  0  0  0  0  0  0  0  0
   -6.7680    2.4400   -3.1300 C   0  0  0  0  0  0  0  0  0  0  0  0
   -3.2290    8.5870   -1.6750 C   0  0  1  0  0  0  0  0  0  0  0  0
   -3.9070    9.0110   -0.3450 C   0  0  0  0  0  0  0  0  0  0  0  0
   -2.8310    9.7530    0.4890 C   0  0  0  0  0  0  0  0  0  0  0  0
   -1.6810   10.0230   -0.5090 C   0  0  1  0  0  0  0  0  0  0  0  0
   -2.1250   11.2940   -1.3000 C   0  0  0  0  0  0  0  0  0  0  0  0
   -0.2560   10.1970    0.1090 C   0  0  2  0  0  0  0  0  0  0  0  0
   -0.0990   11.3970    1.0600 C   0  0  0  0  0  0  0  0  0  0  0  0
    0.3330   12.6710    0.4130 C   0  0  0  0  0  0  0  0  0  0  0  0
    0.8590   12.7820   -0.8220 C   0  0  0  0  0  0  0  0  0  0  0  0
    1.1560   11.5370   -1.6670 C   0  0  1  0  0  0  0  0  0  0  0  0
    2.5730   11.6570   -2.2860 C   0  0  0  0  0  0  0  0  0  0  0  0
    2.7610   12.9530   -3.0700 C   0  0  0  0  0  0  0  0  0  0  0  0
    2.5130   14.1690   -2.1810 C   0  0  2  0  0  0  0  0  0  0  0  0
    3.5390   14.2280   -1.1850 O   0  0  0  0  0  0  0  0  0  0  0  0
    1.1190   14.1530   -1.4940 C   0  0  0  0  0  0  0  0  0  0  0  0
    0.0150   14.3920   -2.5540 C   0  0  0  0  0  0  0  0  0  0  0  0
    1.0530   15.3580   -0.5190 C   0  0  0  0  0  0  0  0  0  0  0  0
    0.9210   10.1390   -0.9480 C   0  0  1  0  0  0  0  0  0  0  0  0
    2.2030    9.7210   -0.1640 C   0  0  0  0  0  0  0  0  0  0  0  0
    0.6890    9.0310   -2.0420 C   0  0  0  0  0  0  0  0  0  0  0  0
   -0.7600    8.8250   -2.5250 C   0  0  0  0  0  0  0  0  0  0  0  0
   -1.7200    8.6890   -1.3400 C   0  0  2  0  0  0  0  0  0  0  0  0
   -1.3110    7.4060   -0.5380 C   0  0  0  0  0  0  0  0  0  0  0  0
   -5.3838    7.7407   -3.5136 H   0  0  0  0  0  0  0  0  0  0  0  0
   -3.7623    8.1926   -4.1406 H   0  0  0  0  0  0  0  0  0  0  0  0
   -4.2776    6.4719   -4.1406 H   0  0  0  0  0  0  0  0  0  0  0  0
   -2.9081    6.5362   -2.2752 H   0  0  0  0  0  0  0  0  0  0  0  0
   -4.2837    5.8263   -0.6646 H   0  0  0  0  0  0  0  0  0  0  0  0
   -5.0710    7.4712   -0.5323 H   0  0  0  0  0  0  0  0  0  0  0  0
   -6.9076    6.4534   -1.2913 H   0  0  0  0  0  0  0  0  0  0  0  0
   -6.0723    6.5235   -2.8990 H   0  0  0  0  0  0  0  0  0  0  0  0
   -6.4649    4.5524   -0.9430 H   0  0  0  0  0  0  0  0  0  0  0  0
   -6.9948    5.5643   -4.3106 H   0  0  0  0  0  0  0  0  0  0  0  0
   -5.6589    4.6605   -5.1013 H   0  0  0  0  0  0  0  0  0  0  0  0
   -7.3235    3.9853   -5.1013 H   0  0  0  0  0  0  0  0  0  0  0  0
   -6.8597    2.1602   -2.0701 H   0  0  0  0  0  0  0  0  0  0  0  0
   -7.7465    2.3382   -3.6221 H   0  0  0  0  0  0  0  0  0  0  0  0
   -6.0395    1.7788   -3.6221 H   0  0  0  0  0  0  0  0  0  0  0  0
   -3.4662    9.2235   -2.5402 H   0  0  0  0  0  0  0  0  0  0  0  0
   -4.7560    9.6800   -0.5491 H   0  0  0  0  0  0  0  0  0  0  0  0
   -4.2933    8.1358    0.1979 H   0  0  0  0  0  0  0  0  0  0  0  0
   -3.2307   10.6979    0.8857 H   0  0  0  0  0  0  0  0  0  0  0  0
   -2.4995    9.1663    1.3584 H   0  0  0  0  0  0  0  0  0  0  0  0
   -2.4025   12.0884   -0.5916 H   0  0  0  0  0  0  0  0  0  0  0  0
   -1.2947   11.6407   -1.9328 H   0  0  0  0  0  0  0  0  0  0  0  0
   -2.9905   11.0483   -1.9328 H   0  0  0  0  0  0  0  0  0  0  0  0
   -0.1621    9.3012    0.7404 H   0  0  0  0  0  0  0  0  0  0  0  0
   -1.0696   11.5747    1.5461 H   0  0  0  0  0  0  0  0  0  0  0  0
    0.7025   11.1255    1.7628 H   0  0  0  0  0  0  0  0  0  0  0  0
    0.2115   13.5972    0.9938 H   0  0  0  0  0  0  0  0  0  0  0  0
    0.3997   11.5243   -2.4657 H   0  0  0  0  0  0  0  0  0  0  0  0
    3.3159   11.6242   -1.4754 H   0  0  0  0  0  0  0  0  0  0  0  0
    2.7028   10.8201   -2.9880 H   0  0  0  0  0  0  0  0  0  0  0  0
    3.7899   12.9937   -3.4569 H   0  0  0  0  0  0  0  0  0  0  0  0
    2.0377   12.9703   -3.8986 H   0  0  0  0  0  0  0  0  0  0  0  0
    2.5334   15.0591   -2.8270 H   0  0  0  0  0  0  0  0  0  0  0  0
    3.7770   15.1630   -1.0630 H   0  0  0  0  0  0  0  0  0  0  0  0
   -0.9399   14.5987   -2.0487 H   0  0  0  0  0  0  0  0  0  0  0  0
    0.2905   15.2513   -3.1830 H   0  0  0  0  0  0  0  0  0  0  0  0
   -0.0896   13.4957   -3.1830 H   0  0  0  0  0  0  0  0  0  0  0  0
    1.0730   14.9920    0.5181 H   0  0  0  0  0  0  0  0  0  0  0  0
    1.9164   16.0173   -0.6919 H   0  0  0  0  0  0  0  0  0  0  0  0
    0.1228   15.9191   -0.6919 H   0  0  0  0  0  0  0  0  0  0  0  0
    2.0088    9.7843    0.9169 H   0  0  0  0  0  0  0  0  0  0  0  0
    2.4738    8.6880   -0.4280 H   0  0  0  0  0  0  0  0  0  0  0  0
    3.0306   10.3958   -0.4280 H   0  0  0  0  0  0  0  0  0  0  0  0
    1.2977    9.2964   -2.9190 H   0  0  0  0  0  0  0  0  0  0  0  0
    0.9684    8.0841   -1.5569 H   0  0  0  0  0  0  0  0  0  0  0  0
   -1.0620    9.6891   -3.1351 H   0  0  0  0  0  0  0  0  0  0  0  0
   -0.8031    7.8999   -3.1185 H   0  0  0  0  0  0  0  0  0  0  0  0
   -1.3765    7.6115    0.5407 H   0  0  0  0  0  0  0  0  0  0  0  0
   -1.9904    6.5803   -0.7959 H   0  0  0  0  0  0  0  0  0  0  0  0
   -0.2790    7.1258   -0.7959 H   0  0  0  0  0  0  0  0  0  0  0  0
  1  2  1  0
  2  3  1  0
  3  4  1  0
  4  5  1  0
  5  6  1  0
  6  7  1  0
  7  8  1  0
  7  9  1  0
  2 10  1  0
 10 11  1  0
 11 12  1  0
 12 13  1  0
 13 14  1  6
 13 15  1  0
 15 16  1  0
 16 17  1  0
 17 18  2  0
 18 19  1  0
 19 20  1  0
 20 21  1  0
 21 22  1  0
 22 23  1  0
 22 24  1  0
 24 25  1  0
 24 26  1  0
 19 27  1  0
 27 28  1  1
 27 29  1  0
 29 30  1  0
 30 31  1  0
 31 32  1  1
  7  5  1  0
 31 10  1  0
 31 13  1  0
 27 15  1  0
 24 18  1  0
  1 33  1  0
  1 34  1  0
  1 35  1  0
  2 36  1  6
  3 37  1  0
  3 38  1  0
  4 39  1  0
  4 40  1  0
  5 41  1  1
  8 42  1  0
  8 43  1  0
  8 44  1  0
  9 45  1  0
  9 46  1  0
  9 47  1  0
 10 48  1  6
 11 49  1  0
 11 50  1  0
 12 51  1  0
 12 52  1  0
 14 53  1  0
 14 54  1  0
 14 55  1  0
 15 56  1  1
 16 57  1  0
 16 58  1  0
 17 59  1  0
 19 60  1  6
 20 61  1  0
 20 62  1  0
 21 63  1  0
 21 64  1  0
 22 65  1  6
 23 66  1  0
 25 67  1  0
 25 68  1  0
 25 69  1  0
 26 70  1  0
 26 71  1  0
 26 72  1  0
 28 73  1  0
 28 74  1  0
 28 75  1  0
 29 76  1  0
 29 77  1  0
 30 78  1  0
 30 79  1  0
 32 80  1  0
 32 81  1  0
 32 82  1  0
M  END
>  <meeko>  (14) 
{"is_sidechain": [false], "intermolecular_energy": 2.731, "internal_energy": -0.839}

$$$$
EPH_relaxed_0001_pdb2pqr_Repair_44_r2_0001_out
     RDKit          3D

 82 86  0  0  0  0  0  0  0  0999 V2000
   -6.7130    3.6920   -5.0680 C   0  0  0  0  0  0  0  0  0  0  0  0
   -6.8500    2.8360   -3.8050 C   0  0  2  0  0  0  0  0  0  0  0  0
   -7.7600    1.6120   -4.0280 C   0  0  0  0  0  0  0  0  0  0  0  0
   -8.9900    1.5860   -3.1180 C   0  0  0  0  0  0  0  0  0  0  0  0
   -9.9030    0.4450   -3.4520 C   0  0  2  0  0  0  0  0  0  0  0  0
  -11.2860    0.8010   -3.5780 O   0  0  0  0  0  0  0  0  0  0  0  0
  -10.9570   -0.0900   -2.5000 C   0  0  0  0  0  0  0  0  0  0  0  0
  -11.1520    0.5030   -1.1400 C   0  0  0  0  0  0  0  0  0  0  0  0
  -11.4570   -1.4870   -2.6980 C   0  0  0  0  0  0  0  0  0  0  0  0
   -7.3890    3.6840   -2.6590 C   0  0  1  0  0  0  0  0  0  0  0  0
   -6.3340    3.9270   -1.5470 C   0  0  0  0  0  0  0  0  0  0  0  0
   -6.5860    5.3540   -0.9960 C   0  0  0  0  0  0  0  0  0  0  0  0
   -7.9670    5.7540   -1.5650 C   0  0  1  0  0  0  0  0  0  0  0  0
   -9.0040    5.0700   -0.6200 C   0  0  0  0  0  0  0  0  0  0  0  0
   -8.2380    7.2880   -1.7060 C   0  0  2  0  0  0  0  0  0  0  0  0
   -8.2330    8.0750   -0.3840 C   0  0  0  0  0  0  0  0  0  0  0  0
   -9.5570    8.1880    0.2970 C   0  0  0  0  0  0  0  0  0  0  0  0
  -10.7510    7.9280   -0.2670 C   0  0  0  0  0  0  0  0  0  0  0  0
  -10.8580    7.5670   -1.7540 C   0  0  1  0  0  0  0  0  0  0  0  0
  -12.0030    8.3860   -2.4050 C   0  0  0  0  0  0  0  0  0  0  0  0
  -13.3300    8.2240   -1.6690 C   0  0  0  0  0  0  0  0  0  0  0  0
  -13.1980    8.6480   -0.2080 C   0  0  2  0  0  0  0  0  0  0  0  0
  -12.9560   10.0570   -0.1570 O   0  0  0  0  0  0  0  0  0  0  0  0
  -12.0670    7.8960    0.5480 C   0  0  0  0  0  0  0  0  0  0  0  0
  -12.4740    6.4160    0.7560 C   0  0  0  0  0  0  0  0  0  0  0  0
  -11.9470    8.5160    1.9670 C   0  0  0  0  0  0  0  0  0  0  0  0
   -9.5050    7.6440   -2.5850 C   0  0  1  0  0  0  0  0  0  0  0  0
   -9.2860    9.0940   -3.1140 C   0  0  0  0  0  0  0  0  0  0  0  0
   -9.6290    6.7220   -3.8560 C   0  0  0  0  0  0  0  0  0  0  0  0
   -9.2320    5.2430   -3.6830 C   0  0  0  0  0  0  0  0  0  0  0  0
   -7.8670    5.1180   -2.9990 C   0  0  2  0  0  0  0  0  0  0  0  0
   -6.8000    5.7790   -3.9370 C   0  0  0  0  0  0  0  0  0  0  0  0
   -6.5451    4.7412   -4.7834 H   0  0  0  0  0  0  0  0  0  0  0  0
   -5.8609    3.3328   -5.6638 H   0  0  0  0  0  0  0  0  0  0  0  0
   -7.6346    3.6167   -5.6638 H   0  0  0  0  0  0  0  0  0  0  0  0
   -5.8483    2.4596   -3.5504 H   0  0  0  0  0  0  0  0  0  0  0  0
   -8.1017    1.6192   -5.0736 H   0  0  0  0  0  0  0  0  0  0  0  0
   -7.1633    0.7197   -3.7875 H   0  0  0  0  0  0  0  0  0  0  0  0
   -8.6589    1.4837   -2.0740 H   0  0  0  0  0  0  0  0  0  0  0  0
   -9.5454    2.5240   -3.2654 H   0  0  0  0  0  0  0  0  0  0  0  0
   -9.1088   -0.0519   -4.0285 H   0  0  0  0  0  0  0  0  0  0  0  0
  -10.9053   -0.2471   -0.3741 H   0  0  0  0  0  0  0  0  0  0  0  0
  -10.4938    1.3766   -1.0231 H   0  0  0  0  0  0  0  0  0  0  0  0
  -12.2002    0.8154   -1.0231 H   0  0  0  0  0  0  0  0  0  0  0  0
  -11.6257   -1.9583   -1.7185 H   0  0  0  0  0  0  0  0  0  0  0  0
  -12.4020   -1.4620   -3.2605 H   0  0  0  0  0  0  0  0  0  0  0  0
  -10.7107   -2.0673   -3.2605 H   0  0  0  0  0  0  0  0  0  0  0  0
   -8.2455    3.0628   -2.3579 H   0  0  0  0  0  0  0  0  0  0  0  0
   -6.4520    3.1845   -0.7440 H   0  0  0  0  0  0  0  0  0  0  0  0
   -5.3125    3.8314   -1.9438 H   0  0  0  0  0  0  0  0  0  0  0  0
   -6.6063    5.3476    0.1038 H   0  0  0  0  0  0  0  0  0  0  0  0
   -5.7943    6.0596   -1.2882 H   0  0  0  0  0  0  0  0  0  0  0  0
   -8.7235    5.2550    0.4274 H   0  0  0  0  0  0  0  0  0  0  0  0
  -10.0042    5.4862   -0.8107 H   0  0  0  0  0  0  0  0  0  0  0  0
   -9.0152    3.9867   -0.8107 H   0  0  0  0  0  0  0  0  0  0  0  0
   -7.3550    7.6336   -2.2635 H   0  0  0  0  0  0  0  0  0  0  0  0
   -7.5375    7.5752    0.3063 H   0  0  0  0  0  0  0  0  0  0  0  0
   -7.9357    9.1020   -0.6428 H   0  0  0  0  0  0  0  0  0  0  0  0
   -9.5565    8.5110    1.3485 H   0  0  0  0  0  0  0  0  0  0  0  0
  -11.0993    6.4944   -1.7896 H   0  0  0  0  0  0  0  0  0  0  0  0
  -11.7236    9.4499   -2.3981 H   0  0  0  0  0  0  0  0  0  0  0  0
  -12.1414    8.0104   -3.4296 H   0  0  0  0  0  0  0  0  0  0  0  0
  -14.0917    8.8490   -2.1580 H   0  0  0  0  0  0  0  0  0  0  0  0
  -13.6233    7.1644   -1.7023 H   0  0  0  0  0  0  0  0  0  0  0  0
  -14.1399    8.3882    0.2974 H   0  0  0  0  0  0  0  0  0  0  0  0
  -12.2130   10.2070    0.4510 H   0  0  0  0  0  0  0  0  0  0  0  0
  -12.5334    6.1999    1.8329 H   0  0  0  0  0  0  0  0  0  0  0  0
  -13.4548    6.2367    0.2914 H   0  0  0  0  0  0  0  0  0  0  0  0
  -11.7228    5.7604    0.2914 H   0  0  0  0  0  0  0  0  0  0  0  0
  -12.0987    7.7321    2.7237 H   0  0  0  0  0  0  0  0  0  0  0  0
  -10.9469    8.9568    2.0912 H   0  0  0  0  0  0  0  0  0  0  0  0
  -12.7104    9.2982    2.0912 H   0  0  0  0  0  0  0  0  0  0  0  0
   -9.1819    9.7830   -2.2629 H   0  0  0  0  0  0  0  0  0  0  0  0
   -8.3727    9.1269   -3.7262 H   0  0  0  0  0  0  0  0  0  0  0  0
  -10.1488    9.3952   -3.7262 H   0  0  0  0  0  0  0  0  0  0  0  0
  -10.6782    6.7486   -4.1853 H   0  0  0  0  0  0  0  0  0  0  0  0
   -8.9082    7.1307   -4.5795 H   0  0  0  0  0  0  0  0  0  0  0  0
   -9.9904    4.7364   -3.0680 H   0  0  0  0  0  0  0  0  0  0  0  0
   -9.1696    4.7779   -4.6779 H   0  0  0  0  0  0  0  0  0  0  0  0
   -6.0226    6.2606   -3.3258 H   0  0  0  0  0  0  0  0  0  0  0  0
   -6.3412    5.0067   -4.5719 H   0  0  0  0  0  0  0  0  0  0  0  0
   -7.2872    6.5337   -4.5719 H   0  0  0  0  0  0  0  0  0  0  0  0
  1  2  1  0
  2  3  1  0
  3  4  1  0
  4  5  1  0
  5  6  1  0
  6  7  1  0
  7  8  1  0
  7  9  1  0
  2 10  1  0
 10 11  1  0
 11 12  1  0
 12 13  1  0
 13 14  1  1
 13 15  1  0
 15 16  1  0
 16 17  1  0
 17 18  2  0
 18 19  1  0
 19 20  1  0
 20 21  1  0
 21 22  1  0
 22 23  1  0
 22 24  1  0
 24 25  1  0
 24 26  1  0
 19 27  1  0
 27 28  1  6
 27 29  1  0
 29 30  1  0
 30 31  1  0
 31 32  1  6
  7  5  1  0
 31 10  1  0
 31 13  1  0
 27 15  1  0
 24 18  1  0
  1 33  1  0
  1 34  1  0
  1 35  1  0
  2 36  1  1
  3 37  1  0
  3 38  1  0
  4 39  1  0
  4 40  1  0
  5 41  1  6
  8 42  1  0
  8 43  1  0
  8 44  1  0
  9 45  1  0
  9 46  1  0
  9 47  1  0
 10 48  1  1
 11 49  1  0
 11 50  1  0
 12 51  1  0
 12 52  1  0
 14 53  1  0
 14 54  1  0
 14 55  1  0
 15 56  1  6
 16 57  1  0
 16 58  1  0
 17 59  1  0
 19 60  1  1
 20 61  1  0
 20 62  1  0
 21 63  1  0
 21 64  1  0
 22 65  1  1
 23 66  1  0
 25 67  1  0
 25 68  1  0
 25 69  1  0
 26 70  1  0
 26 71  1  0
 26 72  1  0
 28 73  1  0
 28 74  1  0
 28 75  1  0
 29 76  1  0
 29 77  1  0
 30 78  1  0
 30 79  1  0
 32 80  1  0
 32 81  1  0
 32 82  1  0
M  END
>  <meeko>  (15) 
{"is_sidechain": [false], "intermolecular_energy": 2.731, "internal_energy": -0.839}

$$$$
EPH_relaxed_0001_pdb2pqr_Repair_44_r2_0001_out
     RDKit          3D

 82 86  0  0  0  0  0  0  0  0999 V2000
   -0.0030    9.3930   -2.5410 C   0  0  0  0  0  0  0  0  0  0  0  0
    1.1130   10.3730   -2.9140 C   0  0  2  0  0  0  0  0  0  0  0  0
    2.4980    9.6960   -2.9330 C   0  0  0  0  0  0  0  0  0  0  0  0
    3.4960   10.3620   -3.8850 C   0  0  0  0  0  0  0  0  0  0  0  0
    4.8860   10.3550   -3.3250 C   0  0  2  0  0  0  0  0  0  0  0  0
    5.4680   11.6540   -3.1510 O   0  0  0  0  0  0  0  0  0  0  0  0
    6.1060   10.7970   -4.1110 C   0  0  0  0  0  0  0  0  0  0  0  0
    5.9930   11.2760   -5.5240 C   0  0  0  0  0  0  0  0  0  0  0  0
    7.4520   10.3050   -3.6780 C   0  0  0  0  0  0  0  0  0  0  0  0
    1.1210   11.5470   -1.9410 C   0  0  1  0  0  0  0  0  0  0  0  0
    2.1600   11.3720   -0.8020 C   0  0  0  0  0  0  0  0  0  0  0  0
    2.7100   12.7850   -0.4770 C   0  0  0  0  0  0  0  0  0  0  0  0
    1.7420   13.7540   -1.1950 C   0  0  1  0  0  0  0  0  0  0  0  0
    0.5130   13.8750   -0.2400 C   0  0  0  0  0  0  0  0  0  0  0  0
    2.3220   15.1570   -1.5700 C   0  0  2  0  0  0  0  0  0  0  0  0
    2.7620   16.0220   -0.3760 C   0  0  0  0  0  0  0  0  0  0  0  0
    1.7090   16.9190    0.1850 C   0  0  0  0  0  0  0  0  0  0  0  0
    0.5500   17.2390   -0.4220 C   0  0  0  0  0  0  0  0  0  0  0  0
    0.2480   16.7580   -1.8470 C   0  0  1  0  0  0  0  0  0  0  0  0
   -0.2990   17.9410   -2.6870 C   0  0  0  0  0  0  0  0  0  0  0  0
   -1.5000   18.6180   -2.0330 C   0  0  0  0  0  0  0  0  0  0  0  0
   -1.1430   19.1340   -0.6410 C   0  0  2  0  0  0  0  0  0  0  0  0
   -0.1910   20.1940   -0.7730 O   0  0  0  0  0  0  0  0  0  0  0  0
   -0.5720   18.0320    0.2930 C   0  0  0  0  0  0  0  0  0  0  0  0
   -1.6980   17.0400    0.6780 C   0  0  0  0  0  0  0  0  0  0  0  0
   -0.1220   18.7120    1.6150 C   0  0  0  0  0  0  0  0  0  0  0  0
    1.4240   15.9800   -2.5800 C   0  0  1  0  0  0  0  0  0  0  0  0
    2.3700   16.9950   -3.2910 C   0  0  0  0  0  0  0  0  0  0  0  0
    0.8130   15.0740   -3.7130 C   0  0  0  0  0  0  0  0  0  0  0  0
    0.3690   13.6560   -3.3050 C   0  0  0  0  0  0  0  0  0  0  0  0
    1.4690   12.9430   -2.5140 C   0  0  2  0  0  0  0  0  0  0  0  0
    2.7110   12.7880   -3.4560 C   0  0  0  0  0  0  0  0  0  0  0  0
   -0.0804    9.3250   -1.4458 H   0  0  0  0  0  0  0  0  0  0  0  0
   -0.9578    9.7499   -2.9546 H   0  0  0  0  0  0  0  0  0  0  0  0
    0.2275    8.4001   -2.9546 H   0  0  0  0  0  0  0  0  0  0  0  0
    0.9082   10.7351   -3.9323 H   0  0  0  0  0  0  0  0  0  0  0  0
    2.9143    9.7283   -1.9153 H   0  0  0  0  0  0  0  0  0  0  0  0
    2.3480    8.6674   -3.2927 H   0  0  0  0  0  0  0  0  0  0  0  0
    3.4942    9.8179   -4.8410 H   0  0  0  0  0  0  0  0  0  0  0  0
    3.1887   11.4087   -4.0264 H   0  0  0  0  0  0  0  0  0  0  0  0
    4.6725    9.4466   -2.7426 H   0  0  0  0  0  0  0  0  0  0  0  0
    5.7404   12.3466   -5.5291 H   0  0  0  0  0  0  0  0  0  0  0  0
    6.9519   11.1230   -6.0408 H   0  0  0  0  0  0  0  0  0  0  0  0
    5.2036   10.7106   -6.0408 H   0  0  0  0  0  0  0  0  0  0  0  0
    7.4999   10.2875   -2.5792 H   0  0  0  0  0  0  0  0  0  0  0  0
    7.6142    9.2895   -4.0683 H   0  0  0  0  0  0  0  0  0  0  0  0
    8.2309   10.9766   -4.0683 H   0  0  0  0  0  0  0  0  0  0  0  0
    0.0700   11.5249   -1.6171 H   0  0  0  0  0  0  0  0  0  0  0  0
    1.6781   10.9394    0.0871 H   0  0  0  0  0  0  0  0  0  0  0  0
    2.9702   10.6935   -1.1073 H   0  0  0  0  0  0  0  0  0  0  0  0
    2.7046   12.9638    0.6084 H   0  0  0  0  0  0  0  0  0  0  0  0
    3.7512   12.9139   -0.8075 H   0  0  0  0  0  0  0  0  0  0  0  0
    0.8557   13.8413    0.8047 H   0  0  0  0  0  0  0  0  0  0  0  0
   -0.0033   14.8283   -0.4259 H   0  0  0  0  0  0  0  0  0  0  0  0
   -0.1794   13.0407   -0.4259 H   0  0  0  0  0  0  0  0  0  0  0  0
    3.2466   14.8947   -2.1050 H   0  0  0  0  0  0  0  0  0  0  0  0
    3.0971   15.3483    0.4264 H   0  0  0  0  0  0  0  0  0  0  0  0
    3.5542   16.6839   -0.7558 H   0  0  0  0  0  0  0  0  0  0  0  0
    1.8952   17.3553    1.1775 H   0  0  0  0  0  0  0  0  0  0  0  0
   -0.5248   15.9814   -1.7490 H   0  0  0  0  0  0  0  0  0  0  0  0
    0.5013   18.6855   -2.8103 H   0  0  0  0  0  0  0  0  0  0  0  0
   -0.6299   17.5376   -3.6554 H   0  0  0  0  0  0  0  0  0  0  0  0
   -1.8220   19.4633   -2.6589 H   0  0  0  0  0  0  0  0  0  0  0  0
   -2.3104   17.8804   -1.9374 H   0  0  0  0  0  0  0  0  0  0  0  0
   -2.0723   19.4905   -0.1728 H   0  0  0  0  0  0  0  0  0  0  0  0
    0.1150   20.2020   -1.6950 H   0  0  0  0  0  0  0  0  0  0  0  0
   -1.7711   16.9756    1.7737 H   0  0  0  0  0  0  0  0  0  0  0  0
   -2.6549   17.3940    0.2668 H   0  0  0  0  0  0  0  0  0  0  0  0
   -1.4675   16.0461    0.2668 H   0  0  0  0  0  0  0  0  0  0  0  0
   -0.5029   18.1364    2.4715 H   0  0  0  0  0  0  0  0  0  0  0  0
    0.9768   18.7449    1.6549 H   0  0  0  0  0  0  0  0  0  0  0  0
   -0.5212   19.7362    1.6549 H   0  0  0  0  0  0  0  0  0  0  0  0
    2.9149   17.5797   -2.5352 H   0  0  0  0  0  0  0  0  0  0  0  0
    3.0883   16.4484   -3.9197 H   0  0  0  0  0  0  0  0  0  0  0  0
    1.7742   17.6731   -3.9197 H   0  0  0  0  0  0  0  0  0  0  0  0
   -0.0675   15.5950   -4.1171 H   0  0  0  0  0  0  0  0  0  0  0  0
    1.6306   14.9235   -4.4334 H   0  0  0  0  0  0  0  0  0  0  0  0
   -0.5341   13.7274   -2.6810 H   0  0  0  0  0  0  0  0  0  0  0  0
    0.1622   13.0774   -4.2174 H   0  0  0  0  0  0  0  0  0  0  0  0
    3.6205   12.6745   -2.8479 H   0  0  0  0  0  0  0  0  0  0  0  0
    2.5811   11.8991   -4.0908 H   0  0  0  0  0  0  0  0  0  0  0  0
    2.8035   13.6816   -4.0908 H   0  0  0  0  0  0  0  0  0  0  0  0
  1  2  1  0
  2  3  1  0
  3  4  1  0
  4  5  1  0
  5  6  1  0
  6  7  1  0
  7  8  1  0
  7  9  1  0
  2 10  1  0
 10 11  1  0
 11 12  1  0
 12 13  1  0
 13 14  1  1
 13 15  1  0
 15 16  1  0
 16 17  1  0
 17 18  2  0
 18 19  1  0
 19 20  1  0
 20 21  1  0
 21 22  1  0
 22 23  1  0
 22 24  1  0
 24 25  1  0
 24 26  1  0
 19 27  1  0
 27 28  1  6
 27 29  1  0
 29 30  1  0
 30 31  1  0
 31 32  1  6
  7  5  1  0
 31 10  1  0
 31 13  1  0
 27 15  1  0
 24 18  1  0
  1 33  1  0
  1 34  1  0
  1 35  1  0
  2 36  1  6
  3 37  1  0
  3 38  1  0
  4 39  1  0
  4 40  1  0
  5 41  1  1
  8 42  1  0
  8 43  1  0
  8 44  1  0
  9 45  1  0
  9 46  1  0
  9 47  1  0
 10 48  1  1
 11 49  1  0
 11 50  1  0
 12 51  1  0
 12 52  1  0
 14 53  1  0
 14 54  1  0
 14 55  1  0
 15 56  1  6
 16 57  1  0
 16 58  1  0
 17 59  1  0
 19 60  1  1
 20 61  1  0
 20 62  1  0
 21 63  1  0
 21 64  1  0
 22 65  1  1
 23 66  1  0
 25 67  1  0
 25 68  1  0
 25 69  1  0
 26 70  1  0
 26 71  1  0
 26 72  1  0
 28 73  1  0
 28 74  1  0
 28 75  1  0
 29 76  1  0
 29 77  1  0
 30 78  1  0
 30 79  1  0
 32 80  1  0
 32 81  1  0
 32 82  1  0
M  END
>  <meeko>  (16) 
{"is_sidechain": [false], "intermolecular_energy": 2.731, "internal_energy": -0.839}

$$$$
EPH_relaxed_0001_pdb2pqr_Repair_44_r2_0001_out
     RDKit          3D

 82 86  0  0  0  0  0  0  0  0999 V2000
   -2.0690    7.7680   -2.2050 C   0  0  0  0  0  0  0  0  0  0  0  0
   -2.2750    8.4570   -0.8530 C   0  0  2  0  0  0  0  0  0  0  0  0
   -3.7580    8.4740   -0.4300 C   0  0  0  0  0  0  0  0  0  0  0  0
   -4.6910    7.7830   -1.4280 C   0  0  0  0  0  0  0  0  0  0  0  0
   -5.8460    7.1200   -0.7410 C   0  0  2  0  0  0  0  0  0  0  0  0
   -6.4580    6.0600   -1.4870 O   0  0  0  0  0  0  0  0  0  0  0  0
   -7.2780    7.2130   -1.2340 C   0  0  0  0  0  0  0  0  0  0  0  0
   -7.6310    7.9890   -2.4640 C   0  0  0  0  0  0  0  0  0  0  0  0
   -8.3880    6.9620   -0.2610 C   0  0  0  0  0  0  0  0  0  0  0  0
   -1.7320    9.8800   -0.9060 C   0  0  1  0  0  0  0  0  0  0  0  0
   -1.2820   10.4000    0.4850 C   0  0  0  0  0  0  0  0  0  0  0  0
   -0.0510   11.3110    0.2450 C   0  0  0  0  0  0  0  0  0  0  0  0
   -0.0360   11.5520   -1.2830 C   0  0  1  0  0  0  0  0  0  0  0  0
   -1.0810   12.6870   -1.5200 C   0  0  0  0  0  0  0  0  0  0  0  0
    1.3510   11.9020   -1.9130 C   0  0  2  0  0  0  0  0  0  0  0  0
    1.9850   13.2110   -1.4090 C   0  0  0  0  0  0  0  0  0  0  0  0
    1.6350   14.4320   -2.1930 C   0  0  0  0  0  0  0  0  0  0  0  0
    1.0790   14.4420   -3.4190 C   0  0  0  0  0  0  0  0  0  0  0  0
    0.8340   13.1350   -4.1840 C   0  0  1  0  0  0  0  0  0  0  0  0
    1.3250   13.2910   -5.6470 C   0  0  0  0  0  0  0  0  0  0  0  0
    0.7080   14.4990   -6.3450 C   0  0  0  0  0  0  0  0  0  0  0  0
    1.0220   15.7860   -5.5870 C   0  0  2  0  0  0  0  0  0  0  0  0
    2.4290   16.0360   -5.6650 O   0  0  0  0  0  0  0  0  0  0  0  0
    0.5810   15.7430   -4.0970 C   0  0  0  0  0  0  0  0  0  0  0  0
   -0.9650   15.7750   -4.0100 C   0  0  0  0  0  0  0  0  0  0  0  0
    1.0820   17.0430   -3.4120 C   0  0  0  0  0  0  0  0  0  0  0  0
    1.3860   11.8140   -3.4930 C   0  0  1  0  0  0  0  0  0  0  0  0
    2.8760   11.5860   -3.8930 C   0  0  0  0  0  0  0  0  0  0  0  0
    0.5850   10.5740   -4.0410 C   0  0  0  0  0  0  0  0  0  0  0  0
   -0.7160   10.2060   -3.3010 C   0  0  0  0  0  0  0  0  0  0  0  0
   -0.4850   10.1320   -1.7890 C   0  0  2  0  0  0  0  0  0  0  0  0
    0.5460    8.9840   -1.5170 C   0  0  0  0  0  0  0  0  0  0  0  0
   -1.7574    6.7258   -2.0417 H   0  0  0  0  0  0  0  0  0  0  0  0
   -3.0113    7.7844   -2.7722 H   0  0  0  0  0  0  0  0  0  0  0  0
   -1.2903    8.2989   -2.7722 H   0  0  0  0  0  0  0  0  0  0  0  0
   -1.7231    7.8769   -0.0987 H   0  0  0  0  0  0  0  0  0  0  0  0
   -3.8482    7.9637    0.5403 H   0  0  0  0  0  0  0  0  0  0  0  0
   -4.0657    9.5289   -0.3798 H   0  0  0  0  0  0  0  0  0  0  0  0
   -5.0786    8.5340   -2.1321 H   0  0  0  0  0  0  0  0  0  0  0  0
   -4.1152    7.0079   -1.9550 H   0  0  0  0  0  0  0  0  0  0  0  0
   -5.3923    7.2983    0.2451 H   0  0  0  0  0  0  0  0  0  0  0  0
   -8.0704    8.9550   -2.1746 H   0  0  0  0  0  0  0  0  0  0  0  0
   -6.7235    8.1631   -3.0608 H   0  0  0  0  0  0  0  0  0  0  0  0
   -8.3586    7.4193   -3.0608 H   0  0  0  0  0  0  0  0  0  0  0  0
   -8.0025    7.0492    0.7655 H   0  0  0  0  0  0  0  0  0  0  0  0
   -9.1866    7.7022   -0.4168 H   0  0  0  0  0  0  0  0  0  0  0  0
   -8.7904    5.9502   -0.4168 H   0  0  0  0  0  0  0  0  0  0  0  0
   -2.6053   10.3951   -1.3327 H   0  0  0  0  0  0  0  0  0  0  0  0
   -2.0932   10.9754    0.9549 H   0  0  0  0  0  0  0  0  0  0  0  0
   -1.0310    9.5656    1.1563 H   0  0  0  0  0  0  0  0  0  0  0  0
   -0.1600   12.2619    0.7871 H   0  0  0  0  0  0  0  0  0  0  0  0
    0.8827   10.8539    0.6044 H   0  0  0  0  0  0  0  0  0  0  0  0
   -1.4331   13.0695   -0.5506 H   0  0  0  0  0  0  0  0  0  0  0  0
   -0.6124   13.5040   -2.0882 H   0  0  0  0  0  0  0  0  0  0  0  0
   -1.9339   12.2874   -2.0882 H   0  0  0  0  0  0  0  0  0  0  0  0
    1.9932   11.0934   -1.5338 H   0  0  0  0  0  0  0  0  0  0  0  0
    1.6588   13.3688   -0.3704 H   0  0  0  0  0  0  0  0  0  0  0  0
    3.0724   13.0829   -1.5145 H   0  0  0  0  0  0  0  0  0  0  0  0
    1.8496   15.4063   -1.7297 H   0  0  0  0  0  0  0  0  0  0  0  0
   -0.2541   12.9744   -4.1709 H   0  0  0  0  0  0  0  0  0  0  0  0
    2.4188   13.4075   -5.6414 H   0  0  0  0  0  0  0  0  0  0  0  0
    1.0167   12.3918   -6.2005 H   0  0  0  0  0  0  0  0  0  0  0  0
    1.1154   14.5729   -7.3641 H   0  0  0  0  0  0  0  0  0  0  0  0
   -0.3836   14.3671   -6.3759 H   0  0  0  0  0  0  0  0  0  0  0  0
    0.4478   16.5958   -6.0608 H   0  0  0  0  0  0  0  0  0  0  0  0
    2.6070   16.4430   -6.5300 H   0  0  0  0  0  0  0  0  0  0  0  0
   -1.2728   15.7814   -2.9539 H   0  0  0  0  0  0  0  0  0  0  0  0
   -1.3415   16.6811   -4.5071 H   0  0  0  0  0  0  0  0  0  0  0  0
   -1.3787   14.8852   -4.5071 H   0  0  0  0  0  0  0  0  0  0  0  0
    1.0358   16.9230   -2.3195 H   0  0  0  0  0  0  0  0  0  0  0  0
    2.1207   17.2405   -3.7156 H   0  0  0  0  0  0  0  0  0  0  0  0
    0.4445   17.8865   -3.7156 H   0  0  0  0  0  0  0  0  0  0  0  0
    3.4893   11.4922   -2.9846 H   0  0  0  0  0  0  0  0  0  0  0  0
    2.9590   10.6647   -4.4882 H   0  0  0  0  0  0  0  0  0  0  0  0
    3.2307   12.4403   -4.4882 H   0  0  0  0  0  0  0  0  0  0  0  0
    0.3243   10.7828   -5.0891 H   0  0  0  0  0  0  0  0  0  0  0  0
    1.2530    9.7122   -3.8955 H   0  0  0  0  0  0  0  0  0  0  0  0
   -1.4782   10.9707   -3.5115 H   0  0  0  0  0  0  0  0  0  0  0  0
   -1.0524    9.2196   -3.6529 H   0  0  0  0  0  0  0  0  0  0  0  0
    0.6670    8.8493   -0.4320 H   0  0  0  0  0  0  0  0  0  0  0  0
    0.1792    8.0482   -1.9640 H   0  0  0  0  0  0  0  0  0  0  0  0
    1.5157    9.2485   -1.9640 H   0  0  0  0  0  0  0  0  0  0  0  0
  1  2  1  0
  2  3  1  0
  3  4  1  0
  4  5  1  0
  5  6  1  0
  6  7  1  0
  7  8  1  0
  7  9  1  0
  2 10  1  0
 10 11  1  0
 11 12  1  0
 12 13  1  0
 13 14  1  1
 13 15  1  0
 15 16  1  0
 16 17  1  0
 17 18  2  0
 18 19  1  0
 19 20  1  0
 20 21  1  0
 21 22  1  0
 22 23  1  0
 22 24  1  0
 24 25  1  0
 24 26  1  0
 19 27  1  0
 27 28  1  6
 27 29  1  0
 29 30  1  0
 30 31  1  0
 31 32  1  6
  7  5  1  0
 31 10  1  0
 31 13  1  0
 27 15  1  0
 24 18  1  0
  1 33  1  0
  1 34  1  0
  1 35  1  0
  2 36  1  1
  3 37  1  0
  3 38  1  0
  4 39  1  0
  4 40  1  0
  5 41  1  1
  8 42  1  0
  8 43  1  0
  8 44  1  0
  9 45  1  0
  9 46  1  0
  9 47  1  0
 10 48  1  6
 11 49  1  0
 11 50  1  0
 12 51  1  0
 12 52  1  0
 14 53  1  0
 14 54  1  0
 14 55  1  0
 15 56  1  1
 16 57  1  0
 16 58  1  0
 17 59  1  0
 19 60  1  6
 20 61  1  0
 20 62  1  0
 21 63  1  0
 21 64  1  0
 22 65  1  6
 23 66  1  0
 25 67  1  0
 25 68  1  0
 25 69  1  0
 26 70  1  0
 26 71  1  0
 26 72  1  0
 28 73  1  0
 28 74  1  0
 28 75  1  0
 29 76  1  0
 29 77  1  0
 30 78  1  0
 30 79  1  0
 32 80  1  0
 32 81  1  0
 32 82  1  0
M  END
>  <meeko>  (17) 
{"is_sidechain": [false], "intermolecular_energy": 2.731, "internal_energy": -0.839}

$$$$
EPH_relaxed_0001_pdb2pqr_Repair_44_r2_0001_out
     RDKit          3D

 82 86  0  0  0  0  0  0  0  0999 V2000
   -4.0360    7.3950   -3.5290 C   0  0  0  0  0  0  0  0  0  0  0  0
   -3.7000    7.3150   -2.0370 C   0  0  2  0  0  0  0  0  0  0  0  0
   -4.9170    6.8910   -1.1900 C   0  0  0  0  0  0  0  0  0  0  0  0
   -6.1810    6.6340   -2.0150 C   0  0  0  0  0  0  0  0  0  0  0  0
   -7.3750    6.3980   -1.1400 C   0  0  2  0  0  0  0  0  0  0  0  0
   -8.4130    5.6150   -1.7430 O   0  0  0  0  0  0  0  0  0  0  0  0
   -8.7490    6.9750   -1.4250 C   0  0  0  0  0  0  0  0  0  0  0  0
   -9.0000    7.8360   -2.6230 C   0  0  0  0  0  0  0  0  0  0  0  0
   -9.7180    7.1080   -0.2920 C   0  0  0  0  0  0  0  0  0  0  0  0
   -3.1710    8.6600   -1.5510 C   0  0  1  0  0  0  0  0  0  0  0  0
   -3.8230    9.1110   -0.2170 C   0  0  0  0  0  0  0  0  0  0  0  0
   -2.7290    9.8630    0.5840 C   0  0  0  0  0  0  0  0  0  0  0  0
   -1.5960   10.1080   -0.4400 C   0  0  1  0  0  0  0  0  0  0  0  0
   -2.0480   11.3660   -1.2450 C   0  0  0  0  0  0  0  0  0  0  0  0
   -0.1590   10.2860    0.1500 C   0  0  2  0  0  0  0  0  0  0  0  0
    0.0210   11.5020    1.0750 C   0  0  0  0  0  0  0  0  0  0  0  0
    0.4480   12.7610    0.3970 C   0  0  0  0  0  0  0  0  0  0  0  0
    0.9510   12.8480   -0.8480 C   0  0  0  0  0  0  0  0  0  0  0  0
    1.2270   11.5860   -1.6750 C   0  0  1  0  0  0  0  0  0  0  0  0
    2.6340   11.6880   -2.3220 C   0  0  0  0  0  0  0  0  0  0  0  0
    2.8140   12.9670   -3.1320 C   0  0  0  0  0  0  0  0  0  0  0  0
    2.5880   14.2010   -2.2610 C   0  0  2  0  0  0  0  0  0  0  0  0
    3.6320   14.2730   -1.2850 O   0  0  0  0  0  0  0  0  0  0  0  0
    1.2060   14.2040   -1.5500 C   0  0  0  0  0  0  0  0  0  0  0  0
    0.0840   14.4300   -2.5940 C   0  0  0  0  0  0  0  0  0  0  0  0
    1.1640   15.4280   -0.5960 C   0  0  0  0  0  0  0  0  0  0  0  0
    0.9980   10.2020   -0.9270 C   0  0  1  0  0  0  0  0  0  0  0  0
    2.2920    9.7920   -0.1590 C   0  0  0  0  0  0  0  0  0  0  0  0
    0.7410    9.0760   -1.9960 C   0  0  0  0  0  0  0  0  0  0  0  0
   -0.7170    8.8690   -2.4500 C   0  0  0  0  0  0  0  0  0  0  0  0
   -1.6560    8.7590   -1.2450 C   0  0  2  0  0  0  0  0  0  0  0  0
   -1.2390    7.4890   -0.4280 C   0  0  0  0  0  0  0  0  0  0  0  0
   -5.0993    7.6482   -3.6523 H   0  0  0  0  0  0  0  0  0  0  0  0
   -3.4170    8.1709   -4.0032 H   0  0  0  0  0  0  0  0  0  0  0  0
   -3.8330    6.4234   -4.0032 H   0  0  0  0  0  0  0  0  0  0  0  0
   -2.9259    6.5435   -1.9126 H   0  0  0  0  0  0  0  0  0  0  0  0
   -4.6602    5.9671   -0.6510 H   0  0  0  0  0  0  0  0  0  0  0  0
   -5.1414    7.7253   -0.5091 H   0  0  0  0  0  0  0  0  0  0  0  0
   -6.3741    7.5087   -2.6535 H   0  0  0  0  0  0  0  0  0  0  0  0
   -6.0169    5.7316   -2.6223 H   0  0  0  0  0  0  0  0  0  0  0  0
   -6.7449    6.4045   -0.2384 H   0  0  0  0  0  0  0  0  0  0  0  0
   -9.2939    8.8440   -2.2950 H   0  0  0  0  0  0  0  0  0  0  0  0
   -8.0831    7.8998   -3.2273 H   0  0  0  0  0  0  0  0  0  0  0  0
   -9.8076    7.3971   -3.2273 H   0  0  0  0  0  0  0  0  0  0  0  0
   -9.1776    7.0338    0.6632 H   0  0  0  0  0  0  0  0  0  0  0  0
  -10.2221    8.0838   -0.3533 H   0  0  0  0  0  0  0  0  0  0  0  0
  -10.4664    6.3042   -0.3533 H   0  0  0  0  0  0  0  0  0  0  0  0
   -3.4202    9.2828   -2.4228 H   0  0  0  0  0  0  0  0  0  0  0  0
   -4.6727    9.7801   -0.4179 H   0  0  0  0  0  0  0  0  0  0  0  0
   -4.2031    8.2475    0.3485 H   0  0  0  0  0  0  0  0  0  0  0  0
   -3.1169   10.8173    0.9699 H   0  0  0  0  0  0  0  0  0  0  0  0
   -2.3849    9.2915    1.4586 H   0  0  0  0  0  0  0  0  0  0  0  0
   -2.3351   12.1651   -0.5457 H   0  0  0  0  0  0  0  0  0  0  0  0
   -1.2185   11.7135   -1.8784 H   0  0  0  0  0  0  0  0  0  0  0  0
   -2.9090   11.1062   -1.8784 H   0  0  0  0  0  0  0  0  0  0  0  0
   -0.0582    9.4022    0.7970 H   0  0  0  0  0  0  0  0  0  0  0  0
   -0.9399   11.6941    1.5747 H   0  0  0  0  0  0  0  0  0  0  0  0
    0.8334   11.2392    1.7685 H   0  0  0  0  0  0  0  0  0  0  0  0
    0.3425   13.6980    0.9635 H   0  0  0  0  0  0  0  0  0  0  0  0
    0.4561   11.5623   -2.4593 H   0  0  0  0  0  0  0  0  0  0  0  0
    3.3912   11.6663   -1.5244 H   0  0  0  0  0  0  0  0  0  0  0  0
    2.7470   10.8379   -3.0109 H   0  0  0  0  0  0  0  0  0  0  0  0
    3.8359   12.9952   -3.5380 H   0  0  0  0  0  0  0  0  0  0  0  0
    2.0759   12.9729   -3.9475 H   0  0  0  0  0  0  0  0  0  0  0  0
    2.6016   15.0796   -2.9227 H   0  0  0  0  0  0  0  0  0  0  0  0
    4.1990   13.4920   -1.4030 H   0  0  0  0  0  0  0  0  0  0  0  0
   -0.8667   14.6215   -2.0749 H   0  0  0  0  0  0  0  0  0  0  0  0
    0.3384   15.2949   -3.2242 H   0  0  0  0  0  0  0  0  0  0  0  0
   -0.0163   13.5340   -3.2242 H   0  0  0  0  0  0  0  0  0  0  0  0
    1.1759   15.0802    0.4475 H   0  0  0  0  0  0  0  0  0  0  0  0
    2.0408   16.0664   -0.7798 H   0  0  0  0  0  0  0  0  0  0  0  0
    0.2455   16.0048   -0.7798 H   0  0  0  0  0  0  0  0  0  0  0  0
    2.1094    9.8499    0.9242 H   0  0  0  0  0  0  0  0  0  0  0  0
    2.5684    8.7623   -0.4298 H   0  0  0  0  0  0  0  0  0  0  0  0
    3.1109   10.4747   -0.4298 H   0  0  0  0  0  0  0  0  0  0  0  0
    1.3356    9.3221   -2.8881 H   0  0  0  0  0  0  0  0  0  0  0  0
    1.0237    8.1366   -1.4984 H   0  0  0  0  0  0  0  0  0  0  0  0
   -1.0257    9.7237   -3.0699 H   0  0  0  0  0  0  0  0  0  0  0  0
   -0.7754    7.9341   -3.0267 H   0  0  0  0  0  0  0  0  0  0  0  0
   -1.3101    7.7056    0.6481 H   0  0  0  0  0  0  0  0  0  0  0  0
   -1.9104    6.6546   -0.6792 H   0  0  0  0  0  0  0  0  0  0  0  0
   -0.2037    7.2150   -0.6792 H   0  0  0  0  0  0  0  0  0  0  0  0
  1  2  1  0
  2  3  1  0
  3  4  1  0
  4  5  1  0
  5  6  1  0
  6  7  1  0
  7  8  1  0
  7  9  1  0
  2 10  1  0
 10 11  1  0
 11 12  1  0
 12 13  1  0
 13 14  1  6
 13 15  1  0
 15 16  1  0
 16 17  1  0
 17 18  2  0
 18 19  1  0
 19 20  1  0
 20 21  1  0
 21 22  1  0
 22 23  1  0
 22 24  1  0
 24 25  1  0
 24 26  1  0
 19 27  1  0
 27 28  1  1
 27 29  1  0
 29 30  1  0
 30 31  1  0
 31 32  1  1
  7  5  1  0
 31 10  1  0
 31 13  1  0
 27 15  1  0
 24 18  1  0
  1 33  1  0
  1 34  1  0
  1 35  1  0
  2 36  1  6
  3 37  1  0
  3 38  1  0
  4 39  1  0
  4 40  1  0
  5 41  1  1
  8 42  1  0
  8 43  1  0
  8 44  1  0
  9 45  1  0
  9 46  1  0
  9 47  1  0
 10 48  1  6
 11 49  1  0
 11 50  1  0
 12 51  1  0
 12 52  1  0
 14 53  1  0
 14 54  1  0
 14 55  1  0
 15 56  1  1
 16 57  1  0
 16 58  1  0
 17 59  1  0
 19 60  1  6
 20 61  1  0
 20 62  1  0
 21 63  1  0
 21 64  1  0
 22 65  1  6
 23 66  1  0
 25 67  1  0
 25 68  1  0
 25 69  1  0
 26 70  1  0
 26 71  1  0
 26 72  1  0
 28 73  1  0
 28 74  1  0
 28 75  1  0
 29 76  1  0
 29 77  1  0
 30 78  1  0
 30 79  1  0
 32 80  1  0
 32 81  1  0
 32 82  1  0
M  END
>  <meeko>  (18) 
{"is_sidechain": [false], "intermolecular_energy": 2.731, "internal_energy": -0.839}

$$$$
EPH_relaxed_0001_pdb2pqr_Repair_44_r2_0001_out
     RDKit          3D

 82 86  0  0  0  0  0  0  0  0999 V2000
    2.8380   11.3180   -5.2280 C   0  0  0  0  0  0  0  0  0  0  0  0
    1.7770   11.0220   -4.1640 C   0  0  2  0  0  0  0  0  0  0  0  0
    0.6610   10.1010   -4.6960 C   0  0  0  0  0  0  0  0  0  0  0  0
   -0.4080    9.7630   -3.6530 C   0  0  0  0  0  0  0  0  0  0  0  0
    0.1690    9.0070   -2.4940 C   0  0  2  0  0  0  0  0  0  0  0  0
   -0.6360    7.9150   -2.0320 O   0  0  0  0  0  0  0  0  0  0  0  0
   -0.4510    9.0000   -1.1090 C   0  0  0  0  0  0  0  0  0  0  0  0
   -1.7020    9.7650   -0.8100 C   0  0  0  0  0  0  0  0  0  0  0  0
    0.4170    8.6550    0.0610 C   0  0  0  0  0  0  0  0  0  0  0  0
    1.1770   12.3260   -3.6520 C   0  0  1  0  0  0  0  0  0  0  0  0
   -0.3580   12.2340   -3.4380 C   0  0  0  0  0  0  0  0  0  0  0  0
   -0.6910   13.1140   -2.2050 C   0  0  0  0  0  0  0  0  0  0  0  0
    0.5930   13.9380   -1.9560 C   0  0  1  0  0  0  0  0  0  0  0  0
    0.5180   15.1170   -2.9760 C   0  0  0  0  0  0  0  0  0  0  0  0
    0.8120   14.4510   -0.4950 C   0  0  2  0  0  0  0  0  0  0  0  0
   -0.2610   15.4260    0.0220 C   0  0  0  0  0  0  0  0  0  0  0  0
    0.0170   16.8710   -0.2290 C   0  0  0  0  0  0  0  0  0  0  0  0
    1.2080   17.3890   -0.5850 C   0  0  0  0  0  0  0  0  0  0  0  0
    2.4560   16.5020   -0.6770 C   0  0  1  0  0  0  0  0  0  0  0  0
    3.6430   17.2040    0.0340 C   0  0  0  0  0  0  0  0  0  0  0  0
    3.8890   18.6140   -0.4930 C   0  0  0  0  0  0  0  0  0  0  0  0
    2.6440   19.4820   -0.3310 C   0  0  2  0  0  0  0  0  0  0  0  0
    2.4000   19.6840    1.0640 O   0  0  0  0  0  0  0  0  0  0  0  0
    1.3800   18.8710   -1.0000 C   0  0  0  0  0  0  0  0  0  0  0  0
    1.5260   18.9310   -2.5400 C   0  0  0  0  0  0  0  0  0  0  0  0
    0.1680   19.7720   -0.6420 C   0  0  0  0  0  0  0  0  0  0  0  0
    2.2710   14.9940   -0.2100 C   0  0  1  0  0  0  0  0  0  0  0  0
    2.4960   14.8810    1.3290 C   0  0  0  0  0  0  0  0  0  0  0  0
    3.3820   14.1070   -0.8870 C   0  0  0  0  0  0  0  0  0  0  0  0
    3.0590   13.5300   -2.2790 C   0  0  0  0  0  0  0  0  0  0  0  0
    1.6840   12.8550   -2.2870 C   0  0  2  0  0  0  0  0  0  0  0  0
    1.7370   11.6510   -1.2860 C   0  0  0  0  0  0  0  0  0  0  0  0
    3.7860   11.5825   -4.7368 H   0  0  0  0  0  0  0  0  0  0  0  0
    2.9864   10.4269   -5.8557 H   0  0  0  0  0  0  0  0  0  0  0  0
    2.5037   12.1572   -5.8557 H   0  0  0  0  0  0  0  0  0  0  0  0
    2.2752   10.4925   -3.3385 H   0  0  0  0  0  0  0  0  0  0  0  0
    0.1721   10.6022   -5.5444 H   0  0  0  0  0  0  0  0  0  0  0  0
    1.1377    9.1531   -4.9863 H   0  0  0  0  0  0  0  0  0  0  0  0
   -0.8533   10.6982   -3.2827 H   0  0  0  0  0  0  0  0  0  0  0  0
   -1.1675    9.1284   -4.1330 H   0  0  0  0  0  0  0  0  0  0  0  0
    1.1931    9.2052   -2.8432 H   0  0  0  0  0  0  0  0  0  0  0  0
   -1.8317    9.8443    0.2794 H   0  0  0  0  0  0  0  0  0  0  0  0
   -1.6283   10.7727   -1.2448 H   0  0  0  0  0  0  0  0  0  0  0  0
   -2.5655    9.2402   -1.2448 H   0  0  0  0  0  0  0  0  0  0  0  0
   -0.1236    8.8699    0.9946 H   0  0  0  0  0  0  0  0  0  0  0  0
    0.6744    7.5862    0.0240 H   0  0  0  0  0  0  0  0  0  0  0  0
    1.3379    9.2555    0.0240 H   0  0  0  0  0  0  0  0  0  0  0  0
    1.4933   13.0035   -4.4588 H   0  0  0  0  0  0  0  0  0  0  0  0
   -0.8875   12.6099   -4.3259 H   0  0  0  0  0  0  0  0  0  0  0  0
   -0.6727   11.1924   -3.2766 H   0  0  0  0  0  0  0  0  0  0  0  0
   -1.5423   13.7768   -2.4194 H   0  0  0  0  0  0  0  0  0  0  0  0
   -0.9778   12.5135   -1.3291 H   0  0  0  0  0  0  0  0  0  0  0  0
    0.4574   16.0704   -2.4306 H   0  0  0  0  0  0  0  0  0  0  0  0
    1.4182   15.1128   -3.6081 H   0  0  0  0  0  0  0  0  0  0  0  0
   -0.3744   14.9988   -3.6081 H   0  0  0  0  0  0  0  0  0  0  0  0
    0.6919   13.5321    0.0977 H   0  0  0  0  0  0  0  0  0  0  0  0
   -1.2137   15.1732   -0.4664 H   0  0  0  0  0  0  0  0  0  0  0  0
   -0.2809   15.3052    1.1152 H   0  0  0  0  0  0  0  0  0  0  0  0
   -0.8224   17.5724   -0.1133 H   0  0  0  0  0  0  0  0  0  0  0  0
    2.6739   16.3937   -1.7497 H   0  0  0  0  0  0  0  0  0  0  0  0
    3.4243   17.2630    1.1104 H   0  0  0  0  0  0  0  0  0  0  0  0
    4.5483   16.6111   -0.1632 H   0  0  0  0  0  0  0  0  0  0  0  0
    4.7197   19.0679    0.0673 H   0  0  0  0  0  0  0  0  0  0  0  0
    4.1360   18.5507   -1.5630 H   0  0  0  0  0  0  0  0  0  0  0  0
    2.8391   20.4366   -0.8417 H   0  0  0  0  0  0  0  0  0  0  0  0
    3.1810   19.3660    1.5480 H   0  0  0  0  0  0  0  0  0  0  0  0
    2.5148   19.3374   -2.7990 H   0  0  0  0  0  0  0  0  0  0  0  0
    1.4248   17.9184   -2.9576 H   0  0  0  0  0  0  0  0  0  0  0  0
    0.7421   19.5799   -2.9576 H   0  0  0  0  0  0  0  0  0  0  0  0
    0.0737   19.8421    0.4517 H   0  0  0  0  0  0  0  0  0  0  0  0
    0.3215   20.7770   -1.0620 H   0  0  0  0  0  0  0  0  0  0  0  0
   -0.7502   19.3354   -1.0620 H   0  0  0  0  0  0  0  0  0  0  0  0
    1.6343   15.3138    1.8583 H   0  0  0  0  0  0  0  0  0  0  0  0
    2.6031   13.8221    1.6071 H   0  0  0  0  0  0  0  0  0  0  0  0
    3.4093   15.4274    1.6071 H   0  0  0  0  0  0  0  0  0  0  0  0
    4.2870   14.7246   -0.9848 H   0  0  0  0  0  0  0  0  0  0  0  0
    3.4900   13.2309   -0.2306 H   0  0  0  0  0  0  0  0  0  0  0  0
    3.0636   14.3460   -3.0167 H   0  0  0  0  0  0  0  0  0  0  0  0
    3.8206   12.7777   -2.5322 H   0  0  0  0  0  0  0  0  0  0  0  0
    1.7203   12.0312   -0.2539 H   0  0  0  0  0  0  0  0  0  0  0  0
    0.8667   10.9987   -1.4506 H   0  0  0  0  0  0  0  0  0  0  0  0
    2.6613   11.0777   -1.4506 H   0  0  0  0  0  0  0  0  0  0  0  0
  1  2  1  0
  2  3  1  0
  3  4  1  0
  4  5  1  0
  5  6  1  0
  6  7  1  0
  7  8  1  0
  7  9  1  0
  2 10  1  0
 10 11  1  0
 11 12  1  0
 12 13  1  0
 13 14  1  6
 13 15  1  0
 15 16  1  0
 16 17  1  0
 17 18  2  0
 18 19  1  0
 19 20  1  0
 20 21  1  0
 21 22  1  0
 22 23  1  0
 22 24  1  0
 24 25  1  0
 24 26  1  0
 19 27  1  0
 27 28  1  1
 27 29  1  0
 29 30  1  0
 30 31  1  0
 31 32  1  1
  7  5  1  0
 31 10  1  0
 31 13  1  0
 27 15  1  0
 24 18  1  0
  1 33  1  0
  1 34  1  0
  1 35  1  0
  2 36  1  1
  3 37  1  0
  3 38  1  0
  4 39  1  0
  4 40  1  0
  5 41  1  1
  8 42  1  0
  8 43  1  0
  8 44  1  0
  9 45  1  0
  9 46  1  0
  9 47  1  0
 10 48  1  6
 11 49  1  0
 11 50  1  0
 12 51  1  0
 12 52  1  0
 14 53  1  0
 14 54  1  0
 14 55  1  0
 15 56  1  1
 16 57  1  0
 16 58  1  0
 17 59  1  0
 19 60  1  6
 20 61  1  0
 20 62  1  0
 21 63  1  0
 21 64  1  0
 22 65  1  6
 23 66  1  0
 25 67  1  0
 25 68  1  0
 25 69  1  0
 26 70  1  0
 26 71  1  0
 26 72  1  0
 28 73  1  0
 28 74  1  0
 28 75  1  0
 29 76  1  0
 29 77  1  0
 30 78  1  0
 30 79  1  0
 32 80  1  0
 32 81  1  0
 32 82  1  0
M  END
>  <meeko>  (19) 
{"is_sidechain": [false], "intermolecular_energy": 2.731, "internal_energy": -0.839}

$$$$
