EPH_relaxed_0001_pdb2pqr_Repair_65_r2_0001_out
     RDKit          3D

 82 86  0  0  0  0  0  0  0  0999 V2000
   -1.5210    8.4750   -1.8860 C   0  0  0  0  0  0  0  0  0  0  0  0
   -1.9920    9.1310   -0.5850 C   0  0  2  0  0  0  0  0  0  0  0  0
   -3.4620    9.5900   -0.6640 C   0  0  0  0  0  0  0  0  0  0  0  0
   -4.4710    8.4720   -0.3860 C   0  0  0  0  0  0  0  0  0  0  0  0
   -5.1650    8.0270   -1.6380 C   0  0  2  0  0  0  0  0  0  0  0  0
   -6.3740    8.7370   -1.9360 O   0  0  0  0  0  0  0  0  0  0  0  0
   -6.5160    7.3370   -1.6450 C   0  0  0  0  0  0  0  0  0  0  0  0
   -7.2530    7.0520   -0.3740 C   0  0  0  0  0  0  0  0  0  0  0  0
   -6.8900    6.5090   -2.8350 C   0  0  0  0  0  0  0  0  0  0  0  0
   -1.0950   10.3160   -0.2460 C   0  0  1  0  0  0  0  0  0  0  0  0
    0.0200    9.9490    0.7700 C   0  0  0  0  0  0  0  0  0  0  0  0
    1.2680   10.7840    0.3840 C   0  0  0  0  0  0  0  0  0  0  0  0
    0.7400   11.8360   -0.6190 C   0  0  1  0  0  0  0  0  0  0  0  0
    0.1100   12.9550    0.2690 C   0  0  0  0  0  0  0  0  0  0  0  0
    1.7850   12.4180   -1.6250 C   0  0  2  0  0  0  0  0  0  0  0  0
    2.9490   13.1920   -0.9830 C   0  0  0  0  0  0  0  0  0  0  0  0
    2.7210   14.6570   -0.8070 C   0  0  0  0  0  0  0  0  0  0  0  0
    1.7510   15.3740   -1.4040 C   0  0  0  0  0  0  0  0  0  0  0  0
    0.8160   14.7300   -2.4350 C   0  0  1  0  0  0  0  0  0  0  0  0
    0.6940   15.6550   -3.6740 C   0  0  0  0  0  0  0  0  0  0  0  0
    0.2680   17.0730   -3.3060 C   0  0  0  0  0  0  0  0  0  0  0  0
    1.2540   17.7010   -2.3240 C   0  0  2  0  0  0  0  0  0  0  0  0
    2.5070   17.8900   -2.9880 O   0  0  0  0  0  0  0  0  0  0  0  0
    1.4650   16.8520   -1.0400 C   0  0  0  0  0  0  0  0  0  0  0  0
    0.1860   16.8990   -0.1690 C   0  0  0  0  0  0  0  0  0  0  0  0
    2.5860   17.5250   -0.2020 C   0  0  0  0  0  0  0  0  0  0  0  0
    1.1470   13.2260   -2.8270 C   0  0  1  0  0  0  0  0  0  0  0  0
    2.1900   13.1950   -3.9870 C   0  0  0  0  0  0  0  0  0  0  0  0
   -0.1560   12.5400   -3.3840 C   0  0  0  0  0  0  0  0  0  0  0  0
   -1.0890   11.8790   -2.3510 C   0  0  0  0  0  0  0  0  0  0  0  0
   -0.3020   10.9630   -1.4090 C   0  0  2  0  0  0  0  0  0  0  0  0
    0.3250    9.8150   -2.2710 C   0  0  0  0  0  0  0  0  0  0  0  0
   -0.8943    7.6022   -1.6506 H   0  0  0  0  0  0  0  0  0  0  0  0
   -2.3947    8.1520   -2.4710 H   0  0  0  0  0  0  0  0  0  0  0  0
   -0.9356    9.1996   -2.4710 H   0  0  0  0  0  0  0  0  0  0  0  0
   -1.9249    8.3735    0.2098 H   0  0  0  0  0  0  0  0  0  0  0  0
   -3.6166   10.3894    0.0757 H   0  0  0  0  0  0  0  0  0  0  0  0
   -3.6372    9.9327   -1.6945 H   0  0  0  0  0  0  0  0  0  0  0  0
   -3.9403    7.6136    0.0516 H   0  0  0  0  0  0  0  0  0  0  0  0
   -5.2311    8.8610    0.3075 H   0  0  0  0  0  0  0  0  0  0  0  0
   -4.2041    7.7720   -2.1087 H   0  0  0  0  0  0  0  0  0  0  0  0
   -6.6121    7.2998    0.4850 H   0  0  0  0  0  0  0  0  0  0  0  0
   -8.1682    7.6610   -0.3364 H   0  0  0  0  0  0  0  0  0  0  0  0
   -7.5204    5.9856   -0.3364 H   0  0  0  0  0  0  0  0  0  0  0  0
   -7.3209    5.5550   -2.4971 H   0  0  0  0  0  0  0  0  0  0  0  0
   -7.6305    7.0515   -3.4411 H   0  0  0  0  0  0  0  0  0  0  0  0
   -5.9934    6.3121   -3.4411 H   0  0  0  0  0  0  0  0  0  0  0  0
   -1.8523   11.0196    0.1301 H   0  0  0  0  0  0  0  0  0  0  0  0
   -0.3015   10.1983    1.7920 H   0  0  0  0  0  0  0  0  0  0  0  0
    0.2411    8.8718    0.7424 H   0  0  0  0  0  0  0  0  0  0  0  0
    1.6966   11.2740    1.2707 H   0  0  0  0  0  0  0  0  0  0  0  0
    2.0680   10.1633   -0.0457 H   0  0  0  0  0  0  0  0  0  0  0  0
    0.2514   12.7038    1.3306 H   0  0  0  0  0  0  0  0  0  0  0  0
    0.6000   13.9154    0.0510 H   0  0  0  0  0  0  0  0  0  0  0  0
   -0.9653   13.0342    0.0510 H   0  0  0  0  0  0  0  0  0  0  0  0
    2.2318   11.5084   -2.0527 H   0  0  0  0  0  0  0  0  0  0  0  0
    3.1408   12.7564    0.0087 H   0  0  0  0  0  0  0  0  0  0  0  0
    3.7968   13.0974   -1.6774 H   0  0  0  0  0  0  0  0  0  0  0  0
    3.4031   15.1956   -0.1327 H   0  0  0  0  0  0  0  0  0  0  0  0
   -0.1625   14.6375   -1.9410 H   0  0  0  0  0  0  0  0  0  0  0  0
    1.6707   15.6999   -4.1780 H   0  0  0  0  0  0  0  0  0  0  0  0
   -0.0814   15.2332   -4.3304 H   0  0  0  0  0  0  0  0  0  0  0  0
    0.2293   17.6857   -4.2188 H   0  0  0  0  0  0  0  0  0  0  0  0
   -0.7226   17.0297   -2.8298 H   0  0  0  0  0  0  0  0  0  0  0  0
    0.8285   18.6613   -1.9973 H   0  0  0  0  0  0  0  0  0  0  0  0
    2.7020   17.0790   -3.4870 H   0  0  0  0  0  0  0  0  0  0  0  0
    0.4662   16.8887    0.8947 H   0  0  0  0  0  0  0  0  0  0  0  0
   -0.3755   17.8184   -0.3914 H   0  0  0  0  0  0  0  0  0  0  0  0
   -0.4415   16.0233   -0.3914 H   0  0  0  0  0  0  0  0  0  0  0  0
    2.3709   17.3958    0.8690 H   0  0  0  0  0  0  0  0  0  0  0  0
    3.5529   17.0579   -0.4407 H   0  0  0  0  0  0  0  0  0  0  0  0
    2.6283   18.5980   -0.4407 H   0  0  0  0  0  0  0  0  0  0  0  0
    3.2058   13.1648   -3.5660 H   0  0  0  0  0  0  0  0  0  0  0  0
    2.0231   12.3014   -4.6064 H   0  0  0  0  0  0  0  0  0  0  0  0
    2.0764   14.0969   -4.6064 H   0  0  0  0  0  0  0  0  0  0  0  0
   -0.7372   13.3097   -3.9129 H   0  0  0  0  0  0  0  0  0  0  0  0
    0.2015   11.7154   -4.0182 H   0  0  0  0  0  0  0  0  0  0  0  0
   -1.5844   12.6632   -1.7597 H   0  0  0  0  0  0  0  0  0  0  0  0
   -1.8340   11.2734   -2.8880 H   0  0  0  0  0  0  0  0  0  0  0  0
    0.7453    9.0455   -1.6068 H   0  0  0  0  0  0  0  0  0  0  0  0
   -0.4533    9.3662   -2.9057 H   0  0  0  0  0  0  0  0  0  0  0  0
    1.1232   10.2272   -2.9057 H   0  0  0  0  0  0  0  0  0  0  0  0
  1  2  1  0
  2  3  1  0
  3  4  1  0
  4  5  1  0
  5  6  1  0
  6  7  1  0
  7  8  1  0
  7  9  1  0
  2 10  1  0
 10 11  1  0
 11 12  1  0
 12 13  1  0
 13 14  1  1
 13 15  1  0
 15 16  1  0
 16 17  1  0
 17 18  2  0
 18 19  1  0
 19 20  1  0
 20 21  1  0
 21 22  1  0
 22 23  1  0
 22 24  1  0
 24 25  1  0
 24 26  1  0
 19 27  1  0
 27 28  1  6
 27 29  1  0
 29 30  1  0
 30 31  1  0
 31 32  1  6
  7  5  1  0
 31 10  1  0
 31 13  1  0
 27 15  1  0
 24 18  1  0
  1 33  1  0
  1 34  1  0
  1 35  1  0
  2 36  1  1
  3 37  1  0
  3 38  1  0
  4 39  1  0
  4 40  1  0
  5 41  1  6
  8 42  1  0
  8 43  1  0
  8 44  1  0
  9 45  1  0
  9 46  1  0
  9 47  1  0
 10 48  1  1
 11 49  1  0
 11 50  1  0
 12 51  1  0
 12 52  1  0
 14 53  1  0
 14 54  1  0
 14 55  1  0
 15 56  1  6
 16 57  1  0
 16 58  1  0
 17 59  1  0
 19 60  1  1
 20 61  1  0
 20 62  1  0
 21 63  1  0
 21 64  1  0
 22 65  1  1
 23 66  1  0
 25 67  1  0
 25 68  1  0
 25 69  1  0
 26 70  1  0
 26 71  1  0
 26 72  1  0
 28 73  1  0
 28 74  1  0
 28 75  1  0
 29 76  1  0
 29 77  1  0
 30 78  1  0
 30 79  1  0
 32 80  1  0
 32 81  1  0
 32 82  1  0
M  END
>  <meeko>  (1) 
{"is_sidechain": [false], "intermolecular_energy": 2.731, "internal_energy": -0.839}

$$$$
EPH_relaxed_0001_pdb2pqr_Repair_65_r2_0001_out
     RDKit          3D

 82 86  0  0  0  0  0  0  0  0999 V2000
    0.6890   18.4470    0.0650 C   0  0  0  0  0  0  0  0  0  0  0  0
    1.7240   17.3390   -0.1520 C   0  0  2  0  0  0  0  0  0  0  0  0
    2.9670   17.8460   -0.9100 C   0  0  0  0  0  0  0  0  0  0  0  0
    4.1610   18.1490   -0.0010 C   0  0  0  0  0  0  0  0  0  0  0  0
    3.7220   18.5840    1.3640 C   0  0  2  0  0  0  0  0  0  0  0  0
    3.9060   19.9800    1.6360 O   0  0  0  0  0  0  0  0  0  0  0  0
    4.6800   19.0710    2.4350 C   0  0  0  0  0  0  0  0  0  0  0  0
    6.1540   19.1470    2.1880 C   0  0  0  0  0  0  0  0  0  0  0  0
    4.2460   19.0080    3.8670 C   0  0  0  0  0  0  0  0  0  0  0  0
    1.0910   16.1770   -0.9090 C   0  0  1  0  0  0  0  0  0  0  0  0
    0.8710   16.4930   -2.4130 C   0  0  0  0  0  0  0  0  0  0  0  0
    1.1000   15.1680   -3.1860 C   0  0  0  0  0  0  0  0  0  0  0  0
    1.1150   14.0760   -2.0910 C   0  0  1  0  0  0  0  0  0  0  0  0
   -0.3900   13.7880   -1.7920 C   0  0  0  0  0  0  0  0  0  0  0  0
    1.8960   12.7650   -2.4330 C   0  0  2  0  0  0  0  0  0  0  0  0
    1.3440   11.9690   -3.6280 C   0  0  0  0  0  0  0  0  0  0  0  0
    0.3210   10.9360   -3.2880 C   0  0  0  0  0  0  0  0  0  0  0  0
    0.0690   10.4610   -2.0540 C   0  0  0  0  0  0  0  0  0  0  0  0
    0.9200   10.8960   -0.8540 C   0  0  1  0  0  0  0  0  0  0  0  0
    1.3160    9.6490   -0.0200 C   0  0  0  0  0  0  0  0  0  0  0  0
    0.1080    8.8140    0.3930 C   0  0  0  0  0  0  0  0  0  0  0  0
   -0.6800    8.3520   -0.8300 C   0  0  2  0  0  0  0  0  0  0  0  0
    0.1240    7.4320   -1.5750 O   0  0  0  0  0  0  0  0  0  0  0  0
   -1.1240    9.5220   -1.7510 C   0  0  0  0  0  0  0  0  0  0  0  0
   -2.2270   10.3500   -1.0450 C   0  0  0  0  0  0  0  0  0  0  0  0
   -1.7840    8.9100   -3.0160 C   0  0  0  0  0  0  0  0  0  0  0  0
    2.1650   11.8270   -1.1870 C   0  0  1  0  0  0  0  0  0  0  0  0
    3.4030   10.9510   -1.5490 C   0  0  0  0  0  0  0  0  0  0  0  0
    2.5570   12.6410    0.1020 C   0  0  0  0  0  0  0  0  0  0  0  0
    1.8360   13.9850    0.3210 C   0  0  0  0  0  0  0  0  0  0  0  0
    1.8750   14.8420   -0.9480 C   0  0  2  0  0  0  0  0  0  0  0  0
    3.3750   15.1660   -1.2610 C   0  0  0  0  0  0  0  0  0  0  0  0
    0.5415   18.6049    1.1436 H   0  0  0  0  0  0  0  0  0  0  0  0
    1.0474   19.3790   -0.3964 H   0  0  0  0  0  0  0  0  0  0  0  0
   -0.2653   18.1528   -0.3964 H   0  0  0  0  0  0  0  0  0  0  0  0
    2.0575   16.9993    0.8397 H   0  0  0  0  0  0  0  0  0  0  0  0
    3.2693   17.0763   -1.6354 H   0  0  0  0  0  0  0  0  0  0  0  0
    2.6841   18.7919   -1.3951 H   0  0  0  0  0  0  0  0  0  0  0  0
    4.7756   17.2417    0.0945 H   0  0  0  0  0  0  0  0  0  0  0  0
    4.7370   18.9695   -0.4536 H   0  0  0  0  0  0  0  0  0  0  0  0
    2.9261   17.8248    1.3757 H   0  0  0  0  0  0  0  0  0  0  0  0
    6.6861   19.1744    3.1503 H   0  0  0  0  0  0  0  0  0  0  0  0
    6.4759   18.2643    1.6160 H   0  0  0  0  0  0  0  0  0  0  0  0
    6.3834   20.0582    1.6160 H   0  0  0  0  0  0  0  0  0  0  0  0
    5.1211   19.1350    4.5213 H   0  0  0  0  0  0  0  0  0  0  0  0
    3.5200   19.8102    4.0658 H   0  0  0  0  0  0  0  0  0  0  0  0
    3.7781   18.0325    4.0658 H   0  0  0  0  0  0  0  0  0  0  0  0
    0.1694   16.0544   -0.3211 H   0  0  0  0  0  0  0  0  0  0  0  0
   -0.1543   16.8556   -2.5780 H   0  0  0  0  0  0  0  0  0  0  0  0
    1.5623   17.2762   -2.7576 H   0  0  0  0  0  0  0  0  0  0  0  0
    0.2837   14.9896   -3.9014 H   0  0  0  0  0  0  0  0  0  0  0  0
    2.0298   15.1828   -3.7735 H   0  0  0  0  0  0  0  0  0  0  0  0
   -0.5484   13.7577   -0.7039 H   0  0  0  0  0  0  0  0  0  0  0  0
   -1.0098   14.5838   -2.2307 H   0  0  0  0  0  0  0  0  0  0  0  0
   -0.6722   12.8196   -2.2307 H   0  0  0  0  0  0  0  0  0  0  0  0
    2.8733   13.1510   -2.7584 H   0  0  0  0  0  0  0  0  0  0  0  0
    0.8867   12.6823   -4.3295 H   0  0  0  0  0  0  0  0  0  0  0  0
    2.1997   11.4223   -4.0510 H   0  0  0  0  0  0  0  0  0  0  0  0
   -0.2775   10.5286   -4.1161 H   0  0  0  0  0  0  0  0  0  0  0  0
    0.2804   11.5595   -0.2534 H   0  0  0  0  0  0  0  0  0  0  0  0
    1.9893    9.0213   -0.6222 H   0  0  0  0  0  0  0  0  0  0  0  0
    1.8067   10.0035    0.8984 H   0  0  0  0  0  0  0  0  0  0  0  0
    0.4541    7.9323    0.9523 H   0  0  0  0  0  0  0  0  0  0  0  0
   -0.5493    9.4340    1.0204 H   0  0  0  0  0  0  0  0  0  0  0  0
   -1.6010    7.8722   -0.4672 H   0  0  0  0  0  0  0  0  0  0  0  0
    0.2550    6.6420   -1.0230 H   0  0  0  0  0  0  0  0  0  0  0  0
   -2.1101   10.2622    0.0452 H   0  0  0  0  0  0  0  0  0  0  0  0
   -2.1378   11.4061   -1.3395 H   0  0  0  0  0  0  0  0  0  0  0  0
   -3.2162    9.9695   -1.3395 H   0  0  0  0  0  0  0  0  0  0  0  0
   -2.5595    8.1909   -2.7135 H   0  0  0  0  0  0  0  0  0  0  0  0
   -2.2407    9.7113   -3.6154 H   0  0  0  0  0  0  0  0  0  0  0  0
   -1.0194    8.3942   -3.6154 H   0  0  0  0  0  0  0  0  0  0  0  0
    3.8907   10.6059   -0.6254 H   0  0  0  0  0  0  0  0  0  0  0  0
    3.0771   10.0814   -2.1385 H   0  0  0  0  0  0  0  0  0  0  0  0
    4.1146   11.5477   -2.1385 H   0  0  0  0  0  0  0  0  0  0  0  0
    2.3467   12.0046    0.9742 H   0  0  0  0  0  0  0  0  0  0  0  0
    3.6170   12.9018   -0.0336 H   0  0  0  0  0  0  0  0  0  0  0  0
    0.7877   13.7909    0.5919 H   0  0  0  0  0  0  0  0  0  0  0  0
    2.3480   14.5300    1.1278 H   0  0  0  0  0  0  0  0  0  0  0  0
    3.9288   15.2856   -0.3181 H   0  0  0  0  0  0  0  0  0  0  0  0
    3.8145   14.3421   -1.8424 H   0  0  0  0  0  0  0  0  0  0  0  0
    3.4353   16.0979   -1.8424 H   0  0  0  0  0  0  0  0  0  0  0  0
  1  2  1  0
  2  3  1  0
  3  4  1  0
  4  5  1  0
  5  6  1  0
  6  7  1  0
  7  8  1  0
  7  9  1  0
  2 10  1  0
 10 11  1  0
 11 12  1  0
 12 13  1  0
 13 14  1  1
 13 15  1  0
 15 16  1  0
 16 17  1  0
 17 18  2  0
 18 19  1  0
 19 20  1  0
 20 21  1  0
 21 22  1  0
 22 23  1  0
 22 24  1  0
 24 25  1  0
 24 26  1  0
 19 27  1  0
 27 28  1  6
 27 29  1  0
 29 30  1  0
 30 31  1  0
 31 32  1  6
  7  5  1  0
 31 10  1  0
 31 13  1  0
 27 15  1  0
 24 18  1  0
  1 33  1  0
  1 34  1  0
  1 35  1  0
  2 36  1  1
  3 37  1  0
  3 38  1  0
  4 39  1  0
  4 40  1  0
  5 41  1  1
  8 42  1  0
  8 43  1  0
  8 44  1  0
  9 45  1  0
  9 46  1  0
  9 47  1  0
 10 48  1  1
 11 49  1  0
 11 50  1  0
 12 51  1  0
 12 52  1  0
 14 53  1  0
 14 54  1  0
 14 55  1  0
 15 56  1  6
 16 57  1  0
 16 58  1  0
 17 59  1  0
 19 60  1  1
 20 61  1  0
 20 62  1  0
 21 63  1  0
 21 64  1  0
 22 65  1  1
 23 66  1  0
 25 67  1  0
 25 68  1  0
 25 69  1  0
 26 70  1  0
 26 71  1  0
 26 72  1  0
 28 73  1  0
 28 74  1  0
 28 75  1  0
 29 76  1  0
 29 77  1  0
 30 78  1  0
 30 79  1  0
 32 80  1  0
 32 81  1  0
 32 82  1  0
M  END
>  <meeko>  (2) 
{"is_sidechain": [false], "intermolecular_energy": 2.731, "internal_energy": -0.839}

$$$$
EPH_relaxed_0001_pdb2pqr_Repair_65_r2_0001_out
     RDKit          3D

 82 86  0  0  0  0  0  0  0  0999 V2000
    2.2940   19.4900   -0.8590 C   0  0  0  0  0  0  0  0  0  0  0  0
    2.4290   18.4160    0.2240 C   0  0  2  0  0  0  0  0  0  0  0  0
    3.8690   17.8770    0.3320 C   0  0  0  0  0  0  0  0  0  0  0  0
    4.7740   18.7160    1.2390 C   0  0  0  0  0  0  0  0  0  0  0  0
    4.2060   18.8450    2.6200 C   0  0  2  0  0  0  0  0  0  0  0  0
    4.0110   20.1940    3.0630 O   0  0  0  0  0  0  0  0  0  0  0  0
    4.9790   19.4220    3.7920 C   0  0  0  0  0  0  0  0  0  0  0  0
    6.3860   19.9060    3.6360 C   0  0  0  0  0  0  0  0  0  0  0  0
    4.5450   19.0660    5.1800 C   0  0  0  0  0  0  0  0  0  0  0  0
    1.4640   17.2700   -0.0570 C   0  0  1  0  0  0  0  0  0  0  0  0
    0.1830   17.7360   -0.8000 C   0  0  0  0  0  0  0  0  0  0  0  0
   -0.2220   16.5860   -1.7570 C   0  0  0  0  0  0  0  0  0  0  0  0
    0.6300   15.3790   -1.3010 C   0  0  1  0  0  0  0  0  0  0  0  0
   -0.1310   14.7930   -0.0710 C   0  0  0  0  0  0  0  0  0  0  0  0
    0.9130   14.2850   -2.3810 C   0  0  2  0  0  0  0  0  0  0  0  0
   -0.3350   13.5670   -2.9240 C   0  0  0  0  0  0  0  0  0  0  0  0
   -0.7340   12.3340   -2.1830 C   0  0  0  0  0  0  0  0  0  0  0  0
    0.0370   11.6630   -1.3070 C   0  0  0  0  0  0  0  0  0  0  0  0
    1.4920   12.0810   -1.0580 C   0  0  1  0  0  0  0  0  0  0  0  0
    2.4030   10.8260   -1.0830 C   0  0  0  0  0  0  0  0  0  0  0  0
    1.9330    9.7430   -0.1160 C   0  0  0  0  0  0  0  0  0  0  0  0
    0.5030    9.3130   -0.4320 C   0  0  2  0  0  0  0  0  0  0  0  0
    0.4890    8.6560   -1.7030 O   0  0  0  0  0  0  0  0  0  0  0  0
   -0.5050   10.4960   -0.4450 C   0  0  0  0  0  0  0  0  0  0  0  0
   -0.7160   11.0160    0.9990 C   0  0  0  0  0  0  0  0  0  0  0  0
   -1.8790    9.9480   -0.9150 C   0  0  0  0  0  0  0  0  0  0  0  0
    2.0440   13.2540   -1.9780 C   0  0  1  0  0  0  0  0  0  0  0  0
    2.6050   12.6660   -3.3090 C   0  0  0  0  0  0  0  0  0  0  0  0
    3.2560   13.9490   -1.2530 C   0  0  0  0  0  0  0  0  0  0  0  0
    2.9210   15.1020   -0.2890 C   0  0  0  0  0  0  0  0  0  0  0  0
    1.9760   16.1110   -0.9490 C   0  0  2  0  0  0  0  0  0  0  0  0
    2.7240   16.7350   -2.1770 C   0  0  0  0  0  0  0  0  0  0  0  0
    2.1702   20.4750   -0.3852 H   0  0  0  0  0  0  0  0  0  0  0  0
    3.1985   19.4953   -1.4849 H   0  0  0  0  0  0  0  0  0  0  0  0
    1.4163   19.2713   -1.4849 H   0  0  0  0  0  0  0  0  0  0  0  0
    2.1793   18.8851    1.1871 H   0  0  0  0  0  0  0  0  0  0  0  0
    3.8276   16.8537    0.7335 H   0  0  0  0  0  0  0  0  0  0  0  0
    4.3028   17.9143   -0.6782 H   0  0  0  0  0  0  0  0  0  0  0  0
    5.7607   18.2340    1.3027 H   0  0  0  0  0  0  0  0  0  0  0  0
    4.8556   19.7237    0.8056 H   0  0  0  0  0  0  0  0  0  0  0  0
    3.6374   17.9111    2.4992 H   0  0  0  0  0  0  0  0  0  0  0  0
    6.8331   20.0598    4.6292 H   0  0  0  0  0  0  0  0  0  0  0  0
    6.9719   19.1577    3.0820 H   0  0  0  0  0  0  0  0  0  0  0  0
    6.3876   20.8563    3.0820 H   0  0  0  0  0  0  0  0  0  0  0  0
    5.1821   19.5886    5.9087 H   0  0  0  0  0  0  0  0  0  0  0  0
    3.4974   19.3683    5.3255 H   0  0  0  0  0  0  0  0  0  0  0  0
    4.6366   17.9795    5.3255 H   0  0  0  0  0  0  0  0  0  0  0  0
    1.3007   16.9111    0.9699 H   0  0  0  0  0  0  0  0  0  0  0  0
   -0.6241   17.9302   -0.0783 H   0  0  0  0  0  0  0  0  0  0  0  0
    0.3657   18.6671   -1.3564 H   0  0  0  0  0  0  0  0  0  0  0  0
   -1.2947   16.3618   -1.6622 H   0  0  0  0  0  0  0  0  0  0  0  0
   -0.0498   16.8424   -2.8128 H   0  0  0  0  0  0  0  0  0  0  0  0
    0.3378   15.1540    0.8563 H   0  0  0  0  0  0  0  0  0  0  0  0
   -1.1816   15.1176   -0.1011 H   0  0  0  0  0  0  0  0  0  0  0  0
   -0.0857   13.6943   -0.1011 H   0  0  0  0  0  0  0  0  0  0  0  0
    1.3059   14.8773   -3.2205 H   0  0  0  0  0  0  0  0  0  0  0  0
   -1.1771   14.2737   -2.8863 H   0  0  0  0  0  0  0  0  0  0  0  0
   -0.0792   13.2405   -3.9428 H   0  0  0  0  0  0  0  0  0  0  0  0
   -1.7442   11.9402   -2.3687 H   0  0  0  0  0  0  0  0  0  0  0  0
    1.5102   12.5356   -0.0565 H   0  0  0  0  0  0  0  0  0  0  0  0
    2.4053   10.4120   -2.1021 H   0  0  0  0  0  0  0  0  0  0  0  0
    3.4105   11.1382   -0.7709 H   0  0  0  0  0  0  0  0  0  0  0  0
    2.5982    8.8711   -0.2010 H   0  0  0  0  0  0  0  0  0  0  0  0
    1.9599   10.1490    0.9060 H   0  0  0  0  0  0  0  0  0  0  0  0
    0.1789    8.6339    0.3704 H   0  0  0  0  0  0  0  0  0  0  0  0
    0.9750    7.8190   -1.6070 H   0  0  0  0  0  0  0  0  0  0  0  0
   -0.4025   10.2433    1.7164 H   0  0  0  0  0  0  0  0  0  0  0  0
   -0.1154   11.9246    1.1529 H   0  0  0  0  0  0  0  0  0  0  0  0
   -1.7799   11.2492    1.1529 H   0  0  0  0  0  0  0  0  0  0  0  0
   -2.4953    9.7022   -0.0376 H   0  0  0  0  0  0  0  0  0  0  0  0
   -2.3905   10.7110   -1.5202 H   0  0  0  0  0  0  0  0  0  0  0  0
   -1.7250    9.0425   -1.5202 H   0  0  0  0  0  0  0  0  0  0  0  0
    3.3479   11.8873   -3.0815 H   0  0  0  0  0  0  0  0  0  0  0  0
    1.7816   12.2280   -3.8922 H   0  0  0  0  0  0  0  0  0  0  0  0
    3.0812   13.4679   -3.8922 H   0  0  0  0  0  0  0  0  0  0  0  0
    3.7859   13.1766   -0.6763 H   0  0  0  0  0  0  0  0  0  0  0  0
    3.8466   14.4101   -2.0583 H   0  0  0  0  0  0  0  0  0  0  0  0
    2.4379   14.6909    0.6097 H   0  0  0  0  0  0  0  0  0  0  0  0
    3.8547   15.6185   -0.0218 H   0  0  0  0  0  0  0  0  0  0  0  0
    3.5229   17.4014   -1.8197 H   0  0  0  0  0  0  0  0  0  0  0  0
    3.1624   15.9311   -2.7865 H   0  0  0  0  0  0  0  0  0  0  0  0
    2.0117   17.3104   -2.7865 H   0  0  0  0  0  0  0  0  0  0  0  0
  1  2  1  0
  2  3  1  0
  3  4  1  0
  4  5  1  0
  5  6  1  0
  6  7  1  0
  7  8  1  0
  7  9  1  0
  2 10  1  0
 10 11  1  0
 11 12  1  0
 12 13  1  0
 13 14  1  1
 13 15  1  0
 15 16  1  0
 16 17  1  0
 17 18  2  0
 18 19  1  0
 19 20  1  0
 20 21  1  0
 21 22  1  0
 22 23  1  0
 22 24  1  0
 24 25  1  0
 24 26  1  0
 19 27  1  0
 27 28  1  6
 27 29  1  0
 29 30  1  0
 30 31  1  0
 31 32  1  6
  7  5  1  0
 31 10  1  0
 31 13  1  0
 27 15  1  0
 24 18  1  0
  1 33  1  0
  1 34  1  0
  1 35  1  0
  2 36  1  1
  3 37  1  0
  3 38  1  0
  4 39  1  0
  4 40  1  0
  5 41  1  1
  8 42  1  0
  8 43  1  0
  8 44  1  0
  9 45  1  0
  9 46  1  0
  9 47  1  0
 10 48  1  1
 11 49  1  0
 11 50  1  0
 12 51  1  0
 12 52  1  0
 14 53  1  0
 14 54  1  0
 14 55  1  0
 15 56  1  6
 16 57  1  0
 16 58  1  0
 17 59  1  0
 19 60  1  1
 20 61  1  0
 20 62  1  0
 21 63  1  0
 21 64  1  0
 22 65  1  1
 23 66  1  0
 25 67  1  0
 25 68  1  0
 25 69  1  0
 26 70  1  0
 26 71  1  0
 26 72  1  0
 28 73  1  0
 28 74  1  0
 28 75  1  0
 29 76  1  0
 29 77  1  0
 30 78  1  0
 30 79  1  0
 32 80  1  0
 32 81  1  0
 32 82  1  0
M  END
>  <meeko>  (3) 
{"is_sidechain": [false], "intermolecular_energy": 2.731, "internal_energy": -0.839}

$$$$
EPH_relaxed_0001_pdb2pqr_Repair_65_r2_0001_out
     RDKit          3D

 82 86  0  0  0  0  0  0  0  0999 V2000
    1.9900   18.2240   -2.6460 C   0  0  0  0  0  0  0  0  0  0  0  0
    0.4690   18.0530   -2.6370 C   0  0  2  0  0  0  0  0  0  0  0  0
   -0.1600   18.5220   -1.3100 C   0  0  0  0  0  0  0  0  0  0  0  0
    0.6100   18.0640   -0.0680 C   0  0  0  0  0  0  0  0  0  0  0  0
    1.2320   19.2200    0.6560 C   0  0  2  0  0  0  0  0  0  0  0  0
    2.1600   19.9850   -0.1240 O   0  0  0  0  0  0  0  0  0  0  0  0
    2.7060   19.2900    1.0080 C   0  0  0  0  0  0  0  0  0  0  0  0
    3.6480   18.1850    0.6480 C   0  0  0  0  0  0  0  0  0  0  0  0
    3.1330   20.1940    2.1220 C   0  0  0  0  0  0  0  0  0  0  0  0
    0.1080   16.5950   -2.8970 C   0  0  1  0  0  0  0  0  0  0  0  0
   -0.0540   16.2800   -4.4080 C   0  0  0  0  0  0  0  0  0  0  0  0
    0.4620   14.8330   -4.6220 C   0  0  0  0  0  0  0  0  0  0  0  0
    0.5910   14.2510   -3.1950 C   0  0  1  0  0  0  0  0  0  0  0  0
   -0.8560   13.8120   -2.8090 C   0  0  0  0  0  0  0  0  0  0  0  0
    1.6150   13.0830   -3.0150 C   0  0  2  0  0  0  0  0  0  0  0  0
    1.3010   11.8100   -3.8190 C   0  0  0  0  0  0  0  0  0  0  0  0
    0.4560   10.8020   -3.1120 C   0  0  0  0  0  0  0  0  0  0  0  0
    0.2050   10.7810   -1.7900 C   0  0  0  0  0  0  0  0  0  0  0  0
    0.8760   11.7860   -0.8450 C   0  0  1  0  0  0  0  0  0  0  0  0
    1.4250   11.0390    0.3990 C   0  0  0  0  0  0  0  0  0  0  0  0
    0.3580   10.2030    1.0980 C   0  0  0  0  0  0  0  0  0  0  0  0
   -0.2450    9.1770    0.1420 C   0  0  2  0  0  0  0  0  0  0  0  0
    0.7610    8.2180   -0.1990 O   0  0  0  0  0  0  0  0  0  0  0  0
   -0.8220    9.8120   -1.1540 C   0  0  0  0  0  0  0  0  0  0  0  0
   -2.1020   10.6150   -0.8140 C   0  0  0  0  0  0  0  0  0  0  0  0
   -1.2690    8.6590   -2.0930 C   0  0  0  0  0  0  0  0  0  0  0  0
    1.9550   12.7460   -1.5070 C   0  0  1  0  0  0  0  0  0  0  0  0
    3.3530   12.0540   -1.5090 C   0  0  0  0  0  0  0  0  0  0  0  0
    2.1030   14.0400   -0.6230 C   0  0  0  0  0  0  0  0  0  0  0  0
    1.1410   15.2040   -0.9280 C   0  0  0  0  0  0  0  0  0  0  0  0
    1.1180   15.5170   -2.4270 C   0  0  2  0  0  0  0  0  0  0  0  0
    2.5560   15.9830   -2.8400 C   0  0  0  0  0  0  0  0  0  0  0  0
    2.3604   18.2656   -1.6111 H   0  0  0  0  0  0  0  0  0  0  0  0
    2.4517   17.3721   -3.1667 H   0  0  0  0  0  0  0  0  0  0  0  0
    2.2510   19.1571   -3.1667 H   0  0  0  0  0  0  0  0  0  0  0  0
    0.0604   18.6860   -3.4385 H   0  0  0  0  0  0  0  0  0  0  0  0
   -0.1944   19.6215   -1.3114 H   0  0  0  0  0  0  0  0  0  0  0  0
   -1.1615   18.0708   -1.2518 H   0  0  0  0  0  0  0  0  0  0  0  0
   -0.0844   17.5492    0.6123 H   0  0  0  0  0  0  0  0  0  0  0  0
    1.4157   17.3894   -0.3933 H   0  0  0  0  0  0  0  0  0  0  0  0
    0.3220   19.3646    1.2569 H   0  0  0  0  0  0  0  0  0  0  0  0
    4.0408   17.7242    1.5664 H   0  0  0  0  0  0  0  0  0  0  0  0
    3.1144   17.4265    0.0565 H   0  0  0  0  0  0  0  0  0  0  0  0
    4.4814   18.5918    0.0565 H   0  0  0  0  0  0  0  0  0  0  0  0
    2.9079   19.7175    3.0876 H   0  0  0  0  0  0  0  0  0  0  0  0
    4.2145   20.3808    2.0485 H   0  0  0  0  0  0  0  0  0  0  0  0
    2.5903   21.1480    2.0485 H   0  0  0  0  0  0  0  0  0  0  0  0
   -0.8177   16.5264   -2.3068 H   0  0  0  0  0  0  0  0  0  0  0  0
   -1.1126   16.3514   -4.6983 H   0  0  0  0  0  0  0  0  0  0  0  0
    0.5112   16.9956   -5.0232 H   0  0  0  0  0  0  0  0  0  0  0  0
   -0.2556   14.2486   -5.2165 H   0  0  0  0  0  0  0  0  0  0  0  0
    1.4145   14.8063   -5.1716 H   0  0  0  0  0  0  0  0  0  0  0  0
   -0.9505   13.7833   -1.7134 H   0  0  0  0  0  0  0  0  0  0  0  0
   -1.5795   14.5311   -3.2207 H   0  0  0  0  0  0  0  0  0  0  0  0
   -1.0580   12.8122   -3.2207 H   0  0  0  0  0  0  0  0  0  0  0  0
    2.5293   13.4999   -3.4625 H   0  0  0  0  0  0  0  0  0  0  0  0
    0.7759   12.1092   -4.7381 H   0  0  0  0  0  0  0  0  0  0  0  0
    2.2684   11.3203   -4.0042 H   0  0  0  0  0  0  0  0  0  0  0  0
    0.0001   10.0095   -3.7236 H   0  0  0  0  0  0  0  0  0  0  0  0
    0.0881   12.4902   -0.5396 H   0  0  0  0  0  0  0  0  0  0  0  0
    2.2406   10.3737    0.0792 H   0  0  0  0  0  0  0  0  0  0  0  0
    1.7771   11.7966    1.1146 H   0  0  0  0  0  0  0  0  0  0  0  0
    0.8138    9.6769    1.9498 H   0  0  0  0  0  0  0  0  0  0  0  0
   -0.4426   10.8736    1.4435 H   0  0  0  0  0  0  0  0  0  0  0  0
   -1.0898    8.6998    0.6603 H   0  0  0  0  0  0  0  0  0  0  0  0
    1.5220    8.3680    0.3880 H   0  0  0  0  0  0  0  0  0  0  0  0
   -2.2122   10.6841    0.2783 H   0  0  0  0  0  0  0  0  0  0  0  0
   -2.0242   11.6264   -1.2394 H   0  0  0  0  0  0  0  0  0  0  0  0
   -2.9788   10.1048   -1.2394 H   0  0  0  0  0  0  0  0  0  0  0  0
   -1.6013    7.8020   -1.4888 H   0  0  0  0  0  0  0  0  0  0  0  0
   -2.0986    9.0038   -2.7277 H   0  0  0  0  0  0  0  0  0  0  0  0
   -0.4238    8.3545   -2.7277 H   0  0  0  0  0  0  0  0  0  0  0  0
    3.6828   11.8908   -0.4724 H   0  0  0  0  0  0  0  0  0  0  0  0
    3.2826   11.0867   -2.0280 H   0  0  0  0  0  0  0  0  0  0  0  0
    4.0795   12.6966   -2.0280 H   0  0  0  0  0  0  0  0  0  0  0  0
    1.9477   13.7461    0.4256 H   0  0  0  0  0  0  0  0  0  0  0  0
    3.1066   14.4295   -0.8491 H   0  0  0  0  0  0  0  0  0  0  0  0
    0.1272   14.9279   -0.6024 H   0  0  0  0  0  0  0  0  0  0  0  0
    1.4886   16.0972   -0.3882 H   0  0  0  0  0  0  0  0  0  0  0  0
    3.1525   16.1763   -1.9362 H   0  0  0  0  0  0  0  0  0  0  0  0
    3.0393   15.1955   -3.4368 H   0  0  0  0  0  0  0  0  0  0  0  0
    2.4856   16.9043   -3.4368 H   0  0  0  0  0  0  0  0  0  0  0  0
  1  2  1  0
  2  3  1  0
  3  4  1  0
  4  5  1  0
  5  6  1  0
  6  7  1  0
  7  8  1  0
  7  9  1  0
  2 10  1  0
 10 11  1  0
 11 12  1  0
 12 13  1  0
 13 14  1  1
 13 15  1  0
 15 16  1  0
 16 17  1  0
 17 18  2  0
 18 19  1  0
 19 20  1  0
 20 21  1  0
 21 22  1  0
 22 23  1  0
 22 24  1  0
 24 25  1  0
 24 26  1  0
 19 27  1  0
 27 28  1  6
 27 29  1  0
 29 30  1  0
 30 31  1  0
 31 32  1  6
  7  5  1  0
 31 10  1  0
 31 13  1  0
 27 15  1  0
 24 18  1  0
  1 33  1  0
  1 34  1  0
  1 35  1  0
  2 36  1  6
  3 37  1  0
  3 38  1  0
  4 39  1  0
  4 40  1  0
  5 41  1  1
  8 42  1  0
  8 43  1  0
  8 44  1  0
  9 45  1  0
  9 46  1  0
  9 47  1  0
 10 48  1  1
 11 49  1  0
 11 50  1  0
 12 51  1  0
 12 52  1  0
 14 53  1  0
 14 54  1  0
 14 55  1  0
 15 56  1  6
 16 57  1  0
 16 58  1  0
 17 59  1  0
 19 60  1  1
 20 61  1  0
 20 62  1  0
 21 63  1  0
 21 64  1  0
 22 65  1  1
 23 66  1  0
 25 67  1  0
 25 68  1  0
 25 69  1  0
 26 70  1  0
 26 71  1  0
 26 72  1  0
 28 73  1  0
 28 74  1  0
 28 75  1  0
 29 76  1  0
 29 77  1  0
 30 78  1  0
 30 79  1  0
 32 80  1  0
 32 81  1  0
 32 82  1  0
M  END
>  <meeko>  (4) 
{"is_sidechain": [false], "intermolecular_energy": 2.731, "internal_energy": -0.839}

$$$$
EPH_relaxed_0001_pdb2pqr_Repair_65_r2_0001_out
     RDKit          3D

 82 86  0  0  0  0  0  0  0  0999 V2000
    1.8090   18.6080   -2.9330 C   0  0  0  0  0  0  0  0  0  0  0  0
    0.9410   17.9810   -1.8380 C   0  0  2  0  0  0  0  0  0  0  0  0
    1.6800   17.8990   -0.4870 C   0  0  0  0  0  0  0  0  0  0  0  0
    1.0210   18.7180    0.6260 C   0  0  0  0  0  0  0  0  0  0  0  0
   -0.0310   19.6400    0.0870 C   0  0  2  0  0  0  0  0  0  0  0  0
   -0.9060   20.1940    1.0780 O   0  0  0  0  0  0  0  0  0  0  0  0
   -1.5140   19.3230    0.1120 C   0  0  0  0  0  0  0  0  0  0  0  0
   -2.0290   18.0400    0.6880 C   0  0  0  0  0  0  0  0  0  0  0  0
   -2.4130   20.0280   -0.8550 C   0  0  0  0  0  0  0  0  0  0  0  0
    0.4850   16.5920   -2.2680 C   0  0  1  0  0  0  0  0  0  0  0  0
    0.3250   16.4650   -3.8070 C   0  0  0  0  0  0  0  0  0  0  0  0
    0.7440   15.0210   -4.1820 C   0  0  0  0  0  0  0  0  0  0  0  0
    0.8100   14.2700   -2.8320 C   0  0  1  0  0  0  0  0  0  0  0  0
   -0.6700   13.8920   -2.5100 C   0  0  0  0  0  0  0  0  0  0  0  0
    1.7490   13.0210   -2.7810 C   0  0  2  0  0  0  0  0  0  0  0  0
    1.3600   11.8730   -3.7290 C   0  0  0  0  0  0  0  0  0  0  0  0
    0.4360   10.8530   -3.1510 C   0  0  0  0  0  0  0  0  0  0  0  0
    0.1640   10.6970   -1.8420 C   0  0  0  0  0  0  0  0  0  0  0  0
    0.8870   11.5370   -0.7810 C   0  0  1  0  0  0  0  0  0  0  0  0
    1.3650   10.6150    0.3720 C   0  0  0  0  0  0  0  0  0  0  0  0
    0.2310    9.7810    0.9610 C   0  0  0  0  0  0  0  0  0  0  0  0
   -0.4250    8.9170   -0.1120 C   0  0  2  0  0  0  0  0  0  0  0  0
    0.5180    7.9360   -0.5540 O   0  0  0  0  0  0  0  0  0  0  0  0
   -0.9370    9.7360   -1.3300 C   0  0  0  0  0  0  0  0  0  0  0  0
   -2.1640   10.5820   -0.9090 C   0  0  0  0  0  0  0  0  0  0  0  0
   -1.4480    8.7330   -2.3990 C   0  0  0  0  0  0  0  0  0  0  0  0
    2.0410   12.4890   -1.3190 C   0  0  1  0  0  0  0  0  0  0  0  0
    3.3870   11.7050   -1.3920 C   0  0  0  0  0  0  0  0  0  0  0  0
    2.2630   13.6590   -0.2900 C   0  0  0  0  0  0  0  0  0  0  0  0
    1.3880   14.9150   -0.4660 C   0  0  0  0  0  0  0  0  0  0  0  0
    1.4110   15.4000   -1.9190 C   0  0  2  0  0  0  0  0  0  0  0  0
    2.8830   15.8080   -2.2640 C   0  0  0  0  0  0  0  0  0  0  0  0
    2.6179   19.1923   -2.4701 H   0  0  0  0  0  0  0  0  0  0  0  0
    2.2422   17.8130   -3.5577 H   0  0  0  0  0  0  0  0  0  0  0  0
    1.1904   19.2691   -3.5577 H   0  0  0  0  0  0  0  0  0  0  0  0
    0.0657   18.6319   -1.6961 H   0  0  0  0  0  0  0  0  0  0  0  0
    1.7107   16.8457   -0.1714 H   0  0  0  0  0  0  0  0  0  0  0  0
    2.6842   18.3197   -0.6440 H   0  0  0  0  0  0  0  0  0  0  0  0
    0.5563   18.0300    1.3476 H   0  0  0  0  0  0  0  0  0  0  0  0
    1.7982   19.3290    1.1084 H   0  0  0  0  0  0  0  0  0  0  0  0
    0.6392   19.9708   -0.7200 H   0  0  0  0  0  0  0  0  0  0  0  0
   -2.0065   18.0960    1.7863 H   0  0  0  0  0  0  0  0  0  0  0  0
   -3.0629   17.8754    0.3504 H   0  0  0  0  0  0  0  0  0  0  0  0
   -1.3959   17.2062    0.3504 H   0  0  0  0  0  0  0  0  0  0  0  0
   -3.1605   20.6142   -0.3003 H   0  0  0  0  0  0  0  0  0  0  0  0
   -1.8154   20.7007   -1.4877 H   0  0  0  0  0  0  0  0  0  0  0  0
   -2.9238   19.2872   -1.4877 H   0  0  0  0  0  0  0  0  0  0  0  0
   -0.4523   16.5208   -1.6967 H   0  0  0  0  0  0  0  0  0  0  0  0
   -0.7216   16.6427   -4.0950 H   0  0  0  0  0  0  0  0  0  0  0  0
    0.9468   17.2056   -4.3313 H   0  0  0  0  0  0  0  0  0  0  0  0
   -0.0021   14.5605   -4.8463 H   0  0  0  0  0  0  0  0  0  0  0  0
    1.7017   14.9919   -4.7224 H   0  0  0  0  0  0  0  0  0  0  0  0
   -0.8104   13.8562   -1.4196 H   0  0  0  0  0  0  0  0  0  0  0  0
   -1.3435   14.6470   -2.9418 H   0  0  0  0  0  0  0  0  0  0  0  0
   -0.8990   12.9065   -2.9418 H   0  0  0  0  0  0  0  0  0  0  0  0
    2.6964   13.4221   -3.1703 H   0  0  0  0  0  0  0  0  0  0  0  0
    0.8721   12.3119   -4.6118 H   0  0  0  0  0  0  0  0  0  0  0  0
    2.2941   11.3403   -3.9606 H   0  0  0  0  0  0  0  0  0  0  0  0
   -0.0649   10.1713   -3.8541 H   0  0  0  0  0  0  0  0  0  0  0  0
    0.1438   12.2540   -0.4021 H   0  0  0  0  0  0  0  0  0  0  0  0
    2.1376    9.9354   -0.0169 H   0  0  0  0  0  0  0  0  0  0  0  0
    1.7583   11.2580    1.1732 H   0  0  0  0  0  0  0  0  0  0  0  0
    0.6353    9.1298    1.7500 H   0  0  0  0  0  0  0  0  0  0  0  0
   -0.5270   10.4621    1.3752 H   0  0  0  0  0  0  0  0  0  0  0  0
   -1.3085    8.4431    0.3407 H   0  0  0  0  0  0  0  0  0  0  0  0
    0.3940    7.1420   -0.0080 H   0  0  0  0  0  0  0  0  0  0  0  0
   -2.2224   10.6223    0.1887 H   0  0  0  0  0  0  0  0  0  0  0  0
   -2.0607   11.6017   -1.3083 H   0  0  0  0  0  0  0  0  0  0  0  0
   -3.0804   10.1229   -1.3083 H   0  0  0  0  0  0  0  0  0  0  0  0
   -1.8929    7.8598   -1.8995 H   0  0  0  0  0  0  0  0  0  0  0  0
   -2.2069    9.2220   -3.0275 H   0  0  0  0  0  0  0  0  0  0  0  0
   -0.6063    8.4065   -3.0275 H   0  0  0  0  0  0  0  0  0  0  0  0
    3.7454   11.4962   -0.3732 H   0  0  0  0  0  0  0  0  0  0  0  0
    3.2305   10.7568   -1.9271 H   0  0  0  0  0  0  0  0  0  0  0  0
    4.1346   12.3090   -1.9271 H   0  0  0  0  0  0  0  0  0  0  0  0
    2.0709   13.2581    0.7162 H   0  0  0  0  0  0  0  0  0  0  0  0
    3.2945   14.0007   -0.4612 H   0  0  0  0  0  0  0  0  0  0  0  0
    0.3525   14.6747   -0.1832 H   0  0  0  0  0  0  0  0  0  0  0  0
    1.7872   15.7135    0.1767 H   0  0  0  0  0  0  0  0  0  0  0  0
    3.4478   15.9646   -1.3332 H   0  0  0  0  0  0  0  0  0  0  0  0
    3.3575   15.0075   -2.8506 H   0  0  0  0  0  0  0  0  0  0  0  0
    2.8777   16.7385   -2.8506 H   0  0  0  0  0  0  0  0  0  0  0  0
  1  2  1  0
  2  3  1  0
  3  4  1  0
  4  5  1  0
  5  6  1  0
  6  7  1  0
  7  8  1  0
  7  9  1  0
  2 10  1  0
 10 11  1  0
 11 12  1  0
 12 13  1  0
 13 14  1  1
 13 15  1  0
 15 16  1  0
 16 17  1  0
 17 18  2  0
 18 19  1  0
 19 20  1  0
 20 21  1  0
 21 22  1  0
 22 23  1  0
 22 24  1  0
 24 25  1  0
 24 26  1  0
 19 27  1  0
 27 28  1  6
 27 29  1  0
 29 30  1  0
 30 31  1  0
 31 32  1  6
  7  5  1  0
 31 10  1  0
 31 13  1  0
 27 15  1  0
 24 18  1  0
  1 33  1  0
  1 34  1  0
  1 35  1  0
  2 36  1  1
  3 37  1  0
  3 38  1  0
  4 39  1  0
  4 40  1  0
  5 41  1  6
  8 42  1  0
  8 43  1  0
  8 44  1  0
  9 45  1  0
  9 46  1  0
  9 47  1  0
 10 48  1  1
 11 49  1  0
 11 50  1  0
 12 51  1  0
 12 52  1  0
 14 53  1  0
 14 54  1  0
 14 55  1  0
 15 56  1  6
 16 57  1  0
 16 58  1  0
 17 59  1  0
 19 60  1  1
 20 61  1  0
 20 62  1  0
 21 63  1  0
 21 64  1  0
 22 65  1  1
 23 66  1  0
 25 67  1  0
 25 68  1  0
 25 69  1  0
 26 70  1  0
 26 71  1  0
 26 72  1  0
 28 73  1  0
 28 74  1  0
 28 75  1  0
 29 76  1  0
 29 77  1  0
 30 78  1  0
 30 79  1  0
 32 80  1  0
 32 81  1  0
 32 82  1  0
M  END
>  <meeko>  (5) 
{"is_sidechain": [false], "intermolecular_energy": 2.731, "internal_energy": -0.839}

$$$$
EPH_relaxed_0001_pdb2pqr_Repair_65_r2_0001_out
     RDKit          3D

 82 86  0  0  0  0  0  0  0  0999 V2000
   -5.1560    5.8980   -1.8050 C   0  0  0  0  0  0  0  0  0  0  0  0
   -5.4640    7.3970   -1.8520 C   0  0  2  0  0  0  0  0  0  0  0  0
   -5.2320    8.0800   -0.4890 C   0  0  0  0  0  0  0  0  0  0  0  0
   -4.1830    9.1950   -0.5310 C   0  0  0  0  0  0  0  0  0  0  0  0
   -2.8450    8.6820   -0.9700 C   0  0  2  0  0  0  0  0  0  0  0  0
   -1.7890    8.8770   -0.0210 O   0  0  0  0  0  0  0  0  0  0  0  0
   -1.6600    9.5820   -1.2670 C   0  0  0  0  0  0  0  0  0  0  0  0
   -1.7580   11.0700   -1.1370 C   0  0  0  0  0  0  0  0  0  0  0  0
   -0.5670    9.0590   -2.1450 C   0  0  0  0  0  0  0  0  0  0  0  0
   -6.9020    7.6170   -2.3060 C   0  0  1  0  0  0  0  0  0  0  0  0
   -7.2160    6.9190   -3.6560 C   0  0  0  0  0  0  0  0  0  0  0  0
   -8.6880    6.4410   -3.5810 C   0  0  0  0  0  0  0  0  0  0  0  0
   -9.2700    7.1620   -2.3430 C   0  0  1  0  0  0  0  0  0  0  0  0
   -9.6290    8.5950   -2.8450 C   0  0  0  0  0  0  0  0  0  0  0  0
  -10.4890    6.4710   -1.6500 C   0  0  2  0  0  0  0  0  0  0  0  0
  -11.7480    6.3390   -2.5240 C   0  0  0  0  0  0  0  0  0  0  0  0
  -12.7060    7.4820   -2.4390 C   0  0  0  0  0  0  0  0  0  0  0  0
  -12.7070    8.4320   -1.4850 C   0  0  0  0  0  0  0  0  0  0  0  0
  -11.7340    8.3600   -0.3010 C   0  0  1  0  0  0  0  0  0  0  0  0
  -12.5030    8.6390    1.0180 C   0  0  0  0  0  0  0  0  0  0  0  0
  -13.2780    9.9520    0.9770 C   0  0  0  0  0  0  0  0  0  0  0  0
  -14.2750    9.9620   -0.1790 C   0  0  2  0  0  0  0  0  0  0  0  0
  -15.2870    8.9840    0.0780 O   0  0  0  0  0  0  0  0  0  0  0  0
  -13.6160    9.6830   -1.5580 C   0  0  0  0  0  0  0  0  0  0  0  0
  -12.7450   10.8940   -1.9740 C   0  0  0  0  0  0  0  0  0  0  0  0
  -14.7490    9.5800   -2.6160 C   0  0  0  0  0  0  0  0  0  0  0  0
  -10.8370    7.0510   -0.2190 C   0  0  1  0  0  0  0  0  0  0  0  0
  -11.6020    5.9270    0.5440 C   0  0  0  0  0  0  0  0  0  0  0  0
   -9.5470    7.3640    0.6290 C   0  0  0  0  0  0  0  0  0  0  0  0
   -8.3360    7.9340   -0.1340 C   0  0  0  0  0  0  0  0  0  0  0  0
   -8.0290    7.0970   -1.3790 C   0  0  2  0  0  0  0  0  0  0  0  0
   -7.6430    5.6550   -0.9040 C   0  0  0  0  0  0  0  0  0  0  0  0
   -5.0886    5.5702   -0.7571 H   0  0  0  0  0  0  0  0  0  0  0  0
   -5.9588    5.3426   -2.3120 H   0  0  0  0  0  0  0  0  0  0  0  0
   -4.1993    5.7042   -2.3120 H   0  0  0  0  0  0  0  0  0  0  0  0
   -4.7715    7.8553   -2.5733 H   0  0  0  0  0  0  0  0  0  0  0  0
   -6.1851    8.5122   -0.1502 H   0  0  0  0  0  0  0  0  0  0  0  0
   -4.8542    7.3082    0.1977 H   0  0  0  0  0  0  0  0  0  0  0  0
   -4.5159    9.9711   -1.2359 H   0  0  0  0  0  0  0  0  0  0  0  0
   -4.0767    9.6038    0.4847 H   0  0  0  0  0  0  0  0  0  0  0  0
   -3.3177    7.8716   -1.5443 H   0  0  0  0  0  0  0  0  0  0  0  0
   -1.7761   11.3446   -0.0720 H   0  0  0  0  0  0  0  0  0  0  0  0
   -0.8888   11.5385   -1.6217 H   0  0  0  0  0  0  0  0  0  0  0  0
   -2.6812   11.4204   -1.6217 H   0  0  0  0  0  0  0  0  0  0  0  0
    0.2497    8.6682   -1.5203 H   0  0  0  0  0  0  0  0  0  0  0  0
   -0.9613    8.2520   -2.7800 H   0  0  0  0  0  0  0  0  0  0  0  0
   -0.1860    9.8723   -2.7800 H   0  0  0  0  0  0  0  0  0  0  0  0
   -6.9183    8.7164   -2.3372 H   0  0  0  0  0  0  0  0  0  0  0  0
   -7.0900    7.6282   -4.4873 H   0  0  0  0  0  0  0  0  0  0  0  0
   -6.5348    6.0732   -3.8309 H   0  0  0  0  0  0  0  0  0  0  0  0
   -9.2361    6.7276   -4.4906 H   0  0  0  0  0  0  0  0  0  0  0  0
   -8.7676    5.3467   -3.5020 H   0  0  0  0  0  0  0  0  0  0  0  0
   -9.7945    9.2554   -1.9810 H   0  0  0  0  0  0  0  0  0  0  0  0
   -8.8016    8.9882   -3.4539 H   0  0  0  0  0  0  0  0  0  0  0  0
  -10.5440    8.5517   -3.4539 H   0  0  0  0  0  0  0  0  0  0  0  0
  -10.1221    5.4453   -1.4976 H   0  0  0  0  0  0  0  0  0  0  0  0
  -11.4261    6.2423   -3.5714 H   0  0  0  0  0  0  0  0  0  0  0  0
  -12.2896    5.4590   -2.1468 H   0  0  0  0  0  0  0  0  0  0  0  0
  -13.4755    7.5535   -3.2218 H   0  0  0  0  0  0  0  0  0  0  0  0
  -10.9871    9.1491   -0.4724 H   0  0  0  0  0  0  0  0  0  0  0  0
  -13.2120    7.8165    1.1935 H   0  0  0  0  0  0  0  0  0  0  0  0
  -11.7616    8.7142    1.8271 H   0  0  0  0  0  0  0  0  0  0  0  0
  -13.8236   10.0776    1.9239 H   0  0  0  0  0  0  0  0  0  0  0  0
  -12.5642   10.7763    0.8318 H   0  0  0  0  0  0  0  0  0  0  0  0
  -14.7049   10.9729   -0.2363 H   0  0  0  0  0  0  0  0  0  0  0  0
  -14.9390    8.1200   -0.1990 H   0  0  0  0  0  0  0  0  0  0  0  0
  -12.3761   11.4069   -1.0735 H   0  0  0  0  0  0  0  0  0  0  0  0
  -11.8910   10.5432   -2.5720 H   0  0  0  0  0  0  0  0  0  0  0  0
  -13.3492   11.5921   -2.5720 H   0  0  0  0  0  0  0  0  0  0  0  0
  -15.7198    9.4917   -2.1063 H   0  0  0  0  0  0  0  0  0  0  0  0
  -14.7460   10.4821   -3.2454 H   0  0  0  0  0  0  0  0  0  0  0  0
  -14.5834    8.6932   -3.2454 H   0  0  0  0  0  0  0  0  0  0  0  0
  -11.4963    6.0822    1.6279 H   0  0  0  0  0  0  0  0  0  0  0  0
  -12.6672    5.9582    0.2712 H   0  0  0  0  0  0  0  0  0  0  0  0
  -11.1822    4.9475    0.2712 H   0  0  0  0  0  0  0  0  0  0  0  0
   -9.8265    8.0940    1.4029 H   0  0  0  0  0  0  0  0  0  0  0  0
   -9.2121    6.3896    1.0142 H   0  0  0  0  0  0  0  0  0  0  0  0
   -8.5575    8.9669   -0.4405 H   0  0  0  0  0  0  0  0  0  0  0  0
   -7.4596    7.9090    0.5303 H   0  0  0  0  0  0  0  0  0  0  0  0
   -7.6340    5.6213    0.1954 H   0  0  0  0  0  0  0  0  0  0  0  0
   -8.3796    4.9333   -1.2870 H   0  0  0  0  0  0  0  0  0  0  0  0
   -6.6444    5.3978   -1.2870 H   0  0  0  0  0  0  0  0  0  0  0  0
  1  2  1  0
  2  3  1  0
  3  4  1  0
  4  5  1  0
  5  6  1  0
  6  7  1  0
  7  8  1  0
  7  9  1  0
  2 10  1  0
 10 11  1  0
 11 12  1  0
 12 13  1  0
 13 14  1  6
 13 15  1  0
 15 16  1  0
 16 17  1  0
 17 18  2  0
 18 19  1  0
 19 20  1  0
 20 21  1  0
 21 22  1  0
 22 23  1  0
 22 24  1  0
 24 25  1  0
 24 26  1  0
 19 27  1  0
 27 28  1  1
 27 29  1  0
 29 30  1  0
 30 31  1  0
 31 32  1  1
  7  5  1  0
 31 10  1  0
 31 13  1  0
 27 15  1  0
 24 18  1  0
  1 33  1  0
  1 34  1  0
  1 35  1  0
  2 36  1  6
  3 37  1  0
  3 38  1  0
  4 39  1  0
  4 40  1  0
  5 41  1  6
  8 42  1  0
  8 43  1  0
  8 44  1  0
  9 45  1  0
  9 46  1  0
  9 47  1  0
 10 48  1  6
 11 49  1  0
 11 50  1  0
 12 51  1  0
 12 52  1  0
 14 53  1  0
 14 54  1  0
 14 55  1  0
 15 56  1  1
 16 57  1  0
 16 58  1  0
 17 59  1  0
 19 60  1  6
 20 61  1  0
 20 62  1  0
 21 63  1  0
 21 64  1  0
 22 65  1  6
 23 66  1  0
 25 67  1  0
 25 68  1  0
 25 69  1  0
 26 70  1  0
 26 71  1  0
 26 72  1  0
 28 73  1  0
 28 74  1  0
 28 75  1  0
 29 76  1  0
 29 77  1  0
 30 78  1  0
 30 79  1  0
 32 80  1  0
 32 81  1  0
 32 82  1  0
M  END
>  <meeko>  (6) 
{"is_sidechain": [false], "intermolecular_energy": 2.731, "internal_energy": -0.839}

$$$$
EPH_relaxed_0001_pdb2pqr_Repair_65_r2_0001_out
     RDKit          3D

 82 86  0  0  0  0  0  0  0  0999 V2000
    0.4490    8.8150   -2.3820 C   0  0  0  0  0  0  0  0  0  0  0  0
    1.1920    9.9600   -3.0760 C   0  0  2  0  0  0  0  0  0  0  0  0
    2.6920    9.9810   -2.7200 C   0  0  0  0  0  0  0  0  0  0  0  0
    3.5760   10.5880   -3.8120 C   0  0  0  0  0  0  0  0  0  0  0  0
    4.9720   10.8310   -3.3240 C   0  0  2  0  0  0  0  0  0  0  0  0
    5.5670   12.0480   -3.7920 O   0  0  0  0  0  0  0  0  0  0  0  0
    6.1880   10.8290   -4.2320 C   0  0  0  0  0  0  0  0  0  0  0  0
    6.0630   10.5790   -5.7020 C   0  0  0  0  0  0  0  0  0  0  0  0
    7.5340   10.5850   -3.6250 C   0  0  0  0  0  0  0  0  0  0  0  0
    0.5500   11.2930   -2.7100 C   0  0  1  0  0  0  0  0  0  0  0  0
   -0.8260   11.1230   -2.0140 C   0  0  0  0  0  0  0  0  0  0  0  0
   -0.9440   12.2620   -0.9690 C   0  0  0  0  0  0  0  0  0  0  0  0
    0.2040   13.2360   -1.3240 C   0  0  1  0  0  0  0  0  0  0  0  0
   -0.3470   14.0930   -2.5060 C   0  0  0  0  0  0  0  0  0  0  0  0
    0.7330   14.1340   -0.1580 C   0  0  2  0  0  0  0  0  0  0  0  0
   -0.2990   15.1090    0.4340 C   0  0  0  0  0  0  0  0  0  0  0  0
   -0.3450   16.4560   -0.2080 C   0  0  0  0  0  0  0  0  0  0  0  0
    0.5960   16.9670   -1.0240 C   0  0  0  0  0  0  0  0  0  0  0  0
    1.8980   16.2040   -1.2980 C   0  0  1  0  0  0  0  0  0  0  0  0
    3.1030   17.1730   -1.1680 C   0  0  0  0  0  0  0  0  0  0  0  0
    2.9550   18.4110   -2.0480 C   0  0  0  0  0  0  0  0  0  0  0  0
    1.6780   19.1740   -1.7060 C   0  0  2  0  0  0  0  0  0  0  0  0
    1.8030   19.7140   -0.3860 O   0  0  0  0  0  0  0  0  0  0  0  0
    0.3980   18.2960   -1.7920 C   0  0  0  0  0  0  0  0  0  0  0  0
    0.0970   17.9610   -3.2740 C   0  0  0  0  0  0  0  0  0  0  0  0
   -0.7990   19.1470   -1.2880 C   0  0  0  0  0  0  0  0  0  0  0  0
    2.1030   14.8620   -0.4710 C   0  0  1  0  0  0  0  0  0  0  0  0
    2.7630   15.1800    0.9060 C   0  0  0  0  0  0  0  0  0  0  0  0
    3.1120   13.9320   -1.2430 C   0  0  0  0  0  0  0  0  0  0  0  0
    2.5140   12.9820   -2.2980 C   0  0  0  0  0  0  0  0  0  0  0  0
    1.3230   12.2070   -1.7260 C   0  0  2  0  0  0  0  0  0  0  0  0
    1.8510   11.3190   -0.5480 C   0  0  0  0  0  0  0  0  0  0  0  0
    0.5269    8.9351   -1.2914 H   0  0  0  0  0  0  0  0  0  0  0  0
   -0.6103    8.8326   -2.6780 H   0  0  0  0  0  0  0  0  0  0  0  0
    0.8966    7.8548   -2.6780 H   0  0  0  0  0  0  0  0  0  0  0  0
    1.1140    9.7952   -4.1608 H   0  0  0  0  0  0  0  0  0  0  0  0
    2.8223   10.5704   -1.8004 H   0  0  0  0  0  0  0  0  0  0  0  0
    3.0073    8.9344   -2.5965 H   0  0  0  0  0  0  0  0  0  0  0  0
    3.6125    9.8963   -4.6665 H   0  0  0  0  0  0  0  0  0  0  0  0
    3.1423   11.5553   -4.1059 H   0  0  0  0  0  0  0  0  0  0  0  0
    4.7565   10.3124   -2.3782 H   0  0  0  0  0  0  0  0  0  0  0  0
    5.5767    9.6065   -5.8685 H   0  0  0  0  0  0  0  0  0  0  0  0
    5.4569   11.3750   -6.1591 H   0  0  0  0  0  0  0  0  0  0  0  0
    7.0635   10.5717   -6.1591 H   0  0  0  0  0  0  0  0  0  0  0  0
    7.4499   10.6002   -2.5283 H   0  0  0  0  0  0  0  0  0  0  0  0
    7.9105    9.6040   -3.9503 H   0  0  0  0  0  0  0  0  0  0  0  0
    8.2309   11.3714   -3.9503 H   0  0  0  0  0  0  0  0  0  0  0  0
    0.5109   11.7586   -3.7059 H   0  0  0  0  0  0  0  0  0  0  0  0
   -1.6366   11.2022   -2.7534 H   0  0  0  0  0  0  0  0  0  0  0  0
   -0.9056   10.1369   -1.5332 H   0  0  0  0  0  0  0  0  0  0  0  0
   -1.9191   12.7646   -1.0505 H   0  0  0  0  0  0  0  0  0  0  0  0
   -0.8720   11.8903    0.0638 H   0  0  0  0  0  0  0  0  0  0  0  0
   -0.9013   14.9551   -2.1066 H   0  0  0  0  0  0  0  0  0  0  0  0
    0.4914   14.4497   -3.1223 H   0  0  0  0  0  0  0  0  0  0  0  0
   -1.0195   13.4783   -3.1223 H   0  0  0  0  0  0  0  0  0  0  0  0
    0.9364   13.3976    0.6334 H   0  0  0  0  0  0  0  0  0  0  0  0
   -1.2944   14.6514    0.3356 H   0  0  0  0  0  0  0  0  0  0  0  0
    0.0064   15.2792    1.4769 H   0  0  0  0  0  0  0  0  0  0  0  0
   -1.2225   17.0846    0.0037 H   0  0  0  0  0  0  0  0  0  0  0  0
    1.8232   15.8370   -2.3323 H   0  0  0  0  0  0  0  0  0  0  0  0
    3.1862   17.4937   -0.1191 H   0  0  0  0  0  0  0  0  0  0  0  0
    4.0028   16.6336   -1.4986 H   0  0  0  0  0  0  0  0  0  0  0  0
    3.8214   19.0703   -1.8905 H   0  0  0  0  0  0  0  0  0  0  0  0
    2.9016   18.0904   -3.0989 H   0  0  0  0  0  0  0  0  0  0  0  0
    1.5611   19.9730   -2.4529 H   0  0  0  0  0  0  0  0  0  0  0  0
    0.9420   20.0910   -0.1400 H   0  0  0  0  0  0  0  0  0  0  0  0
   -0.6374   17.1436   -3.3233 H   0  0  0  0  0  0  0  0  0  0  0  0
   -0.3107   18.8510   -3.7756 H   0  0  0  0  0  0  0  0  0  0  0  0
    1.0254   17.6505   -3.7756 H   0  0  0  0  0  0  0  0  0  0  0  0
   -0.8073   19.1529   -0.1880 H   0  0  0  0  0  0  0  0  0  0  0  0
   -0.6984   20.1775   -1.6595 H   0  0  0  0  0  0  0  0  0  0  0  0
   -1.7393   18.7135   -1.6595 H   0  0  0  0  0  0  0  0  0  0  0  0
    2.0933   14.8573    1.7168 H   0  0  0  0  0  0  0  0  0  0  0  0
    3.7204   14.6443    0.9861 H   0  0  0  0  0  0  0  0  0  0  0  0
    2.9407   16.2626    0.9861 H   0  0  0  0  0  0  0  0  0  0  0  0
    3.8386   14.5811   -1.7536 H   0  0  0  0  0  0  0  0  0  0  0  0
    3.5421   13.2735   -0.4740 H   0  0  0  0  0  0  0  0  0  0  0  0
    2.1774   13.5716   -3.1635 H   0  0  0  0  0  0  0  0  0  0  0  0
    3.2884   12.2617   -2.6003 H   0  0  0  0  0  0  0  0  0  0  0  0
    1.5761   11.7814    0.4115 H   0  0  0  0  0  0  0  0  0  0  0  0
    1.4018   10.3171   -0.6142 H   0  0  0  0  0  0  0  0  0  0  0  0
    2.9458   11.2351   -0.6142 H   0  0  0  0  0  0  0  0  0  0  0  0
  1  2  1  0
  2  3  1  0
  3  4  1  0
  4  5  1  0
  5  6  1  0
  6  7  1  0
  7  8  1  0
  7  9  1  0
  2 10  1  0
 10 11  1  0
 11 12  1  0
 12 13  1  0
 13 14  1  6
 13 15  1  0
 15 16  1  0
 16 17  1  0
 17 18  2  0
 18 19  1  0
 19 20  1  0
 20 21  1  0
 21 22  1  0
 22 23  1  0
 22 24  1  0
 24 25  1  0
 24 26  1  0
 19 27  1  0
 27 28  1  1
 27 29  1  0
 29 30  1  0
 30 31  1  0
 31 32  1  1
  7  5  1  0
 31 10  1  0
 31 13  1  0
 27 15  1  0
 24 18  1  0
  1 33  1  0
  1 34  1  0
  1 35  1  0
  2 36  1  6
  3 37  1  0
  3 38  1  0
  4 39  1  0
  4 40  1  0
  5 41  1  1
  8 42  1  0
  8 43  1  0
  8 44  1  0
  9 45  1  0
  9 46  1  0
  9 47  1  0
 10 48  1  6
 11 49  1  0
 11 50  1  0
 12 51  1  0
 12 52  1  0
 14 53  1  0
 14 54  1  0
 14 55  1  0
 15 56  1  1
 16 57  1  0
 16 58  1  0
 17 59  1  0
 19 60  1  6
 20 61  1  0
 20 62  1  0
 21 63  1  0
 21 64  1  0
 22 65  1  6
 23 66  1  0
 25 67  1  0
 25 68  1  0
 25 69  1  0
 26 70  1  0
 26 71  1  0
 26 72  1  0
 28 73  1  0
 28 74  1  0
 28 75  1  0
 29 76  1  0
 29 77  1  0
 30 78  1  0
 30 79  1  0
 32 80  1  0
 32 81  1  0
 32 82  1  0
M  END
>  <meeko>  (7) 
{"is_sidechain": [false], "intermolecular_energy": 2.731, "internal_energy": -0.839}

$$$$
EPH_relaxed_0001_pdb2pqr_Repair_65_r2_0001_out
     RDKit          3D

 82 86  0  0  0  0  0  0  0  0999 V2000
    3.1820   18.6860   -3.5430 C   0  0  0  0  0  0  0  0  0  0  0  0
    2.0850   18.2260   -2.5800 C   0  0  2  0  0  0  0  0  0  0  0  0
    1.8460   19.2410   -1.4440 C   0  0  0  0  0  0  0  0  0  0  0  0
    0.6070   20.1170   -1.6520 C   0  0  0  0  0  0  0  0  0  0  0  0
   -0.4130   19.8990   -0.5760 C   0  0  2  0  0  0  0  0  0  0  0  0
   -1.1790   18.6950   -0.7130 O   0  0  0  0  0  0  0  0  0  0  0  0
   -1.9090   19.9270   -0.8240 C   0  0  0  0  0  0  0  0  0  0  0  0
   -2.4700   20.1820   -2.1880 C   0  0  0  0  0  0  0  0  0  0  0  0
   -2.8210   20.1940    0.3330 C   0  0  0  0  0  0  0  0  0  0  0  0
    2.4440   16.8650   -1.9950 C   0  0  1  0  0  0  0  0  0  0  0  0
    3.2640   16.9770   -0.6820 C   0  0  0  0  0  0  0  0  0  0  0  0
    2.8250   15.7960    0.2220 C   0  0  0  0  0  0  0  0  0  0  0  0
    2.0230   14.8640   -0.7170 C   0  0  1  0  0  0  0  0  0  0  0  0
    3.1050   14.0400   -1.4830 C   0  0  0  0  0  0  0  0  0  0  0  0
    0.9680   13.9360   -0.0310 C   0  0  2  0  0  0  0  0  0  0  0  0
    1.5460   12.9140    0.9640 C   0  0  0  0  0  0  0  0  0  0  0  0
    1.9150   11.5920    0.3780 C   0  0  0  0  0  0  0  0  0  0  0  0
    1.5290   11.1350   -0.8280 C   0  0  0  0  0  0  0  0  0  0  0  0
    0.5550   11.9380   -1.6990 C   0  0  1  0  0  0  0  0  0  0  0  0
   -0.5450   10.9940   -2.2520 C   0  0  0  0  0  0  0  0  0  0  0  0
    0.0340    9.7870   -2.9840 C   0  0  0  0  0  0  0  0  0  0  0  0
    0.9510    8.9820   -2.0670 C   0  0  2  0  0  0  0  0  0  0  0  0
    0.1630    8.3960   -1.0270 O   0  0  0  0  0  0  0  0  0  0  0  0
    2.0930    9.8310   -1.4430 C   0  0  0  0  0  0  0  0  0  0  0  0
    3.1160   10.2150   -2.5410 C   0  0  0  0  0  0  0  0  0  0  0  0
    2.8580    8.9340   -0.4320 C   0  0  0  0  0  0  0  0  0  0  0  0
   -0.0450   13.2530   -1.0370 C   0  0  1  0  0  0  0  0  0  0  0  0
   -1.3200   12.8990   -0.2130 C   0  0  0  0  0  0  0  0  0  0  0  0
   -0.5110   14.2350   -2.1760 C   0  0  0  0  0  0  0  0  0  0  0  0
    0.5470   15.2100   -2.7290 C   0  0  0  0  0  0  0  0  0  0  0  0
    1.2730   15.9340   -1.5910 C   0  0  2  0  0  0  0  0  0  0  0  0
    0.2140   16.7890   -0.8150 C   0  0  0  0  0  0  0  0  0  0  0  0
    4.0466   19.0485   -2.9676 H   0  0  0  0  0  0  0  0  0  0  0  0
    3.4912   17.8418   -4.1767 H   0  0  0  0  0  0  0  0  0  0  0  0
    2.7966   19.4983   -4.1767 H   0  0  0  0  0  0  0  0  0  0  0  0
    1.1508   18.1488   -3.1556 H   0  0  0  0  0  0  0  0  0  0  0  0
    1.7248   18.6859   -0.5021 H   0  0  0  0  0  0  0  0  0  0  0  0
    2.7161   19.9138   -1.4255 H   0  0  0  0  0  0  0  0  0  0  0  0
    0.9123   21.1738   -1.6449 H   0  0  0  0  0  0  0  0  0  0  0  0
    0.1523   19.8445   -2.6158 H   0  0  0  0  0  0  0  0  0  0  0  0
    0.2220   20.4100    0.1627 H   0  0  0  0  0  0  0  0  0  0  0  0
   -3.4678   20.6356   -2.0952 H   0  0  0  0  0  0  0  0  0  0  0  0
   -1.8056   20.8666   -2.7356 H   0  0  0  0  0  0  0  0  0  0  0  0
   -2.5489   19.2313   -2.7356 H   0  0  0  0  0  0  0  0  0  0  0  0
   -2.2752   20.0342    1.2746 H   0  0  0  0  0  0  0  0  0  0  0  0
   -3.1766   21.2339    0.2872 H   0  0  0  0  0  0  0  0  0  0  0  0
   -3.6813   19.5100    0.2872 H   0  0  0  0  0  0  0  0  0  0  0  0
    2.9900   16.4353   -2.8478 H   0  0  0  0  0  0  0  0  0  0  0  0
    4.3399   16.9073   -0.9002 H   0  0  0  0  0  0  0  0  0  0  0  0
    3.0847   17.9421   -0.1856 H   0  0  0  0  0  0  0  0  0  0  0  0
    3.7020   15.2735    0.6316 H   0  0  0  0  0  0  0  0  0  0  0  0
    2.2312   16.1297    1.0857 H   0  0  0  0  0  0  0  0  0  0  0  0
    3.7641   13.5381   -0.7593 H   0  0  0  0  0  0  0  0  0  0  0  0
    2.6126   13.2861   -2.1148 H   0  0  0  0  0  0  0  0  0  0  0  0
    3.7009   14.7151   -2.1148 H   0  0  0  0  0  0  0  0  0  0  0  0
    0.3871   14.6470    0.5749 H   0  0  0  0  0  0  0  0  0  0  0  0
    2.4501   13.3509    1.4132 H   0  0  0  0  0  0  0  0  0  0  0  0
    0.7461   12.7117    1.6915 H   0  0  0  0  0  0  0  0  0  0  0  0
    2.5571   10.9350    0.9831 H   0  0  0  0  0  0  0  0  0  0  0  0
    1.1523   12.3415   -2.5299 H   0  0  0  0  0  0  0  0  0  0  0  0
   -1.1578   10.6361   -1.4115 H   0  0  0  0  0  0  0  0  0  0  0  0
   -1.1444   11.5670   -2.9748 H   0  0  0  0  0  0  0  0  0  0  0  0
   -0.7902    9.1430   -3.3246 H   0  0  0  0  0  0  0  0  0  0  0  0
    0.6217   10.1452   -3.8421 H   0  0  0  0  0  0  0  0  0  0  0  0
    1.4360    8.2091   -2.6814 H   0  0  0  0  0  0  0  0  0  0  0  0
   -0.1680    7.5420   -1.3530 H   0  0  0  0  0  0  0  0  0  0  0  0
    4.0464   10.5642   -2.0693 H   0  0  0  0  0  0  0  0  0  0  0  0
    3.3297    9.3359   -3.1667 H   0  0  0  0  0  0  0  0  0  0  0  0
    2.6984   11.0176   -3.1667 H   0  0  0  0  0  0  0  0  0  0  0  0
    2.6005    9.2359    0.5939 H   0  0  0  0  0  0  0  0  0  0  0  0
    2.5743    7.8826   -0.5869 H   0  0  0  0  0  0  0  0  0  0  0  0
    3.9410    9.0482   -0.5869 H   0  0  0  0  0  0  0  0  0  0  0  0
   -1.0917   12.9624    0.8612 H   0  0  0  0  0  0  0  0  0  0  0  0
   -2.1243   13.6078   -0.4594 H   0  0  0  0  0  0  0  0  0  0  0  0
   -1.6437   11.8770   -0.4594 H   0  0  0  0  0  0  0  0  0  0  0  0
   -0.8711   13.6231   -3.0162 H   0  0  0  0  0  0  0  0  0  0  0  0
   -1.2756   14.8740   -1.7101 H   0  0  0  0  0  0  0  0  0  0  0  0
    1.2811   14.6456   -3.3227 H   0  0  0  0  0  0  0  0  0  0  0  0
    0.0404   15.9594   -3.3548 H   0  0  0  0  0  0  0  0  0  0  0  0
    0.3658   16.6664    0.2676 H   0  0  0  0  0  0  0  0  0  0  0  0
    0.3305   17.8493   -1.0839 H   0  0  0  0  0  0  0  0  0  0  0  0
   -0.7979   16.4516   -1.0839 H   0  0  0  0  0  0  0  0  0  0  0  0
  1  2  1  0
  2  3  1  0
  3  4  1  0
  4  5  1  0
  5  6  1  0
  6  7  1  0
  7  8  1  0
  7  9  1  0
  2 10  1  0
 10 11  1  0
 11 12  1  0
 12 13  1  0
 13 14  1  6
 13 15  1  0
 15 16  1  0
 16 17  1  0
 17 18  2  0
 18 19  1  0
 19 20  1  0
 20 21  1  0
 21 22  1  0
 22 23  1  0
 22 24  1  0
 24 25  1  0
 24 26  1  0
 19 27  1  0
 27 28  1  1
 27 29  1  0
 29 30  1  0
 30 31  1  0
 31 32  1  1
  7  5  1  0
 31 10  1  0
 31 13  1  0
 27 15  1  0
 24 18  1  0
  1 33  1  0
  1 34  1  0
  1 35  1  0
  2 36  1  6
  3 37  1  0
  3 38  1  0
  4 39  1  0
  4 40  1  0
  5 41  1  1
  8 42  1  0
  8 43  1  0
  8 44  1  0
  9 45  1  0
  9 46  1  0
  9 47  1  0
 10 48  1  6
 11 49  1  0
 11 50  1  0
 12 51  1  0
 12 52  1  0
 14 53  1  0
 14 54  1  0
 14 55  1  0
 15 56  1  1
 16 57  1  0
 16 58  1  0
 17 59  1  0
 19 60  1  6
 20 61  1  0
 20 62  1  0
 21 63  1  0
 21 64  1  0
 22 65  1  6
 23 66  1  0
 25 67  1  0
 25 68  1  0
 25 69  1  0
 26 70  1  0
 26 71  1  0
 26 72  1  0
 28 73  1  0
 28 74  1  0
 28 75  1  0
 29 76  1  0
 29 77  1  0
 30 78  1  0
 30 79  1  0
 32 80  1  0
 32 81  1  0
 32 82  1  0
M  END
>  <meeko>  (8) 
{"is_sidechain": [false], "intermolecular_energy": 2.731, "internal_energy": -0.839}

$$$$
EPH_relaxed_0001_pdb2pqr_Repair_65_r2_0001_out
     RDKit          3D

 82 86  0  0  0  0  0  0  0  0999 V2000
   -0.9960   16.4420   -5.9820 C   0  0  0  0  0  0  0  0  0  0  0  0
    0.1330   15.7620   -6.7610 C   0  0  2  0  0  0  0  0  0  0  0  0
   -0.2300   15.5480   -8.2440 C   0  0  0  0  0  0  0  0  0  0  0  0
    0.4440   16.5420   -9.1930 C   0  0  0  0  0  0  0  0  0  0  0  0
    1.8500   16.1340   -9.5160 C   0  0  2  0  0  0  0  0  0  0  0  0
    2.3620   16.6720  -10.7420 O   0  0  0  0  0  0  0  0  0  0  0  0
    2.2140   15.2440  -10.6890 C   0  0  0  0  0  0  0  0  0  0  0  0
    1.1680   14.7070  -11.6150 C   0  0  0  0  0  0  0  0  0  0  0  0
    3.5140   14.5040  -10.6490 C   0  0  0  0  0  0  0  0  0  0  0  0
    0.4810   14.4270   -6.1120 C   0  0  1  0  0  0  0  0  0  0  0  0
    1.6970   13.7350   -6.7840 C   0  0  0  0  0  0  0  0  0  0  0  0
    2.4720   13.0020   -5.6600 C   0  0  0  0  0  0  0  0  0  0  0  0
    1.5090   13.0150   -4.4490 C   0  0  1  0  0  0  0  0  0  0  0  0
    0.5210   11.8360   -4.7090 C   0  0  0  0  0  0  0  0  0  0  0  0
    2.1730   12.9110   -3.0370 C   0  0  2  0  0  0  0  0  0  0  0  0
    2.9470   11.6080   -2.7740 C   0  0  0  0  0  0  0  0  0  0  0  0
    2.1470   10.5020   -2.1700 C   0  0  0  0  0  0  0  0  0  0  0  0
    0.9400   10.6360   -1.5900 C   0  0  0  0  0  0  0  0  0  0  0  0
    0.3020   12.0200   -1.4110 C   0  0  1  0  0  0  0  0  0  0  0  0
   -0.2500   12.1530    0.0330 C   0  0  0  0  0  0  0  0  0  0  0  0
   -1.2020   11.0190    0.4020 C   0  0  0  0  0  0  0  0  0  0  0  0
   -0.5130    9.6630    0.2680 C   0  0  2  0  0  0  0  0  0  0  0  0
    0.5180    9.5710    1.2550 O   0  0  0  0  0  0  0  0  0  0  0  0
    0.0910    9.4200   -1.1430 C   0  0  0  0  0  0  0  0  0  0  0  0
   -1.0500    9.2210   -2.1710 C   0  0  0  0  0  0  0  0  0  0  0  0
    0.8770    8.0820   -1.1020 C   0  0  0  0  0  0  0  0  0  0  0  0
    1.2010   13.2590   -1.8370 C   0  0  1  0  0  0  0  0  0  0  0  0
    2.1060   13.6950   -0.6440 C   0  0  0  0  0  0  0  0  0  0  0  0
    0.2680   14.4850   -2.1590 C   0  0  0  0  0  0  0  0  0  0  0  0
   -0.2590   14.5980   -3.6020 C   0  0  0  0  0  0  0  0  0  0  0  0
    0.8800   14.4460   -4.6150 C   0  0  2  0  0  0  0  0  0  0  0  0
    1.8790   15.6320   -4.3920 C   0  0  0  0  0  0  0  0  0  0  0  0
   -0.8144   16.3326   -4.9026 H   0  0  0  0  0  0  0  0  0  0  0  0
   -1.0290   17.5104   -6.2418 H   0  0  0  0  0  0  0  0  0  0  0  0
   -1.9558   15.9716   -6.2418 H   0  0  0  0  0  0  0  0  0  0  0  0
    1.0060   16.4305   -6.7289 H   0  0  0  0  0  0  0  0  0  0  0  0
    0.0747   14.5312   -8.5327 H   0  0  0  0  0  0  0  0  0  0  0  0
   -1.3152   15.7031   -8.3345 H   0  0  0  0  0  0  0  0  0  0  0  0
   -0.1358   16.5929  -10.1264 H   0  0  0  0  0  0  0  0  0  0  0  0
    0.4771   17.5225   -8.6956 H   0  0  0  0  0  0  0  0  0  0  0  0
    2.1075   16.0881   -8.4476 H   0  0  0  0  0  0  0  0  0  0  0  0
    0.3409   14.2824  -11.0271 H   0  0  0  0  0  0  0  0  0  0  0  0
    0.7870   15.5210  -12.2492 H   0  0  0  0  0  0  0  0  0  0  0  0
    1.6073   13.9230  -12.2492 H   0  0  0  0  0  0  0  0  0  0  0  0
    3.8084   14.3364   -9.6025 H   0  0  0  0  0  0  0  0  0  0  0  0
    3.4003   13.5353  -11.1576 H   0  0  0  0  0  0  0  0  0  0  0  0
    4.2889   15.0964  -11.1576 H   0  0  0  0  0  0  0  0  0  0  0  0
   -0.4788   13.9049   -6.2390 H   0  0  0  0  0  0  0  0  0  0  0  0
    1.3524   13.0133   -7.5392 H   0  0  0  0  0  0  0  0  0  0  0  0
    2.3389   14.4701   -7.2915 H   0  0  0  0  0  0  0  0  0  0  0  0
    2.7057   11.9696   -5.9591 H   0  0  0  0  0  0  0  0  0  0  0  0
    3.4338   13.4852   -5.4332 H   0  0  0  0  0  0  0  0  0  0  0  0
    0.1778   11.4264   -3.7475 H   0  0  0  0  0  0  0  0  0  0  0  0
   -0.3441   12.2020   -5.2814 H   0  0  0  0  0  0  0  0  0  0  0  0
    1.0327   11.0483   -5.2814 H   0  0  0  0  0  0  0  0  0  0  0  0
    2.9322   13.7061   -3.0740 H   0  0  0  0  0  0  0  0  0  0  0  0
    3.3489   11.2517   -3.7340 H   0  0  0  0  0  0  0  0  0  0  0  0
    3.7240   11.8591   -2.0370 H   0  0  0  0  0  0  0  0  0  0  0  0
    2.5808    9.4917   -2.2016 H   0  0  0  0  0  0  0  0  0  0  0  0
   -0.5261   12.0683   -2.1334 H   0  0  0  0  0  0  0  0  0  0  0  0
    0.5960   12.1461    0.7360 H   0  0  0  0  0  0  0  0  0  0  0  0
   -0.8151   13.0951    0.0891 H   0  0  0  0  0  0  0  0  0  0  0  0
   -1.5350   11.1525    1.4419 H   0  0  0  0  0  0  0  0  0  0  0  0
   -2.0619   11.0453   -0.2835 H   0  0  0  0  0  0  0  0  0  0  0  0
   -1.2781    8.8873    0.4193 H   0  0  0  0  0  0  0  0  0  0  0  0
    0.6660    8.6270    1.4390 H   0  0  0  0  0  0  0  0  0  0  0  0
   -1.9983    9.0556   -1.6388 H   0  0  0  0  0  0  0  0  0  0  0  0
   -1.1354   10.1178   -2.8022 H   0  0  0  0  0  0  0  0  0  0  0  0
   -0.8267    8.3482   -2.8022 H   0  0  0  0  0  0  0  0  0  0  0  0
    1.0488    7.7896   -0.0556 H   0  0  0  0  0  0  0  0  0  0  0  0
    0.2952    7.2992   -1.6107 H   0  0  0  0  0  0  0  0  0  0  0  0
    1.8440    8.2091   -1.6107 H   0  0  0  0  0  0  0  0  0  0  0  0
    1.6041   13.4532    0.3045 H   0  0  0  0  0  0  0  0  0  0  0  0
    3.0659   13.1605   -0.6975 H   0  0  0  0  0  0  0  0  0  0  0  0
    2.2863   14.7788   -0.6975 H   0  0  0  0  0  0  0  0  0  0  0  0
   -0.6034   14.4243   -1.4905 H   0  0  0  0  0  0  0  0  0  0  0  0
    0.9003   15.3733   -2.0137 H   0  0  0  0  0  0  0  0  0  0  0  0
   -1.0035   13.8072   -3.7762 H   0  0  0  0  0  0  0  0  0  0  0  0
   -0.7143   15.5908   -3.7324 H   0  0  0  0  0  0  0  0  0  0  0  0
    2.0177   15.7967   -3.3133 H   0  0  0  0  0  0  0  0  0  0  0  0
    2.8473   15.3874   -4.8531 H   0  0  0  0  0  0  0  0  0  0  0  0
    1.4734   16.5447   -4.8531 H   0  0  0  0  0  0  0  0  0  0  0  0
  1  2  1  0
  2  3  1  0
  3  4  1  0
  4  5  1  0
  5  6  1  0
  6  7  1  0
  7  8  1  0
  7  9  1  0
  2 10  1  0
 10 11  1  0
 11 12  1  0
 12 13  1  0
 13 14  1  6
 13 15  1  0
 15 16  1  0
 16 17  1  0
 17 18  2  0
 18 19  1  0
 19 20  1  0
 20 21  1  0
 21 22  1  0
 22 23  1  0
 22 24  1  0
 24 25  1  0
 24 26  1  0
 19 27  1  0
 27 28  1  1
 27 29  1  0
 29 30  1  0
 30 31  1  0
 31 32  1  6
  7  5  1  0
 31 10  1  0
 31 13  1  0
 27 15  1  0
 24 18  1  0
  1 33  1  0
  1 34  1  0
  1 35  1  0
  2 36  1  6
  3 37  1  0
  3 38  1  0
  4 39  1  0
  4 40  1  0
  5 41  1  1
  8 42  1  0
  8 43  1  0
  8 44  1  0
  9 45  1  0
  9 46  1  0
  9 47  1  0
 10 48  1  1
 11 49  1  0
 11 50  1  0
 12 51  1  0
 12 52  1  0
 14 53  1  0
 14 54  1  0
 14 55  1  0
 15 56  1  6
 16 57  1  0
 16 58  1  0
 17 59  1  0
 19 60  1  6
 20 61  1  0
 20 62  1  0
 21 63  1  0
 21 64  1  0
 22 65  1  1
 23 66  1  0
 25 67  1  0
 25 68  1  0
 25 69  1  0
 26 70  1  0
 26 71  1  0
 26 72  1  0
 28 73  1  0
 28 74  1  0
 28 75  1  0
 29 76  1  0
 29 77  1  0
 30 78  1  0
 30 79  1  0
 32 80  1  0
 32 81  1  0
 32 82  1  0
M  END
>  <meeko>  (9) 
{"is_sidechain": [false], "intermolecular_energy": 2.731, "internal_energy": -0.839}

$$$$
EPH_relaxed_0001_pdb2pqr_Repair_65_r2_0001_out
     RDKit          3D

 82 86  0  0  0  0  0  0  0  0999 V2000
    0.9090   10.4110   -3.8710 C   0  0  0  0  0  0  0  0  0  0  0  0
    0.3940   10.1430   -2.4540 C   0  0  2  0  0  0  0  0  0  0  0  0
   -1.0870    9.7140   -2.4460 C   0  0  0  0  0  0  0  0  0  0  0  0
   -1.5490    9.1240   -1.1110 C   0  0  0  0  0  0  0  0  0  0  0  0
   -2.8660    9.6950   -0.6790 C   0  0  2  0  0  0  0  0  0  0  0  0
   -3.4340    9.0760    0.4830 O   0  0  0  0  0  0  0  0  0  0  0  0
   -4.1720    8.9250   -0.7400 C   0  0  0  0  0  0  0  0  0  0  0  0
   -4.2260    7.5190   -1.2490 C   0  0  0  0  0  0  0  0  0  0  0  0
   -5.4560    9.6950   -0.7690 C   0  0  0  0  0  0  0  0  0  0  0  0
    0.5820   11.3840   -1.5890 C   0  0  1  0  0  0  0  0  0  0  0  0
    1.6410   11.1790   -0.4730 C   0  0  0  0  0  0  0  0  0  0  0  0
    2.3680   12.5370   -0.2910 C   0  0  0  0  0  0  0  0  0  0  0  0
    1.4930   13.5540   -1.0610 C   0  0  1  0  0  0  0  0  0  0  0  0
    0.3280   13.9030   -0.0810 C   0  0  0  0  0  0  0  0  0  0  0  0
    2.2180   14.8390   -1.5760 C   0  0  2  0  0  0  0  0  0  0  0  0
    2.8090   15.7400   -0.4770 C   0  0  0  0  0  0  0  0  0  0  0  0
    1.8940   16.8030    0.0360 C   0  0  0  0  0  0  0  0  0  0  0  0
    0.7570   17.2100   -0.5590 C   0  0  0  0  0  0  0  0  0  0  0  0
    0.3400   16.6520   -1.9260 C   0  0  1  0  0  0  0  0  0  0  0  0
   -0.0980   17.8190   -2.8500 C   0  0  0  0  0  0  0  0  0  0  0  0
   -1.1810   18.6900   -2.2190 C   0  0  0  0  0  0  0  0  0  0  0  0
   -0.7070   19.2730   -0.8910 C   0  0  2  0  0  0  0  0  0  0  0  0
    0.3580   20.1940   -1.1450 O   0  0  0  0  0  0  0  0  0  0  0  0
   -0.2320   18.1900    0.1190 C   0  0  0  0  0  0  0  0  0  0  0  0
   -1.4500   17.3800    0.6250 C   0  0  0  0  0  0  0  0  0  0  0  0
    0.3520   18.9180    1.3600 C   0  0  0  0  0  0  0  0  0  0  0  0
    1.3830   15.6780   -2.6250 C   0  0  1  0  0  0  0  0  0  0  0  0
    2.4120   16.5070   -3.4530 C   0  0  0  0  0  0  0  0  0  0  0  0
    0.6210   14.7620   -3.6540 C   0  0  0  0  0  0  0  0  0  0  0  0
    0.0290   13.4480   -3.1090 C   0  0  0  0  0  0  0  0  0  0  0  0
    1.0700   12.6750   -2.2940 C   0  0  2  0  0  0  0  0  0  0  0  0
    2.2440   12.2900   -3.2580 C   0  0  0  0  0  0  0  0  0  0  0  0
    1.8836   10.9182   -3.8171 H   0  0  0  0  0  0  0  0  0  0  0  0
    1.0213    9.4569   -4.4069 H   0  0  0  0  0  0  0  0  0  0  0  0
    0.1921   11.0504   -4.4069 H   0  0  0  0  0  0  0  0  0  0  0  0
    0.9811    9.3097   -2.0406 H   0  0  0  0  0  0  0  0  0  0  0  0
   -1.7054   10.5961   -2.6685 H   0  0  0  0  0  0  0  0  0  0  0  0
   -1.1969    8.9231   -3.2025 H   0  0  0  0  0  0  0  0  0  0  0  0
   -1.6512    8.0341   -1.2192 H   0  0  0  0  0  0  0  0  0  0  0  0
   -0.7988    9.3755   -0.3468 H   0  0  0  0  0  0  0  0  0  0  0  0
   -2.5801   10.6928   -1.0433 H   0  0  0  0  0  0  0  0  0  0  0  0
   -4.2528    6.8219   -0.3985 H   0  0  0  0  0  0  0  0  0  0  0  0
   -5.1299    7.3852   -1.8614 H   0  0  0  0  0  0  0  0  0  0  0  0
   -3.3350    7.3163   -1.8614 H   0  0  0  0  0  0  0  0  0  0  0  0
   -5.7876    9.8939    0.2608 H   0  0  0  0  0  0  0  0  0  0  0  0
   -5.2999   10.6486   -1.2945 H   0  0  0  0  0  0  0  0  0  0  0  0
   -6.2237    9.1081   -1.2945 H   0  0  0  0  0  0  0  0  0  0  0  0
   -0.4495   11.5176   -1.2310 H   0  0  0  0  0  0  0  0  0  0  0  0
    1.1497   10.8836    0.4658 H   0  0  0  0  0  0  0  0  0  0  0  0
    2.3513   10.3839   -0.7438 H   0  0  0  0  0  0  0  0  0  0  0  0
    2.4290   12.8052    0.7741 H   0  0  0  0  0  0  0  0  0  0  0  0
    3.4024   12.5098   -0.6642 H   0  0  0  0  0  0  0  0  0  0  0  0
    0.6779   13.7982    0.9566 H   0  0  0  0  0  0  0  0  0  0  0  0
    0.0006   14.9387   -0.2547 H   0  0  0  0  0  0  0  0  0  0  0  0
   -0.5149   13.2179   -0.2547 H   0  0  0  0  0  0  0  0  0  0  0  0
    3.0810   14.4222   -2.1160 H   0  0  0  0  0  0  0  0  0  0  0  0
    3.0951   15.0996    0.3704 H   0  0  0  0  0  0  0  0  0  0  0  0
    3.6583   16.2655   -0.9380 H   0  0  0  0  0  0  0  0  0  0  0  0
    2.1726   17.2949    0.9796 H   0  0  0  0  0  0  0  0  0  0  0  0
   -0.5147   15.9865   -1.7349 H   0  0  0  0  0  0  0  0  0  0  0  0
    0.7791   18.4471   -3.0647 H   0  0  0  0  0  0  0  0  0  0  0  0
   -0.5155   17.3796   -3.7679 H   0  0  0  0  0  0  0  0  0  0  0  0
   -1.4268   19.5130   -2.9062 H   0  0  0  0  0  0  0  0  0  0  0  0
   -2.0681   18.0669   -2.0322 H   0  0  0  0  0  0  0  0  0  0  0  0
   -1.5669   19.7787   -0.4275 H   0  0  0  0  0  0  0  0  0  0  0  0
    0.1860   20.6110   -2.0070 H   0  0  0  0  0  0  0  0  0  0  0  0
   -1.4562   17.3759    1.7250 H   0  0  0  0  0  0  0  0  0  0  0  0
   -2.3771   17.8421    0.2548 H   0  0  0  0  0  0  0  0  0  0  0  0
   -1.3823   16.3464    0.2548 H   0  0  0  0  0  0  0  0  0  0  0  0
   -0.0287   18.4434    2.2764 H   0  0  0  0  0  0  0  0  0  0  0  0
    1.4498   18.8512    1.3414 H   0  0  0  0  0  0  0  0  0  0  0  0
    0.0486   19.9752    1.3414 H   0  0  0  0  0  0  0  0  0  0  0  0
    3.0828   17.0474   -2.7689 H   0  0  0  0  0  0  0  0  0  0  0  0
    3.0030   15.8298   -4.0871 H   0  0  0  0  0  0  0  0  0  0  0  0
    1.8761   17.2286   -4.0871 H   0  0  0  0  0  0  0  0  0  0  0  0
   -0.2075   15.3512   -4.0741 H   0  0  0  0  0  0  0  0  0  0  0  0
    1.3836   14.4531   -4.3840 H   0  0  0  0  0  0  0  0  0  0  0  0
   -0.8318   13.6809   -2.4650 H   0  0  0  0  0  0  0  0  0  0  0  0
   -0.2843   12.8248   -3.9596 H   0  0  0  0  0  0  0  0  0  0  0  0
    3.1249   12.0011   -2.6659 H   0  0  0  0  0  0  0  0  0  0  0  0
    1.9357   11.4459   -3.8924 H   0  0  0  0  0  0  0  0  0  0  0  0
    2.4955   13.1527   -3.8924 H   0  0  0  0  0  0  0  0  0  0  0  0
  1  2  1  0
  2  3  1  0
  3  4  1  0
  4  5  1  0
  5  6  1  0
  6  7  1  0
  7  8  1  0
  7  9  1  0
  2 10  1  0
 10 11  1  0
 11 12  1  0
 12 13  1  0
 13 14  1  1
 13 15  1  0
 15 16  1  0
 16 17  1  0
 17 18  2  0
 18 19  1  0
 19 20  1  0
 20 21  1  0
 21 22  1  0
 22 23  1  0
 22 24  1  0
 24 25  1  0
 24 26  1  0
 19 27  1  0
 27 28  1  6
 27 29  1  0
 29 30  1  0
 30 31  1  0
 31 32  1  6
  7  5  1  0
 31 10  1  0
 31 13  1  0
 27 15  1  0
 24 18  1  0
  1 33  1  0
  1 34  1  0
  1 35  1  0
  2 36  1  1
  3 37  1  0
  3 38  1  0
  4 39  1  0
  4 40  1  0
  5 41  1  1
  8 42  1  0
  8 43  1  0
  8 44  1  0
  9 45  1  0
  9 46  1  0
  9 47  1  0
 10 48  1  1
 11 49  1  0
 11 50  1  0
 12 51  1  0
 12 52  1  0
 14 53  1  0
 14 54  1  0
 14 55  1  0
 15 56  1  6
 16 57  1  0
 16 58  1  0
 17 59  1  0
 19 60  1  1
 20 61  1  0
 20 62  1  0
 21 63  1  0
 21 64  1  0
 22 65  1  1
 23 66  1  0
 25 67  1  0
 25 68  1  0
 25 69  1  0
 26 70  1  0
 26 71  1  0
 26 72  1  0
 28 73  1  0
 28 74  1  0
 28 75  1  0
 29 76  1  0
 29 77  1  0
 30 78  1  0
 30 79  1  0
 32 80  1  0
 32 81  1  0
 32 82  1  0
M  END
>  <meeko>  (10) 
{"is_sidechain": [false], "intermolecular_energy": 2.731, "internal_energy": -0.839}

$$$$
EPH_relaxed_0001_pdb2pqr_Repair_65_r2_0001_out
     RDKit          3D

 82 86  0  0  0  0  0  0  0  0999 V2000
   -0.7400    9.2620   -1.7830 C   0  0  0  0  0  0  0  0  0  0  0  0
    0.3370   10.1550   -2.4070 C   0  0  2  0  0  0  0  0  0  0  0  0
    1.6720    9.4080   -2.5970 C   0  0  0  0  0  0  0  0  0  0  0  0
    2.5630   10.0070   -3.6890 C   0  0  0  0  0  0  0  0  0  0  0  0
    3.9950   10.0870   -3.2540 C   0  0  2  0  0  0  0  0  0  0  0  0
    4.4330   11.3990   -2.8770 O   0  0  0  0  0  0  0  0  0  0  0  0
    5.0660   10.8280   -4.0340 C   0  0  0  0  0  0  0  0  0  0  0  0
    4.7490   11.5370   -5.3130 C   0  0  0  0  0  0  0  0  0  0  0  0
    6.4980   10.4530   -3.8150 C   0  0  0  0  0  0  0  0  0  0  0  0
    0.5500   11.3930   -1.5440 C   0  0  1  0  0  0  0  0  0  0  0  0
    1.6710   11.2000   -0.4890 C   0  0  0  0  0  0  0  0  0  0  0  0
    2.3830   12.5680   -0.3360 C   0  0  0  0  0  0  0  0  0  0  0  0
    1.4490   13.5750   -1.0490 C   0  0  1  0  0  0  0  0  0  0  0  0
    0.3340   13.8960   -0.0050 C   0  0  0  0  0  0  0  0  0  0  0  0
    2.1230   14.8770   -1.5930 C   0  0  2  0  0  0  0  0  0  0  0  0
    2.7560   15.7810   -0.5210 C   0  0  0  0  0  0  0  0  0  0  0  0
    1.8520   16.8230    0.0490 C   0  0  0  0  0  0  0  0  0  0  0  0
    0.6780   17.2140   -0.4790 C   0  0  0  0  0  0  0  0  0  0  0  0
    0.1970   16.6580   -1.8260 C   0  0  1  0  0  0  0  0  0  0  0  0
   -0.3110   17.8230   -2.7150 C   0  0  0  0  0  0  0  0  0  0  0  0
   -1.3730   18.6700   -2.0200 C   0  0  0  0  0  0  0  0  0  0  0  0
   -0.8380   19.2520   -0.7150 C   0  0  2  0  0  0  0  0  0  0  0  0
    0.1950   20.1940   -1.0190 O   0  0  0  0  0  0  0  0  0  0  0  0
   -0.2890   18.1720    0.2590 C   0  0  0  0  0  0  0  0  0  0  0  0
   -1.4640   17.3360    0.8240 C   0  0  0  0  0  0  0  0  0  0  0  0
    0.3480   18.9020    1.4720 C   0  0  0  0  0  0  0  0  0  0  0  0
    1.2170   15.7080   -2.5890 C   0  0  1  0  0  0  0  0  0  0  0  0
    2.1850   16.5610   -3.4650 C   0  0  0  0  0  0  0  0  0  0  0  0
    0.4170   14.7850   -3.5820 C   0  0  0  0  0  0  0  0  0  0  0  0
   -0.1210   13.4570   -3.0160 C   0  0  0  0  0  0  0  0  0  0  0  0
    0.9760   12.6970   -2.2640 C   0  0  2  0  0  0  0  0  0  0  0  0
    2.1020   12.3410   -3.2940 C   0  0  0  0  0  0  0  0  0  0  0  0
   -0.6726    9.3179   -0.6865 H   0  0  0  0  0  0  0  0  0  0  0  0
   -1.7337    9.6048   -2.1072 H   0  0  0  0  0  0  0  0  0  0  0  0
   -0.5871    8.2220   -2.1072 H   0  0  0  0  0  0  0  0  0  0  0  0
   -0.0180   10.4543   -3.4042 H   0  0  0  0  0  0  0  0  0  0  0  0
    2.2233    9.4348   -1.6455 H   0  0  0  0  0  0  0  0  0  0  0  0
    1.4248    8.3829   -2.9103 H   0  0  0  0  0  0  0  0  0  0  0  0
    2.4982    9.3762   -4.5878 H   0  0  0  0  0  0  0  0  0  0  0  0
    2.2104   11.0279   -3.8976 H   0  0  0  0  0  0  0  0  0  0  0  0
    3.9530    9.0667   -2.8450 H   0  0  0  0  0  0  0  0  0  0  0  0
    4.3095   12.5200   -5.0881 H   0  0  0  0  0  0  0  0  0  0  0  0
    5.6722   11.6727   -5.8956 H   0  0  0  0  0  0  0  0  0  0  0  0
    4.0323   10.9395   -5.8956 H   0  0  0  0  0  0  0  0  0  0  0  0
    6.7021   10.3996   -2.7354 H   0  0  0  0  0  0  0  0  0  0  0  0
    6.6948    9.4730   -4.2743 H   0  0  0  0  0  0  0  0  0  0  0  0
    7.1498   11.2107   -4.2743 H   0  0  0  0  0  0  0  0  0  0  0  0
   -0.4628   11.5052   -1.1296 H   0  0  0  0  0  0  0  0  0  0  0  0
    1.2364   10.8897    0.4727 H   0  0  0  0  0  0  0  0  0  0  0  0
    2.3793   10.4197   -0.8043 H   0  0  0  0  0  0  0  0  0  0  0  0
    2.4978   12.8296    0.7263 H   0  0  0  0  0  0  0  0  0  0  0  0
    3.3958   12.5619   -0.7652 H   0  0  0  0  0  0  0  0  0  0  0  0
    0.7387   13.7795    1.0112 H   0  0  0  0  0  0  0  0  0  0  0  0
   -0.0128   14.9305   -0.1452 H   0  0  0  0  0  0  0  0  0  0  0  0
   -0.5097   13.2043   -0.1452 H   0  0  0  0  0  0  0  0  0  0  0  0
    2.9629   14.4796   -2.1818 H   0  0  0  0  0  0  0  0  0  0  0  0
    3.0992   15.1402    0.3046 H   0  0  0  0  0  0  0  0  0  0  0  0
    3.5692   16.3254   -1.0234 H   0  0  0  0  0  0  0  0  0  0  0  0
    2.1730   17.3129    0.9801 H   0  0  0  0  0  0  0  0  0  0  0  0
   -0.6339   15.9756   -1.5936 H   0  0  0  0  0  0  0  0  0  0  0  0
    0.5420   18.4683   -2.9718 H   0  0  0  0  0  0  0  0  0  0  0  0
   -0.7702   17.3823   -3.6122 H   0  0  0  0  0  0  0  0  0  0  0  0
   -1.6698   19.4933   -2.6864 H   0  0  0  0  0  0  0  0  0  0  0  0
   -2.2378   18.0301   -1.7907 H   0  0  0  0  0  0  0  0  0  0  0  0
   -1.6808   19.7380   -0.2017 H   0  0  0  0  0  0  0  0  0  0  0  0
   -0.1380   21.0800   -0.7950 H   0  0  0  0  0  0  0  0  0  0  0  0
   -1.4339   17.3574    1.9234 H   0  0  0  0  0  0  0  0  0  0  0  0
   -2.4170   17.7602    0.4750 H   0  0  0  0  0  0  0  0  0  0  0  0
   -1.3756   16.2966    0.4750 H   0  0  0  0  0  0  0  0  0  0  0  0
   -0.0343   18.4639    2.4057 H   0  0  0  0  0  0  0  0  0  0  0  0
    1.4416   18.7892    1.4349 H   0  0  0  0  0  0  0  0  0  0  0  0
    0.0881   19.9702    1.4349 H   0  0  0  0  0  0  0  0  0  0  0  0
    2.8497   17.1467   -2.8129 H   0  0  0  0  0  0  0  0  0  0  0  0
    2.7879   15.8951   -4.1000 H   0  0  0  0  0  0  0  0  0  0  0  0
    1.6003   17.2428   -4.1000 H   0  0  0  0  0  0  0  0  0  0  0  0
   -0.4434   15.3617   -3.9523 H   0  0  0  0  0  0  0  0  0  0  0  0
    1.1445   14.4948   -4.3543 H   0  0  0  0  0  0  0  0  0  0  0  0
   -0.9498   13.6699   -2.3248 H   0  0  0  0  0  0  0  0  0  0  0  0
   -0.4684   12.8340   -3.8534 H   0  0  0  0  0  0  0  0  0  0  0  0
    3.0154   12.0522   -2.7534 H   0  0  0  0  0  0  0  0  0  0  0  0
    1.7697   11.5041   -3.9258 H   0  0  0  0  0  0  0  0  0  0  0  0
    2.3112   13.2168   -3.9258 H   0  0  0  0  0  0  0  0  0  0  0  0
  1  2  1  0
  2  3  1  0
  3  4  1  0
  4  5  1  0
  5  6  1  0
  6  7  1  0
  7  8  1  0
  7  9  1  0
  2 10  1  0
 10 11  1  0
 11 12  1  0
 12 13  1  0
 13 14  1  1
 13 15  1  0
 15 16  1  0
 16 17  1  0
 17 18  2  0
 18 19  1  0
 19 20  1  0
 20 21  1  0
 21 22  1  0
 22 23  1  0
 22 24  1  0
 24 25  1  0
 24 26  1  0
 19 27  1  0
 27 28  1  6
 27 29  1  0
 29 30  1  0
 30 31  1  0
 31 32  1  6
  7  5  1  0
 31 10  1  0
 31 13  1  0
 27 15  1  0
 24 18  1  0
  1 33  1  0
  1 34  1  0
  1 35  1  0
  2 36  1  6
  3 37  1  0
  3 38  1  0
  4 39  1  0
  4 40  1  0
  5 41  1  1
  8 42  1  0
  8 43  1  0
  8 44  1  0
  9 45  1  0
  9 46  1  0
  9 47  1  0
 10 48  1  1
 11 49  1  0
 11 50  1  0
 12 51  1  0
 12 52  1  0
 14 53  1  0
 14 54  1  0
 14 55  1  0
 15 56  1  6
 16 57  1  0
 16 58  1  0
 17 59  1  0
 19 60  1  1
 20 61  1  0
 20 62  1  0
 21 63  1  0
 21 64  1  0
 22 65  1  1
 23 66  1  0
 25 67  1  0
 25 68  1  0
 25 69  1  0
 26 70  1  0
 26 71  1  0
 26 72  1  0
 28 73  1  0
 28 74  1  0
 28 75  1  0
 29 76  1  0
 29 77  1  0
 30 78  1  0
 30 79  1  0
 32 80  1  0
 32 81  1  0
 32 82  1  0
M  END
>  <meeko>  (11) 
{"is_sidechain": [false], "intermolecular_energy": 2.731, "internal_energy": -0.839}

$$$$
EPH_relaxed_0001_pdb2pqr_Repair_65_r2_0001_out
     RDKit          3D

 82 86  0  0  0  0  0  0  0  0999 V2000
    3.7800   17.3650    0.1890 C   0  0  0  0  0  0  0  0  0  0  0  0
    2.7780   17.2240   -0.9610 C   0  0  2  0  0  0  0  0  0  0  0  0
    1.9970   18.5290   -1.2140 C   0  0  0  0  0  0  0  0  0  0  0  0
    0.6670   18.3180   -1.9420 C   0  0  0  0  0  0  0  0  0  0  0  0
   -0.3120   19.4110   -1.6350 C   0  0  2  0  0  0  0  0  0  0  0  0
   -0.1320   20.0340   -0.3560 O   0  0  0  0  0  0  0  0  0  0  0  0
   -1.3600   19.3130   -0.5430 C   0  0  0  0  0  0  0  0  0  0  0  0
   -1.4840   18.0910    0.3120 C   0  0  0  0  0  0  0  0  0  0  0  0
   -2.5690   20.1920   -0.6290 C   0  0  0  0  0  0  0  0  0  0  0  0
    1.8080   16.0850   -0.6670 C   0  0  1  0  0  0  0  0  0  0  0  0
    0.3910   16.5910   -0.2870 C   0  0  0  0  0  0  0  0  0  0  0  0
   -0.6190   15.5650   -0.8630 C   0  0  0  0  0  0  0  0  0  0  0  0
    0.2460   14.3460   -1.2600 C   0  0  1  0  0  0  0  0  0  0  0  0
    0.4730   13.5640    0.0710 C   0  0  0  0  0  0  0  0  0  0  0  0
   -0.3340   13.4230   -2.3800 C   0  0  2  0  0  0  0  0  0  0  0  0
   -1.6630   12.7300   -2.0320 C   0  0  0  0  0  0  0  0  0  0  0  0
   -1.5340   11.3910   -1.3850 C   0  0  0  0  0  0  0  0  0  0  0  0
   -0.4160   10.6430   -1.3510 C   0  0  0  0  0  0  0  0  0  0  0  0
    0.8510   11.0870   -2.0930 C   0  0  1  0  0  0  0  0  0  0  0  0
    1.4340    9.8890   -2.8860 C   0  0  0  0  0  0  0  0  0  0  0  0
    1.6710    8.6650   -2.0070 C   0  0  0  0  0  0  0  0  0  0  0  0
    0.3760    8.2180   -1.3330 C   0  0  2  0  0  0  0  0  0  0  0  0
   -0.5250    7.7400   -2.3370 O   0  0  0  0  0  0  0  0  0  0  0  0
   -0.3070    9.3470   -0.5110 C   0  0  0  0  0  0  0  0  0  0  0  0
    0.5350    9.6550    0.7510 C   0  0  0  0  0  0  0  0  0  0  0  0
   -1.6710    8.8070   -0.0020 C   0  0  0  0  0  0  0  0  0  0  0  0
    0.7120   12.3980   -2.9810 C   0  0  1  0  0  0  0  0  0  0  0  0
    0.1990   12.0220   -4.4050 C   0  0  0  0  0  0  0  0  0  0  0  0
    2.1350   13.0400   -3.1770 C   0  0  0  0  0  0  0  0  0  0  0  0
    2.6020   14.0360   -2.0980 C   0  0  0  0  0  0  0  0  0  0  0  0
    1.5210   15.0830   -1.8130 C   0  0  2  0  0  0  0  0  0  0  0  0
    1.2870   15.9000   -3.1290 C   0  0  0  0  0  0  0  0  0  0  0  0
    3.2488   17.2903    1.1494 H   0  0  0  0  0  0  0  0  0  0  0  0
    4.5305   16.5636    0.1217 H   0  0  0  0  0  0  0  0  0  0  0  0
    4.2802   18.3424    0.1217 H   0  0  0  0  0  0  0  0  0  0  0  0
    3.3500   16.9999   -1.8735 H   0  0  0  0  0  0  0  0  0  0  0  0
    1.7903   19.0039   -0.2436 H   0  0  0  0  0  0  0  0  0  0  0  0
    2.6232   19.1580   -1.8637 H   0  0  0  0  0  0  0  0  0  0  0  0
    0.8528   18.2999   -3.0260 H   0  0  0  0  0  0  0  0  0  0  0  0
    0.2361   17.3654   -1.6002 H   0  0  0  0  0  0  0  0  0  0  0  0
   -0.3782   19.6826   -2.6989 H   0  0  0  0  0  0  0  0  0  0  0  0
   -1.4546   18.3811    1.3727 H   0  0  0  0  0  0  0  0  0  0  0  0
   -2.4378   17.5875    0.0959 H   0  0  0  0  0  0  0  0  0  0  0  0
   -0.6507   17.4062    0.0959 H   0  0  0  0  0  0  0  0  0  0  0  0
   -2.9133   20.4423    0.3853 H   0  0  0  0  0  0  0  0  0  0  0  0
   -2.3128   21.1162   -1.1678 H   0  0  0  0  0  0  0  0  0  0  0  0
   -3.3691   19.6633   -1.1678 H   0  0  0  0  0  0  0  0  0  0  0  0
    2.3536   15.5818    0.1449 H   0  0  0  0  0  0  0  0  0  0  0  0
    0.2901   16.6490    0.8068 H   0  0  0  0  0  0  0  0  0  0  0  0
    0.2082   17.5966   -0.6936 H   0  0  0  0  0  0  0  0  0  0  0  0
   -1.3620   15.2827   -0.1025 H   0  0  0  0  0  0  0  0  0  0  0  0
   -1.1847   15.9700   -1.7150 H   0  0  0  0  0  0  0  0  0  0  0  0
    0.2797   14.2298    0.9250 H   0  0  0  0  0  0  0  0  0  0  0  0
   -0.2129   12.7051    0.1132 H   0  0  0  0  0  0  0  0  0  0  0  0
    1.5122   13.2058    0.1132 H   0  0  0  0  0  0  0  0  0  0  0  0
   -0.5722   14.1418   -3.1779 H   0  0  0  0  0  0  0  0  0  0  0  0
   -2.2193   13.3864   -1.3466 H   0  0  0  0  0  0  0  0  0  0  0  0
   -2.1756   12.5569   -2.9897 H   0  0  0  0  0  0  0  0  0  0  0  0
   -2.4290   10.9809   -0.8943 H   0  0  0  0  0  0  0  0  0  0  0  0
    1.5632   11.4015   -1.3159 H   0  0  0  0  0  0  0  0  0  0  0  0
    0.7281    9.6180   -3.6849 H   0  0  0  0  0  0  0  0  0  0  0  0
    2.4070   10.2005   -3.2938 H   0  0  0  0  0  0  0  0  0  0  0  0
    2.0548    7.8435   -2.6297 H   0  0  0  0  0  0  0  0  0  0  0  0
    2.3998    8.9291   -1.2266 H   0  0  0  0  0  0  0  0  0  0  0  0
    0.6326    7.4216   -0.6189 H   0  0  0  0  0  0  0  0  0  0  0  0
   -0.7180    6.8080   -2.1380 H   0  0  0  0  0  0  0  0  0  0  0  0
   -0.0596    9.4375    1.6505 H   0  0  0  0  0  0  0  0  0  0  0  0
    1.4400    9.0297    0.7496 H   0  0  0  0  0  0  0  0  0  0  0  0
    0.8229   10.7167    0.7496 H   0  0  0  0  0  0  0  0  0  0  0  0
   -1.6770    8.8046    1.0980 H   0  0  0  0  0  0  0  0  0  0  0  0
   -2.4817    9.4520   -0.3717 H   0  0  0  0  0  0  0  0  0  0  0  0
   -1.8205    7.7818   -0.3717 H   0  0  0  0  0  0  0  0  0  0  0  0
   -0.6854   11.3738   -4.3168 H   0  0  0  0  0  0  0  0  0  0  0  0
   -0.0707   12.9379   -4.9513 H   0  0  0  0  0  0  0  0  0  0  0  0
    0.9912   11.4891   -4.9513 H   0  0  0  0  0  0  0  0  0  0  0  0
    2.8678   12.2204   -3.2130 H   0  0  0  0  0  0  0  0  0  0  0  0
    2.0593   13.6314   -4.1014 H   0  0  0  0  0  0  0  0  0  0  0  0
    2.8228   13.4855   -1.1716 H   0  0  0  0  0  0  0  0  0  0  0  0
    3.5021   14.5520   -2.4633 H   0  0  0  0  0  0  0  0  0  0  0  0
    0.9923   16.9288   -2.8744 H   0  0  0  0  0  0  0  0  0  0  0  0
    2.2156   15.9198   -3.7183 H   0  0  0  0  0  0  0  0  0  0  0  0
    0.4887   15.4252   -3.7183 H   0  0  0  0  0  0  0  0  0  0  0  0
  1  2  1  0
  2  3  1  0
  3  4  1  0
  4  5  1  0
  5  6  1  0
  6  7  1  0
  7  8  1  0
  7  9  1  0
  2 10  1  0
 10 11  1  0
 11 12  1  0
 12 13  1  0
 13 14  1  1
 13 15  1  0
 15 16  1  0
 16 17  1  0
 17 18  2  0
 18 19  1  0
 19 20  1  0
 20 21  1  0
 21 22  1  0
 22 23  1  0
 22 24  1  0
 24 25  1  0
 24 26  1  0
 19 27  1  0
 27 28  1  6
 27 29  1  0
 29 30  1  0
 30 31  1  0
 31 32  1  6
  7  5  1  0
 31 10  1  0
 31 13  1  0
 27 15  1  0
 24 18  1  0
  1 33  1  0
  1 34  1  0
  1 35  1  0
  2 36  1  6
  3 37  1  0
  3 38  1  0
  4 39  1  0
  4 40  1  0
  5 41  1  6
  8 42  1  0
  8 43  1  0
  8 44  1  0
  9 45  1  0
  9 46  1  0
  9 47  1  0
 10 48  1  1
 11 49  1  0
 11 50  1  0
 12 51  1  0
 12 52  1  0
 14 53  1  0
 14 54  1  0
 14 55  1  0
 15 56  1  6
 16 57  1  0
 16 58  1  0
 17 59  1  0
 19 60  1  1
 20 61  1  0
 20 62  1  0
 21 63  1  0
 21 64  1  0
 22 65  1  1
 23 66  1  0
 25 67  1  0
 25 68  1  0
 25 69  1  0
 26 70  1  0
 26 71  1  0
 26 72  1  0
 28 73  1  0
 28 74  1  0
 28 75  1  0
 29 76  1  0
 29 77  1  0
 30 78  1  0
 30 79  1  0
 32 80  1  0
 32 81  1  0
 32 82  1  0
M  END
>  <meeko>  (12) 
{"is_sidechain": [false], "intermolecular_energy": 2.731, "internal_energy": -0.839}

$$$$
EPH_relaxed_0001_pdb2pqr_Repair_65_r2_0001_out
     RDKit          3D

 82 86  0  0  0  0  0  0  0  0999 V2000
   -2.0450    7.8060   -2.3140 C   0  0  0  0  0  0  0  0  0  0  0  0
   -2.2090    8.4790   -0.9490 C   0  0  2  0  0  0  0  0  0  0  0  0
   -3.6750    8.4700   -0.4690 C   0  0  0  0  0  0  0  0  0  0  0  0
   -4.6440    7.8270   -1.4650 C   0  0  0  0  0  0  0  0  0  0  0  0
   -5.8190    7.2070   -0.7720 C   0  0  2  0  0  0  0  0  0  0  0  0
   -6.4170    6.1090   -1.4740 O   0  0  0  0  0  0  0  0  0  0  0  0
   -7.2380    7.2760   -1.3060 C   0  0  0  0  0  0  0  0  0  0  0  0
   -7.5560    7.9860   -2.5840 C   0  0  0  0  0  0  0  0  0  0  0  0
   -8.3730    7.0830   -0.3490 C   0  0  0  0  0  0  0  0  0  0  0  0
   -1.6900    9.9110   -1.0100 C   0  0  1  0  0  0  0  0  0  0  0  0
   -1.2650   10.4520    0.3810 C   0  0  0  0  0  0  0  0  0  0  0  0
   -0.0470   11.3820    0.1470 C   0  0  0  0  0  0  0  0  0  0  0  0
   -0.0170   11.6070   -1.3830 C   0  0  1  0  0  0  0  0  0  0  0  0
   -1.0780   12.7220   -1.6450 C   0  0  0  0  0  0  0  0  0  0  0  0
    1.3720   11.9750   -2.0000 C   0  0  2  0  0  0  0  0  0  0  0  0
    1.9770   13.2990   -1.5020 C   0  0  0  0  0  0  0  0  0  0  0  0
    1.6160   14.5060   -2.3030 C   0  0  0  0  0  0  0  0  0  0  0  0
    1.0750   14.4950   -3.5350 C   0  0  0  0  0  0  0  0  0  0  0  0
    0.8620   13.1760   -4.2890 C   0  0  1  0  0  0  0  0  0  0  0  0
    1.3680   13.3260   -5.7480 C   0  0  0  0  0  0  0  0  0  0  0  0
    0.7390   14.5170   -6.4660 C   0  0  0  0  0  0  0  0  0  0  0  0
    1.0220   15.8160   -5.7160 C   0  0  2  0  0  0  0  0  0  0  0  0
    2.4250   16.0890   -5.7810 O   0  0  0  0  0  0  0  0  0  0  0  0
    0.5640   15.7800   -4.2320 C   0  0  0  0  0  0  0  0  0  0  0  0
   -0.9830   15.7880   -4.1640 C   0  0  0  0  0  0  0  0  0  0  0  0
    1.0350   17.0960   -3.5540 C   0  0  0  0  0  0  0  0  0  0  0  0
    1.4270   11.8720   -3.5790 C   0  0  1  0  0  0  0  0  0  0  0  0
    2.9250   11.6650   -3.9590 C   0  0  0  0  0  0  0  0  0  0  0  0
    0.6540   10.6130   -4.1230 C   0  0  0  0  0  0  0  0  0  0  0  0
   -0.6490   10.2300   -3.3960 C   0  0  0  0  0  0  0  0  0  0  0  0
   -0.4360   10.1760   -1.8800 C   0  0  2  0  0  0  0  0  0  0  0  0
    0.6100    9.0470   -1.5850 C   0  0  0  0  0  0  0  0  0  0  0  0
   -1.7868    6.7463   -2.1717 H   0  0  0  0  0  0  0  0  0  0  0  0
   -2.9878    7.8814   -2.8756 H   0  0  0  0  0  0  0  0  0  0  0  0
   -1.2426    8.3067   -2.8756 H   0  0  0  0  0  0  0  0  0  0  0  0
   -1.6201    7.9004   -0.2220 H   0  0  0  0  0  0  0  0  0  0  0  0
   -3.7274    7.9110    0.4770 H   0  0  0  0  0  0  0  0  0  0  0  0
   -3.9822    9.5199   -0.3532 H   0  0  0  0  0  0  0  0  0  0  0  0
   -5.0063    8.5993   -2.1595 H   0  0  0  0  0  0  0  0  0  0  0  0
   -4.1057    7.0337   -2.0044 H   0  0  0  0  0  0  0  0  0  0  0  0
   -5.3897    7.4388    0.2139 H   0  0  0  0  0  0  0  0  0  0  0  0
   -7.9960    8.9685   -2.3579 H   0  0  0  0  0  0  0  0  0  0  0  0
   -6.6332    8.1229   -3.1668 H   0  0  0  0  0  0  0  0  0  0  0  0
   -8.2726    7.3886   -3.1668 H   0  0  0  0  0  0  0  0  0  0  0  0
   -7.9974    7.1469    0.6829 H   0  0  0  0  0  0  0  0  0  0  0  0
   -9.1283    7.8656   -0.5134 H   0  0  0  0  0  0  0  0  0  0  0  0
   -8.8272    6.0947   -0.5134 H   0  0  0  0  0  0  0  0  0  0  0  0
   -2.5669   10.4064   -1.4523 H   0  0  0  0  0  0  0  0  0  0  0  0
   -2.0915   11.0177    0.8359 H   0  0  0  0  0  0  0  0  0  0  0  0
   -1.0073    9.6282    1.0629 H   0  0  0  0  0  0  0  0  0  0  0  0
   -0.1795   12.3365    0.6775 H   0  0  0  0  0  0  0  0  0  0  0  0
    0.8899   10.9453    0.5231 H   0  0  0  0  0  0  0  0  0  0  0  0
   -1.4471   13.1099   -0.6841 H   0  0  0  0  0  0  0  0  0  0  0  0
   -0.6165   13.5400   -2.2177 H   0  0  0  0  0  0  0  0  0  0  0  0
   -1.9178   12.3017   -2.2177 H   0  0  0  0  0  0  0  0  0  0  0  0
    2.0237   11.1818   -1.6049 H   0  0  0  0  0  0  0  0  0  0  0  0
    1.6352   13.4617   -0.4692 H   0  0  0  0  0  0  0  0  0  0  0  0
    3.0677   13.1885   -1.5927 H   0  0  0  0  0  0  0  0  0  0  0  0
    1.8087   15.4883   -1.8471 H   0  0  0  0  0  0  0  0  0  0  0  0
   -0.2233   12.9967   -4.2864 H   0  0  0  0  0  0  0  0  0  0  0  0
    2.4595   13.4611   -5.7305 H   0  0  0  0  0  0  0  0  0  0  0  0
    1.0814   12.4163   -6.2960 H   0  0  0  0  0  0  0  0  0  0  0  0
    1.1579   14.5882   -7.4806 H   0  0  0  0  0  0  0  0  0  0  0  0
   -0.3497   14.3663   -6.5098 H   0  0  0  0  0  0  0  0  0  0  0  0
    0.4394   16.6117   -6.2033 H   0  0  0  0  0  0  0  0  0  0  0  0
    2.6550   16.2290   -6.7150 H   0  0  0  0  0  0  0  0  0  0  0  0
   -1.3038   15.7897   -3.1118 H   0  0  0  0  0  0  0  0  0  0  0  0
   -1.3674   16.6881   -4.6659 H   0  0  0  0  0  0  0  0  0  0  0  0
   -1.3767   14.8919   -4.6659 H   0  0  0  0  0  0  0  0  0  0  0  0
    0.9936   16.9805   -2.4609 H   0  0  0  0  0  0  0  0  0  0  0  0
    2.0680   17.3170   -3.8605 H   0  0  0  0  0  0  0  0  0  0  0  0
    0.3768   17.9223   -3.8605 H   0  0  0  0  0  0  0  0  0  0  0  0
    3.5276   11.5817   -3.0425 H   0  0  0  0  0  0  0  0  0  0  0  0
    3.0291   10.7439   -4.5513 H   0  0  0  0  0  0  0  0  0  0  0  0
    3.2750   12.5233   -4.5513 H   0  0  0  0  0  0  0  0  0  0  0  0
    0.4028   10.8063   -5.1764 H   0  0  0  0  0  0  0  0  0  0  0  0
    1.3348    9.7646   -3.9594 H   0  0  0  0  0  0  0  0  0  0  0  0
   -1.4218   10.9788   -3.6243 H   0  0  0  0  0  0  0  0  0  0  0  0
   -0.9635    9.2341   -3.7415 H   0  0  0  0  0  0  0  0  0  0  0  0
    0.7221    8.9261   -0.4974 H   0  0  0  0  0  0  0  0  0  0  0  0
    0.2622    8.1008   -2.0253 H   0  0  0  0  0  0  0  0  0  0  0  0
    1.5799    9.3216   -2.0253 H   0  0  0  0  0  0  0  0  0  0  0  0
  1  2  1  0
  2  3  1  0
  3  4  1  0
  4  5  1  0
  5  6  1  0
  6  7  1  0
  7  8  1  0
  7  9  1  0
  2 10  1  0
 10 11  1  0
 11 12  1  0
 12 13  1  0
 13 14  1  1
 13 15  1  0
 15 16  1  0
 16 17  1  0
 17 18  2  0
 18 19  1  0
 19 20  1  0
 20 21  1  0
 21 22  1  0
 22 23  1  0
 22 24  1  0
 24 25  1  0
 24 26  1  0
 19 27  1  0
 27 28  1  1
 27 29  1  0
 29 30  1  0
 30 31  1  0
 31 32  1  6
  7  5  1  0
 31 10  1  0
 31 13  1  0
 27 15  1  0
 24 18  1  0
  1 33  1  0
  1 34  1  0
  1 35  1  0
  2 36  1  1
  3 37  1  0
  3 38  1  0
  4 39  1  0
  4 40  1  0
  5 41  1  1
  8 42  1  0
  8 43  1  0
  8 44  1  0
  9 45  1  0
  9 46  1  0
  9 47  1  0
 10 48  1  6
 11 49  1  0
 11 50  1  0
 12 51  1  0
 12 52  1  0
 14 53  1  0
 14 54  1  0
 14 55  1  0
 15 56  1  1
 16 57  1  0
 16 58  1  0
 17 59  1  0
 19 60  1  6
 20 61  1  0
 20 62  1  0
 21 63  1  0
 21 64  1  0
 22 65  1  6
 23 66  1  0
 25 67  1  0
 25 68  1  0
 25 69  1  0
 26 70  1  0
 26 71  1  0
 26 72  1  0
 28 73  1  0
 28 74  1  0
 28 75  1  0
 29 76  1  0
 29 77  1  0
 30 78  1  0
 30 79  1  0
 32 80  1  0
 32 81  1  0
 32 82  1  0
M  END
>  <meeko>  (13) 
{"is_sidechain": [false], "intermolecular_energy": 2.731, "internal_energy": -0.839}

$$$$
EPH_relaxed_0001_pdb2pqr_Repair_65_r2_0001_out
     RDKit          3D

 82 86  0  0  0  0  0  0  0  0999 V2000
   -4.1160    7.3580   -3.7990 C   0  0  0  0  0  0  0  0  0  0  0  0
   -3.7030    7.2440   -2.3290 C   0  0  2  0  0  0  0  0  0  0  0  0
   -4.8550    6.7350   -1.4400 C   0  0  0  0  0  0  0  0  0  0  0  0
   -6.1700    6.5280   -2.1960 C   0  0  0  0  0  0  0  0  0  0  0  0
   -7.3240    6.3350   -1.2580 C   0  0  2  0  0  0  0  0  0  0  0  0
   -8.4390    5.6290   -1.8190 O   0  0  0  0  0  0  0  0  0  0  0  0
   -8.6760    6.9970   -1.4480 C   0  0  0  0  0  0  0  0  0  0  0  0
   -8.9440    7.9040   -2.6070 C   0  0  0  0  0  0  0  0  0  0  0  0
   -9.5690    7.1530   -0.2570 C   0  0  0  0  0  0  0  0  0  0  0  0
   -3.2100    8.5940   -1.8210 C   0  0  1  0  0  0  0  0  0  0  0  0
   -3.9500    9.0550   -0.5370 C   0  0  0  0  0  0  0  0  0  0  0  0
   -2.9130    9.8160    0.3280 C   0  0  0  0  0  0  0  0  0  0  0  0
   -1.7150   10.0560   -0.6210 C   0  0  1  0  0  0  0  0  0  0  0  0
   -2.1160   11.3070   -1.4650 C   0  0  0  0  0  0  0  0  0  0  0  0
   -0.3200   10.2430    0.0610 C   0  0  2  0  0  0  0  0  0  0  0  0
   -0.2050   11.4680    0.9850 C   0  0  0  0  0  0  0  0  0  0  0  0
    0.2630   12.7230    0.3260 C   0  0  0  0  0  0  0  0  0  0  0  0
    0.8470   12.8000   -0.8840 C   0  0  0  0  0  0  0  0  0  0  0  0
    1.1800   11.5320   -1.6800 C   0  0  1  0  0  0  0  0  0  0  0  0
    2.6260   11.6320   -2.2330 C   0  0  0  0  0  0  0  0  0  0  0  0
    2.8560   12.9060   -3.0410 C   0  0  0  0  0  0  0  0  0  0  0  0
    2.5700   14.1460   -2.1980 C   0  0  2  0  0  0  0  0  0  0  0  0
    3.5470   14.2300   -1.1560 O   0  0  0  0  0  0  0  0  0  0  0  0
    1.1440   14.1510   -1.5790 C   0  0  0  0  0  0  0  0  0  0  0  0
    0.0930   14.3650   -2.6970 C   0  0  0  0  0  0  0  0  0  0  0  0
    1.0360   15.3830   -0.6410 C   0  0  0  0  0  0  0  0  0  0  0  0
    0.9050   10.1540   -0.9360 C   0  0  1  0  0  0  0  0  0  0  0  0
    2.1470    9.7550   -0.0810 C   0  0  0  0  0  0  0  0  0  0  0  0
    0.7220    9.0180   -2.0100 C   0  0  0  0  0  0  0  0  0  0  0  0
   -0.7020    8.8030   -2.5580 C   0  0  0  0  0  0  0  0  0  0  0  0
   -1.7190    8.7000   -1.4160 C   0  0  2  0  0  0  0  0  0  0  0  0
   -1.3540    7.4380   -0.5620 C   0  0  0  0  0  0  0  0  0  0  0  0
   -5.1747    7.6502   -3.8608 H   0  0  0  0  0  0  0  0  0  0  0  0
   -3.4960    8.1186   -4.2961 H   0  0  0  0  0  0  0  0  0  0  0  0
   -3.9740    6.3871   -4.2961 H   0  0  0  0  0  0  0  0  0  0  0  0
   -2.8899    6.5055   -2.2702 H   0  0  0  0  0  0  0  0  0  0  0  0
   -4.5537    5.7740   -0.9975 H   0  0  0  0  0  0  0  0  0  0  0  0
   -5.0396    7.5077   -0.6792 H   0  0  0  0  0  0  0  0  0  0  0  0
   -6.3638    7.4110   -2.8228 H   0  0  0  0  0  0  0  0  0  0  0  0
   -6.0729    5.6216   -2.8116 H   0  0  0  0  0  0  0  0  0  0  0  0
   -6.6444    6.2801   -0.3948 H   0  0  0  0  0  0  0  0  0  0  0  0
   -9.2374    8.8969   -2.2354 H   0  0  0  0  0  0  0  0  0  0  0  0
   -8.0345    7.9955   -3.2189 H   0  0  0  0  0  0  0  0  0  0  0  0
   -9.7572    7.4865   -3.2189 H   0  0  0  0  0  0  0  0  0  0  0  0
   -8.9748    7.0492    0.6629 H   0  0  0  0  0  0  0  0  0  0  0  0
  -10.0397    8.1470   -0.2793 H   0  0  0  0  0  0  0  0  0  0  0  0
  -10.3488    6.3775   -0.2793 H   0  0  0  0  0  0  0  0  0  0  0  0
   -3.4019    9.2082   -2.7132 H   0  0  0  0  0  0  0  0  0  0  0  0
   -4.7855    9.7205   -0.7996 H   0  0  0  0  0  0  0  0  0  0  0  0
   -4.3655    8.1955    0.0095 H   0  0  0  0  0  0  0  0  0  0  0  0
   -3.3275   10.7723    0.6797 H   0  0  0  0  0  0  0  0  0  0  0  0
   -2.6261    9.2523    1.2280 H   0  0  0  0  0  0  0  0  0  0  0  0
   -2.3813   12.1346   -0.7907 H   0  0  0  0  0  0  0  0  0  0  0  0
   -1.2693   11.6080   -2.0995 H   0  0  0  0  0  0  0  0  0  0  0  0
   -2.9799   11.0597   -2.0995 H   0  0  0  0  0  0  0  0  0  0  0  0
   -0.2593    9.3647    0.7205 H   0  0  0  0  0  0  0  0  0  0  0  0
   -1.1976   11.6614    1.4179 H   0  0  0  0  0  0  0  0  0  0  0  0
    0.5605   11.2138    1.7330 H   0  0  0  0  0  0  0  0  0  0  0  0
    0.1183   13.6646    0.8760 H   0  0  0  0  0  0  0  0  0  0  0  0
    0.4632   11.4996   -2.5138 H   0  0  0  0  0  0  0  0  0  0  0  0
    3.3289   11.6192   -1.3870 H   0  0  0  0  0  0  0  0  0  0  0  0
    2.7866   10.7763   -2.9053 H   0  0  0  0  0  0  0  0  0  0  0  0
    3.9024   12.9340   -3.3789 H   0  0  0  0  0  0  0  0  0  0  0  0
    2.1732   12.9027   -3.9034 H   0  0  0  0  0  0  0  0  0  0  0  0
    2.6248   15.0185   -2.8656 H   0  0  0  0  0  0  0  0  0  0  0  0
    3.0770   14.4200   -0.3270 H   0  0  0  0  0  0  0  0  0  0  0  0
   -0.8891   14.5650   -2.2436 H   0  0  0  0  0  0  0  0  0  0  0  0
    0.3901   15.2211   -3.3206 H   0  0  0  0  0  0  0  0  0  0  0  0
    0.0317   13.4609   -3.3206 H   0  0  0  0  0  0  0  0  0  0  0  0
    1.0652   15.0497    0.4069 H   0  0  0  0  0  0  0  0  0  0  0  0
    1.8778   16.0646   -0.8326 H   0  0  0  0  0  0  0  0  0  0  0  0
    0.0884   15.9078   -0.8326 H   0  0  0  0  0  0  0  0  0  0  0  0
    1.8977    9.8351    0.9874 H   0  0  0  0  0  0  0  0  0  0  0  0
    2.4349    8.7192   -0.3137 H   0  0  0  0  0  0  0  0  0  0  0  0
    2.9843   10.4294   -0.3137 H   0  0  0  0  0  0  0  0  0  0  0  0
    1.3740    9.2581   -2.8628 H   0  0  0  0  0  0  0  0  0  0  0  0
    0.9731    8.0837   -1.4865 H   0  0  0  0  0  0  0  0  0  0  0  0
   -0.9710    9.6517   -3.2041 H   0  0  0  0  0  0  0  0  0  0  0  0
   -0.7199    7.8634   -3.1297 H   0  0  0  0  0  0  0  0  0  0  0  0
   -1.4256    7.6857    0.5074 H   0  0  0  0  0  0  0  0  0  0  0  0
   -2.0528    6.6217   -0.7969 H   0  0  0  0  0  0  0  0  0  0  0  0
   -0.3273    7.1207   -0.7969 H   0  0  0  0  0  0  0  0  0  0  0  0
  1  2  1  0
  2  3  1  0
  3  4  1  0
  4  5  1  0
  5  6  1  0
  6  7  1  0
  7  8  1  0
  7  9  1  0
  2 10  1  0
 10 11  1  0
 11 12  1  0
 12 13  1  0
 13 14  1  6
 13 15  1  0
 15 16  1  0
 16 17  1  0
 17 18  2  0
 18 19  1  0
 19 20  1  0
 20 21  1  0
 21 22  1  0
 22 23  1  0
 22 24  1  0
 24 25  1  0
 24 26  1  0
 19 27  1  0
 27 28  1  1
 27 29  1  0
 29 30  1  0
 30 31  1  0
 31 32  1  1
  7  5  1  0
 31 10  1  0
 31 13  1  0
 27 15  1  0
 24 18  1  0
  1 33  1  0
  1 34  1  0
  1 35  1  0
  2 36  1  6
  3 37  1  0
  3 38  1  0
  4 39  1  0
  4 40  1  0
  5 41  1  1
  8 42  1  0
  8 43  1  0
  8 44  1  0
  9 45  1  0
  9 46  1  0
  9 47  1  0
 10 48  1  6
 11 49  1  0
 11 50  1  0
 12 51  1  0
 12 52  1  0
 14 53  1  0
 14 54  1  0
 14 55  1  0
 15 56  1  1
 16 57  1  0
 16 58  1  0
 17 59  1  0
 19 60  1  6
 20 61  1  0
 20 62  1  0
 21 63  1  0
 21 64  1  0
 22 65  1  6
 23 66  1  0
 25 67  1  0
 25 68  1  0
 25 69  1  0
 26 70  1  0
 26 71  1  0
 26 72  1  0
 28 73  1  0
 28 74  1  0
 28 75  1  0
 29 76  1  0
 29 77  1  0
 30 78  1  0
 30 79  1  0
 32 80  1  0
 32 81  1  0
 32 82  1  0
M  END
>  <meeko>  (14) 
{"is_sidechain": [false], "intermolecular_energy": 2.731, "internal_energy": -0.839}

$$$$
EPH_relaxed_0001_pdb2pqr_Repair_65_r2_0001_out
     RDKit          3D

 82 86  0  0  0  0  0  0  0  0999 V2000
    0.7560    9.3810   -0.0020 C   0  0  0  0  0  0  0  0  0  0  0  0
   -0.4210   10.3570   -0.0730 C   0  0  2  0  0  0  0  0  0  0  0  0
   -1.0450   10.4110   -1.4820 C   0  0  0  0  0  0  0  0  0  0  0  0
   -0.1560    9.8080   -2.5730 C   0  0  0  0  0  0  0  0  0  0  0  0
   -0.0710   10.6990   -3.7750 C   0  0  2  0  0  0  0  0  0  0  0  0
    0.5220   10.0920   -4.9300 O   0  0  0  0  0  0  0  0  0  0  0  0
    1.2390   11.1970   -4.3560 C   0  0  0  0  0  0  0  0  0  0  0  0
    2.5540   10.8210   -3.7500 C   0  0  0  0  0  0  0  0  0  0  0  0
    1.2230   12.4310   -5.2030 C   0  0  0  0  0  0  0  0  0  0  0  0
    0.0320   11.7500    0.3490 C   0  0  1  0  0  0  0  0  0  0  0  0
    1.1600   11.7130    1.4150 C   0  0  0  0  0  0  0  0  0  0  0  0
    2.0900   12.9190    1.1250 C   0  0  0  0  0  0  0  0  0  0  0  0
    1.2950   13.7910    0.1250 C   0  0  1  0  0  0  0  0  0  0  0  0
    0.3010   14.6090    1.0070 C   0  0  0  0  0  0  0  0  0  0  0  0
    2.1410   14.7220   -0.8050 C   0  0  2  0  0  0  0  0  0  0  0  0
    2.9660   15.7970   -0.0760 C   0  0  0  0  0  0  0  0  0  0  0  0
    2.2710   17.1030    0.1290 C   0  0  0  0  0  0  0  0  0  0  0  0
    1.1500   17.4990   -0.5010 C   0  0  0  0  0  0  0  0  0  0  0  0
    0.5170   16.6370   -1.6010 C   0  0  1  0  0  0  0  0  0  0  0  0
    0.1590   17.5300   -2.8170 C   0  0  0  0  0  0  0  0  0  0  0  0
   -0.7160   18.7190   -2.4320 C   0  0  0  0  0  0  0  0  0  0  0  0
   -0.0280   19.5850   -1.3800 C   0  0  2  0  0  0  0  0  0  0  0  0
    1.1260   20.1940   -1.9660 O   0  0  0  0  0  0  0  0  0  0  0  0
    0.3880   18.7900   -0.1100 C   0  0  0  0  0  0  0  0  0  0  0  0
   -0.8750   18.3860    0.6890 C   0  0  0  0  0  0  0  0  0  0  0  0
    1.1950   19.7470    0.8080 C   0  0  0  0  0  0  0  0  0  0  0  0
    1.3310   15.3370   -2.0170 C   0  0  1  0  0  0  0  0  0  0  0  0
    2.3780   15.6940   -3.1160 C   0  0  0  0  0  0  0  0  0  0  0  0
    0.3430   14.2970   -2.6650 C   0  0  0  0  0  0  0  0  0  0  0  0
   -0.3720   13.3270   -1.7060 C   0  0  0  0  0  0  0  0  0  0  0  0
    0.6250   12.6680   -0.7480 C   0  0  2  0  0  0  0  0  0  0  0  0
    1.6250   11.8210   -1.6060 C   0  0  0  0  0  0  0  0  0  0  0  0
    1.0009    9.1779    1.0510 H   0  0  0  0  0  0  0  0  0  0  0  0
    0.4832    8.4405   -0.5030 H   0  0  0  0  0  0  0  0  0  0  0  0
    1.6298    9.8232   -0.5030 H   0  0  0  0  0  0  0  0  0  0  0  0
   -1.1952    9.9927    0.6183 H   0  0  0  0  0  0  0  0  0  0  0  0
   -1.9949    9.8567   -1.4625 H   0  0  0  0  0  0  0  0  0  0  0  0
   -1.1837   11.4733   -1.7314 H   0  0  0  0  0  0  0  0  0  0  0  0
    0.8555    9.6599   -2.1670 H   0  0  0  0  0  0  0  0  0  0  0  0
   -0.5994    8.8513   -2.8863 H   0  0  0  0  0  0  0  0  0  0  0  0
   -0.9941   11.2207   -3.4825 H   0  0  0  0  0  0  0  0  0  0  0  0
    2.4724   10.8443   -2.6533 H   0  0  0  0  0  0  0  0  0  0  0  0
    2.8314    9.8076   -4.0756 H   0  0  0  0  0  0  0  0  0  0  0  0
    3.3252   11.5346   -4.0756 H   0  0  0  0  0  0  0  0  0  0  0  0
    1.2115   13.3201   -4.5554 H   0  0  0  0  0  0  0  0  0  0  0  0
    2.1210   12.4515   -5.8380 H   0  0  0  0  0  0  0  0  0  0  0  0
    0.3248   12.4282   -5.8380 H   0  0  0  0  0  0  0  0  0  0  0  0
   -0.9271   12.1571    0.7016 H   0  0  0  0  0  0  0  0  0  0  0  0
    0.7305   11.8000    2.4240 H   0  0  0  0  0  0  0  0  0  0  0  0
    1.7164   10.7653    1.3682 H   0  0  0  0  0  0  0  0  0  0  0  0
    2.2992   13.4792    2.0482 H   0  0  0  0  0  0  0  0  0  0  0  0
    3.0656   12.6073    0.7238 H   0  0  0  0  0  0  0  0  0  0  0  0
    0.5201   14.4287    2.0698 H   0  0  0  0  0  0  0  0  0  0  0  0
    0.4118   15.6810    0.7865 H   0  0  0  0  0  0  0  0  0  0  0  0
   -0.7296   14.2939    0.7865 H   0  0  0  0  0  0  0  0  0  0  0  0
    2.8743   14.0233   -1.2340 H   0  0  0  0  0  0  0  0  0  0  0  0
    3.2437   15.4008    0.9119 H   0  0  0  0  0  0  0  0  0  0  0  0
    3.8295   16.0096   -0.7234 H   0  0  0  0  0  0  0  0  0  0  0  0
    2.7129   17.7999    0.8564 H   0  0  0  0  0  0  0  0  0  0  0  0
   -0.4006   16.2142   -1.1660 H   0  0  0  0  0  0  0  0  0  0  0  0
    1.0906   17.9077   -3.2636 H   0  0  0  0  0  0  0  0  0  0  0  0
   -0.4098   16.9132   -3.5283 H   0  0  0  0  0  0  0  0  0  0  0  0
   -0.9110   19.3273   -3.3275 H   0  0  0  0  0  0  0  0  0  0  0  0
   -1.6591   18.3393   -2.0119 H   0  0  0  0  0  0  0  0  0  0  0  0
   -0.7532   20.3442   -1.0519 H   0  0  0  0  0  0  0  0  0  0  0  0
    1.8680   20.0720   -1.3500 H   0  0  0  0  0  0  0  0  0  0  0  0
   -0.6643   18.4534    1.7665 H   0  0  0  0  0  0  0  0  0  0  0  0
   -1.7027   19.0642    0.4341 H   0  0  0  0  0  0  0  0  0  0  0  0
   -1.1554   17.3533    0.4341 H   0  0  0  0  0  0  0  0  0  0  0  0
    0.9903   19.5042    1.8611 H   0  0  0  0  0  0  0  0  0  0  0  0
    2.2699   19.6285    0.6067 H   0  0  0  0  0  0  0  0  0  0  0  0
    0.8967   20.7865    0.6067 H   0  0  0  0  0  0  0  0  0  0  0  0
    3.3160   16.0138   -2.6387 H   0  0  0  0  0  0  0  0  0  0  0  0
    2.5681   14.8099   -3.7423 H   0  0  0  0  0  0  0  0  0  0  0  0
    1.9884   16.5101   -3.7423 H   0  0  0  0  0  0  0  0  0  0  0  0
   -0.4311   14.8640   -3.2029 H   0  0  0  0  0  0  0  0  0  0  0  0
    0.9737   13.6592   -3.3017 H   0  0  0  0  0  0  0  0  0  0  0  0
   -1.1184   13.8844   -1.1210 H   0  0  0  0  0  0  0  0  0  0  0  0
   -0.8584   12.5403   -2.3014 H   0  0  0  0  0  0  0  0  0  0  0  0
    2.2926   11.2556   -0.9392 H   0  0  0  0  0  0  0  0  0  0  0  0
    1.0619   11.1210   -2.2407 H   0  0  0  0  0  0  0  0  0  0  0  0
    2.2228   12.4917   -2.2407 H   0  0  0  0  0  0  0  0  0  0  0  0
  1  2  1  0
  2  3  1  0
  3  4  1  0
  4  5  1  0
  5  6  1  0
  6  7  1  0
  7  8  1  0
  7  9  1  0
  2 10  1  0
 10 11  1  0
 11 12  1  0
 12 13  1  0
 13 14  1  1
 13 15  1  0
 15 16  1  0
 16 17  1  0
 17 18  2  0
 18 19  1  0
 19 20  1  0
 20 21  1  0
 21 22  1  0
 22 23  1  0
 22 24  1  0
 24 25  1  0
 24 26  1  0
 19 27  1  0
 27 28  1  6
 27 29  1  0
 29 30  1  0
 30 31  1  0
 31 32  1  6
  7  5  1  0
 31 10  1  0
 31 13  1  0
 27 15  1  0
 24 18  1  0
  1 33  1  0
  1 34  1  0
  1 35  1  0
  2 36  1  1
  3 37  1  0
  3 38  1  0
  4 39  1  0
  4 40  1  0
  5 41  1  6
  8 42  1  0
  8 43  1  0
  8 44  1  0
  9 45  1  0
  9 46  1  0
  9 47  1  0
 10 48  1  1
 11 49  1  0
 11 50  1  0
 12 51  1  0
 12 52  1  0
 14 53  1  0
 14 54  1  0
 14 55  1  0
 15 56  1  6
 16 57  1  0
 16 58  1  0
 17 59  1  0
 19 60  1  1
 20 61  1  0
 20 62  1  0
 21 63  1  0
 21 64  1  0
 22 65  1  1
 23 66  1  0
 25 67  1  0
 25 68  1  0
 25 69  1  0
 26 70  1  0
 26 71  1  0
 26 72  1  0
 28 73  1  0
 28 74  1  0
 28 75  1  0
 29 76  1  0
 29 77  1  0
 30 78  1  0
 30 79  1  0
 32 80  1  0
 32 81  1  0
 32 82  1  0
M  END
>  <meeko>  (15) 
{"is_sidechain": [false], "intermolecular_energy": 2.731, "internal_energy": -0.839}

$$$$
EPH_relaxed_0001_pdb2pqr_Repair_65_r2_0001_out
     RDKit          3D

 82 86  0  0  0  0  0  0  0  0999 V2000
   -1.1200    6.8680   -3.0840 C   0  0  0  0  0  0  0  0  0  0  0  0
   -2.3810    7.3300   -2.3490 C   0  0  2  0  0  0  0  0  0  0  0  0
   -3.6390    7.2340   -3.2350 C   0  0  0  0  0  0  0  0  0  0  0  0
   -4.5810    6.0910   -2.8460 C   0  0  0  0  0  0  0  0  0  0  0  0
   -5.9810    6.3420   -3.3170 C   0  0  2  0  0  0  0  0  0  0  0  0
   -6.4340    7.6920   -3.1550 O   0  0  0  0  0  0  0  0  0  0  0  0
   -7.1260    6.6950   -2.3860 C   0  0  0  0  0  0  0  0  0  0  0  0
   -6.9220    6.8160   -0.9080 C   0  0  0  0  0  0  0  0  0  0  0  0
   -8.5280    6.4430   -2.8480 C   0  0  0  0  0  0  0  0  0  0  0  0
   -2.2000    8.7610   -1.8550 C   0  0  1  0  0  0  0  0  0  0  0  0
   -3.2100    9.1410   -0.7400 C   0  0  0  0  0  0  0  0  0  0  0  0
   -2.4670   10.0940    0.2300 C   0  0  0  0  0  0  0  0  0  0  0  0
   -1.1780   10.4940   -0.5260 C   0  0  1  0  0  0  0  0  0  0  0  0
   -1.6210   11.6280   -1.5020 C   0  0  0  0  0  0  0  0  0  0  0  0
    0.0340   10.9340    0.3590 C   0  0  2  0  0  0  0  0  0  0  0  0
   -0.2030   12.1940    1.2100 C   0  0  0  0  0  0  0  0  0  0  0  0
    0.1670   13.4840    0.5560 C   0  0  0  0  0  0  0  0  0  0  0  0
    0.9290   13.6110   -0.5470 C   0  0  0  0  0  0  0  0  0  0  0  0
    1.5870   12.3870   -1.1960 C   0  0  1  0  0  0  0  0  0  0  0  0
    3.0720   12.7040   -1.5130 C   0  0  0  0  0  0  0  0  0  0  0  0
    3.2330   13.9670   -2.3530 C   0  0  0  0  0  0  0  0  0  0  0  0
    2.6180   15.1740   -1.6490 C   0  0  2  0  0  0  0  0  0  0  0  0
    3.3780   15.4560   -0.4700 O   0  0  0  0  0  0  0  0  0  0  0  0
    1.1250   14.9660   -1.2700 C   0  0  0  0  0  0  0  0  0  0  0  0
    0.2580   14.9620   -2.5540 C   0  0  0  0  0  0  0  0  0  0  0  0
    0.6670   16.1970   -0.4420 C   0  0  0  0  0  0  0  0  0  0  0  0
    1.4100   11.0110   -0.4190 C   0  0  1  0  0  0  0  0  0  0  0  0
    2.5350   10.8540    0.6490 C   0  0  0  0  0  0  0  0  0  0  0  0
    1.5910    9.8210   -1.4340 C   0  0  0  0  0  0  0  0  0  0  0  0
    0.3330    9.3540   -2.1890 C   0  0  0  0  0  0  0  0  0  0  0  0
   -0.8340    9.1270   -1.2230 C   0  0  2  0  0  0  0  0  0  0  0  0
   -0.4260    7.9750   -0.2420 C   0  0  0  0  0  0  0  0  0  0  0  0
   -0.3505    6.5861   -2.3503 H   0  0  0  0  0  0  0  0  0  0  0  0
   -1.3607    5.9997   -3.7149 H   0  0  0  0  0  0  0  0  0  0  0  0
   -0.7428    7.6863   -3.7149 H   0  0  0  0  0  0  0  0  0  0  0  0
   -2.5292    6.6563   -1.4921 H   0  0  0  0  0  0  0  0  0  0  0  0
   -4.1920    8.1816   -3.1565 H   0  0  0  0  0  0  0  0  0  0  0  0
   -3.2951    7.0320   -4.2602 H   0  0  0  0  0  0  0  0  0  0  0  0
   -4.2147    5.1576   -3.2983 H   0  0  0  0  0  0  0  0  0  0  0  0
   -4.5964    6.0178   -1.7485 H   0  0  0  0  0  0  0  0  0  0  0  0
   -5.8780    5.5805   -4.1041 H   0  0  0  0  0  0  0  0  0  0  0  0
   -7.7528    6.3233   -0.3816 H   0  0  0  0  0  0  0  0  0  0  0  0
   -5.9735    6.3344   -0.6281 H   0  0  0  0  0  0  0  0  0  0  0  0
   -6.8899    7.8793   -0.6281 H   0  0  0  0  0  0  0  0  0  0  0  0
   -9.1862    6.3247   -1.9746 H   0  0  0  0  0  0  0  0  0  0  0  0
   -8.8727    7.2936   -3.4544 H   0  0  0  0  0  0  0  0  0  0  0  0
   -8.5549    5.5256   -3.4544 H   0  0  0  0  0  0  0  0  0  0  0  0
   -2.3327    9.3017   -2.8037 H   0  0  0  0  0  0  0  0  0  0  0  0
   -4.0825    9.6493   -1.1763 H   0  0  0  0  0  0  0  0  0  0  0  0
   -3.5728    8.2458   -0.2137 H   0  0  0  0  0  0  0  0  0  0  0  0
   -3.0800   10.9809    0.4484 H   0  0  0  0  0  0  0  0  0  0  0  0
   -2.2519    9.6186    1.1983 H   0  0  0  0  0  0  0  0  0  0  0  0
   -1.9611   12.4987   -0.9222 H   0  0  0  0  0  0  0  0  0  0  0  0
   -0.7705   11.9192   -2.1359 H   0  0  0  0  0  0  0  0  0  0  0  0
   -2.4437   11.2656   -2.1359 H   0  0  0  0  0  0  0  0  0  0  0  0
    0.1184   10.1027    1.0745 H   0  0  0  0  0  0  0  0  0  0  0  0
   -1.2724   12.2363    1.4643 H   0  0  0  0  0  0  0  0  0  0  0  0
    0.4547   12.0975    2.0864 H   0  0  0  0  0  0  0  0  0  0  0  0
   -0.2149   14.4085    1.0136 H   0  0  0  0  0  0  0  0  0  0  0  0
    1.0360   12.2059   -2.1307 H   0  0  0  0  0  0  0  0  0  0  0  0
    3.6140   12.8391   -0.5654 H   0  0  0  0  0  0  0  0  0  0  0  0
    3.4769   11.8622   -2.0939 H   0  0  0  0  0  0  0  0  0  0  0  0
    4.3041   14.1545   -2.5190 H   0  0  0  0  0  0  0  0  0  0  0  0
    2.7147   13.8188   -3.3119 H   0  0  0  0  0  0  0  0  0  0  0  0
    2.6488   16.0184   -2.3533 H   0  0  0  0  0  0  0  0  0  0  0  0
    4.2190   14.9720   -0.5390 H   0  0  0  0  0  0  0  0  0  0  0  0
   -0.8067   14.9571   -2.2775 H   0  0  0  0  0  0  0  0  0  0  0  0
    0.4784   15.8612   -3.1481 H   0  0  0  0  0  0  0  0  0  0  0  0
    0.4867   14.0649   -3.1481 H   0  0  0  0  0  0  0  0  0  0  0  0
    0.7517   15.9694    0.6308 H   0  0  0  0  0  0  0  0  0  0  0  0
    1.3042   17.0601   -0.6851 H   0  0  0  0  0  0  0  0  0  0  0  0
   -0.3794   16.4337   -0.6851 H   0  0  0  0  0  0  0  0  0  0  0  0
    2.0960   10.9153    1.6557 H   0  0  0  0  0  0  0  0  0  0  0  0
    3.0272    9.8785    0.5224 H   0  0  0  0  0  0  0  0  0  0  0  0
    3.2755   11.6575    0.5224 H   0  0  0  0  0  0  0  0  0  0  0  0
    2.3323   10.1335   -2.1842 H   0  0  0  0  0  0  0  0  0  0  0  0
    1.8923    8.9610   -0.8179 H   0  0  0  0  0  0  0  0  0  0  0  0
    0.0482   10.1220   -2.9232 H   0  0  0  0  0  0  0  0  0  0  0  0
    0.5599    8.4036   -2.6942 H   0  0  0  0  0  0  0  0  0  0  0  0
   -0.5473    8.3174    0.7963 H   0  0  0  0  0  0  0  0  0  0  0  0
   -1.0688    7.0996   -0.4169 H   0  0  0  0  0  0  0  0  0  0  0  0
    0.6244    7.6993   -0.4169 H   0  0  0  0  0  0  0  0  0  0  0  0
  1  2  1  0
  2  3  1  0
  3  4  1  0
  4  5  1  0
  5  6  1  0
  6  7  1  0
  7  8  1  0
  7  9  1  0
  2 10  1  0
 10 11  1  0
 11 12  1  0
 12 13  1  0
 13 14  1  6
 13 15  1  0
 15 16  1  0
 16 17  1  0
 17 18  2  0
 18 19  1  0
 19 20  1  0
 20 21  1  0
 21 22  1  0
 22 23  1  0
 22 24  1  0
 24 25  1  0
 24 26  1  0
 19 27  1  0
 27 28  1  1
 27 29  1  0
 29 30  1  0
 30 31  1  0
 31 32  1  1
  7  5  1  0
 31 10  1  0
 31 13  1  0
 27 15  1  0
 24 18  1  0
  1 33  1  0
  1 34  1  0
  1 35  1  0
  2 36  1  1
  3 37  1  0
  3 38  1  0
  4 39  1  0
  4 40  1  0
  5 41  1  6
  8 42  1  0
  8 43  1  0
  8 44  1  0
  9 45  1  0
  9 46  1  0
  9 47  1  0
 10 48  1  6
 11 49  1  0
 11 50  1  0
 12 51  1  0
 12 52  1  0
 14 53  1  0
 14 54  1  0
 14 55  1  0
 15 56  1  1
 16 57  1  0
 16 58  1  0
 17 59  1  0
 19 60  1  6
 20 61  1  0
 20 62  1  0
 21 63  1  0
 21 64  1  0
 22 65  1  6
 23 66  1  0
 25 67  1  0
 25 68  1  0
 25 69  1  0
 26 70  1  0
 26 71  1  0
 26 72  1  0
 28 73  1  0
 28 74  1  0
 28 75  1  0
 29 76  1  0
 29 77  1  0
 30 78  1  0
 30 79  1  0
 32 80  1  0
 32 81  1  0
 32 82  1  0
M  END
>  <meeko>  (16) 
{"is_sidechain": [false], "intermolecular_energy": 2.731, "internal_energy": -0.839}

$$$$
EPH_relaxed_0001_pdb2pqr_Repair_65_r2_0001_out
     RDKit          3D

 82 86  0  0  0  0  0  0  0  0999 V2000
   -1.7120   14.8260    0.5320 C   0  0  0  0  0  0  0  0  0  0  0  0
   -0.3760   15.5290    0.2770 C   0  0  2  0  0  0  0  0  0  0  0  0
   -0.4570   16.5200   -0.9020 C   0  0  0  0  0  0  0  0  0  0  0  0
   -0.0520   17.9500   -0.5320 C   0  0  0  0  0  0  0  0  0  0  0  0
    1.3690   18.0190   -0.0600 C   0  0  2  0  0  0  0  0  0  0  0  0
    2.0390   19.2510   -0.3560 O   0  0  0  0  0  0  0  0  0  0  0  0
    2.5600   18.0760   -0.9970 C   0  0  0  0  0  0  0  0  0  0  0  0
    2.3860   18.0640   -2.4830 C   0  0  0  0  0  0  0  0  0  0  0  0
    3.8990   17.6510   -0.4790 C   0  0  0  0  0  0  0  0  0  0  0  0
    0.7130   14.4960    0.0140 C   0  0  1  0  0  0  0  0  0  0  0  0
    0.8470   13.4620    1.1640 C   0  0  0  0  0  0  0  0  0  0  0  0
    1.2190   12.1080    0.5080 C   0  0  0  0  0  0  0  0  0  0  0  0
    1.6120   12.4720   -0.9430 C   0  0  1  0  0  0  0  0  0  0  0  0
    3.0860   12.9750   -0.8460 C   0  0  0  0  0  0  0  0  0  0  0  0
    1.4580   11.3370   -2.0060 C   0  0  2  0  0  0  0  0  0  0  0  0
    2.3410   10.0990   -1.7720 C   0  0  0  0  0  0  0  0  0  0  0  0
    3.6840   10.1410   -2.4220 C   0  0  0  0  0  0  0  0  0  0  0  0
    4.0560   10.9950   -3.3930 C   0  0  0  0  0  0  0  0  0  0  0  0
    3.0510   11.9800   -4.0030 C   0  0  1  0  0  0  0  0  0  0  0  0
    3.1710   11.9520   -5.5500 C   0  0  0  0  0  0  0  0  0  0  0  0
    4.5970   12.2010   -6.0300 C   0  0  0  0  0  0  0  0  0  0  0  0
    5.5570   11.1670   -5.4490 C   0  0  2  0  0  0  0  0  0  0  0  0
    5.2390    9.8840   -5.9960 O   0  0  0  0  0  0  0  0  0  0  0  0
    5.5170   11.0980   -3.8960 C   0  0  0  0  0  0  0  0  0  0  0  0
    6.1470   12.3820   -3.3020 C   0  0  0  0  0  0  0  0  0  0  0  0
    6.4240    9.9210   -3.4470 C   0  0  0  0  0  0  0  0  0  0  0  0
    1.5480   11.8350   -3.5050 C   0  0  1  0  0  0  0  0  0  0  0  0
    0.8000   10.7780   -4.3730 C   0  0  0  0  0  0  0  0  0  0  0  0
    0.7990   13.2020   -3.7280 C   0  0  0  0  0  0  0  0  0  0  0  0
    0.8900   14.2370   -2.5900 C   0  0  0  0  0  0  0  0  0  0  0  0
    0.5550   13.5980   -1.2390 C   0  0  2  0  0  0  0  0  0  0  0  0
   -0.9310   13.1030   -1.2990 C   0  0  0  0  0  0  0  0  0  0  0  0
   -1.8791   14.7381    1.6157 H   0  0  0  0  0  0  0  0  0  0  0  0
   -2.5266   15.4122    0.0818 H   0  0  0  0  0  0  0  0  0  0  0  0
   -1.6902   13.8226    0.0818 H   0  0  0  0  0  0  0  0  0  0  0  0
   -0.1295   16.1080    1.1792 H   0  0  0  0  0  0  0  0  0  0  0  0
    0.2111   16.1653   -1.7006 H   0  0  0  0  0  0  0  0  0  0  0  0
   -1.5092   16.5557   -1.2208 H   0  0  0  0  0  0  0  0  0  0  0  0
   -0.1652   18.5930   -1.4173 H   0  0  0  0  0  0  0  0  0  0  0  0
   -0.7025   18.2896    0.2875 H   0  0  0  0  0  0  0  0  0  0  0  0
    1.1385   17.3753    0.8017 H   0  0  0  0  0  0  0  0  0  0  0  0
    1.3158   17.9902   -2.7263 H   0  0  0  0  0  0  0  0  0  0  0  0
    2.7953   18.9925   -2.9076 H   0  0  0  0  0  0  0  0  0  0  0  0
    2.9189   17.2005   -2.9076 H   0  0  0  0  0  0  0  0  0  0  0  0
    3.8849   17.6555    0.6209 H   0  0  0  0  0  0  0  0  0  0  0  0
    4.1262   16.6366   -0.8387 H   0  0  0  0  0  0  0  0  0  0  0  0
    4.6696   18.3487   -0.8387 H   0  0  0  0  0  0  0  0  0  0  0  0
    1.5759   15.1668   -0.1099 H   0  0  0  0  0  0  0  0  0  0  0  0
    1.6369   13.7736    1.8633 H   0  0  0  0  0  0  0  0  0  0  0  0
   -0.0911   13.3804    1.7326 H   0  0  0  0  0  0  0  0  0  0  0  0
    2.0649   11.6412    1.0339 H   0  0  0  0  0  0  0  0  0  0  0  0
    0.3914   11.3844    0.5469 H   0  0  0  0  0  0  0  0  0  0  0  0
    3.3713   13.0724    0.2119 H   0  0  0  0  0  0  0  0  0  0  0  0
    3.7529   12.2536   -1.3408 H   0  0  0  0  0  0  0  0  0  0  0  0
    3.1728   13.9536   -1.3408 H   0  0  0  0  0  0  0  0  0  0  0  0
    0.4232   11.0016   -1.8427 H   0  0  0  0  0  0  0  0  0  0  0  0
    2.4915    9.9890   -0.6879 H   0  0  0  0  0  0  0  0  0  0  0  0
    1.8073    9.2537   -2.2311 H   0  0  0  0  0  0  0  0  0  0  0  0
    4.4328    9.4123   -2.0782 H   0  0  0  0  0  0  0  0  0  0  0  0
    3.3323   12.9739   -3.6248 H   0  0  0  0  0  0  0  0  0  0  0  0
    2.8444   10.9657   -5.9113 H   0  0  0  0  0  0  0  0  0  0  0  0
    2.5385   12.7588   -5.9489 H   0  0  0  0  0  0  0  0  0  0  0  0
    4.6231   12.1393   -7.1280 H   0  0  0  0  0  0  0  0  0  0  0  0
    4.9112   13.1998   -5.6930 H   0  0  0  0  0  0  0  0  0  0  0  0
    6.5773   11.4736   -5.7230 H   0  0  0  0  0  0  0  0  0  0  0  0
    5.0160   10.0110   -6.9330 H   0  0  0  0  0  0  0  0  0  0  0  0
    6.1209   12.3289   -2.2036 H   0  0  0  0  0  0  0  0  0  0  0  0
    7.1901   12.4689   -3.6402 H   0  0  0  0  0  0  0  0  0  0  0  0
    5.5775   13.2602   -3.6402 H   0  0  0  0  0  0  0  0  0  0  0  0
    6.4551    9.8806   -2.3482 H   0  0  0  0  0  0  0  0  0  0  0  0
    6.0184    8.9759   -3.8373 H   0  0  0  0  0  0  0  0  0  0  0  0
    7.4412   10.0724   -3.8373 H   0  0  0  0  0  0  0  0  0  0  0  0
    0.2905   10.0580   -3.7157 H   0  0  0  0  0  0  0  0  0  0  0  0
    0.0577   11.2839   -5.0079 H   0  0  0  0  0  0  0  0  0  0  0  0
    1.5240   10.2463   -5.0079 H   0  0  0  0  0  0  0  0  0  0  0  0
    1.2157   13.6660   -4.6341 H   0  0  0  0  0  0  0  0  0  0  0  0
   -0.2671   12.9391   -3.7938 H   0  0  0  0  0  0  0  0  0  0  0  0
    1.9121   14.6419   -2.5529 H   0  0  0  0  0  0  0  0  0  0  0  0
    0.1644   15.0398   -2.7875 H   0  0  0  0  0  0  0  0  0  0  0  0
   -1.3163   12.9747   -0.2767 H   0  0  0  0  0  0  0  0  0  0  0  0
   -1.5436   13.8456   -1.8312 H   0  0  0  0  0  0  0  0  0  0  0  0
   -0.9759   12.1414   -1.8312 H   0  0  0  0  0  0  0  0  0  0  0  0
  1  2  1  0
  2  3  1  0
  3  4  1  0
  4  5  1  0
  5  6  1  0
  6  7  1  0
  7  8  1  0
  7  9  1  0
  2 10  1  0
 10 11  1  0
 11 12  1  0
 12 13  1  0
 13 14  1  1
 13 15  1  0
 15 16  1  0
 16 17  1  0
 17 18  2  0
 18 19  1  0
 19 20  1  0
 20 21  1  0
 21 22  1  0
 22 23  1  0
 22 24  1  0
 24 25  1  0
 24 26  1  0
 19 27  1  0
 27 28  1  6
 27 29  1  0
 29 30  1  0
 30 31  1  0
 31 32  1  6
  7  5  1  0
 31 10  1  0
 31 13  1  0
 27 15  1  0
 24 18  1  0
  1 33  1  0
  1 34  1  0
  1 35  1  0
  2 36  1  1
  3 37  1  0
  3 38  1  0
  4 39  1  0
  4 40  1  0
  5 41  1  1
  8 42  1  0
  8 43  1  0
  8 44  1  0
  9 45  1  0
  9 46  1  0
  9 47  1  0
 10 48  1  6
 11 49  1  0
 11 50  1  0
 12 51  1  0
 12 52  1  0
 14 53  1  0
 14 54  1  0
 14 55  1  0
 15 56  1  6
 16 57  1  0
 16 58  1  0
 17 59  1  0
 19 60  1  1
 20 61  1  0
 20 62  1  0
 21 63  1  0
 21 64  1  0
 22 65  1  1
 23 66  1  0
 25 67  1  0
 25 68  1  0
 25 69  1  0
 26 70  1  0
 26 71  1  0
 26 72  1  0
 28 73  1  0
 28 74  1  0
 28 75  1  0
 29 76  1  0
 29 77  1  0
 30 78  1  0
 30 79  1  0
 32 80  1  0
 32 81  1  0
 32 82  1  0
M  END
>  <meeko>  (17) 
{"is_sidechain": [false], "intermolecular_energy": 2.731, "internal_energy": -0.839}

$$$$
EPH_relaxed_0001_pdb2pqr_Repair_65_r2_0001_out
     RDKit          3D

 82 86  0  0  0  0  0  0  0  0999 V2000
    3.1290   14.8320   -7.5250 C   0  0  0  0  0  0  0  0  0  0  0  0
    1.6050   14.8670   -7.3840 C   0  0  2  0  0  0  0  0  0  0  0  0
    0.9890   16.1120   -8.0530 C   0  0  0  0  0  0  0  0  0  0  0  0
    1.9170   16.7920   -9.0630 C   0  0  0  0  0  0  0  0  0  0  0  0
    1.5900   16.3960  -10.4710 C   0  0  2  0  0  0  0  0  0  0  0  0
    1.0050   15.0950  -10.6060 O   0  0  0  0  0  0  0  0  0  0  0  0
    2.2960   15.2750  -11.2100 C   0  0  0  0  0  0  0  0  0  0  0  0
    3.3860   14.4790  -10.5630 C   0  0  0  0  0  0  0  0  0  0  0  0
    2.2670   15.2750  -12.7070 C   0  0  0  0  0  0  0  0  0  0  0  0
    1.2180   14.8230   -5.9110 C   0  0  1  0  0  0  0  0  0  0  0  0
   -0.0350   15.6820   -5.5950 C   0  0  0  0  0  0  0  0  0  0  0  0
   -0.8170   14.9400   -4.4810 C   0  0  0  0  0  0  0  0  0  0  0  0
    0.1680   13.8660   -3.9620 C   0  0  1  0  0  0  0  0  0  0  0  0
    1.1060   14.6270   -2.9730 C   0  0  0  0  0  0  0  0  0  0  0  0
   -0.4730   12.6050   -3.2960 C   0  0  2  0  0  0  0  0  0  0  0  0
   -1.2920   12.8840   -2.0230 C   0  0  0  0  0  0  0  0  0  0  0  0
   -0.5230   12.8220   -0.7450 C   0  0  0  0  0  0  0  0  0  0  0  0
    0.6980   12.2780   -0.5920 C   0  0  0  0  0  0  0  0  0  0  0  0
    1.3920   11.5610   -1.7570 C   0  0  1  0  0  0  0  0  0  0  0  0
    1.9760   10.2120   -1.2600 C   0  0  0  0  0  0  0  0  0  0  0  0
    2.8900   10.3800   -0.0500 C   0  0  0  0  0  0  0  0  0  0  0  0
    2.1470   11.0440    1.1060 C   0  0  2  0  0  0  0  0  0  0  0  0
    1.1320   10.1510    1.5750 O   0  0  0  0  0  0  0  0  0  0  0  0
    1.5080   12.4070    0.7220 C   0  0  0  0  0  0  0  0  0  0  0  0
    2.6220   13.4620    0.5050 C   0  0  0  0  0  0  0  0  0  0  0  0
    0.6720   12.9020    1.9330 C   0  0  0  0  0  0  0  0  0  0  0  0
    0.5330   11.4020   -3.0840 C   0  0  1  0  0  0  0  0  0  0  0  0
   -0.3320   10.1070   -3.0070 C   0  0  0  0  0  0  0  0  0  0  0  0
    1.5060   11.2140   -4.3070 C   0  0  0  0  0  0  0  0  0  0  0  0
    2.0110   12.4960   -4.9980 C   0  0  0  0  0  0  0  0  0  0  0  0
    0.8480   13.4420   -5.3140 C   0  0  2  0  0  0  0  0  0  0  0  0
   -0.1010   12.7120   -6.3250 C   0  0  0  0  0  0  0  0  0  0  0  0
    3.5895   14.8214   -6.5261 H   0  0  0  0  0  0  0  0  0  0  0  0
    3.4256   13.9268   -8.0751 H   0  0  0  0  0  0  0  0  0  0  0  0
    3.4669   15.7226   -8.0751 H   0  0  0  0  0  0  0  0  0  0  0  0
    1.2046   13.9820   -7.9001 H   0  0  0  0  0  0  0  0  0  0  0  0
    0.0709   15.8064   -8.5762 H   0  0  0  0  0  0  0  0  0  0  0  0
    0.7941   16.8424   -7.2539 H   0  0  0  0  0  0  0  0  0  0  0  0
    1.8115   17.8826   -8.9659 H   0  0  0  0  0  0  0  0  0  0  0  0
    2.9482   16.4748   -8.8485 H   0  0  0  0  0  0  0  0  0  0  0  0
    1.3818   17.4416  -10.7418 H   0  0  0  0  0  0  0  0  0  0  0  0
    3.2910   14.5484   -9.4693 H   0  0  0  0  0  0  0  0  0  0  0  0
    3.3044   13.4265  -10.8721 H   0  0  0  0  0  0  0  0  0  0  0  0
    4.3637   14.8771  -10.8721 H   0  0  0  0  0  0  0  0  0  0  0  0
    2.2599   14.2379  -13.0736 H   0  0  0  0  0  0  0  0  0  0  0  0
    1.3619   15.7935  -13.0562 H   0  0  0  0  0  0  0  0  0  0  0  0
    3.1579   15.7935  -13.0910 H   0  0  0  0  0  0  0  0  0  0  0  0
    2.1546   15.1881   -5.4644 H   0  0  0  0  0  0  0  0  0  0  0  0
    0.2683   16.6796   -5.2446 H   0  0  0  0  0  0  0  0  0  0  0  0
   -0.6577   15.8168   -6.4917 H   0  0  0  0  0  0  0  0  0  0  0  0
   -1.0956   15.6337   -3.6741 H   0  0  0  0  0  0  0  0  0  0  0  0
   -1.7553   14.5014   -4.8513 H   0  0  0  0  0  0  0  0  0  0  0  0
    0.8161   14.3918   -1.9383 H   0  0  0  0  0  0  0  0  0  0  0  0
    2.1473   14.3152   -3.1419 H   0  0  0  0  0  0  0  0  0  0  0  0
    1.0156   15.7102   -3.1419 H   0  0  0  0  0  0  0  0  0  0  0  0
   -1.2012   12.2823   -4.0547 H   0  0  0  0  0  0  0  0  0  0  0  0
   -1.7248   13.8915   -2.1110 H   0  0  0  0  0  0  0  0  0  0  0  0
   -2.0457   12.0850   -1.9643 H   0  0  0  0  0  0  0  0  0  0  0  0
   -0.9949   13.2583    0.1478 H   0  0  0  0  0  0  0  0  0  0  0  0
    2.2074   12.2247   -2.0803 H   0  0  0  0  0  0  0  0  0  0  0  0
    1.1437    9.5480   -0.9836 H   0  0  0  0  0  0  0  0  0  0  0  0
    2.5784    9.7880   -2.0769 H   0  0  0  0  0  0  0  0  0  0  0  0
    3.2466    9.3905    0.2721 H   0  0  0  0  0  0  0  0  0  0  0  0
    3.7379   11.0196   -0.3363 H   0  0  0  0  0  0  0  0  0  0  0  0
    2.8848   11.2556    1.8939 H   0  0  0  0  0  0  0  0  0  0  0  0
    1.2700   10.0230    2.5290 H   0  0  0  0  0  0  0  0  0  0  0  0
    2.9911   13.8115    1.4805 H   0  0  0  0  0  0  0  0  0  0  0  0
    3.4505   13.0096   -0.0598 H   0  0  0  0  0  0  0  0  0  0  0  0
    2.2153   14.3138   -0.0598 H   0  0  0  0  0  0  0  0  0  0  0  0
    1.1706   12.6068    2.8680 H   0  0  0  0  0  0  0  0  0  0  0  0
    0.5841   13.9978    1.8945 H   0  0  0  0  0  0  0  0  0  0  0  0
   -0.3311   12.4521    1.8945 H   0  0  0  0  0  0  0  0  0  0  0  0
   -0.5070    9.8451   -1.9531 H   0  0  0  0  0  0  0  0  0  0  0  0
   -1.2965   10.2800   -3.5068 H   0  0  0  0  0  0  0  0  0  0  0  0
    0.1972    9.2823   -3.5068 H   0  0  0  0  0  0  0  0  0  0  0  0
    2.3865   10.6600   -3.9494 H   0  0  0  0  0  0  0  0  0  0  0  0
    0.9106   10.6915   -5.0703 H   0  0  0  0  0  0  0  0  0  0  0  0
    2.7209   13.0082   -4.3320 H   0  0  0  0  0  0  0  0  0  0  0  0
    2.5023   12.2161   -5.9416 H   0  0  0  0  0  0  0  0  0  0  0  0
   -0.8534   12.1332   -5.7692 H   0  0  0  0  0  0  0  0  0  0  0  0
   -0.6055   13.4571   -6.9578 H   0  0  0  0  0  0  0  0  0  0  0  0
    0.4897   12.0333   -6.9578 H   0  0  0  0  0  0  0  0  0  0  0  0
  1  2  1  0
  2  3  1  0
  3  4  1  0
  4  5  1  0
  5  6  1  0
  6  7  1  0
  7  8  1  0
  7  9  1  0
  2 10  1  0
 10 11  1  0
 11 12  1  0
 12 13  1  0
 13 14  1  1
 13 15  1  0
 15 16  1  0
 16 17  1  0
 17 18  2  0
 18 19  1  0
 19 20  1  0
 20 21  1  0
 21 22  1  0
 22 23  1  0
 22 24  1  0
 24 25  1  0
 24 26  1  0
 19 27  1  0
 27 28  1  1
 27 29  1  0
 29 30  1  0
 30 31  1  0
 31 32  1  6
  7  5  1  0
 31 10  1  0
 31 13  1  0
 27 15  1  0
 24 18  1  0
  1 33  1  0
  1 34  1  0
  1 35  1  0
  2 36  1  6
  3 37  1  0
  3 38  1  0
  4 39  1  0
  4 40  1  0
  5 41  1  6
  8 42  1  0
  8 43  1  0
  8 44  1  0
  9 45  1  0
  9 46  1  0
  9 47  1  0
 10 48  1  1
 11 49  1  0
 11 50  1  0
 12 51  1  0
 12 52  1  0
 14 53  1  0
 14 54  1  0
 14 55  1  0
 15 56  1  6
 16 57  1  0
 16 58  1  0
 17 59  1  0
 19 60  1  6
 20 61  1  0
 20 62  1  0
 21 63  1  0
 21 64  1  0
 22 65  1  1
 23 66  1  0
 25 67  1  0
 25 68  1  0
 25 69  1  0
 26 70  1  0
 26 71  1  0
 26 72  1  0
 28 73  1  0
 28 74  1  0
 28 75  1  0
 29 76  1  0
 29 77  1  0
 30 78  1  0
 30 79  1  0
 32 80  1  0
 32 81  1  0
 32 82  1  0
M  END
>  <meeko>  (18) 
{"is_sidechain": [false], "intermolecular_energy": 2.731, "internal_energy": -0.839}

$$$$
