EPH_relaxed_0001_pdb2pqr_Repair_353_r2_0001_out
     RDKit          3D

 82 86  0  0  0  0  0  0  0  0999 V2000
   -1.7660    8.6520   -1.7780 C   0  0  0  0  0  0  0  0  0  0  0  0
   -2.1870    9.1820   -0.4050 C   0  0  2  0  0  0  0  0  0  0  0  0
   -3.6890    9.5270   -0.3500 C   0  0  0  0  0  0  0  0  0  0  0  0
   -4.5980    8.3010   -0.2300 C   0  0  0  0  0  0  0  0  0  0  0  0
   -5.2440    7.9590   -1.5380 C   0  0  2  0  0  0  0  0  0  0  0  0
   -6.3980    8.7480   -1.8590 O   0  0  0  0  0  0  0  0  0  0  0  0
   -6.6270    7.3440   -1.6520 C   0  0  0  0  0  0  0  0  0  0  0  0
   -7.4460    7.0340   -0.4390 C   0  0  0  0  0  0  0  0  0  0  0  0
   -6.9780    6.6000   -2.9030 C   0  0  0  0  0  0  0  0  0  0  0  0
   -1.3570   10.4090   -0.0450 C   0  0  1  0  0  0  0  0  0  0  0  0
   -0.3960   10.1510    1.1470 C   0  0  0  0  0  0  0  0  0  0  0  0
    0.8880   10.9760    0.8720 C   0  0  0  0  0  0  0  0  0  0  0  0
    0.4990   11.9300   -0.2820 C   0  0  1  0  0  0  0  0  0  0  0  0
   -0.2610   13.1060    0.4080 C   0  0  0  0  0  0  0  0  0  0  0  0
    1.6730   12.4460   -1.1770 C   0  0  2  0  0  0  0  0  0  0  0  0
    2.7260   13.2950   -0.4440 C   0  0  0  0  0  0  0  0  0  0  0  0
    2.4630   14.7650   -0.4300 C   0  0  0  0  0  0  0  0  0  0  0  0
    1.5830   15.4100   -1.2170 C   0  0  0  0  0  0  0  0  0  0  0  0
    0.8100   14.6620   -2.3110 C   0  0  1  0  0  0  0  0  0  0  0  0
    0.8590   15.4780   -3.6300 C   0  0  0  0  0  0  0  0  0  0  0  0
    0.3720   16.9120   -3.4490 C   0  0  0  0  0  0  0  0  0  0  0  0
    1.2030   17.6410   -2.3950 C   0  0  2  0  0  0  0  0  0  0  0  0
    2.5370   17.7990   -2.8880 O   0  0  0  0  0  0  0  0  0  0  0  0
    1.2350   16.9070   -1.0250 C   0  0  0  0  0  0  0  0  0  0  0  0
   -0.1560   17.0000   -0.3520 C   0  0  0  0  0  0  0  0  0  0  0  0
    2.2190   17.6700   -0.0980 C   0  0  0  0  0  0  0  0  0  0  0  0
    1.2070   13.1370   -2.5220 C   0  0  1  0  0  0  0  0  0  0  0  0
    2.4040   13.0320   -3.5150 C   0  0  0  0  0  0  0  0  0  0  0  0
    0.0020   12.3810   -3.1970 C   0  0  0  0  0  0  0  0  0  0  0  0
   -1.0630   11.7900   -2.2540 C   0  0  0  0  0  0  0  0  0  0  0  0
   -0.4120   10.9730   -1.1350 C   0  0  2  0  0  0  0  0  0  0  0  0
    0.3420    9.7690   -1.7970 C   0  0  0  0  0  0  0  0  0  0  0  0
   -1.0866    7.7967   -1.6483 H   0  0  0  0  0  0  0  0  0  0  0  0
   -2.6577    8.3306   -2.3362 H   0  0  0  0  0  0  0  0  0  0  0  0
   -1.2512    9.4479   -2.3362 H   0  0  0  0  0  0  0  0  0  0  0  0
   -2.0058    8.3820    0.3279 H   0  0  0  0  0  0  0  0  0  0  0  0
   -3.8646   10.1761    0.5206 H   0  0  0  0  0  0  0  0  0  0  0  0
   -3.9402   10.0217   -1.2998 H   0  0  0  0  0  0  0  0  0  0  0  0
   -3.9968    7.4431    0.1056 H   0  0  0  0  0  0  0  0  0  0  0  0
   -5.3927    8.5333    0.4942 H   0  0  0  0  0  0  0  0  0  0  0  0
   -4.2733    7.6770   -1.9718 H   0  0  0  0  0  0  0  0  0  0  0  0
   -6.8603    7.2557    0.4653 H   0  0  0  0  0  0  0  0  0  0  0  0
   -8.3579    7.6492   -0.4452 H   0  0  0  0  0  0  0  0  0  0  0  0
   -7.7220    5.9692   -0.4452 H   0  0  0  0  0  0  0  0  0  0  0  0
   -7.4337    5.6341   -2.6395 H   0  0  0  0  0  0  0  0  0  0  0  0
   -7.6914    7.1929   -3.4943 H   0  0  0  0  0  0  0  0  0  0  0  0
   -6.0668    6.4264   -3.4943 H   0  0  0  0  0  0  0  0  0  0  0  0
   -2.1659   11.1261    0.1584 H   0  0  0  0  0  0  0  0  0  0  0  0
   -0.8626   10.4785    2.0877 H   0  0  0  0  0  0  0  0  0  0  0  0
   -0.1646    9.0800    1.2436 H   0  0  0  0  0  0  0  0  0  0  0  0
    1.1817   11.5467    1.7654 H   0  0  0  0  0  0  0  0  0  0  0  0
    1.7465   10.3383    0.6147 H   0  0  0  0  0  0  0  0  0  0  0  0
   -0.1907   12.9972    1.5003 H   0  0  0  0  0  0  0  0  0  0  0  0
    0.1904   14.0622    0.1049 H   0  0  0  0  0  0  0  0  0  0  0  0
   -1.3183   13.0873    0.1049 H   0  0  0  0  0  0  0  0  0  0  0  0
    2.1839   11.5134   -1.4584 H   0  0  0  0  0  0  0  0  0  0  0  0
    2.7759   12.9487    0.5989 H   0  0  0  0  0  0  0  0  0  0  0  0
    3.6662   13.1593   -0.9987 H   0  0  0  0  0  0  0  0  0  0  0  0
    3.0379   15.3721    0.2848 H   0  0  0  0  0  0  0  0  0  0  0  0
   -0.2281   14.5903   -1.9545 H   0  0  0  0  0  0  0  0  0  0  0  0
    1.8975   15.5013   -3.9918 H   0  0  0  0  0  0  0  0  0  0  0  0
    0.1898   14.9867   -4.3516 H   0  0  0  0  0  0  0  0  0  0  0  0
    0.4579   17.4452   -4.4073 H   0  0  0  0  0  0  0  0  0  0  0  0
   -0.6759   16.8878   -3.1153 H   0  0  0  0  0  0  0  0  0  0  0  0
    0.7276   18.6168   -2.2167 H   0  0  0  0  0  0  0  0  0  0  0  0
    2.7670   16.9920   -3.3780 H   0  0  0  0  0  0  0  0  0  0  0  0
   -0.0356   16.9920    0.7414 H   0  0  0  0  0  0  0  0  0  0  0  0
   -0.6505   17.9332   -0.6596 H   0  0  0  0  0  0  0  0  0  0  0  0
   -0.7703   16.1409   -0.6596 H   0  0  0  0  0  0  0  0  0  0  0  0
    1.9620   17.4707    0.9528 H   0  0  0  0  0  0  0  0  0  0  0  0
    3.2465   17.3302   -0.2950 H   0  0  0  0  0  0  0  0  0  0  0  0
    2.1458   18.7497   -0.2950 H   0  0  0  0  0  0  0  0  0  0  0  0
    3.3437   12.9496   -2.9491 H   0  0  0  0  0  0  0  0  0  0  0  0
    2.2780   12.1415   -4.1483 H   0  0  0  0  0  0  0  0  0  0  0  0
    2.4350   13.9309   -4.1483 H   0  0  0  0  0  0  0  0  0  0  0  0
   -0.5041   13.0922   -3.8664 H   0  0  0  0  0  0  0  0  0  0  0  0
    0.4527   11.5137   -3.7017 H   0  0  0  0  0  0  0  0  0  0  0  0
   -1.6445   12.6107   -1.8087 H   0  0  0  0  0  0  0  0  0  0  0  0
   -1.7180   11.1261   -2.8372 H   0  0  0  0  0  0  0  0  0  0  0  0
    0.7509    9.1161   -1.0118 H   0  0  0  0  0  0  0  0  0  0  0  0
   -0.3590    9.1963   -2.4219 H   0  0  0  0  0  0  0  0  0  0  0  0
    1.1633   10.1497   -2.4219 H   0  0  0  0  0  0  0  0  0  0  0  0
  1  2  1  0
  2  3  1  0
  3  4  1  0
  4  5  1  0
  5  6  1  0
  6  7  1  0
  7  8  1  0
  7  9  1  0
  2 10  1  0
 10 11  1  0
 11 12  1  0
 12 13  1  0
 13 14  1  1
 13 15  1  0
 15 16  1  0
 16 17  1  0
 17 18  2  0
 18 19  1  0
 19 20  1  0
 20 21  1  0
 21 22  1  0
 22 23  1  0
 22 24  1  0
 24 25  1  0
 24 26  1  0
 19 27  1  0
 27 28  1  6
 27 29  1  0
 29 30  1  0
 30 31  1  0
 31 32  1  6
  7  5  1  0
 31 10  1  0
 31 13  1  0
 27 15  1  0
 24 18  1  0
  1 33  1  0
  1 34  1  0
  1 35  1  0
  2 36  1  1
  3 37  1  0
  3 38  1  0
  4 39  1  0
  4 40  1  0
  5 41  1  6
  8 42  1  0
  8 43  1  0
  8 44  1  0
  9 45  1  0
  9 46  1  0
  9 47  1  0
 10 48  1  1
 11 49  1  0
 11 50  1  0
 12 51  1  0
 12 52  1  0
 14 53  1  0
 14 54  1  0
 14 55  1  0
 15 56  1  6
 16 57  1  0
 16 58  1  0
 17 59  1  0
 19 60  1  1
 20 61  1  0
 20 62  1  0
 21 63  1  0
 21 64  1  0
 22 65  1  1
 23 66  1  0
 25 67  1  0
 25 68  1  0
 25 69  1  0
 26 70  1  0
 26 71  1  0
 26 72  1  0
 28 73  1  0
 28 74  1  0
 28 75  1  0
 29 76  1  0
 29 77  1  0
 30 78  1  0
 30 79  1  0
 32 80  1  0
 32 81  1  0
 32 82  1  0
M  END
>  <meeko>  (1) 
{"is_sidechain": [false], "intermolecular_energy": 2.731, "internal_energy": -0.839}

$$$$
EPH_relaxed_0001_pdb2pqr_Repair_353_r2_0001_out
     RDKit          3D

 82 86  0  0  0  0  0  0  0  0999 V2000
    2.3780   19.8660   -0.8910 C   0  0  0  0  0  0  0  0  0  0  0  0
    2.1990   18.9060    0.2880 C   0  0  2  0  0  0  0  0  0  0  0  0
    3.5490   18.3860    0.8230 C   0  0  0  0  0  0  0  0  0  0  0  0
    3.8240   18.7740    2.2780 C   0  0  0  0  0  0  0  0  0  0  0  0
    5.2820   19.0210    2.5190 C   0  0  2  0  0  0  0  0  0  0  0  0
    5.9100   18.0840    3.4050 O   0  0  0  0  0  0  0  0  0  0  0  0
    5.8480   19.4450    3.8620 C   0  0  0  0  0  0  0  0  0  0  0  0
    4.9640   19.6470    5.0520 C   0  0  0  0  0  0  0  0  0  0  0  0
    7.1780   20.1310    3.8930 C   0  0  0  0  0  0  0  0  0  0  0  0
    1.3160   17.7340   -0.1260 C   0  0  1  0  0  0  0  0  0  0  0  0
    0.2240   18.1420   -1.1500 C   0  0  0  0  0  0  0  0  0  0  0  0
    0.0320   16.9340   -2.1030 C   0  0  0  0  0  0  0  0  0  0  0  0
    0.7670   15.7660   -1.4060 C   0  0  1  0  0  0  0  0  0  0  0  0
   -0.2400   15.2410   -0.3350 C   0  0  0  0  0  0  0  0  0  0  0  0
    1.2730   14.6150   -2.3350 C   0  0  2  0  0  0  0  0  0  0  0  0
    0.1700   13.8520   -3.0890 C   0  0  0  0  0  0  0  0  0  0  0  0
   -0.3780   12.6580   -2.3800 C   0  0  0  0  0  0  0  0  0  0  0  0
    0.1880   12.0490   -1.3220 C   0  0  0  0  0  0  0  0  0  0  0  0
    1.5560   12.4980   -0.7930 C   0  0  1  0  0  0  0  0  0  0  0  0
    2.4510   11.2540   -0.5500 C   0  0  0  0  0  0  0  0  0  0  0  0
    1.7860   10.2220    0.3560 C   0  0  0  0  0  0  0  0  0  0  0  0
    0.4560    9.7570   -0.2320 C   0  0  2  0  0  0  0  0  0  0  0  0
    0.7140    9.0290   -1.4370 O   0  0  0  0  0  0  0  0  0  0  0  0
   -0.5250   10.9260   -0.5290 C   0  0  0  0  0  0  0  0  0  0  0  0
   -1.0400   11.5240    0.8040 C   0  0  0  0  0  0  0  0  0  0  0  0
   -1.7680   10.3350   -1.2480 C   0  0  0  0  0  0  0  0  0  0  0  0
    2.2920   13.6220   -1.6420 C   0  0  1  0  0  0  0  0  0  0  0  0
    3.1240   12.9670   -2.7860 C   0  0  0  0  0  0  0  0  0  0  0  0
    3.3220   14.3720   -0.7170 C   0  0  0  0  0  0  0  0  0  0  0  0
    2.7890   15.5750    0.0850 C   0  0  0  0  0  0  0  0  0  0  0  0
    2.0070   16.5330   -0.8180 C   0  0  2  0  0  0  0  0  0  0  0  0
    3.0000   17.0950   -1.8930 C   0  0  0  0  0  0  0  0  0  0  0  0
    2.5673   20.8811   -0.5118 H   0  0  0  0  0  0  0  0  0  0  0  0
    3.2306   19.5387   -1.5042 H   0  0  0  0  0  0  0  0  0  0  0  0
    1.4647   19.8680   -1.5042 H   0  0  0  0  0  0  0  0  0  0  0  0
    1.7154   19.4666    1.1016 H   0  0  0  0  0  0  0  0  0  0  0  0
    3.5523   17.2885    0.7495 H   0  0  0  0  0  0  0  0  0  0  0  0
    4.3374   18.8495    0.2118 H   0  0  0  0  0  0  0  0  0  0  0  0
    3.2632   19.6902    2.5148 H   0  0  0  0  0  0  0  0  0  0  0  0
    3.5063   17.9403    2.9214 H   0  0  0  0  0  0  0  0  0  0  0  0
    5.4048   19.4283    1.5046 H   0  0  0  0  0  0  0  0  0  0  0  0
    5.5515   19.5127    5.9722 H   0  0  0  0  0  0  0  0  0  0  0  0
    4.5453   20.6640    5.0294 H   0  0  0  0  0  0  0  0  0  0  0  0
    4.1452   18.9128    5.0294 H   0  0  0  0  0  0  0  0  0  0  0  0
    7.4847   20.2892    4.9375 H   0  0  0  0  0  0  0  0  0  0  0  0
    7.9251   19.5057    3.3822 H   0  0  0  0  0  0  0  0  0  0  0  0
    7.1016   21.1022    3.3822 H   0  0  0  0  0  0  0  0  0  0  0  0
    0.9361   17.4313    0.8609 H   0  0  0  0  0  0  0  0  0  0  0  0
   -0.7184   18.3675   -0.6294 H   0  0  0  0  0  0  0  0  0  0  0  0
    0.5216   19.0422   -1.7078 H   0  0  0  0  0  0  0  0  0  0  0  0
   -1.0363   16.7023   -2.2258 H   0  0  0  0  0  0  0  0  0  0  0  0
    0.4251   17.1317   -3.1111 H   0  0  0  0  0  0  0  0  0  0  0  0
    0.1544   15.4466    0.6711 H   0  0  0  0  0  0  0  0  0  0  0  0
   -1.2072   15.7496   -0.4607 H   0  0  0  0  0  0  0  0  0  0  0  0
   -0.3768   14.1568   -0.4607 H   0  0  0  0  0  0  0  0  0  0  0  0
    1.8358   15.1642   -3.1041 H   0  0  0  0  0  0  0  0  0  0  0  0
   -0.6608   14.5492   -3.2728 H   0  0  0  0  0  0  0  0  0  0  0  0
    0.6376   13.4716   -4.0091 H   0  0  0  0  0  0  0  0  0  0  0  0
   -1.3245   12.2408   -2.7541 H   0  0  0  0  0  0  0  0  0  0  0  0
    1.3605   13.0094    0.1611 H   0  0  0  0  0  0  0  0  0  0  0  0
    2.6703   10.7828   -1.5194 H   0  0  0  0  0  0  0  0  0  0  0  0
    3.3686   11.5959   -0.0489 H   0  0  0  0  0  0  0  0  0  0  0  0
    2.4541    9.3550    0.4653 H   0  0  0  0  0  0  0  0  0  0  0  0
    1.5944   10.6855    1.3350 H   0  0  0  0  0  0  0  0  0  0  0  0
   -0.0324    9.1205    0.5206 H   0  0  0  0  0  0  0  0  0  0  0  0
    0.2490    9.4820   -2.1600 H   0  0  0  0  0  0  0  0  0  0  0  0
   -0.5795   10.9893    1.6479 H   0  0  0  0  0  0  0  0  0  0  0  0
   -0.7725   12.5897    0.8553 H   0  0  0  0  0  0  0  0  0  0  0  0
   -2.1336   11.4176    0.8553 H   0  0  0  0  0  0  0  0  0  0  0  0
   -2.4952    9.9893   -0.4986 H   0  0  0  0  0  0  0  0  0  0  0  0
   -2.2303   11.1097   -1.8774 H   0  0  0  0  0  0  0  0  0  0  0  0
   -1.4590    9.4874   -1.8774 H   0  0  0  0  0  0  0  0  0  0  0  0
    3.9177   12.3421   -2.3506 H   0  0  0  0  0  0  0  0  0  0  0  0
    2.4651   12.3426   -3.4073 H   0  0  0  0  0  0  0  0  0  0  0  0
    3.5763   13.7540   -3.4073 H   0  0  0  0  0  0  0  0  0  0  0  0
    3.7162   13.6403    0.0035 H   0  0  0  0  0  0  0  0  0  0  0  0
    4.0712   14.7933   -1.4035 H   0  0  0  0  0  0  0  0  0  0  0  0
    2.1253   15.2100    0.8827 H   0  0  0  0  0  0  0  0  0  0  0  0
    3.6446   16.1173    0.5138 H   0  0  0  0  0  0  0  0  0  0  0  0
    3.8512   17.5767   -1.3896 H   0  0  0  0  0  0  0  0  0  0  0  0
    3.3652   16.2697   -2.5219 H   0  0  0  0  0  0  0  0  0  0  0  0
    2.4804   17.8329   -2.5219 H   0  0  0  0  0  0  0  0  0  0  0  0
  1  2  1  0
  2  3  1  0
  3  4  1  0
  4  5  1  0
  5  6  1  0
  6  7  1  0
  7  8  1  0
  7  9  1  0
  2 10  1  0
 10 11  1  0
 11 12  1  0
 12 13  1  0
 13 14  1  1
 13 15  1  0
 15 16  1  0
 16 17  1  0
 17 18  2  0
 18 19  1  0
 19 20  1  0
 20 21  1  0
 21 22  1  0
 22 23  1  0
 22 24  1  0
 24 25  1  0
 24 26  1  0
 19 27  1  0
 27 28  1  6
 27 29  1  0
 29 30  1  0
 30 31  1  0
 31 32  1  6
  7  5  1  0
 31 10  1  0
 31 13  1  0
 27 15  1  0
 24 18  1  0
  1 33  1  0
  1 34  1  0
  1 35  1  0
  2 36  1  1
  3 37  1  0
  3 38  1  0
  4 39  1  0
  4 40  1  0
  5 41  1  6
  8 42  1  0
  8 43  1  0
  8 44  1  0
  9 45  1  0
  9 46  1  0
  9 47  1  0
 10 48  1  1
 11 49  1  0
 11 50  1  0
 12 51  1  0
 12 52  1  0
 14 53  1  0
 14 54  1  0
 14 55  1  0
 15 56  1  6
 16 57  1  0
 16 58  1  0
 17 59  1  0
 19 60  1  1
 20 61  1  0
 20 62  1  0
 21 63  1  0
 21 64  1  0
 22 65  1  1
 23 66  1  0
 25 67  1  0
 25 68  1  0
 25 69  1  0
 26 70  1  0
 26 71  1  0
 26 72  1  0
 28 73  1  0
 28 74  1  0
 28 75  1  0
 29 76  1  0
 29 77  1  0
 30 78  1  0
 30 79  1  0
 32 80  1  0
 32 81  1  0
 32 82  1  0
M  END
>  <meeko>  (2) 
{"is_sidechain": [false], "intermolecular_energy": 2.731, "internal_energy": -0.839}

$$$$
EPH_relaxed_0001_pdb2pqr_Repair_353_r2_0001_out
     RDKit          3D

 82 86  0  0  0  0  0  0  0  0999 V2000
   -3.6080    9.3530    0.5070 C   0  0  0  0  0  0  0  0  0  0  0  0
   -2.7400    9.7510   -0.6910 C   0  0  2  0  0  0  0  0  0  0  0  0
   -2.0080    8.5400   -1.3040 C   0  0  0  0  0  0  0  0  0  0  0  0
   -2.8800    7.7050   -2.2460 C   0  0  0  0  0  0  0  0  0  0  0  0
   -4.3260    7.7610   -1.8570 C   0  0  2  0  0  0  0  0  0  0  0  0
   -4.8500    6.5390   -1.3210 O   0  0  0  0  0  0  0  0  0  0  0  0
   -5.4140    6.9780   -2.5670 C   0  0  0  0  0  0  0  0  0  0  0  0
   -5.1020    6.0820   -3.7250 C   0  0  0  0  0  0  0  0  0  0  0  0
   -6.8290    7.4540   -2.4540 C   0  0  0  0  0  0  0  0  0  0  0  0
   -1.7310   10.8130   -0.2730 C   0  0  1  0  0  0  0  0  0  0  0  0
   -0.7360   10.3020    0.8030 C   0  0  0  0  0  0  0  0  0  0  0  0
    0.6250   10.9840    0.5130 C   0  0  0  0  0  0  0  0  0  0  0  0
    0.2920   12.1050   -0.4990 C   0  0  1  0  0  0  0  0  0  0  0  0
   -0.2550   13.2810    0.3710 C   0  0  0  0  0  0  0  0  0  0  0  0
    1.4620   12.5690   -1.4260 C   0  0  2  0  0  0  0  0  0  0  0  0
    2.6670   13.1880   -0.6960 C   0  0  0  0  0  0  0  0  0  0  0  0
    2.6060   14.6680   -0.5060 C   0  0  0  0  0  0  0  0  0  0  0  0
    1.7690   15.5050   -1.1470 C   0  0  0  0  0  0  0  0  0  0  0  0
    0.8320   14.9910   -2.2470 C   0  0  1  0  0  0  0  0  0  0  0  0
    0.9020   15.9410   -3.4720 C   0  0  0  0  0  0  0  0  0  0  0  0
    0.6260   17.3950   -3.1020 C   0  0  0  0  0  0  0  0  0  0  0  0
    1.6150   17.8870   -2.0480 C   0  0  2  0  0  0  0  0  0  0  0  0
    2.9220   17.9310   -2.6290 O   0  0  0  0  0  0  0  0  0  0  0  0
    1.6400   17.0020   -0.7710 C   0  0  0  0  0  0  0  0  0  0  0  0
    0.3220   17.1920    0.0200 C   0  0  0  0  0  0  0  0  0  0  0  0
    2.7770   17.5230    0.1490 C   0  0  0  0  0  0  0  0  0  0  0  0
    1.0050   13.4630   -2.6490 C   0  0  1  0  0  0  0  0  0  0  0  0
    2.1090   13.3220   -3.7410 C   0  0  0  0  0  0  0  0  0  0  0  0
   -0.3330   12.9480   -3.3000 C   0  0  0  0  0  0  0  0  0  0  0  0
   -1.4020   12.3910   -2.3410 C   0  0  0  0  0  0  0  0  0  0  0  0
   -0.7930   11.3750   -1.3700 C   0  0  2  0  0  0  0  0  0  0  0  0
   -0.2550   10.1700   -2.2150 C   0  0  0  0  0  0  0  0  0  0  0  0
   -3.0786    9.5958    1.4401 H   0  0  0  0  0  0  0  0  0  0  0  0
   -4.5587    9.9051    0.4705 H   0  0  0  0  0  0  0  0  0  0  0  0
   -3.8100    8.2723    0.4705 H   0  0  0  0  0  0  0  0  0  0  0  0
   -3.4087   10.1589   -1.4633 H   0  0  0  0  0  0  0  0  0  0  0  0
   -1.1402    8.9091   -1.8702 H   0  0  0  0  0  0  0  0  0  0  0  0
   -1.7174    7.8845   -0.4699 H   0  0  0  0  0  0  0  0  0  0  0  0
   -2.7709    8.0921   -3.2698 H   0  0  0  0  0  0  0  0  0  0  0  0
   -2.5480    6.6582   -2.1833 H   0  0  0  0  0  0  0  0  0  0  0  0
   -4.2369    8.8242   -1.5895 H   0  0  0  0  0  0  0  0  0  0  0  0
   -4.7618    5.1049   -3.3514 H   0  0  0  0  0  0  0  0  0  0  0  0
   -6.0057    5.9460   -4.3373 H   0  0  0  0  0  0  0  0  0  0  0  0
   -4.3093    6.5367   -4.3373 H   0  0  0  0  0  0  0  0  0  0  0  0
   -7.1013    7.5456   -1.3922 H   0  0  0  0  0  0  0  0  0  0  0  0
   -6.9263    8.4343   -2.9434 H   0  0  0  0  0  0  0  0  0  0  0  0
   -7.4990    6.7318   -2.9434 H   0  0  0  0  0  0  0  0  0  0  0  0
   -2.4219   11.5976    0.0692 H   0  0  0  0  0  0  0  0  0  0  0  0
   -1.0906   10.5761    1.8075 H   0  0  0  0  0  0  0  0  0  0  0  0
   -0.6443    9.2064    0.7677 H   0  0  0  0  0  0  0  0  0  0  0  0
    1.0516   11.4069    1.4345 H   0  0  0  0  0  0  0  0  0  0  0  0
    1.3709   10.2767    0.1214 H   0  0  0  0  0  0  0  0  0  0  0  0
   -0.1398   13.0333    1.4365 H   0  0  0  0  0  0  0  0  0  0  0  0
    0.3091   14.1978    0.1446 H   0  0  0  0  0  0  0  0  0  0  0  0
   -1.3196   13.4402    0.1446 H   0  0  0  0  0  0  0  0  0  0  0  0
    1.8228   11.6176   -1.8439 H   0  0  0  0  0  0  0  0  0  0  0  0
    2.7397   12.7205    0.2971 H   0  0  0  0  0  0  0  0  0  0  0  0
    3.5409   12.9991   -1.3368 H   0  0  0  0  0  0  0  0  0  0  0  0
    3.3041   15.1117    0.2191 H   0  0  0  0  0  0  0  0  0  0  0  0
   -0.1802   15.0095   -1.8168 H   0  0  0  0  0  0  0  0  0  0  0  0
    1.9076   15.8742   -3.9128 H   0  0  0  0  0  0  0  0  0  0  0  0
    0.1256   15.6248   -4.1842 H   0  0  0  0  0  0  0  0  0  0  0  0
    0.7194   18.0196   -4.0026 H   0  0  0  0  0  0  0  0  0  0  0  0
   -0.3911   17.4652   -2.6890 H   0  0  0  0  0  0  0  0  0  0  0  0
    1.2877   18.8875   -1.7290 H   0  0  0  0  0  0  0  0  0  0  0  0
    3.2480   17.0170   -2.6910 H   0  0  0  0  0  0  0  0  0  0  0  0
    0.5342   17.1614    1.0989 H   0  0  0  0  0  0  0  0  0  0  0  0
   -0.1240   18.1637   -0.2386 H   0  0  0  0  0  0  0  0  0  0  0  0
   -0.3803   16.3858   -0.2386 H   0  0  0  0  0  0  0  0  0  0  0  0
    2.4868   17.3900    1.2017 H   0  0  0  0  0  0  0  0  0  0  0  0
    3.6990   16.9575   -0.0514 H   0  0  0  0  0  0  0  0  0  0  0  0
    2.9507   18.5905   -0.0514 H   0  0  0  0  0  0  0  0  0  0  0  0
    3.0891   13.1968   -3.2575 H   0  0  0  0  0  0  0  0  0  0  0  0
    1.8946   12.4439   -4.3679 H   0  0  0  0  0  0  0  0  0  0  0  0
    2.1222   14.2258   -4.3679 H   0  0  0  0  0  0  0  0  0  0  0  0
   -0.7826   13.7898   -3.8469 H   0  0  0  0  0  0  0  0  0  0  0  0
   -0.0377   12.0951   -3.9288 H   0  0  0  0  0  0  0  0  0  0  0  0
   -1.8373   13.2217   -1.7661 H   0  0  0  0  0  0  0  0  0  0  0  0
   -2.1772   11.8859   -2.9359 H   0  0  0  0  0  0  0  0  0  0  0  0
    0.0989    9.3774   -1.5393 H   0  0  0  0  0  0  0  0  0  0  0  0
   -1.0632    9.7772   -2.8494 H   0  0  0  0  0  0  0  0  0  0  0  0
    0.5770   10.5095   -2.8494 H   0  0  0  0  0  0  0  0  0  0  0  0
  1  2  1  0
  2  3  1  0
  3  4  1  0
  4  5  1  0
  5  6  1  0
  6  7  1  0
  7  8  1  0
  7  9  1  0
  2 10  1  0
 10 11  1  0
 11 12  1  0
 12 13  1  0
 13 14  1  1
 13 15  1  0
 15 16  1  0
 16 17  1  0
 17 18  2  0
 18 19  1  0
 19 20  1  0
 20 21  1  0
 21 22  1  0
 22 23  1  0
 22 24  1  0
 24 25  1  0
 24 26  1  0
 19 27  1  0
 27 28  1  6
 27 29  1  0
 29 30  1  0
 30 31  1  0
 31 32  1  6
  7  5  1  0
 31 10  1  0
 31 13  1  0
 27 15  1  0
 24 18  1  0
  1 33  1  0
  1 34  1  0
  1 35  1  0
  2 36  1  6
  3 37  1  0
  3 38  1  0
  4 39  1  0
  4 40  1  0
  5 41  1  1
  8 42  1  0
  8 43  1  0
  8 44  1  0
  9 45  1  0
  9 46  1  0
  9 47  1  0
 10 48  1  1
 11 49  1  0
 11 50  1  0
 12 51  1  0
 12 52  1  0
 14 53  1  0
 14 54  1  0
 14 55  1  0
 15 56  1  6
 16 57  1  0
 16 58  1  0
 17 59  1  0
 19 60  1  1
 20 61  1  0
 20 62  1  0
 21 63  1  0
 21 64  1  0
 22 65  1  1
 23 66  1  0
 25 67  1  0
 25 68  1  0
 25 69  1  0
 26 70  1  0
 26 71  1  0
 26 72  1  0
 28 73  1  0
 28 74  1  0
 28 75  1  0
 29 76  1  0
 29 77  1  0
 30 78  1  0
 30 79  1  0
 32 80  1  0
 32 81  1  0
 32 82  1  0
M  END
>  <meeko>  (3) 
{"is_sidechain": [false], "intermolecular_energy": 2.731, "internal_energy": -0.839}

$$$$
EPH_relaxed_0001_pdb2pqr_Repair_353_r2_0001_out
     RDKit          3D

 82 86  0  0  0  0  0  0  0  0999 V2000
    2.3600   17.9370   -2.7720 C   0  0  0  0  0  0  0  0  0  0  0  0
    1.0660   17.5660   -2.0410 C   0  0  2  0  0  0  0  0  0  0  0  0
    1.2260   17.6290   -0.5090 C   0  0  0  0  0  0  0  0  0  0  0  0
    0.9550   19.0160    0.0810 C   0  0  0  0  0  0  0  0  0  0  0  0
   -0.4800   19.1770    0.4810 C   0  0  2  0  0  0  0  0  0  0  0  0
   -1.3750   18.2200   -0.1020 O   0  0  0  0  0  0  0  0  0  0  0  0
   -1.5760   19.5910   -0.4840 C   0  0  0  0  0  0  0  0  0  0  0  0
   -1.2830   19.8700   -1.9240 C   0  0  0  0  0  0  0  0  0  0  0  0
   -2.8280   20.1940    0.0720 C   0  0  0  0  0  0  0  0  0  0  0  0
    0.6150   16.1720   -2.4600 C   0  0  1  0  0  0  0  0  0  0  0  0
    0.7090   15.9490   -3.9930 C   0  0  0  0  0  0  0  0  0  0  0  0
    1.1060   14.4650   -4.2060 C   0  0  0  0  0  0  0  0  0  0  0  0
    0.9030   13.8050   -2.8220 C   0  0  1  0  0  0  0  0  0  0  0  0
   -0.6280   13.5140   -2.7370 C   0  0  0  0  0  0  0  0  0  0  0  0
    1.7510   12.5220   -2.5370 C   0  0  2  0  0  0  0  0  0  0  0  0
    1.4660   11.3320   -3.4690 C   0  0  0  0  0  0  0  0  0  0  0  0
    0.4040   10.3930   -2.9980 C   0  0  0  0  0  0  0  0  0  0  0  0
   -0.0930   10.3380   -1.7480 C   0  0  0  0  0  0  0  0  0  0  0  0
    0.4870   11.2150   -0.6310 C   0  0  1  0  0  0  0  0  0  0  0  0
    0.7130   10.3540    0.6390 C   0  0  0  0  0  0  0  0  0  0  0  0
   -0.5470    9.6110    1.0740 C   0  0  0  0  0  0  0  0  0  0  0  0
   -1.0590    8.7060   -0.0430 C   0  0  2  0  0  0  0  0  0  0  0  0
   -0.1100    7.6570   -0.2590 O   0  0  0  0  0  0  0  0  0  0  0  0
   -1.3140    9.4620   -1.3770 C   0  0  0  0  0  0  0  0  0  0  0  0
   -2.5470   10.3870   -1.2230 C   0  0  0  0  0  0  0  0  0  0  0  0
   -1.6910    8.4130   -2.4570 C   0  0  0  0  0  0  0  0  0  0  0  0
    1.7640   12.0780   -1.0190 C   0  0  1  0  0  0  0  0  0  0  0  0
    3.0590   11.2330   -0.8130 C   0  0  0  0  0  0  0  0  0  0  0  0
    1.8730   13.3040   -0.0370 C   0  0  0  0  0  0  0  0  0  0  0  0
    1.1100   14.5820   -0.4340 C   0  0  0  0  0  0  0  0  0  0  0  0
    1.4020   14.9670   -1.8880 C   0  0  2  0  0  0  0  0  0  0  0  0
    2.9320   15.2860   -1.9990 C   0  0  0  0  0  0  0  0  0  0  0  0
    3.1455   18.1622   -2.0356 H   0  0  0  0  0  0  0  0  0  0  0  0
    2.6794   17.0942   -3.4027 H   0  0  0  0  0  0  0  0  0  0  0  0
    2.1843   18.8210   -3.4027 H   0  0  0  0  0  0  0  0  0  0  0  0
    0.3022   18.3054   -2.3238 H   0  0  0  0  0  0  0  0  0  0  0  0
    0.5218   16.9153   -0.0565 H   0  0  0  0  0  0  0  0  0  0  0  0
    2.2744   17.3831   -0.2846 H   0  0  0  0  0  0  0  0  0  0  0  0
    1.5903   19.1565    0.9679 H   0  0  0  0  0  0  0  0  0  0  0  0
    1.1826   19.7671   -0.6897 H   0  0  0  0  0  0  0  0  0  0  0  0
   -0.1863   19.5565    1.4708 H   0  0  0  0  0  0  0  0  0  0  0  0
   -0.4881   20.6269   -1.9965 H   0  0  0  0  0  0  0  0  0  0  0  0
   -0.9533   18.9437   -2.4173 H   0  0  0  0  0  0  0  0  0  0  0  0
   -2.1921   20.2446   -2.4173 H   0  0  0  0  0  0  0  0  0  0  0  0
   -2.7876   20.1745    1.1711 H   0  0  0  0  0  0  0  0  0  0  0  0
   -2.9185   21.2345   -0.2732 H   0  0  0  0  0  0  0  0  0  0  0  0
   -3.6980   19.6161   -0.2732 H   0  0  0  0  0  0  0  0  0  0  0  0
   -0.4073   16.1802   -2.0539 H   0  0  0  0  0  0  0  0  0  0  0  0
   -0.2632   16.1526   -4.4657 H   0  0  0  0  0  0  0  0  0  0  0  0
    1.4496   16.6247   -4.4456 H   0  0  0  0  0  0  0  0  0  0  0  0
    0.4580   13.9939   -4.9598 H   0  0  0  0  0  0  0  0  0  0  0  0
    2.1375   14.3573   -4.5725 H   0  0  0  0  0  0  0  0  0  0  0  0
   -0.9322   13.4562   -1.6815 H   0  0  0  0  0  0  0  0  0  0  0  0
   -1.1831   14.3227   -3.2348 H   0  0  0  0  0  0  0  0  0  0  0  0
   -0.8477   12.5580   -3.2348 H   0  0  0  0  0  0  0  0  0  0  0  0
    2.7711   12.8540   -2.7804 H   0  0  0  0  0  0  0  0  0  0  0  0
    1.1573   11.7318   -4.4461 H   0  0  0  0  0  0  0  0  0  0  0  0
    2.3959   10.7456   -3.5070 H   0  0  0  0  0  0  0  0  0  0  0  0
   -0.0066    9.6868   -3.7347 H   0  0  0  0  0  0  0  0  0  0  0  0
   -0.2690   11.9879   -0.4280 H   0  0  0  0  0  0  0  0  0  0  0  0
    1.5023    9.6171    0.4296 H   0  0  0  0  0  0  0  0  0  0  0  0
    0.9993   11.0327    1.4560 H   0  0  0  0  0  0  0  0  0  0  0  0
   -0.3163    8.9974    1.9573 H   0  0  0  0  0  0  0  0  0  0  0  0
   -1.3261   10.3501    1.3122 H   0  0  0  0  0  0  0  0  0  0  0  0
   -2.0303    8.3030    0.2796 H   0  0  0  0  0  0  0  0  0  0  0  0
   -0.2350    6.9980    0.4440 H   0  0  0  0  0  0  0  0  0  0  0  0
   -2.7564   10.5441   -0.1546 H   0  0  0  0  0  0  0  0  0  0  0  0
   -2.3411   11.3553   -1.7025 H   0  0  0  0  0  0  0  0  0  0  0  0
   -3.4191    9.9184   -1.7025 H   0  0  0  0  0  0  0  0  0  0  0  0
   -2.0241    7.4861   -1.9673 H   0  0  0  0  0  0  0  0  0  0  0  0
   -2.5032    8.8085   -3.0846 H   0  0  0  0  0  0  0  0  0  0  0  0
   -0.8128    8.2010   -3.0846 H   0  0  0  0  0  0  0  0  0  0  0  0
    3.2487   11.1092    0.2634 H   0  0  0  0  0  0  0  0  0  0  0  0
    2.9299   10.2448   -1.2786 H   0  0  0  0  0  0  0  0  0  0  0  0
    3.9115   11.7491   -1.2786 H   0  0  0  0  0  0  0  0  0  0  0  0
    1.4926   12.9802    0.9430 H   0  0  0  0  0  0  0  0  0  0  0  0
    2.9356   13.5881   -0.0482 H   0  0  0  0  0  0  0  0  0  0  0  0
    0.0302   14.4068   -0.3182 H   0  0  0  0  0  0  0  0  0  0  0  0
    1.4395   15.4037    0.2189 H   0  0  0  0  0  0  0  0  0  0  0  0
    3.3620   15.3756   -0.9905 H   0  0  0  0  0  0  0  0  0  0  0  0
    3.4374   14.4739   -2.5422 H   0  0  0  0  0  0  0  0  0  0  0  0
    3.0708   16.2324   -2.5422 H   0  0  0  0  0  0  0  0  0  0  0  0
  1  2  1  0
  2  3  1  0
  3  4  1  0
  4  5  1  0
  5  6  1  0
  6  7  1  0
  7  8  1  0
  7  9  1  0
  2 10  1  0
 10 11  1  0
 11 12  1  0
 12 13  1  0
 13 14  1  1
 13 15  1  0
 15 16  1  0
 16 17  1  0
 17 18  2  0
 18 19  1  0
 19 20  1  0
 20 21  1  0
 21 22  1  0
 22 23  1  0
 22 24  1  0
 24 25  1  0
 24 26  1  0
 19 27  1  0
 27 28  1  6
 27 29  1  0
 29 30  1  0
 30 31  1  0
 31 32  1  1
  7  5  1  0
 31 10  1  0
 31 13  1  0
 27 15  1  0
 24 18  1  0
  1 33  1  0
  1 34  1  0
  1 35  1  0
  2 36  1  6
  3 37  1  0
  3 38  1  0
  4 39  1  0
  4 40  1  0
  5 41  1  1
  8 42  1  0
  8 43  1  0
  8 44  1  0
  9 45  1  0
  9 46  1  0
  9 47  1  0
 10 48  1  1
 11 49  1  0
 11 50  1  0
 12 51  1  0
 12 52  1  0
 14 53  1  0
 14 54  1  0
 14 55  1  0
 15 56  1  6
 16 57  1  0
 16 58  1  0
 17 59  1  0
 19 60  1  1
 20 61  1  0
 20 62  1  0
 21 63  1  0
 21 64  1  0
 22 65  1  1
 23 66  1  0
 25 67  1  0
 25 68  1  0
 25 69  1  0
 26 70  1  0
 26 71  1  0
 26 72  1  0
 28 73  1  0
 28 74  1  0
 28 75  1  0
 29 76  1  0
 29 77  1  0
 30 78  1  0
 30 79  1  0
 32 80  1  0
 32 81  1  0
 32 82  1  0
M  END
>  <meeko>  (4) 
{"is_sidechain": [false], "intermolecular_energy": 2.731, "internal_energy": -0.839}

$$$$
EPH_relaxed_0001_pdb2pqr_Repair_353_r2_0001_out
     RDKit          3D

 82 86  0  0  0  0  0  0  0  0999 V2000
    0.3920   18.4340   -0.0550 C   0  0  0  0  0  0  0  0  0  0  0  0
    1.4800   17.3780   -0.2650 C   0  0  2  0  0  0  0  0  0  0  0  0
    2.6940   17.9380   -1.0330 C   0  0  0  0  0  0  0  0  0  0  0  0
    3.9210   18.1840   -0.1510 C   0  0  0  0  0  0  0  0  0  0  0  0
    3.5340   18.6640    1.2150 C   0  0  2  0  0  0  0  0  0  0  0  0
    3.7770   20.0560    1.4520 O   0  0  0  0  0  0  0  0  0  0  0  0
    4.5370   19.1350    2.2510 C   0  0  0  0  0  0  0  0  0  0  0  0
    6.0060   19.1490    1.9650 C   0  0  0  0  0  0  0  0  0  0  0  0
    4.1380   19.1170    3.6940 C   0  0  0  0  0  0  0  0  0  0  0  0
    0.9030   16.1780   -1.0070 C   0  0  1  0  0  0  0  0  0  0  0  0
    0.7680   16.4270   -2.5330 C   0  0  0  0  0  0  0  0  0  0  0  0
    1.0550   15.0750   -3.2340 C   0  0  0  0  0  0  0  0  0  0  0  0
    1.0160   14.0290   -2.0950 C   0  0  1  0  0  0  0  0  0  0  0  0
   -0.5010   13.7350   -1.8710 C   0  0  0  0  0  0  0  0  0  0  0  0
    1.8290   12.7150   -2.3360 C   0  0  2  0  0  0  0  0  0  0  0  0
    1.3540   11.8630   -3.5250 C   0  0  0  0  0  0  0  0  0  0  0  0
    0.3230   10.8330   -3.2010 C   0  0  0  0  0  0  0  0  0  0  0  0
    0.0060   10.4060   -1.9640 C   0  0  0  0  0  0  0  0  0  0  0  0
    0.7810   10.9020   -0.7370 C   0  0  1  0  0  0  0  0  0  0  0  0
    1.1400    9.6950    0.1700 C   0  0  0  0  0  0  0  0  0  0  0  0
   -0.0820    8.8640    0.5490 C   0  0  0  0  0  0  0  0  0  0  0  0
   -0.7930    8.3410   -0.6970 C   0  0  2  0  0  0  0  0  0  0  0  0
    0.0620    7.4010   -1.3540 O   0  0  0  0  0  0  0  0  0  0  0  0
   -1.1950    9.4670   -1.6910 C   0  0  0  0  0  0  0  0  0  0  0  0
   -2.3440   10.3100   -1.0850 C   0  0  0  0  0  0  0  0  0  0  0  0
   -1.7740    8.7940   -2.9640 C   0  0  0  0  0  0  0  0  0  0  0  0
    2.0340   11.8330   -1.0380 C   0  0  1  0  0  0  0  0  0  0  0  0
    3.2990   10.9580   -1.2900 C   0  0  0  0  0  0  0  0  0  0  0  0
    2.3430   12.7050    0.2360 C   0  0  0  0  0  0  0  0  0  0  0  0
    1.5980   14.0480    0.3560 C   0  0  0  0  0  0  0  0  0  0  0  0
    1.7010   14.8510   -0.9440 C   0  0  2  0  0  0  0  0  0  0  0  0
    3.2140   15.1800   -1.1840 C   0  0  0  0  0  0  0  0  0  0  0  0
    0.2335   18.5879    1.0226 H   0  0  0  0  0  0  0  0  0  0  0  0
    0.7059   19.3810   -0.5183 H   0  0  0  0  0  0  0  0  0  0  0  0
   -0.5452   18.0920   -0.5183 H   0  0  0  0  0  0  0  0  0  0  0  0
    1.8340   17.0663    0.7288 H   0  0  0  0  0  0  0  0  0  0  0  0
    2.9696   17.2190   -1.8185 H   0  0  0  0  0  0  0  0  0  0  0  0
    2.3926   18.9132   -1.4431 H   0  0  0  0  0  0  0  0  0  0  0  0
    4.4836   17.2439   -0.0525 H   0  0  0  0  0  0  0  0  0  0  0  0
    4.5351   18.9626   -0.6270 H   0  0  0  0  0  0  0  0  0  0  0  0
    2.7103   17.9365    1.2627 H   0  0  0  0  0  0  0  0  0  0  0  0
    6.5641   19.1543    2.9129 H   0  0  0  0  0  0  0  0  0  0  0  0
    6.2754   18.2534    1.3859 H   0  0  0  0  0  0  0  0  0  0  0  0
    6.2582   20.0496    1.3859 H   0  0  0  0  0  0  0  0  0  0  0  0
    5.0388   19.1576    4.3240 H   0  0  0  0  0  0  0  0  0  0  0  0
    3.5006   19.9873    3.9091 H   0  0  0  0  0  0  0  0  0  0  0  0
    3.5815   18.1928    3.9091 H   0  0  0  0  0  0  0  0  0  0  0  0
   -0.0500   16.0700   -0.4684 H   0  0  0  0  0  0  0  0  0  0  0  0
   -0.2496   16.7692   -2.7724 H   0  0  0  0  0  0  0  0  0  0  0  0
    1.4705   17.2035   -2.8700 H   0  0  0  0  0  0  0  0  0  0  0  0
    0.2842   14.8571   -3.9879 H   0  0  0  0  0  0  0  0  0  0  0  0
    2.0179   15.0769   -3.7658 H   0  0  0  0  0  0  0  0  0  0  0  0
   -0.7112   13.6943   -0.7920 H   0  0  0  0  0  0  0  0  0  0  0  0
   -1.1012   14.5335   -2.3316 H   0  0  0  0  0  0  0  0  0  0  0  0
   -0.7594   12.7701   -2.3316 H   0  0  0  0  0  0  0  0  0  0  0  0
    2.8196   13.0990   -2.6210 H   0  0  0  0  0  0  0  0  0  0  0  0
    0.9312   12.5408   -4.2812 H   0  0  0  0  0  0  0  0  0  0  0  0
    2.2378   11.3090   -3.8742 H   0  0  0  0  0  0  0  0  0  0  0  0
   -0.2238   10.3852   -4.0439 H   0  0  0  0  0  0  0  0  0  0  0  0
    0.1021   11.5827   -0.2024 H   0  0  0  0  0  0  0  0  0  0  0  0
    1.8521    9.0505   -0.3662 H   0  0  0  0  0  0  0  0  0  0  0  0
    1.5742   10.0930    1.0990 H   0  0  0  0  0  0  0  0  0  0  0  0
    0.2394    8.0112    1.1650 H   0  0  0  0  0  0  0  0  0  0  0  0
   -0.7804    9.5019    1.1105 H   0  0  0  0  0  0  0  0  0  0  0  0
   -1.7286    7.8648   -0.3685 H   0  0  0  0  0  0  0  0  0  0  0  0
    0.6850    7.0570   -0.6930 H   0  0  0  0  0  0  0  0  0  0  0  0
   -2.2888   10.2695    0.0129 H   0  0  0  0  0  0  0  0  0  0  0  0
   -2.2484   11.3538   -1.4187 H   0  0  0  0  0  0  0  0  0  0  0  0
   -3.3110    9.9055   -1.4187 H   0  0  0  0  0  0  0  0  0  0  0  0
   -2.4656    7.9902   -2.6715 H   0  0  0  0  0  0  0  0  0  0  0  0
   -2.3143    9.5432   -3.5614 H   0  0  0  0  0  0  0  0  0  0  0  0
   -0.9526    8.3717   -3.5614 H   0  0  0  0  0  0  0  0  0  0  0  0
    3.7345   10.6568   -0.3258 H   0  0  0  0  0  0  0  0  0  0  0  0
    3.0167   10.0612   -1.8610 H   0  0  0  0  0  0  0  0  0  0  0  0
    4.0386   11.5385   -1.8610 H   0  0  0  0  0  0  0  0  0  0  0  0
    2.0886   12.1031    1.1209 H   0  0  0  0  0  0  0  0  0  0  0  0
    3.4065   12.9725    0.1506 H   0  0  0  0  0  0  0  0  0  0  0  0
    0.5379   13.8529    0.5752 H   0  0  0  0  0  0  0  0  0  0  0  0
    2.0579   14.6326    1.1663 H   0  0  0  0  0  0  0  0  0  0  0  0
    3.7233   15.2907   -0.2153 H   0  0  0  0  0  0  0  0  0  0  0  0
    3.6813   14.3625   -1.7526 H   0  0  0  0  0  0  0  0  0  0  0  0
    3.2996   16.1178   -1.7526 H   0  0  0  0  0  0  0  0  0  0  0  0
  1  2  1  0
  2  3  1  0
  3  4  1  0
  4  5  1  0
  5  6  1  0
  6  7  1  0
  7  8  1  0
  7  9  1  0
  2 10  1  0
 10 11  1  0
 11 12  1  0
 12 13  1  0
 13 14  1  1
 13 15  1  0
 15 16  1  0
 16 17  1  0
 17 18  2  0
 18 19  1  0
 19 20  1  0
 20 21  1  0
 21 22  1  0
 22 23  1  0
 22 24  1  0
 24 25  1  0
 24 26  1  0
 19 27  1  0
 27 28  1  6
 27 29  1  0
 29 30  1  0
 30 31  1  0
 31 32  1  6
  7  5  1  0
 31 10  1  0
 31 13  1  0
 27 15  1  0
 24 18  1  0
  1 33  1  0
  1 34  1  0
  1 35  1  0
  2 36  1  1
  3 37  1  0
  3 38  1  0
  4 39  1  0
  4 40  1  0
  5 41  1  1
  8 42  1  0
  8 43  1  0
  8 44  1  0
  9 45  1  0
  9 46  1  0
  9 47  1  0
 10 48  1  1
 11 49  1  0
 11 50  1  0
 12 51  1  0
 12 52  1  0
 14 53  1  0
 14 54  1  0
 14 55  1  0
 15 56  1  6
 16 57  1  0
 16 58  1  0
 17 59  1  0
 19 60  1  1
 20 61  1  0
 20 62  1  0
 21 63  1  0
 21 64  1  0
 22 65  1  1
 23 66  1  0
 25 67  1  0
 25 68  1  0
 25 69  1  0
 26 70  1  0
 26 71  1  0
 26 72  1  0
 28 73  1  0
 28 74  1  0
 28 75  1  0
 29 76  1  0
 29 77  1  0
 30 78  1  0
 30 79  1  0
 32 80  1  0
 32 81  1  0
 32 82  1  0
M  END
>  <meeko>  (5) 
{"is_sidechain": [false], "intermolecular_energy": 2.731, "internal_energy": -0.839}

$$$$
EPH_relaxed_0001_pdb2pqr_Repair_353_r2_0001_out
     RDKit          3D

 82 86  0  0  0  0  0  0  0  0999 V2000
    3.7240   17.6220    0.5530 C   0  0  0  0  0  0  0  0  0  0  0  0
    2.8080   17.9520   -0.6280 C   0  0  2  0  0  0  0  0  0  0  0  0
    2.1480   19.3370   -0.4820 C   0  0  0  0  0  0  0  0  0  0  0  0
    1.2210   19.4530    0.7310 C   0  0  0  0  0  0  0  0  0  0  0  0
   -0.0930   20.0740    0.3680 C   0  0  2  0  0  0  0  0  0  0  0  0
   -1.0260   20.1780    1.4510 O   0  0  0  0  0  0  0  0  0  0  0  0
   -1.4060   19.3140    0.3680 C   0  0  0  0  0  0  0  0  0  0  0  0
   -1.4690   17.8650    0.7390 C   0  0  0  0  0  0  0  0  0  0  0  0
   -2.5390   19.8420   -0.4550 C   0  0  0  0  0  0  0  0  0  0  0  0
    1.7370   16.8770   -0.7710 C   0  0  1  0  0  0  0  0  0  0  0  0
    0.5230   17.3510   -1.6140 C   0  0  0  0  0  0  0  0  0  0  0  0
    0.0190   16.1180   -2.4070 C   0  0  0  0  0  0  0  0  0  0  0  0
    0.7370   14.9140   -1.7530 C   0  0  1  0  0  0  0  0  0  0  0  0
   -0.1010   14.5930   -0.4760 C   0  0  0  0  0  0  0  0  0  0  0  0
    0.9250   13.6500   -2.6530 C   0  0  2  0  0  0  0  0  0  0  0  0
   -0.3790   12.9850   -3.1260 C   0  0  0  0  0  0  0  0  0  0  0  0
   -0.9140   11.9200   -2.2270 C   0  0  0  0  0  0  0  0  0  0  0  0
   -0.2300   11.3140   -1.2390 C   0  0  0  0  0  0  0  0  0  0  0  0
    1.2550   11.6200   -1.0060 C   0  0  1  0  0  0  0  0  0  0  0  0
    2.0340   10.2910   -0.8200 C   0  0  0  0  0  0  0  0  0  0  0  0
    1.4400    9.4140    0.2790 C   0  0  0  0  0  0  0  0  0  0  0  0
   -0.0210    9.0840   -0.0170 C   0  0  2  0  0  0  0  0  0  0  0  0
   -0.0790    8.2510   -1.1790 O   0  0  0  0  0  0  0  0  0  0  0  0
   -0.9020   10.3460   -0.2340 C   0  0  0  0  0  0  0  0  0  0  0  0
   -1.0850   11.0910    1.1110 C   0  0  0  0  0  0  0  0  0  0  0  0
   -2.3170    9.8710   -0.6630 C   0  0  0  0  0  0  0  0  0  0  0  0
    1.9390   12.5840   -2.0690 C   0  0  1  0  0  0  0  0  0  0  0  0
    2.4600   11.7540   -3.2820 C   0  0  0  0  0  0  0  0  0  0  0  0
    3.2030   13.2560   -1.4150 C   0  0  0  0  0  0  0  0  0  0  0  0
    2.9700   14.5660   -0.6390 C   0  0  0  0  0  0  0  0  0  0  0  0
    2.1440   15.5550   -1.4680 C   0  0  2  0  0  0  0  0  0  0  0  0
    2.9720   15.9140   -2.7490 C   0  0  0  0  0  0  0  0  0  0  0  0
    3.1906   17.8142    1.4956 H   0  0  0  0  0  0  0  0  0  0  0  0
    4.0154   16.5624    0.5061 H   0  0  0  0  0  0  0  0  0  0  0  0
    4.6243   18.2523    0.5061 H   0  0  0  0  0  0  0  0  0  0  0  0
    3.4321   17.9780   -1.5334 H   0  0  0  0  0  0  0  0  0  0  0  0
    2.9424   20.0917   -0.3852 H   0  0  0  0  0  0  0  0  0  0  0  0
    1.5273   19.4929   -1.3767 H   0  0  0  0  0  0  0  0  0  0  0  0
    1.0395   18.4474    1.1381 H   0  0  0  0  0  0  0  0  0  0  0  0
    1.7105   20.0979    1.4757 H   0  0  0  0  0  0  0  0  0  0  0  0
    0.3905   20.7116   -0.3868 H   0  0  0  0  0  0  0  0  0  0  0  0
   -1.4733   17.7669    1.8346 H   0  0  0  0  0  0  0  0  0  0  0  0
   -2.3873   17.4207    0.3275 H   0  0  0  0  0  0  0  0  0  0  0  0
   -0.5927   17.3427    0.3275 H   0  0  0  0  0  0  0  0  0  0  0  0
   -3.3335   20.2123    0.2096 H   0  0  0  0  0  0  0  0  0  0  0  0
   -2.1787   20.6650   -1.0897 H   0  0  0  0  0  0  0  0  0  0  0  0
   -2.9375   19.0368   -1.0897 H   0  0  0  0  0  0  0  0  0  0  0  0
    1.5205   16.6913    0.2914 H   0  0  0  0  0  0  0  0  0  0  0  0
   -0.2723   17.7276   -0.9540 H   0  0  0  0  0  0  0  0  0  0  0  0
    0.8092   18.1671   -2.2937 H   0  0  0  0  0  0  0  0  0  0  0  0
   -1.0724   16.0164   -2.3146 H   0  0  0  0  0  0  0  0  0  0  0  0
    0.2334   16.1976   -3.4830 H   0  0  0  0  0  0  0  0  0  0  0  0
    0.4945   14.8211    0.4203 H   0  0  0  0  0  0  0  0  0  0  0  0
   -1.0153   15.2045   -0.4741 H   0  0  0  0  0  0  0  0  0  0  0  0
   -0.3728   13.5271   -0.4741 H   0  0  0  0  0  0  0  0  0  0  0  0
    1.3893   14.0713   -3.5568 H   0  0  0  0  0  0  0  0  0  0  0  0
   -1.1457   13.7682   -3.2189 H   0  0  0  0  0  0  0  0  0  0  0  0
   -0.1395   12.4880   -4.0777 H   0  0  0  0  0  0  0  0  0  0  0  0
   -1.9556   11.6038   -2.3856 H   0  0  0  0  0  0  0  0  0  0  0  0
    1.3022   12.2135   -0.0810 H   0  0  0  0  0  0  0  0  0  0  0  0
    2.0109    9.7330   -1.7677 H   0  0  0  0  0  0  0  0  0  0  0  0
    3.0628   10.5452   -0.5252 H   0  0  0  0  0  0  0  0  0  0  0  0
    2.0147    8.4783    0.3430 H   0  0  0  0  0  0  0  0  0  0  0  0
    1.4904    9.9619    1.2315 H   0  0  0  0  0  0  0  0  0  0  0  0
   -0.4274    8.5656    0.8640 H   0  0  0  0  0  0  0  0  0  0  0  0
   -0.4810    7.4060   -0.9150 H   0  0  0  0  0  0  0  0  0  0  0  0
   -0.9134   10.3926    1.9433 H   0  0  0  0  0  0  0  0  0  0  0  0
   -0.3636   11.9191    1.1726 H   0  0  0  0  0  0  0  0  0  0  0  0
   -2.1080   11.4906    1.1726 H   0  0  0  0  0  0  0  0  0  0  0  0
   -2.9227    9.6677    0.2325 H   0  0  0  0  0  0  0  0  0  0  0  0
   -2.8011   10.6559   -1.2627 H   0  0  0  0  0  0  0  0  0  0  0  0
   -2.2295    8.9530   -1.2627 H   0  0  0  0  0  0  0  0  0  0  0  0
    3.0114   10.8756   -2.9155 H   0  0  0  0  0  0  0  0  0  0  0  0
    1.6074   11.4230   -3.8931 H   0  0  0  0  0  0  0  0  0  0  0  0
    3.1288   12.3780   -3.8931 H   0  0  0  0  0  0  0  0  0  0  0  0
    3.6423   12.5289   -0.7162 H   0  0  0  0  0  0  0  0  0  0  0  0
    3.8509   13.5332   -2.2596 H   0  0  0  0  0  0  0  0  0  0  0  0
    2.4320   14.3409    0.2937 H   0  0  0  0  0  0  0  0  0  0  0  0
    3.9466   15.0222   -0.4196 H   0  0  0  0  0  0  0  0  0  0  0  0
    3.9436   16.3353   -2.4514 H   0  0  0  0  0  0  0  0  0  0  0  0
    3.1341   15.0054   -3.3474 H   0  0  0  0  0  0  0  0  0  0  0  0
    2.4195   16.6534   -3.3474 H   0  0  0  0  0  0  0  0  0  0  0  0
  1  2  1  0
  2  3  1  0
  3  4  1  0
  4  5  1  0
  5  6  1  0
  6  7  1  0
  7  8  1  0
  7  9  1  0
  2 10  1  0
 10 11  1  0
 11 12  1  0
 12 13  1  0
 13 14  1  1
 13 15  1  0
 15 16  1  0
 16 17  1  0
 17 18  2  0
 18 19  1  0
 19 20  1  0
 20 21  1  0
 21 22  1  0
 22 23  1  0
 22 24  1  0
 24 25  1  0
 24 26  1  0
 19 27  1  0
 27 28  1  6
 27 29  1  0
 29 30  1  0
 30 31  1  0
 31 32  1  6
  7  5  1  0
 31 10  1  0
 31 13  1  0
 27 15  1  0
 24 18  1  0
  1 33  1  0
  1 34  1  0
  1 35  1  0
  2 36  1  6
  3 37  1  0
  3 38  1  0
  4 39  1  0
  4 40  1  0
  5 41  1  6
  8 42  1  0
  8 43  1  0
  8 44  1  0
  9 45  1  0
  9 46  1  0
  9 47  1  0
 10 48  1  1
 11 49  1  0
 11 50  1  0
 12 51  1  0
 12 52  1  0
 14 53  1  0
 14 54  1  0
 14 55  1  0
 15 56  1  6
 16 57  1  0
 16 58  1  0
 17 59  1  0
 19 60  1  1
 20 61  1  0
 20 62  1  0
 21 63  1  0
 21 64  1  0
 22 65  1  1
 23 66  1  0
 25 67  1  0
 25 68  1  0
 25 69  1  0
 26 70  1  0
 26 71  1  0
 26 72  1  0
 28 73  1  0
 28 74  1  0
 28 75  1  0
 29 76  1  0
 29 77  1  0
 30 78  1  0
 30 79  1  0
 32 80  1  0
 32 81  1  0
 32 82  1  0
M  END
>  <meeko>  (6) 
{"is_sidechain": [false], "intermolecular_energy": 2.731, "internal_energy": -0.839}

$$$$
EPH_relaxed_0001_pdb2pqr_Repair_353_r2_0001_out
     RDKit          3D

 82 86  0  0  0  0  0  0  0  0999 V2000
   -5.1530    5.8600   -1.6870 C   0  0  0  0  0  0  0  0  0  0  0  0
   -5.4450    7.3610   -1.7620 C   0  0  2  0  0  0  0  0  0  0  0  0
   -5.2220    8.0650   -0.4080 C   0  0  0  0  0  0  0  0  0  0  0  0
   -4.3910    9.3470   -0.5100 C   0  0  0  0  0  0  0  0  0  0  0  0
   -2.9230    9.0670   -0.3970 C   0  0  2  0  0  0  0  0  0  0  0  0
   -2.2850    9.6670    0.7380 O   0  0  0  0  0  0  0  0  0  0  0  0
   -1.8540   10.1320   -0.5510 C   0  0  0  0  0  0  0  0  0  0  0  0
   -2.2090   11.5590   -0.8340 C   0  0  0  0  0  0  0  0  0  0  0  0
   -0.4660    9.7050   -0.9130 C   0  0  0  0  0  0  0  0  0  0  0  0
   -6.8740    7.5900   -2.2380 C   0  0  1  0  0  0  0  0  0  0  0  0
   -7.1710    6.8930   -3.5930 C   0  0  0  0  0  0  0  0  0  0  0  0
   -8.6480    6.4230   -3.5400 C   0  0  0  0  0  0  0  0  0  0  0  0
   -9.2440    7.1470   -2.3100 C   0  0  1  0  0  0  0  0  0  0  0  0
   -9.5870    8.5830   -2.8180 C   0  0  0  0  0  0  0  0  0  0  0  0
  -10.4770    6.4630   -1.6360 C   0  0  2  0  0  0  0  0  0  0  0  0
  -11.7240    6.3390   -2.5300 C   0  0  0  0  0  0  0  0  0  0  0  0
  -12.6760    7.4860   -2.4590 C   0  0  0  0  0  0  0  0  0  0  0  0
  -12.6860    8.4370   -1.5050 C   0  0  0  0  0  0  0  0  0  0  0  0
  -11.7320    8.3600   -0.3060 C   0  0  1  0  0  0  0  0  0  0  0  0
  -12.5190    8.6420    1.0000 C   0  0  0  0  0  0  0  0  0  0  0  0
  -13.2860    9.9600    0.9480 C   0  0  0  0  0  0  0  0  0  0  0  0
  -14.2650    9.9760   -0.2230 C   0  0  2  0  0  0  0  0  0  0  0  0
  -15.2870    9.0030    0.0190 O   0  0  0  0  0  0  0  0  0  0  0  0
  -13.5880    9.6930   -1.5920 C   0  0  0  0  0  0  0  0  0  0  0  0
  -12.7030   10.8990   -1.9940 C   0  0  0  0  0  0  0  0  0  0  0  0
  -14.7040    9.5960   -2.6670 C   0  0  0  0  0  0  0  0  0  0  0  0
  -10.8430    7.0460   -0.2110 C   0  0  1  0  0  0  0  0  0  0  0  0
  -11.6270    5.9260    0.5400 C   0  0  0  0  0  0  0  0  0  0  0  0
   -9.5650    7.3520    0.6560 C   0  0  0  0  0  0  0  0  0  0  0  0
   -8.3390    7.9140   -0.0870 C   0  0  0  0  0  0  0  0  0  0  0  0
   -8.0180    7.0760   -1.3280 C   0  0  2  0  0  0  0  0  0  0  0  0
   -7.6470    5.6320   -0.8470 C   0  0  0  0  0  0  0  0  0  0  0  0
   -5.0928    5.5504   -0.6332 H   0  0  0  0  0  0  0  0  0  0  0  0
   -5.9598    5.3041   -2.1870 H   0  0  0  0  0  0  0  0  0  0  0  0
   -4.1966    5.6471   -2.1870 H   0  0  0  0  0  0  0  0  0  0  0  0
   -4.7385    7.7990   -2.4824 H   0  0  0  0  0  0  0  0  0  0  0  0
   -6.2041    8.3207    0.0163 H   0  0  0  0  0  0  0  0  0  0  0  0
   -4.6586    7.3667    0.2283 H   0  0  0  0  0  0  0  0  0  0  0  0
   -4.5891    9.8238   -1.4813 H   0  0  0  0  0  0  0  0  0  0  0  0
   -4.6786   10.0088    0.3203 H   0  0  0  0  0  0  0  0  0  0  0  0
   -3.0518    8.0784   -0.8618 H   0  0  0  0  0  0  0  0  0  0  0  0
   -2.3432   12.0986    0.1151 H   0  0  0  0  0  0  0  0  0  0  0  0
   -1.4007   12.0301   -1.4125 H   0  0  0  0  0  0  0  0  0  0  0  0
   -3.1438   11.5965   -1.4125 H   0  0  0  0  0  0  0  0  0  0  0  0
    0.1138    9.5266    0.0046 H   0  0  0  0  0  0  0  0  0  0  0  0
   -0.5099    8.7788   -1.5048 H   0  0  0  0  0  0  0  0  0  0  0  0
    0.0183   10.4957   -1.5048 H   0  0  0  0  0  0  0  0  0  0  0  0
   -6.8839    8.6895   -2.2698 H   0  0  0  0  0  0  0  0  0  0  0  0
   -7.0284    7.6012   -4.4226 H   0  0  0  0  0  0  0  0  0  0  0  0
   -6.4918    6.0435   -3.7574 H   0  0  0  0  0  0  0  0  0  0  0  0
   -9.1810    6.7132   -4.4574 H   0  0  0  0  0  0  0  0  0  0  0  0
   -8.7352    5.3292   -3.4629 H   0  0  0  0  0  0  0  0  0  0  0  0
   -9.7459    9.2484   -1.9566 H   0  0  0  0  0  0  0  0  0  0  0  0
   -8.7548    8.9648   -3.4276 H   0  0  0  0  0  0  0  0  0  0  0  0
  -10.5019    8.5475   -3.4276 H   0  0  0  0  0  0  0  0  0  0  0  0
  -10.1193    5.4349   -1.4779 H   0  0  0  0  0  0  0  0  0  0  0  0
  -11.3865    6.2414   -3.5724 H   0  0  0  0  0  0  0  0  0  0  0  0
  -12.2764    5.4619   -2.1617 H   0  0  0  0  0  0  0  0  0  0  0  0
  -13.4337    7.5613   -3.2529 H   0  0  0  0  0  0  0  0  0  0  0  0
  -10.9789    9.1458   -0.4652 H   0  0  0  0  0  0  0  0  0  0  0  0
  -13.2353    7.8234    1.1638 H   0  0  0  0  0  0  0  0  0  0  0  0
  -11.7899    8.7122    1.8206 H   0  0  0  0  0  0  0  0  0  0  0  0
  -13.8453   10.0882    1.8865 H   0  0  0  0  0  0  0  0  0  0  0  0
  -12.5655   10.7803    0.8143 H   0  0  0  0  0  0  0  0  0  0  0  0
  -14.6873   10.9897   -0.2867 H   0  0  0  0  0  0  0  0  0  0  0  0
  -16.0390    9.2170   -0.5600 H   0  0  0  0  0  0  0  0  0  0  0  0
  -12.3343   11.4015   -1.0876 H   0  0  0  0  0  0  0  0  0  0  0  0
  -11.8490   10.5446   -2.5899 H   0  0  0  0  0  0  0  0  0  0  0  0
  -13.2972   11.6074   -2.5899 H   0  0  0  0  0  0  0  0  0  0  0  0
  -15.6829    9.5109   -2.1726 H   0  0  0  0  0  0  0  0  0  0  0  0
  -14.6876   10.4990   -3.2950 H   0  0  0  0  0  0  0  0  0  0  0  0
  -14.5321    8.7094   -3.2950 H   0  0  0  0  0  0  0  0  0  0  0  0
  -11.5249    6.0718    1.6255 H   0  0  0  0  0  0  0  0  0  0  0  0
  -12.6903    5.9732    0.2621 H   0  0  0  0  0  0  0  0  0  0  0  0
  -11.2187    4.9431    0.2621 H   0  0  0  0  0  0  0  0  0  0  0  0
   -9.8523    8.0842    1.4250 H   0  0  0  0  0  0  0  0  0  0  0  0
   -9.2419    6.3756    1.0462 H   0  0  0  0  0  0  0  0  0  0  0  0
   -8.5487    8.9487   -0.3960 H   0  0  0  0  0  0  0  0  0  0  0  0
   -7.4733    7.8823    0.5909 H   0  0  0  0  0  0  0  0  0  0  0  0
   -7.6394    5.6024    0.2526 H   0  0  0  0  0  0  0  0  0  0  0  0
   -8.3904    4.9163   -1.2279 H   0  0  0  0  0  0  0  0  0  0  0  0
   -6.6507    5.3633   -1.2279 H   0  0  0  0  0  0  0  0  0  0  0  0
  1  2  1  0
  2  3  1  0
  3  4  1  0
  4  5  1  0
  5  6  1  0
  6  7  1  0
  7  8  1  0
  7  9  1  0
  2 10  1  0
 10 11  1  0
 11 12  1  0
 12 13  1  0
 13 14  1  6
 13 15  1  0
 15 16  1  0
 16 17  1  0
 17 18  2  0
 18 19  1  0
 19 20  1  0
 20 21  1  0
 21 22  1  0
 22 23  1  0
 22 24  1  0
 24 25  1  0
 24 26  1  0
 19 27  1  0
 27 28  1  1
 27 29  1  0
 29 30  1  0
 30 31  1  0
 31 32  1  1
  7  5  1  0
 31 10  1  0
 31 13  1  0
 27 15  1  0
 24 18  1  0
  1 33  1  0
  1 34  1  0
  1 35  1  0
  2 36  1  6
  3 37  1  0
  3 38  1  0
  4 39  1  0
  4 40  1  0
  5 41  1  6
  8 42  1  0
  8 43  1  0
  8 44  1  0
  9 45  1  0
  9 46  1  0
  9 47  1  0
 10 48  1  6
 11 49  1  0
 11 50  1  0
 12 51  1  0
 12 52  1  0
 14 53  1  0
 14 54  1  0
 14 55  1  0
 15 56  1  1
 16 57  1  0
 16 58  1  0
 17 59  1  0
 19 60  1  6
 20 61  1  0
 20 62  1  0
 21 63  1  0
 21 64  1  0
 22 65  1  6
 23 66  1  0
 25 67  1  0
 25 68  1  0
 25 69  1  0
 26 70  1  0
 26 71  1  0
 26 72  1  0
 28 73  1  0
 28 74  1  0
 28 75  1  0
 29 76  1  0
 29 77  1  0
 30 78  1  0
 30 79  1  0
 32 80  1  0
 32 81  1  0
 32 82  1  0
M  END
>  <meeko>  (7) 
{"is_sidechain": [false], "intermolecular_energy": 2.731, "internal_energy": -0.839}

$$$$
EPH_relaxed_0001_pdb2pqr_Repair_353_r2_0001_out
     RDKit          3D

 82 86  0  0  0  0  0  0  0  0999 V2000
   -0.2580   10.5850   -4.0930 C   0  0  0  0  0  0  0  0  0  0  0  0
    0.8560   10.3320   -3.0740 C   0  0  2  0  0  0  0  0  0  0  0  0
    0.6470    9.0140   -2.3000 C   0  0  0  0  0  0  0  0  0  0  0  0
   -0.7600    8.8600   -1.7170 C   0  0  0  0  0  0  0  0  0  0  0  0
   -0.8110    9.2710   -0.2760 C   0  0  2  0  0  0  0  0  0  0  0  0
   -2.1260    9.2930    0.2940 O   0  0  0  0  0  0  0  0  0  0  0  0
   -1.4530   10.5600    0.2030 C   0  0  0  0  0  0  0  0  0  0  0  0
   -2.0870   11.5190   -0.7540 C   0  0  0  0  0  0  0  0  0  0  0  0
   -1.0360   11.1160    1.5290 C   0  0  0  0  0  0  0  0  0  0  0  0
    0.9430   11.5000   -2.0990 C   0  0  1  0  0  0  0  0  0  0  0  0
    2.0030   11.2730   -0.9880 C   0  0  0  0  0  0  0  0  0  0  0  0
    2.6260   12.6570   -0.6740 C   0  0  0  0  0  0  0  0  0  0  0  0
    1.6860   13.6730   -1.3640 C   0  0  1  0  0  0  0  0  0  0  0  0
    0.4890   13.8470   -0.3760 C   0  0  0  0  0  0  0  0  0  0  0  0
    2.3200   15.0490   -1.7500 C   0  0  2  0  0  0  0  0  0  0  0  0
    2.8310   15.8880   -0.5660 C   0  0  0  0  0  0  0  0  0  0  0  0
    1.8350   16.8310    0.0250 C   0  0  0  0  0  0  0  0  0  0  0  0
    0.6770   17.2060   -0.5500 C   0  0  0  0  0  0  0  0  0  0  0  0
    0.3150   16.7450   -1.9670 C   0  0  1  0  0  0  0  0  0  0  0  0
   -0.1980   17.9560   -2.7900 C   0  0  0  0  0  0  0  0  0  0  0  0
   -1.3480   18.6850   -2.1020 C   0  0  0  0  0  0  0  0  0  0  0  0
   -0.9320   19.1790   -0.7190 C   0  0  2  0  0  0  0  0  0  0  0  0
    0.0640   20.1940   -0.8730 O   0  0  0  0  0  0  0  0  0  0  0  0
   -0.3870   18.0470    0.1970 C   0  0  0  0  0  0  0  0  0  0  0  0
   -1.5480   17.1080    0.6090 C   0  0  0  0  0  0  0  0  0  0  0  0
    0.1280   18.7010    1.5080 C   0  0  0  0  0  0  0  0  0  0  0  0
    1.4350   15.9170   -2.7340 C   0  0  1  0  0  0  0  0  0  0  0  0
    2.4080   16.8900   -3.4670 C   0  0  0  0  0  0  0  0  0  0  0  0
    0.7520   15.0440   -3.8530 C   0  0  0  0  0  0  0  0  0  0  0  0
    0.2540   13.6470   -3.4370 C   0  0  0  0  0  0  0  0  0  0  0  0
    1.3410   12.8810   -2.6770 C   0  0  2  0  0  0  0  0  0  0  0  0
    2.5490   12.6720   -3.6520 C   0  0  0  0  0  0  0  0  0  0  0  0
   -1.1980   10.7985   -3.5631 H   0  0  0  0  0  0  0  0  0  0  0  0
    0.0107   11.4450   -4.7240 H   0  0  0  0  0  0  0  0  0  0  0  0
   -0.3871    9.6933   -4.7240 H   0  0  0  0  0  0  0  0  0  0  0  0
    1.8001   10.2414   -3.6313 H   0  0  0  0  0  0  0  0  0  0  0  0
    0.8323    8.1748   -2.9866 H   0  0  0  0  0  0  0  0  0  0  0  0
    1.3474    9.0244   -1.4518 H   0  0  0  0  0  0  0  0  0  0  0  0
   -1.4551    9.4894   -2.2921 H   0  0  0  0  0  0  0  0  0  0  0  0
   -1.0437    7.7992   -1.7814 H   0  0  0  0  0  0  0  0  0  0  0  0
    0.1767    8.8245   -0.0887 H   0  0  0  0  0  0  0  0  0  0  0  0
   -2.6083   12.3076   -0.1915 H   0  0  0  0  0  0  0  0  0  0  0  0
   -1.3102   11.9726   -1.3871 H   0  0  0  0  0  0  0  0  0  0  0  0
   -2.8087   10.9820   -1.3871 H   0  0  0  0  0  0  0  0  0  0  0  0
   -1.4850   10.5173    2.3352 H   0  0  0  0  0  0  0  0  0  0  0  0
    0.0602   11.0807    1.6130 H   0  0  0  0  0  0  0  0  0  0  0  0
   -1.3768   12.1585    1.6130 H   0  0  0  0  0  0  0  0  0  0  0  0
   -0.0992   11.5250   -1.7481 H   0  0  0  0  0  0  0  0  0  0  0  0
    1.5252   10.8597   -0.0875 H   0  0  0  0  0  0  0  0  0  0  0  0
    2.7726   10.5591   -1.3167 H   0  0  0  0  0  0  0  0  0  0  0  0
    2.6570   12.8317    0.4116 H   0  0  0  0  0  0  0  0  0  0  0  0
    3.6631   12.7386   -1.0313 H   0  0  0  0  0  0  0  0  0  0  0  0
    0.8572   13.7935    0.6592 H   0  0  0  0  0  0  0  0  0  0  0  0
    0.0126   14.8238   -0.5456 H   0  0  0  0  0  0  0  0  0  0  0  0
   -0.2458   13.0462   -0.5456 H   0  0  0  0  0  0  0  0  0  0  0  0
    3.2171   14.7460   -2.3098 H   0  0  0  0  0  0  0  0  0  0  0  0
    3.1555   15.1965    0.2255 H   0  0  0  0  0  0  0  0  0  0  0  0
    3.6430   16.5138   -0.9647 H   0  0  0  0  0  0  0  0  0  0  0  0
    2.0672   17.2547    1.0132 H   0  0  0  0  0  0  0  0  0  0  0  0
   -0.4903   16.0049   -1.8498 H   0  0  0  0  0  0  0  0  0  0  0  0
    0.6327   18.6628   -2.9326 H   0  0  0  0  0  0  0  0  0  0  0  0
   -0.5724   17.5727   -3.7507 H   0  0  0  0  0  0  0  0  0  0  0  0
   -1.6471   19.5466   -2.7170 H   0  0  0  0  0  0  0  0  0  0  0  0
   -2.1882   17.9845   -1.9862 H   0  0  0  0  0  0  0  0  0  0  0  0
   -1.8314   19.5764   -0.2258 H   0  0  0  0  0  0  0  0  0  0  0  0
    0.6990   20.0970   -0.1430 H   0  0  0  0  0  0  0  0  0  0  0  0
   -1.6083   17.0592    1.7063 H   0  0  0  0  0  0  0  0  0  0  0  0
   -2.4949   17.4973    0.2067 H   0  0  0  0  0  0  0  0  0  0  0  0
   -1.3653   16.1007    0.2067 H   0  0  0  0  0  0  0  0  0  0  0  0
   -0.2921   18.1676    2.3734 H   0  0  0  0  0  0  0  0  0  0  0  0
    1.2261   18.6437    1.5396 H   0  0  0  0  0  0  0  0  0  0  0  0
   -0.1852   19.7550    1.5396 H   0  0  0  0  0  0  0  0  0  0  0  0
    2.9816   17.4636   -2.7241 H   0  0  0  0  0  0  0  0  0  0  0  0
    3.0995   16.3114   -4.0971 H   0  0  0  0  0  0  0  0  0  0  0  0
    1.8294   17.5815   -4.0971 H   0  0  0  0  0  0  0  0  0  0  0  0
   -0.1139   15.6067   -4.2319 H   0  0  0  0  0  0  0  0  0  0  0  0
    1.5421   14.8585   -4.5955 H   0  0  0  0  0  0  0  0  0  0  0  0
   -0.6280   13.7577   -2.7891 H   0  0  0  0  0  0  0  0  0  0  0  0
   -0.0035   13.0819   -4.3449 H   0  0  0  0  0  0  0  0  0  0  0  0
    3.4679   12.5130   -3.0685 H   0  0  0  0  0  0  0  0  0  0  0  0
    2.3606   11.7931   -4.2861 H   0  0  0  0  0  0  0  0  0  0  0  0
    2.6668   13.5631   -4.2861 H   0  0  0  0  0  0  0  0  0  0  0  0
  1  2  1  0
  2  3  1  0
  3  4  1  0
  4  5  1  0
  5  6  1  0
  6  7  1  0
  7  8  1  0
  7  9  1  0
  2 10  1  0
 10 11  1  0
 11 12  1  0
 12 13  1  0
 13 14  1  1
 13 15  1  0
 15 16  1  0
 16 17  1  0
 17 18  2  0
 18 19  1  0
 19 20  1  0
 20 21  1  0
 21 22  1  0
 22 23  1  0
 22 24  1  0
 24 25  1  0
 24 26  1  0
 19 27  1  0
 27 28  1  6
 27 29  1  0
 29 30  1  0
 30 31  1  0
 31 32  1  6
  7  5  1  0
 31 10  1  0
 31 13  1  0
 27 15  1  0
 24 18  1  0
  1 33  1  0
  1 34  1  0
  1 35  1  0
  2 36  1  6
  3 37  1  0
  3 38  1  0
  4 39  1  0
  4 40  1  0
  5 41  1  1
  8 42  1  0
  8 43  1  0
  8 44  1  0
  9 45  1  0
  9 46  1  0
  9 47  1  0
 10 48  1  1
 11 49  1  0
 11 50  1  0
 12 51  1  0
 12 52  1  0
 14 53  1  0
 14 54  1  0
 14 55  1  0
 15 56  1  6
 16 57  1  0
 16 58  1  0
 17 59  1  0
 19 60  1  1
 20 61  1  0
 20 62  1  0
 21 63  1  0
 21 64  1  0
 22 65  1  1
 23 66  1  0
 25 67  1  0
 25 68  1  0
 25 69  1  0
 26 70  1  0
 26 71  1  0
 26 72  1  0
 28 73  1  0
 28 74  1  0
 28 75  1  0
 29 76  1  0
 29 77  1  0
 30 78  1  0
 30 79  1  0
 32 80  1  0
 32 81  1  0
 32 82  1  0
M  END
>  <meeko>  (8) 
{"is_sidechain": [false], "intermolecular_energy": 2.731, "internal_energy": -0.839}

$$$$
EPH_relaxed_0001_pdb2pqr_Repair_353_r2_0001_out
     RDKit          3D

 82 86  0  0  0  0  0  0  0  0999 V2000
    2.7520   18.8370   -1.2350 C   0  0  0  0  0  0  0  0  0  0  0  0
    2.3700   17.7770   -2.2720 C   0  0  2  0  0  0  0  0  0  0  0  0
    0.9120   17.9310   -2.7500 C   0  0  0  0  0  0  0  0  0  0  0  0
    0.2570   19.2440   -2.3140 C   0  0  0  0  0  0  0  0  0  0  0  0
   -1.0270   19.0060   -1.5780 C   0  0  2  0  0  0  0  0  0  0  0  0
   -1.7770   20.1910   -1.2820 O   0  0  0  0  0  0  0  0  0  0  0  0
   -1.2710   19.4630   -0.1520 C   0  0  0  0  0  0  0  0  0  0  0  0
   -0.2210   20.1950    0.6240 C   0  0  0  0  0  0  0  0  0  0  0  0
   -2.3350   18.7760    0.6470 C   0  0  0  0  0  0  0  0  0  0  0  0
    2.5830   16.3830   -1.6920 C   0  0  1  0  0  0  0  0  0  0  0  0
    3.4660   16.3960   -0.4160 C   0  0  0  0  0  0  0  0  0  0  0  0
    2.9230   15.2800    0.5140 C   0  0  0  0  0  0  0  0  0  0  0  0
    1.9740   14.4510   -0.3830 C   0  0  1  0  0  0  0  0  0  0  0  0
    2.9130   13.4990   -1.1880 C   0  0  0  0  0  0  0  0  0  0  0  0
    0.8430   13.6610    0.3520 C   0  0  2  0  0  0  0  0  0  0  0  0
    1.3330   12.5790    1.3290 C   0  0  0  0  0  0  0  0  0  0  0  0
    1.5120   11.2200    0.7390 C   0  0  0  0  0  0  0  0  0  0  0  0
    1.0220   10.8110   -0.4470 C   0  0  0  0  0  0  0  0  0  0  0  0
    0.1190   11.7270   -1.2830 C   0  0  1  0  0  0  0  0  0  0  0  0
   -1.1110   10.9240   -1.7830 C   0  0  0  0  0  0  0  0  0  0  0  0
   -0.7160    9.6530   -2.5300 C   0  0  0  0  0  0  0  0  0  0  0  0
    0.1330    8.7430   -1.6460 C   0  0  2  0  0  0  0  0  0  0  0  0
   -0.6770    8.2610   -0.5690 O   0  0  0  0  0  0  0  0  0  0  0  0
    1.3960    9.4470   -1.0760 C   0  0  0  0  0  0  0  0  0  0  0  0
    2.4110    9.6990   -2.2180 C   0  0  0  0  0  0  0  0  0  0  0  0
    2.0860    8.4640   -0.0910 C   0  0  0  0  0  0  0  0  0  0  0  0
   -0.2870   13.1060   -0.6070 C   0  0  1  0  0  0  0  0  0  0  0  0
   -1.5610   12.9130    0.2720 C   0  0  0  0  0  0  0  0  0  0  0  0
   -0.6760   14.1360   -1.7320 C   0  0  0  0  0  0  0  0  0  0  0  0
    0.4690   14.9720   -2.3350 C   0  0  0  0  0  0  0  0  0  0  0  0
    1.3250   15.6030   -1.2340 C   0  0  2  0  0  0  0  0  0  0  0  0
    0.4130   16.5840   -0.4210 C   0  0  0  0  0  0  0  0  0  0  0  0
    2.6054   18.4301   -0.2236 H   0  0  0  0  0  0  0  0  0  0  0  0
    3.8075   19.1167   -1.3682 H   0  0  0  0  0  0  0  0  0  0  0  0
    2.1176   19.7257   -1.3682 H   0  0  0  0  0  0  0  0  0  0  0  0
    3.0211   17.9199   -3.1470 H   0  0  0  0  0  0  0  0  0  0  0  0
    0.9001   17.8851   -3.8490 H   0  0  0  0  0  0  0  0  0  0  0  0
    0.3349   17.1155   -2.2897 H   0  0  0  0  0  0  0  0  0  0  0  0
    0.9505   19.7865   -1.6546 H   0  0  0  0  0  0  0  0  0  0  0  0
    0.0309   19.8305   -3.2167 H   0  0  0  0  0  0  0  0  0  0  0  0
   -1.1575   18.0327   -2.0737 H   0  0  0  0  0  0  0  0  0  0  0  0
   -0.4049   20.0668    1.7009 H   0  0  0  0  0  0  0  0  0  0  0  0
    0.7704   19.7913    0.3707 H   0  0  0  0  0  0  0  0  0  0  0  0
   -0.2569   21.2648    0.3707 H   0  0  0  0  0  0  0  0  0  0  0  0
   -2.1307   18.9079    1.7198 H   0  0  0  0  0  0  0  0  0  0  0  0
   -3.3151   19.2122    0.4041 H   0  0  0  0  0  0  0  0  0  0  0  0
   -2.3408   17.7032    0.4041 H   0  0  0  0  0  0  0  0  0  0  0  0
    3.0352   15.8875   -2.5638 H   0  0  0  0  0  0  0  0  0  0  0  0
    4.5148   16.1934   -0.6788 H   0  0  0  0  0  0  0  0  0  0  0  0
    3.4292   17.3770    0.0803 H   0  0  0  0  0  0  0  0  0  0  0  0
    3.7456   14.6546    0.8911 H   0  0  0  0  0  0  0  0  0  0  0  0
    2.4110   15.6869    1.3985 H   0  0  0  0  0  0  0  0  0  0  0  0
    3.5092   12.8945   -0.4886 H   0  0  0  0  0  0  0  0  0  0  0  0
    2.3064   12.8351   -1.8214 H   0  0  0  0  0  0  0  0  0  0  0  0
    3.5852   14.0965   -1.8214 H   0  0  0  0  0  0  0  0  0  0  0  0
    0.3783   14.4383    0.9764 H   0  0  0  0  0  0  0  0  0  0  0  0
    2.3021   12.9028    1.7364 H   0  0  0  0  0  0  0  0  0  0  0  0
    0.5458   12.4783    2.0907 H   0  0  0  0  0  0  0  0  0  0  0  0
    2.0933   10.4906    1.3221 H   0  0  0  0  0  0  0  0  0  0  0  0
    0.7267   12.0529   -2.1400 H   0  0  0  0  0  0  0  0  0  0  0  0
   -1.7270   10.6459   -0.9152 H   0  0  0  0  0  0  0  0  0  0  0  0
   -1.6654   11.5648   -2.4844 H   0  0  0  0  0  0  0  0  0  0  0  0
   -1.6267    9.1147   -2.8314 H   0  0  0  0  0  0  0  0  0  0  0  0
   -0.1254    9.9343   -3.4144 H   0  0  0  0  0  0  0  0  0  0  0  0
    0.4929    7.9148   -2.2741 H   0  0  0  0  0  0  0  0  0  0  0  0
   -0.6250    8.9110    0.1520 H   0  0  0  0  0  0  0  0  0  0  0  0
    3.3936    9.9430   -1.7880 H   0  0  0  0  0  0  0  0  0  0  0  0
    2.4966    8.7948   -2.8386 H   0  0  0  0  0  0  0  0  0  0  0  0
    2.0638   10.5382   -2.8386 H   0  0  0  0  0  0  0  0  0  0  0  0
    1.8710    8.7702    0.9434 H   0  0  0  0  0  0  0  0  0  0  0  0
    1.7027    7.4468   -0.2594 H   0  0  0  0  0  0  0  0  0  0  0  0
    3.1729    8.4788   -0.2594 H   0  0  0  0  0  0  0  0  0  0  0  0
   -1.2826   12.9552    1.3354 H   0  0  0  0  0  0  0  0  0  0  0  0
   -2.2839   13.7119    0.0503 H   0  0  0  0  0  0  0  0  0  0  0  0
   -2.0149   11.9358    0.0503 H   0  0  0  0  0  0  0  0  0  0  0  0
   -1.1437   13.5718   -2.5523 H   0  0  0  0  0  0  0  0  0  0  0  0
   -1.3357   14.8651   -1.2388 H   0  0  0  0  0  0  0  0  0  0  0  0
    1.1027   14.3204   -2.9546 H   0  0  0  0  0  0  0  0  0  0  0  0
    0.0324   15.7768   -2.9446 H   0  0  0  0  0  0  0  0  0  0  0  0
    0.5660   16.4195    0.6558 H   0  0  0  0  0  0  0  0  0  0  0  0
    0.6742   17.6222   -0.6740 H   0  0  0  0  0  0  0  0  0  0  0  0
   -0.6414   16.3991   -0.6740 H   0  0  0  0  0  0  0  0  0  0  0  0
  1  2  1  0
  2  3  1  0
  3  4  1  0
  4  5  1  0
  5  6  1  0
  6  7  1  0
  7  8  1  0
  7  9  1  0
  2 10  1  0
 10 11  1  0
 11 12  1  0
 12 13  1  0
 13 14  1  6
 13 15  1  0
 15 16  1  0
 16 17  1  0
 17 18  2  0
 18 19  1  0
 19 20  1  0
 20 21  1  0
 21 22  1  0
 22 23  1  0
 22 24  1  0
 24 25  1  0
 24 26  1  0
 19 27  1  0
 27 28  1  1
 27 29  1  0
 29 30  1  0
 30 31  1  0
 31 32  1  1
  7  5  1  0
 31 10  1  0
 31 13  1  0
 27 15  1  0
 24 18  1  0
  1 33  1  0
  1 34  1  0
  1 35  1  0
  2 36  1  6
  3 37  1  0
  3 38  1  0
  4 39  1  0
  4 40  1  0
  5 41  1  1
  8 42  1  0
  8 43  1  0
  8 44  1  0
  9 45  1  0
  9 46  1  0
  9 47  1  0
 10 48  1  6
 11 49  1  0
 11 50  1  0
 12 51  1  0
 12 52  1  0
 14 53  1  0
 14 54  1  0
 14 55  1  0
 15 56  1  1
 16 57  1  0
 16 58  1  0
 17 59  1  0
 19 60  1  6
 20 61  1  0
 20 62  1  0
 21 63  1  0
 21 64  1  0
 22 65  1  6
 23 66  1  0
 25 67  1  0
 25 68  1  0
 25 69  1  0
 26 70  1  0
 26 71  1  0
 26 72  1  0
 28 73  1  0
 28 74  1  0
 28 75  1  0
 29 76  1  0
 29 77  1  0
 30 78  1  0
 30 79  1  0
 32 80  1  0
 32 81  1  0
 32 82  1  0
M  END
>  <meeko>  (9) 
{"is_sidechain": [false], "intermolecular_energy": 2.731, "internal_energy": -0.839}

$$$$
EPH_relaxed_0001_pdb2pqr_Repair_353_r2_0001_out
     RDKit          3D

 82 86  0  0  0  0  0  0  0  0999 V2000
    0.2870    8.8490   -2.2570 C   0  0  0  0  0  0  0  0  0  0  0  0
    1.0250    9.9800   -2.9790 C   0  0  2  0  0  0  0  0  0  0  0  0
    2.5320    9.9900   -2.6540 C   0  0  0  0  0  0  0  0  0  0  0  0
    3.4000   10.5610   -3.7790 C   0  0  0  0  0  0  0  0  0  0  0  0
    4.8030   10.8200   -3.3200 C   0  0  2  0  0  0  0  0  0  0  0  0
    5.3910   12.0200   -3.8380 O   0  0  0  0  0  0  0  0  0  0  0  0
    6.0050   10.7860   -4.2450 C   0  0  0  0  0  0  0  0  0  0  0  0
    5.8600   10.4860   -5.7040 C   0  0  0  0  0  0  0  0  0  0  0  0
    7.3600   10.5630   -3.6490 C   0  0  0  0  0  0  0  0  0  0  0  0
    0.4040   11.3230   -2.6120 C   0  0  1  0  0  0  0  0  0  0  0  0
   -0.9440   11.1710   -1.8570 C   0  0  0  0  0  0  0  0  0  0  0  0
   -1.0150   12.3310   -0.8310 C   0  0  0  0  0  0  0  0  0  0  0  0
    0.1210   13.2930   -1.2500 C   0  0  1  0  0  0  0  0  0  0  0  0
   -0.4750   14.1290   -2.4260 C   0  0  0  0  0  0  0  0  0  0  0  0
    0.7000   14.2110   -0.1250 C   0  0  2  0  0  0  0  0  0  0  0  0
   -0.3030   15.2010    0.4900 C   0  0  0  0  0  0  0  0  0  0  0  0
   -0.3710   16.5360   -0.1750 C   0  0  0  0  0  0  0  0  0  0  0  0
    0.5380   17.0270   -1.0380 C   0  0  0  0  0  0  0  0  0  0  0  0
    1.8250   16.2540   -1.3510 C   0  0  1  0  0  0  0  0  0  0  0  0
    3.0370   17.2200   -1.2890 C   0  0  0  0  0  0  0  0  0  0  0  0
    2.8580   18.4410   -2.1850 C   0  0  0  0  0  0  0  0  0  0  0  0
    1.5990   19.2160   -1.8060 C   0  0  2  0  0  0  0  0  0  0  0  0
    1.7800   19.7800   -0.5040 O   0  0  0  0  0  0  0  0  0  0  0  0
    0.3130   18.3430   -1.8240 C   0  0  0  0  0  0  0  0  0  0  0  0
   -0.0500   17.9800   -3.2850 C   0  0  0  0  0  0  0  0  0  0  0  0
   -0.8590   19.2070   -1.2870 C   0  0  0  0  0  0  0  0  0  0  0  0
    2.0590   14.9270   -0.5080 C   0  0  1  0  0  0  0  0  0  0  0  0
    2.7750   15.2680    0.8350 C   0  0  0  0  0  0  0  0  0  0  0  0
    3.0320   13.9780   -1.3020 C   0  0  0  0  0  0  0  0  0  0  0  0
    2.3880   13.0100   -2.3130 C   0  0  0  0  0  0  0  0  0  0  0  0
    1.2190   12.2520   -1.6780 C   0  0  2  0  0  0  0  0  0  0  0  0
    1.7920   11.3840   -0.5060 C   0  0  0  0  0  0  0  0  0  0  0  0
    0.3775    8.9877   -1.1695 H   0  0  0  0  0  0  0  0  0  0  0  0
   -0.7755    8.8643   -2.5414 H   0  0  0  0  0  0  0  0  0  0  0  0
    0.7289    7.8826   -2.5414 H   0  0  0  0  0  0  0  0  0  0  0  0
    0.9217    9.8056   -4.0602 H   0  0  0  0  0  0  0  0  0  0  0  0
    2.6887   10.5987   -1.7513 H   0  0  0  0  0  0  0  0  0  0  0  0
    2.8374    8.9428   -2.5119 H   0  0  0  0  0  0  0  0  0  0  0  0
    3.4242    9.8415   -4.6107 H   0  0  0  0  0  0  0  0  0  0  0  0
    2.9616   11.5180   -4.0981 H   0  0  0  0  0  0  0  0  0  0  0  0
    4.6015   10.3344   -2.3538 H   0  0  0  0  0  0  0  0  0  0  0  0
    5.3845    9.5022   -5.8306 H   0  0  0  0  0  0  0  0  0  0  0  0
    5.2358   11.2585   -6.1769 H   0  0  0  0  0  0  0  0  0  0  0  0
    6.8531   10.4768   -6.1769 H   0  0  0  0  0  0  0  0  0  0  0  0
    7.2845   10.5754   -2.5517 H   0  0  0  0  0  0  0  0  0  0  0  0
    7.7497    9.5886   -3.9787 H   0  0  0  0  0  0  0  0  0  0  0  0
    8.0415   11.3611   -3.9787 H   0  0  0  0  0  0  0  0  0  0  0  0
    0.3270   11.7707   -3.6138 H   0  0  0  0  0  0  0  0  0  0  0  0
   -1.7839   11.2387   -2.5640 H   0  0  0  0  0  0  0  0  0  0  0  0
   -1.0074   10.1946   -1.3544 H   0  0  0  0  0  0  0  0  0  0  0  0
   -1.9907   12.8363   -0.8832 H   0  0  0  0  0  0  0  0  0  0  0  0
   -0.9023   11.9789    0.2050 H   0  0  0  0  0  0  0  0  0  0  0  0
   -1.0685   14.9615   -2.0201 H   0  0  0  0  0  0  0  0  0  0  0  0
    0.3431   14.5287   -3.0432 H   0  0  0  0  0  0  0  0  0  0  0  0
   -1.1196   13.4859   -3.0432 H   0  0  0  0  0  0  0  0  0  0  0  0
    0.9330   13.4892    0.6717 H   0  0  0  0  0  0  0  0  0  0  0  0
   -1.3032   14.7457    0.4414 H   0  0  0  0  0  0  0  0  0  0  0  0
    0.0459   15.3896    1.5160 H   0  0  0  0  0  0  0  0  0  0  0  0
   -1.2371   17.1721    0.0601 H   0  0  0  0  0  0  0  0  0  0  0  0
    1.7069   15.8682   -2.3743 H   0  0  0  0  0  0  0  0  0  0  0  0
    3.1641   17.5602   -0.2507 H   0  0  0  0  0  0  0  0  0  0  0  0
    3.9205   16.6705   -1.6460 H   0  0  0  0  0  0  0  0  0  0  0  0
    3.7325   19.0992   -2.0754 H   0  0  0  0  0  0  0  0  0  0  0  0
    2.7606   18.1008   -3.2265 H   0  0  0  0  0  0  0  0  0  0  0  0
    1.4546   20.0014   -2.5625 H   0  0  0  0  0  0  0  0  0  0  0  0
    0.9230   20.1390   -0.2170 H   0  0  0  0  0  0  0  0  0  0  0  0
   -0.8278   17.2022   -3.2871 H   0  0  0  0  0  0  0  0  0  0  0  0
   -0.4251   18.8751   -3.8028 H   0  0  0  0  0  0  0  0  0  0  0  0
    0.8451   17.6049   -3.8028 H   0  0  0  0  0  0  0  0  0  0  0  0
   -0.8471   19.1982   -0.1871 H   0  0  0  0  0  0  0  0  0  0  0  0
   -0.7474   20.2405   -1.6466 H   0  0  0  0  0  0  0  0  0  0  0  0
   -1.8133   18.7947   -1.6466 H   0  0  0  0  0  0  0  0  0  0  0  0
    2.1371   14.9642    1.6781 H   0  0  0  0  0  0  0  0  0  0  0  0
    3.7326   14.7293    0.8871 H   0  0  0  0  0  0  0  0  0  0  0  0
    2.9603   16.3510    0.8871 H   0  0  0  0  0  0  0  0  0  0  0  0
    3.7394   14.6139   -1.8545 H   0  0  0  0  0  0  0  0  0  0  0  0
    3.4909   13.3328   -0.5384 H   0  0  0  0  0  0  0  0  0  0  0  0
    2.0185   13.5840   -3.1756 H   0  0  0  0  0  0  0  0  0  0  0  0
    3.1469   12.2805   -2.6323 H   0  0  0  0  0  0  0  0  0  0  0  0
    1.4987   11.8282    0.4566 H   0  0  0  0  0  0  0  0  0  0  0  0
    1.3902   10.3624   -0.5759 H   0  0  0  0  0  0  0  0  0  0  0  0
    2.8893   11.3520   -0.5759 H   0  0  0  0  0  0  0  0  0  0  0  0
  1  2  1  0
  2  3  1  0
  3  4  1  0
  4  5  1  0
  5  6  1  0
  6  7  1  0
  7  8  1  0
  7  9  1  0
  2 10  1  0
 10 11  1  0
 11 12  1  0
 12 13  1  0
 13 14  1  6
 13 15  1  0
 15 16  1  0
 16 17  1  0
 17 18  2  0
 18 19  1  0
 19 20  1  0
 20 21  1  0
 21 22  1  0
 22 23  1  0
 22 24  1  0
 24 25  1  0
 24 26  1  0
 19 27  1  0
 27 28  1  1
 27 29  1  0
 29 30  1  0
 30 31  1  0
 31 32  1  1
  7  5  1  0
 31 10  1  0
 31 13  1  0
 27 15  1  0
 24 18  1  0
  1 33  1  0
  1 34  1  0
  1 35  1  0
  2 36  1  6
  3 37  1  0
  3 38  1  0
  4 39  1  0
  4 40  1  0
  5 41  1  1
  8 42  1  0
  8 43  1  0
  8 44  1  0
  9 45  1  0
  9 46  1  0
  9 47  1  0
 10 48  1  6
 11 49  1  0
 11 50  1  0
 12 51  1  0
 12 52  1  0
 14 53  1  0
 14 54  1  0
 14 55  1  0
 15 56  1  1
 16 57  1  0
 16 58  1  0
 17 59  1  0
 19 60  1  6
 20 61  1  0
 20 62  1  0
 21 63  1  0
 21 64  1  0
 22 65  1  6
 23 66  1  0
 25 67  1  0
 25 68  1  0
 25 69  1  0
 26 70  1  0
 26 71  1  0
 26 72  1  0
 28 73  1  0
 28 74  1  0
 28 75  1  0
 29 76  1  0
 29 77  1  0
 30 78  1  0
 30 79  1  0
 32 80  1  0
 32 81  1  0
 32 82  1  0
M  END
>  <meeko>  (10) 
{"is_sidechain": [false], "intermolecular_energy": 2.731, "internal_energy": -0.839}

$$$$
EPH_relaxed_0001_pdb2pqr_Repair_353_r2_0001_out
     RDKit          3D

 82 86  0  0  0  0  0  0  0  0999 V2000
   -1.0500   16.4910   -5.9960 C   0  0  0  0  0  0  0  0  0  0  0  0
    0.0950   15.7120   -6.6500 C   0  0  2  0  0  0  0  0  0  0  0  0
   -0.2170   15.3410   -8.1140 C   0  0  0  0  0  0  0  0  0  0  0  0
    0.3550   16.3290   -9.1340 C   0  0  0  0  0  0  0  0  0  0  0  0
    1.7830   16.0180   -9.4660 C   0  0  2  0  0  0  0  0  0  0  0  0
    2.2750   16.6570  -10.6520 O   0  0  0  0  0  0  0  0  0  0  0  0
    2.2030   15.2230  -10.6880 C   0  0  0  0  0  0  0  0  0  0  0  0
    1.1950   14.6880  -11.6560 C   0  0  0  0  0  0  0  0  0  0  0  0
    3.5420   14.5520  -10.6800 C   0  0  0  0  0  0  0  0  0  0  0  0
    0.3930   14.4520   -5.8460 C   0  0  1  0  0  0  0  0  0  0  0  0
    1.4950   13.5750   -6.4960 C   0  0  0  0  0  0  0  0  0  0  0  0
    2.3010   12.9360   -5.3360 C   0  0  0  0  0  0  0  0  0  0  0  0
    1.4420   13.1950   -4.0760 C   0  0  1  0  0  0  0  0  0  0  0  0
    0.3510   12.0790   -4.0990 C   0  0  0  0  0  0  0  0  0  0  0  0
    2.2070   13.2250   -2.7130 C   0  0  2  0  0  0  0  0  0  0  0  0
    2.9000   11.9080   -2.3230 C   0  0  0  0  0  0  0  0  0  0  0  0
    2.0710   10.9650   -1.5160 C   0  0  0  0  0  0  0  0  0  0  0  0
    0.9280   11.2790   -0.8780 C   0  0  0  0  0  0  0  0  0  0  0  0
    0.4110   12.7230   -0.8520 C   0  0  1  0  0  0  0  0  0  0  0  0
   -0.0120   13.0960    0.5930 C   0  0  0  0  0  0  0  0  0  0  0  0
   -1.0130   12.1070    1.1830 C   0  0  0  0  0  0  0  0  0  0  0  0
   -0.4410   10.6920    1.1940 C   0  0  2  0  0  0  0  0  0  0  0  0
    0.6560   10.6450    2.1110 O   0  0  0  0  0  0  0  0  0  0  0  0
    0.0290   10.2110   -0.2080 C   0  0  0  0  0  0  0  0  0  0  0  0
   -1.2030    9.9720   -1.1160 C   0  0  0  0  0  0  0  0  0  0  0  0
    0.7130    8.8280   -0.0330 C   0  0  0  0  0  0  0  0  0  0  0  0
    1.3640   13.8120   -1.5090 C   0  0  1  0  0  0  0  0  0  0  0  0
    2.3910   14.3260   -0.4540 C   0  0  0  0  0  0  0  0  0  0  0  0
    0.5020   15.0590   -1.9350 C   0  0  0  0  0  0  0  0  0  0  0  0
   -0.1290   15.0210   -3.3390 C   0  0  0  0  0  0  0  0  0  0  0  0
    0.9110   14.6390   -4.3970 C   0  0  2  0  0  0  0  0  0  0  0  0
    2.0110   15.7540   -4.4130 C   0  0  0  0  0  0  0  0  0  0  0  0
   -0.9580   16.4284   -4.9016 H   0  0  0  0  0  0  0  0  0  0  0  0
   -1.0020   17.5446   -6.3083 H   0  0  0  0  0  0  0  0  0  0  0  0
   -2.0124   16.0595   -6.3083 H   0  0  0  0  0  0  0  0  0  0  0  0
    0.9790   16.3666   -6.6561 H   0  0  0  0  0  0  0  0  0  0  0  0
    0.2067   14.3466   -8.3182 H   0  0  0  0  0  0  0  0  0  0  0  0
   -1.3112   15.3615   -8.2249 H   0  0  0  0  0  0  0  0  0  0  0  0
   -0.2444   16.2778  -10.0549 H   0  0  0  0  0  0  0  0  0  0  0  0
    0.3166   17.3366   -8.6944 H   0  0  0  0  0  0  0  0  0  0  0  0
    2.0346   15.9205   -8.3996 H   0  0  0  0  0  0  0  0  0  0  0  0
    0.3554   14.2424  -11.1023 H   0  0  0  0  0  0  0  0  0  0  0  0
    0.8232   15.5075  -12.2886 H   0  0  0  0  0  0  0  0  0  0  0  0
    1.6654   13.9208  -12.2886 H   0  0  0  0  0  0  0  0  0  0  0  0
    3.8648   14.3902   -9.6410 H   0  0  0  0  0  0  0  0  0  0  0  0
    3.4699   13.5835  -11.1966 H   0  0  0  0  0  0  0  0  0  0  0  0
    4.2747   15.1895  -11.1966 H   0  0  0  0  0  0  0  0  0  0  0  0
   -0.6101   14.0007   -5.8320 H   0  0  0  0  0  0  0  0  0  0  0  0
    1.0376   12.7903   -7.1165 H   0  0  0  0  0  0  0  0  0  0  0  0
    2.1475   14.1776   -7.1449 H   0  0  0  0  0  0  0  0  0  0  0  0
    2.4314   11.8565   -5.5021 H   0  0  0  0  0  0  0  0  0  0  0  0
    3.3118   13.3605   -5.2466 H   0  0  0  0  0  0  0  0  0  0  0  0
    0.0840   11.8059   -3.0674 H   0  0  0  0  0  0  0  0  0  0  0  0
   -0.5422   12.4501   -4.6229 H   0  0  0  0  0  0  0  0  0  0  0  0
    0.7423   11.1944   -4.6229 H   0  0  0  0  0  0  0  0  0  0  0  0
    3.0178   13.9405   -2.9150 H   0  0  0  0  0  0  0  0  0  0  0  0
    3.1964   11.3930   -3.2487 H   0  0  0  0  0  0  0  0  0  0  0  0
    3.7496   12.1894   -1.6835 H   0  0  0  0  0  0  0  0  0  0  0  0
    2.4237    9.9262   -1.4359 H   0  0  0  0  0  0  0  0  0  0  0  0
   -0.4668   12.7437   -1.5146 H   0  0  0  0  0  0  0  0  0  0  0  0
    0.8847   13.1124    1.2299 H   0  0  0  0  0  0  0  0  0  0  0  0
   -0.4992   14.0815    0.5546 H   0  0  0  0  0  0  0  0  0  0  0  0
   -1.2504   12.4072    2.2143 H   0  0  0  0  0  0  0  0  0  0  0  0
   -1.9206   12.1137    0.5615 H   0  0  0  0  0  0  0  0  0  0  0  0
   -1.2479   10.0123    1.5053 H   0  0  0  0  0  0  0  0  0  0  0  0
    1.2560    9.9390    1.8170 H   0  0  0  0  0  0  0  0  0  0  0  0
   -2.0914    9.7997   -0.4907 H   0  0  0  0  0  0  0  0  0  0  0  0
   -1.3673   10.8550   -1.7510 H   0  0  0  0  0  0  0  0  0  0  0  0
   -1.0252    9.0916   -1.7510 H   0  0  0  0  0  0  0  0  0  0  0  0
    0.8227    8.6062    1.0388 H   0  0  0  0  0  0  0  0  0  0  0  0
    0.0954    8.0509   -0.5069 H   0  0  0  0  0  0  0  0  0  0  0  0
    1.7055    8.8472   -0.5069 H   0  0  0  0  0  0  0  0  0  0  0  0
    2.0051   14.1328    0.5578 H   0  0  0  0  0  0  0  0  0  0  0  0
    3.3482   13.8007   -0.5878 H   0  0  0  0  0  0  0  0  0  0  0  0
    2.5442   15.4070   -0.5878 H   0  0  0  0  0  0  0  0  0  0  0  0
   -0.3150   15.1633   -1.2059 H   0  0  0  0  0  0  0  0  0  0  0  0
    1.2085   15.9017   -1.9601 H   0  0  0  0  0  0  0  0  0  0  0  0
   -0.9413   14.2793   -3.3486 H   0  0  0  0  0  0  0  0  0  0  0  0
   -0.5190   16.0220   -3.5757 H   0  0  0  0  0  0  0  0  0  0  0  0
    2.2759   16.0225   -3.3797 H   0  0  0  0  0  0  0  0  0  0  0  0
    2.9041   15.3805   -4.9353 H   0  0  0  0  0  0  0  0  0  0  0  0
    1.6254   16.6420   -4.9353 H   0  0  0  0  0  0  0  0  0  0  0  0
  1  2  1  0
  2  3  1  0
  3  4  1  0
  4  5  1  0
  5  6  1  0
  6  7  1  0
  7  8  1  0
  7  9  1  0
  2 10  1  0
 10 11  1  0
 11 12  1  0
 12 13  1  0
 13 14  1  1
 13 15  1  0
 15 16  1  0
 16 17  1  0
 17 18  2  0
 18 19  1  0
 19 20  1  0
 20 21  1  0
 21 22  1  0
 22 23  1  0
 22 24  1  0
 24 25  1  0
 24 26  1  0
 19 27  1  0
 27 28  1  1
 27 29  1  0
 29 30  1  0
 30 31  1  0
 31 32  1  6
  7  5  1  0
 31 10  1  0
 31 13  1  0
 27 15  1  0
 24 18  1  0
  1 33  1  0
  1 34  1  0
  1 35  1  0
  2 36  1  6
  3 37  1  0
  3 38  1  0
  4 39  1  0
  4 40  1  0
  5 41  1  1
  8 42  1  0
  8 43  1  0
  8 44  1  0
  9 45  1  0
  9 46  1  0
  9 47  1  0
 10 48  1  1
 11 49  1  0
 11 50  1  0
 12 51  1  0
 12 52  1  0
 14 53  1  0
 14 54  1  0
 14 55  1  0
 15 56  1  6
 16 57  1  0
 16 58  1  0
 17 59  1  0
 19 60  1  6
 20 61  1  0
 20 62  1  0
 21 63  1  0
 21 64  1  0
 22 65  1  1
 23 66  1  0
 25 67  1  0
 25 68  1  0
 25 69  1  0
 26 70  1  0
 26 71  1  0
 26 72  1  0
 28 73  1  0
 28 74  1  0
 28 75  1  0
 29 76  1  0
 29 77  1  0
 30 78  1  0
 30 79  1  0
 32 80  1  0
 32 81  1  0
 32 82  1  0
M  END
>  <meeko>  (11) 
{"is_sidechain": [false], "intermolecular_energy": 2.731, "internal_energy": -0.839}

$$$$
EPH_relaxed_0001_pdb2pqr_Repair_353_r2_0001_out
     RDKit          3D

 82 86  0  0  0  0  0  0  0  0999 V2000
   -0.3050   15.0240   -7.7480 C   0  0  0  0  0  0  0  0  0  0  0  0
    1.0370   15.0590   -7.0110 C   0  0  2  0  0  0  0  0  0  0  0  0
    2.2300   15.1450   -7.9840 C   0  0  0  0  0  0  0  0  0  0  0  0
    2.2960   16.4610   -8.7620 C   0  0  0  0  0  0  0  0  0  0  0  0
    1.8950   16.2790  -10.1950 C   0  0  2  0  0  0  0  0  0  0  0  0
    1.2210   15.0450  -10.4750 O   0  0  0  0  0  0  0  0  0  0  0  0
    2.4990   15.2270  -11.1050 C   0  0  0  0  0  0  0  0  0  0  0  0
    3.5570   14.2870  -10.6180 C   0  0  0  0  0  0  0  0  0  0  0  0
    2.4180   15.4300  -12.5860 C   0  0  0  0  0  0  0  0  0  0  0  0
    1.1750   13.8270   -6.1240 C   0  0  1  0  0  0  0  0  0  0  0  0
    2.5860   13.1860   -6.2090 C   0  0  0  0  0  0  0  0  0  0  0  0
    2.9110   12.6320   -4.7970 C   0  0  0  0  0  0  0  0  0  0  0  0
    1.5620   12.6740   -4.0420 C   0  0  1  0  0  0  0  0  0  0  0  0
    0.8020   11.3920   -4.5070 C   0  0  0  0  0  0  0  0  0  0  0  0
    1.6450   12.7620   -2.4830 C   0  0  2  0  0  0  0  0  0  0  0  0
    2.3230   11.5630   -1.7970 C   0  0  0  0  0  0  0  0  0  0  0  0
    1.4060   10.4510   -1.4050 C   0  0  0  0  0  0  0  0  0  0  0  0
    0.0650   10.5320   -1.3350 C   0  0  0  0  0  0  0  0  0  0  0  0
   -0.6580   11.8640   -1.5740 C   0  0  1  0  0  0  0  0  0  0  0  0
   -1.7220   12.0820   -0.4650 C   0  0  0  0  0  0  0  0  0  0  0  0
   -2.6880   10.9080   -0.3420 C   0  0  0  0  0  0  0  0  0  0  0  0
   -1.9370    9.6120   -0.0470 C   0  0  2  0  0  0  0  0  0  0  0  0
   -1.3530    9.7040    1.2560 O   0  0  0  0  0  0  0  0  0  0  0  0
   -0.8320    9.2920   -1.0930 C   0  0  0  0  0  0  0  0  0  0  0  0
   -1.4880    8.8970   -2.4390 C   0  0  0  0  0  0  0  0  0  0  0  0
   -0.0580    8.0390   -0.6020 C   0  0  0  0  0  0  0  0  0  0  0  0
    0.2760   13.1320   -1.7810 C   0  0  1  0  0  0  0  0  0  0  0  0
    0.6400   13.7570   -0.3990 C   0  0  0  0  0  0  0  0  0  0  0  0
   -0.5220   14.2360   -2.5710 C   0  0  0  0  0  0  0  0  0  0  0  0
   -0.4680   14.1650   -4.1090 C   0  0  0  0  0  0  0  0  0  0  0  0
    0.9760   14.0220   -4.6000 C   0  0  2  0  0  0  0  0  0  0  0  0
    1.7590   15.3070   -4.1670 C   0  0  0  0  0  0  0  0  0  0  0  0
   -1.1252   15.0026   -7.0154 H   0  0  0  0  0  0  0  0  0  0  0  0
   -0.4003   15.9200   -8.3790 H   0  0  0  0  0  0  0  0  0  0  0  0
   -0.3534   14.1243   -8.3790 H   0  0  0  0  0  0  0  0  0  0  0  0
    1.0511   15.9668   -6.3899 H   0  0  0  0  0  0  0  0  0  0  0  0
    3.1589   15.0371   -7.4048 H   0  0  0  0  0  0  0  0  0  0  0  0
    2.1003   14.3408   -8.7233 H   0  0  0  0  0  0  0  0  0  0  0  0
    1.6173   17.1876   -8.2915 H   0  0  0  0  0  0  0  0  0  0  0  0
    3.3354   16.8205   -8.7399 H   0  0  0  0  0  0  0  0  0  0  0  0
    1.7471   17.3622  -10.3163 H   0  0  0  0  0  0  0  0  0  0  0  0
    3.5639   14.2808   -9.5180 H   0  0  0  0  0  0  0  0  0  0  0  0
    3.3458   13.2732  -10.9890 H   0  0  0  0  0  0  0  0  0  0  0  0
    4.5389   14.6161  -10.9890 H   0  0  0  0  0  0  0  0  0  0  0  0
    2.0179   16.4326  -12.7973 H   0  0  0  0  0  0  0  0  0  0  0  0
    3.4225   15.3361  -13.0244 H   0  0  0  0  0  0  0  0  0  0  0  0
    1.7541   14.6704  -13.0244 H   0  0  0  0  0  0  0  0  0  0  0  0
    0.3603   13.2118   -6.5337 H   0  0  0  0  0  0  0  0  0  0  0  0
    2.5874   12.3694   -6.9460 H   0  0  0  0  0  0  0  0  0  0  0  0
    3.3370   13.9244   -6.5263 H   0  0  0  0  0  0  0  0  0  0  0  0
    3.2879   11.6006   -4.8617 H   0  0  0  0  0  0  0  0  0  0  0  0
    3.6920   13.2167   -4.2889 H   0  0  0  0  0  0  0  0  0  0  0  0
    0.4660   10.8252   -3.6262 H   0  0  0  0  0  0  0  0  0  0  0  0
   -0.0703   11.6818   -5.1112 H   0  0  0  0  0  0  0  0  0  0  0  0
    1.4749   10.7658   -5.1112 H   0  0  0  0  0  0  0  0  0  0  0  0
    2.3223   13.6152   -2.3305 H   0  0  0  0  0  0  0  0  0  0  0  0
    3.0749   11.1558   -2.4890 H   0  0  0  0  0  0  0  0  0  0  0  0
    2.7507   11.9498   -0.8603 H   0  0  0  0  0  0  0  0  0  0  0  0
    1.8660    9.4843   -1.1522 H   0  0  0  0  0  0  0  0  0  0  0  0
   -1.1522   11.7707   -2.5523 H   0  0  0  0  0  0  0  0  0  0  0  0
   -1.2060   12.2163    0.4971 H   0  0  0  0  0  0  0  0  0  0  0  0
   -2.3100   12.9710   -0.7367 H   0  0  0  0  0  0  0  0  0  0  0  0
   -3.3956   11.1082    0.4761 H   0  0  0  0  0  0  0  0  0  0  0  0
   -3.2246   10.7936   -1.2954 H   0  0  0  0  0  0  0  0  0  0  0  0
   -2.6657    8.7897   -0.0989 H   0  0  0  0  0  0  0  0  0  0  0  0
   -2.0350   10.0430    1.8610 H   0  0  0  0  0  0  0  0  0  0  0  0
   -2.4156    8.3385   -2.2449 H   0  0  0  0  0  0  0  0  0  0  0  0
   -1.7205    9.8054   -3.0141 H   0  0  0  0  0  0  0  0  0  0  0  0
   -0.7939    8.2665   -3.0141 H   0  0  0  0  0  0  0  0  0  0  0  0
   -0.0476    8.0221    0.4978 H   0  0  0  0  0  0  0  0  0  0  0  0
   -0.5531    7.1315   -0.9780 H   0  0  0  0  0  0  0  0  0  0  0  0
    0.9751    8.0755   -0.9780 H   0  0  0  0  0  0  0  0  0  0  0  0
    0.2631   13.1099    0.4067 H   0  0  0  0  0  0  0  0  0  0  0  0
    1.7329   13.8489   -0.3146 H   0  0  0  0  0  0  0  0  0  0  0  0
    0.1807   14.7529   -0.3146 H   0  0  0  0  0  0  0  0  0  0  0  0
   -1.5778   14.1620   -2.2713 H   0  0  0  0  0  0  0  0  0  0  0  0
   -0.0341   15.1865   -2.3094 H   0  0  0  0  0  0  0  0  0  0  0  0
   -1.0518   13.2973   -4.4501 H   0  0  0  0  0  0  0  0  0  0  0  0
   -0.8875   15.0958   -4.5184 H   0  0  0  0  0  0  0  0  0  0  0  0
    1.7931   15.3630   -3.0690 H   0  0  0  0  0  0  0  0  0  0  0  0
    2.7839   15.2630   -4.5639 H   0  0  0  0  0  0  0  0  0  0  0  0
    1.2500   16.1977   -4.5639 H   0  0  0  0  0  0  0  0  0  0  0  0
  1  2  1  0
  2  3  1  0
  3  4  1  0
  4  5  1  0
  5  6  1  0
  6  7  1  0
  7  8  1  0
  7  9  1  0
  2 10  1  0
 10 11  1  0
 11 12  1  0
 12 13  1  0
 13 14  1  1
 13 15  1  0
 15 16  1  0
 16 17  1  0
 17 18  2  0
 18 19  1  0
 19 20  1  0
 20 21  1  0
 21 22  1  0
 22 23  1  0
 22 24  1  0
 24 25  1  0
 24 26  1  0
 19 27  1  0
 27 28  1  1
 27 29  1  0
 29 30  1  0
 30 31  1  0
 31 32  1  1
  7  5  1  0
 31 10  1  0
 31 13  1  0
 27 15  1  0
 24 18  1  0
  1 33  1  0
  1 34  1  0
  1 35  1  0
  2 36  1  1
  3 37  1  0
  3 38  1  0
  4 39  1  0
  4 40  1  0
  5 41  1  6
  8 42  1  0
  8 43  1  0
  8 44  1  0
  9 45  1  0
  9 46  1  0
  9 47  1  0
 10 48  1  6
 11 49  1  0
 11 50  1  0
 12 51  1  0
 12 52  1  0
 14 53  1  0
 14 54  1  0
 14 55  1  0
 15 56  1  6
 16 57  1  0
 16 58  1  0
 17 59  1  0
 19 60  1  6
 20 61  1  0
 20 62  1  0
 21 63  1  0
 21 64  1  0
 22 65  1  1
 23 66  1  0
 25 67  1  0
 25 68  1  0
 25 69  1  0
 26 70  1  0
 26 71  1  0
 26 72  1  0
 28 73  1  0
 28 74  1  0
 28 75  1  0
 29 76  1  0
 29 77  1  0
 30 78  1  0
 30 79  1  0
 32 80  1  0
 32 81  1  0
 32 82  1  0
M  END
>  <meeko>  (12) 
{"is_sidechain": [false], "intermolecular_energy": 2.731, "internal_energy": -0.839}

$$$$
EPH_relaxed_0001_pdb2pqr_Repair_353_r2_0001_out
     RDKit          3D

 82 86  0  0  0  0  0  0  0  0999 V2000
   -0.3850   19.1470   -2.3500 C   0  0  0  0  0  0  0  0  0  0  0  0
    0.5190   18.7030   -1.1970 C   0  0  2  0  0  0  0  0  0  0  0  0
    1.6580   19.7080   -0.9310 C   0  0  0  0  0  0  0  0  0  0  0  0
    1.9290   19.9520    0.5560 C   0  0  0  0  0  0  0  0  0  0  0  0
    3.3820   19.7920    0.8880 C   0  0  2  0  0  0  0  0  0  0  0  0
    3.6980   18.6150    1.6420 O   0  0  0  0  0  0  0  0  0  0  0  0
    3.9310   19.8710    2.3000 C   0  0  0  0  0  0  0  0  0  0  0  0
    3.0350   20.1190    3.4730 C   0  0  0  0  0  0  0  0  0  0  0  0
    5.3810   20.1940    2.4870 C   0  0  0  0  0  0  0  0  0  0  0  0
    1.0990   17.3250   -1.4930 C   0  0  1  0  0  0  0  0  0  0  0  0
    2.6510   17.3160   -1.4850 C   0  0  0  0  0  0  0  0  0  0  0  0
    3.0880   15.9420   -0.9150 C   0  0  0  0  0  0  0  0  0  0  0  0
    1.7980   15.0880   -0.9250 C   0  0  1  0  0  0  0  0  0  0  0  0
    1.6670   14.5770   -2.3950 C   0  0  0  0  0  0  0  0  0  0  0  0
    1.7410   13.9100    0.1020 C   0  0  2  0  0  0  0  0  0  0  0  0
    2.8090   12.8210   -0.0940 C   0  0  0  0  0  0  0  0  0  0  0  0
    2.4120   11.6910   -0.9860 C   0  0  0  0  0  0  0  0  0  0  0  0
    1.1550   11.4070   -1.3760 C   0  0  0  0  0  0  0  0  0  0  0  0
   -0.0370   12.2060   -0.8340 C   0  0  1  0  0  0  0  0  0  0  0  0
   -1.1620   11.2290   -0.4020 C   0  0  0  0  0  0  0  0  0  0  0  0
   -1.5620   10.2680   -1.5180 C   0  0  0  0  0  0  0  0  0  0  0  0
   -0.3620    9.4510   -1.9900 C   0  0  2  0  0  0  0  0  0  0  0  0
    0.0490    8.5810   -0.9310 O   0  0  0  0  0  0  0  0  0  0  0  0
    0.8380   10.3290   -2.4410 C   0  0  0  0  0  0  0  0  0  0  0  0
    0.4890   11.0460   -3.7690 C   0  0  0  0  0  0  0  0  0  0  0  0
    2.0290    9.3840   -2.7580 C   0  0  0  0  0  0  0  0  0  0  0  0
    0.3010   13.2810    0.2870 C   0  0  1  0  0  0  0  0  0  0  0  0
    0.2870   12.6060    1.6930 C   0  0  0  0  0  0  0  0  0  0  0  0
   -0.8320   14.3750    0.3080 C   0  0  0  0  0  0  0  0  0  0  0  0
   -0.6580   15.5740   -0.6430 C   0  0  0  0  0  0  0  0  0  0  0  0
    0.7430   16.1780   -0.5140 C   0  0  2  0  0  0  0  0  0  0  0  0
    0.8970   16.7200    0.9480 C   0  0  0  0  0  0  0  0  0  0  0  0
   -1.3026   19.5977   -1.9439 H   0  0  0  0  0  0  0  0  0  0  0  0
    0.1450   19.8873   -2.9673 H   0  0  0  0  0  0  0  0  0  0  0  0
   -0.6469   18.2750   -2.9673 H   0  0  0  0  0  0  0  0  0  0  0  0
   -0.1005   18.6590   -0.2891 H   0  0  0  0  0  0  0  0  0  0  0  0
    2.5781   19.3202   -1.3926 H   0  0  0  0  0  0  0  0  0  0  0  0
    1.3450   20.6701   -1.3627 H   0  0  0  0  0  0  0  0  0  0  0  0
    1.6152   20.9746    0.8125 H   0  0  0  0  0  0  0  0  0  0  0  0
    1.3610   19.2087    1.1347 H   0  0  0  0  0  0  0  0  0  0  0  0
    3.6747   20.2931   -0.0465 H   0  0  0  0  0  0  0  0  0  0  0  0
    3.5988   19.9629    4.4045 H   0  0  0  0  0  0  0  0  0  0  0  0
    2.6634   21.1538    3.4383 H   0  0  0  0  0  0  0  0  0  0  0  0
    2.1843   19.4226    3.4383 H   0  0  0  0  0  0  0  0  0  0  0  0
    5.6097   20.2449    3.5618 H   0  0  0  0  0  0  0  0  0  0  0  0
    5.9946   19.4105    2.0183 H   0  0  0  0  0  0  0  0  0  0  0  0
    5.6040   21.1638    2.0183 H   0  0  0  0  0  0  0  0  0  0  0  0
    0.6389   17.1383   -2.4745 H   0  0  0  0  0  0  0  0  0  0  0  0
    3.0357   17.4413   -2.5079 H   0  0  0  0  0  0  0  0  0  0  0  0
    3.0474   18.1407   -0.8745 H   0  0  0  0  0  0  0  0  0  0  0  0
    3.8609   15.4857   -1.5509 H   0  0  0  0  0  0  0  0  0  0  0  0
    3.5244   16.0272    0.0911 H   0  0  0  0  0  0  0  0  0  0  0  0
    1.3938   13.5115   -2.3898 H   0  0  0  0  0  0  0  0  0  0  0  0
    0.8874   15.1528   -2.9153 H   0  0  0  0  0  0  0  0  0  0  0  0
    2.6275   14.7068   -2.9153 H   0  0  0  0  0  0  0  0  0  0  0  0
    1.9951   14.4098    1.0484 H   0  0  0  0  0  0  0  0  0  0  0  0
    3.7033   13.2955   -0.5242 H   0  0  0  0  0  0  0  0  0  0  0  0
    2.9790   12.3794    0.8990 H   0  0  0  0  0  0  0  0  0  0  0  0
    3.2142   11.0354   -1.3556 H   0  0  0  0  0  0  0  0  0  0  0  0
   -0.3867   12.8331   -1.6674 H   0  0  0  0  0  0  0  0  0  0  0  0
   -0.8085   10.6424    0.4588 H   0  0  0  0  0  0  0  0  0  0  0  0
   -2.0467   11.8304   -0.1457 H   0  0  0  0  0  0  0  0  0  0  0  0
   -2.3382    9.5844   -1.1435 H   0  0  0  0  0  0  0  0  0  0  0  0
   -1.9434   10.8546   -2.3668 H   0  0  0  0  0  0  0  0  0  0  0  0
   -0.6803    8.8781   -2.8735 H   0  0  0  0  0  0  0  0  0  0  0  0
   -0.7160    8.0330   -0.6860 H   0  0  0  0  0  0  0  0  0  0  0  0
    0.0173   12.0152   -3.5495 H   0  0  0  0  0  0  0  0  0  0  0  0
    1.4085   11.2091   -4.3503 H   0  0  0  0  0  0  0  0  0  0  0  0
   -0.2066   10.4229   -4.3503 H   0  0  0  0  0  0  0  0  0  0  0  0
    2.4760    9.0293   -1.8176 H   0  0  0  0  0  0  0  0  0  0  0  0
    1.6690    8.5231   -3.3405 H   0  0  0  0  0  0  0  0  0  0  0  0
    2.7855    9.9303   -3.3405 H   0  0  0  0  0  0  0  0  0  0  0  0
    0.3031   13.3820    2.4725 H   0  0  0  0  0  0  0  0  0  0  0  0
   -0.6239   11.9986    1.7991 H   0  0  0  0  0  0  0  0  0  0  0  0
    1.1720   11.9613    1.7991 H   0  0  0  0  0  0  0  0  0  0  0  0
   -1.7786   13.8787    0.0479 H   0  0  0  0  0  0  0  0  0  0  0  0
   -0.7990   14.8038    1.3204 H   0  0  0  0  0  0  0  0  0  0  0  0
   -0.8102   15.2366   -1.6788 H   0  0  0  0  0  0  0  0  0  0  0  0
   -1.3973   16.3434   -0.3757 H   0  0  0  0  0  0  0  0  0  0  0  0
    0.6685   15.9160    1.6631 H   0  0  0  0  0  0  0  0  0  0  0  0
    1.9292   17.0668    1.1037 H   0  0  0  0  0  0  0  0  0  0  0  0
    0.2013   17.5577    1.1037 H   0  0  0  0  0  0  0  0  0  0  0  0
  1  2  1  0
  2  3  1  0
  3  4  1  0
  4  5  1  0
  5  6  1  0
  6  7  1  0
  7  8  1  0
  7  9  1  0
  2 10  1  0
 10 11  1  0
 11 12  1  0
 12 13  1  0
 13 14  1  6
 13 15  1  0
 15 16  1  0
 16 17  1  0
 17 18  2  0
 18 19  1  0
 19 20  1  0
 20 21  1  0
 21 22  1  0
 22 23  1  0
 22 24  1  0
 24 25  1  0
 24 26  1  0
 19 27  1  0
 27 28  1  1
 27 29  1  0
 29 30  1  0
 30 31  1  0
 31 32  1  1
  7  5  1  0
 31 10  1  0
 31 13  1  0
 27 15  1  0
 24 18  1  0
  1 33  1  0
  1 34  1  0
  1 35  1  0
  2 36  1  1
  3 37  1  0
  3 38  1  0
  4 39  1  0
  4 40  1  0
  5 41  1  6
  8 42  1  0
  8 43  1  0
  8 44  1  0
  9 45  1  0
  9 46  1  0
  9 47  1  0
 10 48  1  6
 11 49  1  0
 11 50  1  0
 12 51  1  0
 12 52  1  0
 14 53  1  0
 14 54  1  0
 14 55  1  0
 15 56  1  1
 16 57  1  0
 16 58  1  0
 17 59  1  0
 19 60  1  6
 20 61  1  0
 20 62  1  0
 21 63  1  0
 21 64  1  0
 22 65  1  6
 23 66  1  0
 25 67  1  0
 25 68  1  0
 25 69  1  0
 26 70  1  0
 26 71  1  0
 26 72  1  0
 28 73  1  0
 28 74  1  0
 28 75  1  0
 29 76  1  0
 29 77  1  0
 30 78  1  0
 30 79  1  0
 32 80  1  0
 32 81  1  0
 32 82  1  0
M  END
>  <meeko>  (13) 
{"is_sidechain": [false], "intermolecular_energy": 2.731, "internal_energy": -0.839}

$$$$
EPH_relaxed_0001_pdb2pqr_Repair_353_r2_0001_out
     RDKit          3D

 82 86  0  0  0  0  0  0  0  0999 V2000
    0.0410    7.8300   -2.4260 C   0  0  0  0  0  0  0  0  0  0  0  0
   -1.3210    8.2250   -1.8480 C   0  0  2  0  0  0  0  0  0  0  0  0
   -2.4900    7.6870   -2.6970 C   0  0  0  0  0  0  0  0  0  0  0  0
   -3.7190    7.2920   -1.8730 C   0  0  0  0  0  0  0  0  0  0  0  0
   -4.7650    6.6330   -2.7190 C   0  0  2  0  0  0  0  0  0  0  0  0
   -5.3530    7.4810   -3.7130 O   0  0  0  0  0  0  0  0  0  0  0  0
   -6.2340    7.0120   -2.6790 C   0  0  0  0  0  0  0  0  0  0  0  0
   -6.7370    8.0910   -1.7720 C   0  0  0  0  0  0  0  0  0  0  0  0
   -7.2440    6.0140   -3.1550 C   0  0  0  0  0  0  0  0  0  0  0  0
   -1.4170    9.7420   -1.7320 C   0  0  1  0  0  0  0  0  0  0  0  0
   -2.8430   10.2240   -1.3560 C   0  0  0  0  0  0  0  0  0  0  0  0
   -2.6700   11.4700   -0.4500 C   0  0  0  0  0  0  0  0  0  0  0  0
   -1.1810   11.8600   -0.6030 C   0  0  1  0  0  0  0  0  0  0  0  0
   -1.1130   12.6660   -1.9380 C   0  0  0  0  0  0  0  0  0  0  0  0
   -0.5500   12.6570    0.5840 C   0  0  2  0  0  0  0  0  0  0  0  0
   -1.1810   14.0330    0.8560 C   0  0  0  0  0  0  0  0  0  0  0  0
   -0.5580   15.1760    0.1260 C   0  0  0  0  0  0  0  0  0  0  0  0
    0.6390   15.1520   -0.4900 C   0  0  0  0  0  0  0  0  0  0  0  0
    1.5420   13.9150   -0.4060 C   0  0  1  0  0  0  0  0  0  0  0  0
    2.9930   14.3550   -0.0760 C   0  0  0  0  0  0  0  0  0  0  0  0
    3.5240   15.4000   -1.0530 C   0  0  0  0  0  0  0  0  0  0  0  0
    2.6310   16.6380   -1.0650 C   0  0  2  0  0  0  0  0  0  0  0  0
    2.7270   17.2880    0.2070 O   0  0  0  0  0  0  0  0  0  0  0  0
    1.1420   16.3170   -1.3760 C   0  0  0  0  0  0  0  0  0  0  0  0
    1.0000   15.8960   -2.8600 C   0  0  0  0  0  0  0  0  0  0  0  0
    0.3280   17.6290   -1.2180 C   0  0  0  0  0  0  0  0  0  0  0  0
    1.0300   12.7440    0.5390 C   0  0  1  0  0  0  0  0  0  0  0  0
    1.5040   12.9960    2.0030 C   0  0  0  0  0  0  0  0  0  0  0  0
    1.6910   11.3900    0.0850 C   0  0  0  0  0  0  0  0  0  0  0  0
    0.9570   10.5900   -1.0080 C   0  0  0  0  0  0  0  0  0  0  0  0
   -0.5280   10.4310   -0.6670 C   0  0  2  0  0  0  0  0  0  0  0  0
   -0.6280    9.6050    0.6610 C   0  0  0  0  0  0  0  0  0  0  0  0
    0.7430    7.6264   -1.6040 H   0  0  0  0  0  0  0  0  0  0  0  0
   -0.0710    6.9273   -3.0446 H   0  0  0  0  0  0  0  0  0  0  0  0
    0.4293    8.6525   -3.0446 H   0  0  0  0  0  0  0  0  0  0  0  0
   -1.4009    7.7701   -0.8496 H   0  0  0  0  0  0  0  0  0  0  0  0
   -2.7878    8.4679   -3.4122 H   0  0  0  0  0  0  0  0  0  0  0  0
   -2.1313    6.7749   -3.1964 H   0  0  0  0  0  0  0  0  0  0  0  0
   -3.4083    6.5937   -1.0819 H   0  0  0  0  0  0  0  0  0  0  0  0
   -4.1522    8.2072   -1.4432 H   0  0  0  0  0  0  0  0  0  0  0  0
   -4.2506    5.6638   -2.6414 H   0  0  0  0  0  0  0  0  0  0  0  0
   -6.5947    7.7857   -0.7248 H   0  0  0  0  0  0  0  0  0  0  0  0
   -6.1790    9.0197   -1.9623 H   0  0  0  0  0  0  0  0  0  0  0  0
   -7.8070    8.2607   -1.9623 H   0  0  0  0  0  0  0  0  0  0  0  0
   -7.7258    5.5380   -2.2882 H   0  0  0  0  0  0  0  0  0  0  0  0
   -8.0053    6.5244   -3.7632 H   0  0  0  0  0  0  0  0  0  0  0  0
   -6.7428    5.2466   -3.7632 H   0  0  0  0  0  0  0  0  0  0  0  0
   -1.0834   10.0252   -2.7412 H   0  0  0  0  0  0  0  0  0  0  0  0
   -3.4042   10.4907   -2.2637 H   0  0  0  0  0  0  0  0  0  0  0  0
   -3.4030    9.4326   -0.8362 H   0  0  0  0  0  0  0  0  0  0  0  0
   -3.3225   12.2889   -0.7871 H   0  0  0  0  0  0  0  0  0  0  0  0
   -2.9425   11.2662    0.5961 H   0  0  0  0  0  0  0  0  0  0  0  0
   -1.0225   13.7392   -1.7142 H   0  0  0  0  0  0  0  0  0  0  0  0
   -0.2393   12.3379   -2.5203 H   0  0  0  0  0  0  0  0  0  0  0  0
   -2.0293   12.4889   -2.5203 H   0  0  0  0  0  0  0  0  0  0  0  0
   -0.8112   12.0330    1.4514 H   0  0  0  0  0  0  0  0  0  0  0  0
   -2.2415   13.9834    0.5681 H   0  0  0  0  0  0  0  0  0  0  0  0
   -1.0237   14.2336    1.9261 H   0  0  0  0  0  0  0  0  0  0  0  0
   -1.1248   16.1179    0.0880 H   0  0  0  0  0  0  0  0  0  0  0  0
    1.5099   13.4477   -1.4013 H   0  0  0  0  0  0  0  0  0  0  0  0
    3.0106   14.7797    0.9386 H   0  0  0  0  0  0  0  0  0  0  0  0
    3.6372   13.4668   -0.1543 H   0  0  0  0  0  0  0  0  0  0  0  0
    4.5405   15.6921   -0.7506 H   0  0  0  0  0  0  0  0  0  0  0  0
    3.5339   14.9640   -2.0629 H   0  0  0  0  0  0  0  0  0  0  0  0
    2.9863   17.2929   -1.8742 H   0  0  0  0  0  0  0  0  0  0  0  0
    2.1220   16.8330    0.8160 H   0  0  0  0  0  0  0  0  0  0  0  0
    0.6489   14.8549   -2.9138 H   0  0  0  0  0  0  0  0  0  0  0  0
    0.2741   16.5541   -3.3600 H   0  0  0  0  0  0  0  0  0  0  0  0
    1.9762   15.9800   -3.3600 H   0  0  0  0  0  0  0  0  0  0  0  0
    0.1914   17.8492   -0.1490 H   0  0  0  0  0  0  0  0  0  0  0  0
    0.8711   18.4573   -1.6965 H   0  0  0  0  0  0  0  0  0  0  0  0
   -0.6553   17.5103   -1.6965 H   0  0  0  0  0  0  0  0  0  0  0  0
    0.7557   12.5982    2.7043 H   0  0  0  0  0  0  0  0  0  0  0  0
    2.4669   12.4908    2.1687 H   0  0  0  0  0  0  0  0  0  0  0  0
    1.6237   14.0768    2.1687 H   0  0  0  0  0  0  0  0  0  0  0  0
    2.6982   11.6215   -0.2919 H   0  0  0  0  0  0  0  0  0  0  0  0
    1.6687   10.7460    0.9765 H   0  0  0  0  0  0  0  0  0  0  0  0
    1.0512   11.1207   -1.9669 H   0  0  0  0  0  0  0  0  0  0  0  0
    1.4105    9.5901   -1.0752 H   0  0  0  0  0  0  0  0  0  0  0  0
   -0.5458   10.2842    1.5223 H   0  0  0  0  0  0  0  0  0  0  0  0
   -1.5958    9.0834    0.6964 H   0  0  0  0  0  0  0  0  0  0  0  0
    0.1874    8.8676    0.6964 H   0  0  0  0  0  0  0  0  0  0  0  0
  1  2  1  0
  2  3  1  0
  3  4  1  0
  4  5  1  0
  5  6  1  0
  6  7  1  0
  7  8  1  0
  7  9  1  0
  2 10  1  0
 10 11  1  0
 11 12  1  0
 12 13  1  0
 13 14  1  6
 13 15  1  0
 15 16  1  0
 16 17  1  0
 17 18  2  0
 18 19  1  0
 19 20  1  0
 20 21  1  0
 21 22  1  0
 22 23  1  0
 22 24  1  0
 24 25  1  0
 24 26  1  0
 19 27  1  0
 27 28  1  1
 27 29  1  0
 29 30  1  0
 30 31  1  0
 31 32  1  1
  7  5  1  0
 31 10  1  0
 31 13  1  0
 27 15  1  0
 24 18  1  0
  1 33  1  0
  1 34  1  0
  1 35  1  0
  2 36  1  1
  3 37  1  0
  3 38  1  0
  4 39  1  0
  4 40  1  0
  5 41  1  6
  8 42  1  0
  8 43  1  0
  8 44  1  0
  9 45  1  0
  9 46  1  0
  9 47  1  0
 10 48  1  6
 11 49  1  0
 11 50  1  0
 12 51  1  0
 12 52  1  0
 14 53  1  0
 14 54  1  0
 14 55  1  0
 15 56  1  1
 16 57  1  0
 16 58  1  0
 17 59  1  0
 19 60  1  6
 20 61  1  0
 20 62  1  0
 21 63  1  0
 21 64  1  0
 22 65  1  6
 23 66  1  0
 25 67  1  0
 25 68  1  0
 25 69  1  0
 26 70  1  0
 26 71  1  0
 26 72  1  0
 28 73  1  0
 28 74  1  0
 28 75  1  0
 29 76  1  0
 29 77  1  0
 30 78  1  0
 30 79  1  0
 32 80  1  0
 32 81  1  0
 32 82  1  0
M  END
>  <meeko>  (14) 
{"is_sidechain": [false], "intermolecular_energy": 2.731, "internal_energy": -0.839}

$$$$
EPH_relaxed_0001_pdb2pqr_Repair_353_r2_0001_out
     RDKit          3D

 82 86  0  0  0  0  0  0  0  0999 V2000
   -3.7170    7.2490   -3.3660 C   0  0  0  0  0  0  0  0  0  0  0  0
   -3.7630    7.3330   -1.8370 C   0  0  2  0  0  0  0  0  0  0  0  0
   -5.1800    7.0820   -1.2840 C   0  0  0  0  0  0  0  0  0  0  0  0
   -6.2910    7.3030   -2.3140 C   0  0  0  0  0  0  0  0  0  0  0  0
   -7.6250    7.4980   -1.6580 C   0  0  2  0  0  0  0  0  0  0  0  0
   -8.2020    6.3060   -1.1100 O   0  0  0  0  0  0  0  0  0  0  0  0
   -8.9160    6.9130   -2.1980 C   0  0  0  0  0  0  0  0  0  0  0  0
   -8.9370    6.0890   -3.4470 C   0  0  0  0  0  0  0  0  0  0  0  0
  -10.2120    7.5430   -1.7930 C   0  0  0  0  0  0  0  0  0  0  0  0
   -3.2580    8.6950   -1.3770 C   0  0  1  0  0  0  0  0  0  0  0  0
   -3.9150    9.1580   -0.0490 C   0  0  0  0  0  0  0  0  0  0  0  0
   -2.8320    9.9440    0.7350 C   0  0  0  0  0  0  0  0  0  0  0  0
   -1.7070   10.1920   -0.2960 C   0  0  1  0  0  0  0  0  0  0  0  0
   -2.1850   11.4270   -1.1210 C   0  0  0  0  0  0  0  0  0  0  0  0
   -0.2710   10.4070    0.2860 C   0  0  2  0  0  0  0  0  0  0  0  0
   -0.1120   11.6420    1.1900 C   0  0  0  0  0  0  0  0  0  0  0  0
    0.2890   12.8970    0.4890 C   0  0  0  0  0  0  0  0  0  0  0  0
    0.7880   12.9710   -0.7600 C   0  0  0  0  0  0  0  0  0  0  0  0
    1.0850   11.7000   -1.5650 C   0  0  1  0  0  0  0  0  0  0  0  0
    2.4870   11.8170   -2.2180 C   0  0  0  0  0  0  0  0  0  0  0  0
    2.6410   13.0850   -3.0510 C   0  0  0  0  0  0  0  0  0  0  0  0
    2.3950   14.3290   -2.2020 C   0  0  2  0  0  0  0  0  0  0  0  0
    3.4400   14.4380   -1.2300 O   0  0  0  0  0  0  0  0  0  0  0  0
    1.0150   14.3200   -1.4860 C   0  0  0  0  0  0  0  0  0  0  0  0
   -0.1130   14.5060   -2.5300 C   0  0  0  0  0  0  0  0  0  0  0  0
    0.9530   15.5590   -0.5530 C   0  0  0  0  0  0  0  0  0  0  0  0
    0.8840   10.3260   -0.7920 C   0  0  1  0  0  0  0  0  0  0  0  0
    2.1870    9.9540   -0.0210 C   0  0  0  0  0  0  0  0  0  0  0  0
    0.6440    9.1760   -1.8410 C   0  0  0  0  0  0  0  0  0  0  0  0
   -0.8100    8.9340   -2.2870 C   0  0  0  0  0  0  0  0  0  0  0  0
   -1.7440    8.8280   -1.0770 C   0  0  2  0  0  0  0  0  0  0  0  0
   -1.3010    7.5800   -0.2390 C   0  0  0  0  0  0  0  0  0  0  0  0
   -3.2088    6.3210   -3.6671 H   0  0  0  0  0  0  0  0  0  0  0  0
   -4.7423    7.2514   -3.7644 H   0  0  0  0  0  0  0  0  0  0  0  0
   -3.1668    8.1142   -3.7644 H   0  0  0  0  0  0  0  0  0  0  0  0
   -3.1099    6.5410   -1.4418 H   0  0  0  0  0  0  0  0  0  0  0  0
   -5.2357    6.0417   -0.9310 H   0  0  0  0  0  0  0  0  0  0  0  0
   -5.3427    7.8092   -0.4749 H   0  0  0  0  0  0  0  0  0  0  0  0
   -6.0525    8.1967   -2.9093 H   0  0  0  0  0  0  0  0  0  0  0  0
   -6.3501    6.4086   -2.9517 H   0  0  0  0  0  0  0  0  0  0  0  0
   -7.3498    8.5166   -1.3471 H   0  0  0  0  0  0  0  0  0  0  0  0
   -8.9642    5.0218   -3.1818 H   0  0  0  0  0  0  0  0  0  0  0  0
   -9.8290    6.3426   -4.0387 H   0  0  0  0  0  0  0  0  0  0  0  0
   -8.0333    6.2969   -4.0387 H   0  0  0  0  0  0  0  0  0  0  0  0
  -10.2771    7.5746   -0.6954 H   0  0  0  0  0  0  0  0  0  0  0  0
  -10.2630    8.5664   -2.1930 H   0  0  0  0  0  0  0  0  0  0  0  0
  -11.0483    6.9509   -2.1930 H   0  0  0  0  0  0  0  0  0  0  0  0
   -3.5209    9.2969   -2.2594 H   0  0  0  0  0  0  0  0  0  0  0  0
   -4.7772    9.8080   -0.2592 H   0  0  0  0  0  0  0  0  0  0  0  0
   -4.2783    8.2982    0.5330 H   0  0  0  0  0  0  0  0  0  0  0  0
   -3.2362   10.8976    1.1056 H   0  0  0  0  0  0  0  0  0  0  0  0
   -2.4747    9.3939    1.6180 H   0  0  0  0  0  0  0  0  0  0  0  0
   -2.4953   12.2286   -0.4346 H   0  0  0  0  0  0  0  0  0  0  0  0
   -1.3608   11.7857   -1.7550 H   0  0  0  0  0  0  0  0  0  0  0  0
   -3.0360   11.1373   -1.7550 H   0  0  0  0  0  0  0  0  0  0  0  0
   -0.1511    9.5360    0.9471 H   0  0  0  0  0  0  0  0  0  0  0  0
   -1.0751   11.8242    1.6892 H   0  0  0  0  0  0  0  0  0  0  0  0
    0.7069   11.4068    1.8858 H   0  0  0  0  0  0  0  0  0  0  0  0
    0.1667   13.8418    1.0389 H   0  0  0  0  0  0  0  0  0  0  0  0
    0.3124   11.6475   -2.3462 H   0  0  0  0  0  0  0  0  0  0  0  0
    3.2468   11.8233   -1.4226 H   0  0  0  0  0  0  0  0  0  0  0  0
    2.6136   10.9574   -2.8925 H   0  0  0  0  0  0  0  0  0  0  0  0
    3.6611   13.1248   -3.4607 H   0  0  0  0  0  0  0  0  0  0  0  0
    1.9004   13.0629   -3.8640 H   0  0  0  0  0  0  0  0  0  0  0  0
    2.3907   15.1950   -2.8802 H   0  0  0  0  0  0  0  0  0  0  0  0
    4.1890   14.8910   -1.6530 H   0  0  0  0  0  0  0  0  0  0  0  0
   -1.0702   14.6638   -2.0114 H   0  0  0  0  0  0  0  0  0  0  0  0
    0.1110   15.3793   -3.1602 H   0  0  0  0  0  0  0  0  0  0  0  0
   -0.1813   13.6070   -3.1602 H   0  0  0  0  0  0  0  0  0  0  0  0
    0.9695   15.2291    0.4962 H   0  0  0  0  0  0  0  0  0  0  0  0
    1.8198   16.2079   -0.7470 H   0  0  0  0  0  0  0  0  0  0  0  0
    0.0258   16.1181   -0.7470 H   0  0  0  0  0  0  0  0  0  0  0  0
    2.0003   10.0073    1.0617 H   0  0  0  0  0  0  0  0  0  0  0  0
    2.4935    8.9325   -0.2904 H   0  0  0  0  0  0  0  0  0  0  0  0
    2.9866   10.6598   -0.2904 H   0  0  0  0  0  0  0  0  0  0  0  0
    1.2316    9.4171   -2.7391 H   0  0  0  0  0  0  0  0  0  0  0  0
    0.9447    8.2510   -1.3272 H   0  0  0  0  0  0  0  0  0  0  0  0
   -1.1361    9.7716   -2.9211 H   0  0  0  0  0  0  0  0  0  0  0  0
   -0.8525    7.9881   -2.8470 H   0  0  0  0  0  0  0  0  0  0  0  0
   -1.3829    7.8106    0.8334 H   0  0  0  0  0  0  0  0  0  0  0  0
   -1.9510    6.7263   -0.4811 H   0  0  0  0  0  0  0  0  0  0  0  0
   -0.2582    7.3271   -0.4811 H   0  0  0  0  0  0  0  0  0  0  0  0
  1  2  1  0
  2  3  1  0
  3  4  1  0
  4  5  1  0
  5  6  1  0
  6  7  1  0
  7  8  1  0
  7  9  1  0
  2 10  1  0
 10 11  1  0
 11 12  1  0
 12 13  1  0
 13 14  1  6
 13 15  1  0
 15 16  1  0
 16 17  1  0
 17 18  2  0
 18 19  1  0
 19 20  1  0
 20 21  1  0
 21 22  1  0
 22 23  1  0
 22 24  1  0
 24 25  1  0
 24 26  1  0
 19 27  1  0
 27 28  1  1
 27 29  1  0
 29 30  1  0
 30 31  1  0
 31 32  1  1
  7  5  1  0
 31 10  1  0
 31 13  1  0
 27 15  1  0
 24 18  1  0
  1 33  1  0
  1 34  1  0
  1 35  1  0
  2 36  1  1
  3 37  1  0
  3 38  1  0
  4 39  1  0
  4 40  1  0
  5 41  1  1
  8 42  1  0
  8 43  1  0
  8 44  1  0
  9 45  1  0
  9 46  1  0
  9 47  1  0
 10 48  1  6
 11 49  1  0
 11 50  1  0
 12 51  1  0
 12 52  1  0
 14 53  1  0
 14 54  1  0
 14 55  1  0
 15 56  1  1
 16 57  1  0
 16 58  1  0
 17 59  1  0
 19 60  1  6
 20 61  1  0
 20 62  1  0
 21 63  1  0
 21 64  1  0
 22 65  1  6
 23 66  1  0
 25 67  1  0
 25 68  1  0
 25 69  1  0
 26 70  1  0
 26 71  1  0
 26 72  1  0
 28 73  1  0
 28 74  1  0
 28 75  1  0
 29 76  1  0
 29 77  1  0
 30 78  1  0
 30 79  1  0
 32 80  1  0
 32 81  1  0
 32 82  1  0
M  END
>  <meeko>  (15) 
{"is_sidechain": [false], "intermolecular_energy": 2.731, "internal_energy": -0.839}

$$$$
EPH_relaxed_0001_pdb2pqr_Repair_353_r2_0001_out
     RDKit          3D

 82 86  0  0  0  0  0  0  0  0999 V2000
   -4.4080   11.4150   -0.7190 C   0  0  0  0  0  0  0  0  0  0  0  0
   -3.0390   10.7370   -0.8220 C   0  0  2  0  0  0  0  0  0  0  0  0
   -2.9820    9.4190   -0.0240 C   0  0  0  0  0  0  0  0  0  0  0  0
   -2.5830    8.2060   -0.8670 C   0  0  0  0  0  0  0  0  0  0  0  0
   -1.4520    8.5250   -1.7970 C   0  0  2  0  0  0  0  0  0  0  0  0
   -0.6880    7.3890   -2.2220 O   0  0  0  0  0  0  0  0  0  0  0  0
    0.0090    8.3600   -1.4250 C   0  0  0  0  0  0  0  0  0  0  0  0
    0.4190    7.8590   -0.0750 C   0  0  0  0  0  0  0  0  0  0  0  0
    1.0340    9.1410   -2.1860 C   0  0  0  0  0  0  0  0  0  0  0  0
   -1.9510   11.6880   -0.3370 C   0  0  1  0  0  0  0  0  0  0  0  0
   -1.0390   11.0490    0.7450 C   0  0  0  0  0  0  0  0  0  0  0  0
    0.3870   11.6130    0.5180 C   0  0  0  0  0  0  0  0  0  0  0  0
    0.1880   12.7950   -0.4600 C   0  0  1  0  0  0  0  0  0  0  0  0
   -0.2760   13.9850    0.4380 C   0  0  0  0  0  0  0  0  0  0  0  0
    1.4230   13.1810   -1.3370 C   0  0  2  0  0  0  0  0  0  0  0  0
    2.6560   13.6620   -0.5530 C   0  0  0  0  0  0  0  0  0  0  0  0
    2.7240   15.1330   -0.3090 C   0  0  0  0  0  0  0  0  0  0  0  0
    1.9870   16.0650   -0.9410 C   0  0  0  0  0  0  0  0  0  0  0  0
    1.0400   15.6790   -2.0840 C   0  0  1  0  0  0  0  0  0  0  0  0
    1.2330   16.6600   -3.2700 C   0  0  0  0  0  0  0  0  0  0  0  0
    1.0790   18.1190   -2.8530 C   0  0  0  0  0  0  0  0  0  0  0  0
    2.0770   18.4810   -1.7560 C   0  0  2  0  0  0  0  0  0  0  0  0
    3.3990   18.4250   -2.2990 O   0  0  0  0  0  0  0  0  0  0  0  0
    1.9820   17.5530   -0.5120 C   0  0  0  0  0  0  0  0  0  0  0  0
    0.6640   17.8360    0.2490 C   0  0  0  0  0  0  0  0  0  0  0  0
    3.1340   17.9350    0.4570 C   0  0  0  0  0  0  0  0  0  0  0  0
    1.0860   14.1560   -2.5380 C   0  0  1  0  0  0  0  0  0  0  0  0
    2.2040   13.9520   -3.6050 C   0  0  0  0  0  0  0  0  0  0  0  0
   -0.2730   13.7890   -3.2430 C   0  0  0  0  0  0  0  0  0  0  0  0
   -1.4180   13.3000   -2.3350 C   0  0  0  0  0  0  0  0  0  0  0  0
   -0.9330   12.1990   -1.3870 C   0  0  2  0  0  0  0  0  0  0  0  0
   -0.4810   10.9800   -2.2610 C   0  0  0  0  0  0  0  0  0  0  0  0
   -4.6733   11.5464    0.3404 H   0  0  0  0  0  0  0  0  0  0  0  0
   -4.3685   12.3977   -1.2117 H   0  0  0  0  0  0  0  0  0  0  0  0
   -5.1657   10.7880   -1.2117 H   0  0  0  0  0  0  0  0  0  0  0  0
   -2.8710   10.4887   -1.8804 H   0  0  0  0  0  0  0  0  0  0  0  0
   -2.2475    9.5353    0.7865 H   0  0  0  0  0  0  0  0  0  0  0  0
   -3.9973    9.2279    0.3537 H   0  0  0  0  0  0  0  0  0  0  0  0
   -2.2735    7.3915   -0.1956 H   0  0  0  0  0  0  0  0  0  0  0  0
   -3.4517    7.9089   -1.4729 H   0  0  0  0  0  0  0  0  0  0  0  0
   -2.0129    9.3676   -2.2276 H   0  0  0  0  0  0  0  0  0  0  0  0
   -0.0728    8.4600    0.7040 H   0  0  0  0  0  0  0  0  0  0  0  0
    0.1205    6.8056    0.0314 H   0  0  0  0  0  0  0  0  0  0  0  0
    1.5106    7.9433    0.0314 H   0  0  0  0  0  0  0  0  0  0  0  0
    1.7046    9.6520   -1.4794 H   0  0  0  0  0  0  0  0  0  0  0  0
    1.6197    8.4581   -2.8190 H   0  0  0  0  0  0  0  0  0  0  0  0
    0.5311    9.8869   -2.8190 H   0  0  0  0  0  0  0  0  0  0  0  0
   -2.5772   12.5206    0.0159 H   0  0  0  0  0  0  0  0  0  0  0  0
   -1.3973   11.3182    1.7496 H   0  0  0  0  0  0  0  0  0  0  0  0
   -1.0463    9.9516    0.6698 H   0  0  0  0  0  0  0  0  0  0  0  0
    0.8219   11.9624    1.4661 H   0  0  0  0  0  0  0  0  0  0  0  0
    1.0773   10.8544    0.1205 H   0  0  0  0  0  0  0  0  0  0  0  0
   -0.1683   13.7087    1.4973 H   0  0  0  0  0  0  0  0  0  0  0  0
    0.3435   14.8686    0.2247 H   0  0  0  0  0  0  0  0  0  0  0  0
   -1.3301   14.2160    0.2247 H   0  0  0  0  0  0  0  0  0  0  0  0
    1.7084   12.2151   -1.7793 H   0  0  0  0  0  0  0  0  0  0  0  0
    2.6565   13.1554    0.4234 H   0  0  0  0  0  0  0  0  0  0  0  0
    3.5277   13.4171   -1.1777 H   0  0  0  0  0  0  0  0  0  0  0  0
    3.4366   15.4850    0.4515 H   0  0  0  0  0  0  0  0  0  0  0  0
    0.0211   15.7766   -1.6810 H   0  0  0  0  0  0  0  0  0  0  0  0
    2.2413   16.5166   -3.6858 H   0  0  0  0  0  0  0  0  0  0  0  0
    0.4533   16.4414   -4.0145 H   0  0  0  0  0  0  0  0  0  0  0  0
    1.2549   18.7637   -3.7268 H   0  0  0  0  0  0  0  0  0  0  0  0
    0.0607   18.2675   -2.4643 H   0  0  0  0  0  0  0  0  0  0  0  0
    1.8335   19.4961   -1.4093 H   0  0  0  0  0  0  0  0  0  0  0  0
    3.9060   17.7820   -1.7740 H   0  0  0  0  0  0  0  0  0  0  0  0
    0.8503   17.7960    1.3324 H   0  0  0  0  0  0  0  0  0  0  0  0
    0.2911   18.8347   -0.0223 H   0  0  0  0  0  0  0  0  0  0  0  0
   -0.0860   17.0784   -0.0223 H   0  0  0  0  0  0  0  0  0  0  0  0
    2.7918   17.8215    1.4962 H   0  0  0  0  0  0  0  0  0  0  0  0
    3.9958   17.2745    0.2805 H   0  0  0  0  0  0  0  0  0  0  0  0
    3.4304   18.9795    0.2805 H   0  0  0  0  0  0  0  0  0  0  0  0
    3.1653   13.7766   -3.0999 H   0  0  0  0  0  0  0  0  0  0  0  0
    1.9566   13.0842   -4.2340 H   0  0  0  0  0  0  0  0  0  0  0  0
    2.2790   14.8513   -4.2340 H   0  0  0  0  0  0  0  0  0  0  0  0
   -0.6272   14.6870   -3.7704 H   0  0  0  0  0  0  0  0  0  0  0  0
   -0.0374   12.9342   -3.8940 H   0  0  0  0  0  0  0  0  0  0  0  0
   -1.7932   14.1466   -1.7414 H   0  0  0  0  0  0  0  0  0  0  0  0
   -2.2180   12.8901   -2.9689 H   0  0  0  0  0  0  0  0  0  0  0  0
   -0.1740   10.1522   -1.6049 H   0  0  0  0  0  0  0  0  0  0  0  0
   -1.3179   10.6537   -2.8959 H   0  0  0  0  0  0  0  0  0  0  0  0
    0.3663   11.2782   -2.8959 H   0  0  0  0  0  0  0  0  0  0  0  0
  1  2  1  0
  2  3  1  0
  3  4  1  0
  4  5  1  0
  5  6  1  0
  6  7  1  0
  7  8  1  0
  7  9  1  0
  2 10  1  0
 10 11  1  0
 11 12  1  0
 12 13  1  0
 13 14  1  1
 13 15  1  0
 15 16  1  0
 16 17  1  0
 17 18  2  0
 18 19  1  0
 19 20  1  0
 20 21  1  0
 21 22  1  0
 22 23  1  0
 22 24  1  0
 24 25  1  0
 24 26  1  0
 19 27  1  0
 27 28  1  6
 27 29  1  0
 29 30  1  0
 30 31  1  0
 31 32  1  6
  7  5  1  0
 31 10  1  0
 31 13  1  0
 27 15  1  0
 24 18  1  0
  1 33  1  0
  1 34  1  0
  1 35  1  0
  2 36  1  6
  3 37  1  0
  3 38  1  0
  4 39  1  0
  4 40  1  0
  5 41  1  6
  8 42  1  0
  8 43  1  0
  8 44  1  0
  9 45  1  0
  9 46  1  0
  9 47  1  0
 10 48  1  1
 11 49  1  0
 11 50  1  0
 12 51  1  0
 12 52  1  0
 14 53  1  0
 14 54  1  0
 14 55  1  0
 15 56  1  6
 16 57  1  0
 16 58  1  0
 17 59  1  0
 19 60  1  1
 20 61  1  0
 20 62  1  0
 21 63  1  0
 21 64  1  0
 22 65  1  1
 23 66  1  0
 25 67  1  0
 25 68  1  0
 25 69  1  0
 26 70  1  0
 26 71  1  0
 26 72  1  0
 28 73  1  0
 28 74  1  0
 28 75  1  0
 29 76  1  0
 29 77  1  0
 30 78  1  0
 30 79  1  0
 32 80  1  0
 32 81  1  0
 32 82  1  0
M  END
>  <meeko>  (16) 
{"is_sidechain": [false], "intermolecular_energy": 2.731, "internal_energy": -0.839}

$$$$
EPH_relaxed_0001_pdb2pqr_Repair_353_r2_0001_out
     RDKit          3D

 82 86  0  0  0  0  0  0  0  0999 V2000
   -0.0380    9.3070   -2.0910 C   0  0  0  0  0  0  0  0  0  0  0  0
    1.0420   10.2760   -2.5800 C   0  0  2  0  0  0  0  0  0  0  0  0
    2.4320    9.6110   -2.6460 C   0  0  0  0  0  0  0  0  0  0  0  0
    3.3460   10.2010   -3.7240 C   0  0  0  0  0  0  0  0  0  0  0  0
    4.7400   10.4070   -3.2160 C   0  0  2  0  0  0  0  0  0  0  0  0
    5.2360   11.7460   -3.3540 O   0  0  0  0  0  0  0  0  0  0  0  0
    5.9180   10.7360   -4.1150 C   0  0  0  0  0  0  0  0  0  0  0  0
    5.7540   10.8750   -5.5960 C   0  0  0  0  0  0  0  0  0  0  0  0
    7.3000   10.4390   -3.6210 C   0  0  0  0  0  0  0  0  0  0  0  0
    1.0920   11.4990   -1.6710 C   0  0  1  0  0  0  0  0  0  0  0  0
    2.1860   11.3850   -0.5760 C   0  0  0  0  0  0  0  0  0  0  0  0
    2.7450   12.8130   -0.3520 C   0  0  0  0  0  0  0  0  0  0  0  0
    1.7410   13.7430   -1.0720 C   0  0  1  0  0  0  0  0  0  0  0  0
    0.5590   13.9120   -0.0670 C   0  0  0  0  0  0  0  0  0  0  0  0
    2.2970   15.1250   -1.5480 C   0  0  2  0  0  0  0  0  0  0  0  0
    2.7910   16.0510   -0.4230 C   0  0  0  0  0  0  0  0  0  0  0  0
    1.7630   16.9750    0.1400 C   0  0  0  0  0  0  0  0  0  0  0  0
    0.5750   17.2620   -0.4250 C   0  0  0  0  0  0  0  0  0  0  0  0
    0.2070   16.7070   -1.8070 C   0  0  1  0  0  0  0  0  0  0  0  0
   -0.3850   17.8440   -2.6810 C   0  0  0  0  0  0  0  0  0  0  0  0
   -1.5550   18.5530   -2.0060 C   0  0  0  0  0  0  0  0  0  0  0  0
   -1.1330   19.1410   -0.6620 C   0  0  2  0  0  0  0  0  0  0  0  0
   -0.1930   20.1940   -0.8940 O   0  0  0  0  0  0  0  0  0  0  0  0
   -0.5140   18.0900    0.3000 C   0  0  0  0  0  0  0  0  0  0  0  0
   -1.6160   17.1190    0.7900 C   0  0  0  0  0  0  0  0  0  0  0  0
   -0.0030   18.8380    1.5610 C   0  0  0  0  0  0  0  0  0  0  0  0
    1.3490   15.8930   -2.5550 C   0  0  1  0  0  0  0  0  0  0  0  0
    2.2560   16.8700   -3.3630 C   0  0  0  0  0  0  0  0  0  0  0  0
    0.6870   14.9280   -3.6080 C   0  0  0  0  0  0  0  0  0  0  0  0
    0.2680   13.5330   -3.1060 C   0  0  0  0  0  0  0  0  0  0  0  0
    1.4080   12.8640   -2.3330 C   0  0  2  0  0  0  0  0  0  0  0  0
    2.6040   12.6600   -3.3240 C   0  0  0  0  0  0  0  0  0  0  0  0
   -0.0501    9.2961   -0.9911 H   0  0  0  0  0  0  0  0  0  0  0  0
   -1.0197    9.6329   -2.4653 H   0  0  0  0  0  0  0  0  0  0  0  0
    0.1799    8.2959   -2.4653 H   0  0  0  0  0  0  0  0  0  0  0  0
    0.7742   10.5826   -3.6019 H   0  0  0  0  0  0  0  0  0  0  0  0
    2.9226    9.7341   -1.6692 H   0  0  0  0  0  0  0  0  0  0  0  0
    2.2708    8.5540   -2.9044 H   0  0  0  0  0  0  0  0  0  0  0  0
    3.3770    9.5123   -4.5812 H   0  0  0  0  0  0  0  0  0  0  0  0
    2.9404   11.1799   -4.0195 H   0  0  0  0  0  0  0  0  0  0  0  0
    4.5955    9.6416   -2.4393 H   0  0  0  0  0  0  0  0  0  0  0  0
    4.9309   11.5727   -5.8099 H   0  0  0  0  0  0  0  0  0  0  0  0
    6.6860   11.2624   -6.0334 H   0  0  0  0  0  0  0  0  0  0  0  0
    5.5246    9.8921   -6.0334 H   0  0  0  0  0  0  0  0  0  0  0  0
    7.3039   10.4382   -2.5210 H   0  0  0  0  0  0  0  0  0  0  0  0
    7.6170    9.4522   -3.9895 H   0  0  0  0  0  0  0  0  0  0  0  0
    7.9944   11.2084   -3.9895 H   0  0  0  0  0  0  0  0  0  0  0  0
    0.0580   11.4928   -1.2958 H   0  0  0  0  0  0  0  0  0  0  0  0
    1.7495   10.9985    0.3568 H   0  0  0  0  0  0  0  0  0  0  0  0
    2.9832   10.6928   -0.8847 H   0  0  0  0  0  0  0  0  0  0  0  0
    2.7907   13.0480    0.7216 H   0  0  0  0  0  0  0  0  0  0  0  0
    3.7686   12.9254   -0.7388 H   0  0  0  0  0  0  0  0  0  0  0  0
    0.9424   13.8572    0.9626 H   0  0  0  0  0  0  0  0  0  0  0  0
    0.0779   14.8881   -0.2276 H   0  0  0  0  0  0  0  0  0  0  0  0
   -0.1764   13.1099   -0.2276 H   0  0  0  0  0  0  0  0  0  0  0  0
    3.1952   14.8364   -2.1136 H   0  0  0  0  0  0  0  0  0  0  0  0
    3.1661   15.4201    0.3963 H   0  0  0  0  0  0  0  0  0  0  0  0
    3.5624   16.6926   -0.8738 H   0  0  0  0  0  0  0  0  0  0  0  0
    1.9957   17.4630    1.0980 H   0  0  0  0  0  0  0  0  0  0  0  0
   -0.5570   15.9355   -1.6307 H   0  0  0  0  0  0  0  0  0  0  0  0
    0.4056   18.5819   -2.8823 H   0  0  0  0  0  0  0  0  0  0  0  0
   -0.7611   17.3896   -3.6095 H   0  0  0  0  0  0  0  0  0  0  0  0
   -1.9096   19.3643   -2.6587 H   0  0  0  0  0  0  0  0  0  0  0  0
   -2.3574   17.8207   -1.8330 H   0  0  0  0  0  0  0  0  0  0  0  0
   -2.0403   19.5202   -0.1690 H   0  0  0  0  0  0  0  0  0  0  0  0
   -0.1570   20.7400   -0.0900 H   0  0  0  0  0  0  0  0  0  0  0  0
   -1.6307   17.1060    1.8898 H   0  0  0  0  0  0  0  0  0  0  0  0
   -2.5939   17.4544    0.4141 H   0  0  0  0  0  0  0  0  0  0  0  0
   -1.4063   16.1067    0.4141 H   0  0  0  0  0  0  0  0  0  0  0  0
   -0.3574   18.3192    2.4639 H   0  0  0  0  0  0  0  0  0  0  0  0
    1.0968   18.8557    1.5563 H   0  0  0  0  0  0  0  0  0  0  0  0
   -0.3864   19.8690    1.5563 H   0  0  0  0  0  0  0  0  0  0  0  0
    2.8351   17.4938   -2.6661 H   0  0  0  0  0  0  0  0  0  0  0  0
    2.9447   16.2918   -3.9965 H   0  0  0  0  0  0  0  0  0  0  0  0
    1.6282   17.5139   -3.9965 H   0  0  0  0  0  0  0  0  0  0  0  0
   -0.2137   15.4264   -3.9957 H   0  0  0  0  0  0  0  0  0  0  0  0
    1.4696   14.7405   -4.3579 H   0  0  0  0  0  0  0  0  0  0  0  0
   -0.6042   13.6358   -2.4437 H   0  0  0  0  0  0  0  0  0  0  0  0
    0.0191   12.9072   -3.9757 H   0  0  0  0  0  0  0  0  0  0  0  0
    3.5307   12.5019   -2.7527 H   0  0  0  0  0  0  0  0  0  0  0  0
    2.4096   11.7820   -3.9576 H   0  0  0  0  0  0  0  0  0  0  0  0
    2.7116   13.5528   -3.9576 H   0  0  0  0  0  0  0  0  0  0  0  0
  1  2  1  0
  2  3  1  0
  3  4  1  0
  4  5  1  0
  5  6  1  0
  6  7  1  0
  7  8  1  0
  7  9  1  0
  2 10  1  0
 10 11  1  0
 11 12  1  0
 12 13  1  0
 13 14  1  1
 13 15  1  0
 15 16  1  0
 16 17  1  0
 17 18  2  0
 18 19  1  0
 19 20  1  0
 20 21  1  0
 21 22  1  0
 22 23  1  0
 22 24  1  0
 24 25  1  0
 24 26  1  0
 19 27  1  0
 27 28  1  6
 27 29  1  0
 29 30  1  0
 30 31  1  0
 31 32  1  6
  7  5  1  0
 31 10  1  0
 31 13  1  0
 27 15  1  0
 24 18  1  0
  1 33  1  0
  1 34  1  0
  1 35  1  0
  2 36  1  6
  3 37  1  0
  3 38  1  0
  4 39  1  0
  4 40  1  0
  5 41  1  1
  8 42  1  0
  8 43  1  0
  8 44  1  0
  9 45  1  0
  9 46  1  0
  9 47  1  0
 10 48  1  1
 11 49  1  0
 11 50  1  0
 12 51  1  0
 12 52  1  0
 14 53  1  0
 14 54  1  0
 14 55  1  0
 15 56  1  6
 16 57  1  0
 16 58  1  0
 17 59  1  0
 19 60  1  1
 20 61  1  0
 20 62  1  0
 21 63  1  0
 21 64  1  0
 22 65  1  1
 23 66  1  0
 25 67  1  0
 25 68  1  0
 25 69  1  0
 26 70  1  0
 26 71  1  0
 26 72  1  0
 28 73  1  0
 28 74  1  0
 28 75  1  0
 29 76  1  0
 29 77  1  0
 30 78  1  0
 30 79  1  0
 32 80  1  0
 32 81  1  0
 32 82  1  0
M  END
>  <meeko>  (17) 
{"is_sidechain": [false], "intermolecular_energy": 2.731, "internal_energy": -0.839}

$$$$
EPH_relaxed_0001_pdb2pqr_Repair_353_r2_0001_out
     RDKit          3D

 82 86  0  0  0  0  0  0  0  0999 V2000
   -2.2380    7.8320   -1.9580 C   0  0  0  0  0  0  0  0  0  0  0  0
   -2.3240    8.5210   -0.5930 C   0  0  2  0  0  0  0  0  0  0  0  0
   -3.7590    8.5170   -0.0300 C   0  0  0  0  0  0  0  0  0  0  0  0
   -4.8440    8.4630   -1.1090 C   0  0  0  0  0  0  0  0  0  0  0  0
   -5.6660    7.2140   -1.0070 C   0  0  2  0  0  0  0  0  0  0  0  0
   -5.7940    6.4790   -2.2310 O   0  0  0  0  0  0  0  0  0  0  0  0
   -7.0060    7.0360   -1.6960 C   0  0  0  0  0  0  0  0  0  0  0  0
   -7.6010    8.1210   -2.5370 C   0  0  0  0  0  0  0  0  0  0  0  0
   -7.9550    6.0100   -1.1600 C   0  0  0  0  0  0  0  0  0  0  0  0
   -1.8110    9.9520   -0.7010 C   0  0  1  0  0  0  0  0  0  0  0  0
   -1.4340   10.5570    0.6780 C   0  0  0  0  0  0  0  0  0  0  0  0
   -0.2140   11.4840    0.4420 C   0  0  0  0  0  0  0  0  0  0  0  0
   -0.1360   11.6420   -1.0950 C   0  0  1  0  0  0  0  0  0  0  0  0
   -1.1940   12.7370   -1.4400 C   0  0  0  0  0  0  0  0  0  0  0  0
    1.2700   11.9920   -1.6830 C   0  0  2  0  0  0  0  0  0  0  0  0
    1.8520   13.3410   -1.2240 C   0  0  0  0  0  0  0  0  0  0  0  0
    1.5100   14.5090   -2.0890 C   0  0  0  0  0  0  0  0  0  0  0  0
    1.0090   14.4390   -3.3360 C   0  0  0  0  0  0  0  0  0  0  0  0
    0.8280   13.0870   -4.0380 C   0  0  1  0  0  0  0  0  0  0  0  0
    1.3800   13.1770   -5.4850 C   0  0  0  0  0  0  0  0  0  0  0  0
    0.7690   14.3300   -6.2740 C   0  0  0  0  0  0  0  0  0  0  0  0
    1.0200   15.6630   -5.5740 C   0  0  2  0  0  0  0  0  0  0  0  0
    2.4230   15.9430   -5.6050 O   0  0  0  0  0  0  0  0  0  0  0  0
    0.5140   15.6890   -4.1050 C   0  0  0  0  0  0  0  0  0  0  0  0
   -1.0340   15.6890   -4.0870 C   0  0  0  0  0  0  0  0  0  0  0  0
    0.9550   17.0370   -3.4720 C   0  0  0  0  0  0  0  0  0  0  0  0
    1.3770   11.8200   -3.2520 C   0  0  1  0  0  0  0  0  0  0  0  0
    2.8880   11.6070   -3.5740 C   0  0  0  0  0  0  0  0  0  0  0  0
    0.6290   10.5330   -3.7650 C   0  0  0  0  0  0  0  0  0  0  0  0
   -0.6950   10.1730   -3.0640 C   0  0  0  0  0  0  0  0  0  0  0  0
   -0.5300   10.1870   -1.5410 C   0  0  2  0  0  0  0  0  0  0  0  0
    0.5120    9.0800   -1.1630 C   0  0  0  0  0  0  0  0  0  0  0  0
   -2.1029    6.7498   -1.8146 H   0  0  0  0  0  0  0  0  0  0  0  0
   -3.1659    8.0144   -2.5199 H   0  0  0  0  0  0  0  0  0  0  0  0
   -1.3834    8.2369   -2.5199 H   0  0  0  0  0  0  0  0  0  0  0  0
   -1.6939    7.9514    0.1059 H   0  0  0  0  0  0  0  0  0  0  0  0
   -3.8737    7.6385    0.6219 H   0  0  0  0  0  0  0  0  0  0  0  0
   -3.8934    9.4638    0.5136 H   0  0  0  0  0  0  0  0  0  0  0  0
   -5.5047    9.3349   -0.9940 H   0  0  0  0  0  0  0  0  0  0  0  0
   -4.3504    8.4691   -2.0920 H   0  0  0  0  0  0  0  0  0  0  0  0
   -5.3453    7.0602    0.0339 H   0  0  0  0  0  0  0  0  0  0  0  0
   -8.0271    8.8980   -1.8854 H   0  0  0  0  0  0  0  0  0  0  0  0
   -6.8192    8.5632   -3.1720 H   0  0  0  0  0  0  0  0  0  0  0  0
   -8.3942    7.6995   -3.1720 H   0  0  0  0  0  0  0  0  0  0  0  0
   -7.9353    6.0313   -0.0604 H   0  0  0  0  0  0  0  0  0  0  0  0
   -8.9729    6.2322   -1.5129 H   0  0  0  0  0  0  0  0  0  0  0  0
   -7.6542    5.0125   -1.5129 H   0  0  0  0  0  0  0  0  0  0  0  0
   -2.6757   10.4211   -1.1932 H   0  0  0  0  0  0  0  0  0  0  0  0
   -2.2777   11.1366    1.0807 H   0  0  0  0  0  0  0  0  0  0  0  0
   -1.1941    9.7660    1.4038 H   0  0  0  0  0  0  0  0  0  0  0  0
   -0.3685   12.4599    0.9254 H   0  0  0  0  0  0  0  0  0  0  0  0
    0.7127   11.0704    0.8666 H   0  0  0  0  0  0  0  0  0  0  0  0
   -1.6017   13.1590   -0.5096 H   0  0  0  0  0  0  0  0  0  0  0  0
   -0.7170   13.5358   -2.0268 H   0  0  0  0  0  0  0  0  0  0  0  0
   -2.0088   12.2877   -2.0268 H   0  0  0  0  0  0  0  0  0  0  0  0
    1.9127   11.2211   -1.2329 H   0  0  0  0  0  0  0  0  0  0  0  0
    1.4763   13.5465   -0.2108 H   0  0  0  0  0  0  0  0  0  0  0  0
    2.9457   13.2342   -1.2742 H   0  0  0  0  0  0  0  0  0  0  0  0
    1.6822   15.5120   -1.6714 H   0  0  0  0  0  0  0  0  0  0  0  0
   -0.2556   12.8994   -4.0638 H   0  0  0  0  0  0  0  0  0  0  0  0
    2.4696   13.3202   -5.4383 H   0  0  0  0  0  0  0  0  0  0  0  0
    1.1159   12.2424   -6.0015 H   0  0  0  0  0  0  0  0  0  0  0  0
    1.2204   14.3592   -7.2767 H   0  0  0  0  0  0  0  0  0  0  0  0
   -0.3169   14.1700   -6.3458 H   0  0  0  0  0  0  0  0  0  0  0  0
    0.4494   16.4321   -6.1152 H   0  0  0  0  0  0  0  0  0  0  0  0
    2.7420   15.9490   -4.6870 H   0  0  0  0  0  0  0  0  0  0  0  0
   -1.4006   14.6519   -4.0827 H   0  0  0  0  0  0  0  0  0  0  0  0
   -1.3902   16.2075   -3.1847 H   0  0  0  0  0  0  0  0  0  0  0  0
   -1.4111   16.2075   -4.9808 H   0  0  0  0  0  0  0  0  0  0  0  0
    0.9277   16.9535   -2.3755 H   0  0  0  0  0  0  0  0  0  0  0  0
    1.9784   17.2768   -3.7961 H   0  0  0  0  0  0  0  0  0  0  0  0
    0.2712   17.8354   -3.7961 H   0  0  0  0  0  0  0  0  0  0  0  0
    3.4553   11.5270   -2.6350 H   0  0  0  0  0  0  0  0  0  0  0  0
    3.0119   10.6825   -4.1571 H   0  0  0  0  0  0  0  0  0  0  0  0
    3.2626   12.4612   -4.1571 H   0  0  0  0  0  0  0  0  0  0  0  0
    0.4110   10.6784   -4.8333 H   0  0  0  0  0  0  0  0  0  0  0  0
    1.3088    9.6973   -3.5427 H   0  0  0  0  0  0  0  0  0  0  0  0
   -1.4642   10.9057   -3.3494 H   0  0  0  0  0  0  0  0  0  0  0  0
   -0.9931    9.1610   -3.3754 H   0  0  0  0  0  0  0  0  0  0  0  0
    0.5844    9.0031   -0.0681 H   0  0  0  0  0  0  0  0  0  0  0  0
    0.1877    8.1142   -1.5777 H   0  0  0  0  0  0  0  0  0  0  0  0
    1.4956    9.3454   -1.5777 H   0  0  0  0  0  0  0  0  0  0  0  0
  1  2  1  0
  2  3  1  0
  3  4  1  0
  4  5  1  0
  5  6  1  0
  6  7  1  0
  7  8  1  0
  7  9  1  0
  2 10  1  0
 10 11  1  0
 11 12  1  0
 12 13  1  0
 13 14  1  6
 13 15  1  0
 15 16  1  0
 16 17  1  0
 17 18  2  0
 18 19  1  0
 19 20  1  0
 20 21  1  0
 21 22  1  0
 22 23  1  0
 22 24  1  0
 24 25  1  0
 24 26  1  0
 19 27  1  0
 27 28  1  1
 27 29  1  0
 29 30  1  0
 30 31  1  0
 31 32  1  6
  7  5  1  0
 31 10  1  0
 31 13  1  0
 27 15  1  0
 24 18  1  0
  1 33  1  0
  1 34  1  0
  1 35  1  0
  2 36  1  1
  3 37  1  0
  3 38  1  0
  4 39  1  0
  4 40  1  0
  5 41  1  1
  8 42  1  0
  8 43  1  0
  8 44  1  0
  9 45  1  0
  9 46  1  0
  9 47  1  0
 10 48  1  6
 11 49  1  0
 11 50  1  0
 12 51  1  0
 12 52  1  0
 14 53  1  0
 14 54  1  0
 14 55  1  0
 15 56  1  1
 16 57  1  0
 16 58  1  0
 17 59  1  0
 19 60  1  6
 20 61  1  0
 20 62  1  0
 21 63  1  0
 21 64  1  0
 22 65  1  6
 23 66  1  0
 25 67  1  0
 25 68  1  0
 25 69  1  0
 26 70  1  0
 26 71  1  0
 26 72  1  0
 28 73  1  0
 28 74  1  0
 28 75  1  0
 29 76  1  0
 29 77  1  0
 30 78  1  0
 30 79  1  0
 32 80  1  0
 32 81  1  0
 32 82  1  0
M  END
>  <meeko>  (18) 
{"is_sidechain": [false], "intermolecular_energy": 2.731, "internal_energy": -0.839}

$$$$
EPH_relaxed_0001_pdb2pqr_Repair_353_r2_0001_out
     RDKit          3D

 82 86  0  0  0  0  0  0  0  0999 V2000
   -2.2410   13.9190    0.7010 C   0  0  0  0  0  0  0  0  0  0  0  0
   -0.9390   14.7170    0.8160 C   0  0  2  0  0  0  0  0  0  0  0  0
   -0.9520   15.9810   -0.0660 C   0  0  0  0  0  0  0  0  0  0  0  0
    0.4450   16.4830   -0.4430 C   0  0  0  0  0  0  0  0  0  0  0  0
    0.5150   17.9800   -0.4400 C   0  0  2  0  0  0  0  0  0  0  0  0
    0.2580   18.5930   -1.7100 O   0  0  0  0  0  0  0  0  0  0  0  0
    1.5810   18.7690   -1.1770 C   0  0  0  0  0  0  0  0  0  0  0  0
    2.6510   18.0840   -1.9680 C   0  0  0  0  0  0  0  0  0  0  0  0
    1.8710   20.1690   -0.7330 C   0  0  0  0  0  0  0  0  0  0  0  0
    0.2460   13.8330    0.4440 C   0  0  1  0  0  0  0  0  0  0  0  0
    0.5660   12.7730    1.5310 C   0  0  0  0  0  0  0  0  0  0  0  0
    1.0550   11.5040    0.7880 C   0  0  0  0  0  0  0  0  0  0  0  0
    1.3160   11.9760   -0.6620 C   0  0  1  0  0  0  0  0  0  0  0  0
    2.7250   12.6460   -0.6170 C   0  0  0  0  0  0  0  0  0  0  0  0
    1.2340   10.8790   -1.7720 C   0  0  2  0  0  0  0  0  0  0  0  0
    2.2680    9.7460   -1.6480 C   0  0  0  0  0  0  0  0  0  0  0  0
    3.5560    9.9770   -2.3660 C   0  0  0  0  0  0  0  0  0  0  0  0
    3.7680   10.9120   -3.3110 C   0  0  0  0  0  0  0  0  0  0  0  0
    2.6200   11.7960   -3.8150 C   0  0  1  0  0  0  0  0  0  0  0  0
    2.6520   11.8510   -5.3650 C   0  0  0  0  0  0  0  0  0  0  0  0
    4.0090   12.2900   -5.9080 C   0  0  0  0  0  0  0  0  0  0  0  0
    5.1160   11.3530   -5.4310 C   0  0  2  0  0  0  0  0  0  0  0  0
    4.9180   10.0660   -6.0260 O   0  0  0  0  0  0  0  0  0  0  0  0
    5.1750   11.2110   -3.8850 C   0  0  0  0  0  0  0  0  0  0  0  0
    5.6840   12.5330   -3.2600 C   0  0  0  0  0  0  0  0  0  0  0  0
    6.2380   10.1320   -3.5450 C   0  0  0  0  0  0  0  0  0  0  0  0
    1.1770   11.4510   -3.2460 C   0  0  1  0  0  0  0  0  0  0  0  0
    0.5080   10.3510   -4.1250 C   0  0  0  0  0  0  0  0  0  0  0  0
    0.2620   12.7270   -3.3580 C   0  0  0  0  0  0  0  0  0  0  0  0
    0.2980   13.7140   -2.1760 C   0  0  0  0  0  0  0  0  0  0  0  0
    0.1200   12.9790   -0.8430 C   0  0  2  0  0  0  0  0  0  0  0  0
   -1.2990   12.3140   -0.8490 C   0  0  0  0  0  0  0  0  0  0  0  0
   -2.6191   13.6872    1.7076 H   0  0  0  0  0  0  0  0  0  0  0  0
   -2.9889   14.5140    0.1564 H   0  0  0  0  0  0  0  0  0  0  0  0
   -2.0502   12.9825    0.1564 H   0  0  0  0  0  0  0  0  0  0  0  0
   -0.8436   15.0464    1.8612 H   0  0  0  0  0  0  0  0  0  0  0  0
   -1.5006   15.7529   -0.9917 H   0  0  0  0  0  0  0  0  0  0  0  0
   -1.4323   16.7777    0.5210 H   0  0  0  0  0  0  0  0  0  0  0  0
    1.1727   16.0905    0.2825 H   0  0  0  0  0  0  0  0  0  0  0  0
    0.6733   16.1309   -1.4598 H   0  0  0  0  0  0  0  0  0  0  0  0
    0.1547   18.0187    0.5986 H   0  0  0  0  0  0  0  0  0  0  0  0
    3.3748   17.6206   -1.2814 H   0  0  0  0  0  0  0  0  0  0  0  0
    2.1981   17.3075   -2.6020 H   0  0  0  0  0  0  0  0  0  0  0  0
    3.1666   18.8204   -2.6020 H   0  0  0  0  0  0  0  0  0  0  0  0
    1.8796   20.2107    0.3662 H   0  0  0  0  0  0  0  0  0  0  0  0
    2.8527   20.4803   -1.1195 H   0  0  0  0  0  0  0  0  0  0  0  0
    1.0937   20.8447   -1.1195 H   0  0  0  0  0  0  0  0  0  0  0  0
    1.0168   14.6061    0.3092 H   0  0  0  0  0  0  0  0  0  0  0  0
    1.3532   13.1454    2.2031 H   0  0  0  0  0  0  0  0  0  0  0  0
   -0.3215   12.5548    2.1432 H   0  0  0  0  0  0  0  0  0  0  0  0
    1.9795   11.1195    1.2434 H   0  0  0  0  0  0  0  0  0  0  0  0
    0.3218   10.6853    0.8343 H   0  0  0  0  0  0  0  0  0  0  0  0
    3.0290   12.7906    0.4302 H   0  0  0  0  0  0  0  0  0  0  0  0
    3.4552   11.9987   -1.1248 H   0  0  0  0  0  0  0  0  0  0  0  0
    2.6838   13.6209   -1.1248 H   0  0  0  0  0  0  0  0  0  0  0  0
    0.2571   10.4145   -1.5722 H   0  0  0  0  0  0  0  0  0  0  0  0
    2.4941    9.6075   -0.5804 H   0  0  0  0  0  0  0  0  0  0  0  0
    1.8107    8.8637   -2.1196 H   0  0  0  0  0  0  0  0  0  0  0  0
    4.4038    9.3283   -2.1005 H   0  0  0  0  0  0  0  0  0  0  0  0
    2.8041   12.7986   -3.4016 H   0  0  0  0  0  0  0  0  0  0  0  0
    2.4223   10.8496   -5.7580 H   0  0  0  0  0  0  0  0  0  0  0  0
    1.9075   12.5937   -5.6878 H   0  0  0  0  0  0  0  0  0  0  0  0
    3.9774   12.2796   -7.0075 H   0  0  0  0  0  0  0  0  0  0  0  0
    4.2237   13.3039   -5.5392 H   0  0  0  0  0  0  0  0  0  0  0  0
    6.0760   11.7911   -5.7416 H   0  0  0  0  0  0  0  0  0  0  0  0
    4.7840   10.2000   -6.9790 H   0  0  0  0  0  0  0  0  0  0  0  0
    5.6541   12.4554   -2.1631 H   0  0  0  0  0  0  0  0  0  0  0  0
    6.7179   12.7187   -3.5864 H   0  0  0  0  0  0  0  0  0  0  0  0
    5.0416   13.3641   -3.5864 H   0  0  0  0  0  0  0  0  0  0  0  0
    6.3297   10.0390   -2.4528 H   0  0  0  0  0  0  0  0  0  0  0  0
    5.9290    9.1659   -3.9706 H   0  0  0  0  0  0  0  0  0  0  0  0
    7.2086   10.4266   -3.9706 H   0  0  0  0  0  0  0  0  0  0  0  0
    0.0468    9.5927   -3.4752 H   0  0  0  0  0  0  0  0  0  0  0  0
   -0.2648   10.8088   -4.7600 H   0  0  0  0  0  0  0  0  0  0  0  0
    1.2699    9.8754   -4.7600 H   0  0  0  0  0  0  0  0  0  0  0  0
    0.5674   13.2772   -4.2602 H   0  0  0  0  0  0  0  0  0  0  0  0
   -0.7680   12.3413   -3.3794 H   0  0  0  0  0  0  0  0  0  0  0  0
    1.2660   14.2364   -2.1726 H   0  0  0  0  0  0  0  0  0  0  0  0
   -0.5265   14.4326   -2.2935 H   0  0  0  0  0  0  0  0  0  0  0  0
   -1.6346   12.1567    0.1867 H   0  0  0  0  0  0  0  0  0  0  0  0
   -2.0103   12.9725   -1.3689 H   0  0  0  0  0  0  0  0  0  0  0  0
   -1.2481   11.3460   -1.3689 H   0  0  0  0  0  0  0  0  0  0  0  0
  1  2  1  0
  2  3  1  0
  3  4  1  0
  4  5  1  0
  5  6  1  0
  6  7  1  0
  7  8  1  0
  7  9  1  0
  2 10  1  0
 10 11  1  0
 11 12  1  0
 12 13  1  0
 13 14  1  1
 13 15  1  0
 15 16  1  0
 16 17  1  0
 17 18  2  0
 18 19  1  0
 19 20  1  0
 20 21  1  0
 21 22  1  0
 22 23  1  0
 22 24  1  0
 24 25  1  0
 24 26  1  0
 19 27  1  0
 27 28  1  6
 27 29  1  0
 29 30  1  0
 30 31  1  0
 31 32  1  6
  7  5  1  0
 31 10  1  0
 31 13  1  0
 27 15  1  0
 24 18  1  0
  1 33  1  0
  1 34  1  0
  1 35  1  0
  2 36  1  1
  3 37  1  0
  3 38  1  0
  4 39  1  0
  4 40  1  0
  5 41  1  1
  8 42  1  0
  8 43  1  0
  8 44  1  0
  9 45  1  0
  9 46  1  0
  9 47  1  0
 10 48  1  6
 11 49  1  0
 11 50  1  0
 12 51  1  0
 12 52  1  0
 14 53  1  0
 14 54  1  0
 14 55  1  0
 15 56  1  1
 16 57  1  0
 16 58  1  0
 17 59  1  0
 19 60  1  1
 20 61  1  0
 20 62  1  0
 21 63  1  0
 21 64  1  0
 22 65  1  6
 23 66  1  0
 25 67  1  0
 25 68  1  0
 25 69  1  0
 26 70  1  0
 26 71  1  0
 26 72  1  0
 28 73  1  0
 28 74  1  0
 28 75  1  0
 29 76  1  0
 29 77  1  0
 30 78  1  0
 30 79  1  0
 32 80  1  0
 32 81  1  0
 32 82  1  0
M  END
>  <meeko>  (19) 
{"is_sidechain": [false], "intermolecular_energy": 2.731, "internal_energy": -0.839}

$$$$
EPH_relaxed_0001_pdb2pqr_Repair_353_r2_0001_out
     RDKit          3D

 82 86  0  0  0  0  0  0  0  0999 V2000
    1.2340   10.7500   -4.7480 C   0  0  0  0  0  0  0  0  0  0  0  0
    0.5880   10.5650   -3.3720 C   0  0  2  0  0  0  0  0  0  0  0  0
   -0.5390    9.5120   -3.3960 C   0  0  0  0  0  0  0  0  0  0  0  0
   -0.3170    8.3510   -2.4230 C   0  0  0  0  0  0  0  0  0  0  0  0
    0.0880    8.8360   -1.0640 C   0  0  2  0  0  0  0  0  0  0  0  0
   -0.3080    7.9840    0.0180 O   0  0  0  0  0  0  0  0  0  0  0  0
   -0.9020    9.2920   -0.0090 C   0  0  0  0  0  0  0  0  0  0  0  0
   -2.3760    9.2850   -0.2670 C   0  0  0  0  0  0  0  0  0  0  0  0
   -0.4200   10.1960    1.0820 C   0  0  0  0  0  0  0  0  0  0  0  0
    0.0450   11.8970   -2.8700 C   0  0  1  0  0  0  0  0  0  0  0  0
   -1.2180   11.7320   -1.9830 C   0  0  0  0  0  0  0  0  0  0  0  0
   -1.1490   12.8340   -0.8950 C   0  0  0  0  0  0  0  0  0  0  0  0
   -0.0380   13.7940   -1.3830 C   0  0  1  0  0  0  0  0  0  0  0  0
   -0.7340   14.7070   -2.4410 C   0  0  0  0  0  0  0  0  0  0  0  0
    0.6810   14.6350   -0.2790 C   0  0  2  0  0  0  0  0  0  0  0  0
   -0.2250   15.6110    0.4930 C   0  0  0  0  0  0  0  0  0  0  0  0
   -0.3270   16.9820   -0.0890 C   0  0  0  0  0  0  0  0  0  0  0  0
    0.4970   17.5010   -1.0180 C   0  0  0  0  0  0  0  0  0  0  0  0
    1.7230   16.7200   -1.5080 C   0  0  1  0  0  0  0  0  0  0  0  0
    2.9600   17.6560   -1.5250 C   0  0  0  0  0  0  0  0  0  0  0  0
    2.7190   18.9290   -2.3310 C   0  0  0  0  0  0  0  0  0  0  0  0
    1.5290   19.7070   -1.7780 C   0  0  2  0  0  0  0  0  0  0  0  0
    1.8620   20.1940   -0.4740 O   0  0  0  0  0  0  0  0  0  0  0  0
    0.2260   18.8630   -1.7040 C   0  0  0  0  0  0  0  0  0  0  0  0
   -0.3000   18.5900   -3.1350 C   0  0  0  0  0  0  0  0  0  0  0  0
   -0.8590   19.7200   -0.9980 C   0  0  0  0  0  0  0  0  0  0  0  0
    2.0100   15.3430   -0.7670 C   0  0  1  0  0  0  0  0  0  0  0  0
    2.8740   15.5950    0.5070 C   0  0  0  0  0  0  0  0  0  0  0  0
    2.8680   14.4200   -1.7100 C   0  0  0  0  0  0  0  0  0  0  0  0
    2.0940   13.5240   -2.6970 C   0  0  0  0  0  0  0  0  0  0  0  0
    0.9800   12.7560   -1.9810 C   0  0  2  0  0  0  0  0  0  0  0  0
    1.6500   11.8130   -0.9250 C   0  0  0  0  0  0  0  0  0  0  0  0
    2.2846   11.0509   -4.6224 H   0  0  0  0  0  0  0  0  0  0  0  0
    1.1880    9.8026   -5.3050 H   0  0  0  0  0  0  0  0  0  0  0  0
    0.6935   11.5295   -5.3050 H   0  0  0  0  0  0  0  0  0  0  0  0
    1.3671   10.1990   -2.6872 H   0  0  0  0  0  0  0  0  0  0  0  0
   -1.4845   10.0092   -3.1336 H   0  0  0  0  0  0  0  0  0  0  0  0
   -0.5573    9.0836   -4.4090 H   0  0  0  0  0  0  0  0  0  0  0  0
   -1.2515    7.7777   -2.3330 H   0  0  0  0  0  0  0  0  0  0  0  0
    0.4946    7.7226   -2.8186 H   0  0  0  0  0  0  0  0  0  0  0  0
    0.9950    9.3031   -1.4753 H   0  0  0  0  0  0  0  0  0  0  0  0
   -2.9160    9.2824    0.6913 H   0  0  0  0  0  0  0  0  0  0  0  0
   -2.6520   10.1818   -0.8410 H   0  0  0  0  0  0  0  0  0  0  0  0
   -2.6435    8.3856   -0.8410 H   0  0  0  0  0  0  0  0  0  0  0  0
   -0.6576    9.7504    2.0592 H   0  0  0  0  0  0  0  0  0  0  0  0
    0.6685   10.3285    0.9943 H   0  0  0  0  0  0  0  0  0  0  0  0
   -0.9166   11.1736    0.9943 H   0  0  0  0  0  0  0  0  0  0  0  0
   -0.1273   12.4004   -3.8328 H   0  0  0  0  0  0  0  0  0  0  0  0
   -2.1264   11.8564   -2.5908 H   0  0  0  0  0  0  0  0  0  0  0  0
   -1.2529   10.7308   -1.5287 H   0  0  0  0  0  0  0  0  0  0  0  0
   -2.1108   13.3617   -0.8150 H   0  0  0  0  0  0  0  0  0  0  0  0
   -0.9368   12.4228    0.1029 H   0  0  0  0  0  0  0  0  0  0  0  0
   -1.3235   15.4804   -1.9269 H   0  0  0  0  0  0  0  0  0  0  0  0
    0.0298   15.1865   -3.0708 H   0  0  0  0  0  0  0  0  0  0  0  0
   -1.3987   14.0975   -3.0708 H   0  0  0  0  0  0  0  0  0  0  0  0
    0.9773   13.8648    0.4484 H   0  0  0  0  0  0  0  0  0  0  0  0
   -1.2366   15.1804    0.5280 H   0  0  0  0  0  0  0  0  0  0  0  0
    0.2356   15.7346    1.4843 H   0  0  0  0  0  0  0  0  0  0  0  0
   -1.1452   17.6224    0.2722 H   0  0  0  0  0  0  0  0  0  0  0  0
    1.4868   16.3944   -2.5318 H   0  0  0  0  0  0  0  0  0  0  0  0
    3.2053   17.9352   -0.4897 H   0  0  0  0  0  0  0  0  0  0  0  0
    3.7861   17.1092   -2.0032 H   0  0  0  0  0  0  0  0  0  0  0  0
    3.6173   19.5619   -2.2816 H   0  0  0  0  0  0  0  0  0  0  0  0
    2.5024   18.6495   -3.3726 H   0  0  0  0  0  0  0  0  0  0  0  0
    1.3261   20.5363   -2.4717 H   0  0  0  0  0  0  0  0  0  0  0  0
    2.7600   19.8860   -0.2660 H   0  0  0  0  0  0  0  0  0  0  0  0
   -1.2750   18.0840   -3.0769 H   0  0  0  0  0  0  0  0  0  0  0  0
   -0.4130   19.5432   -3.6722 H   0  0  0  0  0  0  0  0  0  0  0  0
    0.4144   17.9489   -3.6722 H   0  0  0  0  0  0  0  0  0  0  0  0
   -0.7452   19.6301    0.0924 H   0  0  0  0  0  0  0  0  0  0  0  0
   -0.7436   20.7734   -1.2931 H   0  0  0  0  0  0  0  0  0  0  0  0
   -1.8570   19.3638   -1.2931 H   0  0  0  0  0  0  0  0  0  0  0  0
    2.2639   15.4171    1.4049 H   0  0  0  0  0  0  0  0  0  0  0  0
    3.7352   14.9106    0.5073 H   0  0  0  0  0  0  0  0  0  0  0  0
    3.2322   16.6350    0.5073 H   0  0  0  0  0  0  0  0  0  0  0  0
    3.5300   15.0708   -2.3001 H   0  0  0  0  0  0  0  0  0  0  0  0
    3.3879   13.7235   -1.0358 H   0  0  0  0  0  0  0  0  0  0  0  0
    1.6500   14.1534   -3.4823 H   0  0  0  0  0  0  0  0  0  0  0  0
    2.7946   12.7983   -3.1358 H   0  0  0  0  0  0  0  0  0  0  0  0
    1.4019   12.1622    0.0881 H   0  0  0  0  0  0  0  0  0  0  0  0
    1.2772   10.7871   -1.0608 H   0  0  0  0  0  0  0  0  0  0  0  0
    2.7415   11.8274   -1.0608 H   0  0  0  0  0  0  0  0  0  0  0  0
  1  2  1  0
  2  3  1  0
  3  4  1  0
  4  5  1  0
  5  6  1  0
  6  7  1  0
  7  8  1  0
  7  9  1  0
  2 10  1  0
 10 11  1  0
 11 12  1  0
 12 13  1  0
 13 14  1  6
 13 15  1  0
 15 16  1  0
 16 17  1  0
 17 18  2  0
 18 19  1  0
 19 20  1  0
 20 21  1  0
 21 22  1  0
 22 23  1  0
 22 24  1  0
 24 25  1  0
 24 26  1  0
 19 27  1  0
 27 28  1  1
 27 29  1  0
 29 30  1  0
 30 31  1  0
 31 32  1  1
  7  5  1  0
 31 10  1  0
 31 13  1  0
 27 15  1  0
 24 18  1  0
  1 33  1  0
  1 34  1  0
  1 35  1  0
  2 36  1  1
  3 37  1  0
  3 38  1  0
  4 39  1  0
  4 40  1  0
  5 41  1  6
  8 42  1  0
  8 43  1  0
  8 44  1  0
  9 45  1  0
  9 46  1  0
  9 47  1  0
 10 48  1  6
 11 49  1  0
 11 50  1  0
 12 51  1  0
 12 52  1  0
 14 53  1  0
 14 54  1  0
 14 55  1  0
 15 56  1  1
 16 57  1  0
 16 58  1  0
 17 59  1  0
 19 60  1  6
 20 61  1  0
 20 62  1  0
 21 63  1  0
 21 64  1  0
 22 65  1  6
 23 66  1  0
 25 67  1  0
 25 68  1  0
 25 69  1  0
 26 70  1  0
 26 71  1  0
 26 72  1  0
 28 73  1  0
 28 74  1  0
 28 75  1  0
 29 76  1  0
 29 77  1  0
 30 78  1  0
 30 79  1  0
 32 80  1  0
 32 81  1  0
 32 82  1  0
M  END
>  <meeko>  (20) 
{"is_sidechain": [false], "intermolecular_energy": 2.731, "internal_energy": -0.839}

$$$$
