EPH_relaxed_0001_pdb2pqr_Repair_40_r2_0001_out
     RDKit          3D

 82 86  0  0  0  0  0  0  0  0999 V2000
   -1.7040    8.5800   -1.8510 C   0  0  0  0  0  0  0  0  0  0  0  0
   -2.0950    9.1140   -0.4700 C   0  0  2  0  0  0  0  0  0  0  0  0
   -3.5890    9.4880   -0.3940 C   0  0  0  0  0  0  0  0  0  0  0  0
   -4.5170    8.2830   -0.2130 C   0  0  0  0  0  0  0  0  0  0  0  0
   -5.1940    7.9070   -1.4960 C   0  0  2  0  0  0  0  0  0  0  0  0
   -6.3450    8.6970   -1.8200 O   0  0  0  0  0  0  0  0  0  0  0  0
   -6.5840    7.3040   -1.5630 C   0  0  0  0  0  0  0  0  0  0  0  0
   -7.3810    7.0420   -0.3240 C   0  0  0  0  0  0  0  0  0  0  0  0
   -6.9680    6.5240   -2.7820 C   0  0  0  0  0  0  0  0  0  0  0  0
   -1.2370   10.3240   -0.1190 C   0  0  1  0  0  0  0  0  0  0  0  0
   -0.2100   10.0220    1.0050 C   0  0  0  0  0  0  0  0  0  0  0  0
    1.0610   10.8480    0.6840 C   0  0  0  0  0  0  0  0  0  0  0  0
    0.6130   11.8420   -0.4140 C   0  0  1  0  0  0  0  0  0  0  0  0
   -0.0960   12.9990    0.3580 C   0  0  0  0  0  0  0  0  0  0  0  0
    1.7370   12.3820   -1.3580 C   0  0  2  0  0  0  0  0  0  0  0  0
    2.8370   13.2000   -0.6600 C   0  0  0  0  0  0  0  0  0  0  0  0
    2.5860   14.6700   -0.5820 C   0  0  0  0  0  0  0  0  0  0  0  0
    1.6670   15.3450   -1.2950 C   0  0  0  0  0  0  0  0  0  0  0  0
    0.8260   14.6390   -2.3660 C   0  0  1  0  0  0  0  0  0  0  0  0
    0.8040   15.4980   -3.6580 C   0  0  0  0  0  0  0  0  0  0  0  0
    0.3400   16.9280   -3.4010 C   0  0  0  0  0  0  0  0  0  0  0  0
    1.2350   17.6160   -2.3740 C   0  0  2  0  0  0  0  0  0  0  0  0
    2.5390   17.7840   -2.9390 O   0  0  0  0  0  0  0  0  0  0  0  0
    1.3420   16.8370   -1.0340 C   0  0  0  0  0  0  0  0  0  0  0  0
   -0.0070   16.9150   -0.2780 C   0  0  0  0  0  0  0  0  0  0  0  0
    2.3830   17.5630   -0.1410 C   0  0  0  0  0  0  0  0  0  0  0  0
    1.1990   13.1200   -2.6500 C   0  0  1  0  0  0  0  0  0  0  0  0
    2.3360   13.0410   -3.7140 C   0  0  0  0  0  0  0  0  0  0  0  0
   -0.0490   12.3930   -3.2780 C   0  0  0  0  0  0  0  0  0  0  0  0
   -1.0620   11.7760   -2.2950 C   0  0  0  0  0  0  0  0  0  0  0  0
   -0.3520   10.9190   -1.2430 C   0  0  2  0  0  0  0  0  0  0  0  0
    0.3520    9.7340   -1.9870 C   0  0  0  0  0  0  0  0  0  0  0  0
   -1.0579    7.6976   -1.7334 H   0  0  0  0  0  0  0  0  0  0  0  0
   -2.6113    8.2988   -2.4058 H   0  0  0  0  0  0  0  0  0  0  0  0
   -1.1620    9.3600   -2.4058 H   0  0  0  0  0  0  0  0  0  0  0  0
   -1.9186    8.3089    0.2585 H   0  0  0  0  0  0  0  0  0  0  0  0
   -3.7337   10.1688    0.4578 H   0  0  0  0  0  0  0  0  0  0  0  0
   -3.8526    9.9553   -1.3543 H   0  0  0  0  0  0  0  0  0  0  0  0
   -3.9244    7.4268    0.1416 H   0  0  0  0  0  0  0  0  0  0  0  0
   -5.2933    8.5547    0.5174 H   0  0  0  0  0  0  0  0  0  0  0  0
   -4.2349    7.6010   -1.9392 H   0  0  0  0  0  0  0  0  0  0  0  0
   -6.7605    7.2460    0.5611 H   0  0  0  0  0  0  0  0  0  0  0  0
   -8.2647    7.6969   -0.3111 H   0  0  0  0  0  0  0  0  0  0  0  0
   -7.7037    5.9905   -0.3111 H   0  0  0  0  0  0  0  0  0  0  0  0
   -7.4350    5.5755   -2.4783 H   0  0  0  0  0  0  0  0  0  0  0  0
   -7.6814    7.1084   -3.3816 H   0  0  0  0  0  0  0  0  0  0  0  0
   -6.0698    6.3151   -3.3816 H   0  0  0  0  0  0  0  0  0  0  0  0
   -2.0281   11.0377    0.1545 H   0  0  0  0  0  0  0  0  0  0  0  0
   -0.6188   10.3203    1.9816 H   0  0  0  0  0  0  0  0  0  0  0  0
    0.0192    8.9472    1.0518 H   0  0  0  0  0  0  0  0  0  0  0  0
    1.4097   11.3871    1.5772 H   0  0  0  0  0  0  0  0  0  0  0  0
    1.8988   10.2146    0.3569 H   0  0  0  0  0  0  0  0  0  0  0  0
    0.0054   12.8335    1.4407 H   0  0  0  0  0  0  0  0  0  0  0  0
    0.3693   13.9586    0.0886 H   0  0  0  0  0  0  0  0  0  0  0  0
   -1.1623   13.0201    0.0886 H   0  0  0  0  0  0  0  0  0  0  0  0
    2.2240   11.4566   -1.6992 H   0  0  0  0  0  0  0  0  0  0  0  0
    2.9449   12.8186    0.3661 H   0  0  0  0  0  0  0  0  0  0  0  0
    3.7424   13.0778   -1.2727 H   0  0  0  0  0  0  0  0  0  0  0  0
    3.2054   15.2499    0.1181 H   0  0  0  0  0  0  0  0  0  0  0  0
   -0.1902   14.5619   -1.9521 H   0  0  0  0  0  0  0  0  0  0  0  0
    1.8196   15.5271   -4.0796 H   0  0  0  0  0  0  0  0  0  0  0  0
    0.0898   15.0351   -4.3549 H   0  0  0  0  0  0  0  0  0  0  0  0
    0.3747   17.4927   -4.3444 H   0  0  0  0  0  0  0  0  0  0  0  0
   -0.6869   16.8984   -3.0078 H   0  0  0  0  0  0  0  0  0  0  0  0
    0.7770   18.5872   -2.1352 H   0  0  0  0  0  0  0  0  0  0  0  0
    2.8140   18.7020   -2.7770 H   0  0  0  0  0  0  0  0  0  0  0  0
    0.1791   16.9042    0.8061 H   0  0  0  0  0  0  0  0  0  0  0  0
   -0.5274   17.8447   -0.5515 H   0  0  0  0  0  0  0  0  0  0  0  0
   -0.6311   16.0514   -0.5515 H   0  0  0  0  0  0  0  0  0  0  0  0
    2.1395   17.3932    0.9182 H   0  0  0  0  0  0  0  0  0  0  0  0
    3.3875   17.1685   -0.3541 H   0  0  0  0  0  0  0  0  0  0  0  0
    2.3600   18.6419   -0.3541 H   0  0  0  0  0  0  0  0  0  0  0  0
    3.3094   12.9734   -3.2061 H   0  0  0  0  0  0  0  0  0  0  0  0
    2.1881   12.1510   -4.3433 H   0  0  0  0  0  0  0  0  0  0  0  0
    2.3126   13.9429   -4.3433 H   0  0  0  0  0  0  0  0  0  0  0  0
   -0.5880   13.1289   -3.8928 H   0  0  0  0  0  0  0  0  0  0  0  0
    0.3657   11.5406   -3.8361 H   0  0  0  0  0  0  0  0  0  0  0  0
   -1.6114   12.5841   -1.7899 H   0  0  0  0  0  0  0  0  0  0  0  0
   -1.7543   11.1352   -2.8607 H   0  0  0  0  0  0  0  0  0  0  0  0
    0.7684    9.0331   -1.2485 H   0  0  0  0  0  0  0  0  0  0  0  0
   -0.3812    9.2096   -2.6175 H   0  0  0  0  0  0  0  0  0  0  0  0
    1.1632   10.1271   -2.6175 H   0  0  0  0  0  0  0  0  0  0  0  0
  1  2  1  0
  2  3  1  0
  3  4  1  0
  4  5  1  0
  5  6  1  0
  6  7  1  0
  7  8  1  0
  7  9  1  0
  2 10  1  0
 10 11  1  0
 11 12  1  0
 12 13  1  0
 13 14  1  1
 13 15  1  0
 15 16  1  0
 16 17  1  0
 17 18  2  0
 18 19  1  0
 19 20  1  0
 20 21  1  0
 21 22  1  0
 22 23  1  0
 22 24  1  0
 24 25  1  0
 24 26  1  0
 19 27  1  0
 27 28  1  6
 27 29  1  0
 29 30  1  0
 30 31  1  0
 31 32  1  6
  7  5  1  0
 31 10  1  0
 31 13  1  0
 27 15  1  0
 24 18  1  0
  1 33  1  0
  1 34  1  0
  1 35  1  0
  2 36  1  1
  3 37  1  0
  3 38  1  0
  4 39  1  0
  4 40  1  0
  5 41  1  6
  8 42  1  0
  8 43  1  0
  8 44  1  0
  9 45  1  0
  9 46  1  0
  9 47  1  0
 10 48  1  1
 11 49  1  0
 11 50  1  0
 12 51  1  0
 12 52  1  0
 14 53  1  0
 14 54  1  0
 14 55  1  0
 15 56  1  6
 16 57  1  0
 16 58  1  0
 17 59  1  0
 19 60  1  1
 20 61  1  0
 20 62  1  0
 21 63  1  0
 21 64  1  0
 22 65  1  1
 23 66  1  0
 25 67  1  0
 25 68  1  0
 25 69  1  0
 26 70  1  0
 26 71  1  0
 26 72  1  0
 28 73  1  0
 28 74  1  0
 28 75  1  0
 29 76  1  0
 29 77  1  0
 30 78  1  0
 30 79  1  0
 32 80  1  0
 32 81  1  0
 32 82  1  0
M  END
>  <meeko>  (1) 
{"is_sidechain": [false], "intermolecular_energy": 2.731, "internal_energy": -0.839}

$$$$
EPH_relaxed_0001_pdb2pqr_Repair_40_r2_0001_out
     RDKit          3D

 82 86  0  0  0  0  0  0  0  0999 V2000
    4.2390   17.5550   -0.6340 C   0  0  0  0  0  0  0  0  0  0  0  0
    2.8750   18.1350   -0.2500 C   0  0  2  0  0  0  0  0  0  0  0  0
    2.9150   18.8590    1.1100 C   0  0  0  0  0  0  0  0  0  0  0  0
    4.2110   18.6300    1.8930 C   0  0  0  0  0  0  0  0  0  0  0  0
    4.1270   19.1900    3.2800 C   0  0  2  0  0  0  0  0  0  0  0  0
    5.1040   20.1940    3.5810 O   0  0  0  0  0  0  0  0  0  0  0  0
    5.1970   18.9750    4.3350 C   0  0  0  0  0  0  0  0  0  0  0  0
    6.4270   18.1730    4.0470 C   0  0  0  0  0  0  0  0  0  0  0  0
    4.8220   19.1280    5.7760 C   0  0  0  0  0  0  0  0  0  0  0  0
    1.8290   17.0270   -0.2200 C   0  0  1  0  0  0  0  0  0  0  0  0
    0.3970   17.5490   -0.5110 C   0  0  0  0  0  0  0  0  0  0  0  0
   -0.3340   16.4340   -1.3000 C   0  0  0  0  0  0  0  0  0  0  0  0
    0.5740   15.1910   -1.1510 C   0  0  1  0  0  0  0  0  0  0  0  0
    0.2220   14.6030    0.2510 C   0  0  0  0  0  0  0  0  0  0  0  0
    0.4570   14.1110   -2.2760 C   0  0  2  0  0  0  0  0  0  0  0  0
   -0.9250   13.4450   -2.4000 C   0  0  0  0  0  0  0  0  0  0  0  0
   -1.1130   12.2090   -1.5830 C   0  0  0  0  0  0  0  0  0  0  0  0
   -0.1280   11.4970   -1.0050 C   0  0  0  0  0  0  0  0  0  0  0  0
    1.3450   11.8620   -1.2290 C   0  0  1  0  0  0  0  0  0  0  0  0
    2.1530   10.5790   -1.5550 C   0  0  0  0  0  0  0  0  0  0  0  0
    1.9760    9.4920   -0.4990 C   0  0  0  0  0  0  0  0  0  0  0  0
    0.5050    9.1140   -0.3470 C   0  0  2  0  0  0  0  0  0  0  0  0
    0.0630    8.4850   -1.5540 O   0  0  0  0  0  0  0  0  0  0  0  0
   -0.4100   10.3300   -0.0270 C   0  0  0  0  0  0  0  0  0  0  0  0
   -0.1310   10.8250    1.4140 C   0  0  0  0  0  0  0  0  0  0  0  0
   -1.8820    9.8360   -0.0390 C   0  0  0  0  0  0  0  0  0  0  0  0
    1.6180   13.0360   -2.2650 C   0  0  1  0  0  0  0  0  0  0  0  0
    1.7040   12.4590   -3.7110 C   0  0  0  0  0  0  0  0  0  0  0  0
    3.0230   13.6760   -1.9580 C   0  0  0  0  0  0  0  0  0  0  0  0
    3.0560   14.8190   -0.9260 C   0  0  0  0  0  0  0  0  0  0  0  0
    1.9880   15.8710   -1.2400 C   0  0  2  0  0  0  0  0  0  0  0  0
    2.3280   16.4960   -2.6360 C   0  0  0  0  0  0  0  0  0  0  0  0
    4.8050   17.3143    0.2780 H   0  0  0  0  0  0  0  0  0  0  0  0
    4.0945   16.6405   -1.2279 H   0  0  0  0  0  0  0  0  0  0  0  0
    4.7974   18.2935   -1.2279 H   0  0  0  0  0  0  0  0  0  0  0  0
    2.6050   18.8801   -1.0129 H   0  0  0  0  0  0  0  0  0  0  0  0
    2.8034   19.9387    0.9317 H   0  0  0  0  0  0  0  0  0  0  0  0
    2.0960   18.4463    1.7174 H   0  0  0  0  0  0  0  0  0  0  0  0
    4.4029   17.5487    1.9562 H   0  0  0  0  0  0  0  0  0  0  0  0
    5.0265   19.1450    1.3642 H   0  0  0  0  0  0  0  0  0  0  0  0
    3.0361   19.0499    3.2957 H   0  0  0  0  0  0  0  0  0  0  0  0
    6.8956   17.8675    4.9941 H   0  0  0  0  0  0  0  0  0  0  0  0
    6.1542   17.2786    3.4676 H   0  0  0  0  0  0  0  0  0  0  0  0
    7.1354   18.7833    3.4676 H   0  0  0  0  0  0  0  0  0  0  0  0
    5.6546   18.7883    6.4096 H   0  0  0  0  0  0  0  0  0  0  0  0
    4.6072   20.1857    5.9887 H   0  0  0  0  0  0  0  0  0  0  0  0
    3.9286   18.5225    5.9887 H   0  0  0  0  0  0  0  0  0  0  0  0
    1.9872   16.6520    0.8019 H   0  0  0  0  0  0  0  0  0  0  0  0
   -0.1305   17.7535    0.4323 H   0  0  0  0  0  0  0  0  0  0  0  0
    0.4277   18.4853   -1.0875 H   0  0  0  0  0  0  0  0  0  0  0  0
   -1.3283   16.2423   -0.8703 H   0  0  0  0  0  0  0  0  0  0  0  0
   -0.4979   16.7070   -2.3529 H   0  0  0  0  0  0  0  0  0  0  0  0
    0.6179   15.2643    1.0359 H   0  0  0  0  0  0  0  0  0  0  0  0
   -0.8706   14.5264    0.3527 H   0  0  0  0  0  0  0  0  0  0  0  0
    0.6706   13.6038    0.3527 H   0  0  0  0  0  0  0  0  0  0  0  0
    0.5836   14.7083   -3.1910 H   0  0  0  0  0  0  0  0  0  0  0  0
   -1.6844   14.1772   -2.0883 H   0  0  0  0  0  0  0  0  0  0  0  0
   -1.0192   13.1327   -3.4505 H   0  0  0  0  0  0  0  0  0  0  0  0
   -2.1433   11.8504   -1.4418 H   0  0  0  0  0  0  0  0  0  0  0  0
    1.6990   12.2942   -0.2814 H   0  0  0  0  0  0  0  0  0  0  0  0
    1.8149   10.1864   -2.5253 H   0  0  0  0  0  0  0  0  0  0  0  0
    3.2183   10.8521   -1.5778 H   0  0  0  0  0  0  0  0  0  0  0  0
    2.5474    8.6014   -0.7997 H   0  0  0  0  0  0  0  0  0  0  0  0
    2.3414    9.8759    0.4649 H   0  0  0  0  0  0  0  0  0  0  0  0
    0.4278    8.4284    0.5097 H   0  0  0  0  0  0  0  0  0  0  0  0
    0.5680    7.6600   -1.6580 H   0  0  0  0  0  0  0  0  0  0  0  0
   -0.5387   10.1017    2.1355 H   0  0  0  0  0  0  0  0  0  0  0  0
    0.9543   10.9214    1.5649 H   0  0  0  0  0  0  0  0  0  0  0  0
   -0.6105   11.8034    1.5649 H   0  0  0  0  0  0  0  0  0  0  0  0
   -2.2372    9.7168    0.9952 H   0  0  0  0  0  0  0  0  0  0  0  0
   -2.5116   10.5721   -0.5604 H   0  0  0  0  0  0  0  0  0  0  0  0
   -1.9401    8.8691   -0.5604 H   0  0  0  0  0  0  0  0  0  0  0  0
    1.8660   11.3721   -3.6630 H   0  0  0  0  0  0  0  0  0  0  0  0
    0.7650   12.6665   -4.2450 H   0  0  0  0  0  0  0  0  0  0  0  0
    2.5417   12.9313   -4.2450 H   0  0  0  0  0  0  0  0  0  0  0  0
    3.6797   12.8748   -1.5881 H   0  0  0  0  0  0  0  0  0  0  0  0
    3.3430   14.1347   -2.9052 H   0  0  0  0  0  0  0  0  0  0  0  0
    2.8698   14.4049    0.0759 H   0  0  0  0  0  0  0  0  0  0  0  0
    4.0446   15.2996   -0.9659 H   0  0  0  0  0  0  0  0  0  0  0  0
    2.8491   17.4539   -2.4917 H   0  0  0  0  0  0  0  0  0  0  0  0
    2.9757   15.8072   -3.1982 H   0  0  0  0  0  0  0  0  0  0  0  0
    1.3978   16.6656   -3.1982 H   0  0  0  0  0  0  0  0  0  0  0  0
  1  2  1  0
  2  3  1  0
  3  4  1  0
  4  5  1  0
  5  6  1  0
  6  7  1  0
  7  8  1  0
  7  9  1  0
  2 10  1  0
 10 11  1  0
 11 12  1  0
 12 13  1  0
 13 14  1  1
 13 15  1  0
 15 16  1  0
 16 17  1  0
 17 18  2  0
 18 19  1  0
 19 20  1  0
 20 21  1  0
 21 22  1  0
 22 23  1  0
 22 24  1  0
 24 25  1  0
 24 26  1  0
 19 27  1  0
 27 28  1  6
 27 29  1  0
 29 30  1  0
 30 31  1  0
 31 32  1  6
  7  5  1  0
 31 10  1  0
 31 13  1  0
 27 15  1  0
 24 18  1  0
  1 33  1  0
  1 34  1  0
  1 35  1  0
  2 36  1  6
  3 37  1  0
  3 38  1  0
  4 39  1  0
  4 40  1  0
  5 41  1  1
  8 42  1  0
  8 43  1  0
  8 44  1  0
  9 45  1  0
  9 46  1  0
  9 47  1  0
 10 48  1  1
 11 49  1  0
 11 50  1  0
 12 51  1  0
 12 52  1  0
 14 53  1  0
 14 54  1  0
 14 55  1  0
 15 56  1  6
 16 57  1  0
 16 58  1  0
 17 59  1  0
 19 60  1  1
 20 61  1  0
 20 62  1  0
 21 63  1  0
 21 64  1  0
 22 65  1  1
 23 66  1  0
 25 67  1  0
 25 68  1  0
 25 69  1  0
 26 70  1  0
 26 71  1  0
 26 72  1  0
 28 73  1  0
 28 74  1  0
 28 75  1  0
 29 76  1  0
 29 77  1  0
 30 78  1  0
 30 79  1  0
 32 80  1  0
 32 81  1  0
 32 82  1  0
M  END
>  <meeko>  (2) 
{"is_sidechain": [false], "intermolecular_energy": 2.731, "internal_energy": -0.839}

$$$$
EPH_relaxed_0001_pdb2pqr_Repair_40_r2_0001_out
     RDKit          3D

 82 86  0  0  0  0  0  0  0  0999 V2000
    2.4640   17.9690   -2.6160 C   0  0  0  0  0  0  0  0  0  0  0  0
    1.1070   17.6350   -1.9900 C   0  0  2  0  0  0  0  0  0  0  0  0
    1.1380   17.7340   -0.4510 C   0  0  0  0  0  0  0  0  0  0  0  0
    0.8230   19.1340    0.0820 C   0  0  0  0  0  0  0  0  0  0  0  0
   -0.5960   19.2420    0.5520 C   0  0  2  0  0  0  0  0  0  0  0  0
   -1.4890   18.2710   -0.0090 O   0  0  0  0  0  0  0  0  0  0  0  0
   -1.7490   19.6420   -0.3500 C   0  0  0  0  0  0  0  0  0  0  0  0
   -1.5330   19.9620   -1.7960 C   0  0  0  0  0  0  0  0  0  0  0  0
   -2.9900   20.1940    0.2780 C   0  0  0  0  0  0  0  0  0  0  0  0
    0.6690   16.2380   -2.4140 C   0  0  1  0  0  0  0  0  0  0  0  0
    0.8040   16.0080   -3.9420 C   0  0  0  0  0  0  0  0  0  0  0  0
    1.2090   14.5240   -4.1370 C   0  0  0  0  0  0  0  0  0  0  0  0
    0.9710   13.8700   -2.7550 C   0  0  1  0  0  0  0  0  0  0  0  0
   -0.5620   13.5770   -2.7090 C   0  0  0  0  0  0  0  0  0  0  0  0
    1.8130   12.5910   -2.4420 C   0  0  2  0  0  0  0  0  0  0  0  0
    1.5540   11.3950   -3.3740 C   0  0  0  0  0  0  0  0  0  0  0  0
    0.4820   10.4570   -2.9270 C   0  0  0  0  0  0  0  0  0  0  0  0
   -0.0480   10.4080   -1.6900 C   0  0  0  0  0  0  0  0  0  0  0  0
    0.5000   11.2910   -0.5630 C   0  0  1  0  0  0  0  0  0  0  0  0
    0.6940   10.4370    0.7170 C   0  0  0  0  0  0  0  0  0  0  0  0
   -0.5760    9.6940    1.1230 C   0  0  0  0  0  0  0  0  0  0  0  0
   -1.0570    8.7820   -0.0030 C   0  0  2  0  0  0  0  0  0  0  0  0
   -0.1010    7.7340   -0.1880 O   0  0  0  0  0  0  0  0  0  0  0  0
   -1.2780    9.5320   -1.3460 C   0  0  0  0  0  0  0  0  0  0  0  0
   -2.5150   10.4550   -1.2300 C   0  0  0  0  0  0  0  0  0  0  0  0
   -1.6250    8.4760   -2.4300 C   0  0  0  0  0  0  0  0  0  0  0  0
    1.7860   12.1540   -0.9210 C   0  0  1  0  0  0  0  0  0  0  0  0
    3.0760   11.3130   -0.6770 C   0  0  0  0  0  0  0  0  0  0  0  0
    1.8680   13.3860    0.0570 C   0  0  0  0  0  0  0  0  0  0  0  0
    1.1130   14.6600   -0.3670 C   0  0  0  0  0  0  0  0  0  0  0  0
    1.4430   15.0370   -1.8140 C   0  0  2  0  0  0  0  0  0  0  0  0
    2.9750   15.3590   -1.8870 C   0  0  0  0  0  0  0  0  0  0  0  0
    3.2006   18.1503   -1.8194 H   0  0  0  0  0  0  0  0  0  0  0  0
    2.7977   17.1262   -3.2391 H   0  0  0  0  0  0  0  0  0  0  0  0
    2.3684   18.8704   -3.2391 H   0  0  0  0  0  0  0  0  0  0  0  0
    0.3820   18.3779   -2.3540 H   0  0  0  0  0  0  0  0  0  0  0  0
    0.3960   17.0319   -0.0428 H   0  0  0  0  0  0  0  0  0  0  0  0
    2.1632   17.4924   -0.1339 H   0  0  0  0  0  0  0  0  0  0  0  0
    1.4953   19.3543    0.9243 H   0  0  0  0  0  0  0  0  0  0  0  0
    0.9685   19.8535   -0.7372 H   0  0  0  0  0  0  0  0  0  0  0  0
   -0.2662   19.6095    1.5349 H   0  0  0  0  0  0  0  0  0  0  0  0
   -0.9195   20.8709   -1.8827 H   0  0  0  0  0  0  0  0  0  0  0  0
   -1.0159   19.1227   -2.2840 H   0  0  0  0  0  0  0  0  0  0  0  0
   -2.5048   20.1276   -2.2840 H   0  0  0  0  0  0  0  0  0  0  0  0
   -2.8964   20.1524    1.3732 H   0  0  0  0  0  0  0  0  0  0  0  0
   -3.1279   21.2383   -0.0388 H   0  0  0  0  0  0  0  0  0  0  0  0
   -3.8579   19.5971   -0.0388 H   0  0  0  0  0  0  0  0  0  0  0  0
   -0.3640   16.2460   -2.0360 H   0  0  0  0  0  0  0  0  0  0  0  0
   -0.1556   16.2075   -4.4413 H   0  0  0  0  0  0  0  0  0  0  0  0
    1.5551   16.6830   -4.3781 H   0  0  0  0  0  0  0  0  0  0  0  0
    0.5818   14.0480   -4.9051 H   0  0  0  0  0  0  0  0  0  0  0  0
    2.2500   14.4166   -4.4758 H   0  0  0  0  0  0  0  0  0  0  0  0
   -0.8920   13.5139   -1.6616 H   0  0  0  0  0  0  0  0  0  0  0  0
   -1.1056   14.3875   -3.2165 H   0  0  0  0  0  0  0  0  0  0  0  0
   -0.7684   12.6232   -3.2165 H   0  0  0  0  0  0  0  0  0  0  0  0
    2.8382   12.9241   -2.6612 H   0  0  0  0  0  0  0  0  0  0  0  0
    1.2707   11.7888   -4.3612 H   0  0  0  0  0  0  0  0  0  0  0  0
    2.4853   10.8097   -3.3830 H   0  0  0  0  0  0  0  0  0  0  0  0
    0.0923    9.7462   -3.6706 H   0  0  0  0  0  0  0  0  0  0  0  0
   -0.2628   12.0632   -0.3843 H   0  0  0  0  0  0  0  0  0  0  0  0
    1.4897    9.7003    0.5321 H   0  0  0  0  0  0  0  0  0  0  0  0
    0.9577   11.1205    1.5376 H   0  0  0  0  0  0  0  0  0  0  0  0
   -0.3676    9.0854    2.0153 H   0  0  0  0  0  0  0  0  0  0  0  0
   -1.3623   10.4329    1.3371 H   0  0  0  0  0  0  0  0  0  0  0  0
   -2.0357    8.3778    0.2949 H   0  0  0  0  0  0  0  0  0  0  0  0
   -0.5930    6.9120   -0.3530 H   0  0  0  0  0  0  0  0  0  0  0  0
   -2.7457   10.6272   -0.1683 H   0  0  0  0  0  0  0  0  0  0  0  0
   -2.3021   11.4167   -1.7196 H   0  0  0  0  0  0  0  0  0  0  0  0
   -3.3763    9.9771   -1.7196 H   0  0  0  0  0  0  0  0  0  0  0  0
   -1.9330    7.5387   -1.9435 H   0  0  0  0  0  0  0  0  0  0  0  0
   -2.4472    8.8509   -3.0572 H   0  0  0  0  0  0  0  0  0  0  0  0
   -0.7407    8.2902   -3.0572 H   0  0  0  0  0  0  0  0  0  0  0  0
    3.2434   11.2039    0.4047 H   0  0  0  0  0  0  0  0  0  0  0  0
    2.9569   10.3185   -1.1318 H   0  0  0  0  0  0  0  0  0  0  0  0
    3.9379   11.8233   -1.1318 H   0  0  0  0  0  0  0  0  0  0  0  0
    1.4633   13.0671    1.0288 H   0  0  0  0  0  0  0  0  0  0  0  0
    2.9301   13.6720    0.0718 H   0  0  0  0  0  0  0  0  0  0  0  0
    0.0309   14.4830   -0.2791 H   0  0  0  0  0  0  0  0  0  0  0  0
    1.4227   15.4861    0.2899 H   0  0  0  0  0  0  0  0  0  0  0  0
    3.3807   15.4443   -0.8681 H   0  0  0  0  0  0  0  0  0  0  0  0
    3.4945   14.5504   -2.4221 H   0  0  0  0  0  0  0  0  0  0  0  0
    3.1251   16.3083   -2.4221 H   0  0  0  0  0  0  0  0  0  0  0  0
  1  2  1  0
  2  3  1  0
  3  4  1  0
  4  5  1  0
  5  6  1  0
  6  7  1  0
  7  8  1  0
  7  9  1  0
  2 10  1  0
 10 11  1  0
 11 12  1  0
 12 13  1  0
 13 14  1  1
 13 15  1  0
 15 16  1  0
 16 17  1  0
 17 18  2  0
 18 19  1  0
 19 20  1  0
 20 21  1  0
 21 22  1  0
 22 23  1  0
 22 24  1  0
 24 25  1  0
 24 26  1  0
 19 27  1  0
 27 28  1  6
 27 29  1  0
 29 30  1  0
 30 31  1  0
 31 32  1  1
  7  5  1  0
 31 10  1  0
 31 13  1  0
 27 15  1  0
 24 18  1  0
  1 33  1  0
  1 34  1  0
  1 35  1  0
  2 36  1  6
  3 37  1  0
  3 38  1  0
  4 39  1  0
  4 40  1  0
  5 41  1  1
  8 42  1  0
  8 43  1  0
  8 44  1  0
  9 45  1  0
  9 46  1  0
  9 47  1  0
 10 48  1  1
 11 49  1  0
 11 50  1  0
 12 51  1  0
 12 52  1  0
 14 53  1  0
 14 54  1  0
 14 55  1  0
 15 56  1  6
 16 57  1  0
 16 58  1  0
 17 59  1  0
 19 60  1  1
 20 61  1  0
 20 62  1  0
 21 63  1  0
 21 64  1  0
 22 65  1  1
 23 66  1  0
 25 67  1  0
 25 68  1  0
 25 69  1  0
 26 70  1  0
 26 71  1  0
 26 72  1  0
 28 73  1  0
 28 74  1  0
 28 75  1  0
 29 76  1  0
 29 77  1  0
 30 78  1  0
 30 79  1  0
 32 80  1  0
 32 81  1  0
 32 82  1  0
M  END
>  <meeko>  (3) 
{"is_sidechain": [false], "intermolecular_energy": 2.731, "internal_energy": -0.839}

$$$$
EPH_relaxed_0001_pdb2pqr_Repair_40_r2_0001_out
     RDKit          3D

 82 86  0  0  0  0  0  0  0  0999 V2000
    0.3930   18.3950   -0.0240 C   0  0  0  0  0  0  0  0  0  0  0  0
    1.4860   17.3460   -0.2510 C   0  0  2  0  0  0  0  0  0  0  0  0
    2.6900   17.9210   -1.0240 C   0  0  0  0  0  0  0  0  0  0  0  0
    3.9280   18.1510   -0.1530 C   0  0  0  0  0  0  0  0  0  0  0  0
    3.5580   18.6270    1.2200 C   0  0  2  0  0  0  0  0  0  0  0  0
    3.8070   20.0180    1.4590 O   0  0  0  0  0  0  0  0  0  0  0  0
    4.5740   19.0920    2.2460 C   0  0  0  0  0  0  0  0  0  0  0  0
    6.0400   19.1040    1.9420 C   0  0  0  0  0  0  0  0  0  0  0  0
    4.1920   19.0700    3.6930 C   0  0  0  0  0  0  0  0  0  0  0  0
    0.9100   16.1500   -0.9990 C   0  0  1  0  0  0  0  0  0  0  0  0
    0.7770   16.4050   -2.5240 C   0  0  0  0  0  0  0  0  0  0  0  0
    1.0650   15.0560   -3.2310 C   0  0  0  0  0  0  0  0  0  0  0  0
    1.0240   14.0050   -2.0960 C   0  0  1  0  0  0  0  0  0  0  0  0
   -0.4930   13.7110   -1.8760 C   0  0  0  0  0  0  0  0  0  0  0  0
    1.8370   12.6920   -2.3410 C   0  0  2  0  0  0  0  0  0  0  0  0
    1.3640   11.8450   -3.5350 C   0  0  0  0  0  0  0  0  0  0  0  0
    0.3330   10.8140   -3.2160 C   0  0  0  0  0  0  0  0  0  0  0  0
    0.0130   10.3820   -1.9820 C   0  0  0  0  0  0  0  0  0  0  0  0
    0.7870   10.8720   -0.7510 C   0  0  1  0  0  0  0  0  0  0  0  0
    1.1450    9.6630    0.1520 C   0  0  0  0  0  0  0  0  0  0  0  0
   -0.0780    8.8300    0.5250 C   0  0  0  0  0  0  0  0  0  0  0  0
   -0.7870    8.3120   -0.7240 C   0  0  2  0  0  0  0  0  0  0  0  0
    0.0680    7.3740   -1.3840 O   0  0  0  0  0  0  0  0  0  0  0  0
   -1.1870    9.4410   -1.7140 C   0  0  0  0  0  0  0  0  0  0  0  0
   -2.3370   10.2820   -1.1070 C   0  0  0  0  0  0  0  0  0  0  0  0
   -1.7650    8.7740   -2.9910 C   0  0  0  0  0  0  0  0  0  0  0  0
    2.0400   11.8050   -1.0460 C   0  0  1  0  0  0  0  0  0  0  0  0
    3.3060   10.9310   -1.3000 C   0  0  0  0  0  0  0  0  0  0  0  0
    2.3480   12.6720    0.2320 C   0  0  0  0  0  0  0  0  0  0  0  0
    1.6020   14.0140    0.3570 C   0  0  0  0  0  0  0  0  0  0  0  0
    1.7070   14.8230   -0.9400 C   0  0  2  0  0  0  0  0  0  0  0  0
    3.2210   15.1530   -1.1760 C   0  0  0  0  0  0  0  0  0  0  0  0
    0.2423   18.5397    1.0560 H   0  0  0  0  0  0  0  0  0  0  0  0
    0.6978   19.3473   -0.4825 H   0  0  0  0  0  0  0  0  0  0  0  0
   -0.5460   18.0513   -0.4825 H   0  0  0  0  0  0  0  0  0  0  0  0
    1.8497   17.0268    0.7368 H   0  0  0  0  0  0  0  0  0  0  0  0
    2.9558   17.2170   -1.8263 H   0  0  0  0  0  0  0  0  0  0  0  0
    2.3832   18.9034   -1.4121 H   0  0  0  0  0  0  0  0  0  0  0  0
    4.4830   17.2054   -0.0652 H   0  0  0  0  0  0  0  0  0  0  0  0
    4.5448   18.9265   -0.6307 H   0  0  0  0  0  0  0  0  0  0  0  0
    2.7333   17.9011    1.2748 H   0  0  0  0  0  0  0  0  0  0  0  0
    6.6096   19.1087    2.8830 H   0  0  0  0  0  0  0  0  0  0  0  0
    6.3011   18.2080    1.3598 H   0  0  0  0  0  0  0  0  0  0  0  0
    6.2864   20.0042    1.3598 H   0  0  0  0  0  0  0  0  0  0  0  0
    5.0994   19.1223    4.3126 H   0  0  0  0  0  0  0  0  0  0  0  0
    3.5463   19.9324    3.9149 H   0  0  0  0  0  0  0  0  0  0  0  0
    3.6496   18.1391    3.9149 H   0  0  0  0  0  0  0  0  0  0  0  0
   -0.0440   16.0405   -0.4625 H   0  0  0  0  0  0  0  0  0  0  0  0
   -0.2404   16.7481   -2.7632 H   0  0  0  0  0  0  0  0  0  0  0  0
    1.4802   17.1827   -2.8567 H   0  0  0  0  0  0  0  0  0  0  0  0
    0.2953   14.8415   -3.9870 H   0  0  0  0  0  0  0  0  0  0  0  0
    2.0285   15.0601   -3.7617 H   0  0  0  0  0  0  0  0  0  0  0  0
   -0.7059   13.6697   -0.7976 H   0  0  0  0  0  0  0  0  0  0  0  0
   -1.0920   14.5098   -2.3377 H   0  0  0  0  0  0  0  0  0  0  0  0
   -0.7502   12.7463   -2.3377 H   0  0  0  0  0  0  0  0  0  0  0  0
    2.8283   13.0766   -2.6228 H   0  0  0  0  0  0  0  0  0  0  0  0
    0.9421   12.5259   -4.2889 H   0  0  0  0  0  0  0  0  0  0  0  0
    2.2483   11.2929   -3.8861 H   0  0  0  0  0  0  0  0  0  0  0  0
   -0.2119   10.3692   -4.0617 H   0  0  0  0  0  0  0  0  0  0  0  0
    0.1063   11.5494   -0.2145 H   0  0  0  0  0  0  0  0  0  0  0  0
    1.8588    9.0209   -0.3848 H   0  0  0  0  0  0  0  0  0  0  0  0
    1.5773   10.0578    1.0833 H   0  0  0  0  0  0  0  0  0  0  0  0
    0.2424    7.9746    1.1379 H   0  0  0  0  0  0  0  0  0  0  0  0
   -0.7775    9.4658    1.0876 H   0  0  0  0  0  0  0  0  0  0  0  0
   -1.7230    7.8349   -0.3979 H   0  0  0  0  0  0  0  0  0  0  0  0
    0.7380    7.0830   -0.7420 H   0  0  0  0  0  0  0  0  0  0  0  0
   -2.2812   10.2412   -0.0092 H   0  0  0  0  0  0  0  0  0  0  0  0
   -2.2432   11.3261   -1.4403 H   0  0  0  0  0  0  0  0  0  0  0  0
   -3.3035    9.8761   -1.4403 H   0  0  0  0  0  0  0  0  0  0  0  0
   -2.4602    7.9717   -2.7030 H   0  0  0  0  0  0  0  0  0  0  0  0
   -2.3009    9.5270   -3.5875 H   0  0  0  0  0  0  0  0  0  0  0  0
   -0.9434    8.3506   -3.5875 H   0  0  0  0  0  0  0  0  0  0  0  0
    3.7427   10.6295   -0.3365 H   0  0  0  0  0  0  0  0  0  0  0  0
    3.0239   10.0343   -1.8714 H   0  0  0  0  0  0  0  0  0  0  0  0
    4.0445   11.5126   -1.8714 H   0  0  0  0  0  0  0  0  0  0  0  0
    2.0936   12.0663    1.1143 H   0  0  0  0  0  0  0  0  0  0  0  0
    3.4115   12.9405    0.1484 H   0  0  0  0  0  0  0  0  0  0  0  0
    0.5416   13.8174    0.5736 H   0  0  0  0  0  0  0  0  0  0  0  0
    2.0600   14.5953    1.1709 H   0  0  0  0  0  0  0  0  0  0  0  0
    3.7277   15.2635   -0.2059 H   0  0  0  0  0  0  0  0  0  0  0  0
    3.6902   14.3360   -1.7438 H   0  0  0  0  0  0  0  0  0  0  0  0
    3.3076   16.0911   -1.7438 H   0  0  0  0  0  0  0  0  0  0  0  0
  1  2  1  0
  2  3  1  0
  3  4  1  0
  4  5  1  0
  5  6  1  0
  6  7  1  0
  7  8  1  0
  7  9  1  0
  2 10  1  0
 10 11  1  0
 11 12  1  0
 12 13  1  0
 13 14  1  1
 13 15  1  0
 15 16  1  0
 16 17  1  0
 17 18  2  0
 18 19  1  0
 19 20  1  0
 20 21  1  0
 21 22  1  0
 22 23  1  0
 22 24  1  0
 24 25  1  0
 24 26  1  0
 19 27  1  0
 27 28  1  6
 27 29  1  0
 29 30  1  0
 30 31  1  0
 31 32  1  6
  7  5  1  0
 31 10  1  0
 31 13  1  0
 27 15  1  0
 24 18  1  0
  1 33  1  0
  1 34  1  0
  1 35  1  0
  2 36  1  1
  3 37  1  0
  3 38  1  0
  4 39  1  0
  4 40  1  0
  5 41  1  1
  8 42  1  0
  8 43  1  0
  8 44  1  0
  9 45  1  0
  9 46  1  0
  9 47  1  0
 10 48  1  1
 11 49  1  0
 11 50  1  0
 12 51  1  0
 12 52  1  0
 14 53  1  0
 14 54  1  0
 14 55  1  0
 15 56  1  6
 16 57  1  0
 16 58  1  0
 17 59  1  0
 19 60  1  1
 20 61  1  0
 20 62  1  0
 21 63  1  0
 21 64  1  0
 22 65  1  1
 23 66  1  0
 25 67  1  0
 25 68  1  0
 25 69  1  0
 26 70  1  0
 26 71  1  0
 26 72  1  0
 28 73  1  0
 28 74  1  0
 28 75  1  0
 29 76  1  0
 29 77  1  0
 30 78  1  0
 30 79  1  0
 32 80  1  0
 32 81  1  0
 32 82  1  0
M  END
>  <meeko>  (4) 
{"is_sidechain": [false], "intermolecular_energy": 2.731, "internal_energy": -0.839}

$$$$
EPH_relaxed_0001_pdb2pqr_Repair_40_r2_0001_out
     RDKit          3D

 82 86  0  0  0  0  0  0  0  0999 V2000
    2.2460   17.9550   -2.5720 C   0  0  0  0  0  0  0  0  0  0  0  0
    0.7240   17.8200   -2.6660 C   0  0  2  0  0  0  0  0  0  0  0  0
    0.0180   18.3070   -1.3840 C   0  0  0  0  0  0  0  0  0  0  0  0
    0.7330   17.8960   -0.0940 C   0  0  0  0  0  0  0  0  0  0  0  0
    1.2360   19.0870    0.6640 C   0  0  2  0  0  0  0  0  0  0  0  0
    2.1100   19.9450   -0.0810 O   0  0  0  0  0  0  0  0  0  0  0  0
    2.6910   19.2780    1.0510 C   0  0  0  0  0  0  0  0  0  0  0  0
    3.7340   18.2660    0.6910 C   0  0  0  0  0  0  0  0  0  0  0  0
    3.0140   20.1940    2.1900 C   0  0  0  0  0  0  0  0  0  0  0  0
    0.3460   16.3710   -2.9500 C   0  0  1  0  0  0  0  0  0  0  0  0
    0.4160   16.0210   -4.4600 C   0  0  0  0  0  0  0  0  0  0  0  0
    0.8960   14.5500   -4.5560 C   0  0  0  0  0  0  0  0  0  0  0  0
    0.7670   14.0030   -3.1150 C   0  0  1  0  0  0  0  0  0  0  0  0
   -0.7420   13.6330   -2.9600 C   0  0  0  0  0  0  0  0  0  0  0  0
    1.6970   12.8010   -2.7460 C   0  0  2  0  0  0  0  0  0  0  0  0
    1.4610   11.5190   -3.5630 C   0  0  0  0  0  0  0  0  0  0  0  0
    0.4690   10.5660   -2.9830 C   0  0  0  0  0  0  0  0  0  0  0  0
    0.0070   10.5920   -1.7190 C   0  0  0  0  0  0  0  0  0  0  0  0
    0.5600   11.5950   -0.6980 C   0  0  1  0  0  0  0  0  0  0  0  0
    0.8680   10.8620    0.6340 C   0  0  0  0  0  0  0  0  0  0  0  0
   -0.3340   10.0900    1.1680 C   0  0  0  0  0  0  0  0  0  0  0  0
   -0.8190    9.0620    0.1480 C   0  0  2  0  0  0  0  0  0  0  0  0
    0.1860    8.0550   -0.0040 O   0  0  0  0  0  0  0  0  0  0  0  0
   -1.1510    9.6830   -1.2370 C   0  0  0  0  0  0  0  0  0  0  0  0
   -2.4330   10.5460   -1.1270 C   0  0  0  0  0  0  0  0  0  0  0  0
   -1.4910    8.5230   -2.2110 C   0  0  0  0  0  0  0  0  0  0  0  0
    1.7730   12.4930   -1.1960 C   0  0  1  0  0  0  0  0  0  0  0  0
    3.1210   11.7450   -0.9570 C   0  0  0  0  0  0  0  0  0  0  0  0
    1.8330   13.8040   -0.3270 C   0  0  0  0  0  0  0  0  0  0  0  0
    0.9850   14.9970   -0.8100 C   0  0  0  0  0  0  0  0  0  0  0  0
    1.2180   15.2680   -2.2990 C   0  0  2  0  0  0  0  0  0  0  0  0
    2.7230   15.6650   -2.4830 C   0  0  0  0  0  0  0  0  0  0  0  0
    2.5471   17.9817   -1.5144 H   0  0  0  0  0  0  0  0  0  0  0  0
    2.7216   17.0955   -3.0671 H   0  0  0  0  0  0  0  0  0  0  0  0
    2.5629   18.8848   -3.0671 H   0  0  0  0  0  0  0  0  0  0  0  0
    0.3859   18.4608   -3.4937 H   0  0  0  0  0  0  0  0  0  0  0  0
   -0.0392   19.4051   -1.4147 H   0  0  0  0  0  0  0  0  0  0  0  0
   -0.9757   17.8355   -1.3652 H   0  0  0  0  0  0  0  0  0  0  0  0
    0.0289   17.3397    0.5422 H   0  0  0  0  0  0  0  0  0  0  0  0
    1.5972   17.2716   -0.3647 H   0  0  0  0  0  0  0  0  0  0  0  0
    0.3043   19.1402    1.2463 H   0  0  0  0  0  0  0  0  0  0  0  0
    4.1684   17.8445    1.6095 H   0  0  0  0  0  0  0  0  0  0  0  0
    3.2745   17.4604    0.0995 H   0  0  0  0  0  0  0  0  0  0  0  0
    4.5254   18.7496    0.0995 H   0  0  0  0  0  0  0  0  0  0  0  0
    2.8307   19.6742    3.1419 H   0  0  0  0  0  0  0  0  0  0  0  0
    4.0714   20.4918    2.1325 H   0  0  0  0  0  0  0  0  0  0  0  0
    2.3773   21.0892    2.1325 H   0  0  0  0  0  0  0  0  0  0  0  0
   -0.6650   16.3554   -2.5168 H   0  0  0  0  0  0  0  0  0  0  0  0
   -0.5778   16.1260   -4.9197 H   0  0  0  0  0  0  0  0  0  0  0  0
    1.1033   16.6963   -4.9907 H   0  0  0  0  0  0  0  0  0  0  0  0
    0.2593   13.9780   -5.2470 H   0  0  0  0  0  0  0  0  0  0  0  0
    1.9229   14.4705   -4.9421 H   0  0  0  0  0  0  0  0  0  0  0  0
   -0.9964   13.5706   -1.8916 H   0  0  0  0  0  0  0  0  0  0  0  0
   -1.3602   14.4062   -3.4396 H   0  0  0  0  0  0  0  0  0  0  0  0
   -0.9325   12.6615   -3.4396 H   0  0  0  0  0  0  0  0  0  0  0  0
    2.6890   13.1686   -3.0474 H   0  0  0  0  0  0  0  0  0  0  0  0
    1.1059   11.8131   -4.5617 H   0  0  0  0  0  0  0  0  0  0  0  0
    2.4230   10.9857   -3.5765 H   0  0  0  0  0  0  0  0  0  0  0  0
    0.0832    9.7761   -3.6442 H   0  0  0  0  0  0  0  0  0  0  0  0
   -0.2358   12.3376   -0.5391 H   0  0  0  0  0  0  0  0  0  0  0  0
    1.6940   10.1556    0.4649 H   0  0  0  0  0  0  0  0  0  0  0  0
    1.1339   11.6244    1.3810 H   0  0  0  0  0  0  0  0  0  0  0  0
   -0.0459    9.5704    2.0937 H   0  0  0  0  0  0  0  0  0  0  0  0
   -1.1495   10.8017    1.3644 H   0  0  0  0  0  0  0  0  0  0  0  0
   -1.7565    8.6330    0.5314 H   0  0  0  0  0  0  0  0  0  0  0  0
    0.0140    7.5920   -0.8420 H   0  0  0  0  0  0  0  0  0  0  0  0
   -2.6753   10.7091   -0.0665 H   0  0  0  0  0  0  0  0  0  0  0  0
   -2.2654   11.5159   -1.6182 H   0  0  0  0  0  0  0  0  0  0  0  0
   -3.2685   10.0257   -1.6182 H   0  0  0  0  0  0  0  0  0  0  0  0
   -1.7543    7.6246   -1.6335 H   0  0  0  0  0  0  0  0  0  0  0  0
   -2.3417    8.8138   -2.8448 H   0  0  0  0  0  0  0  0  0  0  0  0
   -0.6179    8.3086   -2.8448 H   0  0  0  0  0  0  0  0  0  0  0  0
    3.2989   11.6463    0.1240 H   0  0  0  0  0  0  0  0  0  0  0  0
    3.0715   10.7453   -1.4133 H   0  0  0  0  0  0  0  0  0  0  0  0
    3.9431   12.3160   -1.4133 H   0  0  0  0  0  0  0  0  0  0  0  0
    1.4969   13.5461    0.6881 H   0  0  0  0  0  0  0  0  0  0  0  0
    2.8762   14.1464   -0.3940 H   0  0  0  0  0  0  0  0  0  0  0  0
   -0.0792   14.7712   -0.6476 H   0  0  0  0  0  0  0  0  0  0  0  0
    1.2803   15.8906   -0.2405 H   0  0  0  0  0  0  0  0  0  0  0  0
    3.1928   15.7889   -1.4961 H   0  0  0  0  0  0  0  0  0  0  0  0
    3.2453   14.8739   -3.0410 H   0  0  0  0  0  0  0  0  0  0  0  0
    2.7871   16.6108   -3.0410 H   0  0  0  0  0  0  0  0  0  0  0  0
  1  2  1  0
  2  3  1  0
  3  4  1  0
  4  5  1  0
  5  6  1  0
  6  7  1  0
  7  8  1  0
  7  9  1  0
  2 10  1  0
 10 11  1  0
 11 12  1  0
 12 13  1  0
 13 14  1  1
 13 15  1  0
 15 16  1  0
 16 17  1  0
 17 18  2  0
 18 19  1  0
 19 20  1  0
 20 21  1  0
 21 22  1  0
 22 23  1  0
 22 24  1  0
 24 25  1  0
 24 26  1  0
 19 27  1  0
 27 28  1  6
 27 29  1  0
 29 30  1  0
 30 31  1  0
 31 32  1  1
  7  5  1  0
 31 10  1  0
 31 13  1  0
 27 15  1  0
 24 18  1  0
  1 33  1  0
  1 34  1  0
  1 35  1  0
  2 36  1  6
  3 37  1  0
  3 38  1  0
  4 39  1  0
  4 40  1  0
  5 41  1  1
  8 42  1  0
  8 43  1  0
  8 44  1  0
  9 45  1  0
  9 46  1  0
  9 47  1  0
 10 48  1  1
 11 49  1  0
 11 50  1  0
 12 51  1  0
 12 52  1  0
 14 53  1  0
 14 54  1  0
 14 55  1  0
 15 56  1  6
 16 57  1  0
 16 58  1  0
 17 59  1  0
 19 60  1  1
 20 61  1  0
 20 62  1  0
 21 63  1  0
 21 64  1  0
 22 65  1  1
 23 66  1  0
 25 67  1  0
 25 68  1  0
 25 69  1  0
 26 70  1  0
 26 71  1  0
 26 72  1  0
 28 73  1  0
 28 74  1  0
 28 75  1  0
 29 76  1  0
 29 77  1  0
 30 78  1  0
 30 79  1  0
 32 80  1  0
 32 81  1  0
 32 82  1  0
M  END
>  <meeko>  (5) 
{"is_sidechain": [false], "intermolecular_energy": 2.731, "internal_energy": -0.839}

$$$$
EPH_relaxed_0001_pdb2pqr_Repair_40_r2_0001_out
     RDKit          3D

 82 86  0  0  0  0  0  0  0  0999 V2000
   -5.1730    5.8050   -1.7740 C   0  0  0  0  0  0  0  0  0  0  0  0
   -5.4650    7.3080   -1.7980 C   0  0  2  0  0  0  0  0  0  0  0  0
   -5.2440    7.9650   -0.4210 C   0  0  0  0  0  0  0  0  0  0  0  0
   -4.1780    9.0650   -0.4270 C   0  0  0  0  0  0  0  0  0  0  0  0
   -2.8520    8.5490   -0.8980 C   0  0  2  0  0  0  0  0  0  0  0  0
   -1.7730    8.7430    0.0250 O   0  0  0  0  0  0  0  0  0  0  0  0
   -1.6730    9.4470   -1.2230 C   0  0  0  0  0  0  0  0  0  0  0  0
   -1.7660   10.9350   -1.0910 C   0  0  0  0  0  0  0  0  0  0  0  0
   -0.6020    8.9220   -2.1270 C   0  0  0  0  0  0  0  0  0  0  0  0
   -6.8930    7.5530   -2.2690 C   0  0  1  0  0  0  0  0  0  0  0  0
   -7.2000    6.8700   -3.6280 C   0  0  0  0  0  0  0  0  0  0  0  0
   -8.6800    6.4130   -3.5750 C   0  0  0  0  0  0  0  0  0  0  0  0
   -9.2670    7.1320   -2.3380 C   0  0  1  0  0  0  0  0  0  0  0  0
   -9.5990    8.5750   -2.8330 C   0  0  0  0  0  0  0  0  0  0  0  0
  -10.5040    6.4530   -1.6660 C   0  0  2  0  0  0  0  0  0  0  0  0
  -11.7540    6.3470   -2.5570 C   0  0  0  0  0  0  0  0  0  0  0  0
  -12.6970    7.5020   -2.4740 C   0  0  0  0  0  0  0  0  0  0  0  0
  -12.6960    8.4440   -1.5130 C   0  0  0  0  0  0  0  0  0  0  0  0
  -11.7390    8.3490   -0.3170 C   0  0  1  0  0  0  0  0  0  0  0  0
  -12.5200    8.6270    0.9940 C   0  0  0  0  0  0  0  0  0  0  0  0
  -13.2750    9.9520    0.9550 C   0  0  0  0  0  0  0  0  0  0  0  0
  -14.2580    9.9860   -0.2120 C   0  0  2  0  0  0  0  0  0  0  0  0
  -15.2870    9.0210    0.0230 O   0  0  0  0  0  0  0  0  0  0  0  0
  -13.5860    9.7090   -1.5860 C   0  0  0  0  0  0  0  0  0  0  0  0
  -12.6930   10.9100   -1.9810 C   0  0  0  0  0  0  0  0  0  0  0  0
  -14.7070    9.6310   -2.6580 C   0  0  0  0  0  0  0  0  0  0  0  0
  -10.8610    7.0260   -0.2350 C   0  0  1  0  0  0  0  0  0  0  0  0
  -11.6530    5.9070    0.5090 C   0  0  0  0  0  0  0  0  0  0  0  0
   -9.5780    7.3140    0.6310 C   0  0  0  0  0  0  0  0  0  0  0  0
   -8.3490    7.8720   -0.1110 C   0  0  0  0  0  0  0  0  0  0  0  0
   -8.0390    7.0420   -1.3600 C   0  0  2  0  0  0  0  0  0  0  0  0
   -7.6790    5.5900   -0.8920 C   0  0  0  0  0  0  0  0  0  0  0  0
   -5.1062    5.4611   -0.7313 H   0  0  0  0  0  0  0  0  0  0  0  0
   -5.9832    5.2658   -2.2867 H   0  0  0  0  0  0  0  0  0  0  0  0
   -4.2199    5.6084   -2.2867 H   0  0  0  0  0  0  0  0  0  0  0  0
   -4.7573    7.7708   -2.5015 H   0  0  0  0  0  0  0  0  0  0  0  0
   -6.1959    8.4058   -0.0898 H   0  0  0  0  0  0  0  0  0  0  0  0
   -4.8878    7.1762    0.2579 H   0  0  0  0  0  0  0  0  0  0  0  0
   -4.5042    9.8740   -1.0972 H   0  0  0  0  0  0  0  0  0  0  0  0
   -4.0573    9.4313    0.6032 H   0  0  0  0  0  0  0  0  0  0  0  0
   -3.3397    7.7391   -1.4604 H   0  0  0  0  0  0  0  0  0  0  0  0
   -1.7831   11.2082   -0.0256 H   0  0  0  0  0  0  0  0  0  0  0  0
   -0.8952   11.4012   -1.5752 H   0  0  0  0  0  0  0  0  0  0  0  0
   -2.6880   11.2891   -1.5752 H   0  0  0  0  0  0  0  0  0  0  0  0
    0.2229    8.5177   -1.5219 H   0  0  0  0  0  0  0  0  0  0  0  0
   -1.0162    8.1248   -2.7617 H   0  0  0  0  0  0  0  0  0  0  0  0
   -0.2255    9.7377   -2.7617 H   0  0  0  0  0  0  0  0  0  0  0  0
   -6.8928    8.6527   -2.2926 H   0  0  0  0  0  0  0  0  0  0  0  0
   -7.0533    7.5836   -4.4522 H   0  0  0  0  0  0  0  0  0  0  0  0
   -6.5290    6.0157   -3.8010 H   0  0  0  0  0  0  0  0  0  0  0  0
   -9.2126    6.7153   -4.4888 H   0  0  0  0  0  0  0  0  0  0  0  0
   -8.7764    5.3194   -3.5063 H   0  0  0  0  0  0  0  0  0  0  0  0
   -9.7507    9.2343   -1.9657 H   0  0  0  0  0  0  0  0  0  0  0  0
   -8.7648    8.9551   -3.4410 H   0  0  0  0  0  0  0  0  0  0  0  0
  -10.5154    8.5523   -3.4410 H   0  0  0  0  0  0  0  0  0  0  0  0
  -10.1543    5.4207   -1.5176 H   0  0  0  0  0  0  0  0  0  0  0  0
  -11.4202    6.2552   -3.6011 H   0  0  0  0  0  0  0  0  0  0  0  0
  -12.3127    5.4717   -2.1942 H   0  0  0  0  0  0  0  0  0  0  0  0
  -13.4563    7.5902   -3.2650 H   0  0  0  0  0  0  0  0  0  0  0  0
  -10.9797    9.1296   -0.4722 H   0  0  0  0  0  0  0  0  0  0  0  0
  -13.2432    7.8135    1.1529 H   0  0  0  0  0  0  0  0  0  0  0  0
  -11.7881    8.6836    1.8132 H   0  0  0  0  0  0  0  0  0  0  0  0
  -13.8296   10.0781    1.8965 H   0  0  0  0  0  0  0  0  0  0  0  0
  -12.5475   10.7667    0.8249 H   0  0  0  0  0  0  0  0  0  0  0  0
  -14.6729   11.0034   -0.2643 H   0  0  0  0  0  0  0  0  0  0  0  0
  -16.1230    9.5040    0.1400 H   0  0  0  0  0  0  0  0  0  0  0  0
  -12.3235   11.4069   -1.0718 H   0  0  0  0  0  0  0  0  0  0  0  0
  -11.8397   10.5524   -2.5759 H   0  0  0  0  0  0  0  0  0  0  0  0
  -13.2812   11.6242   -2.5759 H   0  0  0  0  0  0  0  0  0  0  0  0
  -15.6858    9.5629   -2.1607 H   0  0  0  0  0  0  0  0  0  0  0  0
  -14.6769   10.5334   -3.2863 H   0  0  0  0  0  0  0  0  0  0  0  0
  -14.5523    8.7415   -3.2863 H   0  0  0  0  0  0  0  0  0  0  0  0
  -11.5534    6.0477    1.5954 H   0  0  0  0  0  0  0  0  0  0  0  0
  -12.7152    5.9609    0.2281 H   0  0  0  0  0  0  0  0  0  0  0  0
  -11.2490    4.9232    0.2281 H   0  0  0  0  0  0  0  0  0  0  0  0
   -9.8570    8.0421    1.4069 H   0  0  0  0  0  0  0  0  0  0  0  0
   -9.2621    6.3317    1.0121 H   0  0  0  0  0  0  0  0  0  0  0  0
   -8.5506    8.9111   -0.4104 H   0  0  0  0  0  0  0  0  0  0  0  0
   -7.4816    7.8271    0.5640 H   0  0  0  0  0  0  0  0  0  0  0  0
   -7.6693    5.5509    0.2073 H   0  0  0  0  0  0  0  0  0  0  0  0
   -8.4293    4.8839   -1.2774 H   0  0  0  0  0  0  0  0  0  0  0  0
   -6.6858    5.3162   -1.2774 H   0  0  0  0  0  0  0  0  0  0  0  0
  1  2  1  0
  2  3  1  0
  3  4  1  0
  4  5  1  0
  5  6  1  0
  6  7  1  0
  7  8  1  0
  7  9  1  0
  2 10  1  0
 10 11  1  0
 11 12  1  0
 12 13  1  0
 13 14  1  6
 13 15  1  0
 15 16  1  0
 16 17  1  0
 17 18  2  0
 18 19  1  0
 19 20  1  0
 20 21  1  0
 21 22  1  0
 22 23  1  0
 22 24  1  0
 24 25  1  0
 24 26  1  0
 19 27  1  0
 27 28  1  1
 27 29  1  0
 29 30  1  0
 30 31  1  0
 31 32  1  1
  7  5  1  0
 31 10  1  0
 31 13  1  0
 27 15  1  0
 24 18  1  0
  1 33  1  0
  1 34  1  0
  1 35  1  0
  2 36  1  6
  3 37  1  0
  3 38  1  0
  4 39  1  0
  4 40  1  0
  5 41  1  6
  8 42  1  0
  8 43  1  0
  8 44  1  0
  9 45  1  0
  9 46  1  0
  9 47  1  0
 10 48  1  6
 11 49  1  0
 11 50  1  0
 12 51  1  0
 12 52  1  0
 14 53  1  0
 14 54  1  0
 14 55  1  0
 15 56  1  1
 16 57  1  0
 16 58  1  0
 17 59  1  0
 19 60  1  6
 20 61  1  0
 20 62  1  0
 21 63  1  0
 21 64  1  0
 22 65  1  6
 23 66  1  0
 25 67  1  0
 25 68  1  0
 25 69  1  0
 26 70  1  0
 26 71  1  0
 26 72  1  0
 28 73  1  0
 28 74  1  0
 28 75  1  0
 29 76  1  0
 29 77  1  0
 30 78  1  0
 30 79  1  0
 32 80  1  0
 32 81  1  0
 32 82  1  0
M  END
>  <meeko>  (6) 
{"is_sidechain": [false], "intermolecular_energy": 2.731, "internal_energy": -0.839}

$$$$
EPH_relaxed_0001_pdb2pqr_Repair_40_r2_0001_out
     RDKit          3D

 82 86  0  0  0  0  0  0  0  0999 V2000
    4.5880   16.0610   -0.3310 C   0  0  0  0  0  0  0  0  0  0  0  0
    3.2670   16.8160   -0.5000 C   0  0  2  0  0  0  0  0  0  0  0  0
    3.1380   17.9910    0.4910 C   0  0  0  0  0  0  0  0  0  0  0  0
    2.6400   19.2870   -0.1530 C   0  0  0  0  0  0  0  0  0  0  0  0
    1.8440   19.0190   -1.3940 C   0  0  2  0  0  0  0  0  0  0  0  0
    1.4880   20.1900   -2.1420 O   0  0  0  0  0  0  0  0  0  0  0  0
    0.3990   19.4480   -1.5700 C   0  0  0  0  0  0  0  0  0  0  0  0
   -0.3350   20.1800   -0.4900 C   0  0  0  0  0  0  0  0  0  0  0  0
   -0.4420   18.7340   -2.5820 C   0  0  0  0  0  0  0  0  0  0  0  0
    2.0950   15.8570   -0.3260 C   0  0  1  0  0  0  0  0  0  0  0  0
    0.7370   16.5940   -0.1800 C   0  0  0  0  0  0  0  0  0  0  0  0
   -0.3300   15.7080   -0.8740 C   0  0  0  0  0  0  0  0  0  0  0  0
    0.3780   14.3510   -1.1010 C   0  0  1  0  0  0  0  0  0  0  0  0
    0.2800   13.6140    0.2710 C   0  0  0  0  0  0  0  0  0  0  0  0
   -0.1730   13.4710   -2.2700 C   0  0  2  0  0  0  0  0  0  0  0  0
   -1.6320   13.0110   -2.1090 C   0  0  0  0  0  0  0  0  0  0  0  0
   -1.8150   11.7030   -1.4120 C   0  0  0  0  0  0  0  0  0  0  0  0
   -0.8480   10.7950   -1.1870 C   0  0  0  0  0  0  0  0  0  0  0  0
    0.5690   10.9990   -1.7390 C   0  0  1  0  0  0  0  0  0  0  0  0
    1.0620    9.6860   -2.4010 C   0  0  0  0  0  0  0  0  0  0  0  0
    0.9690    8.4870   -1.4620 C   0  0  0  0  0  0  0  0  0  0  0  0
   -0.4650    8.2810   -0.9800 C   0  0  2  0  0  0  0  0  0  0  0  0
   -1.2750    7.8960   -2.0960 O   0  0  0  0  0  0  0  0  0  0  0  0
   -1.0720    9.5420   -0.3050 C   0  0  0  0  0  0  0  0  0  0  0  0
   -0.3840    9.7820    1.0620 C   0  0  0  0  0  0  0  0  0  0  0  0
   -2.5640    9.2460    0.0060 C   0  0  0  0  0  0  0  0  0  0  0  0
    0.7720   12.2680   -2.6750 C   0  0  1  0  0  0  0  0  0  0  0  0
    0.4190   11.9020   -4.1500 C   0  0  0  0  0  0  0  0  0  0  0  0
    2.2930   12.6720   -2.6700 C   0  0  0  0  0  0  0  0  0  0  0  0
    2.7510   13.6390   -1.5610 C   0  0  0  0  0  0  0  0  0  0  0  0
    1.8210   14.8530   -1.4730 C   0  0  2  0  0  0  0  0  0  0  0  0
    1.9150   15.6270   -2.8320 C   0  0  0  0  0  0  0  0  0  0  0  0
    4.8050   15.9370    0.7402 H   0  0  0  0  0  0  0  0  0  0  0  0
    4.5084   15.0720   -0.8059 H   0  0  0  0  0  0  0  0  0  0  0  0
    5.3998   16.6315   -0.8059 H   0  0  0  0  0  0  0  0  0  0  0  0
    3.2548   17.2384   -1.5156 H   0  0  0  0  0  0  0  0  0  0  0  0
    2.4304   17.7020    1.2821 H   0  0  0  0  0  0  0  0  0  0  0  0
    4.1458   18.1933    0.8828 H   0  0  0  0  0  0  0  0  0  0  0  0
    2.0058   19.8228    0.5686 H   0  0  0  0  0  0  0  0  0  0  0  0
    3.5166   19.8904   -0.4315 H   0  0  0  0  0  0  0  0  0  0  0  0
    2.3499   18.0529   -1.5382 H   0  0  0  0  0  0  0  0  0  0  0  0
    0.0150   19.8310    0.4927 H   0  0  0  0  0  0  0  0  0  0  0  0
   -0.1455   21.2594   -0.5845 H   0  0  0  0  0  0  0  0  0  0  0  0
   -1.4139   19.9875   -0.5845 H   0  0  0  0  0  0  0  0  0  0  0  0
   -1.1824   18.1054   -2.0656 H   0  0  0  0  0  0  0  0  0  0  0  0
   -0.9620   19.4707   -3.2120 H   0  0  0  0  0  0  0  0  0  0  0  0
    0.2005   18.1013   -3.2120 H   0  0  0  0  0  0  0  0  0  0  0  0
    2.4295   15.3184    0.5729 H   0  0  0  0  0  0  0  0  0  0  0  0
    0.4885   16.7230    0.8838 H   0  0  0  0  0  0  0  0  0  0  0  0
    0.7789   17.5934   -0.6378 H   0  0  0  0  0  0  0  0  0  0  0  0
   -1.2112   15.5830   -0.2276 H   0  0  0  0  0  0  0  0  0  0  0  0
   -0.6940   16.1511   -1.8127 H   0  0  0  0  0  0  0  0  0  0  0  0
    0.3772   14.3447    1.0875 H   0  0  0  0  0  0  0  0  0  0  0  0
   -0.6934   13.1073    0.3463 H   0  0  0  0  0  0  0  0  0  0  0  0
    1.0872   12.8705    0.3463 H   0  0  0  0  0  0  0  0  0  0  0  0
   -0.1745   14.1747   -3.1155 H   0  0  0  0  0  0  0  0  0  0  0  0
   -2.1696   13.7802   -1.5351 H   0  0  0  0  0  0  0  0  0  0  0  0
   -2.0209   12.8698   -3.1282 H   0  0  0  0  0  0  0  0  0  0  0  0
   -2.8260   11.4615   -1.0521 H   0  0  0  0  0  0  0  0  0  0  0  0
    1.2013   11.2389   -0.8714 H   0  0  0  0  0  0  0  0  0  0  0  0
    0.4458    9.4863   -3.2901 H   0  0  0  0  0  0  0  0  0  0  0  0
    2.1211    9.8222   -2.6650 H   0  0  0  0  0  0  0  0  0  0  0  0
    1.3023    7.5849   -1.9960 H   0  0  0  0  0  0  0  0  0  0  0  0
    1.6095    8.6754   -0.5878 H   0  0  0  0  0  0  0  0  0  0  0  0
   -0.4450    7.4936   -0.2122 H   0  0  0  0  0  0  0  0  0  0  0  0
   -1.5600    8.7090   -2.5470 H   0  0  0  0  0  0  0  0  0  0  0  0
   -1.0853    9.5374    1.8734 H   0  0  0  0  0  0  0  0  0  0  0  0
    0.5067    9.1415    1.1417 H   0  0  0  0  0  0  0  0  0  0  0  0
   -0.0849   10.8376    1.1417 H   0  0  0  0  0  0  0  0  0  0  0  0
   -2.7126    9.2165    1.0955 H   0  0  0  0  0  0  0  0  0  0  0  0
   -3.1930   10.0369   -0.4286 H   0  0  0  0  0  0  0  0  0  0  0  0
   -2.8435    8.2749   -0.4286 H   0  0  0  0  0  0  0  0  0  0  0  0
   -0.3446   11.1103   -4.1586 H   0  0  0  0  0  0  0  0  0  0  0  0
    0.0299   12.7923   -4.6657 H   0  0  0  0  0  0  0  0  0  0  0  0
    1.3228   11.5453   -4.6657 H   0  0  0  0  0  0  0  0  0  0  0  0
    2.8824   11.7485   -2.5707 H   0  0  0  0  0  0  0  0  0  0  0  0
    2.4488   13.2190   -3.6115 H   0  0  0  0  0  0  0  0  0  0  0  0
    2.7440   13.1098   -0.5967 H   0  0  0  0  0  0  0  0  0  0  0  0
    3.7654   13.9911   -1.7998 H   0  0  0  0  0  0  0  0  0  0  0  0
    2.0454   16.7011   -2.6339 H   0  0  0  0  0  0  0  0  0  0  0  0
    2.7744   15.2534   -3.4081 H   0  0  0  0  0  0  0  0  0  0  0  0
    0.9912   15.4699   -3.4081 H   0  0  0  0  0  0  0  0  0  0  0  0
  1  2  1  0
  2  3  1  0
  3  4  1  0
  4  5  1  0
  5  6  1  0
  6  7  1  0
  7  8  1  0
  7  9  1  0
  2 10  1  0
 10 11  1  0
 11 12  1  0
 12 13  1  0
 13 14  1  1
 13 15  1  0
 15 16  1  0
 16 17  1  0
 17 18  2  0
 18 19  1  0
 19 20  1  0
 20 21  1  0
 21 22  1  0
 22 23  1  0
 22 24  1  0
 24 25  1  0
 24 26  1  0
 19 27  1  0
 27 28  1  6
 27 29  1  0
 29 30  1  0
 30 31  1  0
 31 32  1  6
  7  5  1  0
 31 10  1  0
 31 13  1  0
 27 15  1  0
 24 18  1  0
  1 33  1  0
  1 34  1  0
  1 35  1  0
  2 36  1  6
  3 37  1  0
  3 38  1  0
  4 39  1  0
  4 40  1  0
  5 41  1  6
  8 42  1  0
  8 43  1  0
  8 44  1  0
  9 45  1  0
  9 46  1  0
  9 47  1  0
 10 48  1  1
 11 49  1  0
 11 50  1  0
 12 51  1  0
 12 52  1  0
 14 53  1  0
 14 54  1  0
 14 55  1  0
 15 56  1  6
 16 57  1  0
 16 58  1  0
 17 59  1  0
 19 60  1  1
 20 61  1  0
 20 62  1  0
 21 63  1  0
 21 64  1  0
 22 65  1  1
 23 66  1  0
 25 67  1  0
 25 68  1  0
 25 69  1  0
 26 70  1  0
 26 71  1  0
 26 72  1  0
 28 73  1  0
 28 74  1  0
 28 75  1  0
 29 76  1  0
 29 77  1  0
 30 78  1  0
 30 79  1  0
 32 80  1  0
 32 81  1  0
 32 82  1  0
M  END
>  <meeko>  (7) 
{"is_sidechain": [false], "intermolecular_energy": 2.731, "internal_energy": -0.839}

$$$$
EPH_relaxed_0001_pdb2pqr_Repair_40_r2_0001_out
     RDKit          3D

 82 86  0  0  0  0  0  0  0  0999 V2000
    0.4130    8.8650   -2.5600 C   0  0  0  0  0  0  0  0  0  0  0  0
    1.1740   10.0300   -3.1990 C   0  0  2  0  0  0  0  0  0  0  0  0
    2.6670   10.0290   -2.8150 C   0  0  0  0  0  0  0  0  0  0  0  0
    3.5810   10.6150   -3.8950 C   0  0  0  0  0  0  0  0  0  0  0  0
    4.9680   10.8510   -3.3790 C   0  0  2  0  0  0  0  0  0  0  0  0
    5.5880   12.0530   -3.8550 O   0  0  0  0  0  0  0  0  0  0  0  0
    6.2040   10.8190   -4.2580 C   0  0  0  0  0  0  0  0  0  0  0  0
    6.1110   10.5420   -5.7260 C   0  0  0  0  0  0  0  0  0  0  0  0
    7.5330   10.5710   -3.6150 C   0  0  0  0  0  0  0  0  0  0  0  0
    0.5330   11.3530   -2.7970 C   0  0  1  0  0  0  0  0  0  0  0  0
   -0.8390   11.1640   -2.0960 C   0  0  0  0  0  0  0  0  0  0  0  0
   -0.9520   12.2780   -1.0240 C   0  0  0  0  0  0  0  0  0  0  0  0
    0.1930   13.2620   -1.3630 C   0  0  1  0  0  0  0  0  0  0  0  0
   -0.3680   14.1450   -2.5220 C   0  0  0  0  0  0  0  0  0  0  0  0
    0.7280   14.1330   -0.1800 C   0  0  2  0  0  0  0  0  0  0  0  0
   -0.3020   15.0920    0.4420 C   0  0  0  0  0  0  0  0  0  0  0  0
   -0.3550   16.4540   -0.1680 C   0  0  0  0  0  0  0  0  0  0  0  0
    0.5800   16.9850   -0.9770 C   0  0  0  0  0  0  0  0  0  0  0  0
    1.8820   16.2310   -1.2780 C   0  0  1  0  0  0  0  0  0  0  0  0
    3.0860   17.1990   -1.1330 C   0  0  0  0  0  0  0  0  0  0  0  0
    2.9310   18.4570   -1.9820 C   0  0  0  0  0  0  0  0  0  0  0  0
    1.6550   19.2100   -1.6140 C   0  0  2  0  0  0  0  0  0  0  0  0
    1.7870   19.7180   -0.2830 O   0  0  0  0  0  0  0  0  0  0  0  0
    0.3760   18.3320   -1.7130 C   0  0  0  0  0  0  0  0  0  0  0  0
    0.0650   18.0310   -3.2000 C   0  0  0  0  0  0  0  0  0  0  0  0
   -0.8190   19.1680   -1.1810 C   0  0  0  0  0  0  0  0  0  0  0  0
    2.0940   14.8710   -0.4850 C   0  0  1  0  0  0  0  0  0  0  0  0
    2.7630   15.1570    0.8950 C   0  0  0  0  0  0  0  0  0  0  0  0
    3.1000   13.9610   -1.2850 C   0  0  0  0  0  0  0  0  0  0  0  0
    2.4960   13.0350   -2.3580 C   0  0  0  0  0  0  0  0  0  0  0  0
    1.3100   12.2450   -1.7970 C   0  0  2  0  0  0  0  0  0  0  0  0
    1.8480   11.3300   -0.6430 C   0  0  0  0  0  0  0  0  0  0  0  0
    0.4675    8.9484   -1.4645 H   0  0  0  0  0  0  0  0  0  0  0  0
   -0.6395    8.8960   -2.8782 H   0  0  0  0  0  0  0  0  0  0  0  0
    0.8644    7.9137   -2.8782 H   0  0  0  0  0  0  0  0  0  0  0  0
    1.1143    9.9050   -4.2902 H   0  0  0  0  0  0  0  0  0  0  0  0
    2.7898   10.6222   -1.8968 H   0  0  0  0  0  0  0  0  0  0  0  0
    2.9631    8.9784   -2.6788 H   0  0  0  0  0  0  0  0  0  0  0  0
    3.6298    9.9127   -4.7402 H   0  0  0  0  0  0  0  0  0  0  0  0
    3.1631   11.5825   -4.2100 H   0  0  0  0  0  0  0  0  0  0  0  0
    4.7248   10.3520   -2.4293 H   0  0  0  0  0  0  0  0  0  0  0  0
    5.7645    9.5099   -5.8832 H   0  0  0  0  0  0  0  0  0  0  0  0
    5.3986   11.2421   -6.1868 H   0  0  0  0  0  0  0  0  0  0  0  0
    7.1015   10.6704   -6.1868 H   0  0  0  0  0  0  0  0  0  0  0  0
    7.4206   10.5920   -2.5210 H   0  0  0  0  0  0  0  0  0  0  0  0
    7.9127    9.5865   -3.9258 H   0  0  0  0  0  0  0  0  0  0  0  0
    8.2422   11.3523   -3.9258 H   0  0  0  0  0  0  0  0  0  0  0  0
    0.4877   11.8419   -3.7813 H   0  0  0  0  0  0  0  0  0  0  0  0
   -1.6545   11.2590   -2.8281 H   0  0  0  0  0  0  0  0  0  0  0  0
   -0.9139   10.1667   -1.6380 H   0  0  0  0  0  0  0  0  0  0  0  0
   -1.9282   12.7810   -1.0878 H   0  0  0  0  0  0  0  0  0  0  0  0
   -0.8732   11.8823   -0.0007 H   0  0  0  0  0  0  0  0  0  0  0  0
   -0.9126   15.0022   -2.0993 H   0  0  0  0  0  0  0  0  0  0  0  0
    0.4648   14.5091   -3.1416 H   0  0  0  0  0  0  0  0  0  0  0  0
   -1.0514   13.5458   -3.1416 H   0  0  0  0  0  0  0  0  0  0  0  0
    0.9381   13.3785    0.5924 H   0  0  0  0  0  0  0  0  0  0  0  0
   -1.2972   14.6348    0.3397 H   0  0  0  0  0  0  0  0  0  0  0  0
    0.0103   15.2383    1.4865 H   0  0  0  0  0  0  0  0  0  0  0  0
   -1.2324   17.0757    0.0635 H   0  0  0  0  0  0  0  0  0  0  0  0
    1.8016   15.8886   -2.3203 H   0  0  0  0  0  0  0  0  0  0  0  0
    3.1754   17.4949   -0.0773 H   0  0  0  0  0  0  0  0  0  0  0  0
    3.9844   16.6690   -1.4824 H   0  0  0  0  0  0  0  0  0  0  0  0
    3.7975   19.1135   -1.8142 H   0  0  0  0  0  0  0  0  0  0  0  0
    2.8714   18.1614   -3.0399 H   0  0  0  0  0  0  0  0  0  0  0  0
    1.5326   20.0267   -2.3407 H   0  0  0  0  0  0  0  0  0  0  0  0
    1.0620   19.3470    0.2470 H   0  0  0  0  0  0  0  0  0  0  0  0
   -0.7242   17.2672   -3.2622 H   0  0  0  0  0  0  0  0  0  0  0  0
   -0.2755   18.9514   -3.6970 H   0  0  0  0  0  0  0  0  0  0  0  0
    0.9738   17.6606   -3.6970 H   0  0  0  0  0  0  0  0  0  0  0  0
   -0.8100   19.1617   -0.0811 H   0  0  0  0  0  0  0  0  0  0  0  0
   -0.7320   20.2033   -1.5425 H   0  0  0  0  0  0  0  0  0  0  0  0
   -1.7617   18.7314   -1.5425 H   0  0  0  0  0  0  0  0  0  0  0  0
    2.0767   14.8636    1.7030 H   0  0  0  0  0  0  0  0  0  0  0  0
    3.6951   14.5787    0.9775 H   0  0  0  0  0  0  0  0  0  0  0  0
    2.9890   16.2304    0.9775 H   0  0  0  0  0  0  0  0  0  0  0  0
    3.8223   14.6230   -1.7850 H   0  0  0  0  0  0  0  0  0  0  0  0
    3.5367   13.2857   -0.5345 H   0  0  0  0  0  0  0  0  0  0  0  0
    2.1529   13.6443   -3.2071 H   0  0  0  0  0  0  0  0  0  0  0  0
    3.2694   12.3230   -2.6820 H   0  0  0  0  0  0  0  0  0  0  0  0
    1.5869   11.7740    0.3290 H   0  0  0  0  0  0  0  0  0  0  0  0
    1.3930   10.3318   -0.7242 H   0  0  0  0  0  0  0  0  0  0  0  0
    2.9415   11.2423   -0.7242 H   0  0  0  0  0  0  0  0  0  0  0  0
  1  2  1  0
  2  3  1  0
  3  4  1  0
  4  5  1  0
  5  6  1  0
  6  7  1  0
  7  8  1  0
  7  9  1  0
  2 10  1  0
 10 11  1  0
 11 12  1  0
 12 13  1  0
 13 14  1  6
 13 15  1  0
 15 16  1  0
 16 17  1  0
 17 18  2  0
 18 19  1  0
 19 20  1  0
 20 21  1  0
 21 22  1  0
 22 23  1  0
 22 24  1  0
 24 25  1  0
 24 26  1  0
 19 27  1  0
 27 28  1  1
 27 29  1  0
 29 30  1  0
 30 31  1  0
 31 32  1  1
  7  5  1  0
 31 10  1  0
 31 13  1  0
 27 15  1  0
 24 18  1  0
  1 33  1  0
  1 34  1  0
  1 35  1  0
  2 36  1  6
  3 37  1  0
  3 38  1  0
  4 39  1  0
  4 40  1  0
  5 41  1  1
  8 42  1  0
  8 43  1  0
  8 44  1  0
  9 45  1  0
  9 46  1  0
  9 47  1  0
 10 48  1  6
 11 49  1  0
 11 50  1  0
 12 51  1  0
 12 52  1  0
 14 53  1  0
 14 54  1  0
 14 55  1  0
 15 56  1  1
 16 57  1  0
 16 58  1  0
 17 59  1  0
 19 60  1  6
 20 61  1  0
 20 62  1  0
 21 63  1  0
 21 64  1  0
 22 65  1  6
 23 66  1  0
 25 67  1  0
 25 68  1  0
 25 69  1  0
 26 70  1  0
 26 71  1  0
 26 72  1  0
 28 73  1  0
 28 74  1  0
 28 75  1  0
 29 76  1  0
 29 77  1  0
 30 78  1  0
 30 79  1  0
 32 80  1  0
 32 81  1  0
 32 82  1  0
M  END
>  <meeko>  (8) 
{"is_sidechain": [false], "intermolecular_energy": 2.731, "internal_energy": -0.839}

$$$$
EPH_relaxed_0001_pdb2pqr_Repair_40_r2_0001_out
     RDKit          3D

 82 86  0  0  0  0  0  0  0  0999 V2000
    3.1070   18.3720   -3.8850 C   0  0  0  0  0  0  0  0  0  0  0  0
    2.0580   18.2240   -2.7790 C   0  0  2  0  0  0  0  0  0  0  0  0
    2.1130   19.3860   -1.7670 C   0  0  0  0  0  0  0  0  0  0  0  0
    0.8160   20.1940   -1.6880 C   0  0  0  0  0  0  0  0  0  0  0  0
   -0.2940   19.4020   -1.0650 C   0  0  2  0  0  0  0  0  0  0  0  0
   -1.3360   20.1910   -0.4770 O   0  0  0  0  0  0  0  0  0  0  0  0
   -0.5700   19.3780    0.4270 C   0  0  0  0  0  0  0  0  0  0  0  0
    0.2680   20.1610    1.3880 C   0  0  0  0  0  0  0  0  0  0  0  0
   -1.3340   18.2230    0.9950 C   0  0  0  0  0  0  0  0  0  0  0  0
    2.2490   16.8950   -2.0580 C   0  0  1  0  0  0  0  0  0  0  0  0
    2.5880   17.0750   -0.5540 C   0  0  0  0  0  0  0  0  0  0  0  0
    1.9140   15.8990    0.2000 C   0  0  0  0  0  0  0  0  0  0  0  0
    1.4970   14.9100   -0.9130 C   0  0  1  0  0  0  0  0  0  0  0  0
    2.7970   14.1140   -1.2510 C   0  0  0  0  0  0  0  0  0  0  0  0
    0.3070   13.9540   -0.5780 C   0  0  2  0  0  0  0  0  0  0  0  0
    0.5580   12.9840    0.5900 C   0  0  0  0  0  0  0  0  0  0  0  0
    1.1420   11.6640    0.2090 C   0  0  0  0  0  0  0  0  0  0  0  0
    1.1910   11.1610   -1.0390 C   0  0  0  0  0  0  0  0  0  0  0  0
    0.5320   11.8990   -2.2120 C   0  0  1  0  0  0  0  0  0  0  0  0
   -0.2920   10.8950   -3.0580 C   0  0  0  0  0  0  0  0  0  0  0  0
    0.5350    9.6960   -3.5140 C   0  0  0  0  0  0  0  0  0  0  0  0
    1.1240    8.9540   -2.3170 C   0  0  2  0  0  0  0  0  0  0  0  0
    0.0570    8.3610   -1.5710 O   0  0  0  0  0  0  0  0  0  0  0  0
    1.9690    9.8680   -1.3850 C   0  0  0  0  0  0  0  0  0  0  0  0
    3.2830   10.2680   -2.1000 C   0  0  0  0  0  0  0  0  0  0  0  0
    2.3860    9.0310   -0.1460 C   0  0  0  0  0  0  0  0  0  0  0  0
   -0.2950   13.2030   -1.8340 C   0  0  1  0  0  0  0  0  0  0  0  0
   -1.7590   12.8140   -1.4610 C   0  0  0  0  0  0  0  0  0  0  0  0
   -0.3920   14.1350   -3.0990 C   0  0  0  0  0  0  0  0  0  0  0  0
    0.7560   15.1400   -3.3100 C   0  0  0  0  0  0  0  0  0  0  0  0
    1.0430   15.9230   -2.0260 C   0  0  2  0  0  0  0  0  0  0  0  0
   -0.2400   16.7510   -1.6730 C   0  0  0  0  0  0  0  0  0  0  0  0
    4.0997   18.5121   -3.4324 H   0  0  0  0  0  0  0  0  0  0  0  0
    3.1128   17.4658   -4.5085 H   0  0  0  0  0  0  0  0  0  0  0  0
    2.8619   19.2445   -4.5085 H   0  0  0  0  0  0  0  0  0  0  0  0
    1.0672   18.2495   -3.2560 H   0  0  0  0  0  0  0  0  0  0  0  0
    2.3240   18.9695   -0.7710 H   0  0  0  0  0  0  0  0  0  0  0  0
    2.9002   20.0738   -2.1094 H   0  0  0  0  0  0  0  0  0  0  0  0
    0.9939   21.0953   -1.0830 H   0  0  0  0  0  0  0  0  0  0  0  0
    0.5147   20.4595   -2.7121 H   0  0  0  0  0  0  0  0  0  0  0  0
   -0.1665   18.5979   -1.8047 H   0  0  0  0  0  0  0  0  0  0  0  0
   -0.0133   19.8981    2.4184 H   0  0  0  0  0  0  0  0  0  0  0  0
    1.3299   19.9240    1.2260 H   0  0  0  0  0  0  0  0  0  0  0  0
    0.1035   21.2365    1.2260 H   0  0  0  0  0  0  0  0  0  0  0  0
   -1.3040   18.2683    2.0937 H   0  0  0  0  0  0  0  0  0  0  0  0
   -2.3788   18.2714    0.6544 H   0  0  0  0  0  0  0  0  0  0  0  0
   -0.8806   17.2804    0.6544 H   0  0  0  0  0  0  0  0  0  0  0  0
    3.0589   16.4689   -2.6683 H   0  0  0  0  0  0  0  0  0  0  0  0
    3.6775   17.0458   -0.4051 H   0  0  0  0  0  0  0  0  0  0  0  0
    2.2250   18.0438   -0.1803 H   0  0  0  0  0  0  0  0  0  0  0  0
    2.6235   15.4254    0.8945 H   0  0  0  0  0  0  0  0  0  0  0  0
    1.0581   16.2287    0.8073 H   0  0  0  0  0  0  0  0  0  0  0  0
    3.2938   13.8098   -0.3179 H   0  0  0  0  0  0  0  0  0  0  0  0
    2.5376   13.2197   -1.8366 H   0  0  0  0  0  0  0  0  0  0  0  0
    3.4756   14.7516   -1.8366 H   0  0  0  0  0  0  0  0  0  0  0  0
   -0.4648   14.6536   -0.2247 H   0  0  0  0  0  0  0  0  0  0  0  0
    1.2492   13.4710    1.2936 H   0  0  0  0  0  0  0  0  0  0  0  0
   -0.4299   12.7662    1.0220 H   0  0  0  0  0  0  0  0  0  0  0  0
    1.5684   11.0503    1.0162 H   0  0  0  0  0  0  0  0  0  0  0  0
    1.3557   12.3071   -2.8161 H   0  0  0  0  0  0  0  0  0  0  0  0
   -1.1349   10.5318   -2.4518 H   0  0  0  0  0  0  0  0  0  0  0  0
   -0.6385   11.4232   -3.9585 H   0  0  0  0  0  0  0  0  0  0  0  0
   -0.1095    9.0090   -4.0821 H   0  0  0  0  0  0  0  0  0  0  0  0
    1.3607   10.0577   -4.1444 H   0  0  0  0  0  0  0  0  0  0  0  0
    1.8083    8.1870   -2.7087 H   0  0  0  0  0  0  0  0  0  0  0  0
   -0.6470    8.1270   -2.1990 H   0  0  0  0  0  0  0  0  0  0  0  0
    4.0522   10.5022   -1.3494 H   0  0  0  0  0  0  0  0  0  0  0  0
    3.6266    9.4338   -2.7293 H   0  0  0  0  0  0  0  0  0  0  0  0
    3.1035   11.1522   -2.7293 H   0  0  0  0  0  0  0  0  0  0  0  0
    2.1154    9.5742    0.7714 H   0  0  0  0  0  0  0  0  0  0  0  0
    1.8652    8.0623   -0.1657 H   0  0  0  0  0  0  0  0  0  0  0  0
    3.4730    8.8633   -0.1657 H   0  0  0  0  0  0  0  0  0  0  0  0
   -1.8634   12.7862   -0.3663 H   0  0  0  0  0  0  0  0  0  0  0  0
   -2.4536   13.5588   -1.8768 H   0  0  0  0  0  0  0  0  0  0  0  0
   -1.9923   11.8227   -1.8768 H   0  0  0  0  0  0  0  0  0  0  0  0
   -0.4350   13.4874   -3.9871 H   0  0  0  0  0  0  0  0  0  0  0  0
   -1.2881   14.7515   -2.9347 H   0  0  0  0  0  0  0  0  0  0  0  0
    1.6627   14.5930   -3.6080 H   0  0  0  0  0  0  0  0  0  0  0  0
    0.4593   15.8511   -4.0951 H   0  0  0  0  0  0  0  0  0  0  0  0
   -0.3439   16.8180   -0.5800 H   0  0  0  0  0  0  0  0  0  0  0  0
   -0.1513   17.7627   -2.0956 H   0  0  0  0  0  0  0  0  0  0  0  0
   -1.1253   16.2534   -2.0956 H   0  0  0  0  0  0  0  0  0  0  0  0
  1  2  1  0
  2  3  1  0
  3  4  1  0
  4  5  1  0
  5  6  1  0
  6  7  1  0
  7  8  1  0
  7  9  1  0
  2 10  1  0
 10 11  1  0
 11 12  1  0
 12 13  1  0
 13 14  1  6
 13 15  1  0
 15 16  1  0
 16 17  1  0
 17 18  2  0
 18 19  1  0
 19 20  1  0
 20 21  1  0
 21 22  1  0
 22 23  1  0
 22 24  1  0
 24 25  1  0
 24 26  1  0
 19 27  1  0
 27 28  1  1
 27 29  1  0
 29 30  1  0
 30 31  1  0
 31 32  1  1
  7  5  1  0
 31 10  1  0
 31 13  1  0
 27 15  1  0
 24 18  1  0
  1 33  1  0
  1 34  1  0
  1 35  1  0
  2 36  1  6
  3 37  1  0
  3 38  1  0
  4 39  1  0
  4 40  1  0
  5 41  1  6
  8 42  1  0
  8 43  1  0
  8 44  1  0
  9 45  1  0
  9 46  1  0
  9 47  1  0
 10 48  1  6
 11 49  1  0
 11 50  1  0
 12 51  1  0
 12 52  1  0
 14 53  1  0
 14 54  1  0
 14 55  1  0
 15 56  1  1
 16 57  1  0
 16 58  1  0
 17 59  1  0
 19 60  1  6
 20 61  1  0
 20 62  1  0
 21 63  1  0
 21 64  1  0
 22 65  1  6
 23 66  1  0
 25 67  1  0
 25 68  1  0
 25 69  1  0
 26 70  1  0
 26 71  1  0
 26 72  1  0
 28 73  1  0
 28 74  1  0
 28 75  1  0
 29 76  1  0
 29 77  1  0
 30 78  1  0
 30 79  1  0
 32 80  1  0
 32 81  1  0
 32 82  1  0
M  END
>  <meeko>  (9) 
{"is_sidechain": [false], "intermolecular_energy": 2.731, "internal_energy": -0.839}

$$$$
EPH_relaxed_0001_pdb2pqr_Repair_40_r2_0001_out
     RDKit          3D

 82 86  0  0  0  0  0  0  0  0999 V2000
  -14.3100    5.4840    0.6210 C   0  0  0  0  0  0  0  0  0  0  0  0
  -13.7570    6.8890    0.3690 C   0  0  2  0  0  0  0  0  0  0  0  0
  -14.8710    7.8990    0.0260 C   0  0  0  0  0  0  0  0  0  0  0  0
  -14.4470    9.3610    0.1910 C   0  0  0  0  0  0  0  0  0  0  0  0
  -15.2040   10.2650   -0.7350 C   0  0  2  0  0  0  0  0  0  0  0  0
  -15.1340    9.8980   -2.1190 O   0  0  0  0  0  0  0  0  0  0  0  0
  -14.5360   11.1560   -1.7660 C   0  0  0  0  0  0  0  0  0  0  0  0
  -13.0480   11.1870   -1.9230 C   0  0  0  0  0  0  0  0  0  0  0  0
  -15.2870   12.3450   -2.2780 C   0  0  0  0  0  0  0  0  0  0  0  0
  -12.7280    6.8480   -0.7550 C   0  0  1  0  0  0  0  0  0  0  0  0
  -13.1070    7.7670   -1.9470 C   0  0  0  0  0  0  0  0  0  0  0  0
  -11.7810    8.3360   -2.5130 C   0  0  0  0  0  0  0  0  0  0  0  0
  -10.6760    7.4790   -1.8530 C   0  0  1  0  0  0  0  0  0  0  0  0
  -10.6230    6.1700   -2.7020 C   0  0  0  0  0  0  0  0  0  0  0  0
   -9.2660    8.1450   -1.7300 C   0  0  2  0  0  0  0  0  0  0  0  0
   -8.5940    8.5010   -3.0680 C   0  0  0  0  0  0  0  0  0  0  0  0
   -7.7290    7.4340   -3.6520 C   0  0  0  0  0  0  0  0  0  0  0  0
   -7.2720    6.3520   -2.9950 C   0  0  0  0  0  0  0  0  0  0  0  0
   -7.5400    6.1690   -1.4960 C   0  0  1  0  0  0  0  0  0  0  0  0
   -6.2270    5.7490   -0.7820 C   0  0  0  0  0  0  0  0  0  0  0  0
   -5.5850    4.5190   -1.4150 C   0  0  0  0  0  0  0  0  0  0  0  0
   -5.2810    4.7600   -2.8910 C   0  0  2  0  0  0  0  0  0  0  0  0
   -4.2620    5.7600   -2.9940 O   0  0  0  0  0  0  0  0  0  0  0  0
   -6.5270    5.1980   -3.7100 C   0  0  0  0  0  0  0  0  0  0  0  0
   -7.5030    4.0030   -3.8510 C   0  0  0  0  0  0  0  0  0  0  0  0
   -6.0560    5.5450   -5.1480 C   0  0  0  0  0  0  0  0  0  0  0  0
   -8.2690    7.3790   -0.7690 C   0  0  1  0  0  0  0  0  0  0  0  0
   -7.2170    8.4270   -0.2930 C   0  0  0  0  0  0  0  0  0  0  0  0
   -8.9820    6.8450    0.5290 C   0  0  0  0  0  0  0  0  0  0  0  0
  -10.4180    6.3100    0.3640 C   0  0  0  0  0  0  0  0  0  0  0  0
  -11.2860    7.3030   -0.4150 C   0  0  2  0  0  0  0  0  0  0  0  0
  -11.3760    8.6220    0.4250 C   0  0  0  0  0  0  0  0  0  0  0  0
  -14.3799    5.3063    1.7043 H   0  0  0  0  0  0  0  0  0  0  0  0
  -15.3095    5.3970    0.1699 H   0  0  0  0  0  0  0  0  0  0  0  0
  -13.6380    4.7391    0.1699 H   0  0  0  0  0  0  0  0  0  0  0  0
  -13.2788    7.2283    1.2997 H   0  0  0  0  0  0  0  0  0  0  0  0
  -15.1735    7.7408   -1.0197 H   0  0  0  0  0  0  0  0  0  0  0  0
  -15.6954    7.7212    0.7323 H   0  0  0  0  0  0  0  0  0  0  0  0
  -14.6377    9.6727    1.2285 H   0  0  0  0  0  0  0  0  0  0  0  0
  -13.3771    9.4377   -0.0530 H   0  0  0  0  0  0  0  0  0  0  0  0
  -15.9554   10.4705    0.0416 H   0  0  0  0  0  0  0  0  0  0  0  0
  -12.5747   11.1969   -0.9301 H   0  0  0  0  0  0  0  0  0  0  0  0
  -12.7191   10.2955   -2.4772 H   0  0  0  0  0  0  0  0  0  0  0  0
  -12.7565   12.0914   -2.4772 H   0  0  0  0  0  0  0  0  0  0  0  0
  -15.6605   12.9363   -1.4289 H   0  0  0  0  0  0  0  0  0  0  0  0
  -14.6169   12.9659   -2.8907 H   0  0  0  0  0  0  0  0  0  0  0  0
  -16.1356   12.0067   -2.8907 H   0  0  0  0  0  0  0  0  0  0  0  0
  -12.7413    5.7709   -0.9777 H   0  0  0  0  0  0  0  0  0  0  0  0
  -13.6310    7.1868   -2.7208 H   0  0  0  0  0  0  0  0  0  0  0  0
  -13.7777    8.5766   -1.6235 H   0  0  0  0  0  0  0  0  0  0  0  0
  -11.7503    8.2333   -3.6078 H   0  0  0  0  0  0  0  0  0  0  0  0
  -11.6617    9.4082   -2.2982 H   0  0  0  0  0  0  0  0  0  0  0  0
  -10.5877    5.2990   -2.0311 H   0  0  0  0  0  0  0  0  0  0  0  0
  -11.5194    6.1080   -3.3366 H   0  0  0  0  0  0  0  0  0  0  0  0
   -9.7246    6.1807   -3.3366 H   0  0  0  0  0  0  0  0  0  0  0  0
   -9.4999    9.1055   -1.2476 H   0  0  0  0  0  0  0  0  0  0  0  0
   -9.3864    8.7319   -3.7952 H   0  0  0  0  0  0  0  0  0  0  0  0
   -7.9278    9.3505   -2.8569 H   0  0  0  0  0  0  0  0  0  0  0  0
   -7.4408    7.5410   -4.7082 H   0  0  0  0  0  0  0  0  0  0  0  0
   -8.2829    5.3616   -1.4168 H   0  0  0  0  0  0  0  0  0  0  0  0
   -5.5142    6.5852   -0.8342 H   0  0  0  0  0  0  0  0  0  0  0  0
   -6.4788    5.4962    0.2585 H   0  0  0  0  0  0  0  0  0  0  0  0
   -4.6474    4.2906   -0.8871 H   0  0  0  0  0  0  0  0  0  0  0  0
   -6.2873    3.6762   -1.3346 H   0  0  0  0  0  0  0  0  0  0  0  0
   -4.9450    3.8040   -3.3189 H   0  0  0  0  0  0  0  0  0  0  0  0
   -4.2950    6.1210   -3.8960 H   0  0  0  0  0  0  0  0  0  0  0  0
   -7.7937    3.6471   -2.8516 H   0  0  0  0  0  0  0  0  0  0  0  0
   -8.3997    4.3249   -4.4008 H   0  0  0  0  0  0  0  0  0  0  0  0
   -7.0085    3.1886   -4.4008 H   0  0  0  0  0  0  0  0  0  0  0  0
   -5.1714    6.1967   -5.0968 H   0  0  0  0  0  0  0  0  0  0  0  0
   -5.7987    4.6190   -5.6830 H   0  0  0  0  0  0  0  0  0  0  0  0
   -6.8642    6.0652   -5.6830 H   0  0  0  0  0  0  0  0  0  0  0  0
   -7.1939    8.4500    0.8065 H   0  0  0  0  0  0  0  0  0  0  0  0
   -6.2236    8.1488   -0.6749 H   0  0  0  0  0  0  0  0  0  0  0  0
   -7.4914    9.4214   -0.6749 H   0  0  0  0  0  0  0  0  0  0  0  0
   -8.3671    6.0278    0.9340 H   0  0  0  0  0  0  0  0  0  0  0  0
   -9.0757    7.7216    1.1868 H   0  0  0  0  0  0  0  0  0  0  0  0
  -10.3860    5.3551   -0.1811 H   0  0  0  0  0  0  0  0  0  0  0  0
  -10.8568    6.1683    1.3627 H   0  0  0  0  0  0  0  0  0  0  0  0
  -11.3592    8.3759    1.4970 H   0  0  0  0  0  0  0  0  0  0  0  0
  -10.5199    9.2693    0.1840 H   0  0  0  0  0  0  0  0  0  0  0  0
  -12.3121    9.1471    0.1840 H   0  0  0  0  0  0  0  0  0  0  0  0
  1  2  1  0
  2  3  1  0
  3  4  1  0
  4  5  1  0
  5  6  1  0
  6  7  1  0
  7  8  1  0
  7  9  1  0
  2 10  1  0
 10 11  1  0
 11 12  1  0
 12 13  1  0
 13 14  1  6
 13 15  1  0
 15 16  1  0
 16 17  1  0
 17 18  2  0
 18 19  1  0
 19 20  1  0
 20 21  1  0
 21 22  1  0
 22 23  1  0
 22 24  1  0
 24 25  1  0
 24 26  1  0
 19 27  1  0
 27 28  1  1
 27 29  1  0
 29 30  1  0
 30 31  1  0
 31 32  1  1
  7  5  1  0
 31 10  1  0
 31 13  1  0
 27 15  1  0
 24 18  1  0
  1 33  1  0
  1 34  1  0
  1 35  1  0
  2 36  1  1
  3 37  1  0
  3 38  1  0
  4 39  1  0
  4 40  1  0
  5 41  1  1
  8 42  1  0
  8 43  1  0
  8 44  1  0
  9 45  1  0
  9 46  1  0
  9 47  1  0
 10 48  1  6
 11 49  1  0
 11 50  1  0
 12 51  1  0
 12 52  1  0
 14 53  1  0
 14 54  1  0
 14 55  1  0
 15 56  1  1
 16 57  1  0
 16 58  1  0
 17 59  1  0
 19 60  1  6
 20 61  1  0
 20 62  1  0
 21 63  1  0
 21 64  1  0
 22 65  1  6
 23 66  1  0
 25 67  1  0
 25 68  1  0
 25 69  1  0
 26 70  1  0
 26 71  1  0
 26 72  1  0
 28 73  1  0
 28 74  1  0
 28 75  1  0
 29 76  1  0
 29 77  1  0
 30 78  1  0
 30 79  1  0
 32 80  1  0
 32 81  1  0
 32 82  1  0
M  END
>  <meeko>  (10) 
{"is_sidechain": [false], "intermolecular_energy": 2.731, "internal_energy": -0.839}

$$$$
EPH_relaxed_0001_pdb2pqr_Repair_40_r2_0001_out
     RDKit          3D

 82 86  0  0  0  0  0  0  0  0999 V2000
    2.6320   19.3740   -1.3070 C   0  0  0  0  0  0  0  0  0  0  0  0
    1.1940   19.2530   -0.7940 C   0  0  2  0  0  0  0  0  0  0  0  0
    0.9300   20.1710    0.4160 C   0  0  0  0  0  0  0  0  0  0  0  0
    1.6910   19.7590    1.6790 C   0  0  0  0  0  0  0  0  0  0  0  0
    3.1750   19.8390    1.4830 C   0  0  2  0  0  0  0  0  0  0  0  0
    3.8680   18.5950    1.6460 O   0  0  0  0  0  0  0  0  0  0  0  0
    4.1780   19.6240    2.6010 C   0  0  0  0  0  0  0  0  0  0  0  0
    3.7380   19.3120    3.9960 C   0  0  0  0  0  0  0  0  0  0  0  0
    5.5540   20.1940    2.4460 C   0  0  0  0  0  0  0  0  0  0  0  0
    0.8950   17.8040   -0.4250 C   0  0  1  0  0  0  0  0  0  0  0  0
   -0.4170   17.6540    0.3900 C   0  0  0  0  0  0  0  0  0  0  0  0
   -1.0600   16.3110   -0.0420 C   0  0  0  0  0  0  0  0  0  0  0  0
    0.0530   15.5820   -0.8300 C   0  0  1  0  0  0  0  0  0  0  0  0
    0.9640   14.9400    0.2620 C   0  0  0  0  0  0  0  0  0  0  0  0
   -0.4230   14.5240   -1.8790 C   0  0  2  0  0  0  0  0  0  0  0  0
   -1.1940   13.3280   -1.2950 C   0  0  0  0  0  0  0  0  0  0  0  0
   -0.3550   12.1550   -0.9110 C   0  0  0  0  0  0  0  0  0  0  0  0
    0.9210   11.9490   -1.2870 C   0  0  0  0  0  0  0  0  0  0  0  0
    1.6180   12.9040   -2.2650 C   0  0  1  0  0  0  0  0  0  0  0  0
    2.3570   12.0820   -3.3530 C   0  0  0  0  0  0  0  0  0  0  0  0
    3.3150   11.0540   -2.7590 C   0  0  0  0  0  0  0  0  0  0  0  0
    2.5760   10.0870   -1.8380 C   0  0  2  0  0  0  0  0  0  0  0  0
    1.6800    9.2950   -2.6250 O   0  0  0  0  0  0  0  0  0  0  0  0
    1.7850   10.8020   -0.7070 C   0  0  0  0  0  0  0  0  0  0  0  0
    2.7760   11.4090    0.3160 C   0  0  0  0  0  0  0  0  0  0  0  0
    0.9730    9.7250    0.0610 C   0  0  0  0  0  0  0  0  0  0  0  0
    0.7060   14.0510   -2.8810 C   0  0  1  0  0  0  0  0  0  0  0  0
   -0.0210   13.5260   -4.1560 C   0  0  0  0  0  0  0  0  0  0  0  0
    1.6250   15.2400   -3.3520 C   0  0  0  0  0  0  0  0  0  0  0  0
    1.9620   16.3160   -2.3010 C   0  0  0  0  0  0  0  0  0  0  0  0
    0.6970   16.8000   -1.5870 C   0  0  2  0  0  0  0  0  0  0  0  0
   -0.2300   17.4710   -2.6580 C   0  0  0  0  0  0  0  0  0  0  0  0
    3.3224   19.4321   -0.4526 H   0  0  0  0  0  0  0  0  0  0  0  0
    2.8785   18.4934   -1.9184 H   0  0  0  0  0  0  0  0  0  0  0  0
    2.7279   20.2834   -1.9184 H   0  0  0  0  0  0  0  0  0  0  0  0
    0.5243   19.5761   -1.6047 H   0  0  0  0  0  0  0  0  0  0  0  0
    1.2309   21.1944    0.1476 H   0  0  0  0  0  0  0  0  0  0  0  0
   -0.1426   20.0961    0.6483 H   0  0  0  0  0  0  0  0  0  0  0  0
    1.4036   20.4289    2.5028 H   0  0  0  0  0  0  0  0  0  0  0  0
    1.4315   18.7155    1.9106 H   0  0  0  0  0  0  0  0  0  0  0  0
    3.0581   20.6427    0.7411 H   0  0  0  0  0  0  0  0  0  0  0  0
    4.4192   19.7950    4.7120 H   0  0  0  0  0  0  0  0  0  0  0  0
    2.7161   19.6884    4.1510 H   0  0  0  0  0  0  0  0  0  0  0  0
    3.7551   18.2231    4.1510 H   0  0  0  0  0  0  0  0  0  0  0  0
    5.9901   20.3747    3.4396 H   0  0  0  0  0  0  0  0  0  0  0  0
    6.1851   19.4833    1.8923 H   0  0  0  0  0  0  0  0  0  0  0  0
    5.4976   21.1428    1.8923 H   0  0  0  0  0  0  0  0  0  0  0  0
    1.8145   17.5613    0.1278 H   0  0  0  0  0  0  0  0  0  0  0  0
   -0.1943   17.6383    1.4671 H   0  0  0  0  0  0  0  0  0  0  0  0
   -1.0980   18.4970    0.2014 H   0  0  0  0  0  0  0  0  0  0  0  0
   -1.3613   15.7238    0.8380 H   0  0  0  0  0  0  0  0  0  0  0  0
   -1.9693   16.4579   -0.6433 H   0  0  0  0  0  0  0  0  0  0  0  0
    0.5848   15.2072    1.2594 H   0  0  0  0  0  0  0  0  0  0  0  0
    0.9574   13.8459    0.1482 H   0  0  0  0  0  0  0  0  0  0  0  0
    1.9921   15.3142    0.1482 H   0  0  0  0  0  0  0  0  0  0  0  0
   -1.1563   15.0917   -2.4706 H   0  0  0  0  0  0  0  0  0  0  0  0
   -1.7272   13.6731   -0.3969 H   0  0  0  0  0  0  0  0  0  0  0  0
   -1.8613   12.9759   -2.0954 H   0  0  0  0  0  0  0  0  0  0  0  0
   -0.8187   11.3942   -0.2659 H   0  0  0  0  0  0  0  0  0  0  0  0
    2.3464   13.4730   -1.6686 H   0  0  0  0  0  0  0  0  0  0  0  0
    1.6101   11.5555   -3.9653 H   0  0  0  0  0  0  0  0  0  0  0  0
    2.9520   12.7841   -3.9555 H   0  0  0  0  0  0  0  0  0  0  0  0
    3.7844   10.4856   -3.5755 H   0  0  0  0  0  0  0  0  0  0  0  0
    4.0783   11.5846   -2.1708 H   0  0  0  0  0  0  0  0  0  0  0  0
    3.3319    9.4592   -1.3436 H   0  0  0  0  0  0  0  0  0  0  0  0
    2.0850    8.4190   -2.7390 H   0  0  0  0  0  0  0  0  0  0  0  0
    2.4263   11.1948    1.3367 H   0  0  0  0  0  0  0  0  0  0  0  0
    3.7720   10.9658    0.1691 H   0  0  0  0  0  0  0  0  0  0  0  0
    2.8338   12.4976    0.1691 H   0  0  0  0  0  0  0  0  0  0  0  0
    1.0901    9.8803    1.1437 H   0  0  0  0  0  0  0  0  0  0  0  0
   -0.0904    9.8064   -0.2082 H   0  0  0  0  0  0  0  0  0  0  0  0
    1.3439    8.7250   -0.2082 H   0  0  0  0  0  0  0  0  0  0  0  0
   -0.8797   12.9059   -3.8593 H   0  0  0  0  0  0  0  0  0  0  0  0
   -0.3740   14.3790   -4.7542 H   0  0  0  0  0  0  0  0  0  0  0  0
    0.6777   12.9227   -4.7542 H   0  0  0  0  0  0  0  0  0  0  0  0
    2.5741   14.8084   -3.7026 H   0  0  0  0  0  0  0  0  0  0  0  0
    1.0439   15.7644   -4.1249 H   0  0  0  0  0  0  0  0  0  0  0  0
    2.6534   15.8901   -1.5590 H   0  0  0  0  0  0  0  0  0  0  0  0
    2.4256   17.1725   -2.8123 H   0  0  0  0  0  0  0  0  0  0  0  0
   -1.0209   18.0435   -2.1513 H   0  0  0  0  0  0  0  0  0  0  0  0
    0.3668   18.1478   -3.2872 H   0  0  0  0  0  0  0  0  0  0  0  0
   -0.6865   16.6927   -3.2872 H   0  0  0  0  0  0  0  0  0  0  0  0
  1  2  1  0
  2  3  1  0
  3  4  1  0
  4  5  1  0
  5  6  1  0
  6  7  1  0
  7  8  1  0
  7  9  1  0
  2 10  1  0
 10 11  1  0
 11 12  1  0
 12 13  1  0
 13 14  1  1
 13 15  1  0
 15 16  1  0
 16 17  1  0
 17 18  2  0
 18 19  1  0
 19 20  1  0
 20 21  1  0
 21 22  1  0
 22 23  1  0
 22 24  1  0
 24 25  1  0
 24 26  1  0
 19 27  1  0
 27 28  1  6
 27 29  1  0
 29 30  1  0
 30 31  1  0
 31 32  1  6
  7  5  1  0
 31 10  1  0
 31 13  1  0
 27 15  1  0
 24 18  1  0
  1 33  1  0
  1 34  1  0
  1 35  1  0
  2 36  1  6
  3 37  1  0
  3 38  1  0
  4 39  1  0
  4 40  1  0
  5 41  1  6
  8 42  1  0
  8 43  1  0
  8 44  1  0
  9 45  1  0
  9 46  1  0
  9 47  1  0
 10 48  1  1
 11 49  1  0
 11 50  1  0
 12 51  1  0
 12 52  1  0
 14 53  1  0
 14 54  1  0
 14 55  1  0
 15 56  1  6
 16 57  1  0
 16 58  1  0
 17 59  1  0
 19 60  1  1
 20 61  1  0
 20 62  1  0
 21 63  1  0
 21 64  1  0
 22 65  1  1
 23 66  1  0
 25 67  1  0
 25 68  1  0
 25 69  1  0
 26 70  1  0
 26 71  1  0
 26 72  1  0
 28 73  1  0
 28 74  1  0
 28 75  1  0
 29 76  1  0
 29 77  1  0
 30 78  1  0
 30 79  1  0
 32 80  1  0
 32 81  1  0
 32 82  1  0
M  END
>  <meeko>  (11) 
{"is_sidechain": [false], "intermolecular_energy": 2.731, "internal_energy": -0.839}

$$$$
EPH_relaxed_0001_pdb2pqr_Repair_40_r2_0001_out
     RDKit          3D

 82 86  0  0  0  0  0  0  0  0999 V2000
   -0.8490   16.3580   -5.8270 C   0  0  0  0  0  0  0  0  0  0  0  0
    0.2230   15.6450   -6.6560 C   0  0  2  0  0  0  0  0  0  0  0  0
   -0.2040   15.4650   -8.1260 C   0  0  0  0  0  0  0  0  0  0  0  0
    0.4230   16.4860   -9.0790 C   0  0  0  0  0  0  0  0  0  0  0  0
    1.8280   16.1130   -9.4440 C   0  0  2  0  0  0  0  0  0  0  0  0
    2.2960   16.6760  -10.6770 O   0  0  0  0  0  0  0  0  0  0  0  0
    2.1800   15.2440  -10.6370 C   0  0  0  0  0  0  0  0  0  0  0  0
    1.1220   14.6930  -11.5400 C   0  0  0  0  0  0  0  0  0  0  0  0
    3.4970   14.5330  -10.6400 C   0  0  0  0  0  0  0  0  0  0  0  0
    0.5430   14.2900   -6.0370 C   0  0  1  0  0  0  0  0  0  0  0  0
    1.8060   13.6330   -6.6560 C   0  0  0  0  0  0  0  0  0  0  0  0
    2.5160   12.8640   -5.5130 C   0  0  0  0  0  0  0  0  0  0  0  0
    1.4790   12.8240   -4.3660 C   0  0  1  0  0  0  0  0  0  0  0  0
    0.5210   11.6480   -4.7320 C   0  0  0  0  0  0  0  0  0  0  0  0
    2.0540   12.6720   -2.9200 C   0  0  2  0  0  0  0  0  0  0  0  0
    2.8230   11.3650   -2.6580 C   0  0  0  0  0  0  0  0  0  0  0  0
    1.9980   10.2310   -2.1470 C   0  0  0  0  0  0  0  0  0  0  0  0
    0.7560   10.3340   -1.6390 C   0  0  0  0  0  0  0  0  0  0  0  0
    0.0930   11.7040   -1.4500 C   0  0  1  0  0  0  0  0  0  0  0  0
   -0.5500   11.7780   -0.0400 C   0  0  0  0  0  0  0  0  0  0  0  0
   -1.5110   10.6240    0.2260 C   0  0  0  0  0  0  0  0  0  0  0  0
   -0.8010    9.2800    0.0850 C   0  0  2  0  0  0  0  0  0  0  0  0
    0.1670    9.1580    1.1320 O   0  0  0  0  0  0  0  0  0  0  0  0
   -0.1070    9.0950   -1.2930 C   0  0  0  0  0  0  0  0  0  0  0  0
   -1.1790    8.9260   -2.3970 C   0  0  0  0  0  0  0  0  0  0  0  0
    0.6880    7.7620   -1.2520 C   0  0  0  0  0  0  0  0  0  0  0  0
    1.0050   12.9660   -1.7720 C   0  0  1  0  0  0  0  0  0  0  0  0
    1.8280   13.3630   -0.5080 C   0  0  0  0  0  0  0  0  0  0  0  0
    0.0810   14.1960   -2.1050 C   0  0  0  0  0  0  0  0  0  0  0  0
   -0.3550   14.3590   -3.5740 C   0  0  0  0  0  0  0  0  0  0  0  0
    0.8470   14.2550   -4.5180 C   0  0  2  0  0  0  0  0  0  0  0  0
    1.8180   15.4400   -4.1880 C   0  0  0  0  0  0  0  0  0  0  0  0
   -0.6382   16.2178   -4.7565 H   0  0  0  0  0  0  0  0  0  0  0  0
   -0.8420   17.4320   -6.0645 H   0  0  0  0  0  0  0  0  0  0  0  0
   -1.8368   15.9364   -6.0645 H   0  0  0  0  0  0  0  0  0  0  0  0
    1.1222   16.2785   -6.6488 H   0  0  0  0  0  0  0  0  0  0  0  0
    0.0925   14.4574   -8.4528 H   0  0  0  0  0  0  0  0  0  0  0  0
   -1.2929   15.6157   -8.1649 H   0  0  0  0  0  0  0  0  0  0  0  0
   -0.1823   16.5363   -9.9961 H   0  0  0  0  0  0  0  0  0  0  0  0
    0.4481   17.4606   -8.5696 H   0  0  0  0  0  0  0  0  0  0  0  0
    2.1147   16.0610   -8.3833 H   0  0  0  0  0  0  0  0  0  0  0  0
    0.3075   14.2688  -10.9344 H   0  0  0  0  0  0  0  0  0  0  0  0
    0.7254   15.4991  -12.1748 H   0  0  0  0  0  0  0  0  0  0  0  0
    1.5552   13.9059  -12.1748 H   0  0  0  0  0  0  0  0  0  0  0  0
    3.8215   14.3578   -9.6036 H   0  0  0  0  0  0  0  0  0  0  0  0
    3.3921   13.5690  -11.1593 H   0  0  0  0  0  0  0  0  0  0  0  0
    4.2454   15.1496  -11.1593 H   0  0  0  0  0  0  0  0  0  0  0  0
   -0.4018   13.7661   -6.2441 H   0  0  0  0  0  0  0  0  0  0  0  0
    1.5169   12.9376   -7.4578 H   0  0  0  0  0  0  0  0  0  0  0  0
    2.4712   14.3916   -7.0942 H   0  0  0  0  0  0  0  0  0  0  0  0
    2.7784   11.8454   -5.8349 H   0  0  0  0  0  0  0  0  0  0  0  0
    3.4567   13.3456   -5.2080 H   0  0  0  0  0  0  0  0  0  0  0  0
    0.1422   11.1831   -3.8098 H   0  0  0  0  0  0  0  0  0  0  0  0
   -0.3236   12.0332   -5.3221 H   0  0  0  0  0  0  0  0  0  0  0  0
    1.0690   10.8987   -5.3221 H   0  0  0  0  0  0  0  0  0  0  0  0
    2.8058   13.4740   -2.8786 H   0  0  0  0  0  0  0  0  0  0  0  0
    3.2872   11.0484   -3.6037 H   0  0  0  0  0  0  0  0  0  0  0  0
    3.5502   11.5937   -1.8649 H   0  0  0  0  0  0  0  0  0  0  0  0
    2.4428    9.2258   -2.1892 H   0  0  0  0  0  0  0  0  0  0  0  0
   -0.6888   11.7726   -2.2208 H   0  0  0  0  0  0  0  0  0  0  0  0
    0.2502   11.7514    0.7143 H   0  0  0  0  0  0  0  0  0  0  0  0
   -1.1274   12.7127    0.0149 H   0  0  0  0  0  0  0  0  0  0  0  0
   -1.9095   10.7153    1.2472 H   0  0  0  0  0  0  0  0  0  0  0  0
   -2.3269   10.6693   -0.5104 H   0  0  0  0  0  0  0  0  0  0  0  0
   -1.5664    8.4934    0.1581 H   0  0  0  0  0  0  0  0  0  0  0  0
    0.3050    8.2090    1.2960 H   0  0  0  0  0  0  0  0  0  0  0  0
   -2.1635    8.7708   -1.9315 H   0  0  0  0  0  0  0  0  0  0  0  0
   -1.2075    9.8307   -3.0220 H   0  0  0  0  0  0  0  0  0  0  0  0
   -0.9278    8.0564   -3.0220 H   0  0  0  0  0  0  0  0  0  0  0  0
    0.8617    7.4707   -0.2056 H   0  0  0  0  0  0  0  0  0  0  0  0
    0.1114    6.9754   -1.7607 H   0  0  0  0  0  0  0  0  0  0  0  0
    1.6541    7.8955   -1.7607 H   0  0  0  0  0  0  0  0  0  0  0  0
    1.2645   13.0912    0.3967 H   0  0  0  0  0  0  0  0  0  0  0  0
    2.7902   12.8300   -0.5146 H   0  0  0  0  0  0  0  0  0  0  0  0
    2.0098   14.4479   -0.5146 H   0  0  0  0  0  0  0  0  0  0  0  0
   -0.8301   14.1026   -1.4957 H   0  0  0  0  0  0  0  0  0  0  0  0
    0.6927   15.0836   -1.8858 H   0  0  0  0  0  0  0  0  0  0  0  0
   -1.0784   13.5691   -3.8243 H   0  0  0  0  0  0  0  0  0  0  0  0
   -0.8116   15.3523   -3.6960 H   0  0  0  0  0  0  0  0  0  0  0  0
    1.9068   15.5483   -3.0970 H   0  0  0  0  0  0  0  0  0  0  0  0
    2.8091   15.2325   -4.6177 H   0  0  0  0  0  0  0  0  0  0  0  0
    1.4197   16.3710   -4.6177 H   0  0  0  0  0  0  0  0  0  0  0  0
  1  2  1  0
  2  3  1  0
  3  4  1  0
  4  5  1  0
  5  6  1  0
  6  7  1  0
  7  8  1  0
  7  9  1  0
  2 10  1  0
 10 11  1  0
 11 12  1  0
 12 13  1  0
 13 14  1  6
 13 15  1  0
 15 16  1  0
 16 17  1  0
 17 18  2  0
 18 19  1  0
 19 20  1  0
 20 21  1  0
 21 22  1  0
 22 23  1  0
 22 24  1  0
 24 25  1  0
 24 26  1  0
 19 27  1  0
 27 28  1  1
 27 29  1  0
 29 30  1  0
 30 31  1  0
 31 32  1  1
  7  5  1  0
 31 10  1  0
 31 13  1  0
 27 15  1  0
 24 18  1  0
  1 33  1  0
  1 34  1  0
  1 35  1  0
  2 36  1  6
  3 37  1  0
  3 38  1  0
  4 39  1  0
  4 40  1  0
  5 41  1  1
  8 42  1  0
  8 43  1  0
  8 44  1  0
  9 45  1  0
  9 46  1  0
  9 47  1  0
 10 48  1  1
 11 49  1  0
 11 50  1  0
 12 51  1  0
 12 52  1  0
 14 53  1  0
 14 54  1  0
 14 55  1  0
 15 56  1  6
 16 57  1  0
 16 58  1  0
 17 59  1  0
 19 60  1  6
 20 61  1  0
 20 62  1  0
 21 63  1  0
 21 64  1  0
 22 65  1  1
 23 66  1  0
 25 67  1  0
 25 68  1  0
 25 69  1  0
 26 70  1  0
 26 71  1  0
 26 72  1  0
 28 73  1  0
 28 74  1  0
 28 75  1  0
 29 76  1  0
 29 77  1  0
 30 78  1  0
 30 79  1  0
 32 80  1  0
 32 81  1  0
 32 82  1  0
M  END
>  <meeko>  (12) 
{"is_sidechain": [false], "intermolecular_energy": 2.731, "internal_energy": -0.839}

$$$$
EPH_relaxed_0001_pdb2pqr_Repair_40_r2_0001_out
     RDKit          3D

 82 86  0  0  0  0  0  0  0  0999 V2000
   -3.7660    7.2000   -3.3930 C   0  0  0  0  0  0  0  0  0  0  0  0
   -3.8030    7.2930   -1.8650 C   0  0  2  0  0  0  0  0  0  0  0  0
   -5.2270    7.1010   -1.3060 C   0  0  0  0  0  0  0  0  0  0  0  0
   -6.3330    7.4070   -2.3200 C   0  0  0  0  0  0  0  0  0  0  0  0
   -7.6680    7.5580   -1.6550 C   0  0  2  0  0  0  0  0  0  0  0  0
   -8.2130    6.3430   -1.1240 O   0  0  0  0  0  0  0  0  0  0  0  0
   -8.9470    6.9500   -2.2000 C   0  0  0  0  0  0  0  0  0  0  0  0
   -8.9530    6.1460   -3.4620 C   0  0  0  0  0  0  0  0  0  0  0  0
  -10.2560    7.5410   -1.7790 C   0  0  0  0  0  0  0  0  0  0  0  0
   -3.2430    8.6370   -1.4120 C   0  0  1  0  0  0  0  0  0  0  0  0
   -3.8590    9.1200   -0.0720 C   0  0  0  0  0  0  0  0  0  0  0  0
   -2.7360    9.8670    0.6930 C   0  0  0  0  0  0  0  0  0  0  0  0
   -1.6210   10.0770   -0.3580 C   0  0  1  0  0  0  0  0  0  0  0  0
   -2.0700   11.3290   -1.1740 C   0  0  0  0  0  0  0  0  0  0  0  0
   -0.1690   10.2410    0.1990 C   0  0  2  0  0  0  0  0  0  0  0  0
    0.0490   11.4680    1.1000 C   0  0  0  0  0  0  0  0  0  0  0  0
    0.4810   12.7100    0.3930 C   0  0  0  0  0  0  0  0  0  0  0  0
    0.9600   12.7680   -0.8640 C   0  0  0  0  0  0  0  0  0  0  0  0
    1.1980   11.4890   -1.6760 C   0  0  1  0  0  0  0  0  0  0  0  0
    2.5920   11.5570   -2.3530 C   0  0  0  0  0  0  0  0  0  0  0  0
    2.7750   12.8210   -3.1880 C   0  0  0  0  0  0  0  0  0  0  0  0
    2.5880   14.0720   -2.3330 C   0  0  2  0  0  0  0  0  0  0  0  0
    3.6530   14.1430   -1.3810 O   0  0  0  0  0  0  0  0  0  0  0  0
    1.2210   14.1090   -1.5940 C   0  0  0  0  0  0  0  0  0  0  0  0
    0.0810   14.3360   -2.6170 C   0  0  0  0  0  0  0  0  0  0  0  0
    1.2180   15.3480   -0.6590 C   0  0  0  0  0  0  0  0  0  0  0  0
    0.9630   10.1220   -0.9000 C   0  0  1  0  0  0  0  0  0  0  0  0
    2.2660    9.7030   -0.1530 C   0  0  0  0  0  0  0  0  0  0  0  0
    0.6650    8.9820   -1.9450 C   0  0  0  0  0  0  0  0  0  0  0  0
   -0.8050    8.7910   -2.3650 C   0  0  0  0  0  0  0  0  0  0  0  0
   -1.7200    8.7160   -1.1390 C   0  0  2  0  0  0  0  0  0  0  0  0
   -1.3060    7.4530   -0.3100 C   0  0  0  0  0  0  0  0  0  0  0  0
   -3.3746    6.2162   -3.6911 H   0  0  0  0  0  0  0  0  0  0  0  0
   -4.7829    7.3265   -3.7928 H   0  0  0  0  0  0  0  0  0  0  0  0
   -3.1139    7.9905   -3.7928 H   0  0  0  0  0  0  0  0  0  0  0  0
   -3.1797    6.4777   -1.4689 H   0  0  0  0  0  0  0  0  0  0  0  0
   -5.3341    6.0559   -0.9801 H   0  0  0  0  0  0  0  0  0  0  0  0
   -5.3454    7.8136   -0.4764 H   0  0  0  0  0  0  0  0  0  0  0  0
   -6.0877    8.3427   -2.8437 H   0  0  0  0  0  0  0  0  0  0  0  0
   -6.3943    6.5651   -3.0253 H   0  0  0  0  0  0  0  0  0  0  0  0
   -7.4166    8.5778   -1.3281 H   0  0  0  0  0  0  0  0  0  0  0  0
   -8.9610    5.0744   -3.2140 H   0  0  0  0  0  0  0  0  0  0  0  0
   -9.8493    6.3930   -4.0499 H   0  0  0  0  0  0  0  0  0  0  0  0
   -8.0531    6.3796   -4.0499 H   0  0  0  0  0  0  0  0  0  0  0  0
  -10.3108    7.5657   -0.6806 H   0  0  0  0  0  0  0  0  0  0  0  0
  -10.3401    8.5644   -2.1735 H   0  0  0  0  0  0  0  0  0  0  0  0
  -11.0792    6.9272   -2.1735 H   0  0  0  0  0  0  0  0  0  0  0  0
   -3.5013    9.2497   -2.2883 H   0  0  0  0  0  0  0  0  0  0  0  0
   -4.7020    9.7995   -0.2658 H   0  0  0  0  0  0  0  0  0  0  0  0
   -4.2406    8.2720    0.5156 H   0  0  0  0  0  0  0  0  0  0  0  0
   -3.1003   10.8336    1.0710 H   0  0  0  0  0  0  0  0  0  0  0  0
   -2.3825    9.3039    1.5694 H   0  0  0  0  0  0  0  0  0  0  0  0
   -2.3586   12.1337   -0.4817 H   0  0  0  0  0  0  0  0  0  0  0  0
   -1.2385   11.6711   -1.8077 H   0  0  0  0  0  0  0  0  0  0  0  0
   -2.9294   11.0648   -1.8077 H   0  0  0  0  0  0  0  0  0  0  0  0
   -0.0680    9.3658    0.8576 H   0  0  0  0  0  0  0  0  0  0  0  0
   -0.8981   11.6829    1.6165 H   0  0  0  0  0  0  0  0  0  0  0  0
    0.8719   11.2034    1.7804 H   0  0  0  0  0  0  0  0  0  0  0  0
    0.4012   13.6577    0.9457 H   0  0  0  0  0  0  0  0  0  0  0  0
    0.4110   11.4655   -2.4441 H   0  0  0  0  0  0  0  0  0  0  0  0
    3.3654   11.5357   -1.5710 H   0  0  0  0  0  0  0  0  0  0  0  0
    2.6774   10.6940   -3.0298 H   0  0  0  0  0  0  0  0  0  0  0  0
    3.7882   12.8259   -3.6163 H   0  0  0  0  0  0  0  0  0  0  0  0
    2.0193   12.8260   -3.9873 H   0  0  0  0  0  0  0  0  0  0  0  0
    2.6023   14.9397   -3.0089 H   0  0  0  0  0  0  0  0  0  0  0  0
    3.3070   13.8270   -0.5290 H   0  0  0  0  0  0  0  0  0  0  0  0
   -0.8609   14.5236   -2.0807 H   0  0  0  0  0  0  0  0  0  0  0  0
    0.3224   15.2037   -3.2485 H   0  0  0  0  0  0  0  0  0  0  0  0
   -0.0284   13.4420   -3.2485 H   0  0  0  0  0  0  0  0  0  0  0  0
    1.2188   15.0160    0.3897 H   0  0  0  0  0  0  0  0  0  0  0  0
    2.1147   15.9552   -0.8520 H   0  0  0  0  0  0  0  0  0  0  0  0
    0.3184   15.9509   -0.8520 H   0  0  0  0  0  0  0  0  0  0  0  0
    2.0994    9.7566    0.9330 H   0  0  0  0  0  0  0  0  0  0  0  0
    2.5339    8.6734   -0.4325 H   0  0  0  0  0  0  0  0  0  0  0  0
    3.0838   10.3835   -0.4325 H   0  0  0  0  0  0  0  0  0  0  0  0
    1.2444    9.2036   -2.8534 H   0  0  0  0  0  0  0  0  0  0  0  0
    0.9430    8.0466   -1.4373 H   0  0  0  0  0  0  0  0  0  0  0  0
   -1.1132    9.6402   -2.9926 H   0  0  0  0  0  0  0  0  0  0  0  0
   -0.8902    7.8478   -2.9246 H   0  0  0  0  0  0  0  0  0  0  0  0
   -1.3801    7.6789    0.7640 H   0  0  0  0  0  0  0  0  0  0  0  0
   -1.9771    6.6168   -0.5559 H   0  0  0  0  0  0  0  0  0  0  0  0
   -0.2702    7.1764   -0.5559 H   0  0  0  0  0  0  0  0  0  0  0  0
  1  2  1  0
  2  3  1  0
  3  4  1  0
  4  5  1  0
  5  6  1  0
  6  7  1  0
  7  8  1  0
  7  9  1  0
  2 10  1  0
 10 11  1  0
 11 12  1  0
 12 13  1  0
 13 14  1  6
 13 15  1  0
 15 16  1  0
 16 17  1  0
 17 18  2  0
 18 19  1  0
 19 20  1  0
 20 21  1  0
 21 22  1  0
 22 23  1  0
 22 24  1  0
 24 25  1  0
 24 26  1  0
 19 27  1  0
 27 28  1  1
 27 29  1  0
 29 30  1  0
 30 31  1  0
 31 32  1  1
  7  5  1  0
 31 10  1  0
 31 13  1  0
 27 15  1  0
 24 18  1  0
  1 33  1  0
  1 34  1  0
  1 35  1  0
  2 36  1  1
  3 37  1  0
  3 38  1  0
  4 39  1  0
  4 40  1  0
  5 41  1  1
  8 42  1  0
  8 43  1  0
  8 44  1  0
  9 45  1  0
  9 46  1  0
  9 47  1  0
 10 48  1  6
 11 49  1  0
 11 50  1  0
 12 51  1  0
 12 52  1  0
 14 53  1  0
 14 54  1  0
 14 55  1  0
 15 56  1  1
 16 57  1  0
 16 58  1  0
 17 59  1  0
 19 60  1  6
 20 61  1  0
 20 62  1  0
 21 63  1  0
 21 64  1  0
 22 65  1  6
 23 66  1  0
 25 67  1  0
 25 68  1  0
 25 69  1  0
 26 70  1  0
 26 71  1  0
 26 72  1  0
 28 73  1  0
 28 74  1  0
 28 75  1  0
 29 76  1  0
 29 77  1  0
 30 78  1  0
 30 79  1  0
 32 80  1  0
 32 81  1  0
 32 82  1  0
M  END
>  <meeko>  (13) 
{"is_sidechain": [false], "intermolecular_energy": 2.731, "internal_energy": -0.839}

$$$$
EPH_relaxed_0001_pdb2pqr_Repair_40_r2_0001_out
     RDKit          3D

 82 86  0  0  0  0  0  0  0  0999 V2000
   -2.3420    7.8860   -2.3140 C   0  0  0  0  0  0  0  0  0  0  0  0
   -2.1770    8.4350   -0.8940 C   0  0  2  0  0  0  0  0  0  0  0  0
   -3.4930    8.3750   -0.0920 C   0  0  0  0  0  0  0  0  0  0  0  0
   -4.7490    8.4970   -0.9590 C   0  0  0  0  0  0  0  0  0  0  0  0
   -5.5910    7.2600   -0.8920 C   0  0  2  0  0  0  0  0  0  0  0  0
   -5.6460    6.5060   -2.1110 O   0  0  0  0  0  0  0  0  0  0  0  0
   -6.8840    7.0850   -1.6680 C   0  0  0  0  0  0  0  0  0  0  0  0
   -7.4070    8.1630   -2.5650 C   0  0  0  0  0  0  0  0  0  0  0  0
   -7.8800    6.0790   -1.1810 C   0  0  0  0  0  0  0  0  0  0  0  0
   -1.6660    9.8700   -0.9480 C   0  0  1  0  0  0  0  0  0  0  0  0
   -1.2440   10.4070    0.4450 C   0  0  0  0  0  0  0  0  0  0  0  0
   -0.0310   11.3450    0.2150 C   0  0  0  0  0  0  0  0  0  0  0  0
   -0.0030   11.5780   -1.3140 C   0  0  1  0  0  0  0  0  0  0  0  0
   -1.0700   12.6880   -1.5690 C   0  0  0  0  0  0  0  0  0  0  0  0
    1.3830   11.9570   -1.9300 C   0  0  2  0  0  0  0  0  0  0  0  0
    1.9810   13.2820   -1.4260 C   0  0  0  0  0  0  0  0  0  0  0  0
    1.6130   14.4910   -2.2200 C   0  0  0  0  0  0  0  0  0  0  0  0
    1.0710   14.4830   -3.4520 C   0  0  0  0  0  0  0  0  0  0  0  0
    0.8640   13.1660   -4.2130 C   0  0  1  0  0  0  0  0  0  0  0  0
    1.3680   13.3270   -5.6710 C   0  0  0  0  0  0  0  0  0  0  0  0
    0.7330   14.5180   -6.3820 C   0  0  0  0  0  0  0  0  0  0  0  0
    1.0090   15.8150   -5.6270 C   0  0  2  0  0  0  0  0  0  0  0  0
    2.4100   16.0960   -5.6900 O   0  0  0  0  0  0  0  0  0  0  0  0
    0.5520   15.7680   -4.1420 C   0  0  0  0  0  0  0  0  0  0  0  0
   -0.9950   15.7670   -4.0730 C   0  0  0  0  0  0  0  0  0  0  0  0
    1.0150   17.0830   -3.4580 C   0  0  0  0  0  0  0  0  0  0  0  0
    1.4380   11.8620   -3.5090 C   0  0  1  0  0  0  0  0  0  0  0  0
    2.9370   11.6660   -3.8910 C   0  0  0  0  0  0  0  0  0  0  0  0
    0.6710   10.6020   -4.0600 C   0  0  0  0  0  0  0  0  0  0  0  0
   -0.6290   10.2070   -3.3330 C   0  0  0  0  0  0  0  0  0  0  0  0
   -0.4140   10.1470   -1.8180 C   0  0  2  0  0  0  0  0  0  0  0  0
    0.6380    9.0230   -1.5290 C   0  0  0  0  0  0  0  0  0  0  0  0
   -2.6583    6.8336   -2.2658 H   0  0  0  0  0  0  0  0  0  0  0  0
   -3.1032    8.4736   -2.8481 H   0  0  0  0  0  0  0  0  0  0  0  0
   -1.3830    7.9565   -2.8481 H   0  0  0  0  0  0  0  0  0  0  0  0
   -1.4447    7.7983   -0.3759 H   0  0  0  0  0  0  0  0  0  0  0  0
   -3.5312    7.4135    0.4410 H   0  0  0  0  0  0  0  0  0  0  0  0
   -3.4910    9.2354    0.5933 H   0  0  0  0  0  0  0  0  0  0  0  0
   -5.3438    9.3525   -0.6064 H   0  0  0  0  0  0  0  0  0  0  0  0
   -4.4325    8.6401   -2.0027 H   0  0  0  0  0  0  0  0  0  0  0  0
   -5.3431    7.1202    0.1706 H   0  0  0  0  0  0  0  0  0  0  0  0
   -7.8064    8.9863   -1.9545 H   0  0  0  0  0  0  0  0  0  0  0  0
   -6.5914    8.5395   -3.1999 H   0  0  0  0  0  0  0  0  0  0  0  0
   -8.2075    7.7554   -3.1999 H   0  0  0  0  0  0  0  0  0  0  0  0
   -7.8866    6.0724   -0.0810 H   0  0  0  0  0  0  0  0  0  0  0  0
   -8.8809    6.3446   -1.5521 H   0  0  0  0  0  0  0  0  0  0  0  0
   -7.6044    5.0808   -1.5521 H   0  0  0  0  0  0  0  0  0  0  0  0
   -2.5461   10.3623   -1.3875 H   0  0  0  0  0  0  0  0  0  0  0  0
   -2.0736   10.9660    0.9025 H   0  0  0  0  0  0  0  0  0  0  0  0
   -0.9816    9.5817    1.1232 H   0  0  0  0  0  0  0  0  0  0  0  0
   -0.1684   12.2960    0.7504 H   0  0  0  0  0  0  0  0  0  0  0  0
    0.9085   10.9115    0.5884 H   0  0  0  0  0  0  0  0  0  0  0  0
   -1.4381   13.0710   -0.6058 H   0  0  0  0  0  0  0  0  0  0  0  0
   -0.6145   13.5101   -2.1405 H   0  0  0  0  0  0  0  0  0  0  0  0
   -1.9095   12.2653   -2.1405 H   0  0  0  0  0  0  0  0  0  0  0  0
    2.0391   11.1654   -1.5390 H   0  0  0  0  0  0  0  0  0  0  0  0
    1.6392   13.4375   -0.3921 H   0  0  0  0  0  0  0  0  0  0  0  0
    3.0721   13.1779   -1.5187 H   0  0  0  0  0  0  0  0  0  0  0  0
    1.8007   15.4720   -1.7592 H   0  0  0  0  0  0  0  0  0  0  0  0
   -0.2201   12.9796   -4.2113 H   0  0  0  0  0  0  0  0  0  0  0  0
    2.4588   13.4676   -5.6534 H   0  0  0  0  0  0  0  0  0  0  0  0
    1.0854   12.4190   -6.2238 H   0  0  0  0  0  0  0  0  0  0  0  0
    1.1509   14.5962   -7.3965 H   0  0  0  0  0  0  0  0  0  0  0  0
   -0.3550   14.3617   -6.4250 H   0  0  0  0  0  0  0  0  0  0  0  0
    0.4224   16.6097   -6.1111 H   0  0  0  0  0  0  0  0  0  0  0  0
    2.5320   16.8470   -6.2950 H   0  0  0  0  0  0  0  0  0  0  0  0
   -1.3151   15.7668   -3.0206 H   0  0  0  0  0  0  0  0  0  0  0  0
   -1.3850   16.6649   -4.5747 H   0  0  0  0  0  0  0  0  0  0  0  0
   -1.3838   14.8686   -4.5747 H   0  0  0  0  0  0  0  0  0  0  0  0
    0.9726   16.9626   -2.3654 H   0  0  0  0  0  0  0  0  0  0  0  0
    2.0473   17.3107   -3.7620 H   0  0  0  0  0  0  0  0  0  0  0  0
    0.3530   17.9072   -3.7620 H   0  0  0  0  0  0  0  0  0  0  0  0
    3.5414   11.5870   -2.9753 H   0  0  0  0  0  0  0  0  0  0  0  0
    3.0471   10.7458   -4.4836 H   0  0  0  0  0  0  0  0  0  0  0  0
    3.2800   12.5269   -4.4836 H   0  0  0  0  0  0  0  0  0  0  0  0
    0.4169   10.8007   -5.1117 H   0  0  0  0  0  0  0  0  0  0  0  0
    1.3568    9.7563   -3.9032 H   0  0  0  0  0  0  0  0  0  0  0  0
   -1.4068   10.9519   -3.5567 H   0  0  0  0  0  0  0  0  0  0  0  0
   -0.9374    9.2108   -3.6829 H   0  0  0  0  0  0  0  0  0  0  0  0
    0.7535    8.8996   -0.4421 H   0  0  0  0  0  0  0  0  0  0  0  0
    0.2939    8.0763   -1.9710 H   0  0  0  0  0  0  0  0  0  0  0  0
    1.6054    9.3038   -1.9710 H   0  0  0  0  0  0  0  0  0  0  0  0
  1  2  1  0
  2  3  1  0
  3  4  1  0
  4  5  1  0
  5  6  1  0
  6  7  1  0
  7  8  1  0
  7  9  1  0
  2 10  1  0
 10 11  1  0
 11 12  1  0
 12 13  1  0
 13 14  1  1
 13 15  1  0
 15 16  1  0
 16 17  1  0
 17 18  2  0
 18 19  1  0
 19 20  1  0
 20 21  1  0
 21 22  1  0
 22 23  1  0
 22 24  1  0
 24 25  1  0
 24 26  1  0
 19 27  1  0
 27 28  1  1
 27 29  1  0
 29 30  1  0
 30 31  1  0
 31 32  1  6
  7  5  1  0
 31 10  1  0
 31 13  1  0
 27 15  1  0
 24 18  1  0
  1 33  1  0
  1 34  1  0
  1 35  1  0
  2 36  1  1
  3 37  1  0
  3 38  1  0
  4 39  1  0
  4 40  1  0
  5 41  1  1
  8 42  1  0
  8 43  1  0
  8 44  1  0
  9 45  1  0
  9 46  1  0
  9 47  1  0
 10 48  1  6
 11 49  1  0
 11 50  1  0
 12 51  1  0
 12 52  1  0
 14 53  1  0
 14 54  1  0
 14 55  1  0
 15 56  1  1
 16 57  1  0
 16 58  1  0
 17 59  1  0
 19 60  1  6
 20 61  1  0
 20 62  1  0
 21 63  1  0
 21 64  1  0
 22 65  1  6
 23 66  1  0
 25 67  1  0
 25 68  1  0
 25 69  1  0
 26 70  1  0
 26 71  1  0
 26 72  1  0
 28 73  1  0
 28 74  1  0
 28 75  1  0
 29 76  1  0
 29 77  1  0
 30 78  1  0
 30 79  1  0
 32 80  1  0
 32 81  1  0
 32 82  1  0
M  END
>  <meeko>  (14) 
{"is_sidechain": [false], "intermolecular_energy": 2.731, "internal_energy": -0.839}

$$$$
EPH_relaxed_0001_pdb2pqr_Repair_40_r2_0001_out
     RDKit          3D

 82 86  0  0  0  0  0  0  0  0999 V2000
    1.5060   10.7150   -4.8780 C   0  0  0  0  0  0  0  0  0  0  0  0
    0.8380   10.5550   -3.5090 C   0  0  2  0  0  0  0  0  0  0  0  0
   -0.3070    9.5230   -3.5390 C   0  0  0  0  0  0  0  0  0  0  0  0
   -0.1620    8.4120   -2.4950 C   0  0  0  0  0  0  0  0  0  0  0  0
    0.0460    8.9680   -1.1190 C   0  0  2  0  0  0  0  0  0  0  0  0
   -0.3330    8.0870   -0.0540 O   0  0  0  0  0  0  0  0  0  0  0  0
   -1.0900    9.3030   -0.1710 C   0  0  0  0  0  0  0  0  0  0  0  0
   -2.5200    9.0940   -0.5620 C   0  0  0  0  0  0  0  0  0  0  0  0
   -0.8360   10.2800    0.9340 C   0  0  0  0  0  0  0  0  0  0  0  0
    0.3140   11.9020   -3.0260 C   0  0  1  0  0  0  0  0  0  0  0  0
   -1.0870   11.7960   -2.3670 C   0  0  0  0  0  0  0  0  0  0  0  0
   -1.1230   12.8400   -1.2210 C   0  0  0  0  0  0  0  0  0  0  0  0
    0.1170   13.7310   -1.4670 C   0  0  1  0  0  0  0  0  0  0  0  0
   -0.3290   14.7420   -2.5710 C   0  0  0  0  0  0  0  0  0  0  0  0
    0.7000   14.4640   -0.2160 C   0  0  2  0  0  0  0  0  0  0  0  0
   -0.2510   15.4720    0.4530 C   0  0  0  0  0  0  0  0  0  0  0  0
   -0.1600   16.8710   -0.0590 C   0  0  0  0  0  0  0  0  0  0  0  0
    0.8400   17.3660   -0.8110 C   0  0  0  0  0  0  0  0  0  0  0  0
    2.0730   16.5140   -1.1400 C   0  0  1  0  0  0  0  0  0  0  0  0
    3.3580   17.3510   -0.9040 C   0  0  0  0  0  0  0  0  0  0  0  0
    3.3430   18.6730   -1.6650 C   0  0  0  0  0  0  0  0  0  0  0  0
    2.1340   19.5170   -1.2680 C   0  0  2  0  0  0  0  0  0  0  0  0
    2.2790   19.9170    0.0980 O   0  0  0  0  0  0  0  0  0  0  0  0
    0.7810   18.7730   -1.4540 C   0  0  0  0  0  0  0  0  0  0  0  0
    0.4820   18.6070   -2.9640 C   0  0  0  0  0  0  0  0  0  0  0  0
   -0.3440   19.6810   -0.8860 C   0  0  0  0  0  0  0  0  0  0  0  0
    2.1370   15.0880   -0.4410 C   0  0  1  0  0  0  0  0  0  0  0  0
    2.7940   15.2140    0.9680 C   0  0  0  0  0  0  0  0  0  0  0  0
    3.0740   14.1440   -1.2840 C   0  0  0  0  0  0  0  0  0  0  0  0
    2.4140   13.3560   -2.4320 C   0  0  0  0  0  0  0  0  0  0  0  0
    1.1450   12.6450   -1.9500 C   0  0  2  0  0  0  0  0  0  0  0  0
    1.5650   11.6060   -0.8550 C   0  0  0  0  0  0  0  0  0  0  0  0
    2.5674   10.9692   -4.7406 H   0  0  0  0  0  0  0  0  0  0  0  0
    1.4244    9.7719   -5.4383 H   0  0  0  0  0  0  0  0  0  0  0  0
    1.0060   11.5188   -5.4383 H   0  0  0  0  0  0  0  0  0  0  0  0
    1.6005   10.1810   -2.8099 H   0  0  0  0  0  0  0  0  0  0  0  0
   -1.2547   10.0504   -3.3555 H   0  0  0  0  0  0  0  0  0  0  0  0
   -0.2794    9.0409   -4.5274 H   0  0  0  0  0  0  0  0  0  0  0  0
   -1.0754    7.7991   -2.4975 H   0  0  0  0  0  0  0  0  0  0  0  0
    0.7189    7.8078   -2.7574 H   0  0  0  0  0  0  0  0  0  0  0  0
    0.9175    9.5466   -1.4592 H   0  0  0  0  0  0  0  0  0  0  0  0
   -3.1382    9.0036    0.3433 H   0  0  0  0  0  0  0  0  0  0  0  0
   -2.8661    9.9511   -1.1583 H   0  0  0  0  0  0  0  0  0  0  0  0
   -2.6063    8.1737   -1.1583 H   0  0  0  0  0  0  0  0  0  0  0  0
   -0.9664    9.7783    1.9042 H   0  0  0  0  0  0  0  0  0  0  0  0
    0.1918   10.6639    0.8550 H   0  0  0  0  0  0  0  0  0  0  0  0
   -1.5467   11.1159    0.8550 H   0  0  0  0  0  0  0  0  0  0  0  0
    0.3406   12.4602   -3.9734 H   0  0  0  0  0  0  0  0  0  0  0  0
   -1.8709   12.0178   -3.1061 H   0  0  0  0  0  0  0  0  0  0  0  0
   -1.2666   10.7812   -1.9823 H   0  0  0  0  0  0  0  0  0  0  0  0
   -2.0458   13.4369   -1.2681 H   0  0  0  0  0  0  0  0  0  0  0  0
   -1.1083   12.3694   -0.2269 H   0  0  0  0  0  0  0  0  0  0  0  0
   -0.7295   15.6500   -2.0965 H   0  0  0  0  0  0  0  0  0  0  0  0
    0.5360   15.0065   -3.1970 H   0  0  0  0  0  0  0  0  0  0  0  0
   -1.1075   14.2815   -3.1970 H   0  0  0  0  0  0  0  0  0  0  0  0
    0.8179   13.6411    0.5044 H   0  0  0  0  0  0  0  0  0  0  0  0
   -1.2819   15.1202    0.2994 H   0  0  0  0  0  0  0  0  0  0  0  0
    0.0468   15.5152    1.5111 H   0  0  0  0  0  0  0  0  0  0  0  0
   -0.9806   17.5560    0.2006 H   0  0  0  0  0  0  0  0  0  0  0  0
    1.9873   16.2531   -2.2052 H   0  0  0  0  0  0  0  0  0  0  0  0
    3.4474   17.5642    0.1714 H   0  0  0  0  0  0  0  0  0  0  0  0
    4.2117   16.7633   -1.2725 H   0  0  0  0  0  0  0  0  0  0  0  0
    4.2627   19.2311   -1.4355 H   0  0  0  0  0  0  0  0  0  0  0  0
    3.2827   18.4577   -2.7420 H   0  0  0  0  0  0  0  0  0  0  0  0
    2.1071   20.3903   -1.9363 H   0  0  0  0  0  0  0  0  0  0  0  0
    2.0720   20.8660    0.1500 H   0  0  0  0  0  0  0  0  0  0  0  0
   -0.4731   18.0767   -3.0925 H   0  0  0  0  0  0  0  0  0  0  0  0
    0.4174   19.5984   -3.4362 H   0  0  0  0  0  0  0  0  0  0  0  0
    1.2893   18.0279   -3.4362 H   0  0  0  0  0  0  0  0  0  0  0  0
   -0.3145   19.6572    0.2133 H   0  0  0  0  0  0  0  0  0  0  0  0
   -0.1930   20.7133   -1.2346 H   0  0  0  0  0  0  0  0  0  0  0  0
   -1.3212   19.3155   -1.2346 H   0  0  0  0  0  0  0  0  0  0  0  0
    2.0284   15.0672    1.7440 H   0  0  0  0  0  0  0  0  0  0  0  0
    3.5777   14.4498    1.0768 H   0  0  0  0  0  0  0  0  0  0  0  0
    3.2393   16.2139    1.0768 H   0  0  0  0  0  0  0  0  0  0  0  0
    3.8679   14.7673   -1.7214 H   0  0  0  0  0  0  0  0  0  0  0  0
    3.4260   13.3800   -0.5753 H   0  0  0  0  0  0  0  0  0  0  0  0
    2.1509   14.0524   -3.2418 H   0  0  0  0  0  0  0  0  0  0  0  0
    3.1255   12.5983   -2.7920 H   0  0  0  0  0  0  0  0  0  0  0  0
    1.3917   12.0348    0.1430 H   0  0  0  0  0  0  0  0  0  0  0  0
    0.9664   10.6903   -0.9696 H   0  0  0  0  0  0  0  0  0  0  0  0
    2.6318   11.3635   -0.9696 H   0  0  0  0  0  0  0  0  0  0  0  0
  1  2  1  0
  2  3  1  0
  3  4  1  0
  4  5  1  0
  5  6  1  0
  6  7  1  0
  7  8  1  0
  7  9  1  0
  2 10  1  0
 10 11  1  0
 11 12  1  0
 12 13  1  0
 13 14  1  6
 13 15  1  0
 15 16  1  0
 16 17  1  0
 17 18  2  0
 18 19  1  0
 19 20  1  0
 20 21  1  0
 21 22  1  0
 22 23  1  0
 22 24  1  0
 24 25  1  0
 24 26  1  0
 19 27  1  0
 27 28  1  1
 27 29  1  0
 29 30  1  0
 30 31  1  0
 31 32  1  1
  7  5  1  0
 31 10  1  0
 31 13  1  0
 27 15  1  0
 24 18  1  0
  1 33  1  0
  1 34  1  0
  1 35  1  0
  2 36  1  1
  3 37  1  0
  3 38  1  0
  4 39  1  0
  4 40  1  0
  5 41  1  1
  8 42  1  0
  8 43  1  0
  8 44  1  0
  9 45  1  0
  9 46  1  0
  9 47  1  0
 10 48  1  6
 11 49  1  0
 11 50  1  0
 12 51  1  0
 12 52  1  0
 14 53  1  0
 14 54  1  0
 14 55  1  0
 15 56  1  1
 16 57  1  0
 16 58  1  0
 17 59  1  0
 19 60  1  6
 20 61  1  0
 20 62  1  0
 21 63  1  0
 21 64  1  0
 22 65  1  6
 23 66  1  0
 25 67  1  0
 25 68  1  0
 25 69  1  0
 26 70  1  0
 26 71  1  0
 26 72  1  0
 28 73  1  0
 28 74  1  0
 28 75  1  0
 29 76  1  0
 29 77  1  0
 30 78  1  0
 30 79  1  0
 32 80  1  0
 32 81  1  0
 32 82  1  0
M  END
>  <meeko>  (15) 
{"is_sidechain": [false], "intermolecular_energy": 2.731, "internal_energy": -0.839}

$$$$
EPH_relaxed_0001_pdb2pqr_Repair_40_r2_0001_out
     RDKit          3D

 82 86  0  0  0  0  0  0  0  0999 V2000
    0.0720    9.3660   -2.4990 C   0  0  0  0  0  0  0  0  0  0  0  0
    1.1120   10.3980   -2.9430 C   0  0  2  0  0  0  0  0  0  0  0  0
    2.5210    9.7860   -3.0680 C   0  0  0  0  0  0  0  0  0  0  0  0
    3.4450   10.5560   -4.0150 C   0  0  0  0  0  0  0  0  0  0  0  0
    4.8150   10.7300   -3.4340 C   0  0  2  0  0  0  0  0  0  0  0  0
    5.4760   11.9450   -3.8110 O   0  0  0  0  0  0  0  0  0  0  0  0
    6.0840   10.7250   -4.2660 C   0  0  0  0  0  0  0  0  0  0  0  0
    6.0430   10.5420   -5.7500 C   0  0  0  0  0  0  0  0  0  0  0  0
    7.3820   10.4100   -3.5890 C   0  0  0  0  0  0  0  0  0  0  0  0
    1.1360   11.5660   -1.9630 C   0  0  1  0  0  0  0  0  0  0  0  0
    2.2070   11.3920   -0.8530 C   0  0  0  0  0  0  0  0  0  0  0  0
    2.7540   12.8070   -0.5340 C   0  0  0  0  0  0  0  0  0  0  0  0
    1.7600   13.7730   -1.2190 C   0  0  1  0  0  0  0  0  0  0  0  0
    0.5570   13.8780   -0.2310 C   0  0  0  0  0  0  0  0  0  0  0  0
    2.3180   15.1830   -1.6010 C   0  0  2  0  0  0  0  0  0  0  0  0
    2.7840   16.0430   -0.4130 C   0  0  0  0  0  0  0  0  0  0  0  0
    1.7390   16.9280    0.1820 C   0  0  0  0  0  0  0  0  0  0  0  0
    0.5620   17.2430   -0.3910 C   0  0  0  0  0  0  0  0  0  0  0  0
    0.2250   16.7690   -1.8100 C   0  0  1  0  0  0  0  0  0  0  0  0
   -0.3540   17.9530   -2.6280 C   0  0  0  0  0  0  0  0  0  0  0  0
   -1.5420   18.6160   -1.9370 C   0  0  0  0  0  0  0  0  0  0  0  0
   -1.1520   19.1260   -0.5520 C   0  0  2  0  0  0  0  0  0  0  0  0
   -0.2120   20.1950   -0.7020 O   0  0  0  0  0  0  0  0  0  0  0  0
   -0.5470   18.0220    0.3590 C   0  0  0  0  0  0  0  0  0  0  0  0
   -1.6540   17.0190    0.7680 C   0  0  0  0  0  0  0  0  0  0  0  0
   -0.0660   18.6970    1.6720 C   0  0  0  0  0  0  0  0  0  0  0  0
    1.3870   16.0050   -2.5810 C   0  0  1  0  0  0  0  0  0  0  0  0
    2.3060   17.0330   -3.3100 C   0  0  0  0  0  0  0  0  0  0  0  0
    0.7530   15.1010   -3.7030 C   0  0  0  0  0  0  0  0  0  0  0  0
    0.3310   13.6780   -3.2920 C   0  0  0  0  0  0  0  0  0  0  0  0
    1.4580   12.9690   -2.5360 C   0  0  2  0  0  0  0  0  0  0  0  0
    2.6760   12.8290   -3.5120 C   0  0  0  0  0  0  0  0  0  0  0  0
    0.0364    9.3307   -1.4001 H   0  0  0  0  0  0  0  0  0  0  0  0
   -0.9165    9.6504   -2.8889 H   0  0  0  0  0  0  0  0  0  0  0  0
    0.3488    8.3754   -2.8889 H   0  0  0  0  0  0  0  0  0  0  0  0
    0.8183   10.7556   -3.9409 H   0  0  0  0  0  0  0  0  0  0  0  0
    2.9824    9.7700   -2.0696 H   0  0  0  0  0  0  0  0  0  0  0  0
    2.3970    8.7776   -3.4895 H   0  0  0  0  0  0  0  0  0  0  0  0
    3.5272   10.0017   -4.9616 H   0  0  0  0  0  0  0  0  0  0  0  0
    3.0130   11.5543   -4.1785 H   0  0  0  0  0  0  0  0  0  0  0  0
    4.5253   10.1792   -2.5270 H   0  0  0  0  0  0  0  0  0  0  0  0
    5.8080    9.4931   -5.9837 H   0  0  0  0  0  0  0  0  0  0  0  0
    5.2690   11.1955   -6.1788 H   0  0  0  0  0  0  0  0  0  0  0  0
    7.0218   10.8028   -6.1788 H   0  0  0  0  0  0  0  0  0  0  0  0
    7.2442   10.4434   -2.4982 H   0  0  0  0  0  0  0  0  0  0  0  0
    7.7158    9.4048   -3.8858 H   0  0  0  0  0  0  0  0  0  0  0  0
    8.1395   11.1504   -3.8858 H   0  0  0  0  0  0  0  0  0  0  0  0
    0.0941   11.5335   -1.6117 H   0  0  0  0  0  0  0  0  0  0  0  0
    1.7526   10.9499    0.0459 H   0  0  0  0  0  0  0  0  0  0  0  0
    3.0140   10.7219   -1.1842 H   0  0  0  0  0  0  0  0  0  0  0  0
    2.7764   12.9789    0.5523 H   0  0  0  0  0  0  0  0  0  0  0  0
    3.7848   12.9462   -0.8919 H   0  0  0  0  0  0  0  0  0  0  0  0
    0.9285   13.8456    0.8039 H   0  0  0  0  0  0  0  0  0  0  0  0
    0.0253   14.8260   -0.4001 H   0  0  0  0  0  0  0  0  0  0  0  0
   -0.1309   13.0365   -0.4001 H   0  0  0  0  0  0  0  0  0  0  0  0
    3.2292   14.9323   -2.1638 H   0  0  0  0  0  0  0  0  0  0  0  0
    3.1456   15.3664    0.3753 H   0  0  0  0  0  0  0  0  0  0  0  0
    3.5613   16.7132   -0.8087 H   0  0  0  0  0  0  0  0  0  0  0  0
    1.9484   17.3591    1.1721 H   0  0  0  0  0  0  0  0  0  0  0  0
   -0.5388   15.9858   -1.6950 H   0  0  0  0  0  0  0  0  0  0  0  0
    0.4367   18.7047   -2.7684 H   0  0  0  0  0  0  0  0  0  0  0  0
   -0.7077   17.5530   -3.5897 H   0  0  0  0  0  0  0  0  0  0  0  0
   -1.8876   19.4627   -2.5483 H   0  0  0  0  0  0  0  0  0  0  0  0
   -2.3434   17.8710   -1.8242 H   0  0  0  0  0  0  0  0  0  0  0  0
   -2.0713   19.4722   -0.0569 H   0  0  0  0  0  0  0  0  0  0  0  0
    0.1070   20.4330    0.1850 H   0  0  0  0  0  0  0  0  0  0  0  0
   -1.7131   16.9654    1.8651 H   0  0  0  0  0  0  0  0  0  0  0  0
   -2.6206   17.3552    0.3647 H   0  0  0  0  0  0  0  0  0  0  0  0
   -1.4145   16.0240    0.3647 H   0  0  0  0  0  0  0  0  0  0  0  0
   -0.4613   18.1422    2.5357 H   0  0  0  0  0  0  0  0  0  0  0  0
    1.0335   18.6923    1.7053 H   0  0  0  0  0  0  0  0  0  0  0  0
   -0.4294   19.7347    1.7053 H   0  0  0  0  0  0  0  0  0  0  0  0
    2.8451   17.6360   -2.5645 H   0  0  0  0  0  0  0  0  0  0  0  0
    3.0301   16.4954   -3.9398 H   0  0  0  0  0  0  0  0  0  0  0  0
    1.6909   17.6926   -3.9398 H   0  0  0  0  0  0  0  0  0  0  0  0
   -0.1418   15.6175   -4.0805 H   0  0  0  0  0  0  0  0  0  0  0  0
    1.5522   14.9611   -4.4458 H   0  0  0  0  0  0  0  0  0  0  0  0
   -0.5550   13.7388   -2.6430 H   0  0  0  0  0  0  0  0  0  0  0  0
    0.1032   13.1032   -4.2018 H   0  0  0  0  0  0  0  0  0  0  0  0
    3.6027   12.7225   -2.9290 H   0  0  0  0  0  0  0  0  0  0  0  0
    2.5376   11.9409   -4.1461 H   0  0  0  0  0  0  0  0  0  0  0  0
    2.7427   13.7254   -4.1461 H   0  0  0  0  0  0  0  0  0  0  0  0
  1  2  1  0
  2  3  1  0
  3  4  1  0
  4  5  1  0
  5  6  1  0
  6  7  1  0
  7  8  1  0
  7  9  1  0
  2 10  1  0
 10 11  1  0
 11 12  1  0
 12 13  1  0
 13 14  1  1
 13 15  1  0
 15 16  1  0
 16 17  1  0
 17 18  2  0
 18 19  1  0
 19 20  1  0
 20 21  1  0
 21 22  1  0
 22 23  1  0
 22 24  1  0
 24 25  1  0
 24 26  1  0
 19 27  1  0
 27 28  1  6
 27 29  1  0
 29 30  1  0
 30 31  1  0
 31 32  1  6
  7  5  1  0
 31 10  1  0
 31 13  1  0
 27 15  1  0
 24 18  1  0
  1 33  1  0
  1 34  1  0
  1 35  1  0
  2 36  1  6
  3 37  1  0
  3 38  1  0
  4 39  1  0
  4 40  1  0
  5 41  1  1
  8 42  1  0
  8 43  1  0
  8 44  1  0
  9 45  1  0
  9 46  1  0
  9 47  1  0
 10 48  1  1
 11 49  1  0
 11 50  1  0
 12 51  1  0
 12 52  1  0
 14 53  1  0
 14 54  1  0
 14 55  1  0
 15 56  1  6
 16 57  1  0
 16 58  1  0
 17 59  1  0
 19 60  1  1
 20 61  1  0
 20 62  1  0
 21 63  1  0
 21 64  1  0
 22 65  1  1
 23 66  1  0
 25 67  1  0
 25 68  1  0
 25 69  1  0
 26 70  1  0
 26 71  1  0
 26 72  1  0
 28 73  1  0
 28 74  1  0
 28 75  1  0
 29 76  1  0
 29 77  1  0
 30 78  1  0
 30 79  1  0
 32 80  1  0
 32 81  1  0
 32 82  1  0
M  END
>  <meeko>  (16) 
{"is_sidechain": [false], "intermolecular_energy": 2.731, "internal_energy": -0.839}

$$$$
