EPH_relaxed_0001_pdb2pqr_Repair_310_r2_0001_out
     RDKit          3D

 82 86  0  0  0  0  0  0  0  0999 V2000
    4.0260   18.2820    0.2200 C   0  0  0  0  0  0  0  0  0  0  0  0
    3.0030   18.7100   -0.8350 C   0  0  2  0  0  0  0  0  0  0  0  0
    2.2040   19.9550   -0.3990 C   0  0  0  0  0  0  0  0  0  0  0  0
    1.1790   19.6730    0.7030 C   0  0  0  0  0  0  0  0  0  0  0  0
   -0.1790   20.1940    0.3420 C   0  0  2  0  0  0  0  0  0  0  0  0
   -1.1260   20.1940    1.4180 O   0  0  0  0  0  0  0  0  0  0  0  0
   -1.4260   19.3300    0.3100 C   0  0  0  0  0  0  0  0  0  0  0  0
   -1.3730   17.8720    0.6430 C   0  0  0  0  0  0  0  0  0  0  0  0
   -2.5920   19.7850   -0.5120 C   0  0  0  0  0  0  0  0  0  0  0  0
    2.0500   17.5570   -1.1310 C   0  0  1  0  0  0  0  0  0  0  0  0
    0.8550   17.9850   -2.0250 C   0  0  0  0  0  0  0  0  0  0  0  0
    0.5250   16.7760   -2.9380 C   0  0  0  0  0  0  0  0  0  0  0  0
    1.3080   15.5950   -2.3200 C   0  0  1  0  0  0  0  0  0  0  0  0
    0.4210   15.1020   -1.1340 C   0  0  0  0  0  0  0  0  0  0  0  0
    1.6750   14.4250   -3.2910 C   0  0  2  0  0  0  0  0  0  0  0  0
    0.4730   13.6850   -3.9040 C   0  0  0  0  0  0  0  0  0  0  0  0
   -0.0170   12.5100   -3.1240 C   0  0  0  0  0  0  0  0  0  0  0  0
    0.6540   11.8940   -2.1340 C   0  0  0  0  0  0  0  0  0  0  0  0
    2.0850   12.3120   -1.7720 C   0  0  1  0  0  0  0  0  0  0  0  0
    2.9720   11.0480   -1.6230 C   0  0  0  0  0  0  0  0  0  0  0  0
    2.3920   10.0400   -0.6360 C   0  0  0  0  0  0  0  0  0  0  0  0
    0.9920    9.6040   -1.0610 C   0  0  2  0  0  0  0  0  0  0  0  0
    1.0900    8.8610   -2.2800 O   0  0  0  0  0  0  0  0  0  0  0  0
    0.0110   10.7950   -1.2520 C   0  0  0  0  0  0  0  0  0  0  0  0
   -0.3300   11.4140    0.1260 C   0  0  0  0  0  0  0  0  0  0  0  0
   -1.3210   10.2300   -1.8160 C   0  0  0  0  0  0  0  0  0  0  0  0
    2.7430   13.4120   -2.7110 C   0  0  1  0  0  0  0  0  0  0  0  0
    3.4200   12.7290   -3.9380 C   0  0  0  0  0  0  0  0  0  0  0  0
    3.8920   14.1430   -1.9200 C   0  0  0  0  0  0  0  0  0  0  0  0
    3.4850   15.3630   -1.0730 C   0  0  0  0  0  0  0  0  0  0  0  0
    2.6260   16.3350   -1.8880 C   0  0  2  0  0  0  0  0  0  0  0  0
    3.5000   16.8640   -3.0760 C   0  0  0  0  0  0  0  0  0  0  0  0
    3.6116   18.4554    1.2241 H   0  0  0  0  0  0  0  0  0  0  0  0
    4.2541   17.2130    0.0970 H   0  0  0  0  0  0  0  0  0  0  0  0
    4.9474   18.8701    0.0970 H   0  0  0  0  0  0  0  0  0  0  0  0
    3.5588   18.9775   -1.7458 H   0  0  0  0  0  0  0  0  0  0  0  0
    2.9127   20.7106   -0.0291 H   0  0  0  0  0  0  0  0  0  0  0  0
    1.6428   20.3017   -1.2793 H   0  0  0  0  0  0  0  0  0  0  0  0
    1.1139   18.5862    0.8599 H   0  0  0  0  0  0  0  0  0  0  0  0
    1.5104   20.1839    1.6190 H   0  0  0  0  0  0  0  0  0  0  0  0
    0.2569   20.8876   -0.3921 H   0  0  0  0  0  0  0  0  0  0  0  0
   -1.3684   17.7454    1.7357 H   0  0  0  0  0  0  0  0  0  0  0  0
   -2.2534   17.3668    0.2190 H   0  0  0  0  0  0  0  0  0  0  0  0
   -0.4583   17.4321    0.2190 H   0  0  0  0  0  0  0  0  0  0  0  0
   -3.4079   20.1034    0.1536 H   0  0  0  0  0  0  0  0  0  0  0  0
   -2.2858   20.6296   -1.1467 H   0  0  0  0  0  0  0  0  0  0  0  0
   -2.9388   18.9562   -1.1467 H   0  0  0  0  0  0  0  0  0  0  0  0
    1.7818   17.2705   -0.1034 H   0  0  0  0  0  0  0  0  0  0  0  0
   -0.0147   18.2365   -1.4002 H   0  0  0  0  0  0  0  0  0  0  0  0
    1.1064   18.8741   -2.6219 H   0  0  0  0  0  0  0  0  0  0  0  0
   -0.5555   16.5699   -2.9340 H   0  0  0  0  0  0  0  0  0  0  0  0
    0.8029   16.9573   -3.9868 H   0  0  0  0  0  0  0  0  0  0  0  0
    0.9014   15.3690   -0.1812 H   0  0  0  0  0  0  0  0  0  0  0  0
   -0.5681   15.5798   -1.1925 H   0  0  0  0  0  0  0  0  0  0  0  0
    0.3046   14.0097   -1.1925 H   0  0  0  0  0  0  0  0  0  0  0  0
    2.1579   14.9538   -4.1259 H   0  0  0  0  0  0  0  0  0  0  0  0
   -0.3564   14.4016   -3.9964 H   0  0  0  0  0  0  0  0  0  0  0  0
    0.8202   13.2868   -4.8688 H   0  0  0  0  0  0  0  0  0  0  0  0
   -1.0109   12.1145   -3.3806 H   0  0  0  0  0  0  0  0  0  0  0  0
    2.0148   12.8339   -0.8062 H   0  0  0  0  0  0  0  0  0  0  0  0
    3.0654   10.5647   -2.6067 H   0  0  0  0  0  0  0  0  0  0  0  0
    3.9500   11.3699   -1.2358 H   0  0  0  0  0  0  0  0  0  0  0  0
    3.0473    9.1574   -0.5959 H   0  0  0  0  0  0  0  0  0  0  0  0
    2.3264   10.5155    0.3537 H   0  0  0  0  0  0  0  0  0  0  0  0
    0.5795    8.9846   -0.2509 H   0  0  0  0  0  0  0  0  0  0  0  0
    1.8790    9.1760   -2.7530 H   0  0  0  0  0  0  0  0  0  0  0  0
    0.0345   10.7523    0.9255 H   0  0  0  0  0  0  0  0  0  0  0  0
    0.1533   12.3981    0.2156 H   0  0  0  0  0  0  0  0  0  0  0  0
   -1.4200   11.5313    0.2156 H   0  0  0  0  0  0  0  0  0  0  0  0
   -1.9823    9.9495   -0.9829 H   0  0  0  0  0  0  0  0  0  0  0  0
   -1.8129   10.9970   -2.4323 H   0  0  0  0  0  0  0  0  0  0  0  0
   -1.1114    9.3433   -2.4323 H   0  0  0  0  0  0  0  0  0  0  0  0
    4.1539   11.9886   -3.5868 H   0  0  0  0  0  0  0  0  0  0  0  0
    2.6540   12.2259   -4.5465 H   0  0  0  0  0  0  0  0  0  0  0  0
    3.9298   13.4905   -4.5465 H   0  0  0  0  0  0  0  0  0  0  0  0
    4.3509   13.4067   -1.2438 H   0  0  0  0  0  0  0  0  0  0  0  0
    4.5652   14.5414   -2.6934 H   0  0  0  0  0  0  0  0  0  0  0  0
    2.9100   15.0195   -0.2004 H   0  0  0  0  0  0  0  0  0  0  0  0
    4.3974   15.8865   -0.7514 H   0  0  0  0  0  0  0  0  0  0  0  0
    4.3772   17.3950   -2.6778 H   0  0  0  0  0  0  0  0  0  0  0  0
    3.8332   16.0159   -3.6921 H   0  0  0  0  0  0  0  0  0  0  0  0
    2.9031   17.5526   -3.6921 H   0  0  0  0  0  0  0  0  0  0  0  0
  1  2  1  0
  2  3  1  0
  3  4  1  0
  4  5  1  0
  5  6  1  0
  6  7  1  0
  7  8  1  0
  7  9  1  0
  2 10  1  0
 10 11  1  0
 11 12  1  0
 12 13  1  0
 13 14  1  1
 13 15  1  0
 15 16  1  0
 16 17  1  0
 17 18  2  0
 18 19  1  0
 19 20  1  0
 20 21  1  0
 21 22  1  0
 22 23  1  0
 22 24  1  0
 24 25  1  0
 24 26  1  0
 19 27  1  0
 27 28  1  6
 27 29  1  0
 29 30  1  0
 30 31  1  0
 31 32  1  6
  7  5  1  0
 31 10  1  0
 31 13  1  0
 27 15  1  0
 24 18  1  0
  1 33  1  0
  1 34  1  0
  1 35  1  0
  2 36  1  6
  3 37  1  0
  3 38  1  0
  4 39  1  0
  4 40  1  0
  5 41  1  6
  8 42  1  0
  8 43  1  0
  8 44  1  0
  9 45  1  0
  9 46  1  0
  9 47  1  0
 10 48  1  1
 11 49  1  0
 11 50  1  0
 12 51  1  0
 12 52  1  0
 14 53  1  0
 14 54  1  0
 14 55  1  0
 15 56  1  6
 16 57  1  0
 16 58  1  0
 17 59  1  0
 19 60  1  1
 20 61  1  0
 20 62  1  0
 21 63  1  0
 21 64  1  0
 22 65  1  1
 23 66  1  0
 25 67  1  0
 25 68  1  0
 25 69  1  0
 26 70  1  0
 26 71  1  0
 26 72  1  0
 28 73  1  0
 28 74  1  0
 28 75  1  0
 29 76  1  0
 29 77  1  0
 30 78  1  0
 30 79  1  0
 32 80  1  0
 32 81  1  0
 32 82  1  0
M  END
>  <meeko>  (1) 
{"is_sidechain": [false], "intermolecular_energy": 2.731, "internal_energy": -0.839}

$$$$
EPH_relaxed_0001_pdb2pqr_Repair_310_r2_0001_out
     RDKit          3D

 82 86  0  0  0  0  0  0  0  0999 V2000
    4.6250   17.7230   -0.9340 C   0  0  0  0  0  0  0  0  0  0  0  0
    3.2430   18.3130   -0.6380 C   0  0  2  0  0  0  0  0  0  0  0  0
    3.1730   18.9530    0.7630 C   0  0  0  0  0  0  0  0  0  0  0  0
    4.3380   18.5640    1.6770 C   0  0  0  0  0  0  0  0  0  0  0  0
    4.1880   19.1510    3.0480 C   0  0  2  0  0  0  0  0  0  0  0  0
    5.1210   20.1940    3.3580 O   0  0  0  0  0  0  0  0  0  0  0  0
    5.2270   18.9960    4.1430 C   0  0  0  0  0  0  0  0  0  0  0  0
    6.4910   18.2290    3.9160 C   0  0  0  0  0  0  0  0  0  0  0  0
    4.7970   19.1680    5.5660 C   0  0  0  0  0  0  0  0  0  0  0  0
    2.1770   17.2320   -0.7700 C   0  0  1  0  0  0  0  0  0  0  0  0
    0.8260   17.7860   -1.2960 C   0  0  0  0  0  0  0  0  0  0  0  0
    0.2050   16.6780   -2.1850 C   0  0  0  0  0  0  0  0  0  0  0  0
    1.0420   15.4150   -1.8780 C   0  0  1  0  0  0  0  0  0  0  0  0
    0.4500   14.8550   -0.5470 C   0  0  0  0  0  0  0  0  0  0  0  0
    1.0820   14.3230   -2.9960 C   0  0  2  0  0  0  0  0  0  0  0  0
   -0.2770   13.6900   -3.3390 C   0  0  0  0  0  0  0  0  0  0  0  0
   -0.6300   12.4710   -2.5530 C   0  0  0  0  0  0  0  0  0  0  0  0
    0.2270   11.7420   -1.8140 C   0  0  0  0  0  0  0  0  0  0  0  0
    1.7260   12.0670   -1.7960 C   0  0  1  0  0  0  0  0  0  0  0  0
    2.5420   10.7600   -1.9730 C   0  0  0  0  0  0  0  0  0  0  0  0
    2.1650    9.6920   -0.9510 C   0  0  0  0  0  0  0  0  0  0  0  0
    0.6790    9.3530   -1.0400 C   0  0  2  0  0  0  0  0  0  0  0  0
    0.4240    8.7190   -2.2970 O   0  0  0  0  0  0  0  0  0  0  0  0
   -0.2430   10.5950   -0.8850 C   0  0  0  0  0  0  0  0  0  0  0  0
   -0.1910   11.1030    0.5770 C   0  0  0  0  0  0  0  0  0  0  0  0
   -1.7060   10.1390   -1.1340 C   0  0  0  0  0  0  0  0  0  0  0  0
    2.1970   13.2190   -2.7850 C   0  0  1  0  0  0  0  0  0  0  0  0
    2.5030   12.6210   -4.1920 C   0  0  0  0  0  0  0  0  0  0  0  0
    3.5500   13.8280   -2.2570 C   0  0  0  0  0  0  0  0  0  0  0  0
    3.4430   14.9840   -1.2440 C   0  0  0  0  0  0  0  0  0  0  0  0
    2.4700   16.0590   -1.7390 C   0  0  2  0  0  0  0  0  0  0  0  0
    3.0510   16.6560   -3.0660 C   0  0  0  0  0  0  0  0  0  0  0  0
    5.1402   17.5031    0.0127 H   0  0  0  0  0  0  0  0  0  0  0  0
    4.5111   16.7951   -1.5136 H   0  0  0  0  0  0  0  0  0  0  0  0
    5.2163   18.4471   -1.5136 H   0  0  0  0  0  0  0  0  0  0  0  0
    3.0586   19.1089   -1.3745 H   0  0  0  0  0  0  0  0  0  0  0  0
    3.1742   20.0467    0.6455 H   0  0  0  0  0  0  0  0  0  0  0  0
    2.2534   18.5827    1.2396 H   0  0  0  0  0  0  0  0  0  0  0  0
    4.3745   17.4678    1.7608 H   0  0  0  0  0  0  0  0  0  0  0  0
    5.2657   18.9572    1.2357 H   0  0  0  0  0  0  0  0  0  0  0  0
    3.1025   18.9741    3.0304 H   0  0  0  0  0  0  0  0  0  0  0  0
    6.9354   17.9593    4.8854 H   0  0  0  0  0  0  0  0  0  0  0  0
    6.2676   17.3140    3.3478 H   0  0  0  0  0  0  0  0  0  0  0  0
    7.1995   18.8496    3.3478 H   0  0  0  0  0  0  0  0  0  0  0  0
    5.6073   18.8439    6.2356 H   0  0  0  0  0  0  0  0  0  0  0  0
    4.5674   20.2272    5.7542 H   0  0  0  0  0  0  0  0  0  0  0  0
    3.9003   18.5594    5.7542 H   0  0  0  0  0  0  0  0  0  0  0  0
    2.1556   16.8665    0.2673 H   0  0  0  0  0  0  0  0  0  0  0  0
    0.1568   18.0155   -0.4537 H   0  0  0  0  0  0  0  0  0  0  0  0
    0.9749   18.7141   -1.8673 H   0  0  0  0  0  0  0  0  0  0  0  0
   -0.8511   16.5168   -1.9231 H   0  0  0  0  0  0  0  0  0  0  0  0
    0.2242   16.9411   -3.2529 H   0  0  0  0  0  0  0  0  0  0  0  0
    0.9535   15.3312    0.3072 H   0  0  0  0  0  0  0  0  0  0  0  0
   -0.6276   15.0720   -0.5050 H   0  0  0  0  0  0  0  0  0  0  0  0
    0.6068   13.7670   -0.5050 H   0  0  0  0  0  0  0  0  0  0  0  0
    1.3727   14.9051   -3.8830 H   0  0  0  0  0  0  0  0  0  0  0  0
   -1.0574   14.4451   -3.1637 H   0  0  0  0  0  0  0  0  0  0  0  0
   -0.2051   13.3653   -4.3875 H   0  0  0  0  0  0  0  0  0  0  0  0
   -1.6789   12.1406   -2.5800 H   0  0  0  0  0  0  0  0  0  0  0  0
    1.9307   12.5032   -0.8071 H   0  0  0  0  0  0  0  0  0  0  0  0
    2.3575   10.3631   -2.9822 H   0  0  0  0  0  0  0  0  0  0  0  0
    3.6035   11.0062   -1.8225 H   0  0  0  0  0  0  0  0  0  0  0  0
    2.7539    8.7835   -1.1456 H   0  0  0  0  0  0  0  0  0  0  0  0
    2.3774   10.0792    0.0565 H   0  0  0  0  0  0  0  0  0  0  0  0
    0.4440    8.6807   -0.2017 H   0  0  0  0  0  0  0  0  0  0  0  0
   -0.5220    8.4980   -2.3290 H   0  0  0  0  0  0  0  0  0  0  0  0
   -0.2784   10.2493    1.2651 H   0  0  0  0  0  0  0  0  0  0  0  0
    0.7646   11.6188    0.7522 H   0  0  0  0  0  0  0  0  0  0  0  0
   -1.0223   11.8017    0.7522 H   0  0  0  0  0  0  0  0  0  0  0  0
   -2.2103    9.9818   -0.1691 H   0  0  0  0  0  0  0  0  0  0  0  0
   -2.2394   10.9135   -1.7046 H   0  0  0  0  0  0  0  0  0  0  0  0
   -1.7049    9.1986   -1.7046 H   0  0  0  0  0  0  0  0  0  0  0  0
    3.0013   11.6472   -4.0761 H   0  0  0  0  0  0  0  0  0  0  0  0
    1.5623   12.4878   -4.7463 H   0  0  0  0  0  0  0  0  0  0  0  0
    3.1613   13.3061   -4.7463 H   0  0  0  0  0  0  0  0  0  0  0  0
    4.1154   13.0159   -1.7767 H   0  0  0  0  0  0  0  0  0  0  0  0
    4.0338   14.2654   -3.1428 H   0  0  0  0  0  0  0  0  0  0  0  0
    3.0831   14.5880   -0.2829 H   0  0  0  0  0  0  0  0  0  0  0  0
    4.4374   15.4391   -1.1250 H   0  0  0  0  0  0  0  0  0  0  0  0
    3.7996   17.4252   -2.8251 H   0  0  0  0  0  0  0  0  0  0  0  0
    3.5243   15.8546   -3.6522 H   0  0  0  0  0  0  0  0  0  0  0  0
    2.2370   17.1074   -3.6522 H   0  0  0  0  0  0  0  0  0  0  0  0
  1  2  1  0
  2  3  1  0
  3  4  1  0
  4  5  1  0
  5  6  1  0
  6  7  1  0
  7  8  1  0
  7  9  1  0
  2 10  1  0
 10 11  1  0
 11 12  1  0
 12 13  1  0
 13 14  1  1
 13 15  1  0
 15 16  1  0
 16 17  1  0
 17 18  2  0
 18 19  1  0
 19 20  1  0
 20 21  1  0
 21 22  1  0
 22 23  1  0
 22 24  1  0
 24 25  1  0
 24 26  1  0
 19 27  1  0
 27 28  1  6
 27 29  1  0
 29 30  1  0
 30 31  1  0
 31 32  1  6
  7  5  1  0
 31 10  1  0
 31 13  1  0
 27 15  1  0
 24 18  1  0
  1 33  1  0
  1 34  1  0
  1 35  1  0
  2 36  1  6
  3 37  1  0
  3 38  1  0
  4 39  1  0
  4 40  1  0
  5 41  1  1
  8 42  1  0
  8 43  1  0
  8 44  1  0
  9 45  1  0
  9 46  1  0
  9 47  1  0
 10 48  1  1
 11 49  1  0
 11 50  1  0
 12 51  1  0
 12 52  1  0
 14 53  1  0
 14 54  1  0
 14 55  1  0
 15 56  1  6
 16 57  1  0
 16 58  1  0
 17 59  1  0
 19 60  1  1
 20 61  1  0
 20 62  1  0
 21 63  1  0
 21 64  1  0
 22 65  1  1
 23 66  1  0
 25 67  1  0
 25 68  1  0
 25 69  1  0
 26 70  1  0
 26 71  1  0
 26 72  1  0
 28 73  1  0
 28 74  1  0
 28 75  1  0
 29 76  1  0
 29 77  1  0
 30 78  1  0
 30 79  1  0
 32 80  1  0
 32 81  1  0
 32 82  1  0
M  END
>  <meeko>  (2) 
{"is_sidechain": [false], "intermolecular_energy": 2.731, "internal_energy": -0.839}

$$$$
EPH_relaxed_0001_pdb2pqr_Repair_310_r2_0001_out
     RDKit          3D

 82 86  0  0  0  0  0  0  0  0999 V2000
    2.7020   17.1670   -0.4740 C   0  0  0  0  0  0  0  0  0  0  0  0
    2.2070   17.3000   -1.9170 C   0  0  2  0  0  0  0  0  0  0  0  0
    1.3820   18.5850   -2.1310 C   0  0  0  0  0  0  0  0  0  0  0  0
    1.3710   19.5190   -0.9180 C   0  0  0  0  0  0  0  0  0  0  0  0
    0.0050   20.0800   -0.6630 C   0  0  2  0  0  0  0  0  0  0  0  0
   -0.3480   20.1930    0.7220 O   0  0  0  0  0  0  0  0  0  0  0  0
   -1.1310   19.2760   -0.0590 C   0  0  0  0  0  0  0  0  0  0  0  0
   -0.9520   17.8410    0.3270 C   0  0  0  0  0  0  0  0  0  0  0  0
   -2.5370   19.7340   -0.2950 C   0  0  0  0  0  0  0  0  0  0  0  0
    1.3770   16.0790   -2.2970 C   0  0  1  0  0  0  0  0  0  0  0  0
    0.8260   16.1580   -3.7460 C   0  0  0  0  0  0  0  0  0  0  0  0
    0.8260   14.7120   -4.3040 C   0  0  0  0  0  0  0  0  0  0  0  0
    1.0570   13.8160   -3.0650 C   0  0  1  0  0  0  0  0  0  0  0  0
   -0.3460   13.6910   -2.3930 C   0  0  0  0  0  0  0  0  0  0  0  0
    1.6940   12.4140   -3.3350 C   0  0  2  0  0  0  0  0  0  0  0  0
    0.8540   11.4740   -4.2170 C   0  0  0  0  0  0  0  0  0  0  0  0
   -0.0960   10.5890   -3.4810 C   0  0  0  0  0  0  0  0  0  0  0  0
   -0.0710   10.3420   -2.1580 C   0  0  0  0  0  0  0  0  0  0  0  0
    1.0490   10.9050   -1.2730 C   0  0  1  0  0  0  0  0  0  0  0  0
    1.5850    9.7870   -0.3420 C   0  0  0  0  0  0  0  0  0  0  0  0
    0.4780    9.1210    0.4710 C   0  0  0  0  0  0  0  0  0  0  0  0
   -0.5860    8.5230   -0.4460 C   0  0  2  0  0  0  0  0  0  0  0  0
   -0.0070    7.4370   -1.1760 O   0  0  0  0  0  0  0  0  0  0  0  0
   -1.1920    9.5550   -1.4370 C   0  0  0  0  0  0  0  0  0  0  0  0
   -2.0730   10.5650   -0.6610 C   0  0  0  0  0  0  0  0  0  0  0  0
   -2.1470    8.7930   -2.3950 C   0  0  0  0  0  0  0  0  0  0  0  0
    2.2120   11.6760   -2.0340 C   0  0  1  0  0  0  0  0  0  0  0  0
    3.3040   10.6650   -2.5010 C   0  0  0  0  0  0  0  0  0  0  0  0
    2.9200   12.6600   -1.0290 C   0  0  0  0  0  0  0  0  0  0  0  0
    2.3140   14.0700   -0.8960 C   0  0  0  0  0  0  0  0  0  0  0  0
    2.0860   14.7020   -2.2720 C   0  0  2  0  0  0  0  0  0  0  0  0
    3.4830   14.8600   -2.9630 C   0  0  0  0  0  0  0  0  0  0  0  0
    1.8767   17.3887    0.2186 H   0  0  0  0  0  0  0  0  0  0  0  0
    3.0594   16.1410   -0.3020 H   0  0  0  0  0  0  0  0  0  0  0  0
    3.5255   17.8757   -0.3020 H   0  0  0  0  0  0  0  0  0  0  0  0
    3.0927   17.3637   -2.5662 H   0  0  0  0  0  0  0  0  0  0  0  0
    1.8062   19.1315   -2.9862 H   0  0  0  0  0  0  0  0  0  0  0  0
    0.3417   18.2734   -2.3060 H   0  0  0  0  0  0  0  0  0  0  0  0
    1.6962   18.9554   -0.0311 H   0  0  0  0  0  0  0  0  0  0  0  0
    2.0529   20.3571   -1.1243 H   0  0  0  0  0  0  0  0  0  0  0  0
    0.0681   20.7045   -1.5663 H   0  0  0  0  0  0  0  0  0  0  0  0
   -0.9413   17.7549    1.4236 H   0  0  0  0  0  0  0  0  0  0  0  0
   -1.7828   17.2456   -0.0794 H   0  0  0  0  0  0  0  0  0  0  0  0
   -0.0004   17.4679   -0.0794 H   0  0  0  0  0  0  0  0  0  0  0  0
   -3.0367   19.8968    0.6713 H   0  0  0  0  0  0  0  0  0  0  0  0
   -2.5254   20.6748   -0.8649 H   0  0  0  0  0  0  0  0  0  0  0  0
   -3.0818   18.9669   -0.8649 H   0  0  0  0  0  0  0  0  0  0  0  0
    0.6123   16.1229   -1.5075 H   0  0  0  0  0  0  0  0  0  0  0  0
   -0.1971   16.5619   -3.7407 H   0  0  0  0  0  0  0  0  0  0  0  0
    1.4448   16.8214   -4.3682 H   0  0  0  0  0  0  0  0  0  0  0  0
   -0.1389   14.4785   -4.7777 H   0  0  0  0  0  0  0  0  0  0  0  0
    1.5951   14.5627   -5.0761 H   0  0  0  0  0  0  0  0  0  0  0  0
   -0.2308   13.7013   -1.2991 H   0  0  0  0  0  0  0  0  0  0  0  0
   -0.9777   14.5364   -2.7031 H   0  0  0  0  0  0  0  0  0  0  0  0
   -0.8183   12.7472   -2.7031 H   0  0  0  0  0  0  0  0  0  0  0  0
    2.5816   12.6698   -3.9323 H   0  0  0  0  0  0  0  0  0  0  0  0
    0.2708   12.0932   -4.9144 H   0  0  0  0  0  0  0  0  0  0  0  0
    1.5699   10.8040   -4.7157 H   0  0  0  0  0  0  0  0  0  0  0  0
   -0.8838   10.0965   -4.0699 H   0  0  0  0  0  0  0  0  0  0  0  0
    0.5892   11.7026   -0.6709 H   0  0  0  0  0  0  0  0  0  0  0  0
    2.0789    9.0215   -0.9585 H   0  0  0  0  0  0  0  0  0  0  0  0
    2.2867   10.2509    0.3669 H   0  0  0  0  0  0  0  0  0  0  0  0
    0.9147    8.3204    1.0862 H   0  0  0  0  0  0  0  0  0  0  0  0
    0.0048    9.8813    1.1098 H   0  0  0  0  0  0  0  0  0  0  0  0
   -1.4138    8.1776    0.1907 H   0  0  0  0  0  0  0  0  0  0  0  0
    0.9520    7.5880   -1.2180 H   0  0  0  0  0  0  0  0  0  0  0  0
   -1.9400   10.4125    0.4202 H   0  0  0  0  0  0  0  0  0  0  0  0
   -1.7755   11.5903   -0.9260 H   0  0  0  0  0  0  0  0  0  0  0  0
   -3.1292   10.4095   -0.9260 H   0  0  0  0  0  0  0  0  0  0  0  0
   -2.8728    8.2139   -1.8051 H   0  0  0  0  0  0  0  0  0  0  0  0
   -2.6826    9.5147   -3.0293 H   0  0  0  0  0  0  0  0  0  0  0  0
   -1.5623    8.1106   -3.0293 H   0  0  0  0  0  0  0  0  0  0  0  0
    3.7886   10.2164   -1.6213 H   0  0  0  0  0  0  0  0  0  0  0  0
    2.8366    9.8737   -3.1055 H   0  0  0  0  0  0  0  0  0  0  0  0
    4.0570   11.1919   -3.1055 H   0  0  0  0  0  0  0  0  0  0  0  0
    2.8972   12.1925   -0.0335 H   0  0  0  0  0  0  0  0  0  0  0  0
    3.9278   12.8170   -1.4410 H   0  0  0  0  0  0  0  0  0  0  0  0
    1.3512   13.9993   -0.3687 H   0  0  0  0  0  0  0  0  0  0  0  0
    3.0168   14.7015   -0.3327 H   0  0  0  0  0  0  0  0  0  0  0  0
    4.2645   14.9484   -2.1940 H   0  0  0  0  0  0  0  0  0  0  0  0
    3.6836   13.9788   -3.5901 H   0  0  0  0  0  0  0  0  0  0  0  0
    3.4818   15.7637   -3.5901 H   0  0  0  0  0  0  0  0  0  0  0  0
  1  2  1  0
  2  3  1  0
  3  4  1  0
  4  5  1  0
  5  6  1  0
  6  7  1  0
  7  8  1  0
  7  9  1  0
  2 10  1  0
 10 11  1  0
 11 12  1  0
 12 13  1  0
 13 14  1  1
 13 15  1  0
 15 16  1  0
 16 17  1  0
 17 18  2  0
 18 19  1  0
 19 20  1  0
 20 21  1  0
 21 22  1  0
 22 23  1  0
 22 24  1  0
 24 25  1  0
 24 26  1  0
 19 27  1  0
 27 28  1  6
 27 29  1  0
 29 30  1  0
 30 31  1  0
 31 32  1  6
  7  5  1  0
 31 10  1  0
 31 13  1  0
 27 15  1  0
 24 18  1  0
  1 33  1  0
  1 34  1  0
  1 35  1  0
  2 36  1  6
  3 37  1  0
  3 38  1  0
  4 39  1  0
  4 40  1  0
  5 41  1  6
  8 42  1  0
  8 43  1  0
  8 44  1  0
  9 45  1  0
  9 46  1  0
  9 47  1  0
 10 48  1  1
 11 49  1  0
 11 50  1  0
 12 51  1  0
 12 52  1  0
 14 53  1  0
 14 54  1  0
 14 55  1  0
 15 56  1  6
 16 57  1  0
 16 58  1  0
 17 59  1  0
 19 60  1  1
 20 61  1  0
 20 62  1  0
 21 63  1  0
 21 64  1  0
 22 65  1  1
 23 66  1  0
 25 67  1  0
 25 68  1  0
 25 69  1  0
 26 70  1  0
 26 71  1  0
 26 72  1  0
 28 73  1  0
 28 74  1  0
 28 75  1  0
 29 76  1  0
 29 77  1  0
 30 78  1  0
 30 79  1  0
 32 80  1  0
 32 81  1  0
 32 82  1  0
M  END
>  <meeko>  (3) 
{"is_sidechain": [false], "intermolecular_energy": 2.731, "internal_energy": -0.839}

$$$$
EPH_relaxed_0001_pdb2pqr_Repair_310_r2_0001_out
     RDKit          3D

 82 86  0  0  0  0  0  0  0  0999 V2000
    3.0080   17.7560   -2.6810 C   0  0  0  0  0  0  0  0  0  0  0  0
    2.0330   17.3310   -1.5790 C   0  0  2  0  0  0  0  0  0  0  0  0
    2.7540   17.0350   -0.2490 C   0  0  0  0  0  0  0  0  0  0  0  0
    3.7910   18.0930    0.1380 C   0  0  0  0  0  0  0  0  0  0  0  0
    3.4740   18.7230    1.4600 C   0  0  2  0  0  0  0  0  0  0  0  0
    3.8650   20.0970    1.5780 O   0  0  0  0  0  0  0  0  0  0  0  0
    4.5340   19.1710    2.4500 C   0  0  0  0  0  0  0  0  0  0  0  0
    5.9920   19.0060    2.1580 C   0  0  0  0  0  0  0  0  0  0  0  0
    4.1520   19.3160    3.8900 C   0  0  0  0  0  0  0  0  0  0  0  0
    1.2430   16.1070   -2.0270 C   0  0  1  0  0  0  0  0  0  0  0  0
    0.7340   16.2270   -3.4880 C   0  0  0  0  0  0  0  0  0  0  0  0
    0.7830   14.8020   -4.0970 C   0  0  0  0  0  0  0  0  0  0  0  0
    0.9970   13.8670   -2.8840 C   0  0  1  0  0  0  0  0  0  0  0  0
   -0.4220   13.6870   -2.2600 C   0  0  0  0  0  0  0  0  0  0  0  0
    1.6740   12.4890   -3.1840 C   0  0  2  0  0  0  0  0  0  0  0  0
    0.8810   11.5640   -4.1240 C   0  0  0  0  0  0  0  0  0  0  0  0
   -0.0700   10.6320   -3.4490 C   0  0  0  0  0  0  0  0  0  0  0  0
   -0.0780   10.3390   -2.1360 C   0  0  0  0  0  0  0  0  0  0  0  0
    1.0020   10.8940   -1.1980 C   0  0  1  0  0  0  0  0  0  0  0  0
    1.5360    9.7540   -0.2910 C   0  0  0  0  0  0  0  0  0  0  0  0
    0.4210    9.0360    0.4630 C   0  0  0  0  0  0  0  0  0  0  0  0
   -0.6020    8.4480   -0.5050 C   0  0  2  0  0  0  0  0  0  0  0  0
    0.0220    7.4020   -1.2560 O   0  0  0  0  0  0  0  0  0  0  0  0
   -1.2020    9.5020   -1.4770 C   0  0  0  0  0  0  0  0  0  0  0  0
   -2.1280   10.4650   -0.6930 C   0  0  0  0  0  0  0  0  0  0  0  0
   -2.1100    8.7550   -2.4900 C   0  0  0  0  0  0  0  0  0  0  0  0
    2.1700   11.7160   -1.8950 C   0  0  1  0  0  0  0  0  0  0  0  0
    3.2970   10.7460   -2.3640 C   0  0  0  0  0  0  0  0  0  0  0  0
    2.8250   12.6790   -0.8350 C   0  0  0  0  0  0  0  0  0  0  0  0
    2.1830   14.0700   -0.6700 C   0  0  0  0  0  0  0  0  0  0  0  0
    1.9820   14.7460   -2.0300 C   0  0  2  0  0  0  0  0  0  0  0  0
    3.3950   14.9590   -2.6720 C   0  0  0  0  0  0  0  0  0  0  0  0
    3.9255   18.1559   -2.2246 H   0  0  0  0  0  0  0  0  0  0  0  0
    3.2583   16.8853   -3.3049 H   0  0  0  0  0  0  0  0  0  0  0  0
    2.5405   18.5320   -3.3049 H   0  0  0  0  0  0  0  0  0  0  0  0
    1.3463   18.1720   -1.4024 H   0  0  0  0  0  0  0  0  0  0  0  0
    1.9999   16.9794    0.5499 H   0  0  0  0  0  0  0  0  0  0  0  0
    3.2961   16.0870   -0.3814 H   0  0  0  0  0  0  0  0  0  0  0  0
    4.7807   17.6166    0.1984 H   0  0  0  0  0  0  0  0  0  0  0  0
    3.7788   18.8814   -0.6290 H   0  0  0  0  0  0  0  0  0  0  0  0
    2.5794   18.0927    1.5718 H   0  0  0  0  0  0  0  0  0  0  0  0
    6.5505   18.9428    3.1036 H   0  0  0  0  0  0  0  0  0  0  0  0
    6.1478   18.0845    1.5779 H   0  0  0  0  0  0  0  0  0  0  0  0
    6.3498   19.8694    1.5779 H   0  0  0  0  0  0  0  0  0  0  0  0
    4.9912   18.9975    4.5258 H   0  0  0  0  0  0  0  0  0  0  0  0
    3.9108   20.3682    4.1012 H   0  0  0  0  0  0  0  0  0  0  0  0
    3.2733   18.6889    4.1012 H   0  0  0  0  0  0  0  0  0  0  0  0
    0.4546   16.1051   -1.2599 H   0  0  0  0  0  0  0  0  0  0  0  0
   -0.2976   16.6087   -3.4996 H   0  0  0  0  0  0  0  0  0  0  0  0
    1.3560   16.9256   -4.0669 H   0  0  0  0  0  0  0  0  0  0  0  0
   -0.1619   14.5653   -4.6079 H   0  0  0  0  0  0  0  0  0  0  0  0
    1.5779   14.6971   -4.8501 H   0  0  0  0  0  0  0  0  0  0  0  0
   -0.3440   13.6969   -1.1628 H   0  0  0  0  0  0  0  0  0  0  0  0
   -1.0741   14.5096   -2.5887 H   0  0  0  0  0  0  0  0  0  0  0  0
   -0.8481   12.7276   -2.5887 H   0  0  0  0  0  0  0  0  0  0  0  0
    2.5733   12.7846   -3.7442 H   0  0  0  0  0  0  0  0  0  0  0  0
    0.3044   12.1958   -4.8156 H   0  0  0  0  0  0  0  0  0  0  0  0
    1.6260   10.9283   -4.6249 H   0  0  0  0  0  0  0  0  0  0  0  0
   -0.8284   10.1435   -4.0785 H   0  0  0  0  0  0  0  0  0  0  0  0
    0.5061   11.6595   -0.5830 H   0  0  0  0  0  0  0  0  0  0  0  0
    2.0651    9.0222   -0.9190 H   0  0  0  0  0  0  0  0  0  0  0  0
    2.2060   10.2066    0.4548 H   0  0  0  0  0  0  0  0  0  0  0  0
    0.8573    8.2237    1.0628 H   0  0  0  0  0  0  0  0  0  0  0  0
   -0.0882    9.7633    1.1125 H   0  0  0  0  0  0  0  0  0  0  0  0
   -1.4393    8.0616    0.0947 H   0  0  0  0  0  0  0  0  0  0  0  0
   -0.2800    6.5550   -0.8870 H   0  0  0  0  0  0  0  0  0  0  0  0
   -1.9834   10.3146    0.3870 H   0  0  0  0  0  0  0  0  0  0  0  0
   -1.8817   11.5047   -0.9546 H   0  0  0  0  0  0  0  0  0  0  0  0
   -3.1765   10.2596   -0.9546 H   0  0  0  0  0  0  0  0  0  0  0  0
   -2.8473    8.1485   -1.9436 H   0  0  0  0  0  0  0  0  0  0  0  0
   -2.6338    9.4871   -3.1222 H   0  0  0  0  0  0  0  0  0  0  0  0
   -1.4925    8.1000   -3.1222 H   0  0  0  0  0  0  0  0  0  0  0  0
    3.7985   10.3144   -1.4852 H   0  0  0  0  0  0  0  0  0  0  0  0
    2.8579    9.9389   -2.9688 H   0  0  0  0  0  0  0  0  0  0  0  0
    4.0297   11.3004   -2.9688 H   0  0  0  0  0  0  0  0  0  0  0  0
    2.7840   12.1755    0.1422 H   0  0  0  0  0  0  0  0  0  0  0  0
    3.8402   12.8733   -1.2112 H   0  0  0  0  0  0  0  0  0  0  0  0
    1.2067   13.9593   -0.1754 H   0  0  0  0  0  0  0  0  0  0  0  0
    2.8535   14.6960   -0.0629 H   0  0  0  0  0  0  0  0  0  0  0  0
    4.1460   15.0722   -1.8763 H   0  0  0  0  0  0  0  0  0  0  0  0
    3.6495   14.0891   -3.2953 H   0  0  0  0  0  0  0  0  0  0  0  0
    3.3817   15.8653   -3.2953 H   0  0  0  0  0  0  0  0  0  0  0  0
  1  2  1  0
  2  3  1  0
  3  4  1  0
  4  5  1  0
  5  6  1  0
  6  7  1  0
  7  8  1  0
  7  9  1  0
  2 10  1  0
 10 11  1  0
 11 12  1  0
 12 13  1  0
 13 14  1  1
 13 15  1  0
 15 16  1  0
 16 17  1  0
 17 18  2  0
 18 19  1  0
 19 20  1  0
 20 21  1  0
 21 22  1  0
 22 23  1  0
 22 24  1  0
 24 25  1  0
 24 26  1  0
 19 27  1  0
 27 28  1  6
 27 29  1  0
 29 30  1  0
 30 31  1  0
 31 32  1  6
  7  5  1  0
 31 10  1  0
 31 13  1  0
 27 15  1  0
 24 18  1  0
  1 33  1  0
  1 34  1  0
  1 35  1  0
  2 36  1  1
  3 37  1  0
  3 38  1  0
  4 39  1  0
  4 40  1  0
  5 41  1  1
  8 42  1  0
  8 43  1  0
  8 44  1  0
  9 45  1  0
  9 46  1  0
  9 47  1  0
 10 48  1  1
 11 49  1  0
 11 50  1  0
 12 51  1  0
 12 52  1  0
 14 53  1  0
 14 54  1  0
 14 55  1  0
 15 56  1  6
 16 57  1  0
 16 58  1  0
 17 59  1  0
 19 60  1  1
 20 61  1  0
 20 62  1  0
 21 63  1  0
 21 64  1  0
 22 65  1  1
 23 66  1  0
 25 67  1  0
 25 68  1  0
 25 69  1  0
 26 70  1  0
 26 71  1  0
 26 72  1  0
 28 73  1  0
 28 74  1  0
 28 75  1  0
 29 76  1  0
 29 77  1  0
 30 78  1  0
 30 79  1  0
 32 80  1  0
 32 81  1  0
 32 82  1  0
M  END
>  <meeko>  (4) 
{"is_sidechain": [false], "intermolecular_energy": 2.731, "internal_energy": -0.839}

$$$$
EPH_relaxed_0001_pdb2pqr_Repair_310_r2_0001_out
     RDKit          3D

 82 86  0  0  0  0  0  0  0  0999 V2000
   -0.7950    8.0070   -1.3170 C   0  0  0  0  0  0  0  0  0  0  0  0
   -1.0540    9.2330   -0.4370 C   0  0  2  0  0  0  0  0  0  0  0  0
   -2.3710    9.9450   -0.8060 C   0  0  0  0  0  0  0  0  0  0  0  0
   -3.6070    9.3390   -0.1360 C   0  0  0  0  0  0  0  0  0  0  0  0
   -3.9270    7.9820   -0.6860 C   0  0  2  0  0  0  0  0  0  0  0  0
   -4.1550    7.9480   -2.1010 O   0  0  0  0  0  0  0  0  0  0  0  0
   -5.2780    7.6130   -1.2700 C   0  0  0  0  0  0  0  0  0  0  0  0
   -6.3980    8.6040   -1.3320 C   0  0  0  0  0  0  0  0  0  0  0  0
   -5.6610    6.1670   -1.3280 C   0  0  0  0  0  0  0  0  0  0  0  0
    0.1130   10.2070   -0.5460 C   0  0  1  0  0  0  0  0  0  0  0  0
    1.4900    9.4910   -0.5550 C   0  0  0  0  0  0  0  0  0  0  0  0
    2.4140   10.3090   -1.4930 C   0  0  0  0  0  0  0  0  0  0  0  0
    1.6550   11.6360   -1.7280 C   0  0  1  0  0  0  0  0  0  0  0  0
    1.9600   12.5010   -0.4650 C   0  0  0  0  0  0  0  0  0  0  0  0
    1.9940   12.4010   -3.0480 C   0  0  2  0  0  0  0  0  0  0  0  0
    3.4520   12.8780   -3.1700 C   0  0  0  0  0  0  0  0  0  0  0  0
    3.7220   14.2470   -2.6380 C   0  0  0  0  0  0  0  0  0  0  0  0
    2.7880   15.1700   -2.3460 C   0  0  0  0  0  0  0  0  0  0  0  0
    1.3050   14.9110   -2.6390 C   0  0  1  0  0  0  0  0  0  0  0  0
    0.6880   16.1540   -3.3330 C   0  0  0  0  0  0  0  0  0  0  0  0
    0.9100   17.4370   -2.5380 C   0  0  0  0  0  0  0  0  0  0  0  0
    2.3990   17.6920   -2.3170 C   0  0  2  0  0  0  0  0  0  0  0  0
    3.0110   17.9700   -3.5800 O   0  0  0  0  0  0  0  0  0  0  0  0
    3.1290   16.5020   -1.6330 C   0  0  0  0  0  0  0  0  0  0  0  0
    2.6750   16.3930   -0.1560 C   0  0  0  0  0  0  0  0  0  0  0  0
    4.6460   16.8300   -1.5980 C   0  0  0  0  0  0  0  0  0  0  0  0
    0.9760   13.5580   -3.4060 C   0  0  1  0  0  0  0  0  0  0  0  0
    1.0790   13.7810   -4.9460 C   0  0  0  0  0  0  0  0  0  0  0  0
   -0.5170   13.1520   -3.1160 C   0  0  0  0  0  0  0  0  0  0  0  0
   -0.7730   12.2950   -1.8610 C   0  0  0  0  0  0  0  0  0  0  0  0
    0.1810   11.0970   -1.8120 C   0  0  2  0  0  0  0  0  0  0  0  0
   -0.1180   10.1960   -3.0590 C   0  0  0  0  0  0  0  0  0  0  0  0
   -0.6098    7.1303   -0.6790 H   0  0  0  0  0  0  0  0  0  0  0  0
   -1.6733    7.8194   -1.9521 H   0  0  0  0  0  0  0  0  0  0  0  0
    0.0842    8.1906   -1.9521 H   0  0  0  0  0  0  0  0  0  0  0  0
   -1.1487    8.8812    0.6009 H   0  0  0  0  0  0  0  0  0  0  0  0
   -2.2929   10.9992   -0.5018 H   0  0  0  0  0  0  0  0  0  0  0  0
   -2.5052    9.8302   -1.8917 H   0  0  0  0  0  0  0  0  0  0  0  0
   -3.4195    9.2506    0.9443 H   0  0  0  0  0  0  0  0  0  0  0  0
   -4.4634   10.0001   -0.3349 H   0  0  0  0  0  0  0  0  0  0  0  0
   -3.2949    7.4992    0.0739 H   0  0  0  0  0  0  0  0  0  0  0  0
   -6.7045    8.8752   -0.3110 H   0  0  0  0  0  0  0  0  0  0  0  0
   -6.0611    9.5052   -1.8653 H   0  0  0  0  0  0  0  0  0  0  0  0
   -7.2514    8.1599   -1.8653 H   0  0  0  0  0  0  0  0  0  0  0  0
   -5.7651    5.7740   -0.3059 H   0  0  0  0  0  0  0  0  0  0  0  0
   -6.6179    6.0622   -1.8604 H   0  0  0  0  0  0  0  0  0  0  0  0
   -4.8815    5.6023   -1.8604 H   0  0  0  0  0  0  0  0  0  0  0  0
   -0.0821   10.8276    0.3410 H   0  0  0  0  0  0  0  0  0  0  0  0
    1.9098    9.4647    0.4614 H   0  0  0  0  0  0  0  0  0  0  0  0
    1.3926    8.4525   -0.9043 H   0  0  0  0  0  0  0  0  0  0  0  0
    3.3858   10.4972   -1.0133 H   0  0  0  0  0  0  0  0  0  0  0  0
    2.6289    9.7792   -2.4328 H   0  0  0  0  0  0  0  0  0  0  0  0
    1.7526   11.9128    0.4411 H   0  0  0  0  0  0  0  0  0  0  0  0
    3.0182   12.8012   -0.4730 H   0  0  0  0  0  0  0  0  0  0  0  0
    1.3241   13.3986   -0.4730 H   0  0  0  0  0  0  0  0  0  0  0  0
    1.8706   11.6191   -3.8118 H   0  0  0  0  0  0  0  0  0  0  0  0
    4.0888   12.1684   -2.6213 H   0  0  0  0  0  0  0  0  0  0  0  0
    3.6685   12.9221   -4.2476 H   0  0  0  0  0  0  0  0  0  0  0  0
    4.7733   14.5240   -2.4708 H   0  0  0  0  0  0  0  0  0  0  0  0
    0.8256   14.7537   -1.6615 H   0  0  0  0  0  0  0  0  0  0  0  0
    1.1491   16.2694   -4.3250 H   0  0  0  0  0  0  0  0  0  0  0  0
   -0.3972   15.9907   -3.4081 H   0  0  0  0  0  0  0  0  0  0  0  0
    0.4784   18.2832   -3.0926 H   0  0  0  0  0  0  0  0  0  0  0  0
    0.4229   17.3308   -1.5574 H   0  0  0  0  0  0  0  0  0  0  0  0
    2.4896   18.5497   -1.6343 H   0  0  0  0  0  0  0  0  0  0  0  0
    3.5000   18.8060   -3.4930 H   0  0  0  0  0  0  0  0  0  0  0  0
    3.5291   16.5981    0.5062 H   0  0  0  0  0  0  0  0  0  0  0  0
    1.8771   17.1251    0.0373 H   0  0  0  0  0  0  0  0  0  0  0  0
    2.2964   15.3784    0.0373 H   0  0  0  0  0  0  0  0  0  0  0  0
    4.9814   16.9025   -0.5529 H   0  0  0  0  0  0  0  0  0  0  0  0
    5.2055   16.0321   -2.1081 H   0  0  0  0  0  0  0  0  0  0  0  0
    4.8259   17.7878   -2.1081 H   0  0  0  0  0  0  0  0  0  0  0  0
    1.5327   14.7632   -5.1447 H   0  0  0  0  0  0  0  0  0  0  0  0
    1.7039   12.9919   -5.3898 H   0  0  0  0  0  0  0  0  0  0  0  0
    0.0731   13.7452   -5.3898 H   0  0  0  0  0  0  0  0  0  0  0  0
   -1.0994   14.0792   -3.0103 H   0  0  0  0  0  0  0  0  0  0  0  0
   -0.8122   12.5162   -3.9637 H   0  0  0  0  0  0  0  0  0  0  0  0
   -0.6197   12.9142   -0.9648 H   0  0  0  0  0  0  0  0  0  0  0  0
   -1.8064   11.9197   -1.8970 H   0  0  0  0  0  0  0  0  0  0  0  0
   -0.4479    9.2020   -2.7225 H   0  0  0  0  0  0  0  0  0  0  0  0
   -0.9104   10.6597   -3.6648 H   0  0  0  0  0  0  0  0  0  0  0  0
    0.7944   10.0939   -3.6648 H   0  0  0  0  0  0  0  0  0  0  0  0
  1  2  1  0
  2  3  1  0
  3  4  1  0
  4  5  1  0
  5  6  1  0
  6  7  1  0
  7  8  1  0
  7  9  1  0
  2 10  1  0
 10 11  1  0
 11 12  1  0
 12 13  1  0
 13 14  1  1
 13 15  1  0
 15 16  1  0
 16 17  1  0
 17 18  2  0
 18 19  1  0
 19 20  1  0
 20 21  1  0
 21 22  1  0
 22 23  1  0
 22 24  1  0
 24 25  1  0
 24 26  1  0
 19 27  1  0
 27 28  1  6
 27 29  1  0
 29 30  1  0
 30 31  1  0
 31 32  1  6
  7  5  1  0
 31 10  1  0
 31 13  1  0
 27 15  1  0
 24 18  1  0
  1 33  1  0
  1 34  1  0
  1 35  1  0
  2 36  1  1
  3 37  1  0
  3 38  1  0
  4 39  1  0
  4 40  1  0
  5 41  1  6
  8 42  1  0
  8 43  1  0
  8 44  1  0
  9 45  1  0
  9 46  1  0
  9 47  1  0
 10 48  1  1
 11 49  1  0
 11 50  1  0
 12 51  1  0
 12 52  1  0
 14 53  1  0
 14 54  1  0
 14 55  1  0
 15 56  1  6
 16 57  1  0
 16 58  1  0
 17 59  1  0
 19 60  1  1
 20 61  1  0
 20 62  1  0
 21 63  1  0
 21 64  1  0
 22 65  1  1
 23 66  1  0
 25 67  1  0
 25 68  1  0
 25 69  1  0
 26 70  1  0
 26 71  1  0
 26 72  1  0
 28 73  1  0
 28 74  1  0
 28 75  1  0
 29 76  1  0
 29 77  1  0
 30 78  1  0
 30 79  1  0
 32 80  1  0
 32 81  1  0
 32 82  1  0
M  END
>  <meeko>  (5) 
{"is_sidechain": [false], "intermolecular_energy": 2.731, "internal_energy": -0.839}

$$$$
EPH_relaxed_0001_pdb2pqr_Repair_310_r2_0001_out
     RDKit          3D

 82 86  0  0  0  0  0  0  0  0999 V2000
   -0.9440    8.7510   -1.9470 C   0  0  0  0  0  0  0  0  0  0  0  0
   -1.3850    9.1740   -0.5430 C   0  0  2  0  0  0  0  0  0  0  0  0
   -2.9140    9.3450   -0.4420 C   0  0  0  0  0  0  0  0  0  0  0  0
   -3.7000    8.4130   -1.3680 C   0  0  0  0  0  0  0  0  0  0  0  0
   -5.0740    8.1350   -0.8380 C   0  0  2  0  0  0  0  0  0  0  0  0
   -5.3390    6.7550   -0.5550 O   0  0  0  0  0  0  0  0  0  0  0  0
   -6.1230    7.3490   -1.6030 C   0  0  0  0  0  0  0  0  0  0  0  0
   -5.8420    6.7920   -2.9640 C   0  0  0  0  0  0  0  0  0  0  0  0
   -7.5630    7.5400   -1.2440 C   0  0  0  0  0  0  0  0  0  0  0  0
   -0.6880   10.4710   -0.1490 C   0  0  1  0  0  0  0  0  0  0  0  0
    0.3150   10.2790    1.0200 C   0  0  0  0  0  0  0  0  0  0  0  0
    1.4960   11.2490    0.7590 C   0  0  0  0  0  0  0  0  0  0  0  0
    0.9860   12.1940   -0.3540 C   0  0  1  0  0  0  0  0  0  0  0  0
    0.1140   13.2550    0.3890 C   0  0  0  0  0  0  0  0  0  0  0  0
    2.0810   12.8680   -1.2430 C   0  0  2  0  0  0  0  0  0  0  0  0
    3.0480   13.8010   -0.4930 C   0  0  0  0  0  0  0  0  0  0  0  0
    2.6260   15.2320   -0.4210 C   0  0  0  0  0  0  0  0  0  0  0  0
    1.6670   15.8040   -1.1730 C   0  0  0  0  0  0  0  0  0  0  0  0
    0.9620   15.0150   -2.2840 C   0  0  1  0  0  0  0  0  0  0  0  0
    0.8990   15.8770   -3.5710 C   0  0  0  0  0  0  0  0  0  0  0  0
    0.2620   17.2420   -3.3310 C   0  0  0  0  0  0  0  0  0  0  0  0
    1.0250   18.0200   -2.2610 C   0  0  2  0  0  0  0  0  0  0  0  0
    2.3250   18.3410   -2.7650 O   0  0  0  0  0  0  0  0  0  0  0  0
    1.1610   17.2450   -0.9210 C   0  0  0  0  0  0  0  0  0  0  0  0
   -0.2210   17.1610   -0.2260 C   0  0  0  0  0  0  0  0  0  0  0  0
    2.0710   18.0790    0.0220 C   0  0  0  0  0  0  0  0  0  0  0  0
    1.5200   13.5510   -2.5560 C   0  0  1  0  0  0  0  0  0  0  0  0
    2.7050   13.6130   -3.5670 C   0  0  0  0  0  0  0  0  0  0  0  0
    0.3940   12.6920   -3.2430 C   0  0  0  0  0  0  0  0  0  0  0  0
   -0.5850   11.9540   -2.3090 C   0  0  0  0  0  0  0  0  0  0  0  0
    0.1710   11.1740   -1.2290 C   0  0  2  0  0  0  0  0  0  0  0  0
    1.0410   10.0850   -1.9460 C   0  0  0  0  0  0  0  0  0  0  0  0
   -0.1521    7.9915   -1.8693 H   0  0  0  0  0  0  0  0  0  0  0  0
   -1.8032    8.3307   -2.4901 H   0  0  0  0  0  0  0  0  0  0  0  0
   -0.5598    9.6270   -2.4901 H   0  0  0  0  0  0  0  0  0  0  0  0
   -1.0965    8.3711    0.1514 H   0  0  0  0  0  0  0  0  0  0  0  0
   -3.2184    9.1416    0.5953 H   0  0  0  0  0  0  0  0  0  0  0  0
   -3.1435   10.3750   -0.7524 H   0  0  0  0  0  0  0  0  0  0  0  0
   -3.7884    8.8851   -2.3576 H   0  0  0  0  0  0  0  0  0  0  0  0
   -3.1581    7.4580   -1.4339 H   0  0  0  0  0  0  0  0  0  0  0  0
   -5.1048    9.1146   -0.3386 H   0  0  0  0  0  0  0  0  0  0  0  0
   -5.3485    5.8139   -2.8652 H   0  0  0  0  0  0  0  0  0  0  0  0
   -6.7874    6.6719   -3.5134 H   0  0  0  0  0  0  0  0  0  0  0  0
   -5.1836    7.4810   -3.5134 H   0  0  0  0  0  0  0  0  0  0  0  0
   -7.6692    7.5541   -0.1492 H   0  0  0  0  0  0  0  0  0  0  0  0
   -7.9211    8.4935   -1.6594 H   0  0  0  0  0  0  0  0  0  0  0  0
   -8.1573    6.7128   -1.6594 H   0  0  0  0  0  0  0  0  0  0  0  0
   -1.5674   11.0868    0.0908 H   0  0  0  0  0  0  0  0  0  0  0  0
   -0.1689   10.5203    1.9779 H   0  0  0  0  0  0  0  0  0  0  0  0
    0.6638    9.2372    1.0744 H   0  0  0  0  0  0  0  0  0  0  0  0
    1.7404   11.8169    1.6688 H   0  0  0  0  0  0  0  0  0  0  0  0
    2.4147   10.7188    0.4676 H   0  0  0  0  0  0  0  0  0  0  0  0
    0.2226   13.1229    1.4756 H   0  0  0  0  0  0  0  0  0  0  0  0
    0.4464   14.2650    0.1074 H   0  0  0  0  0  0  0  0  0  0  0  0
   -0.9413   13.1245    0.1074 H   0  0  0  0  0  0  0  0  0  0  0  0
    2.6861   12.0074   -1.5643 H   0  0  0  0  0  0  0  0  0  0  0  0
    3.1536   13.4255    0.5355 H   0  0  0  0  0  0  0  0  0  0  0  0
    3.9877   13.7890   -1.0648 H   0  0  0  0  0  0  0  0  0  0  0  0
    3.1427   15.8730    0.3085 H   0  0  0  0  0  0  0  0  0  0  0  0
   -0.0561   14.8171   -1.9175 H   0  0  0  0  0  0  0  0  0  0  0  0
    1.9224   16.0266   -3.9455 H   0  0  0  0  0  0  0  0  0  0  0  0
    0.2746   15.3412   -4.3011 H   0  0  0  0  0  0  0  0  0  0  0  0
    0.2740   17.8149   -4.2699 H   0  0  0  0  0  0  0  0  0  0  0  0
   -0.7714   17.0913   -2.9855 H   0  0  0  0  0  0  0  0  0  0  0  0
    0.4484   18.9302   -2.0397 H   0  0  0  0  0  0  0  0  0  0  0  0
    2.2330   18.5380   -3.7130 H   0  0  0  0  0  0  0  0  0  0  0  0
   -0.0837   17.1693    0.8654 H   0  0  0  0  0  0  0  0  0  0  0  0
   -0.8348   18.0235   -0.5249 H   0  0  0  0  0  0  0  0  0  0  0  0
   -0.7258   16.2305   -0.5249 H   0  0  0  0  0  0  0  0  0  0  0  0
    1.8217   17.8505    1.0687 H   0  0  0  0  0  0  0  0  0  0  0  0
    3.1247   17.8264   -0.1675 H   0  0  0  0  0  0  0  0  0  0  0  0
    1.9110   19.1507   -0.1675 H   0  0  0  0  0  0  0  0  0  0  0  0
    3.6554   13.6627   -3.0154 H   0  0  0  0  0  0  0  0  0  0  0  0
    2.6948   12.7131   -4.1995 H   0  0  0  0  0  0  0  0  0  0  0  0
    2.6010   14.5069   -4.1995 H   0  0  0  0  0  0  0  0  0  0  0  0
   -0.1977   13.3667   -3.8791 H   0  0  0  0  0  0  0  0  0  0  0  0
    0.9284   11.8978   -3.7849 H   0  0  0  0  0  0  0  0  0  0  0  0
   -1.2453   12.6894   -1.8261 H   0  0  0  0  0  0  0  0  0  0  0  0
   -1.1734   11.2434   -2.9081 H   0  0  0  0  0  0  0  0  0  0  0  0
    1.5406    9.4596   -1.1915 H   0  0  0  0  0  0  0  0  0  0  0  0
    0.3948    9.4550   -2.5748 H   0  0  0  0  0  0  0  0  0  0  0  0
    1.7982   10.5762   -2.5748 H   0  0  0  0  0  0  0  0  0  0  0  0
  1  2  1  0
  2  3  1  0
  3  4  1  0
  4  5  1  0
  5  6  1  0
  6  7  1  0
  7  8  1  0
  7  9  1  0
  2 10  1  0
 10 11  1  0
 11 12  1  0
 12 13  1  0
 13 14  1  1
 13 15  1  0
 15 16  1  0
 16 17  1  0
 17 18  2  0
 18 19  1  0
 19 20  1  0
 20 21  1  0
 21 22  1  0
 22 23  1  0
 22 24  1  0
 24 25  1  0
 24 26  1  0
 19 27  1  0
 27 28  1  6
 27 29  1  0
 29 30  1  0
 30 31  1  0
 31 32  1  6
  7  5  1  0
 31 10  1  0
 31 13  1  0
 27 15  1  0
 24 18  1  0
  1 33  1  0
  1 34  1  0
  1 35  1  0
  2 36  1  1
  3 37  1  0
  3 38  1  0
  4 39  1  0
  4 40  1  0
  5 41  1  1
  8 42  1  0
  8 43  1  0
  8 44  1  0
  9 45  1  0
  9 46  1  0
  9 47  1  0
 10 48  1  1
 11 49  1  0
 11 50  1  0
 12 51  1  0
 12 52  1  0
 14 53  1  0
 14 54  1  0
 14 55  1  0
 15 56  1  6
 16 57  1  0
 16 58  1  0
 17 59  1  0
 19 60  1  1
 20 61  1  0
 20 62  1  0
 21 63  1  0
 21 64  1  0
 22 65  1  1
 23 66  1  0
 25 67  1  0
 25 68  1  0
 25 69  1  0
 26 70  1  0
 26 71  1  0
 26 72  1  0
 28 73  1  0
 28 74  1  0
 28 75  1  0
 29 76  1  0
 29 77  1  0
 30 78  1  0
 30 79  1  0
 32 80  1  0
 32 81  1  0
 32 82  1  0
M  END
>  <meeko>  (6) 
{"is_sidechain": [false], "intermolecular_energy": 2.731, "internal_energy": -0.839}

$$$$
EPH_relaxed_0001_pdb2pqr_Repair_310_r2_0001_out
     RDKit          3D

 82 86  0  0  0  0  0  0  0  0999 V2000
   -2.6160    7.8360   -2.8890 C   0  0  0  0  0  0  0  0  0  0  0  0
   -2.8410    8.1750   -1.4120 C   0  0  2  0  0  0  0  0  0  0  0  0
   -4.3390    8.2420   -1.0540 C   0  0  0  0  0  0  0  0  0  0  0  0
   -5.0920    6.9330   -1.3040 C   0  0  0  0  0  0  0  0  0  0  0  0
   -6.1580    7.0960   -2.3460 C   0  0  2  0  0  0  0  0  0  0  0  0
   -6.9180    8.3070   -2.2390 O   0  0  0  0  0  0  0  0  0  0  0  0
   -7.6420    7.0830   -2.0320 C   0  0  0  0  0  0  0  0  0  0  0  0
   -8.1430    6.9020   -0.6340 C   0  0  0  0  0  0  0  0  0  0  0  0
   -8.6030    6.7580   -3.1330 C   0  0  0  0  0  0  0  0  0  0  0  0
   -2.1640    9.4980   -1.0740 C   0  0  1  0  0  0  0  0  0  0  0  0
   -2.5310   10.0100    0.3450 C   0  0  0  0  0  0  0  0  0  0  0  0
   -1.2700   10.7170    0.9050 C   0  0  0  0  0  0  0  0  0  0  0  0
   -0.3380   10.8800   -0.3190 C   0  0  1  0  0  0  0  0  0  0  0  0
   -0.8710   12.1450   -1.0630 C   0  0  0  0  0  0  0  0  0  0  0  0
    1.1910   10.9910   -0.0140 C   0  0  2  0  0  0  0  0  0  0  0  0
    1.6020   12.2140    0.8250 C   0  0  0  0  0  0  0  0  0  0  0  0
    1.9550   13.4350    0.0430 C   0  0  0  0  0  0  0  0  0  0  0  0
    2.2190   13.4690   -1.2770 C   0  0  0  0  0  0  0  0  0  0  0  0
    2.2720   12.1780   -2.1030 C   0  0  1  0  0  0  0  0  0  0  0  0
    3.5350   12.1910   -3.0040 C   0  0  0  0  0  0  0  0  0  0  0  0
    3.6230   13.4430   -3.8710 C   0  0  0  0  0  0  0  0  0  0  0  0
    3.6260   14.7040   -3.0100 C   0  0  2  0  0  0  0  0  0  0  0  0
    4.8370   14.7380   -2.2490 O   0  0  0  0  0  0  0  0  0  0  0  0
    2.4050   14.7960   -2.0540 C   0  0  0  0  0  0  0  0  0  0  0  0
    1.1190   15.0610   -2.8760 C   0  0  0  0  0  0  0  0  0  0  0  0
    2.6030   16.0390   -1.1450 C   0  0  0  0  0  0  0  0  0  0  0  0
    2.1200   10.8240   -1.2850 C   0  0  1  0  0  0  0  0  0  0  0  0
    3.5130   10.3600   -0.7600 C   0  0  0  0  0  0  0  0  0  0  0  0
    1.6100    9.6920   -2.2530 C   0  0  0  0  0  0  0  0  0  0  0  0
    0.0850    9.5560   -2.4210 C   0  0  0  0  0  0  0  0  0  0  0  0
   -0.6150    9.5210   -1.0590 C   0  0  2  0  0  0  0  0  0  0  0  0
   -0.1160    8.2460   -0.2970 C   0  0  0  0  0  0  0  0  0  0  0  0
   -2.0092    6.9218   -2.9671 H   0  0  0  0  0  0  0  0  0  0  0  0
   -3.5869    7.6747   -3.3802 H   0  0  0  0  0  0  0  0  0  0  0  0
   -2.0903    8.6681   -3.3802 H   0  0  0  0  0  0  0  0  0  0  0  0
   -2.3951    7.3663   -0.8144 H   0  0  0  0  0  0  0  0  0  0  0  0
   -4.4299    8.4964    0.0123 H   0  0  0  0  0  0  0  0  0  0  0  0
   -4.7914    9.0023   -1.7077 H   0  0  0  0  0  0  0  0  0  0  0  0
   -4.3764    6.1693   -1.6427 H   0  0  0  0  0  0  0  0  0  0  0  0
   -5.5756    6.6309   -0.3634 H   0  0  0  0  0  0  0  0  0  0  0  0
   -5.5553    6.5463   -3.0840 H   0  0  0  0  0  0  0  0  0  0  0  0
   -7.3543    7.1869    0.0779 H   0  0  0  0  0  0  0  0  0  0  0  0
   -9.0267    7.5377   -0.4760 H   0  0  0  0  0  0  0  0  0  0  0  0
   -8.4163    5.8483   -0.4760 H   0  0  0  0  0  0  0  0  0  0  0  0
   -9.5609    6.4341   -2.6999 H   0  0  0  0  0  0  0  0  0  0  0  0
   -8.7649    7.6514   -3.7540 H   0  0  0  0  0  0  0  0  0  0  0  0
   -8.1894    5.9498   -3.7540 H   0  0  0  0  0  0  0  0  0  0  0  0
   -2.5408   10.1158   -1.9025 H   0  0  0  0  0  0  0  0  0  0  0  0
   -3.3690   10.7202    0.2865 H   0  0  0  0  0  0  0  0  0  0  0  0
   -2.8407    9.1798    0.9968 H   0  0  0  0  0  0  0  0  0  0  0  0
   -1.5307   11.6984    1.3280 H   0  0  0  0  0  0  0  0  0  0  0  0
   -0.7967   10.1447    1.7165 H   0  0  0  0  0  0  0  0  0  0  0  0
   -1.1881   12.8975   -0.3259 H   0  0  0  0  0  0  0  0  0  0  0  0
   -0.0726   12.5631   -1.6936 H   0  0  0  0  0  0  0  0  0  0  0  0
   -1.7279   11.8656   -1.6936 H   0  0  0  0  0  0  0  0  0  0  0  0
    1.3672   10.1151    0.6276 H   0  0  0  0  0  0  0  0  0  0  0  0
    0.7632   12.4672    1.4900 H   0  0  0  0  0  0  0  0  0  0  0  0
    2.5169   11.9213    1.3610 H   0  0  0  0  0  0  0  0  0  0  0  0
    2.0036   14.3875    0.5911 H   0  0  0  0  0  0  0  0  0  0  0  0
    1.3671   12.1804   -2.7284 H   0  0  0  0  0  0  0  0  0  0  0  0
    4.4267   12.1437   -2.3617 H   0  0  0  0  0  0  0  0  0  0  0  0
    3.4737   11.3229   -3.6768 H   0  0  0  0  0  0  0  0  0  0  0  0
    4.5507   13.4078   -4.4610 H   0  0  0  0  0  0  0  0  0  0  0  0
    2.7461   13.4730   -4.5344 H   0  0  0  0  0  0  0  0  0  0  0  0
    3.5580   15.5674   -3.6881 H   0  0  0  0  0  0  0  0  0  0  0  0
    4.7710   15.4810   -1.6250 H   0  0  0  0  0  0  0  0  0  0  0  0
    0.2756   15.2348   -2.1915 H   0  0  0  0  0  0  0  0  0  0  0  0
    1.2654   15.9479   -3.5101 H   0  0  0  0  0  0  0  0  0  0  0  0
    0.9028   14.1885   -3.5101 H   0  0  0  0  0  0  0  0  0  0  0  0
    2.5542   15.7329   -0.0896 H   0  0  0  0  0  0  0  0  0  0  0  0
    3.5845   16.4911   -1.3507 H   0  0  0  0  0  0  0  0  0  0  0  0
    1.8106   16.7737   -1.3507 H   0  0  0  0  0  0  0  0  0  0  0  0
    3.5093   10.3612    0.3400 H   0  0  0  0  0  0  0  0  0  0  0  0
    3.7224    9.3436   -1.1248 H   0  0  0  0  0  0  0  0  0  0  0  0
    4.2900   11.0478   -1.1248 H   0  0  0  0  0  0  0  0  0  0  0  0
    2.0381    9.8868   -3.2474 H   0  0  0  0  0  0  0  0  0  0  0  0
    1.9333    8.7489   -1.7881 H   0  0  0  0  0  0  0  0  0  0  0  0
   -0.2916   10.4139   -2.9973 H   0  0  0  0  0  0  0  0  0  0  0  0
   -0.1274    8.6147   -2.9491 H   0  0  0  0  0  0  0  0  0  0  0  0
   -0.1830    8.4173    0.7875 H   0  0  0  0  0  0  0  0  0  0  0  0
   -0.7437    7.3855   -0.5718 H   0  0  0  0  0  0  0  0  0  0  0  0
    0.9290    8.0402   -0.5718 H   0  0  0  0  0  0  0  0  0  0  0  0
  1  2  1  0
  2  3  1  0
  3  4  1  0
  4  5  1  0
  5  6  1  0
  6  7  1  0
  7  8  1  0
  7  9  1  0
  2 10  1  0
 10 11  1  0
 11 12  1  0
 12 13  1  0
 13 14  1  6
 13 15  1  0
 15 16  1  0
 16 17  1  0
 17 18  2  0
 18 19  1  0
 19 20  1  0
 20 21  1  0
 21 22  1  0
 22 23  1  0
 22 24  1  0
 24 25  1  0
 24 26  1  0
 19 27  1  0
 27 28  1  1
 27 29  1  0
 29 30  1  0
 30 31  1  0
 31 32  1  1
  7  5  1  0
 31 10  1  0
 31 13  1  0
 27 15  1  0
 24 18  1  0
  1 33  1  0
  1 34  1  0
  1 35  1  0
  2 36  1  1
  3 37  1  0
  3 38  1  0
  4 39  1  0
  4 40  1  0
  5 41  1  6
  8 42  1  0
  8 43  1  0
  8 44  1  0
  9 45  1  0
  9 46  1  0
  9 47  1  0
 10 48  1  6
 11 49  1  0
 11 50  1  0
 12 51  1  0
 12 52  1  0
 14 53  1  0
 14 54  1  0
 14 55  1  0
 15 56  1  1
 16 57  1  0
 16 58  1  0
 17 59  1  0
 19 60  1  6
 20 61  1  0
 20 62  1  0
 21 63  1  0
 21 64  1  0
 22 65  1  6
 23 66  1  0
 25 67  1  0
 25 68  1  0
 25 69  1  0
 26 70  1  0
 26 71  1  0
 26 72  1  0
 28 73  1  0
 28 74  1  0
 28 75  1  0
 29 76  1  0
 29 77  1  0
 30 78  1  0
 30 79  1  0
 32 80  1  0
 32 81  1  0
 32 82  1  0
M  END
>  <meeko>  (7) 
{"is_sidechain": [false], "intermolecular_energy": 2.731, "internal_energy": -0.839}

$$$$
EPH_relaxed_0001_pdb2pqr_Repair_310_r2_0001_out
     RDKit          3D

 82 86  0  0  0  0  0  0  0  0999 V2000
    4.6040   17.5620   -3.0330 C   0  0  0  0  0  0  0  0  0  0  0  0
    3.1270   17.1560   -3.0110 C   0  0  2  0  0  0  0  0  0  0  0  0
    2.3800   17.7470   -1.7990 C   0  0  0  0  0  0  0  0  0  0  0  0
    1.4300   18.8930   -2.1610 C   0  0  0  0  0  0  0  0  0  0  0  0
    0.0430   18.6440   -1.6520 C   0  0  2  0  0  0  0  0  0  0  0  0
   -0.7580   19.8230   -1.4940 O   0  0  0  0  0  0  0  0  0  0  0  0
   -0.4440   19.1030   -0.2910 C   0  0  0  0  0  0  0  0  0  0  0  0
    0.4520   19.8480    0.6480 C   0  0  0  0  0  0  0  0  0  0  0  0
   -1.6210   18.4080    0.3200 C   0  0  0  0  0  0  0  0  0  0  0  0
    3.0070   15.6360   -3.0060 C   0  0  1  0  0  0  0  0  0  0  0  0
    4.3780   14.9280   -3.1640 C   0  0  0  0  0  0  0  0  0  0  0  0
    4.3140   13.6340   -2.3130 C   0  0  0  0  0  0  0  0  0  0  0  0
    2.8150   13.4690   -1.9660 C   0  0  1  0  0  0  0  0  0  0  0  0
    2.1800   12.8170   -3.2340 C   0  0  0  0  0  0  0  0  0  0  0  0
    2.4910   12.6530   -0.6730 C   0  0  2  0  0  0  0  0  0  0  0  0
    2.9430   11.1820   -0.6990 C   0  0  0  0  0  0  0  0  0  0  0  0
    1.9360   10.2140   -1.2250 C   0  0  0  0  0  0  0  0  0  0  0  0
    0.6240   10.4650   -1.3920 C   0  0  0  0  0  0  0  0  0  0  0  0
    0.0130   11.8000   -0.9460 C   0  0  1  0  0  0  0  0  0  0  0  0
   -1.2980   11.5330   -0.1620 C   0  0  0  0  0  0  0  0  0  0  0  0
   -2.2850   10.6730   -0.9460 C   0  0  0  0  0  0  0  0  0  0  0  0
   -1.6610    9.3310   -1.3210 C   0  0  2  0  0  0  0  0  0  0  0  0
   -1.4360    8.5780   -0.1250 O   0  0  0  0  0  0  0  0  0  0  0  0
   -0.3280    9.4740   -2.1070 C   0  0  0  0  0  0  0  0  0  0  0  0
   -0.6170   10.0170   -3.5280 C   0  0  0  0  0  0  0  0  0  0  0  0
    0.2680    8.0530   -2.2990 C   0  0  0  0  0  0  0  0  0  0  0  0
    0.9930   12.7880   -0.1800 C   0  0  1  0  0  0  0  0  0  0  0  0
    0.9950   12.4600    1.3450 C   0  0  0  0  0  0  0  0  0  0  0  0
    0.4490   14.2600   -0.3160 C   0  0  0  0  0  0  0  0  0  0  0  0
    0.9010   15.0560   -1.5550 C   0  0  0  0  0  0  0  0  0  0  0  0
    2.4200   14.9730   -1.7350 C   0  0  2  0  0  0  0  0  0  0  0  0
    3.0870   15.6420   -0.4850 C   0  0  0  0  0  0  0  0  0  0  0  0
    4.9719   17.6631   -2.0013 H   0  0  0  0  0  0  0  0  0  0  0  0
    5.1884   16.7912   -3.5568 H   0  0  0  0  0  0  0  0  0  0  0  0
    4.7123   18.5232   -3.5568 H   0  0  0  0  0  0  0  0  0  0  0  0
    2.6578   17.5639   -3.9184 H   0  0  0  0  0  0  0  0  0  0  0  0
    1.7930   16.9449   -1.3278 H   0  0  0  0  0  0  0  0  0  0  0  0
    3.1418   18.1620   -1.1226 H   0  0  0  0  0  0  0  0  0  0  0  0
    1.8105   19.8251   -1.7178 H   0  0  0  0  0  0  0  0  0  0  0  0
    1.3848   18.9679   -3.2575 H   0  0  0  0  0  0  0  0  0  0  0  0
    0.0081   17.6675   -2.1572 H   0  0  0  0  0  0  0  0  0  0  0  0
    0.1712   19.6145    1.6856 H   0  0  0  0  0  0  0  0  0  0  0  0
    1.4959   19.5479    0.4743 H   0  0  0  0  0  0  0  0  0  0  0  0
    0.3475   20.9292    0.4743 H   0  0  0  0  0  0  0  0  0  0  0  0
   -1.5448   18.4530    1.4164 H   0  0  0  0  0  0  0  0  0  0  0  0
   -2.5481   18.9036   -0.0038 H   0  0  0  0  0  0  0  0  0  0  0  0
   -1.6348   17.3568   -0.0038 H   0  0  0  0  0  0  0  0  0  0  0  0
    2.3167   15.5030   -3.8521 H   0  0  0  0  0  0  0  0  0  0  0  0
    4.5558   14.6782   -4.2204 H   0  0  0  0  0  0  0  0  0  0  0  0
    5.1995   15.5794   -2.8310 H   0  0  0  0  0  0  0  0  0  0  0  0
    4.6762   12.7709   -2.8908 H   0  0  0  0  0  0  0  0  0  0  0  0
    4.9461   13.6937   -1.4147 H   0  0  0  0  0  0  0  0  0  0  0  0
    1.4430   12.0603   -2.9271 H   0  0  0  0  0  0  0  0  0  0  0  0
    1.6813   13.5923   -3.8342 H   0  0  0  0  0  0  0  0  0  0  0  0
    2.9682   12.3390   -3.8342 H   0  0  0  0  0  0  0  0  0  0  0  0
    3.1217   13.1462    0.0813 H   0  0  0  0  0  0  0  0  0  0  0  0
    3.8416   11.1138   -1.3298 H   0  0  0  0  0  0  0  0  0  0  0  0
    3.1177   10.8991    0.3496 H   0  0  0  0  0  0  0  0  0  0  0  0
    2.2961    9.2114   -1.4992 H   0  0  0  0  0  0  0  0  0  0  0  0
   -0.2115   12.3559   -1.8682 H   0  0  0  0  0  0  0  0  0  0  0  0
   -1.0484   11.0163    0.7765 H   0  0  0  0  0  0  0  0  0  0  0  0
   -1.7782   12.5047    0.0256 H   0  0  0  0  0  0  0  0  0  0  0  0
   -3.1774   10.4950   -0.3280 H   0  0  0  0  0  0  0  0  0  0  0  0
   -2.5569   11.2043   -1.8700 H   0  0  0  0  0  0  0  0  0  0  0  0
   -2.3652    8.8143   -1.9896 H   0  0  0  0  0  0  0  0  0  0  0  0
   -2.3050    8.3620    0.2550 H   0  0  0  0  0  0  0  0  0  0  0  0
   -1.1326   10.9857   -3.4525 H   0  0  0  0  0  0  0  0  0  0  0  0
    0.3310   10.1475   -4.0705 H   0  0  0  0  0  0  0  0  0  0  0  0
   -1.2547    9.3035   -4.0705 H   0  0  0  0  0  0  0  0  0  0  0  0
    0.4583    7.5992   -1.3152 H   0  0  0  0  0  0  0  0  0  0  0  0
   -0.4443    7.4292   -2.8589 H   0  0  0  0  0  0  0  0  0  0  0  0
    1.2122    8.1240   -2.8589 H   0  0  0  0  0  0  0  0  0  0  0  0
    0.9893   13.3968    1.9215 H   0  0  0  0  0  0  0  0  0  0  0  0
    0.1004   11.8705    1.5944 H   0  0  0  0  0  0  0  0  0  0  0  0
    1.8967   11.8814    1.5944 H   0  0  0  0  0  0  0  0  0  0  0  0
   -0.6496   14.2082   -0.3364 H   0  0  0  0  0  0  0  0  0  0  0  0
    0.8692   14.8026    0.5437 H   0  0  0  0  0  0  0  0  0  0  0  0
    0.4096   14.6420   -2.4478 H   0  0  0  0  0  0  0  0  0  0  0  0
    0.6211   16.1107   -1.4160 H   0  0  0  0  0  0  0  0  0  0  0  0
    2.6589   15.2126    0.4328 H   0  0  0  0  0  0  0  0  0  0  0  0
    4.1712   15.4574   -0.5051 H   0  0  0  0  0  0  0  0  0  0  0  0
    2.8991   16.7257   -0.5051 H   0  0  0  0  0  0  0  0  0  0  0  0
  1  2  1  0
  2  3  1  0
  3  4  1  0
  4  5  1  0
  5  6  1  0
  6  7  1  0
  7  8  1  0
  7  9  1  0
  2 10  1  0
 10 11  1  0
 11 12  1  0
 12 13  1  0
 13 14  1  6
 13 15  1  0
 15 16  1  0
 16 17  1  0
 17 18  2  0
 18 19  1  0
 19 20  1  0
 20 21  1  0
 21 22  1  0
 22 23  1  0
 22 24  1  0
 24 25  1  0
 24 26  1  0
 19 27  1  0
 27 28  1  1
 27 29  1  0
 29 30  1  0
 30 31  1  0
 31 32  1  1
  7  5  1  0
 31 10  1  0
 31 13  1  0
 27 15  1  0
 24 18  1  0
  1 33  1  0
  1 34  1  0
  1 35  1  0
  2 36  1  6
  3 37  1  0
  3 38  1  0
  4 39  1  0
  4 40  1  0
  5 41  1  6
  8 42  1  0
  8 43  1  0
  8 44  1  0
  9 45  1  0
  9 46  1  0
  9 47  1  0
 10 48  1  6
 11 49  1  0
 11 50  1  0
 12 51  1  0
 12 52  1  0
 14 53  1  0
 14 54  1  0
 14 55  1  0
 15 56  1  1
 16 57  1  0
 16 58  1  0
 17 59  1  0
 19 60  1  6
 20 61  1  0
 20 62  1  0
 21 63  1  0
 21 64  1  0
 22 65  1  6
 23 66  1  0
 25 67  1  0
 25 68  1  0
 25 69  1  0
 26 70  1  0
 26 71  1  0
 26 72  1  0
 28 73  1  0
 28 74  1  0
 28 75  1  0
 29 76  1  0
 29 77  1  0
 30 78  1  0
 30 79  1  0
 32 80  1  0
 32 81  1  0
 32 82  1  0
M  END
>  <meeko>  (8) 
{"is_sidechain": [false], "intermolecular_energy": 2.731, "internal_energy": -0.839}

$$$$
EPH_relaxed_0001_pdb2pqr_Repair_310_r2_0001_out
     RDKit          3D

 82 86  0  0  0  0  0  0  0  0999 V2000
    0.0820   10.3810   -3.7870 C   0  0  0  0  0  0  0  0  0  0  0  0
    1.1540   10.1610   -2.7150 C   0  0  2  0  0  0  0  0  0  0  0  0
    0.8730    8.9070   -1.8620 C   0  0  0  0  0  0  0  0  0  0  0  0
    0.2240    9.2160   -0.5100 C   0  0  0  0  0  0  0  0  0  0  0  0
   -1.2010    8.7540   -0.4610 C   0  0  2  0  0  0  0  0  0  0  0  0
   -1.8950    8.8180   -1.7130 O   0  0  0  0  0  0  0  0  0  0  0  0
   -2.3870    9.6760   -0.6710 C   0  0  0  0  0  0  0  0  0  0  0  0
   -2.2020   11.1350   -0.9450 C   0  0  0  0  0  0  0  0  0  0  0  0
   -3.7200    9.2620   -0.1290 C   0  0  0  0  0  0  0  0  0  0  0  0
    1.2520   11.3900   -1.8190 C   0  0  1  0  0  0  0  0  0  0  0  0
    2.1860   11.1660   -0.6000 C   0  0  0  0  0  0  0  0  0  0  0  0
    2.8930   12.5180   -0.3240 C   0  0  0  0  0  0  0  0  0  0  0  0
    2.1070   13.5490   -1.1680 C   0  0  1  0  0  0  0  0  0  0  0  0
    0.8460   13.8900   -0.3130 C   0  0  0  0  0  0  0  0  0  0  0  0
    2.8860   14.8380   -1.5870 C   0  0  2  0  0  0  0  0  0  0  0  0
    3.3590   15.7220   -0.4200 C   0  0  0  0  0  0  0  0  0  0  0  0
    2.3980   16.7820    0.0070 C   0  0  0  0  0  0  0  0  0  0  0  0
    1.3310   17.2010   -0.6980 C   0  0  0  0  0  0  0  0  0  0  0  0
    1.0590   16.6630   -2.1090 C   0  0  1  0  0  0  0  0  0  0  0  0
    0.7240   17.8430   -3.0580 C   0  0  0  0  0  0  0  0  0  0  0  0
   -0.4170   18.7100   -2.5340 C   0  0  0  0  0  0  0  0  0  0  0  0
   -0.0850   19.2730   -1.1550 C   0  0  2  0  0  0  0  0  0  0  0  0
    1.0030   20.1940   -1.2830 O   0  0  0  0  0  0  0  0  0  0  0  0
    0.2790   18.1760   -0.1160 C   0  0  0  0  0  0  0  0  0  0  0  0
   -0.9880   17.3640    0.2480 C   0  0  0  0  0  0  0  0  0  0  0  0
    0.7290   18.8860    1.1900 C   0  0  0  0  0  0  0  0  0  0  0  0
    2.1680   15.6940   -2.7070 C   0  0  1  0  0  0  0  0  0  0  0  0
    3.2810   16.5300   -3.4110 C   0  0  0  0  0  0  0  0  0  0  0  0
    1.5170   14.7940   -3.8230 C   0  0  0  0  0  0  0  0  0  0  0  0
    0.8670   13.4760   -3.3610 C   0  0  0  0  0  0  0  0  0  0  0  0
    1.8150   12.6880   -2.4510 C   0  0  2  0  0  0  0  0  0  0  0  0
    3.0820   12.3110   -3.2910 C   0  0  0  0  0  0  0  0  0  0  0  0
   -0.8855   10.5796   -3.3027 H   0  0  0  0  0  0  0  0  0  0  0  0
    0.3614   11.2405   -4.4140 H   0  0  0  0  0  0  0  0  0  0  0  0
    0.0003    9.4809   -4.4140 H   0  0  0  0  0  0  0  0  0  0  0  0
    2.1117   10.0005   -3.2317 H   0  0  0  0  0  0  0  0  0  0  0  0
    0.1999    8.2458   -2.4275 H   0  0  0  0  0  0  0  0  0  0  0  0
    1.8447    8.4360   -1.6524 H   0  0  0  0  0  0  0  0  0  0  0  0
    0.7915    8.7064    0.2827 H   0  0  0  0  0  0  0  0  0  0  0  0
    0.2363   10.3063   -0.3647 H   0  0  0  0  0  0  0  0  0  0  0  0
   -0.9623    8.0272    0.3294 H   0  0  0  0  0  0  0  0  0  0  0  0
   -2.1328   11.6810    0.0074 H   0  0  0  0  0  0  0  0  0  0  0  0
   -1.2776   11.2854   -1.5219 H   0  0  0  0  0  0  0  0  0  0  0  0
   -3.0596   11.5114   -1.5219 H   0  0  0  0  0  0  0  0  0  0  0  0
   -3.6879    9.2720    0.9705 H   0  0  0  0  0  0  0  0  0  0  0  0
   -4.4921    9.9627   -0.4797 H   0  0  0  0  0  0  0  0  0  0  0  0
   -3.9593    8.2472   -0.4797 H   0  0  0  0  0  0  0  0  0  0  0  0
    0.1887   11.5235   -1.5708 H   0  0  0  0  0  0  0  0  0  0  0  0
    1.5971   10.8604    0.2774 H   0  0  0  0  0  0  0  0  0  0  0  0
    2.9188   10.3715   -0.8045 H   0  0  0  0  0  0  0  0  0  0  0  0
    2.8420   12.7717    0.7451 H   0  0  0  0  0  0  0  0  0  0  0  0
    3.9609   12.4915   -0.5865 H   0  0  0  0  0  0  0  0  0  0  0  0
    1.0981   13.8218    0.7555 H   0  0  0  0  0  0  0  0  0  0  0  0
    0.5102   14.9112   -0.5461 H   0  0  0  0  0  0  0  0  0  0  0  0
    0.0413   13.1772   -0.5461 H   0  0  0  0  0  0  0  0  0  0  0  0
    3.8001   14.4252   -2.0387 H   0  0  0  0  0  0  0  0  0  0  0  0
    3.5516   15.0695    0.4444 H   0  0  0  0  0  0  0  0  0  0  0  0
    4.2539   16.2500   -0.7813 H   0  0  0  0  0  0  0  0  0  0  0  0
    2.5774   17.2612    0.9807 H   0  0  0  0  0  0  0  0  0  0  0  0
    0.1869   15.9988   -2.0183 H   0  0  0  0  0  0  0  0  0  0  0  0
    1.6205   18.4704   -3.1705 H   0  0  0  0  0  0  0  0  0  0  0  0
    0.4045   17.4169   -4.0204 H   0  0  0  0  0  0  0  0  0  0  0  0
   -0.5858   19.5433   -3.2320 H   0  0  0  0  0  0  0  0  0  0  0  0
   -1.3208   18.0885   -2.4513 H   0  0  0  0  0  0  0  0  0  0  0  0
   -0.9884   19.7745   -0.7776 H   0  0  0  0  0  0  0  0  0  0  0  0
    1.1490   20.3470   -2.2320 H   0  0  0  0  0  0  0  0  0  0  0  0
   -1.0828   17.3033    1.3422 H   0  0  0  0  0  0  0  0  0  0  0  0
   -1.8753   17.8621   -0.1698 H   0  0  0  0  0  0  0  0  0  0  0  0
   -0.9061   16.3497   -0.1698 H   0  0  0  0  0  0  0  0  0  0  0  0
    0.3684   18.3170    2.0596 H   0  0  0  0  0  0  0  0  0  0  0  0
    1.8273   18.9411    1.2177 H   0  0  0  0  0  0  0  0  0  0  0  0
    0.3101   19.9027    1.2177 H   0  0  0  0  0  0  0  0  0  0  0  0
    3.9169   17.0076   -2.6510 H   0  0  0  0  0  0  0  0  0  0  0  0
    3.8949   15.8678   -4.0392 H   0  0  0  0  0  0  0  0  0  0  0  0
    2.8161   17.3041   -4.0392 H   0  0  0  0  0  0  0  0  0  0  0  0
    0.7395   15.3918   -4.3210 H   0  0  0  0  0  0  0  0  0  0  0  0
    2.3520   14.4911   -4.4719 H   0  0  0  0  0  0  0  0  0  0  0  0
   -0.0561   13.7042   -2.8080 H   0  0  0  0  0  0  0  0  0  0  0  0
    0.6427   12.8651   -4.2479 H   0  0  0  0  0  0  0  0  0  0  0  0
    3.9117   12.0641   -2.6123 H   0  0  0  0  0  0  0  0  0  0  0  0
    2.8559   11.4412   -3.9253 H   0  0  0  0  0  0  0  0  0  0  0  0
    3.3682   13.1629   -3.9253 H   0  0  0  0  0  0  0  0  0  0  0  0
  1  2  1  0
  2  3  1  0
  3  4  1  0
  4  5  1  0
  5  6  1  0
  6  7  1  0
  7  8  1  0
  7  9  1  0
  2 10  1  0
 10 11  1  0
 11 12  1  0
 12 13  1  0
 13 14  1  1
 13 15  1  0
 15 16  1  0
 16 17  1  0
 17 18  2  0
 18 19  1  0
 19 20  1  0
 20 21  1  0
 21 22  1  0
 22 23  1  0
 22 24  1  0
 24 25  1  0
 24 26  1  0
 19 27  1  0
 27 28  1  6
 27 29  1  0
 29 30  1  0
 30 31  1  0
 31 32  1  6
  7  5  1  0
 31 10  1  0
 31 13  1  0
 27 15  1  0
 24 18  1  0
  1 33  1  0
  1 34  1  0
  1 35  1  0
  2 36  1  6
  3 37  1  0
  3 38  1  0
  4 39  1  0
  4 40  1  0
  5 41  1  1
  8 42  1  0
  8 43  1  0
  8 44  1  0
  9 45  1  0
  9 46  1  0
  9 47  1  0
 10 48  1  1
 11 49  1  0
 11 50  1  0
 12 51  1  0
 12 52  1  0
 14 53  1  0
 14 54  1  0
 14 55  1  0
 15 56  1  6
 16 57  1  0
 16 58  1  0
 17 59  1  0
 19 60  1  1
 20 61  1  0
 20 62  1  0
 21 63  1  0
 21 64  1  0
 22 65  1  1
 23 66  1  0
 25 67  1  0
 25 68  1  0
 25 69  1  0
 26 70  1  0
 26 71  1  0
 26 72  1  0
 28 73  1  0
 28 74  1  0
 28 75  1  0
 29 76  1  0
 29 77  1  0
 30 78  1  0
 30 79  1  0
 32 80  1  0
 32 81  1  0
 32 82  1  0
M  END
>  <meeko>  (9) 
{"is_sidechain": [false], "intermolecular_energy": 2.731, "internal_energy": -0.839}

$$$$
EPH_relaxed_0001_pdb2pqr_Repair_310_r2_0001_out
     RDKit          3D

 82 86  0  0  0  0  0  0  0  0999 V2000
    0.7990    8.5880   -0.1300 C   0  0  0  0  0  0  0  0  0  0  0  0
   -0.2060    9.3200   -1.0230 C   0  0  2  0  0  0  0  0  0  0  0  0
   -0.9040    8.3680   -2.0140 C   0  0  0  0  0  0  0  0  0  0  0  0
   -2.4310    8.3710   -1.8990 C   0  0  0  0  0  0  0  0  0  0  0  0
   -3.0490    7.2520   -2.6810 C   0  0  2  0  0  0  0  0  0  0  0  0
   -4.1100    7.6490   -3.5590 O   0  0  0  0  0  0  0  0  0  0  0  0
   -4.4760    6.7770   -2.4780 C   0  0  0  0  0  0  0  0  0  0  0  0
   -5.3720    7.4120   -1.4610 C   0  0  0  0  0  0  0  0  0  0  0  0
   -4.8380    5.3930   -2.9160 C   0  0  0  0  0  0  0  0  0  0  0  0
    0.4950   10.4400   -1.7830 C   0  0  1  0  0  0  0  0  0  0  0  0
    0.2010   10.4030   -3.3070 C   0  0  0  0  0  0  0  0  0  0  0  0
    0.1480   11.8750   -3.7890 C   0  0  0  0  0  0  0  0  0  0  0  0
    0.7350   12.6920   -2.6130 C   0  0  1  0  0  0  0  0  0  0  0  0
    2.2830   12.5640   -2.7700 C   0  0  0  0  0  0  0  0  0  0  0  0
    0.2860   14.1860   -2.5170 C   0  0  2  0  0  0  0  0  0  0  0  0
    0.6920   15.0670   -3.7110 C   0  0  0  0  0  0  0  0  0  0  0  0
    2.0130   15.7490   -3.5800 C   0  0  0  0  0  0  0  0  0  0  0  0
    2.7110   15.8890   -2.4380 C   0  0  0  0  0  0  0  0  0  0  0  0
    2.1320   15.4180   -1.0980 C   0  0  1  0  0  0  0  0  0  0  0  0
    2.3390   16.5210   -0.0270 C   0  0  0  0  0  0  0  0  0  0  0  0
    3.7970   16.9570    0.0880 C   0  0  0  0  0  0  0  0  0  0  0  0
    4.3190   17.4740   -1.2500 C   0  0  2  0  0  0  0  0  0  0  0  0
    3.6320   18.6850   -1.5770 O   0  0  0  0  0  0  0  0  0  0  0  0
    4.1540   16.4510   -2.4080 C   0  0  0  0  0  0  0  0  0  0  0  0
    5.1320   15.2680   -2.2010 C   0  0  0  0  0  0  0  0  0  0  0  0
    4.5890   17.1470   -3.7260 C   0  0  0  0  0  0  0  0  0  0  0  0
    0.6360   14.8810   -1.1400 C   0  0  1  0  0  0  0  0  0  0  0  0
   -0.3600   16.0690   -0.9740 C   0  0  0  0  0  0  0  0  0  0  0  0
    0.3980   13.9270    0.0900 C   0  0  0  0  0  0  0  0  0  0  0  0
    0.7500   12.4400   -0.1060 C   0  0  0  0  0  0  0  0  0  0  0  0
    0.1320   11.8960   -1.3980 C   0  0  2  0  0  0  0  0  0  0  0  0
   -1.4260   11.9910   -1.2610 C   0  0  0  0  0  0  0  0  0  0  0  0
    0.5507    8.7689    0.9262 H   0  0  0  0  0  0  0  0  0  0  0  0
    0.7555    7.5086   -0.3373 H   0  0  0  0  0  0  0  0  0  0  0  0
    1.8130    8.9606   -0.3373 H   0  0  0  0  0  0  0  0  0  0  0  0
   -0.9831    9.7428   -0.3693 H   0  0  0  0  0  0  0  0  0  0  0  0
   -0.6322    8.6704   -3.0361 H   0  0  0  0  0  0  0  0  0  0  0  0
   -0.5656    7.3493   -1.7736 H   0  0  0  0  0  0  0  0  0  0  0  0
   -2.7088    8.2616   -0.8403 H   0  0  0  0  0  0  0  0  0  0  0  0
   -2.8034    9.3215   -2.3087 H   0  0  0  0  0  0  0  0  0  0  0  0
   -2.0898    6.7144   -2.7135 H   0  0  0  0  0  0  0  0  0  0  0  0
   -5.0166    7.1601   -0.4509 H   0  0  0  0  0  0  0  0  0  0  0  0
   -5.3596    8.5041   -1.5923 H   0  0  0  0  0  0  0  0  0  0  0  0
   -6.3983    7.0385   -1.5923 H   0  0  0  0  0  0  0  0  0  0  0  0
   -5.0035    4.7601   -2.0317 H   0  0  0  0  0  0  0  0  0  0  0  0
   -5.7572    5.4279   -3.5192 H   0  0  0  0  0  0  0  0  0  0  0  0
   -4.0194    4.9734   -3.5192 H   0  0  0  0  0  0  0  0  0  0  0  0
    1.5379   10.2261   -1.5062 H   0  0  0  0  0  0  0  0  0  0  0  0
    1.0000    9.8607   -3.8337 H   0  0  0  0  0  0  0  0  0  0  0  0
   -0.7477    9.8858   -3.5134 H   0  0  0  0  0  0  0  0  0  0  0  0
    0.7555   12.0087   -4.6962 H   0  0  0  0  0  0  0  0  0  0  0  0
   -0.8726   12.1924   -4.0491 H   0  0  0  0  0  0  0  0  0  0  0  0
    2.7505   12.5253   -1.7750 H   0  0  0  0  0  0  0  0  0  0  0  0
    2.5206   11.6431   -3.3228 H   0  0  0  0  0  0  0  0  0  0  0  0
    2.6686   13.4333   -3.3228 H   0  0  0  0  0  0  0  0  0  0  0  0
   -0.8101   14.1062   -2.5639 H   0  0  0  0  0  0  0  0  0  0  0  0
    0.7256   14.4302   -4.6073 H   0  0  0  0  0  0  0  0  0  0  0  0
   -0.0597   15.8681   -3.7676 H   0  0  0  0  0  0  0  0  0  0  0  0
    2.4534   16.1732   -4.4944 H   0  0  0  0  0  0  0  0  0  0  0  0
    2.7007   14.5181   -0.8207 H   0  0  0  0  0  0  0  0  0  0  0  0
    1.7296   17.3955   -0.2988 H   0  0  0  0  0  0  0  0  0  0  0  0
    2.0369   16.1042    0.9451 H   0  0  0  0  0  0  0  0  0  0  0  0
    3.8753   17.7574    0.8385 H   0  0  0  0  0  0  0  0  0  0  0  0
    4.4007   16.0879    0.3882 H   0  0  0  0  0  0  0  0  0  0  0  0
    5.3991   17.6488   -1.1368 H   0  0  0  0  0  0  0  0  0  0  0  0
    3.9640   18.9890   -2.4380 H   0  0  0  0  0  0  0  0  0  0  0  0
    5.2752   15.0948   -1.1242 H   0  0  0  0  0  0  0  0  0  0  0  0
    4.7155   14.3623   -2.6659 H   0  0  0  0  0  0  0  0  0  0  0  0
    6.0999   15.5068   -2.6659 H   0  0  0  0  0  0  0  0  0  0  0  0
    5.1583   18.0579   -3.4890 H   0  0  0  0  0  0  0  0  0  0  0  0
    5.2201   16.4621   -4.3114 H   0  0  0  0  0  0  0  0  0  0  0  0
    3.6968   17.4141   -4.3114 H   0  0  0  0  0  0  0  0  0  0  0  0
   -0.5233   16.2638    0.0962 H   0  0  0  0  0  0  0  0  0  0  0  0
    0.0586   16.9677   -1.4506 H   0  0  0  0  0  0  0  0  0  0  0  0
   -1.3180   15.8137   -1.4506 H   0  0  0  0  0  0  0  0  0  0  0  0
    1.0041   14.3050    0.9265 H   0  0  0  0  0  0  0  0  0  0  0  0
   -0.6882   13.9454    0.2626 H   0  0  0  0  0  0  0  0  0  0  0  0
    1.8436   12.3328   -0.1572 H   0  0  0  0  0  0  0  0  0  0  0  0
    0.3466   11.8691    0.7433 H   0  0  0  0  0  0  0  0  0  0  0  0
   -1.7001   12.0077   -0.1958 H   0  0  0  0  0  0  0  0  0  0  0  0
   -1.7812   12.9125   -1.7455 H   0  0  0  0  0  0  0  0  0  0  0  0
   -1.8905   11.1195   -1.7455 H   0  0  0  0  0  0  0  0  0  0  0  0
  1  2  1  0
  2  3  1  0
  3  4  1  0
  4  5  1  0
  5  6  1  0
  6  7  1  0
  7  8  1  0
  7  9  1  0
  2 10  1  0
 10 11  1  0
 11 12  1  0
 12 13  1  0
 13 14  1  1
 13 15  1  0
 15 16  1  0
 16 17  1  0
 17 18  2  0
 18 19  1  0
 19 20  1  0
 20 21  1  0
 21 22  1  0
 22 23  1  0
 22 24  1  0
 24 25  1  0
 24 26  1  0
 19 27  1  0
 27 28  1  1
 27 29  1  0
 29 30  1  0
 30 31  1  0
 31 32  1  1
  7  5  1  0
 31 10  1  0
 31 13  1  0
 27 15  1  0
 24 18  1  0
  1 33  1  0
  1 34  1  0
  1 35  1  0
  2 36  1  1
  3 37  1  0
  3 38  1  0
  4 39  1  0
  4 40  1  0
  5 41  1  6
  8 42  1  0
  8 43  1  0
  8 44  1  0
  9 45  1  0
  9 46  1  0
  9 47  1  0
 10 48  1  6
 11 49  1  0
 11 50  1  0
 12 51  1  0
 12 52  1  0
 14 53  1  0
 14 54  1  0
 14 55  1  0
 15 56  1  1
 16 57  1  0
 16 58  1  0
 17 59  1  0
 19 60  1  1
 20 61  1  0
 20 62  1  0
 21 63  1  0
 21 64  1  0
 22 65  1  1
 23 66  1  0
 25 67  1  0
 25 68  1  0
 25 69  1  0
 26 70  1  0
 26 71  1  0
 26 72  1  0
 28 73  1  0
 28 74  1  0
 28 75  1  0
 29 76  1  0
 29 77  1  0
 30 78  1  0
 30 79  1  0
 32 80  1  0
 32 81  1  0
 32 82  1  0
M  END
>  <meeko>  (10) 
{"is_sidechain": [false], "intermolecular_energy": 2.731, "internal_energy": -0.839}

$$$$
EPH_relaxed_0001_pdb2pqr_Repair_310_r2_0001_out
     RDKit          3D

 82 86  0  0  0  0  0  0  0  0999 V2000
   -0.9170    9.2290   -2.7380 C   0  0  0  0  0  0  0  0  0  0  0  0
    0.2030    8.9830   -1.7220 C   0  0  2  0  0  0  0  0  0  0  0  0
   -0.3420    8.7890   -0.2930 C   0  0  0  0  0  0  0  0  0  0  0  0
   -0.7810   10.0920    0.3800 C   0  0  0  0  0  0  0  0  0  0  0  0
    0.2630   10.6090    1.3230 C   0  0  2  0  0  0  0  0  0  0  0  0
   -0.2400   11.4390    2.3780 O   0  0  0  0  0  0  0  0  0  0  0  0
    0.6370   12.0750    1.4350 C   0  0  0  0  0  0  0  0  0  0  0  0
   -0.0280   13.1170    0.5920 C   0  0  0  0  0  0  0  0  0  0  0  0
    1.9760   12.4300    2.0030 C   0  0  0  0  0  0  0  0  0  0  0  0
    1.1930   10.1410   -1.7500 C   0  0  1  0  0  0  0  0  0  0  0  0
    2.6070    9.7070   -2.2210 C   0  0  0  0  0  0  0  0  0  0  0  0
    3.1940   10.8930   -3.0270 C   0  0  0  0  0  0  0  0  0  0  0  0
    2.2520   12.0800   -2.7180 C   0  0  1  0  0  0  0  0  0  0  0  0
    2.7290   12.6210   -1.3340 C   0  0  0  0  0  0  0  0  0  0  0  0
    2.1930   13.2140   -3.7920 C   0  0  2  0  0  0  0  0  0  0  0  0
    3.5200   13.9550   -4.0310 C   0  0  0  0  0  0  0  0  0  0  0  0
    3.7400   15.1600   -3.1780 C   0  0  0  0  0  0  0  0  0  0  0  0
    2.7940   15.7950   -2.4610 C   0  0  0  0  0  0  0  0  0  0  0  0
    1.3240   15.3640   -2.5420 C   0  0  1  0  0  0  0  0  0  0  0  0
    0.4260   16.6180   -2.7130 C   0  0  0  0  0  0  0  0  0  0  0  0
    0.6690   17.6630   -1.6290 C   0  0  0  0  0  0  0  0  0  0  0  0
    2.1290   18.1090   -1.6180 C   0  0  2  0  0  0  0  0  0  0  0  0
    2.4040   18.8140   -2.8320 O   0  0  0  0  0  0  0  0  0  0  0  0
    3.1280   16.9290   -1.4610 C   0  0  0  0  0  0  0  0  0  0  0  0
    3.0350   16.3550   -0.0260 C   0  0  0  0  0  0  0  0  0  0  0  0
    4.5660   17.4980   -1.6080 C   0  0  0  0  0  0  0  0  0  0  0  0
    0.9920   14.2270   -3.6010 C   0  0  1  0  0  0  0  0  0  0  0  0
    0.7190   14.8630   -4.9980 C   0  0  0  0  0  0  0  0  0  0  0  0
   -0.3400   13.5020   -3.1760 C   0  0  0  0  0  0  0  0  0  0  0  0
   -0.2050   12.3130   -2.2060 C   0  0  0  0  0  0  0  0  0  0  0  0
    0.8690   11.3320   -2.6870 C   0  0  2  0  0  0  0  0  0  0  0  0
    0.4050   10.7540   -4.0670 C   0  0  0  0  0  0  0  0  0  0  0  0
   -1.8568    9.4354   -2.2049 H   0  0  0  0  0  0  0  0  0  0  0  0
   -0.6565   10.0913   -3.3693 H   0  0  0  0  0  0  0  0  0  0  0  0
   -1.0419    8.3369   -3.3693 H   0  0  0  0  0  0  0  0  0  0  0  0
    0.7127    8.0516   -2.0096 H   0  0  0  0  0  0  0  0  0  0  0  0
   -1.2088    8.1135   -0.3406 H   0  0  0  0  0  0  0  0  0  0  0  0
    0.4792    8.3758    0.3111 H   0  0  0  0  0  0  0  0  0  0  0  0
   -0.9664   10.8491   -0.3962 H   0  0  0  0  0  0  0  0  0  0  0  0
   -1.6942    9.8880    0.9584 H   0  0  0  0  0  0  0  0  0  0  0  0
    0.8688    9.7011    1.1864 H   0  0  0  0  0  0  0  0  0  0  0  0
   -0.5053   13.8649    1.2422 H   0  0  0  0  0  0  0  0  0  0  0  0
    0.7233   13.6093   -0.0430 H   0  0  0  0  0  0  0  0  0  0  0  0
   -0.7909   12.6429   -0.0430 H   0  0  0  0  0  0  0  0  0  0  0  0
    1.9236   12.4161    3.1017 H   0  0  0  0  0  0  0  0  0  0  0  0
    2.7243   11.6992    1.6623 H   0  0  0  0  0  0  0  0  0  0  0  0
    2.2639   13.4355    1.6623 H   0  0  0  0  0  0  0  0  0  0  0  0
    1.1314   10.4610   -0.6994 H   0  0  0  0  0  0  0  0  0  0  0  0
    3.2447    9.4872   -1.3521 H   0  0  0  0  0  0  0  0  0  0  0  0
    2.5557    8.7976   -2.8377 H   0  0  0  0  0  0  0  0  0  0  0  0
    4.2198   11.1158   -2.6983 H   0  0  0  0  0  0  0  0  0  0  0  0
    3.2525   10.6767   -4.1039 H   0  0  0  0  0  0  0  0  0  0  0  0
    2.2328   12.0583   -0.5296 H   0  0  0  0  0  0  0  0  0  0  0  0
    3.8189   12.4990   -1.2485 H   0  0  0  0  0  0  0  0  0  0  0  0
    2.4715   13.6870   -1.2485 H   0  0  0  0  0  0  0  0  0  0  0  0
    1.9926   12.6527   -4.7165 H   0  0  0  0  0  0  0  0  0  0  0  0
    4.3423   13.2494   -3.8411 H   0  0  0  0  0  0  0  0  0  0  0  0
    3.4826   14.3192   -5.0683 H   0  0  0  0  0  0  0  0  0  0  0  0
    4.7622   15.5635   -3.1313 H   0  0  0  0  0  0  0  0  0  0  0  0
    1.0985   14.8704   -1.5852 H   0  0  0  0  0  0  0  0  0  0  0  0
    0.6359   17.0711   -3.6931 H   0  0  0  0  0  0  0  0  0  0  0  0
   -0.6216   16.2920   -2.6340 H   0  0  0  0  0  0  0  0  0  0  0  0
    0.0275   18.5358   -1.8202 H   0  0  0  0  0  0  0  0  0  0  0  0
    0.4309   17.2171   -0.6520 H   0  0  0  0  0  0  0  0  0  0  0  0
    2.2699   18.7580   -0.7411 H   0  0  0  0  0  0  0  0  0  0  0  0
    2.9670   18.2440   -3.3830 H   0  0  0  0  0  0  0  0  0  0  0  0
    3.1667   17.1679    0.7033 H   0  0  0  0  0  0  0  0  0  0  0  0
    2.0495   15.8883    0.1191 H   0  0  0  0  0  0  0  0  0  0  0  0
    3.8227   15.6010    0.1191 H   0  0  0  0  0  0  0  0  0  0  0  0
    4.9967   17.6684   -0.6103 H   0  0  0  0  0  0  0  0  0  0  0  0
    5.1902   16.7791   -2.1589 H   0  0  0  0  0  0  0  0  0  0  0  0
    4.5293   18.4494   -2.1589 H   0  0  0  0  0  0  0  0  0  0  0  0
    0.2882   15.8665   -4.8662 H   0  0  0  0  0  0  0  0  0  0  0  0
    1.6634   14.9399   -5.5568 H   0  0  0  0  0  0  0  0  0  0  0  0
    0.0127   14.2313   -5.5568 H   0  0  0  0  0  0  0  0  0  0  0  0
   -0.9879   14.2506   -2.6966 H   0  0  0  0  0  0  0  0  0  0  0  0
   -0.7420   13.0712   -4.1049 H   0  0  0  0  0  0  0  0  0  0  0  0
    0.0722   12.6903   -1.2106 H   0  0  0  0  0  0  0  0  0  0  0  0
   -1.1687   11.7844   -2.1628 H   0  0  0  0  0  0  0  0  0  0  0  0
   -0.2756    9.9062   -3.8993 H   0  0  0  0  0  0  0  0  0  0  0  0
   -0.1180   11.5372   -4.6354 H   0  0  0  0  0  0  0  0  0  0  0  0
    1.2828   10.4127   -4.6354 H   0  0  0  0  0  0  0  0  0  0  0  0
  1  2  1  0
  2  3  1  0
  3  4  1  0
  4  5  1  0
  5  6  1  0
  6  7  1  0
  7  8  1  0
  7  9  1  0
  2 10  1  0
 10 11  1  0
 11 12  1  0
 12 13  1  0
 13 14  1  1
 13 15  1  0
 15 16  1  0
 16 17  1  0
 17 18  2  0
 18 19  1  0
 19 20  1  0
 20 21  1  0
 21 22  1  0
 22 23  1  0
 22 24  1  0
 24 25  1  0
 24 26  1  0
 19 27  1  0
 27 28  1  6
 27 29  1  0
 29 30  1  0
 30 31  1  0
 31 32  1  6
  7  5  1  0
 31 10  1  0
 31 13  1  0
 27 15  1  0
 24 18  1  0
  1 33  1  0
  1 34  1  0
  1 35  1  0
  2 36  1  6
  3 37  1  0
  3 38  1  0
  4 39  1  0
  4 40  1  0
  5 41  1  1
  8 42  1  0
  8 43  1  0
  8 44  1  0
  9 45  1  0
  9 46  1  0
  9 47  1  0
 10 48  1  1
 11 49  1  0
 11 50  1  0
 12 51  1  0
 12 52  1  0
 14 53  1  0
 14 54  1  0
 14 55  1  0
 15 56  1  6
 16 57  1  0
 16 58  1  0
 17 59  1  0
 19 60  1  1
 20 61  1  0
 20 62  1  0
 21 63  1  0
 21 64  1  0
 22 65  1  1
 23 66  1  0
 25 67  1  0
 25 68  1  0
 25 69  1  0
 26 70  1  0
 26 71  1  0
 26 72  1  0
 28 73  1  0
 28 74  1  0
 28 75  1  0
 29 76  1  0
 29 77  1  0
 30 78  1  0
 30 79  1  0
 32 80  1  0
 32 81  1  0
 32 82  1  0
M  END
>  <meeko>  (11) 
{"is_sidechain": [false], "intermolecular_energy": 2.731, "internal_energy": -0.839}

$$$$
EPH_relaxed_0001_pdb2pqr_Repair_310_r2_0001_out
     RDKit          3D

 82 86  0  0  0  0  0  0  0  0999 V2000
    0.8740   17.7540   -0.3770 C   0  0  0  0  0  0  0  0  0  0  0  0
    1.6710   17.0610   -1.4850 C   0  0  2  0  0  0  0  0  0  0  0  0
    1.9500   18.0010   -2.6750 C   0  0  0  0  0  0  0  0  0  0  0  0
    3.4400   18.2530   -2.9240 C   0  0  0  0  0  0  0  0  0  0  0  0
    4.2240   16.9760   -2.9340 C   0  0  2  0  0  0  0  0  0  0  0  0
    5.2460   16.8930   -1.9320 O   0  0  0  0  0  0  0  0  0  0  0  0
    5.6950   16.9000   -3.2970 C   0  0  0  0  0  0  0  0  0  0  0  0
    6.4690   18.1230   -3.6770 C   0  0  0  0  0  0  0  0  0  0  0  0
    6.2520   15.5880   -3.7560 C   0  0  0  0  0  0  0  0  0  0  0  0
    0.9240   15.8220   -1.9650 C   0  0  1  0  0  0  0  0  0  0  0  0
    0.4540   15.9420   -3.4400 C   0  0  0  0  0  0  0  0  0  0  0  0
    0.5550   14.5230   -4.0580 C   0  0  0  0  0  0  0  0  0  0  0  0
    0.7570   13.5830   -2.8470 C   0  0  1  0  0  0  0  0  0  0  0  0
   -0.6750   13.3650   -2.2650 C   0  0  0  0  0  0  0  0  0  0  0  0
    1.4750   12.2260   -3.1380 C   0  0  2  0  0  0  0  0  0  0  0  0
    0.7330   11.2900   -4.1080 C   0  0  0  0  0  0  0  0  0  0  0  0
   -0.2140   10.3290   -3.4680 C   0  0  0  0  0  0  0  0  0  0  0  0
   -0.2520   10.0240   -2.1580 C   0  0  0  0  0  0  0  0  0  0  0  0
    0.7870   10.5970   -1.1850 C   0  0  1  0  0  0  0  0  0  0  0  0
    1.3220    9.4630   -0.2720 C   0  0  0  0  0  0  0  0  0  0  0  0
    0.2040    8.7120    0.4450 C   0  0  0  0  0  0  0  0  0  0  0  0
   -0.7770    8.1080   -0.5580 C   0  0  2  0  0  0  0  0  0  0  0  0
   -0.1060    7.0830   -1.2980 O   0  0  0  0  0  0  0  0  0  0  0  0
   -1.3740    9.1550   -1.5380 C   0  0  0  0  0  0  0  0  0  0  0  0
   -2.3460   10.0890   -0.7730 C   0  0  0  0  0  0  0  0  0  0  0  0
   -2.2350    8.3950   -2.5830 C   0  0  0  0  0  0  0  0  0  0  0  0
    1.9530   11.4540   -1.8420 C   0  0  1  0  0  0  0  0  0  0  0  0
    3.1170   10.5150   -2.2860 C   0  0  0  0  0  0  0  0  0  0  0  0
    2.5540   12.4220   -0.7560 C   0  0  0  0  0  0  0  0  0  0  0  0
    1.8740   13.7960   -0.5980 C   0  0  0  0  0  0  0  0  0  0  0  0
    1.6950   14.4790   -1.9580 C   0  0  2  0  0  0  0  0  0  0  0  0
    3.1210   14.7320   -2.5580 C   0  0  0  0  0  0  0  0  0  0  0  0
    1.2496   17.4274    0.6040 H   0  0  0  0  0  0  0  0  0  0  0  0
    0.9892   18.8440   -0.4694 H   0  0  0  0  0  0  0  0  0  0  0  0
   -0.1895   17.4885   -0.4694 H   0  0  0  0  0  0  0  0  0  0  0  0
    2.6427   16.7688   -1.0601 H   0  0  0  0  0  0  0  0  0  0  0  0
    1.5175   17.5519   -3.5812 H   0  0  0  0  0  0  0  0  0  0  0  0
    1.4960   18.9727   -2.4306 H   0  0  0  0  0  0  0  0  0  0  0  0
    3.5594   18.7522   -3.8969 H   0  0  0  0  0  0  0  0  0  0  0  0
    3.8222   18.8836   -2.1078 H   0  0  0  0  0  0  0  0  0  0  0  0
    3.3472   16.4131   -3.2867 H   0  0  0  0  0  0  0  0  0  0  0  0
    6.7995   18.6452   -2.7670 H   0  0  0  0  0  0  0  0  0  0  0  0
    7.3472   17.8311   -4.2717 H   0  0  0  0  0  0  0  0  0  0  0  0
    5.8293   18.7917   -4.2717 H   0  0  0  0  0  0  0  0  0  0  0  0
    6.5126   14.9741   -2.8812 H   0  0  0  0  0  0  0  0  0  0  0  0
    5.4995   15.0621   -4.3620 H   0  0  0  0  0  0  0  0  0  0  0  0
    7.1530   15.7640   -4.3620 H   0  0  0  0  0  0  0  0  0  0  0  0
    0.1148   15.7950   -1.2204 H   0  0  0  0  0  0  0  0  0  0  0  0
   -0.5858   16.2989   -3.4785 H   0  0  0  0  0  0  0  0  0  0  0  0
    1.0751   16.6601   -3.9955 H   0  0  0  0  0  0  0  0  0  0  0  0
   -0.3690   14.2679   -4.5976 H   0  0  0  0  0  0  0  0  0  0  0  0
    1.3736   14.4437   -4.7885 H   0  0  0  0  0  0  0  0  0  0  0  0
   -0.6291   13.3720   -1.1660 H   0  0  0  0  0  0  0  0  0  0  0  0
   -1.3377   14.1726   -2.6095 H   0  0  0  0  0  0  0  0  0  0  0  0
   -1.0673   12.3968   -2.6095 H   0  0  0  0  0  0  0  0  0  0  0  0
    2.3822   12.5490   -3.6696 H   0  0  0  0  0  0  0  0  0  0  0  0
    0.1612   11.9133   -4.8112 H   0  0  0  0  0  0  0  0  0  0  0  0
    1.5077   10.6772   -4.5920 H   0  0  0  0  0  0  0  0  0  0  0  0
   -0.9421    9.8281   -4.1229 H   0  0  0  0  0  0  0  0  0  0  0  0
    0.2558   11.3449   -0.5779 H   0  0  0  0  0  0  0  0  0  0  0  0
    1.8861    8.7492   -0.8903 H   0  0  0  0  0  0  0  0  0  0  0  0
    1.9593    9.9256    0.4961 H   0  0  0  0  0  0  0  0  0  0  0  0
    0.6427    7.9051    1.0504 H   0  0  0  0  0  0  0  0  0  0  0  0
   -0.3406    9.4207    1.0863 H   0  0  0  0  0  0  0  0  0  0  0  0
   -1.6223    7.6971    0.0134 H   0  0  0  0  0  0  0  0  0  0  0  0
    0.8360    7.1170   -1.0600 H   0  0  0  0  0  0  0  0  0  0  0  0
   -2.2069    9.9553    0.3099 H   0  0  0  0  0  0  0  0  0  0  0  0
   -2.1382   11.1349   -1.0430 H   0  0  0  0  0  0  0  0  0  0  0  0
   -3.3828    9.8397   -1.0430 H   0  0  0  0  0  0  0  0  0  0  0  0
   -2.9616    7.7536   -2.0627 H   0  0  0  0  0  0  0  0  0  0  0  0
   -2.7710    9.1198   -3.2133 H   0  0  0  0  0  0  0  0  0  0  0  0
   -1.5823    7.7731   -3.2133 H   0  0  0  0  0  0  0  0  0  0  0  0
    3.6203   10.1090   -1.3962 H   0  0  0  0  0  0  0  0  0  0  0  0
    2.7118    9.6879   -2.8875 H   0  0  0  0  0  0  0  0  0  0  0  0
    3.8396   11.0860   -2.8875 H   0  0  0  0  0  0  0  0  0  0  0  0
    2.4972   11.9088    0.2153 H   0  0  0  0  0  0  0  0  0  0  0  0
    3.5747   12.6437   -1.1009 H   0  0  0  0  0  0  0  0  0  0  0  0
    0.8872   13.6577   -0.1321 H   0  0  0  0  0  0  0  0  0  0  0  0
    2.5118   14.4325    0.0329 H   0  0  0  0  0  0  0  0  0  0  0  0
    3.8454   14.8605   -1.7402 H   0  0  0  0  0  0  0  0  0  0  0  0
    3.4160   13.8722   -3.1774 H   0  0  0  0  0  0  0  0  0  0  0  0
    3.1022   15.6408   -3.1774 H   0  0  0  0  0  0  0  0  0  0  0  0
  1  2  1  0
  2  3  1  0
  3  4  1  0
  4  5  1  0
  5  6  1  0
  6  7  1  0
  7  8  1  0
  7  9  1  0
  2 10  1  0
 10 11  1  0
 11 12  1  0
 12 13  1  0
 13 14  1  1
 13 15  1  0
 15 16  1  0
 16 17  1  0
 17 18  2  0
 18 19  1  0
 19 20  1  0
 20 21  1  0
 21 22  1  0
 22 23  1  0
 22 24  1  0
 24 25  1  0
 24 26  1  0
 19 27  1  0
 27 28  1  6
 27 29  1  0
 29 30  1  0
 30 31  1  0
 31 32  1  6
  7  5  1  0
 31 10  1  0
 31 13  1  0
 27 15  1  0
 24 18  1  0
  1 33  1  0
  1 34  1  0
  1 35  1  0
  2 36  1  1
  3 37  1  0
  3 38  1  0
  4 39  1  0
  4 40  1  0
  5 41  1  6
  8 42  1  0
  8 43  1  0
  8 44  1  0
  9 45  1  0
  9 46  1  0
  9 47  1  0
 10 48  1  1
 11 49  1  0
 11 50  1  0
 12 51  1  0
 12 52  1  0
 14 53  1  0
 14 54  1  0
 14 55  1  0
 15 56  1  6
 16 57  1  0
 16 58  1  0
 17 59  1  0
 19 60  1  1
 20 61  1  0
 20 62  1  0
 21 63  1  0
 21 64  1  0
 22 65  1  1
 23 66  1  0
 25 67  1  0
 25 68  1  0
 25 69  1  0
 26 70  1  0
 26 71  1  0
 26 72  1  0
 28 73  1  0
 28 74  1  0
 28 75  1  0
 29 76  1  0
 29 77  1  0
 30 78  1  0
 30 79  1  0
 32 80  1  0
 32 81  1  0
 32 82  1  0
M  END
>  <meeko>  (12) 
{"is_sidechain": [false], "intermolecular_energy": 2.731, "internal_energy": -0.839}

$$$$
EPH_relaxed_0001_pdb2pqr_Repair_310_r2_0001_out
     RDKit          3D

 82 86  0  0  0  0  0  0  0  0999 V2000
    4.1050   17.5100    0.4630 C   0  0  0  0  0  0  0  0  0  0  0  0
    3.8870   16.6180   -0.7620 C   0  0  2  0  0  0  0  0  0  0  0  0
    3.7510   17.4380   -2.0600 C   0  0  0  0  0  0  0  0  0  0  0  0
    3.1530   18.8320   -1.8480 C   0  0  0  0  0  0  0  0  0  0  0  0
    1.7090   18.8820   -2.2460 C   0  0  2  0  0  0  0  0  0  0  0  0
    1.2150   20.1940   -2.5440 O   0  0  0  0  0  0  0  0  0  0  0  0
    0.6320   19.5410   -1.4050 C   0  0  0  0  0  0  0  0  0  0  0  0
    0.9530   20.1940   -0.0970 C   0  0  0  0  0  0  0  0  0  0  0  0
   -0.7920   19.1260   -1.6110 C   0  0  0  0  0  0  0  0  0  0  0  0
    2.6490   15.7520   -0.5600 C   0  0  1  0  0  0  0  0  0  0  0  0
    1.3560   16.5910   -0.3780 C   0  0  0  0  0  0  0  0  0  0  0  0
    0.2070   15.7940   -1.0480 C   0  0  0  0  0  0  0  0  0  0  0  0
    0.8010   14.3870   -1.2950 C   0  0  1  0  0  0  0  0  0  0  0  0
    0.6810   13.6540    0.0770 C   0  0  0  0  0  0  0  0  0  0  0  0
    0.1550   13.5580   -2.4520 C   0  0  2  0  0  0  0  0  0  0  0  0
   -1.3310   13.2120   -2.2550 C   0  0  0  0  0  0  0  0  0  0  0  0
   -1.5980   11.9190   -1.5570 C   0  0  0  0  0  0  0  0  0  0  0  0
   -0.6990   10.9370   -1.3600 C   0  0  0  0  0  0  0  0  0  0  0  0
    0.7150   11.0340   -1.9470 C   0  0  1  0  0  0  0  0  0  0  0  0
    1.0870    9.6890   -2.6240 C   0  0  0  0  0  0  0  0  0  0  0  0
    0.9250    8.4970   -1.6860 C   0  0  0  0  0  0  0  0  0  0  0  0
   -0.5080    8.4000   -1.1690 C   0  0  2  0  0  0  0  0  0  0  0  0
   -1.3720    8.0840   -2.2640 O   0  0  0  0  0  0  0  0  0  0  0  0
   -0.9970    9.7020   -0.4740 C   0  0  0  0  0  0  0  0  0  0  0  0
   -0.2590    9.8810    0.8750 C   0  0  0  0  0  0  0  0  0  0  0  0
   -2.5000    9.5210   -0.1270 C   0  0  0  0  0  0  0  0  0  0  0  0
    0.9920   12.2870   -2.8840 C   0  0  1  0  0  0  0  0  0  0  0  0
    0.5750   11.9570   -4.3500 C   0  0  0  0  0  0  0  0  0  0  0  0
    2.5400   12.5720   -2.9170 C   0  0  0  0  0  0  0  0  0  0  0  0
    3.0990   13.4950   -1.8170 C   0  0  0  0  0  0  0  0  0  0  0  0
    2.2690   14.7770   -1.7030 C   0  0  2  0  0  0  0  0  0  0  0  0
    2.3890   15.5480   -3.0620 C   0  0  0  0  0  0  0  0  0  0  0  0
    3.9602   16.9175    1.3784 H   0  0  0  0  0  0  0  0  0  0  0  0
    5.1282   17.9135    0.4454 H   0  0  0  0  0  0  0  0  0  0  0  0
    3.3832   18.3399    0.4454 H   0  0  0  0  0  0  0  0  0  0  0  0
    4.7751   15.9777   -0.8681 H   0  0  0  0  0  0  0  0  0  0  0  0
    4.7506   17.5529   -2.5045 H   0  0  0  0  0  0  0  0  0  0  0  0
    3.0603   16.8884   -2.7164 H   0  0  0  0  0  0  0  0  0  0  0  0
    3.2391   19.0988   -0.7843 H   0  0  0  0  0  0  0  0  0  0  0  0
    3.7074   19.5425   -2.4787 H   0  0  0  0  0  0  0  0  0  0  0  0
    1.7779   17.8865   -2.7088 H   0  0  0  0  0  0  0  0  0  0  0  0
    0.6318   19.5406    0.7276 H   0  0  0  0  0  0  0  0  0  0  0  0
    2.0376   20.3644   -0.0287 H   0  0  0  0  0  0  0  0  0  0  0  0
    0.4255   21.1569   -0.0287 H   0  0  0  0  0  0  0  0  0  0  0  0
   -1.2776   18.9845   -0.6342 H   0  0  0  0  0  0  0  0  0  0  0  0
   -1.3235   19.9066   -2.1751 H   0  0  0  0  0  0  0  0  0  0  0  0
   -0.8209   18.1821   -2.1751 H   0  0  0  0  0  0  0  0  0  0  0  0
    2.9633   15.1857    0.3291 H   0  0  0  0  0  0  0  0  0  0  0  0
    1.1444   16.7333    0.6920 H   0  0  0  0  0  0  0  0  0  0  0  0
    1.4639   17.5864   -0.8335 H   0  0  0  0  0  0  0  0  0  0  0  0
   -0.6656   15.7356   -0.3809 H   0  0  0  0  0  0  0  0  0  0  0  0
   -0.1434   16.2680   -1.9767 H   0  0  0  0  0  0  0  0  0  0  0  0
    0.8001   14.3818    0.8932 H   0  0  0  0  0  0  0  0  0  0  0  0
   -0.3072   13.1768    0.1526 H   0  0  0  0  0  0  0  0  0  0  0  0
    1.4655   12.8866    0.1526 H   0  0  0  0  0  0  0  0  0  0  0  0
    0.1884   14.2635   -3.2953 H   0  0  0  0  0  0  0  0  0  0  0  0
   -1.7924   14.0180   -1.6655 H   0  0  0  0  0  0  0  0  0  0  0  0
   -1.7551   13.1061   -3.2644 H   0  0  0  0  0  0  0  0  0  0  0  0
   -2.6151   11.7555   -1.1714 H   0  0  0  0  0  0  0  0  0  0  0  0
    1.3862   11.2215   -1.0959 H   0  0  0  0  0  0  0  0  0  0  0  0
    0.4346    9.5416   -3.4973 H   0  0  0  0  0  0  0  0  0  0  0  0
    2.1466    9.7435   -2.9145 H   0  0  0  0  0  0  0  0  0  0  0  0
    1.1745    7.5742   -2.2302 H   0  0  0  0  0  0  0  0  0  0  0  0
    1.5994    8.6318   -0.8275 H   0  0  0  0  0  0  0  0  0  0  0  0
   -0.5314    7.6093   -0.4047 H   0  0  0  0  0  0  0  0  0  0  0  0
   -1.4740    8.8890   -2.8000 H   0  0  0  0  0  0  0  0  0  0  0  0
   -0.9625    9.7104    1.7033 H   0  0  0  0  0  0  0  0  0  0  0  0
    0.5666    9.1571    0.9401 H   0  0  0  0  0  0  0  0  0  0  0  0
    0.1432   10.9027    0.9401 H   0  0  0  0  0  0  0  0  0  0  0  0
   -2.6248    9.5060    0.9658 H   0  0  0  0  0  0  0  0  0  0  0  0
   -3.0772   10.3561   -0.5505 H   0  0  0  0  0  0  0  0  0  0  0  0
   -2.8625    8.5727   -0.5505 H   0  0  0  0  0  0  0  0  0  0  0  0
   -0.2875   11.2744   -4.3410 H   0  0  0  0  0  0  0  0  0  0  0  0
    0.3019   12.8862   -4.8715 H   0  0  0  0  0  0  0  0  0  0  0  0
    1.4166   11.4776   -4.8715 H   0  0  0  0  0  0  0  0  0  0  0  0
    3.0584   11.6052   -2.8357 H   0  0  0  0  0  0  0  0  0  0  0  0
    2.7141   13.1098   -3.8606 H   0  0  0  0  0  0  0  0  0  0  0  0
    3.0741   12.9634   -0.8543 H   0  0  0  0  0  0  0  0  0  0  0  0
    4.1317   13.7680   -2.0796 H   0  0  0  0  0  0  0  0  0  0  0  0
    2.5554   16.6171   -2.8636 H   0  0  0  0  0  0  0  0  0  0  0  0
    3.2354   15.1459   -3.6382 H   0  0  0  0  0  0  0  0  0  0  0  0
    1.4605   15.4222   -3.6382 H   0  0  0  0  0  0  0  0  0  0  0  0
  1  2  1  0
  2  3  1  0
  3  4  1  0
  4  5  1  0
  5  6  1  0
  6  7  1  0
  7  8  1  0
  7  9  1  0
  2 10  1  0
 10 11  1  0
 11 12  1  0
 12 13  1  0
 13 14  1  1
 13 15  1  0
 15 16  1  0
 16 17  1  0
 17 18  2  0
 18 19  1  0
 19 20  1  0
 20 21  1  0
 21 22  1  0
 22 23  1  0
 22 24  1  0
 24 25  1  0
 24 26  1  0
 19 27  1  0
 27 28  1  6
 27 29  1  0
 29 30  1  0
 30 31  1  0
 31 32  1  6
  7  5  1  0
 31 10  1  0
 31 13  1  0
 27 15  1  0
 24 18  1  0
  1 33  1  0
  1 34  1  0
  1 35  1  0
  2 36  1  6
  3 37  1  0
  3 38  1  0
  4 39  1  0
  4 40  1  0
  5 41  1  6
  8 42  1  0
  8 43  1  0
  8 44  1  0
  9 45  1  0
  9 46  1  0
  9 47  1  0
 10 48  1  1
 11 49  1  0
 11 50  1  0
 12 51  1  0
 12 52  1  0
 14 53  1  0
 14 54  1  0
 14 55  1  0
 15 56  1  6
 16 57  1  0
 16 58  1  0
 17 59  1  0
 19 60  1  1
 20 61  1  0
 20 62  1  0
 21 63  1  0
 21 64  1  0
 22 65  1  1
 23 66  1  0
 25 67  1  0
 25 68  1  0
 25 69  1  0
 26 70  1  0
 26 71  1  0
 26 72  1  0
 28 73  1  0
 28 74  1  0
 28 75  1  0
 29 76  1  0
 29 77  1  0
 30 78  1  0
 30 79  1  0
 32 80  1  0
 32 81  1  0
 32 82  1  0
M  END
>  <meeko>  (13) 
{"is_sidechain": [false], "intermolecular_energy": 2.731, "internal_energy": -0.839}

$$$$
EPH_relaxed_0001_pdb2pqr_Repair_310_r2_0001_out
     RDKit          3D

 82 86  0  0  0  0  0  0  0  0999 V2000
    4.8060   17.4360   -3.3830 C   0  0  0  0  0  0  0  0  0  0  0  0
    5.4000   16.1450   -2.8130 C   0  0  2  0  0  0  0  0  0  0  0  0
    5.8560   15.1770   -3.9230 C   0  0  0  0  0  0  0  0  0  0  0  0
    6.2320   13.7850   -3.4090 C   0  0  0  0  0  0  0  0  0  0  0  0
    5.5670   12.7020   -4.2030 C   0  0  2  0  0  0  0  0  0  0  0  0
    5.0310   11.6270   -3.4180 O   0  0  0  0  0  0  0  0  0  0  0  0
    6.1080   11.2880   -4.3070 C   0  0  0  0  0  0  0  0  0  0  0  0
    7.3680   10.8810   -3.6090 C   0  0  0  0  0  0  0  0  0  0  0  0
    5.6870   10.4450   -5.4700 C   0  0  0  0  0  0  0  0  0  0  0  0
    4.3820   15.4590   -1.9090 C   0  0  1  0  0  0  0  0  0  0  0  0
    3.9320   16.3580   -0.7270 C   0  0  0  0  0  0  0  0  0  0  0  0
    2.4380   16.0370   -0.4640 C   0  0  0  0  0  0  0  0  0  0  0  0
    2.1690   14.7450   -1.2700 C   0  0  1  0  0  0  0  0  0  0  0  0
    2.7060   13.5900   -0.3670 C   0  0  0  0  0  0  0  0  0  0  0  0
    0.6880   14.4970   -1.7040 C   0  0  2  0  0  0  0  0  0  0  0  0
   -0.3120   14.3280   -0.5470 C   0  0  0  0  0  0  0  0  0  0  0  0
   -0.5110   12.9250   -0.0750 C   0  0  0  0  0  0  0  0  0  0  0  0
   -0.1340   11.8160   -0.7380 C   0  0  0  0  0  0  0  0  0  0  0  0
    0.4760   11.9080   -2.1430 C   0  0  1  0  0  0  0  0  0  0  0  0
   -0.1970   10.8600   -3.0690 C   0  0  0  0  0  0  0  0  0  0  0  0
   -0.1340    9.4470   -2.4960 C   0  0  0  0  0  0  0  0  0  0  0  0
   -0.8010    9.3840   -1.1240 C   0  0  2  0  0  0  0  0  0  0  0  0
   -2.2040    9.6190   -1.2830 O   0  0  0  0  0  0  0  0  0  0  0  0
   -0.2120   10.4030   -0.1090 C   0  0  0  0  0  0  0  0  0  0  0  0
    1.2190    9.9700    0.2920 C   0  0  0  0  0  0  0  0  0  0  0  0
   -1.0660   10.3350    1.1860 C   0  0  0  0  0  0  0  0  0  0  0  0
    0.5120   13.3590   -2.7900 C   0  0  1  0  0  0  0  0  0  0  0  0
   -0.8320   13.6480   -3.5250 C   0  0  0  0  0  0  0  0  0  0  0  0
    1.6380   13.4030   -3.8900 C   0  0  0  0  0  0  0  0  0  0  0  0
    3.0570   13.7710   -3.4170 C   0  0  0  0  0  0  0  0  0  0  0  0
    3.0360   15.0330   -2.5490 C   0  0  2  0  0  0  0  0  0  0  0  0
    2.5220   16.2160   -3.4370 C   0  0  0  0  0  0  0  0  0  0  0  0
    4.5024   18.0959   -2.5569 H   0  0  0  0  0  0  0  0  0  0  0  0
    5.5604   17.9452   -4.0008 H   0  0  0  0  0  0  0  0  0  0  0  0
    3.9285   17.1944   -4.0008 H   0  0  0  0  0  0  0  0  0  0  0  0
    6.2902   16.4199   -2.2282 H   0  0  0  0  0  0  0  0  0  0  0  0
    5.0362   15.0696   -4.6485 H   0  0  0  0  0  0  0  0  0  0  0  0
    6.7616   15.6087   -4.3741 H   0  0  0  0  0  0  0  0  0  0  0  0
    7.3226   13.6611   -3.4809 H   0  0  0  0  0  0  0  0  0  0  0  0
    5.8935   13.7020   -2.3657 H   0  0  0  0  0  0  0  0  0  0  0  0
    5.2444   13.4264   -4.9653 H   0  0  0  0  0  0  0  0  0  0  0  0
    7.2164   10.9300   -2.5206 H   0  0  0  0  0  0  0  0  0  0  0  0
    7.6307    9.8523   -3.8967 H   0  0  0  0  0  0  0  0  0  0  0  0
    8.1828   11.5616   -3.8967 H   0  0  0  0  0  0  0  0  0  0  0  0
    5.2238    9.5176   -5.1020 H   0  0  0  0  0  0  0  0  0  0  0  0
    4.9604   11.0002   -6.0813 H   0  0  0  0  0  0  0  0  0  0  0  0
    6.5674   10.1977   -6.0813 H   0  0  0  0  0  0  0  0  0  0  0  0
    4.9607   14.5690   -1.6210 H   0  0  0  0  0  0  0  0  0  0  0  0
    4.5307   16.1344    0.1683 H   0  0  0  0  0  0  0  0  0  0  0  0
    4.0710   17.4228   -0.9656 H   0  0  0  0  0  0  0  0  0  0  0  0
    2.2597   15.8699    0.6085 H   0  0  0  0  0  0  0  0  0  0  0  0
    1.7749   16.8617   -0.7643 H   0  0  0  0  0  0  0  0  0  0  0  0
    2.5792   13.8627    0.6911 H   0  0  0  0  0  0  0  0  0  0  0  0
    2.1441   12.6682   -0.5780 H   0  0  0  0  0  0  0  0  0  0  0  0
    3.7730   13.4255   -0.5780 H   0  0  0  0  0  0  0  0  0  0  0  0
    0.4238   15.4472   -2.1911 H   0  0  0  0  0  0  0  0  0  0  0  0
    0.0486   14.9248    0.3037 H   0  0  0  0  0  0  0  0  0  0  0  0
   -1.2862   14.6590   -0.9362 H   0  0  0  0  0  0  0  0  0  0  0  0
   -1.0077   12.7863    0.8966 H   0  0  0  0  0  0  0  0  0  0  0  0
    1.5443   11.6730   -2.0265 H   0  0  0  0  0  0  0  0  0  0  0  0
   -1.2523   11.1377   -3.2074 H   0  0  0  0  0  0  0  0  0  0  0  0
    0.3495   10.8580   -4.0236 H   0  0  0  0  0  0  0  0  0  0  0  0
   -0.6514    8.7579   -3.1797 H   0  0  0  0  0  0  0  0  0  0  0  0
    0.9221    9.1595   -2.3864 H   0  0  0  0  0  0  0  0  0  0  0  0
   -0.6100    8.3831   -0.7095 H   0  0  0  0  0  0  0  0  0  0  0  0
   -2.6040    9.6230   -0.3970 H   0  0  0  0  0  0  0  0  0  0  0  0
    1.3008    9.9452    1.3887 H   0  0  0  0  0  0  0  0  0  0  0  0
    1.4264    8.9689   -0.1139 H   0  0  0  0  0  0  0  0  0  0  0  0
    1.9467   10.6882   -0.1139 H   0  0  0  0  0  0  0  0  0  0  0  0
   -0.4054   10.3876    2.0640 H   0  0  0  0  0  0  0  0  0  0  0  0
   -1.7701   11.1799    1.2057 H   0  0  0  0  0  0  0  0  0  0  0  0
   -1.6275    9.3893    1.2057 H   0  0  0  0  0  0  0  0  0  0  0  0
   -1.6262   13.8188   -2.7833 H   0  0  0  0  0  0  0  0  0  0  0  0
   -0.7203   14.5427   -4.1552 H   0  0  0  0  0  0  0  0  0  0  0  0
   -1.0979   12.7865   -4.1552 H   0  0  0  0  0  0  0  0  0  0  0  0
    1.6896   12.4067   -4.3534 H   0  0  0  0  0  0  0  0  0  0  0  0
    1.3426   14.2139   -4.5720 H   0  0  0  0  0  0  0  0  0  0  0  0
    3.4679   12.9369   -2.8293 H   0  0  0  0  0  0  0  0  0  0  0  0
    3.6822   13.9640   -4.3012 H   0  0  0  0  0  0  0  0  0  0  0  0
    2.1673   17.0324   -2.7907 H   0  0  0  0  0  0  0  0  0  0  0  0
    3.3426   16.5812   -4.0720 H   0  0  0  0  0  0  0  0  0  0  0  0
    1.6951   15.8654   -4.0720 H   0  0  0  0  0  0  0  0  0  0  0  0
  1  2  1  0
  2  3  1  0
  3  4  1  0
  4  5  1  0
  5  6  1  0
  6  7  1  0
  7  8  1  0
  7  9  1  0
  2 10  1  0
 10 11  1  0
 11 12  1  0
 12 13  1  0
 13 14  1  1
 13 15  1  0
 15 16  1  0
 16 17  1  0
 17 18  2  0
 18 19  1  0
 19 20  1  0
 20 21  1  0
 21 22  1  0
 22 23  1  0
 22 24  1  0
 24 25  1  0
 24 26  1  0
 19 27  1  0
 27 28  1  6
 27 29  1  0
 29 30  1  0
 30 31  1  0
 31 32  1  6
  7  5  1  0
 31 10  1  0
 31 13  1  0
 27 15  1  0
 24 18  1  0
  1 33  1  0
  1 34  1  0
  1 35  1  0
  2 36  1  1
  3 37  1  0
  3 38  1  0
  4 39  1  0
  4 40  1  0
  5 41  1  6
  8 42  1  0
  8 43  1  0
  8 44  1  0
  9 45  1  0
  9 46  1  0
  9 47  1  0
 10 48  1  1
 11 49  1  0
 11 50  1  0
 12 51  1  0
 12 52  1  0
 14 53  1  0
 14 54  1  0
 14 55  1  0
 15 56  1  6
 16 57  1  0
 16 58  1  0
 17 59  1  0
 19 60  1  1
 20 61  1  0
 20 62  1  0
 21 63  1  0
 21 64  1  0
 22 65  1  1
 23 66  1  0
 25 67  1  0
 25 68  1  0
 25 69  1  0
 26 70  1  0
 26 71  1  0
 26 72  1  0
 28 73  1  0
 28 74  1  0
 28 75  1  0
 29 76  1  0
 29 77  1  0
 30 78  1  0
 30 79  1  0
 32 80  1  0
 32 81  1  0
 32 82  1  0
M  END
>  <meeko>  (14) 
{"is_sidechain": [false], "intermolecular_energy": 2.731, "internal_energy": -0.839}

$$$$
EPH_relaxed_0001_pdb2pqr_Repair_310_r2_0001_out
     RDKit          3D

 82 86  0  0  0  0  0  0  0  0999 V2000
    5.7660   14.9220   -2.9970 C   0  0  0  0  0  0  0  0  0  0  0  0
    4.6670   15.9880   -2.9710 C   0  0  2  0  0  0  0  0  0  0  0  0
    5.0910   17.2390   -2.1750 C   0  0  0  0  0  0  0  0  0  0  0  0
    3.9220   17.9720   -1.5110 C   0  0  0  0  0  0  0  0  0  0  0  0
    4.1940   18.2530   -0.0650 C   0  0  2  0  0  0  0  0  0  0  0  0
    3.4050   17.4850    0.8530 O   0  0  0  0  0  0  0  0  0  0  0  0
    3.1860   18.9050    0.8640 C   0  0  0  0  0  0  0  0  0  0  0  0
    1.8310   19.3160    0.3810 C   0  0  0  0  0  0  0  0  0  0  0  0
    3.6880   19.5820    2.1020 C   0  0  0  0  0  0  0  0  0  0  0  0
    3.3900   15.4030   -2.3800 C   0  0  1  0  0  0  0  0  0  0  0  0
    2.1910   16.3860   -2.4570 C   0  0  0  0  0  0  0  0  0  0  0  0
    0.9240   15.5270   -2.7010 C   0  0  0  0  0  0  0  0  0  0  0  0
    1.3780   14.0750   -2.4260 C   0  0  1  0  0  0  0  0  0  0  0  0
    1.3330   13.9270   -0.8720 C   0  0  0  0  0  0  0  0  0  0  0  0
    0.5590   12.9480   -3.1360 C   0  0  2  0  0  0  0  0  0  0  0  0
   -0.9240   12.8670   -2.7340 C   0  0  0  0  0  0  0  0  0  0  0  0
   -1.2240   11.9690   -1.5800 C   0  0  0  0  0  0  0  0  0  0  0  0
   -0.3910   11.0400   -1.0750 C   0  0  0  0  0  0  0  0  0  0  0  0
    0.9630   10.7530   -1.7370 C   0  0  1  0  0  0  0  0  0  0  0  0
    1.1610    9.2200   -1.8690 C   0  0  0  0  0  0  0  0  0  0  0  0
    0.9960    8.4930   -0.5380 C   0  0  0  0  0  0  0  0  0  0  0  0
   -0.3830    8.7560    0.0610 C   0  0  2  0  0  0  0  0  0  0  0  0
   -1.3720    8.1490   -0.7770 O   0  0  0  0  0  0  0  0  0  0  0  0
   -0.6990   10.2680    0.2310 C   0  0  0  0  0  0  0  0  0  0  0  0
    0.1780   10.8580    1.3630 C   0  0  0  0  0  0  0  0  0  0  0  0
   -2.1700   10.3980    0.7100 C   0  0  0  0  0  0  0  0  0  0  0  0
    1.2470   11.5240   -3.0980 C   0  0  1  0  0  0  0  0  0  0  0  0
    0.6660   10.7160   -4.2980 C   0  0  0  0  0  0  0  0  0  0  0  0
    2.8020   11.6040   -3.3280 C   0  0  0  0  0  0  0  0  0  0  0  0
    3.5370   12.8050   -2.7010 C   0  0  0  0  0  0  0  0  0  0  0  0
    2.8250   14.1190   -3.0380 C   0  0  2  0  0  0  0  0  0  0  0  0
    2.8750   14.3050   -4.5920 C   0  0  0  0  0  0  0  0  0  0  0  0
    6.0418   14.6545   -1.9663 H   0  0  0  0  0  0  0  0  0  0  0  0
    5.3975   14.0282   -3.5217 H   0  0  0  0  0  0  0  0  0  0  0  0
    6.6482   15.3176   -3.5217 H   0  0  0  0  0  0  0  0  0  0  0  0
    4.4860   16.3027   -4.0093 H   0  0  0  0  0  0  0  0  0  0  0  0
    5.7968   16.9286   -1.3905 H   0  0  0  0  0  0  0  0  0  0  0  0
    5.5428   17.9390   -2.8933 H   0  0  0  0  0  0  0  0  0  0  0  0
    3.7555   18.9252   -2.0342 H   0  0  0  0  0  0  0  0  0  0  0  0
    3.0329   17.3274   -1.5738 H   0  0  0  0  0  0  0  0  0  0  0  0
    5.2493   18.4751   -0.2820 H   0  0  0  0  0  0  0  0  0  0  0  0
    1.1785   19.5139    1.2442 H   0  0  0  0  0  0  0  0  0  0  0  0
    1.9198   20.2276   -0.2282 H   0  0  0  0  0  0  0  0  0  0  0  0
    1.3984   18.5087   -0.2282 H   0  0  0  0  0  0  0  0  0  0  0  0
    3.3003   19.0591    2.9887 H   0  0  0  0  0  0  0  0  0  0  0  0
    4.7877   19.5571    2.1133 H   0  0  0  0  0  0  0  0  0  0  0  0
    3.3448   20.6270    2.1133 H   0  0  0  0  0  0  0  0  0  0  0  0
    3.7430   15.1805   -1.3622 H   0  0  0  0  0  0  0  0  0  0  0  0
    2.0957   16.9420   -1.5127 H   0  0  0  0  0  0  0  0  0  0  0  0
    2.3326   17.1195   -3.2644 H   0  0  0  0  0  0  0  0  0  0  0  0
    0.1182   15.8190   -2.0115 H   0  0  0  0  0  0  0  0  0  0  0  0
    0.5240   15.6534   -3.7179 H   0  0  0  0  0  0  0  0  0  0  0  0
    1.6226   14.8796   -0.4044 H   0  0  0  0  0  0  0  0  0  0  0  0
    0.3130   13.6598   -0.5585 H   0  0  0  0  0  0  0  0  0  0  0  0
    2.0316   13.1373   -0.5585 H   0  0  0  0  0  0  0  0  0  0  0  0
    0.5663   13.2774   -4.1855 H   0  0  0  0  0  0  0  0  0  0  0  0
   -1.2610   13.8809   -2.4722 H   0  0  0  0  0  0  0  0  0  0  0  0
   -1.4505   12.4371   -3.5988 H   0  0  0  0  0  0  0  0  0  0  0  0
   -2.2089   12.0754   -1.1019 H   0  0  0  0  0  0  0  0  0  0  0  0
    1.7251   11.1711   -1.0629 H   0  0  0  0  0  0  0  0  0  0  0  0
    0.4182    8.8282   -2.5794 H   0  0  0  0  0  0  0  0  0  0  0  0
    2.1885    9.0447   -2.2205 H   0  0  0  0  0  0  0  0  0  0  0  0
    1.1173    7.4119   -0.7010 H   0  0  0  0  0  0  0  0  0  0  0  0
    1.7590    8.8649    0.1617 H   0  0  0  0  0  0  0  0  0  0  0  0
   -0.3937    8.3184    1.0702 H   0  0  0  0  0  0  0  0  0  0  0  0
   -2.2350    8.2660   -0.3450 H   0  0  0  0  0  0  0  0  0  0  0  0
   -0.2433   10.5746    2.3388 H   0  0  0  0  0  0  0  0  0  0  0  0
    1.2014   10.4640    1.2771 H   0  0  0  0  0  0  0  0  0  0  0  0
    0.1988   11.9544    1.2771 H   0  0  0  0  0  0  0  0  0  0  0  0
   -2.1987   10.4005    1.8096 H   0  0  0  0  0  0  0  0  0  0  0  0
   -2.5977   11.3374    0.3299 H   0  0  0  0  0  0  0  0  0  0  0  0
   -2.7559    9.5481    0.3299 H   0  0  0  0  0  0  0  0  0  0  0  0
    0.0633    9.8778   -3.9182 H   0  0  0  0  0  0  0  0  0  0  0  0
    0.0332   11.3744   -4.9113 H   0  0  0  0  0  0  0  0  0  0  0  0
    1.4916   10.3257   -4.9113 H   0  0  0  0  0  0  0  0  0  0  0  0
    3.2473   10.6878   -2.9128 H   0  0  0  0  0  0  0  0  0  0  0  0
    2.9261   11.7260   -4.4141 H   0  0  0  0  0  0  0  0  0  0  0  0
    3.5641   12.6801   -1.6084 H   0  0  0  0  0  0  0  0  0  0  0  0
    4.5578   12.8440   -3.1090 H   0  0  0  0  0  0  0  0  0  0  0  0
    3.1539   15.3425   -4.8283 H   0  0  0  0  0  0  0  0  0  0  0  0
    3.6205   13.6184   -5.0197 H   0  0  0  0  0  0  0  0  0  0  0  0
    1.8858   14.0847   -5.0197 H   0  0  0  0  0  0  0  0  0  0  0  0
  1  2  1  0
  2  3  1  0
  3  4  1  0
  4  5  1  0
  5  6  1  0
  6  7  1  0
  7  8  1  0
  7  9  1  0
  2 10  1  0
 10 11  1  0
 11 12  1  0
 12 13  1  0
 13 14  1  1
 13 15  1  0
 15 16  1  0
 16 17  1  0
 17 18  2  0
 18 19  1  0
 19 20  1  0
 20 21  1  0
 21 22  1  0
 22 23  1  0
 22 24  1  0
 24 25  1  0
 24 26  1  0
 19 27  1  0
 27 28  1  6
 27 29  1  0
 29 30  1  0
 30 31  1  0
 31 32  1  6
  7  5  1  0
 31 10  1  0
 31 13  1  0
 27 15  1  0
 24 18  1  0
  1 33  1  0
  1 34  1  0
  1 35  1  0
  2 36  1  6
  3 37  1  0
  3 38  1  0
  4 39  1  0
  4 40  1  0
  5 41  1  1
  8 42  1  0
  8 43  1  0
  8 44  1  0
  9 45  1  0
  9 46  1  0
  9 47  1  0
 10 48  1  1
 11 49  1  0
 11 50  1  0
 12 51  1  0
 12 52  1  0
 14 53  1  0
 14 54  1  0
 14 55  1  0
 15 56  1  6
 16 57  1  0
 16 58  1  0
 17 59  1  0
 19 60  1  1
 20 61  1  0
 20 62  1  0
 21 63  1  0
 21 64  1  0
 22 65  1  1
 23 66  1  0
 25 67  1  0
 25 68  1  0
 25 69  1  0
 26 70  1  0
 26 71  1  0
 26 72  1  0
 28 73  1  0
 28 74  1  0
 28 75  1  0
 29 76  1  0
 29 77  1  0
 30 78  1  0
 30 79  1  0
 32 80  1  0
 32 81  1  0
 32 82  1  0
M  END
>  <meeko>  (15) 
{"is_sidechain": [false], "intermolecular_energy": 2.731, "internal_energy": -0.839}

$$$$
EPH_relaxed_0001_pdb2pqr_Repair_310_r2_0001_out
     RDKit          3D

 82 86  0  0  0  0  0  0  0  0999 V2000
   -1.2590   10.4700    1.3650 C   0  0  0  0  0  0  0  0  0  0  0  0
   -1.8450   10.1770   -0.0190 C   0  0  2  0  0  0  0  0  0  0  0  0
   -2.5560    8.8100   -0.0710 C   0  0  0  0  0  0  0  0  0  0  0  0
   -4.0330    8.8990   -0.4620 C   0  0  0  0  0  0  0  0  0  0  0  0
   -4.5630    7.5780   -0.9320 C   0  0  2  0  0  0  0  0  0  0  0  0
   -4.7850    7.4900   -2.3450 O   0  0  0  0  0  0  0  0  0  0  0  0
   -5.9520    7.3930   -1.5130 C   0  0  0  0  0  0  0  0  0  0  0  0
   -6.8990    8.5430   -1.6550 C   0  0  0  0  0  0  0  0  0  0  0  0
   -6.5620    6.0260   -1.4880 C   0  0  0  0  0  0  0  0  0  0  0  0
   -0.7440   10.2320   -1.0710 C   0  0  1  0  0  0  0  0  0  0  0  0
   -1.0760    9.3840   -2.3280 C   0  0  0  0  0  0  0  0  0  0  0  0
   -0.4810   10.1360   -3.5460 C   0  0  0  0  0  0  0  0  0  0  0  0
    0.4500   11.2050   -2.9270 C   0  0  1  0  0  0  0  0  0  0  0  0
    1.7710   10.4430   -2.5930 C   0  0  0  0  0  0  0  0  0  0  0  0
    0.7210   12.4740   -3.7990 C   0  0  2  0  0  0  0  0  0  0  0  0
    1.4370   12.2080   -5.1340 C   0  0  0  0  0  0  0  0  0  0  0  0
    2.9280   12.2700   -5.0820 C   0  0  0  0  0  0  0  0  0  0  0  0
    3.6540   12.8050   -4.0830 C   0  0  0  0  0  0  0  0  0  0  0  0
    2.9720   13.5120   -2.9050 C   0  0  1  0  0  0  0  0  0  0  0  0
    3.6880   14.8590   -2.6240 C   0  0  0  0  0  0  0  0  0  0  0  0
    5.1900   14.6900   -2.4130 C   0  0  0  0  0  0  0  0  0  0  0  0
    5.8410   14.0370   -3.6290 C   0  0  2  0  0  0  0  0  0  0  0  0
    5.7580   14.9390   -4.7360 O   0  0  0  0  0  0  0  0  0  0  0  0
    5.1960   12.6760   -4.0130 C   0  0  0  0  0  0  0  0  0  0  0  0
    5.5470   11.6130   -2.9440 C   0  0  0  0  0  0  0  0  0  0  0  0
    5.8500   12.1940   -5.3360 C   0  0  0  0  0  0  0  0  0  0  0  0
    1.3940   13.6710   -3.0110 C   0  0  1  0  0  0  0  0  0  0  0  0
    1.0410   14.9730   -3.7930 C   0  0  0  0  0  0  0  0  0  0  0  0
    0.7960   13.8460   -1.5650 C   0  0  0  0  0  0  0  0  0  0  0  0
    0.4380   12.5570   -0.8000 C   0  0  0  0  0  0  0  0  0  0  0  0
   -0.4020   11.6180   -1.6720 C   0  0  2  0  0  0  0  0  0  0  0  0
   -1.7470   12.3500   -2.0050 C   0  0  0  0  0  0  0  0  0  0  0  0
   -1.9571   10.1210    2.1401 H   0  0  0  0  0  0  0  0  0  0  0  0
   -0.2978    9.9464    1.4745 H   0  0  0  0  0  0  0  0  0  0  0  0
   -1.1011   11.5531    1.4745 H   0  0  0  0  0  0  0  0  0  0  0  0
   -2.5995   10.9493   -0.2295 H   0  0  0  0  0  0  0  0  0  0  0  0
   -2.0392    8.1776   -0.8079 H   0  0  0  0  0  0  0  0  0  0  0  0
   -2.5172    8.3887    0.9444 H   0  0  0  0  0  0  0  0  0  0  0  0
   -4.6143    9.2253    0.4130 H   0  0  0  0  0  0  0  0  0  0  0  0
   -4.1260    9.6192   -1.2882 H   0  0  0  0  0  0  0  0  0  0  0  0
   -4.0207    7.0501   -0.1337 H   0  0  0  0  0  0  0  0  0  0  0  0
   -7.1936    8.9007   -0.6574 H   0  0  0  0  0  0  0  0  0  0  0  0
   -6.4064    9.3577   -2.2060 H   0  0  0  0  0  0  0  0  0  0  0  0
   -7.7931    8.2159   -2.2060 H   0  0  0  0  0  0  0  0  0  0  0  0
   -6.7043    5.7070   -0.4449 H   0  0  0  0  0  0  0  0  0  0  0  0
   -7.5351    6.0493   -2.0004 H   0  0  0  0  0  0  0  0  0  0  0  0
   -5.8947    5.3173   -2.0004 H   0  0  0  0  0  0  0  0  0  0  0  0
    0.1013    9.8630   -0.4716 H   0  0  0  0  0  0  0  0  0  0  0  0
   -0.6231    8.3853   -2.2414 H   0  0  0  0  0  0  0  0  0  0  0  0
   -2.1623    9.2511   -2.4386 H   0  0  0  0  0  0  0  0  0  0  0  0
    0.0899    9.4476   -4.1865 H   0  0  0  0  0  0  0  0  0  0  0  0
   -1.2598   10.5796   -4.1838 H   0  0  0  0  0  0  0  0  0  0  0  0
    1.8891   10.3749   -1.5015 H   0  0  0  0  0  0  0  0  0  0  0  0
    1.7286    9.4306   -3.0211 H   0  0  0  0  0  0  0  0  0  0  0  0
    2.6261   10.9866   -3.0211 H   0  0  0  0  0  0  0  0  0  0  0  0
   -0.2960   12.7981   -4.0649 H   0  0  0  0  0  0  0  0  0  0  0  0
    1.1505   11.2036   -5.4790 H   0  0  0  0  0  0  0  0  0  0  0  0
    1.1226   13.0139   -5.8135 H   0  0  0  0  0  0  0  0  0  0  0  0
    3.4797   11.8422   -5.9321 H   0  0  0  0  0  0  0  0  0  0  0  0
    3.0864   12.8410   -2.0409 H   0  0  0  0  0  0  0  0  0  0  0  0
    3.5254   15.5302   -3.4802 H   0  0  0  0  0  0  0  0  0  0  0  0
    3.2653   15.2752   -1.6977 H   0  0  0  0  0  0  0  0  0  0  0  0
    5.6440   15.6784   -2.2488 H   0  0  0  0  0  0  0  0  0  0  0  0
    5.3512   14.0428   -1.5383 H   0  0  0  0  0  0  0  0  0  0  0  0
    6.8882   13.8241   -3.3681 H   0  0  0  0  0  0  0  0  0  0  0  0
    5.1200   15.6340   -4.5030 H   0  0  0  0  0  0  0  0  0  0  0  0
    5.4056   12.0413   -1.9407 H   0  0  0  0  0  0  0  0  0  0  0  0
    4.8896   10.7395   -3.0658 H   0  0  0  0  0  0  0  0  0  0  0  0
    6.5953   11.3027   -3.0658 H   0  0  0  0  0  0  0  0  0  0  0  0
    6.7159   11.5558   -5.1058 H   0  0  0  0  0  0  0  0  0  0  0  0
    5.1159   11.6193   -5.9198 H   0  0  0  0  0  0  0  0  0  0  0  0
    6.1816   13.0653   -5.9198 H   0  0  0  0  0  0  0  0  0  0  0  0
    0.8219   15.7812   -3.0796 H   0  0  0  0  0  0  0  0  0  0  0  0
    1.8929   15.2632   -4.4255 H   0  0  0  0  0  0  0  0  0  0  0  0
    0.1592   14.7932   -4.4255 H   0  0  0  0  0  0  0  0  0  0  0  0
    1.5352   14.3954   -0.9635 H   0  0  0  0  0  0  0  0  0  0  0  0
   -0.1606   14.3691   -1.7107 H   0  0  0  0  0  0  0  0  0  0  0  0
    1.3653   12.0429   -0.5071 H   0  0  0  0  0  0  0  0  0  0  0  0
   -0.1489   12.8284    0.0899 H   0  0  0  0  0  0  0  0  0  0  0  0
   -2.2553   12.6266   -1.0695 H   0  0  0  0  0  0  0  0  0  0  0  0
   -1.5356   13.2575   -2.5896 H   0  0  0  0  0  0  0  0  0  0  0  0
   -2.3943   11.6797   -2.5896 H   0  0  0  0  0  0  0  0  0  0  0  0
  1  2  1  0
  2  3  1  0
  3  4  1  0
  4  5  1  0
  5  6  1  0
  6  7  1  0
  7  8  1  0
  7  9  1  0
  2 10  1  0
 10 11  1  0
 11 12  1  0
 12 13  1  0
 13 14  1  1
 13 15  1  0
 15 16  1  0
 16 17  1  0
 17 18  2  0
 18 19  1  0
 19 20  1  0
 20 21  1  0
 21 22  1  0
 22 23  1  0
 22 24  1  0
 24 25  1  0
 24 26  1  0
 19 27  1  0
 27 28  1  6
 27 29  1  0
 29 30  1  0
 30 31  1  0
 31 32  1  6
  7  5  1  0
 31 10  1  0
 31 13  1  0
 27 15  1  0
 24 18  1  0
  1 33  1  0
  1 34  1  0
  1 35  1  0
  2 36  1  6
  3 37  1  0
  3 38  1  0
  4 39  1  0
  4 40  1  0
  5 41  1  1
  8 42  1  0
  8 43  1  0
  8 44  1  0
  9 45  1  0
  9 46  1  0
  9 47  1  0
 10 48  1  1
 11 49  1  0
 11 50  1  0
 12 51  1  0
 12 52  1  0
 14 53  1  0
 14 54  1  0
 14 55  1  0
 15 56  1  6
 16 57  1  0
 16 58  1  0
 17 59  1  0
 19 60  1  1
 20 61  1  0
 20 62  1  0
 21 63  1  0
 21 64  1  0
 22 65  1  1
 23 66  1  0
 25 67  1  0
 25 68  1  0
 25 69  1  0
 26 70  1  0
 26 71  1  0
 26 72  1  0
 28 73  1  0
 28 74  1  0
 28 75  1  0
 29 76  1  0
 29 77  1  0
 30 78  1  0
 30 79  1  0
 32 80  1  0
 32 81  1  0
 32 82  1  0
M  END
>  <meeko>  (16) 
{"is_sidechain": [false], "intermolecular_energy": 2.731, "internal_energy": -0.839}

$$$$
EPH_relaxed_0001_pdb2pqr_Repair_310_r2_0001_out
     RDKit          3D

 82 86  0  0  0  0  0  0  0  0999 V2000
    3.4110   18.2030    0.5640 C   0  0  0  0  0  0  0  0  0  0  0  0
    3.4570   17.1720   -0.5670 C   0  0  2  0  0  0  0  0  0  0  0  0
    3.4870   17.8360   -1.9580 C   0  0  0  0  0  0  0  0  0  0  0  0
    4.7450   17.5130   -2.7680 C   0  0  0  0  0  0  0  0  0  0  0  0
    4.8460   16.0490   -3.0740 C   0  0  2  0  0  0  0  0  0  0  0  0
    5.9370   15.3770   -2.4310 O   0  0  0  0  0  0  0  0  0  0  0  0
    5.9870   15.4360   -3.8650 C   0  0  0  0  0  0  0  0  0  0  0  0
    7.1040   16.2760   -4.4010 C   0  0  0  0  0  0  0  0  0  0  0  0
    5.7660   14.1140   -4.5320 C   0  0  0  0  0  0  0  0  0  0  0  0
    2.2600   16.2340   -0.4640 C   0  0  1  0  0  0  0  0  0  0  0  0
    0.9040   16.9830   -0.5510 C   0  0  0  0  0  0  0  0  0  0  0  0
   -0.0790   16.0460   -1.2990 C   0  0  0  0  0  0  0  0  0  0  0  0
    0.6340   14.6740   -1.3230 C   0  0  1  0  0  0  0  0  0  0  0  0
    0.3560   14.0520    0.0810 C   0  0  0  0  0  0  0  0  0  0  0  0
    0.2220   13.7020   -2.4770 C   0  0  2  0  0  0  0  0  0  0  0  0
   -1.2520   13.2610   -2.4630 C   0  0  0  0  0  0  0  0  0  0  0  0
   -1.5380   12.0150   -1.6910 C   0  0  0  0  0  0  0  0  0  0  0  0
   -0.6180   11.1250   -1.2740 C   0  0  0  0  0  0  0  0  0  0  0  0
    0.8590   11.2800   -1.6580 C   0  0  1  0  0  0  0  0  0  0  0  0
    1.4140    9.9150   -2.1440 C   0  0  0  0  0  0  0  0  0  0  0  0
    1.1890    8.7980   -1.1290 C   0  0  0  0  0  0  0  0  0  0  0  0
   -0.2970    8.6360   -0.8170 C   0  0  2  0  0  0  0  0  0  0  0  0
   -0.9660    8.1630   -1.9900 O   0  0  0  0  0  0  0  0  0  0  0  0
   -0.9670    9.9500   -0.3270 C   0  0  0  0  0  0  0  0  0  0  0  0
   -0.4520   10.3000    1.0910 C   0  0  0  0  0  0  0  0  0  0  0  0
   -2.4900    9.6850   -0.1830 C   0  0  0  0  0  0  0  0  0  0  0  0
    1.1940   12.4660   -2.6620 C   0  0  1  0  0  0  0  0  0  0  0  0
    1.0230   11.9820   -4.1340 C   0  0  0  0  0  0  0  0  0  0  0  0
    2.7080   12.8660   -2.4980 C   0  0  0  0  0  0  0  0  0  0  0  0
    3.0360   13.9200   -1.4230 C   0  0  0  0  0  0  0  0  0  0  0  0
    2.1180   15.1390   -1.5510 C   0  0  2  0  0  0  0  0  0  0  0  0
    2.3920   15.7990   -2.9460 C   0  0  0  0  0  0  0  0  0  0  0  0
    3.4341   17.6846    1.5339 H   0  0  0  0  0  0  0  0  0  0  0  0
    4.2802   18.8726    0.4853 H   0  0  0  0  0  0  0  0  0  0  0  0
    2.4857   18.7925    0.4853 H   0  0  0  0  0  0  0  0  0  0  0  0
    4.3895   16.5994   -0.4545 H   0  0  0  0  0  0  0  0  0  0  0  0
    2.6104   17.4914   -2.5261 H   0  0  0  0  0  0  0  0  0  0  0  0
    3.4808   18.9238   -1.7947 H   0  0  0  0  0  0  0  0  0  0  0  0
    4.7138   18.0737   -3.7139 H   0  0  0  0  0  0  0  0  0  0  0  0
    5.6219   17.7996   -2.1689 H   0  0  0  0  0  0  0  0  0  0  0  0
    3.7533   15.9704   -3.1734 H   0  0  0  0  0  0  0  0  0  0  0  0
    7.6744   16.7050   -3.5640 H   0  0  0  0  0  0  0  0  0  0  0  0
    7.7690   15.6523   -5.0165 H   0  0  0  0  0  0  0  0  0  0  0  0
    6.6894   17.0880   -5.0165 H   0  0  0  0  0  0  0  0  0  0  0  0
    5.6357   13.3345   -3.7669 H   0  0  0  0  0  0  0  0  0  0  0  0
    4.8641   14.1662   -5.1596 H   0  0  0  0  0  0  0  0  0  0  0  0
    6.6358   13.8700   -5.1596 H   0  0  0  0  0  0  0  0  0  0  0  0
    2.4730   15.7715    0.5110 H   0  0  0  0  0  0  0  0  0  0  0  0
    0.5258   17.1999    0.4589 H   0  0  0  0  0  0  0  0  0  0  0  0
    1.0158   17.9408   -1.0802 H   0  0  0  0  0  0  0  0  0  0  0  0
   -1.0359   15.9773   -0.7608 H   0  0  0  0  0  0  0  0  0  0  0  0
   -0.3169   16.4108   -2.3091 H   0  0  0  0  0  0  0  0  0  0  0  0
    0.6714   14.7577    0.8636 H   0  0  0  0  0  0  0  0  0  0  0  0
   -0.7197   13.8464    0.1845 H   0  0  0  0  0  0  0  0  0  0  0  0
    0.9203   13.1135    0.1845 H   0  0  0  0  0  0  0  0  0  0  0  0
    0.3363   14.3339   -3.3701 H   0  0  0  0  0  0  0  0  0  0  0  0
   -1.8465   14.0762   -2.0249 H   0  0  0  0  0  0  0  0  0  0  0  0
   -1.5127   13.0379   -3.5081 H   0  0  0  0  0  0  0  0  0  0  0  0
   -2.5891   11.8069   -1.4421 H   0  0  0  0  0  0  0  0  0  0  0  0
    1.3802   11.5901   -0.7403 H   0  0  0  0  0  0  0  0  0  0  0  0
    0.9109    9.6441   -3.0840 H   0  0  0  0  0  0  0  0  0  0  0  0
    2.4994   10.0261   -2.2837 H   0  0  0  0  0  0  0  0  0  0  0  0
    1.5755    7.8540   -1.5408 H   0  0  0  0  0  0  0  0  0  0  0  0
    1.7170    9.0565   -0.1993 H   0  0  0  0  0  0  0  0  0  0  0  0
   -0.3837    7.9134    0.0079 H   0  0  0  0  0  0  0  0  0  0  0  0
   -0.6830    8.7200   -2.7350 H   0  0  0  0  0  0  0  0  0  0  0  0
   -1.1154    9.8491    1.8437 H   0  0  0  0  0  0  0  0  0  0  0  0
    0.5675    9.9069    1.2182 H   0  0  0  0  0  0  0  0  0  0  0  0
   -0.4422   11.3926    1.2182 H   0  0  0  0  0  0  0  0  0  0  0  0
   -2.7549    9.6389    0.8836 H   0  0  0  0  0  0  0  0  0  0  0  0
   -3.0510   10.4990   -0.6653 H   0  0  0  0  0  0  0  0  0  0  0  0
   -2.7431    8.7293   -0.6653 H   0  0  0  0  0  0  0  0  0  0  0  0
    0.6566   10.9448   -4.1387 H   0  0  0  0  0  0  0  0  0  0  0  0
    0.2990   12.6290   -4.6510 H   0  0  0  0  0  0  0  0  0  0  0  0
    1.9927   12.0306   -4.6510 H   0  0  0  0  0  0  0  0  0  0  0  0
    3.2685   11.9525   -2.2502 H   0  0  0  0  0  0  0  0  0  0  0  0
    2.9872   13.3335   -3.4538 H   0  0  0  0  0  0  0  0  0  0  0  0
    2.9021   13.4719   -0.4273 H   0  0  0  0  0  0  0  0  0  0  0  0
    4.0765   14.2490   -1.5610 H   0  0  0  0  0  0  0  0  0  0  0  0
    2.8100   16.8059   -2.7995 H   0  0  0  0  0  0  0  0  0  0  0  0
    3.1086   15.1828   -3.5088 H   0  0  0  0  0  0  0  0  0  0  0  0
    1.4496   15.8715   -3.5088 H   0  0  0  0  0  0  0  0  0  0  0  0
  1  2  1  0
  2  3  1  0
  3  4  1  0
  4  5  1  0
  5  6  1  0
  6  7  1  0
  7  8  1  0
  7  9  1  0
  2 10  1  0
 10 11  1  0
 11 12  1  0
 12 13  1  0
 13 14  1  1
 13 15  1  0
 15 16  1  0
 16 17  1  0
 17 18  2  0
 18 19  1  0
 19 20  1  0
 20 21  1  0
 21 22  1  0
 22 23  1  0
 22 24  1  0
 24 25  1  0
 24 26  1  0
 19 27  1  0
 27 28  1  6
 27 29  1  0
 29 30  1  0
 30 31  1  0
 31 32  1  6
  7  5  1  0
 31 10  1  0
 31 13  1  0
 27 15  1  0
 24 18  1  0
  1 33  1  0
  1 34  1  0
  1 35  1  0
  2 36  1  1
  3 37  1  0
  3 38  1  0
  4 39  1  0
  4 40  1  0
  5 41  1  6
  8 42  1  0
  8 43  1  0
  8 44  1  0
  9 45  1  0
  9 46  1  0
  9 47  1  0
 10 48  1  1
 11 49  1  0
 11 50  1  0
 12 51  1  0
 12 52  1  0
 14 53  1  0
 14 54  1  0
 14 55  1  0
 15 56  1  6
 16 57  1  0
 16 58  1  0
 17 59  1  0
 19 60  1  1
 20 61  1  0
 20 62  1  0
 21 63  1  0
 21 64  1  0
 22 65  1  1
 23 66  1  0
 25 67  1  0
 25 68  1  0
 25 69  1  0
 26 70  1  0
 26 71  1  0
 26 72  1  0
 28 73  1  0
 28 74  1  0
 28 75  1  0
 29 76  1  0
 29 77  1  0
 30 78  1  0
 30 79  1  0
 32 80  1  0
 32 81  1  0
 32 82  1  0
M  END
>  <meeko>  (17) 
{"is_sidechain": [false], "intermolecular_energy": 2.731, "internal_energy": -0.839}

$$$$
EPH_relaxed_0001_pdb2pqr_Repair_310_r2_0001_out
     RDKit          3D

 82 86  0  0  0  0  0  0  0  0999 V2000
   -0.5780    7.8380   -2.9270 C   0  0  0  0  0  0  0  0  0  0  0  0
   -1.3120    8.4060   -1.7090 C   0  0  2  0  0  0  0  0  0  0  0  0
   -2.7670    7.9030   -1.6220 C   0  0  0  0  0  0  0  0  0  0  0  0
   -3.2110    7.0890   -2.8400 C   0  0  0  0  0  0  0  0  0  0  0  0
   -4.6730    7.2620   -3.1190 C   0  0  2  0  0  0  0  0  0  0  0  0
   -5.4440    7.7320   -2.0050 O   0  0  0  0  0  0  0  0  0  0  0  0
   -5.7540    6.4110   -2.4770 C   0  0  0  0  0  0  0  0  0  0  0  0
   -5.4160    5.3230   -1.5060 C   0  0  0  0  0  0  0  0  0  0  0  0
   -7.0830    6.3100   -3.1570 C   0  0  0  0  0  0  0  0  0  0  0  0
   -1.2890    9.9300   -1.7530 C   0  0  1  0  0  0  0  0  0  0  0  0
   -2.5320   10.5650   -1.0750 C   0  0  0  0  0  0  0  0  0  0  0  0
   -2.0520   11.8760   -0.4000 C   0  0  0  0  0  0  0  0  0  0  0  0
   -0.6420   12.1220   -0.9850 C   0  0  1  0  0  0  0  0  0  0  0  0
   -0.8940   12.7820   -2.3770 C   0  0  0  0  0  0  0  0  0  0  0  0
    0.3310   12.9770   -0.1080 C   0  0  2  0  0  0  0  0  0  0  0  0
   -0.1280   14.4220    0.1550 C   0  0  0  0  0  0  0  0  0  0  0  0
    0.3360   15.4300   -0.8440 C   0  0  0  0  0  0  0  0  0  0  0  0
    1.3180   15.2430   -1.7450 C   0  0  0  0  0  0  0  0  0  0  0  0
    2.1420   13.9490   -1.7560 C   0  0  1  0  0  0  0  0  0  0  0  0
    3.6490   14.2950   -1.8740 C   0  0  0  0  0  0  0  0  0  0  0  0
    3.9520   15.1900   -3.0730 C   0  0  0  0  0  0  0  0  0  0  0  0
    3.1580   16.4920   -2.9960 C   0  0  2  0  0  0  0  0  0  0  0  0
    3.6300   17.2540   -1.8810 O   0  0  0  0  0  0  0  0  0  0  0  0
    1.6260   16.2680   -2.8650 C   0  0  0  0  0  0  0  0  0  0  0  0
    1.0640   15.7150   -4.1980 C   0  0  0  0  0  0  0  0  0  0  0  0
    0.9570   17.6540   -2.6540 C   0  0  0  0  0  0  0  0  0  0  0  0
    1.8410   12.9260   -0.5780 C   0  0  1  0  0  0  0  0  0  0  0  0
    2.7070   13.2810    0.6690 C   0  0  0  0  0  0  0  0  0  0  0  0
    2.2800   11.4820   -1.0260 C   0  0  0  0  0  0  0  0  0  0  0  0
    1.2340   10.6420   -1.7840 C   0  0  0  0  0  0  0  0  0  0  0  0
   -0.1090   10.6440   -1.0480 C   0  0  2  0  0  0  0  0  0  0  0  0
    0.1090    9.9660    0.3470 C   0  0  0  0  0  0  0  0  0  0  0  0
    0.2501    7.1972   -2.5901 H   0  0  0  0  0  0  0  0  0  0  0  0
   -1.2781    7.2441   -3.5329 H   0  0  0  0  0  0  0  0  0  0  0  0
   -0.1788    8.6647   -3.5329 H   0  0  0  0  0  0  0  0  0  0  0  0
   -0.7861    8.0520   -0.8100 H   0  0  0  0  0  0  0  0  0  0  0  0
   -2.8626    7.2698   -0.7276 H   0  0  0  0  0  0  0  0  0  0  0  0
   -3.4124    8.7927   -1.5775 H   0  0  0  0  0  0  0  0  0  0  0  0
   -2.6386    7.4211   -3.7187 H   0  0  0  0  0  0  0  0  0  0  0  0
   -3.0258    6.0256   -2.6279 H   0  0  0  0  0  0  0  0  0  0  0  0
   -4.4659    7.5253   -4.1668 H   0  0  0  0  0  0  0  0  0  0  0  0
   -5.5328    5.6989   -0.4789 H   0  0  0  0  0  0  0  0  0  0  0  0
   -6.0911    4.4688   -1.6628 H   0  0  0  0  0  0  0  0  0  0  0  0
   -4.3757    5.0017   -1.6628 H   0  0  0  0  0  0  0  0  0  0  0  0
   -7.8786    6.2495   -2.3998 H   0  0  0  0  0  0  0  0  0  0  0  0
   -7.2418    7.1987   -3.7855 H   0  0  0  0  0  0  0  0  0  0  0  0
   -7.1056    5.4075   -3.7855 H   0  0  0  0  0  0  0  0  0  0  0  0
   -1.2249   10.0827   -2.8405 H   0  0  0  0  0  0  0  0  0  0  0  0
   -3.3025   10.7867   -1.8281 H   0  0  0  0  0  0  0  0  0  0  0  0
   -2.9731    9.8790   -0.3368 H   0  0  0  0  0  0  0  0  0  0  0  0
   -2.7259   12.7095   -0.6473 H   0  0  0  0  0  0  0  0  0  0  0  0
   -2.0411   11.8006    0.6974 H   0  0  0  0  0  0  0  0  0  0  0  0
   -1.2831   13.8010   -2.2346 H   0  0  0  0  0  0  0  0  0  0  0  0
    0.0508   12.8254   -2.9386 H   0  0  0  0  0  0  0  0  0  0  0  0
   -1.6273   12.1847   -2.9386 H   0  0  0  0  0  0  0  0  0  0  0  0
    0.2828   12.4665    0.8652 H   0  0  0  0  0  0  0  0  0  0  0  0
   -1.2279   14.4331    0.1634 H   0  0  0  0  0  0  0  0  0  0  0  0
    0.3227   14.7147    1.1148 H   0  0  0  0  0  0  0  0  0  0  0  0
   -0.1673   16.4081   -0.8435 H   0  0  0  0  0  0  0  0  0  0  0  0
    1.8175   13.3896   -2.6458 H   0  0  0  0  0  0  0  0  0  0  0  0
    3.9643   14.8149   -0.9573 H   0  0  0  0  0  0  0  0  0  0  0  0
    4.1981   13.3522   -2.0139 H   0  0  0  0  0  0  0  0  0  0  0  0
    5.0268   15.4239   -3.0853 H   0  0  0  0  0  0  0  0  0  0  0  0
    3.6641   14.6568   -3.9910 H   0  0  0  0  0  0  0  0  0  0  0  0
    3.3161   17.0316   -3.9414 H   0  0  0  0  0  0  0  0  0  0  0  0
    4.5840   17.0890   -1.7940 H   0  0  0  0  0  0  0  0  0  0  0  0
    0.2947   14.9580   -3.9856 H   0  0  0  0  0  0  0  0  0  0  0  0
    0.6191   16.5373   -4.7776 H   0  0  0  0  0  0  0  0  0  0  0  0
    1.8790   15.2569   -4.7776 H   0  0  0  0  0  0  0  0  0  0  0  0
    0.8603   17.8543   -1.5767 H   0  0  0  0  0  0  0  0  0  0  0  0
    1.5773   18.4350   -3.1179 H   0  0  0  0  0  0  0  0  0  0  0  0
   -0.0404   17.6542   -3.1179 H   0  0  0  0  0  0  0  0  0  0  0  0
    2.1432   13.0499    1.5848 H   0  0  0  0  0  0  0  0  0  0  0  0
    3.6351   12.6908    0.6510 H   0  0  0  0  0  0  0  0  0  0  0  0
    2.9537   14.3528    0.6510 H   0  0  0  0  0  0  0  0  0  0  0  0
    3.1582   11.5889   -1.6797 H   0  0  0  0  0  0  0  0  0  0  0  0
    2.4660   10.9343   -0.0903 H   0  0  0  0  0  0  0  0  0  0  0  0
    1.0936   11.0645   -2.7899 H   0  0  0  0  0  0  0  0  0  0  0  0
    1.5968    9.6056   -1.8487 H   0  0  0  0  0  0  0  0  0  0  0  0
   -0.1227   10.6866    1.1451 H   0  0  0  0  0  0  0  0  0  0  0  0
   -0.5536    9.0927    0.4378 H   0  0  0  0  0  0  0  0  0  0  0  0
    1.1564    9.6425    0.4378 H   0  0  0  0  0  0  0  0  0  0  0  0
  1  2  1  0
  2  3  1  0
  3  4  1  0
  4  5  1  0
  5  6  1  0
  6  7  1  0
  7  8  1  0
  7  9  1  0
  2 10  1  0
 10 11  1  0
 11 12  1  0
 12 13  1  0
 13 14  1  6
 13 15  1  0
 15 16  1  0
 16 17  1  0
 17 18  2  0
 18 19  1  0
 19 20  1  0
 20 21  1  0
 21 22  1  0
 22 23  1  0
 22 24  1  0
 24 25  1  0
 24 26  1  0
 19 27  1  0
 27 28  1  1
 27 29  1  0
 29 30  1  0
 30 31  1  0
 31 32  1  1
  7  5  1  0
 31 10  1  0
 31 13  1  0
 27 15  1  0
 24 18  1  0
  1 33  1  0
  1 34  1  0
  1 35  1  0
  2 36  1  1
  3 37  1  0
  3 38  1  0
  4 39  1  0
  4 40  1  0
  5 41  1  6
  8 42  1  0
  8 43  1  0
  8 44  1  0
  9 45  1  0
  9 46  1  0
  9 47  1  0
 10 48  1  6
 11 49  1  0
 11 50  1  0
 12 51  1  0
 12 52  1  0
 14 53  1  0
 14 54  1  0
 14 55  1  0
 15 56  1  1
 16 57  1  0
 16 58  1  0
 17 59  1  0
 19 60  1  6
 20 61  1  0
 20 62  1  0
 21 63  1  0
 21 64  1  0
 22 65  1  6
 23 66  1  0
 25 67  1  0
 25 68  1  0
 25 69  1  0
 26 70  1  0
 26 71  1  0
 26 72  1  0
 28 73  1  0
 28 74  1  0
 28 75  1  0
 29 76  1  0
 29 77  1  0
 30 78  1  0
 30 79  1  0
 32 80  1  0
 32 81  1  0
 32 82  1  0
M  END
>  <meeko>  (18) 
{"is_sidechain": [false], "intermolecular_energy": 2.731, "internal_energy": -0.839}

$$$$
EPH_relaxed_0001_pdb2pqr_Repair_310_r2_0001_out
     RDKit          3D

 82 86  0  0  0  0  0  0  0  0999 V2000
   -2.8940    7.8030   -2.4440 C   0  0  0  0  0  0  0  0  0  0  0  0
   -2.7430    8.6850   -1.2010 C   0  0  2  0  0  0  0  0  0  0  0  0
   -4.1060    9.1450   -0.6470 C   0  0  0  0  0  0  0  0  0  0  0  0
   -5.1280    8.0130   -0.5070 C   0  0  0  0  0  0  0  0  0  0  0  0
   -5.8000    7.7090   -1.8120 C   0  0  2  0  0  0  0  0  0  0  0  0
   -6.8920    8.5790   -2.1390 O   0  0  0  0  0  0  0  0  0  0  0  0
   -7.2250    7.1990   -1.9190 C   0  0  0  0  0  0  0  0  0  0  0  0
   -8.0630    6.9620   -0.7020 C   0  0  0  0  0  0  0  0  0  0  0  0
   -7.6330    6.4720   -3.1620 C   0  0  0  0  0  0  0  0  0  0  0  0
   -1.8770    9.8960   -1.5250 C   0  0  1  0  0  0  0  0  0  0  0  0
   -2.4020   11.2000   -0.8680 C   0  0  0  0  0  0  0  0  0  0  0  0
   -1.1580   12.0440   -0.4900 C   0  0  0  0  0  0  0  0  0  0  0  0
    0.0150   11.3630   -1.2320 C   0  0  1  0  0  0  0  0  0  0  0  0
   -0.0650   11.9060   -2.6930 C   0  0  0  0  0  0  0  0  0  0  0  0
    1.4370   11.5710   -0.6170 C   0  0  2  0  0  0  0  0  0  0  0  0
    1.9260   13.0300   -0.5830 C   0  0  0  0  0  0  0  0  0  0  0  0
    2.6890   13.4750   -1.7860 C   0  0  0  0  0  0  0  0  0  0  0  0
    3.2170   12.6630   -2.7220 C   0  0  0  0  0  0  0  0  0  0  0  0
    3.1530   11.1380   -2.5680 C   0  0  1  0  0  0  0  0  0  0  0  0
    4.5440   10.5280   -2.8810 C   0  0  0  0  0  0  0  0  0  0  0  0
    5.0780   10.9550   -4.2450 C   0  0  0  0  0  0  0  0  0  0  0  0
    5.1820   12.4750   -4.3380 C   0  0  2  0  0  0  0  0  0  0  0  0
    6.1910   12.9240   -3.4280 O   0  0  0  0  0  0  0  0  0  0  0  0
    3.8420   13.2010   -4.0330 C   0  0  0  0  0  0  0  0  0  0  0  0
    2.8400   12.9510   -5.1870 C   0  0  0  0  0  0  0  0  0  0  0  0
    4.1180   14.7290   -4.0210 C   0  0  0  0  0  0  0  0  0  0  0  0
    2.5450   10.6040   -1.2010 C   0  0  1  0  0  0  0  0  0  0  0  0
    3.6670   10.5080   -0.1210 C   0  0  0  0  0  0  0  0  0  0  0  0
    2.0080    9.1390   -1.4140 C   0  0  0  0  0  0  0  0  0  0  0  0
    0.5570    8.9970   -1.9100 C   0  0  0  0  0  0  0  0  0  0  0  0
   -0.3960    9.8540   -1.0710 C   0  0  2  0  0  0  0  0  0  0  0  0
   -0.3530    9.3170    0.4010 C   0  0  0  0  0  0  0  0  0  0  0  0
   -3.0722    6.7622   -2.1357 H   0  0  0  0  0  0  0  0  0  0  0  0
   -3.7444    8.1582   -3.0445 H   0  0  0  0  0  0  0  0  0  0  0  0
   -1.9739    7.8551   -3.0445 H   0  0  0  0  0  0  0  0  0  0  0  0
   -2.2575    8.0788   -0.4220 H   0  0  0  0  0  0  0  0  0  0  0  0
   -3.9446    9.5917    0.3452 H   0  0  0  0  0  0  0  0  0  0  0  0
   -4.5201    9.8641   -1.3691 H   0  0  0  0  0  0  0  0  0  0  0  0
   -4.6120    7.1086   -0.1524 H   0  0  0  0  0  0  0  0  0  0  0  0
   -5.8988    8.3332    0.2095 H   0  0  0  0  0  0  0  0  0  0  0  0
   -4.8538    7.3514   -2.2442 H   0  0  0  0  0  0  0  0  0  0  0  0
   -7.4568    7.1335    0.1997 H   0  0  0  0  0  0  0  0  0  0  0  0
   -8.9185    7.6534   -0.7056 H   0  0  0  0  0  0  0  0  0  0  0  0
   -8.4297    5.9249   -0.7056 H   0  0  0  0  0  0  0  0  0  0  0  0
   -8.1545    5.5428   -2.8888 H   0  0  0  0  0  0  0  0  0  0  0  0
   -8.3054    7.1090   -3.7554 H   0  0  0  0  0  0  0  0  0  0  0  0
   -6.7390    6.2299   -3.7554 H   0  0  0  0  0  0  0  0  0  0  0  0
   -1.9349    9.8742   -2.6233 H   0  0  0  0  0  0  0  0  0  0  0  0
   -3.0338   11.7539   -1.5780 H   0  0  0  0  0  0  0  0  0  0  0  0
   -3.0117   10.9766    0.0199 H   0  0  0  0  0  0  0  0  0  0  0  0
   -1.2781   13.0846   -0.8257 H   0  0  0  0  0  0  0  0  0  0  0  0
   -0.9963   12.0851    0.5973 H   0  0  0  0  0  0  0  0  0  0  0  0
   -0.2253   12.9940   -2.6715 H   0  0  0  0  0  0  0  0  0  0  0  0
    0.8755   11.6842   -3.2186 H   0  0  0  0  0  0  0  0  0  0  0  0
   -0.9016   11.4224   -3.2186 H   0  0  0  0  0  0  0  0  0  0  0  0
    1.2834   11.2820    0.4332 H   0  0  0  0  0  0  0  0  0  0  0  0
    1.0456   13.6812   -0.4789 H   0  0  0  0  0  0  0  0  0  0  0  0
    2.6259   13.0966    0.2630 H   0  0  0  0  0  0  0  0  0  0  0  0
    2.8322   14.5574   -1.9195 H   0  0  0  0  0  0  0  0  0  0  0  0
    2.4172   10.7878   -3.3069 H   0  0  0  0  0  0  0  0  0  0  0  0
    5.2541   10.8541   -2.1068 H   0  0  0  0  0  0  0  0  0  0  0  0
    4.4328    9.4337   -2.8942 H   0  0  0  0  0  0  0  0  0  0  0  0
    6.0754   10.5160   -4.3948 H   0  0  0  0  0  0  0  0  0  0  0  0
    4.3824   10.6023   -5.0207 H   0  0  0  0  0  0  0  0  0  0  0  0
    5.4439   12.7250   -5.3767 H   0  0  0  0  0  0  0  0  0  0  0  0
    5.8230   12.8680   -2.5300 H   0  0  0  0  0  0  0  0  0  0  0  0
    1.8529   12.7047   -4.7686 H   0  0  0  0  0  0  0  0  0  0  0  0
    2.7602   13.8568   -5.8060 H   0  0  0  0  0  0  0  0  0  0  0  0
    3.1951   12.1139   -5.8060 H   0  0  0  0  0  0  0  0  0  0  0  0
    4.1817   15.0819   -2.9811 H   0  0  0  0  0  0  0  0  0  0  0  0
    5.0677   14.9341   -4.5367 H   0  0  0  0  0  0  0  0  0  0  0  0
    3.3000   15.2534   -4.5367 H   0  0  0  0  0  0  0  0  0  0  0  0
    3.2154   10.5466    0.8813 H   0  0  0  0  0  0  0  0  0  0  0  0
    4.2117    9.5600   -0.2414 H   0  0  0  0  0  0  0  0  0  0  0  0
    4.3649   11.3497   -0.2414 H   0  0  0  0  0  0  0  0  0  0  0  0
    2.6612    8.6489   -2.1510 H   0  0  0  0  0  0  0  0  0  0  0  0
    2.0167    8.6808   -0.4140 H   0  0  0  0  0  0  0  0  0  0  0  0
    0.5023    9.3209   -2.9598 H   0  0  0  0  0  0  0  0  0  0  0  0
    0.2558    7.9432   -1.8158 H   0  0  0  0  0  0  0  0  0  0  0  0
   -0.4207   10.1622    1.1018 H   0  0  0  0  0  0  0  0  0  0  0  0
   -1.1994    8.6343    0.5671 H   0  0  0  0  0  0  0  0  0  0  0  0
    0.5912    8.7777    0.5671 H   0  0  0  0  0  0  0  0  0  0  0  0
  1  2  1  0
  2  3  1  0
  3  4  1  0
  4  5  1  0
  5  6  1  0
  6  7  1  0
  7  8  1  0
  7  9  1  0
  2 10  1  0
 10 11  1  0
 11 12  1  0
 12 13  1  0
 13 14  1  6
 13 15  1  0
 15 16  1  0
 16 17  1  0
 17 18  2  0
 18 19  1  0
 19 20  1  0
 20 21  1  0
 21 22  1  0
 22 23  1  0
 22 24  1  0
 24 25  1  0
 24 26  1  0
 19 27  1  0
 27 28  1  1
 27 29  1  0
 29 30  1  0
 30 31  1  0
 31 32  1  1
  7  5  1  0
 31 10  1  0
 31 13  1  0
 27 15  1  0
 24 18  1  0
  1 33  1  0
  1 34  1  0
  1 35  1  0
  2 36  1  1
  3 37  1  0
  3 38  1  0
  4 39  1  0
  4 40  1  0
  5 41  1  6
  8 42  1  0
  8 43  1  0
  8 44  1  0
  9 45  1  0
  9 46  1  0
  9 47  1  0
 10 48  1  6
 11 49  1  0
 11 50  1  0
 12 51  1  0
 12 52  1  0
 14 53  1  0
 14 54  1  0
 14 55  1  0
 15 56  1  1
 16 57  1  0
 16 58  1  0
 17 59  1  0
 19 60  1  6
 20 61  1  0
 20 62  1  0
 21 63  1  0
 21 64  1  0
 22 65  1  6
 23 66  1  0
 25 67  1  0
 25 68  1  0
 25 69  1  0
 26 70  1  0
 26 71  1  0
 26 72  1  0
 28 73  1  0
 28 74  1  0
 28 75  1  0
 29 76  1  0
 29 77  1  0
 30 78  1  0
 30 79  1  0
 32 80  1  0
 32 81  1  0
 32 82  1  0
M  END
>  <meeko>  (19) 
{"is_sidechain": [false], "intermolecular_energy": 2.731, "internal_energy": -0.839}

$$$$
