EPH_relaxed_0001_pdb2pqr_Repair_81_r2_0001_out
     RDKit          3D

 82 86  0  0  0  0  0  0  0  0999 V2000
    4.1720   17.5080   -0.6720 C   0  0  0  0  0  0  0  0  0  0  0  0
    2.8160   18.0800   -0.2470 C   0  0  2  0  0  0  0  0  0  0  0  0
    2.8820   18.7670    1.1320 C   0  0  0  0  0  0  0  0  0  0  0  0
    4.2600   18.6840    1.7950 C   0  0  0  0  0  0  0  0  0  0  0  0
    4.2540   19.2990    3.1620 C   0  0  2  0  0  0  0  0  0  0  0  0
    5.3470   20.1900    3.4220 O   0  0  0  0  0  0  0  0  0  0  0  0
    5.2980   18.9960    4.2200 C   0  0  0  0  0  0  0  0  0  0  0  0
    6.4210   18.0420    3.9570 C   0  0  0  0  0  0  0  0  0  0  0  0
    4.9550   19.2440    5.6560 C   0  0  0  0  0  0  0  0  0  0  0  0
    1.7680   16.9730   -0.2280 C   0  0  1  0  0  0  0  0  0  0  0  0
    0.3430   17.4950   -0.5530 C   0  0  0  0  0  0  0  0  0  0  0  0
   -0.3730   16.3720   -1.3470 C   0  0  0  0  0  0  0  0  0  0  0  0
    0.5300   15.1290   -1.1670 C   0  0  1  0  0  0  0  0  0  0  0  0
    0.1480   14.5560    0.2330 C   0  0  0  0  0  0  0  0  0  0  0  0
    0.4350   14.0390   -2.2830 C   0  0  2  0  0  0  0  0  0  0  0  0
   -0.9450   13.3730   -2.4290 C   0  0  0  0  0  0  0  0  0  0  0  0
   -1.1510   12.1460   -1.6040 C   0  0  0  0  0  0  0  0  0  0  0  0
   -0.1800   11.4380   -0.9990 C   0  0  0  0  0  0  0  0  0  0  0  0
    1.2980   11.7990   -1.1960 C   0  0  1  0  0  0  0  0  0  0  0  0
    2.1110   10.5120   -1.4920 C   0  0  0  0  0  0  0  0  0  0  0  0
    1.9100    9.4350   -0.4300 C   0  0  0  0  0  0  0  0  0  0  0  0
    0.4350    9.0610   -0.3050 C   0  0  2  0  0  0  0  0  0  0  0  0
    0.0180    8.4210   -1.5140 O   0  0  0  0  0  0  0  0  0  0  0  0
   -0.4840   10.2810   -0.0150 C   0  0  0  0  0  0  0  0  0  0  0  0
   -0.2350   10.7900    1.4260 C   0  0  0  0  0  0  0  0  0  0  0  0
   -1.9560    9.7890   -0.0530 C   0  0  0  0  0  0  0  0  0  0  0  0
    1.5940   12.9620   -2.2380 C   0  0  1  0  0  0  0  0  0  0  0  0
    1.7090   12.3710   -3.6760 C   0  0  0  0  0  0  0  0  0  0  0  0
    2.9940   13.6040   -1.9080 C   0  0  0  0  0  0  0  0  0  0  0  0
    3.0060   14.7570   -0.8870 C   0  0  0  0  0  0  0  0  0  0  0  0
    1.9470   15.8080   -1.2330 C   0  0  2  0  0  0  0  0  0  0  0  0
    2.3170   16.4180   -2.6280 C   0  0  0  0  0  0  0  0  0  0  0  0
    4.7617   17.2593    0.2226 H   0  0  0  0  0  0  0  0  0  0  0  0
    4.0149   16.5995   -1.2719 H   0  0  0  0  0  0  0  0  0  0  0  0
    4.7131   18.2545   -1.2719 H   0  0  0  0  0  0  0  0  0  0  0  0
    2.5342   18.8462   -0.9842 H   0  0  0  0  0  0  0  0  0  0  0  0
    2.6212   19.8280    1.0044 H   0  0  0  0  0  0  0  0  0  0  0  0
    2.1763   18.2378    1.7892 H   0  0  0  0  0  0  0  0  0  0  0  0
    4.5515   17.6268    1.8807 H   0  0  0  0  0  0  0  0  0  0  0  0
    4.9753   19.2401    1.1713 H   0  0  0  0  0  0  0  0  0  0  0  0
    3.1543   19.2904    3.1871 H   0  0  0  0  0  0  0  0  0  0  0  0
    6.8350   17.6903    4.9135 H   0  0  0  0  0  0  0  0  0  0  0  0
    6.0452   17.1828    3.3821 H   0  0  0  0  0  0  0  0  0  0  0  0
    7.2081   18.5518    3.3821 H   0  0  0  0  0  0  0  0  0  0  0  0
    5.6771   18.7219    6.3009 H   0  0  0  0  0  0  0  0  0  0  0  0
    4.9942   20.3240    5.8611 H   0  0  0  0  0  0  0  0  0  0  0  0
    3.9417   18.8683    5.8611 H   0  0  0  0  0  0  0  0  0  0  0  0
    1.9040   16.6065    0.8002 H   0  0  0  0  0  0  0  0  0  0  0  0
   -0.2036   17.7091    0.3773 H   0  0  0  0  0  0  0  0  0  0  0  0
    0.3865   18.4262   -1.1369 H   0  0  0  0  0  0  0  0  0  0  0  0
   -1.3764   16.1856   -0.9366 H   0  0  0  0  0  0  0  0  0  0  0  0
   -0.5140   16.6350   -2.4058 H   0  0  0  0  0  0  0  0  0  0  0  0
    0.5744   15.1956    1.0198 H   0  0  0  0  0  0  0  0  0  0  0  0
   -0.9472   14.5324    0.3331 H   0  0  0  0  0  0  0  0  0  0  0  0
    0.5474   13.5360    0.3331 H   0  0  0  0  0  0  0  0  0  0  0  0
    0.5816   14.6279   -3.2005 H   0  0  0  0  0  0  0  0  0  0  0  0
   -1.7099   14.1090   -2.1405 H   0  0  0  0  0  0  0  0  0  0  0  0
   -1.0179   13.0503   -3.4781 H   0  0  0  0  0  0  0  0  0  0  0  0
   -2.1846   11.7905   -1.4802 H   0  0  0  0  0  0  0  0  0  0  0  0
    1.6327   12.2403   -0.2456 H   0  0  0  0  0  0  0  0  0  0  0  0
    1.7934   10.1106   -2.4657 H   0  0  0  0  0  0  0  0  0  0  0  0
    3.1769   10.7838   -1.4940 H   0  0  0  0  0  0  0  0  0  0  0  0
    2.4857    8.5407   -0.7107 H   0  0  0  0  0  0  0  0  0  0  0  0
    2.2562    9.8270    0.5377 H   0  0  0  0  0  0  0  0  0  0  0  0
    0.3380    8.3839    0.5565 H   0  0  0  0  0  0  0  0  0  0  0  0
    0.6980    7.7670   -1.7500 H   0  0  0  0  0  0  0  0  0  0  0  0
   -0.6002   10.0436    2.1468 H   0  0  0  0  0  0  0  0  0  0  0  0
    0.8428   10.9493    1.5775 H   0  0  0  0  0  0  0  0  0  0  0  0
   -0.7708   11.7387    1.5775 H   0  0  0  0  0  0  0  0  0  0  0  0
   -2.3277    9.6648    0.9748 H   0  0  0  0  0  0  0  0  0  0  0  0
   -2.5763   10.5286   -0.5804 H   0  0  0  0  0  0  0  0  0  0  0  0
   -2.0069    8.8250   -0.5804 H   0  0  0  0  0  0  0  0  0  0  0  0
    1.9188   11.2930   -3.6137 H   0  0  0  0  0  0  0  0  0  0  0  0
    0.7631   12.5300   -4.2145 H   0  0  0  0  0  0  0  0  0  0  0  0
    2.5263   12.8731   -4.2145 H   0  0  0  0  0  0  0  0  0  0  0  0
    3.6420   12.8060   -1.5164 H   0  0  0  0  0  0  0  0  0  0  0  0
    3.3347   14.0527   -2.8528 H   0  0  0  0  0  0  0  0  0  0  0  0
    2.7977   14.3527    0.1146 H   0  0  0  0  0  0  0  0  0  0  0  0
    3.9959   15.2360   -0.9111 H   0  0  0  0  0  0  0  0  0  0  0  0
    2.8824   17.3502   -2.4822 H   0  0  0  0  0  0  0  0  0  0  0  0
    2.9321   15.7002   -3.1906 H   0  0  0  0  0  0  0  0  0  0  0  0
    1.3962   16.6318   -3.1906 H   0  0  0  0  0  0  0  0  0  0  0  0
  1  2  1  0
  2  3  1  0
  3  4  1  0
  4  5  1  0
  5  6  1  0
  6  7  1  0
  7  8  1  0
  7  9  1  0
  2 10  1  0
 10 11  1  0
 11 12  1  0
 12 13  1  0
 13 14  1  1
 13 15  1  0
 15 16  1  0
 16 17  1  0
 17 18  2  0
 18 19  1  0
 19 20  1  0
 20 21  1  0
 21 22  1  0
 22 23  1  0
 22 24  1  0
 24 25  1  0
 24 26  1  0
 19 27  1  0
 27 28  1  6
 27 29  1  0
 29 30  1  0
 30 31  1  0
 31 32  1  6
  7  5  1  0
 31 10  1  0
 31 13  1  0
 27 15  1  0
 24 18  1  0
  1 33  1  0
  1 34  1  0
  1 35  1  0
  2 36  1  6
  3 37  1  0
  3 38  1  0
  4 39  1  0
  4 40  1  0
  5 41  1  1
  8 42  1  0
  8 43  1  0
  8 44  1  0
  9 45  1  0
  9 46  1  0
  9 47  1  0
 10 48  1  1
 11 49  1  0
 11 50  1  0
 12 51  1  0
 12 52  1  0
 14 53  1  0
 14 54  1  0
 14 55  1  0
 15 56  1  6
 16 57  1  0
 16 58  1  0
 17 59  1  0
 19 60  1  1
 20 61  1  0
 20 62  1  0
 21 63  1  0
 21 64  1  0
 22 65  1  1
 23 66  1  0
 25 67  1  0
 25 68  1  0
 25 69  1  0
 26 70  1  0
 26 71  1  0
 26 72  1  0
 28 73  1  0
 28 74  1  0
 28 75  1  0
 29 76  1  0
 29 77  1  0
 30 78  1  0
 30 79  1  0
 32 80  1  0
 32 81  1  0
 32 82  1  0
M  END
>  <meeko>  (1) 
{"is_sidechain": [false], "intermolecular_energy": 2.731, "internal_energy": -0.839}

$$$$
EPH_relaxed_0001_pdb2pqr_Repair_81_r2_0001_out
     RDKit          3D

 82 86  0  0  0  0  0  0  0  0999 V2000
    2.2980   18.0640   -2.7600 C   0  0  0  0  0  0  0  0  0  0  0  0
    1.0340   17.6670   -1.9920 C   0  0  2  0  0  0  0  0  0  0  0  0
    1.2410   17.7190   -0.4650 C   0  0  0  0  0  0  0  0  0  0  0  0
    0.8980   19.0750    0.1560 C   0  0  0  0  0  0  0  0  0  0  0  0
   -0.5570   19.1740    0.5020 C   0  0  2  0  0  0  0  0  0  0  0  0
   -1.4060   18.2680   -0.2150 O   0  0  0  0  0  0  0  0  0  0  0  0
   -1.6160   19.6670   -0.4680 C   0  0  0  0  0  0  0  0  0  0  0  0
   -1.2620   20.0940   -1.8580 C   0  0  0  0  0  0  0  0  0  0  0  0
   -2.9030   20.1930    0.0860 C   0  0  0  0  0  0  0  0  0  0  0  0
    0.5890   16.2700   -2.4100 C   0  0  1  0  0  0  0  0  0  0  0  0
    0.6700   16.0520   -3.9450 C   0  0  0  0  0  0  0  0  0  0  0  0
    1.0760   14.5720   -4.1650 C   0  0  0  0  0  0  0  0  0  0  0  0
    0.8930   13.9070   -2.7810 C   0  0  1  0  0  0  0  0  0  0  0  0
   -0.6350   13.6030   -2.6810 C   0  0  0  0  0  0  0  0  0  0  0  0
    1.7540   12.6310   -2.5090 C   0  0  2  0  0  0  0  0  0  0  0  0
    1.4690   11.4400   -3.4400 C   0  0  0  0  0  0  0  0  0  0  0  0
    0.4200   10.4920   -2.9610 C   0  0  0  0  0  0  0  0  0  0  0  0
   -0.0640   10.4300   -1.7060 C   0  0  0  0  0  0  0  0  0  0  0  0
    0.5200   11.3090   -0.5930 C   0  0  1  0  0  0  0  0  0  0  0  0
    0.7670   10.4460    0.6730 C   0  0  0  0  0  0  0  0  0  0  0  0
   -0.4830    9.6920    1.1190 C   0  0  0  0  0  0  0  0  0  0  0  0
   -0.9990    8.7850    0.0050 C   0  0  2  0  0  0  0  0  0  0  0  0
   -0.0440    7.7450   -0.2230 O   0  0  0  0  0  0  0  0  0  0  0  0
   -1.2740    9.5430   -1.3240 C   0  0  0  0  0  0  0  0  0  0  0  0
   -2.5130   10.4570   -1.1550 C   0  0  0  0  0  0  0  0  0  0  0  0
   -1.6540    8.4930   -2.4030 C   0  0  0  0  0  0  0  0  0  0  0  0
    1.7870   12.1820   -0.9910 C   0  0  1  0  0  0  0  0  0  0  0  0
    3.0900   11.3480   -0.8010 C   0  0  0  0  0  0  0  0  0  0  0  0
    1.8960   13.4070   -0.0080 C   0  0  0  0  0  0  0  0  0  0  0  0
    1.1180   14.6800   -0.3940 C   0  0  0  0  0  0  0  0  0  0  0  0
    1.3920   15.0700   -1.8490 C   0  0  2  0  0  0  0  0  0  0  0  0
    2.9180   15.4030   -1.9760 C   0  0  0  0  0  0  0  0  0  0  0  0
    3.0969   18.3149   -2.0466 H   0  0  0  0  0  0  0  0  0  0  0  0
    2.6217   17.2243   -3.3925 H   0  0  0  0  0  0  0  0  0  0  0  0
    2.0834   18.9380   -3.3925 H   0  0  0  0  0  0  0  0  0  0  0  0
    0.2512   18.3977   -2.2437 H   0  0  0  0  0  0  0  0  0  0  0  0
    0.6019   16.9530   -0.0015 H   0  0  0  0  0  0  0  0  0  0  0  0
    2.3105   17.5414   -0.2791 H   0  0  0  0  0  0  0  0  0  0  0  0
    1.4922   19.2081    1.0721 H   0  0  0  0  0  0  0  0  0  0  0  0
    1.1293   19.8581   -0.5810 H   0  0  0  0  0  0  0  0  0  0  0  0
   -0.3160   19.4562    1.5375 H   0  0  0  0  0  0  0  0  0  0  0  0
   -0.5605   20.9402   -1.8142 H   0  0  0  0  0  0  0  0  0  0  0  0
   -0.7912   19.2546   -2.3907 H   0  0  0  0  0  0  0  0  0  0  0  0
   -2.1741   20.4011   -2.3907 H   0  0  0  0  0  0  0  0  0  0  0  0
   -2.8629   20.1766    1.1851 H   0  0  0  0  0  0  0  0  0  0  0  0
   -3.0562   21.2259   -0.2600 H   0  0  0  0  0  0  0  0  0  0  0  0
   -3.7358   19.5631   -0.2600 H   0  0  0  0  0  0  0  0  0  0  0  0
   -0.4293   16.2686   -1.9939 H   0  0  0  0  0  0  0  0  0  0  0  0
   -0.3081   16.2494   -4.4079 H   0  0  0  0  0  0  0  0  0  0  0  0
    1.4008   16.7346   -4.4032 H   0  0  0  0  0  0  0  0  0  0  0  0
    0.4238   14.0976   -4.9130 H   0  0  0  0  0  0  0  0  0  0  0  0
    2.1046   14.4734   -4.5422 H   0  0  0  0  0  0  0  0  0  0  0  0
   -0.9287   13.5446   -1.6226 H   0  0  0  0  0  0  0  0  0  0  0  0
   -1.2017   14.4060   -3.1750 H   0  0  0  0  0  0  0  0  0  0  0  0
   -0.8512   12.6442   -3.1750 H   0  0  0  0  0  0  0  0  0  0  0  0
    2.7679   12.9733   -2.7635 H   0  0  0  0  0  0  0  0  0  0  0  0
    1.1475   11.8390   -4.4134 H   0  0  0  0  0  0  0  0  0  0  0  0
    2.4031   10.8610   -3.4875 H   0  0  0  0  0  0  0  0  0  0  0  0
    0.0076    9.7844   -3.6953 H   0  0  0  0  0  0  0  0  0  0  0  0
   -0.2404   12.0751   -0.3812 H   0  0  0  0  0  0  0  0  0  0  0  0
    1.5598    9.7159    0.4531 H   0  0  0  0  0  0  0  0  0  0  0  0
    1.0572   11.1244    1.4888 H   0  0  0  0  0  0  0  0  0  0  0  0
   -0.2387    9.0785    1.9987 H   0  0  0  0  0  0  0  0  0  0  0  0
   -1.2655   10.4245    1.3664 H   0  0  0  0  0  0  0  0  0  0  0  0
   -1.9634    8.3723    0.3361 H   0  0  0  0  0  0  0  0  0  0  0  0
    0.7720    7.9860    0.2470 H   0  0  0  0  0  0  0  0  0  0  0  0
   -2.7152   10.6062   -0.0841 H   0  0  0  0  0  0  0  0  0  0  0  0
   -2.3187   11.4297   -1.6304 H   0  0  0  0  0  0  0  0  0  0  0  0
   -3.3850    9.9842   -1.6304 H   0  0  0  0  0  0  0  0  0  0  0  0
   -1.9890    7.5674   -1.9120 H   0  0  0  0  0  0  0  0  0  0  0  0
   -2.4657    8.8895   -3.0307 H   0  0  0  0  0  0  0  0  0  0  0  0
   -0.7766    8.2782   -3.0307 H   0  0  0  0  0  0  0  0  0  0  0  0
    3.2900   11.2200    0.2731 H   0  0  0  0  0  0  0  0  0  0  0  0
    2.9656   10.3613   -1.2710 H   0  0  0  0  0  0  0  0  0  0  0  0
    3.9339   11.8742   -1.2710 H   0  0  0  0  0  0  0  0  0  0  0  0
    1.5288   13.0781    0.9753 H   0  0  0  0  0  0  0  0  0  0  0  0
    2.9560   13.7001   -0.0303 H   0  0  0  0  0  0  0  0  0  0  0  0
    0.0409   14.4956   -0.2676 H   0  0  0  0  0  0  0  0  0  0  0  0
    1.4469   15.5030    0.2575 H   0  0  0  0  0  0  0  0  0  0  0  0
    3.3572   15.4988   -0.9720 H   0  0  0  0  0  0  0  0  0  0  0  0
    3.4255   14.5945   -2.5226 H   0  0  0  0  0  0  0  0  0  0  0  0
    3.0425   16.3495   -2.5226 H   0  0  0  0  0  0  0  0  0  0  0  0
  1  2  1  0
  2  3  1  0
  3  4  1  0
  4  5  1  0
  5  6  1  0
  6  7  1  0
  7  8  1  0
  7  9  1  0
  2 10  1  0
 10 11  1  0
 11 12  1  0
 12 13  1  0
 13 14  1  1
 13 15  1  0
 15 16  1  0
 16 17  1  0
 17 18  2  0
 18 19  1  0
 19 20  1  0
 20 21  1  0
 21 22  1  0
 22 23  1  0
 22 24  1  0
 24 25  1  0
 24 26  1  0
 19 27  1  0
 27 28  1  6
 27 29  1  0
 29 30  1  0
 30 31  1  0
 31 32  1  1
  7  5  1  0
 31 10  1  0
 31 13  1  0
 27 15  1  0
 24 18  1  0
  1 33  1  0
  1 34  1  0
  1 35  1  0
  2 36  1  1
  3 37  1  0
  3 38  1  0
  4 39  1  0
  4 40  1  0
  5 41  1  1
  8 42  1  0
  8 43  1  0
  8 44  1  0
  9 45  1  0
  9 46  1  0
  9 47  1  0
 10 48  1  1
 11 49  1  0
 11 50  1  0
 12 51  1  0
 12 52  1  0
 14 53  1  0
 14 54  1  0
 14 55  1  0
 15 56  1  6
 16 57  1  0
 16 58  1  0
 17 59  1  0
 19 60  1  1
 20 61  1  0
 20 62  1  0
 21 63  1  0
 21 64  1  0
 22 65  1  1
 23 66  1  0
 25 67  1  0
 25 68  1  0
 25 69  1  0
 26 70  1  0
 26 71  1  0
 26 72  1  0
 28 73  1  0
 28 74  1  0
 28 75  1  0
 29 76  1  0
 29 77  1  0
 30 78  1  0
 30 79  1  0
 32 80  1  0
 32 81  1  0
 32 82  1  0
M  END
>  <meeko>  (2) 
{"is_sidechain": [false], "intermolecular_energy": 2.731, "internal_energy": -0.839}

$$$$
EPH_relaxed_0001_pdb2pqr_Repair_81_r2_0001_out
     RDKit          3D

 82 86  0  0  0  0  0  0  0  0999 V2000
    0.4210   18.4360   -0.0480 C   0  0  0  0  0  0  0  0  0  0  0  0
    1.5020   17.3690   -0.2460 C   0  0  2  0  0  0  0  0  0  0  0  0
    2.7280   17.9190   -1.0020 C   0  0  0  0  0  0  0  0  0  0  0  0
    3.9610   18.1170   -0.1150 C   0  0  0  0  0  0  0  0  0  0  0  0
    3.5860   18.5840    1.2590 C   0  0  2  0  0  0  0  0  0  0  0  0
    3.8130   19.9780    1.5000 O   0  0  0  0  0  0  0  0  0  0  0  0
    4.5960   19.0640    2.2840 C   0  0  0  0  0  0  0  0  0  0  0  0
    6.0600   19.1000    1.9790 C   0  0  0  0  0  0  0  0  0  0  0  0
    4.2160   19.0320    3.7320 C   0  0  0  0  0  0  0  0  0  0  0  0
    0.9230   16.1740   -0.9920 C   0  0  1  0  0  0  0  0  0  0  0  0
    0.7810   16.4320   -2.5160 C   0  0  0  0  0  0  0  0  0  0  0  0
    1.0650   15.0830   -3.2260 C   0  0  0  0  0  0  0  0  0  0  0  0
    1.0320   14.0310   -2.0930 C   0  0  1  0  0  0  0  0  0  0  0  0
   -0.4840   13.7360   -1.8650 C   0  0  0  0  0  0  0  0  0  0  0  0
    1.8440   12.7190   -2.3450 C   0  0  2  0  0  0  0  0  0  0  0  0
    1.3650   11.8730   -3.5370 C   0  0  0  0  0  0  0  0  0  0  0  0
    0.3350   10.8410   -3.2150 C   0  0  0  0  0  0  0  0  0  0  0  0
    0.0230   10.4080   -1.9790 C   0  0  0  0  0  0  0  0  0  0  0  0
    0.8040   10.8960   -0.7520 C   0  0  1  0  0  0  0  0  0  0  0  0
    1.1670    9.6850    0.1460 C   0  0  0  0  0  0  0  0  0  0  0  0
   -0.0530    8.8510    0.5250 C   0  0  0  0  0  0  0  0  0  0  0  0
   -0.7690    8.3350   -0.7210 C   0  0  2  0  0  0  0  0  0  0  0  0
    0.0830    7.3980   -1.3870 O   0  0  0  0  0  0  0  0  0  0  0  0
   -1.1760    9.4660   -1.7060 C   0  0  0  0  0  0  0  0  0  0  0  0
   -2.3230   10.3050   -1.0920 C   0  0  0  0  0  0  0  0  0  0  0  0
   -1.7600    8.8000   -2.9820 C   0  0  0  0  0  0  0  0  0  0  0  0
    2.0540   11.8290   -1.0530 C   0  0  1  0  0  0  0  0  0  0  0  0
    3.3190   10.9560   -1.3150 C   0  0  0  0  0  0  0  0  0  0  0  0
    2.3690   12.6940    0.2240 C   0  0  0  0  0  0  0  0  0  0  0  0
    1.6230   14.0360    0.3560 C   0  0  0  0  0  0  0  0  0  0  0  0
    1.7210   14.8470   -0.9400 C   0  0  2  0  0  0  0  0  0  0  0  0
    3.2330   15.1780   -1.1840 C   0  0  0  0  0  0  0  0  0  0  0  0
    0.2576   18.5972    1.0278 H   0  0  0  0  0  0  0  0  0  0  0  0
    0.7455   19.3777   -0.5148 H   0  0  0  0  0  0  0  0  0  0  0  0
   -0.5164   18.0993   -0.5148 H   0  0  0  0  0  0  0  0  0  0  0  0
    1.8427   17.0540    0.7513 H   0  0  0  0  0  0  0  0  0  0  0  0
    2.9871   17.2122   -1.8040 H   0  0  0  0  0  0  0  0  0  0  0  0
    2.4486   18.9098   -1.3895 H   0  0  0  0  0  0  0  0  0  0  0  0
    4.4980   17.1605   -0.0323 H   0  0  0  0  0  0  0  0  0  0  0  0
    4.5962   18.8869   -0.5775 H   0  0  0  0  0  0  0  0  0  0  0  0
    2.7735   17.8446    1.3140 H   0  0  0  0  0  0  0  0  0  0  0  0
    6.6302   19.1140    2.9195 H   0  0  0  0  0  0  0  0  0  0  0  0
    6.3352   18.2084    1.3966 H   0  0  0  0  0  0  0  0  0  0  0  0
    6.2911   20.0041    1.3966 H   0  0  0  0  0  0  0  0  0  0  0  0
    5.1223   19.1083    4.3507 H   0  0  0  0  0  0  0  0  0  0  0  0
    3.5479   19.8771    3.9545 H   0  0  0  0  0  0  0  0  0  0  0  0
    3.6986   18.0871    3.9545 H   0  0  0  0  0  0  0  0  0  0  0  0
   -0.0275   16.0625   -0.4498 H   0  0  0  0  0  0  0  0  0  0  0  0
   -0.2377   16.7756   -2.7488 H   0  0  0  0  0  0  0  0  0  0  0  0
    1.4817   17.2105   -2.8519 H   0  0  0  0  0  0  0  0  0  0  0  0
    0.2905   14.8690   -3.9772 H   0  0  0  0  0  0  0  0  0  0  0  0
    2.0253   15.0881   -3.7625 H   0  0  0  0  0  0  0  0  0  0  0  0
   -0.6914   13.6956   -0.7855 H   0  0  0  0  0  0  0  0  0  0  0  0
   -1.0859   14.5339   -2.3244 H   0  0  0  0  0  0  0  0  0  0  0  0
   -0.7428   12.7706   -2.3244 H   0  0  0  0  0  0  0  0  0  0  0  0
    2.8330   13.1058   -2.6319 H   0  0  0  0  0  0  0  0  0  0  0  0
    0.9396   12.5547   -4.2882 H   0  0  0  0  0  0  0  0  0  0  0  0
    2.2477   11.3209   -3.8919 H   0  0  0  0  0  0  0  0  0  0  0  0
   -0.2148   10.3974   -4.0582 H   0  0  0  0  0  0  0  0  0  0  0  0
    0.1272   11.5726   -0.2097 H   0  0  0  0  0  0  0  0  0  0  0  0
    1.8775    9.0441   -0.3966 H   0  0  0  0  0  0  0  0  0  0  0  0
    1.6046   10.0780    1.0756 H   0  0  0  0  0  0  0  0  0  0  0  0
    0.2714    7.9947    1.1345 H   0  0  0  0  0  0  0  0  0  0  0  0
   -0.7494    9.4852    1.0931 H   0  0  0  0  0  0  0  0  0  0  0  0
   -1.7031    7.8567   -0.3913 H   0  0  0  0  0  0  0  0  0  0  0  0
   -0.2220    6.5050   -1.1540 H   0  0  0  0  0  0  0  0  0  0  0  0
   -2.2627   10.2609    0.0055 H   0  0  0  0  0  0  0  0  0  0  0  0
   -2.2304   11.3501   -1.4226 H   0  0  0  0  0  0  0  0  0  0  0  0
   -3.2909    9.9002   -1.4226 H   0  0  0  0  0  0  0  0  0  0  0  0
   -2.4595    8.0022   -2.6918 H   0  0  0  0  0  0  0  0  0  0  0  0
   -2.2923    9.5552   -3.5789 H   0  0  0  0  0  0  0  0  0  0  0  0
   -0.9417    8.3709   -3.5789 H   0  0  0  0  0  0  0  0  0  0  0  0
    3.7599   10.6517   -0.3543 H   0  0  0  0  0  0  0  0  0  0  0  0
    3.0346   10.0610   -1.8878 H   0  0  0  0  0  0  0  0  0  0  0  0
    4.0549   11.5394   -1.8878 H   0  0  0  0  0  0  0  0  0  0  0  0
    2.1202   12.0868    1.1068 H   0  0  0  0  0  0  0  0  0  0  0  0
    3.4317   12.9633    0.1341 H   0  0  0  0  0  0  0  0  0  0  0  0
    0.5638   13.8387    0.5779 H   0  0  0  0  0  0  0  0  0  0  0  0
    2.0849   14.6159    1.1687 H   0  0  0  0  0  0  0  0  0  0  0  0
    3.7446   15.2900   -0.2167 H   0  0  0  0  0  0  0  0  0  0  0  0
    3.7000   14.3608   -1.7533 H   0  0  0  0  0  0  0  0  0  0  0  0
    3.3159   16.1156   -1.7533 H   0  0  0  0  0  0  0  0  0  0  0  0
  1  2  1  0
  2  3  1  0
  3  4  1  0
  4  5  1  0
  5  6  1  0
  6  7  1  0
  7  8  1  0
  7  9  1  0
  2 10  1  0
 10 11  1  0
 11 12  1  0
 12 13  1  0
 13 14  1  1
 13 15  1  0
 15 16  1  0
 16 17  1  0
 17 18  2  0
 18 19  1  0
 19 20  1  0
 20 21  1  0
 21 22  1  0
 22 23  1  0
 22 24  1  0
 24 25  1  0
 24 26  1  0
 19 27  1  0
 27 28  1  6
 27 29  1  0
 29 30  1  0
 30 31  1  0
 31 32  1  6
  7  5  1  0
 31 10  1  0
 31 13  1  0
 27 15  1  0
 24 18  1  0
  1 33  1  0
  1 34  1  0
  1 35  1  0
  2 36  1  1
  3 37  1  0
  3 38  1  0
  4 39  1  0
  4 40  1  0
  5 41  1  1
  8 42  1  0
  8 43  1  0
  8 44  1  0
  9 45  1  0
  9 46  1  0
  9 47  1  0
 10 48  1  1
 11 49  1  0
 11 50  1  0
 12 51  1  0
 12 52  1  0
 14 53  1  0
 14 54  1  0
 14 55  1  0
 15 56  1  6
 16 57  1  0
 16 58  1  0
 17 59  1  0
 19 60  1  1
 20 61  1  0
 20 62  1  0
 21 63  1  0
 21 64  1  0
 22 65  1  1
 23 66  1  0
 25 67  1  0
 25 68  1  0
 25 69  1  0
 26 70  1  0
 26 71  1  0
 26 72  1  0
 28 73  1  0
 28 74  1  0
 28 75  1  0
 29 76  1  0
 29 77  1  0
 30 78  1  0
 30 79  1  0
 32 80  1  0
 32 81  1  0
 32 82  1  0
M  END
>  <meeko>  (3) 
{"is_sidechain": [false], "intermolecular_energy": 2.731, "internal_energy": -0.839}

$$$$
EPH_relaxed_0001_pdb2pqr_Repair_81_r2_0001_out
     RDKit          3D

 82 86  0  0  0  0  0  0  0  0999 V2000
   -0.7390    8.2210   -0.6560 C   0  0  0  0  0  0  0  0  0  0  0  0
   -1.6510    9.3270   -0.1190 C   0  0  2  0  0  0  0  0  0  0  0  0
   -2.8030    9.6530   -1.0910 C   0  0  0  0  0  0  0  0  0  0  0  0
   -3.9740    8.6700   -1.0080 C   0  0  0  0  0  0  0  0  0  0  0  0
   -3.6550    7.3690   -1.6810 C   0  0  2  0  0  0  0  0  0  0  0  0
   -3.2480    7.4870   -3.0500 O   0  0  0  0  0  0  0  0  0  0  0  0
   -4.4810    6.7880   -2.8130 C   0  0  0  0  0  0  0  0  0  0  0  0
   -5.6910    7.4950   -3.3390 C   0  0  0  0  0  0  0  0  0  0  0  0
   -4.4000    5.3170   -3.0760 C   0  0  0  0  0  0  0  0  0  0  0  0
   -0.8340   10.5840    0.1600 C   0  0  1  0  0  0  0  0  0  0  0  0
    0.2800   10.3500    1.2150 C   0  0  0  0  0  0  0  0  0  0  0  0
    1.4830   11.2350    0.7980 C   0  0  0  0  0  0  0  0  0  0  0  0
    0.9110   12.1890   -0.2770 C   0  0  1  0  0  0  0  0  0  0  0  0
    0.1970   13.3190    0.5290 C   0  0  0  0  0  0  0  0  0  0  0  0
    1.9390   12.7720   -1.3000 C   0  0  2  0  0  0  0  0  0  0  0  0
    3.0410   13.6550   -0.6880 C   0  0  0  0  0  0  0  0  0  0  0  0
    2.7210   15.1100   -0.6080 C   0  0  0  0  0  0  0  0  0  0  0  0
    1.7220   15.7290   -1.2650 C   0  0  0  0  0  0  0  0  0  0  0  0
    0.8480   14.9650   -2.2690 C   0  0  1  0  0  0  0  0  0  0  0  0
    0.6950   15.8040   -3.5650 C   0  0  0  0  0  0  0  0  0  0  0  0
    0.1760   17.2120   -3.2920 C   0  0  0  0  0  0  0  0  0  0  0  0
    1.1020   17.9600   -2.3360 C   0  0  2  0  0  0  0  0  0  0  0  0
    2.3550   18.1850   -2.9900 O   0  0  0  0  0  0  0  0  0  0  0  0
    1.3390   17.2050   -0.9980 C   0  0  0  0  0  0  0  0  0  0  0  0
    0.0410   17.2260   -0.1520 C   0  0  0  0  0  0  0  0  0  0  0  0
    2.3990   17.9960   -0.1850 C   0  0  0  0  0  0  0  0  0  0  0  0
    1.2780   13.4640   -2.5610 C   0  0  1  0  0  0  0  0  0  0  0  0
    2.3440   13.4270   -3.6990 C   0  0  0  0  0  0  0  0  0  0  0  0
    0.0300   12.6660   -3.0950 C   0  0  0  0  0  0  0  0  0  0  0  0
   -0.8810   12.0130   -2.0390 C   0  0  0  0  0  0  0  0  0  0  0  0
   -0.0590   11.2070   -1.0280 C   0  0  2  0  0  0  0  0  0  0  0  0
    0.6540   10.0490   -1.8060 C   0  0  0  0  0  0  0  0  0  0  0  0
   -0.2891    7.6754    0.1866 H   0  0  0  0  0  0  0  0  0  0  0  0
   -1.3292    7.5250   -1.2702 H   0  0  0  0  0  0  0  0  0  0  0  0
    0.0567    8.6678   -1.2702 H   0  0  0  0  0  0  0  0  0  0  0  0
   -2.1011    8.9604    0.8153 H   0  0  0  0  0  0  0  0  0  0  0  0
   -3.1783   10.6608   -0.8595 H   0  0  0  0  0  0  0  0  0  0  0  0
   -2.3944    9.5816   -2.1098 H   0  0  0  0  0  0  0  0  0  0  0  0
   -4.2030    8.4770    0.0504 H   0  0  0  0  0  0  0  0  0  0  0  0
   -4.8361    9.1197   -1.5224 H   0  0  0  0  0  0  0  0  0  0  0  0
   -3.2970    6.9399   -0.7335 H   0  0  0  0  0  0  0  0  0  0  0  0
   -6.3021    7.8520   -2.4969 H   0  0  0  0  0  0  0  0  0  0  0  0
   -5.3770    8.3517   -3.9533 H   0  0  0  0  0  0  0  0  0  0  0  0
   -6.2832    6.8008   -3.9533 H   0  0  0  0  0  0  0  0  0  0  0  0
   -4.3701    4.7746   -2.1195 H   0  0  0  0  0  0  0  0  0  0  0  0
   -5.2820    4.9982   -3.6509 H   0  0  0  0  0  0  0  0  0  0  0  0
   -3.4884    5.0970   -3.6509 H   0  0  0  0  0  0  0  0  0  0  0  0
   -1.6402   11.2610    0.4791 H   0  0  0  0  0  0  0  0  0  0  0  0
   -0.0767   10.6417    2.2138 H   0  0  0  0  0  0  0  0  0  0  0  0
    0.5664    9.2888    1.2587 H   0  0  0  0  0  0  0  0  0  0  0  0
    1.8637   11.8038    1.6591 H   0  0  0  0  0  0  0  0  0  0  0  0
    2.3279   10.6400    0.4209 H   0  0  0  0  0  0  0  0  0  0  0  0
    0.3153   13.1317    1.6065 H   0  0  0  0  0  0  0  0  0  0  0  0
    0.6455   14.2906    0.2743 H   0  0  0  0  0  0  0  0  0  0  0  0
   -0.8730   13.3311    0.2743 H   0  0  0  0  0  0  0  0  0  0  0  0
    2.4486   11.8671   -1.6625 H   0  0  0  0  0  0  0  0  0  0  0  0
    3.2385   13.2939    0.3321 H   0  0  0  0  0  0  0  0  0  0  0  0
    3.9072   13.5706   -1.3608 H   0  0  0  0  0  0  0  0  0  0  0  0
    3.3551   15.7297    0.0431 H   0  0  0  0  0  0  0  0  0  0  0  0
   -0.1326   14.8412   -1.7863 H   0  0  0  0  0  0  0  0  0  0  0  0
    1.6772   15.8789   -4.0546 H   0  0  0  0  0  0  0  0  0  0  0  0
   -0.0396   15.2959   -4.2071 H   0  0  0  0  0  0  0  0  0  0  0  0
    0.1170   17.7642   -4.2415 H   0  0  0  0  0  0  0  0  0  0  0  0
   -0.8187   17.1354   -2.8287 H   0  0  0  0  0  0  0  0  0  0  0  0
    0.6125   18.9106   -2.0777 H   0  0  0  0  0  0  0  0  0  0  0  0
    2.6270   17.3470   -3.4020 H   0  0  0  0  0  0  0  0  0  0  0  0
    0.3000   17.2218    0.9171 H   0  0  0  0  0  0  0  0  0  0  0  0
   -0.5347   18.1336   -0.3862 H   0  0  0  0  0  0  0  0  0  0  0  0
   -0.5638   16.3375   -0.3862 H   0  0  0  0  0  0  0  0  0  0  0  0
    2.2141   17.8580    0.8905 H   0  0  0  0  0  0  0  0  0  0  0  0
    3.4041   17.6254   -0.4347 H   0  0  0  0  0  0  0  0  0  0  0  0
    2.3298   19.0650   -0.4347 H   0  0  0  0  0  0  0  0  0  0  0  0
    3.3508   13.3921   -3.2573 H   0  0  0  0  0  0  0  0  0  0  0  0
    2.1853   12.5338   -4.3211 H   0  0  0  0  0  0  0  0  0  0  0  0
    2.2476   14.3290   -4.3211 H   0  0  0  0  0  0  0  0  0  0  0  0
   -0.5863   13.3647   -3.6798 H   0  0  0  0  0  0  0  0  0  0  0  0
    0.4494   11.8279   -3.6708 H   0  0  0  0  0  0  0  0  0  0  0  0
   -1.4355   12.7996   -1.5063 H   0  0  0  0  0  0  0  0  0  0  0  0
   -1.5760   11.3302   -2.5496 H   0  0  0  0  0  0  0  0  0  0  0  0
    1.0909    9.3395   -1.0879 H   0  0  0  0  0  0  0  0  0  0  0  0
   -0.0789    9.5264   -2.4382 H   0  0  0  0  0  0  0  0  0  0  0  0
    1.4507   10.4682   -2.4382 H   0  0  0  0  0  0  0  0  0  0  0  0
  1  2  1  0
  2  3  1  0
  3  4  1  0
  4  5  1  0
  5  6  1  0
  6  7  1  0
  7  8  1  0
  7  9  1  0
  2 10  1  0
 10 11  1  0
 11 12  1  0
 12 13  1  0
 13 14  1  1
 13 15  1  0
 15 16  1  0
 16 17  1  0
 17 18  2  0
 18 19  1  0
 19 20  1  0
 20 21  1  0
 21 22  1  0
 22 23  1  0
 22 24  1  0
 24 25  1  0
 24 26  1  0
 19 27  1  0
 27 28  1  6
 27 29  1  0
 29 30  1  0
 30 31  1  0
 31 32  1  6
  7  5  1  0
 31 10  1  0
 31 13  1  0
 27 15  1  0
 24 18  1  0
  1 33  1  0
  1 34  1  0
  1 35  1  0
  2 36  1  1
  3 37  1  0
  3 38  1  0
  4 39  1  0
  4 40  1  0
  5 41  1  1
  8 42  1  0
  8 43  1  0
  8 44  1  0
  9 45  1  0
  9 46  1  0
  9 47  1  0
 10 48  1  1
 11 49  1  0
 11 50  1  0
 12 51  1  0
 12 52  1  0
 14 53  1  0
 14 54  1  0
 14 55  1  0
 15 56  1  6
 16 57  1  0
 16 58  1  0
 17 59  1  0
 19 60  1  1
 20 61  1  0
 20 62  1  0
 21 63  1  0
 21 64  1  0
 22 65  1  1
 23 66  1  0
 25 67  1  0
 25 68  1  0
 25 69  1  0
 26 70  1  0
 26 71  1  0
 26 72  1  0
 28 73  1  0
 28 74  1  0
 28 75  1  0
 29 76  1  0
 29 77  1  0
 30 78  1  0
 30 79  1  0
 32 80  1  0
 32 81  1  0
 32 82  1  0
M  END
>  <meeko>  (4) 
{"is_sidechain": [false], "intermolecular_energy": 2.731, "internal_energy": -0.839}

$$$$
EPH_relaxed_0001_pdb2pqr_Repair_81_r2_0001_out
     RDKit          3D

 82 86  0  0  0  0  0  0  0  0999 V2000
    3.8200   17.6420    0.6230 C   0  0  0  0  0  0  0  0  0  0  0  0
    2.8210   18.0160   -0.4750 C   0  0  2  0  0  0  0  0  0  0  0  0
    2.1620   19.3860   -0.2180 C   0  0  0  0  0  0  0  0  0  0  0  0
    1.1210   19.3680    0.9040 C   0  0  0  0  0  0  0  0  0  0  0  0
   -0.1550   20.0350    0.4880 C   0  0  2  0  0  0  0  0  0  0  0  0
   -1.1190   20.1900    1.5380 O   0  0  0  0  0  0  0  0  0  0  0  0
   -1.4960   19.3270    0.4530 C   0  0  0  0  0  0  0  0  0  0  0  0
   -1.6290   17.8870    0.8390 C   0  0  0  0  0  0  0  0  0  0  0  0
   -2.5790   19.8880   -0.4160 C   0  0  0  0  0  0  0  0  0  0  0  0
    1.7510   16.9370   -0.5940 C   0  0  1  0  0  0  0  0  0  0  0  0
    0.4680   17.4440   -1.3070 C   0  0  0  0  0  0  0  0  0  0  0  0
   -0.0870   16.2520   -2.1280 C   0  0  0  0  0  0  0  0  0  0  0  0
    0.6910   15.0220   -1.6050 C   0  0  1  0  0  0  0  0  0  0  0  0
   -0.0380   14.6160   -0.2860 C   0  0  0  0  0  0  0  0  0  0  0  0
    0.8160   13.8140   -2.5890 C   0  0  2  0  0  0  0  0  0  0  0  0
   -0.5170   13.1600   -2.9940 C   0  0  0  0  0  0  0  0  0  0  0  0
   -0.9680   12.0380   -2.1190 C   0  0  0  0  0  0  0  0  0  0  0  0
   -0.2010   11.3860   -1.2260 C   0  0  0  0  0  0  0  0  0  0  0  0
    1.2950   11.6970   -1.0960 C   0  0  1  0  0  0  0  0  0  0  0  0
    2.0980   10.3700   -1.0500 C   0  0  0  0  0  0  0  0  0  0  0  0
    1.6020    9.4240    0.0390 C   0  0  0  0  0  0  0  0  0  0  0  0
    0.1250    9.0920   -0.1570 C   0  0  2  0  0  0  0  0  0  0  0  0
   -0.0200    8.3260   -1.3570 O   0  0  0  0  0  0  0  0  0  0  0  0
   -0.7820   10.3520   -0.2290 C   0  0  0  0  0  0  0  0  0  0  0  0
   -0.8610   11.0160    1.1680 C   0  0  0  0  0  0  0  0  0  0  0  0
   -2.2230    9.8850   -0.5690 C   0  0  0  0  0  0  0  0  0  0  0  0
    1.8830   12.7290   -2.1520 C   0  0  1  0  0  0  0  0  0  0  0  0
    2.3110   11.9770   -3.4500 C   0  0  0  0  0  0  0  0  0  0  0  0
    3.1900   13.3790   -1.5630 C   0  0  0  0  0  0  0  0  0  0  0  0
    3.0100   14.6390   -0.6960 C   0  0  0  0  0  0  0  0  0  0  0  0
    2.1110   15.6630   -1.3970 C   0  0  2  0  0  0  0  0  0  0  0  0
    2.8300   16.1060   -2.7170 C   0  0  0  0  0  0  0  0  0  0  0  0
    3.3626   17.8132    1.6086 H   0  0  0  0  0  0  0  0  0  0  0  0
    4.0927   16.5809    0.5247 H   0  0  0  0  0  0  0  0  0  0  0  0
    4.7225   18.2631    0.5247 H   0  0  0  0  0  0  0  0  0  0  0  0
    3.3799   18.0906   -1.4195 H   0  0  0  0  0  0  0  0  0  0  0  0
    2.9497   20.1052    0.0508 H   0  0  0  0  0  0  0  0  0  0  0  0
    1.6342   19.6668   -1.1414 H   0  0  0  0  0  0  0  0  0  0  0  0
    0.9057   18.3235    1.1736 H   0  0  0  0  0  0  0  0  0  0  0  0
    1.5323   19.9202    1.7619 H   0  0  0  0  0  0  0  0  0  0  0  0
    0.3780   20.6426   -0.2581 H   0  0  0  0  0  0  0  0  0  0  0  0
   -1.6370   17.8006    1.9356 H   0  0  0  0  0  0  0  0  0  0  0  0
   -2.5682   17.4837    0.4326 H   0  0  0  0  0  0  0  0  0  0  0  0
   -0.7795   17.3185    0.4326 H   0  0  0  0  0  0  0  0  0  0  0  0
   -3.3785   20.3022    0.2159 H   0  0  0  0  0  0  0  0  0  0  0  0
   -2.1639   20.6845   -1.0511 H   0  0  0  0  0  0  0  0  0  0  0  0
   -2.9901   19.0895   -1.0511 H   0  0  0  0  0  0  0  0  0  0  0  0
    1.6230   16.6869    0.4695 H   0  0  0  0  0  0  0  0  0  0  0  0
   -0.2744   17.7708   -0.5640 H   0  0  0  0  0  0  0  0  0  0  0  0
    0.6904   18.3026   -1.9576 H   0  0  0  0  0  0  0  0  0  0  0  0
   -1.1666   16.1308   -1.9553 H   0  0  0  0  0  0  0  0  0  0  0  0
    0.0402   16.3963   -3.2110 H   0  0  0  0  0  0  0  0  0  0  0  0
    0.5564   14.9471    0.5783 H   0  0  0  0  0  0  0  0  0  0  0  0
   -1.0291   15.0921   -0.2534 H   0  0  0  0  0  0  0  0  0  0  0  0
   -0.1551   13.5227   -0.2534 H   0  0  0  0  0  0  0  0  0  0  0  0
    1.2023   14.2929   -3.5008 H   0  0  0  0  0  0  0  0  0  0  0  0
   -1.2954   13.9371   -2.9787 H   0  0  0  0  0  0  0  0  0  0  0  0
   -0.3513   12.7222   -3.9894 H   0  0  0  0  0  0  0  0  0  0  0  0
   -2.0160   11.7169   -2.2120 H   0  0  0  0  0  0  0  0  0  0  0  0
    1.4114   12.2372   -0.1449 H   0  0  0  0  0  0  0  0  0  0  0  0
    2.0041    9.8670   -2.0237 H   0  0  0  0  0  0  0  0  0  0  0  0
    3.1448   10.6207   -0.8233 H   0  0  0  0  0  0  0  0  0  0  0  0
    2.1879    8.4938    0.0019 H   0  0  0  0  0  0  0  0  0  0  0  0
    1.7242    9.9173    1.0146 H   0  0  0  0  0  0  0  0  0  0  0  0
   -0.2036    8.5189    0.7225 H   0  0  0  0  0  0  0  0  0  0  0  0
    0.7510    7.7390   -1.4260 H   0  0  0  0  0  0  0  0  0  0  0  0
   -0.7692   10.2443    1.9465 H   0  0  0  0  0  0  0  0  0  0  0  0
   -0.0431   11.7438    1.2749 H   0  0  0  0  0  0  0  0  0  0  0  0
   -1.8268   11.5315    1.2749 H   0  0  0  0  0  0  0  0  0  0  0  0
   -2.7794    9.7047    0.3626 H   0  0  0  0  0  0  0  0  0  0  0  0
   -2.7322   10.6641   -1.1553 H   0  0  0  0  0  0  0  0  0  0  0  0
   -2.1784    8.9553   -1.1553 H   0  0  0  0  0  0  0  0  0  0  0  0
    2.8384   11.0503   -3.1798 H   0  0  0  0  0  0  0  0  0  0  0  0
    1.4176   11.7310   -4.0427 H   0  0  0  0  0  0  0  0  0  0  0  0
    2.9788   12.6195   -4.0427 H   0  0  0  0  0  0  0  0  0  0  0  0
    3.6902   12.6187   -0.9451 H   0  0  0  0  0  0  0  0  0  0  0  0
    3.7650   13.7128   -2.4393 H   0  0  0  0  0  0  0  0  0  0  0  0
    2.5514   14.3539    0.2624 H   0  0  0  0  0  0  0  0  0  0  0  0
    3.9974   15.0945   -0.5299 H   0  0  0  0  0  0  0  0  0  0  0  0
    3.7420   16.6679   -2.4669 H   0  0  0  0  0  0  0  0  0  0  0  0
    3.0975   15.2159   -3.3053 H   0  0  0  0  0  0  0  0  0  0  0  0
    2.1552   16.7452   -3.3053 H   0  0  0  0  0  0  0  0  0  0  0  0
  1  2  1  0
  2  3  1  0
  3  4  1  0
  4  5  1  0
  5  6  1  0
  6  7  1  0
  7  8  1  0
  7  9  1  0
  2 10  1  0
 10 11  1  0
 11 12  1  0
 12 13  1  0
 13 14  1  1
 13 15  1  0
 15 16  1  0
 16 17  1  0
 17 18  2  0
 18 19  1  0
 19 20  1  0
 20 21  1  0
 21 22  1  0
 22 23  1  0
 22 24  1  0
 24 25  1  0
 24 26  1  0
 19 27  1  0
 27 28  1  6
 27 29  1  0
 29 30  1  0
 30 31  1  0
 31 32  1  6
  7  5  1  0
 31 10  1  0
 31 13  1  0
 27 15  1  0
 24 18  1  0
  1 33  1  0
  1 34  1  0
  1 35  1  0
  2 36  1  6
  3 37  1  0
  3 38  1  0
  4 39  1  0
  4 40  1  0
  5 41  1  6
  8 42  1  0
  8 43  1  0
  8 44  1  0
  9 45  1  0
  9 46  1  0
  9 47  1  0
 10 48  1  1
 11 49  1  0
 11 50  1  0
 12 51  1  0
 12 52  1  0
 14 53  1  0
 14 54  1  0
 14 55  1  0
 15 56  1  6
 16 57  1  0
 16 58  1  0
 17 59  1  0
 19 60  1  1
 20 61  1  0
 20 62  1  0
 21 63  1  0
 21 64  1  0
 22 65  1  1
 23 66  1  0
 25 67  1  0
 25 68  1  0
 25 69  1  0
 26 70  1  0
 26 71  1  0
 26 72  1  0
 28 73  1  0
 28 74  1  0
 28 75  1  0
 29 76  1  0
 29 77  1  0
 30 78  1  0
 30 79  1  0
 32 80  1  0
 32 81  1  0
 32 82  1  0
M  END
>  <meeko>  (5) 
{"is_sidechain": [false], "intermolecular_energy": 2.731, "internal_energy": -0.839}

$$$$
EPH_relaxed_0001_pdb2pqr_Repair_81_r2_0001_out
     RDKit          3D

 82 86  0  0  0  0  0  0  0  0999 V2000
    0.0810   10.4760   -3.7840 C   0  0  0  0  0  0  0  0  0  0  0  0
    1.1240   10.2680   -2.6830 C   0  0  2  0  0  0  0  0  0  0  0  0
    0.8490    8.9950   -1.8560 C   0  0  0  0  0  0  0  0  0  0  0  0
    0.2070    9.2730   -0.4950 C   0  0  0  0  0  0  0  0  0  0  0  0
   -1.2130    8.7950   -0.4440 C   0  0  2  0  0  0  0  0  0  0  0  0
   -1.9130    8.8630   -1.6930 O   0  0  0  0  0  0  0  0  0  0  0  0
   -2.4100    9.7070   -0.6420 C   0  0  0  0  0  0  0  0  0  0  0  0
   -2.2410   11.1700   -0.9050 C   0  0  0  0  0  0  0  0  0  0  0  0
   -3.7360    9.2740   -0.0980 C   0  0  0  0  0  0  0  0  0  0  0  0
    1.1640   11.4850   -1.7670 C   0  0  1  0  0  0  0  0  0  0  0  0
    2.2230   11.3510   -0.6400 C   0  0  0  0  0  0  0  0  0  0  0  0
    2.7950   12.7700   -0.3930 C   0  0  0  0  0  0  0  0  0  0  0  0
    1.8260   13.7170   -1.1380 C   0  0  1  0  0  0  0  0  0  0  0  0
    0.6170   13.8990   -0.1680 C   0  0  0  0  0  0  0  0  0  0  0  0
    2.4150   15.0930   -1.5900 C   0  0  2  0  0  0  0  0  0  0  0  0
    2.8890   16.0070   -0.4470 C   0  0  0  0  0  0  0  0  0  0  0  0
    1.8570   16.9430    0.0900 C   0  0  0  0  0  0  0  0  0  0  0  0
    0.6910   17.2490   -0.5090 C   0  0  0  0  0  0  0  0  0  0  0  0
    0.3560   16.7060   -1.9040 C   0  0  1  0  0  0  0  0  0  0  0  0
   -0.1930   17.8550   -2.7890 C   0  0  0  0  0  0  0  0  0  0  0  0
   -1.3730   18.5780   -2.1450 C   0  0  0  0  0  0  0  0  0  0  0  0
   -0.9840   19.1540   -0.7860 C   0  0  2  0  0  0  0  0  0  0  0  0
   -0.0220   20.1940   -0.9860 O   0  0  0  0  0  0  0  0  0  0  0  0
   -0.4080   18.0890    0.1890 C   0  0  0  0  0  0  0  0  0  0  0  0
   -1.5380   17.1320    0.6410 C   0  0  0  0  0  0  0  0  0  0  0  0
    0.0760   18.8250    1.4670 C   0  0  0  0  0  0  0  0  0  0  0  0
    1.5080   15.8800   -2.6210 C   0  0  1  0  0  0  0  0  0  0  0  0
    2.4530   16.8480   -3.3970 C   0  0  0  0  0  0  0  0  0  0  0  0
    0.8650   14.9290   -3.6990 C   0  0  0  0  0  0  0  0  0  0  0  0
    0.4110   13.5380   -3.2160 C   0  0  0  0  0  0  0  0  0  0  0  0
    1.5190   12.8490   -2.4120 C   0  0  2  0  0  0  0  0  0  0  0  0
    2.7400   12.6330   -3.3690 C   0  0  0  0  0  0  0  0  0  0  0  0
   -0.9003   10.6717   -3.3272 H   0  0  0  0  0  0  0  0  0  0  0  0
    0.3726   11.3337   -4.4080 H   0  0  0  0  0  0  0  0  0  0  0  0
    0.0213    9.5721   -4.4080 H   0  0  0  0  0  0  0  0  0  0  0  0
    2.1006   10.1398   -3.1728 H   0  0  0  0  0  0  0  0  0  0  0  0
    0.1738    8.3454   -2.4324 H   0  0  0  0  0  0  0  0  0  0  0  0
    1.8225    8.5211   -1.6617 H   0  0  0  0  0  0  0  0  0  0  0  0
    0.7856    8.7556    0.2845 H   0  0  0  0  0  0  0  0  0  0  0  0
    0.2089   10.3606   -0.3306 H   0  0  0  0  0  0  0  0  0  0  0  0
   -0.9637    8.0638    0.3391 H   0  0  0  0  0  0  0  0  0  0  0  0
   -2.1787   11.7097    0.0515 H   0  0  0  0  0  0  0  0  0  0  0  0
   -1.3178   11.3350   -1.4799 H   0  0  0  0  0  0  0  0  0  0  0  0
   -3.1023   11.5411   -1.4799 H   0  0  0  0  0  0  0  0  0  0  0  0
   -3.7025    9.2849    1.0014 H   0  0  0  0  0  0  0  0  0  0  0  0
   -4.5186    9.9633   -0.4479 H   0  0  0  0  0  0  0  0  0  0  0  0
   -3.9610    8.2557   -0.4479 H   0  0  0  0  0  0  0  0  0  0  0  0
    0.1191   11.4909   -1.4231 H   0  0  0  0  0  0  0  0  0  0  0  0
    1.7532   10.9669    0.2775 H   0  0  0  0  0  0  0  0  0  0  0  0
    3.0193   10.6487   -0.9277 H   0  0  0  0  0  0  0  0  0  0  0  0
    2.8122   12.9998    0.6826 H   0  0  0  0  0  0  0  0  0  0  0  0
    3.8311   12.8696   -0.7488 H   0  0  0  0  0  0  0  0  0  0  0  0
    0.9704   13.8458    0.8723 H   0  0  0  0  0  0  0  0  0  0  0  0
    0.1480   14.8779   -0.3463 H   0  0  0  0  0  0  0  0  0  0  0  0
   -0.1194   13.1016   -0.3463 H   0  0  0  0  0  0  0  0  0  0  0  0
    3.3252   14.7932   -2.1300 H   0  0  0  0  0  0  0  0  0  0  0  0
    3.2313   15.3676    0.3800 H   0  0  0  0  0  0  0  0  0  0  0  0
    3.6824   16.6395   -0.8718 H   0  0  0  0  0  0  0  0  0  0  0  0
    2.0674   17.4232    1.0570 H   0  0  0  0  0  0  0  0  0  0  0  0
   -0.4243   15.9451   -1.7549 H   0  0  0  0  0  0  0  0  0  0  0  0
    0.6137   18.5823   -2.9629 H   0  0  0  0  0  0  0  0  0  0  0  0
   -0.5477   17.4105   -3.7306 H   0  0  0  0  0  0  0  0  0  0  0  0
   -1.6964   19.3972   -2.8040 H   0  0  0  0  0  0  0  0  0  0  0  0
   -2.1901   17.8561   -1.9995 H   0  0  0  0  0  0  0  0  0  0  0  0
   -1.8998   19.5439   -0.3178 H   0  0  0  0  0  0  0  0  0  0  0  0
   -0.4700   21.0430   -0.8290 H   0  0  0  0  0  0  0  0  0  0  0  0
   -1.5746   17.1010    1.7400 H   0  0  0  0  0  0  0  0  0  0  0  0
   -2.5016   17.4929    0.2521 H   0  0  0  0  0  0  0  0  0  0  0  0
   -1.3407   16.1221    0.2521 H   0  0  0  0  0  0  0  0  0  0  0  0
   -0.2788   18.2854    2.3575 H   0  0  0  0  0  0  0  0  0  0  0  0
    1.1753   18.8621    1.4746 H   0  0  0  0  0  0  0  0  0  0  0  0
   -0.3255   19.8491    1.4746 H   0  0  0  0  0  0  0  0  0  0  0  0
    3.0357   17.4448   -2.6798 H   0  0  0  0  0  0  0  0  0  0  0  0
    3.1376   16.2636   -4.0292 H   0  0  0  0  0  0  0  0  0  0  0  0
    1.8523   17.5184   -4.0292 H   0  0  0  0  0  0  0  0  0  0  0  0
   -0.0162   15.4418   -4.1120 H   0  0  0  0  0  0  0  0  0  0  0  0
    1.6673   14.7336   -4.4257 H   0  0  0  0  0  0  0  0  0  0  0  0
   -0.4789   13.6507   -2.5793 H   0  0  0  0  0  0  0  0  0  0  0  0
    0.1788   12.9194   -4.0954 H   0  0  0  0  0  0  0  0  0  0  0  0
    3.6498   12.4721   -2.7720 H   0  0  0  0  0  0  0  0  0  0  0  0
    2.5574   11.7532   -4.0035 H   0  0  0  0  0  0  0  0  0  0  0  0
    2.8703   13.5220   -4.0035 H   0  0  0  0  0  0  0  0  0  0  0  0
  1  2  1  0
  2  3  1  0
  3  4  1  0
  4  5  1  0
  5  6  1  0
  6  7  1  0
  7  8  1  0
  7  9  1  0
  2 10  1  0
 10 11  1  0
 11 12  1  0
 12 13  1  0
 13 14  1  1
 13 15  1  0
 15 16  1  0
 16 17  1  0
 17 18  2  0
 18 19  1  0
 19 20  1  0
 20 21  1  0
 21 22  1  0
 22 23  1  0
 22 24  1  0
 24 25  1  0
 24 26  1  0
 19 27  1  0
 27 28  1  6
 27 29  1  0
 29 30  1  0
 30 31  1  0
 31 32  1  6
  7  5  1  0
 31 10  1  0
 31 13  1  0
 27 15  1  0
 24 18  1  0
  1 33  1  0
  1 34  1  0
  1 35  1  0
  2 36  1  6
  3 37  1  0
  3 38  1  0
  4 39  1  0
  4 40  1  0
  5 41  1  1
  8 42  1  0
  8 43  1  0
  8 44  1  0
  9 45  1  0
  9 46  1  0
  9 47  1  0
 10 48  1  1
 11 49  1  0
 11 50  1  0
 12 51  1  0
 12 52  1  0
 14 53  1  0
 14 54  1  0
 14 55  1  0
 15 56  1  6
 16 57  1  0
 16 58  1  0
 17 59  1  0
 19 60  1  1
 20 61  1  0
 20 62  1  0
 21 63  1  0
 21 64  1  0
 22 65  1  1
 23 66  1  0
 25 67  1  0
 25 68  1  0
 25 69  1  0
 26 70  1  0
 26 71  1  0
 26 72  1  0
 28 73  1  0
 28 74  1  0
 28 75  1  0
 29 76  1  0
 29 77  1  0
 30 78  1  0
 30 79  1  0
 32 80  1  0
 32 81  1  0
 32 82  1  0
M  END
>  <meeko>  (6) 
{"is_sidechain": [false], "intermolecular_energy": 2.731, "internal_energy": -0.839}

$$$$
EPH_relaxed_0001_pdb2pqr_Repair_81_r2_0001_out
     RDKit          3D

 82 86  0  0  0  0  0  0  0  0999 V2000
    4.4170   16.4720    0.2540 C   0  0  0  0  0  0  0  0  0  0  0  0
    3.1300   17.0440   -0.3480 C   0  0  2  0  0  0  0  0  0  0  0  0
    2.7240   18.3790    0.3090 C   0  0  0  0  0  0  0  0  0  0  0  0
    2.5270   19.5210   -0.6910 C   0  0  0  0  0  0  0  0  0  0  0  0
    1.6540   19.1090   -1.8380 C   0  0  2  0  0  0  0  0  0  0  0  0
    1.1590   20.1940   -2.6330 O   0  0  0  0  0  0  0  0  0  0  0  0
    0.1730   19.4310   -1.9190 C   0  0  0  0  0  0  0  0  0  0  0  0
   -0.5210   20.1940   -0.8350 C   0  0  0  0  0  0  0  0  0  0  0  0
   -0.6940   18.5900   -2.8030 C   0  0  0  0  0  0  0  0  0  0  0  0
    1.9980   16.0320   -0.2110 C   0  0  1  0  0  0  0  0  0  0  0  0
    0.6090   16.7060   -0.0530 C   0  0  0  0  0  0  0  0  0  0  0  0
   -0.4140   15.7980   -0.7810 C   0  0  0  0  0  0  0  0  0  0  0  0
    0.3510   14.4800   -1.0440 C   0  0  1  0  0  0  0  0  0  0  0  0
    0.2760   13.6970    0.3040 C   0  0  0  0  0  0  0  0  0  0  0  0
   -0.1550   13.6130   -2.2430 C   0  0  2  0  0  0  0  0  0  0  0  0
   -1.5950   13.0880   -2.1070 C   0  0  0  0  0  0  0  0  0  0  0  0
   -1.7270   11.7530   -1.4510 C   0  0  0  0  0  0  0  0  0  0  0  0
   -0.7240   10.8790   -1.2480 C   0  0  0  0  0  0  0  0  0  0  0  0
    0.6860   11.1600   -1.7830 C   0  0  1  0  0  0  0  0  0  0  0  0
    1.2380    9.8890   -2.4810 C   0  0  0  0  0  0  0  0  0  0  0  0
    1.1900    8.6590   -1.5790 C   0  0  0  0  0  0  0  0  0  0  0  0
   -0.2370    8.3780   -1.1150 C   0  0  2  0  0  0  0  0  0  0  0  0
   -1.0230    7.9940   -2.2470 O   0  0  0  0  0  0  0  0  0  0  0  0
   -0.9000    9.5920   -0.4050 C   0  0  0  0  0  0  0  0  0  0  0  0
   -0.2310    9.8180    0.9730 C   0  0  0  0  0  0  0  0  0  0  0  0
   -2.3800    9.2240   -0.1140 C   0  0  0  0  0  0  0  0  0  0  0  0
    0.8410   12.4640   -2.6780 C   0  0  1  0  0  0  0  0  0  0  0  0
    0.5130   12.1290   -4.1660 C   0  0  0  0  0  0  0  0  0  0  0  0
    2.3440   12.9320   -2.6500 C   0  0  0  0  0  0  0  0  0  0  0  0
    2.7540   13.8820   -1.5080 C   0  0  0  0  0  0  0  0  0  0  0  0
    1.7740   15.0520   -1.3900 C   0  0  2  0  0  0  0  0  0  0  0  0
    1.8440   15.8710   -2.7240 C   0  0  0  0  0  0  0  0  0  0  0  0
    4.3526   16.5006    1.3517 H   0  0  0  0  0  0  0  0  0  0  0  0
    4.5466   15.4316   -0.0787 H   0  0  0  0  0  0  0  0  0  0  0  0
    5.2761   17.0730   -0.0787 H   0  0  0  0  0  0  0  0  0  0  0  0
    3.3237   17.2450   -1.4120 H   0  0  0  0  0  0  0  0  0  0  0  0
    1.7797   18.2260    0.8521 H   0  0  0  0  0  0  0  0  0  0  0  0
    3.5480   18.6734    0.9756 H   0  0  0  0  0  0  0  0  0  0  0  0
    2.0583   20.3711   -0.1736 H   0  0  0  0  0  0  0  0  0  0  0  0
    3.5126   19.7990   -1.0927 H   0  0  0  0  0  0  0  0  0  0  0  0
    2.2124   18.1687   -1.9567 H   0  0  0  0  0  0  0  0  0  0  0  0
   -0.1855   19.8252    0.1455 H   0  0  0  0  0  0  0  0  0  0  0  0
   -0.2794   21.2632   -0.9268 H   0  0  0  0  0  0  0  0  0  0  0  0
   -1.6083   20.0545   -0.9268 H   0  0  0  0  0  0  0  0  0  0  0  0
   -1.3460   17.9575   -2.1826 H   0  0  0  0  0  0  0  0  0  0  0  0
   -1.3119   19.2419   -3.4380 H   0  0  0  0  0  0  0  0  0  0  0  0
   -0.0612   17.9525   -3.4380 H   0  0  0  0  0  0  0  0  0  0  0  0
    2.3492   15.4817    0.6743 H   0  0  0  0  0  0  0  0  0  0  0  0
    0.3486   16.7917    1.0123 H   0  0  0  0  0  0  0  0  0  0  0  0
    0.6111   17.7198   -0.4799 H   0  0  0  0  0  0  0  0  0  0  0  0
   -1.2932   15.6164   -0.1453 H   0  0  0  0  0  0  0  0  0  0  0  0
   -0.7900   16.2540   -1.7087 H   0  0  0  0  0  0  0  0  0  0  0  0
    0.3438   14.4047    1.1434 H   0  0  0  0  0  0  0  0  0  0  0  0
   -0.6784   13.1528    0.3594 H   0  0  0  0  0  0  0  0  0  0  0  0
    1.1097   12.9816    0.3594 H   0  0  0  0  0  0  0  0  0  0  0  0
   -0.1798   14.3417   -3.0666 H   0  0  0  0  0  0  0  0  0  0  0  0
   -2.1679   13.8163   -1.5143 H   0  0  0  0  0  0  0  0  0  0  0  0
   -1.9715   12.9620   -3.1328 H   0  0  0  0  0  0  0  0  0  0  0  0
   -2.7288   11.4592   -1.1044 H   0  0  0  0  0  0  0  0  0  0  0  0
    1.3023   11.4005   -0.9042 H   0  0  0  0  0  0  0  0  0  0  0  0
    0.6360    9.6908   -3.3801 H   0  0  0  0  0  0  0  0  0  0  0  0
    2.2920   10.0774   -2.7332 H   0  0  0  0  0  0  0  0  0  0  0  0
    1.5651    7.7885   -2.1371 H   0  0  0  0  0  0  0  0  0  0  0  0
    1.8161    8.8477   -0.6944 H   0  0  0  0  0  0  0  0  0  0  0  0
   -0.1892    7.5680   -0.3723 H   0  0  0  0  0  0  0  0  0  0  0  0
   -0.5370    8.2600   -3.0460 H   0  0  0  0  0  0  0  0  0  0  0  0
   -0.9470    9.5761    1.7723 H   0  0  0  0  0  0  0  0  0  0  0  0
    0.6521    9.1683    1.0628 H   0  0  0  0  0  0  0  0  0  0  0  0
    0.0772   10.8701    1.0628 H   0  0  0  0  0  0  0  0  0  0  0  0
   -2.5409    9.1840    0.9734 H   0  0  0  0  0  0  0  0  0  0  0  0
   -3.0406    9.9852   -0.5546 H   0  0  0  0  0  0  0  0  0  0  0  0
   -2.6071    8.2420   -0.5546 H   0  0  0  0  0  0  0  0  0  0  0  0
   -0.2561   11.3435   -4.2041 H   0  0  0  0  0  0  0  0  0  0  0  0
    0.1402   13.0320   -4.6716 H   0  0  0  0  0  0  0  0  0  0  0  0
    1.4237   11.7753   -4.6716 H   0  0  0  0  0  0  0  0  0  0  0  0
    2.9717   12.0317   -2.5757 H   0  0  0  0  0  0  0  0  0  0  0  0
    2.4817   13.5145   -3.5729 H   0  0  0  0  0  0  0  0  0  0  0  0
    2.7628   13.3231   -0.5606 H   0  0  0  0  0  0  0  0  0  0  0  0
    3.7544   14.2832   -1.7277 H   0  0  0  0  0  0  0  0  0  0  0  0
    1.9356   16.9424   -2.4921 H   0  0  0  0  0  0  0  0  0  0  0  0
    2.7177   15.5463   -3.3082 H   0  0  0  0  0  0  0  0  0  0  0  0
    0.9279   15.6993   -3.3082 H   0  0  0  0  0  0  0  0  0  0  0  0
  1  2  1  0
  2  3  1  0
  3  4  1  0
  4  5  1  0
  5  6  1  0
  6  7  1  0
  7  8  1  0
  7  9  1  0
  2 10  1  0
 10 11  1  0
 11 12  1  0
 12 13  1  0
 13 14  1  1
 13 15  1  0
 15 16  1  0
 16 17  1  0
 17 18  2  0
 18 19  1  0
 19 20  1  0
 20 21  1  0
 21 22  1  0
 22 23  1  0
 22 24  1  0
 24 25  1  0
 24 26  1  0
 19 27  1  0
 27 28  1  6
 27 29  1  0
 29 30  1  0
 30 31  1  0
 31 32  1  6
  7  5  1  0
 31 10  1  0
 31 13  1  0
 27 15  1  0
 24 18  1  0
  1 33  1  0
  1 34  1  0
  1 35  1  0
  2 36  1  6
  3 37  1  0
  3 38  1  0
  4 39  1  0
  4 40  1  0
  5 41  1  6
  8 42  1  0
  8 43  1  0
  8 44  1  0
  9 45  1  0
  9 46  1  0
  9 47  1  0
 10 48  1  1
 11 49  1  0
 11 50  1  0
 12 51  1  0
 12 52  1  0
 14 53  1  0
 14 54  1  0
 14 55  1  0
 15 56  1  6
 16 57  1  0
 16 58  1  0
 17 59  1  0
 19 60  1  1
 20 61  1  0
 20 62  1  0
 21 63  1  0
 21 64  1  0
 22 65  1  1
 23 66  1  0
 25 67  1  0
 25 68  1  0
 25 69  1  0
 26 70  1  0
 26 71  1  0
 26 72  1  0
 28 73  1  0
 28 74  1  0
 28 75  1  0
 29 76  1  0
 29 77  1  0
 30 78  1  0
 30 79  1  0
 32 80  1  0
 32 81  1  0
 32 82  1  0
M  END
>  <meeko>  (7) 
{"is_sidechain": [false], "intermolecular_energy": 2.731, "internal_energy": -0.839}

$$$$
EPH_relaxed_0001_pdb2pqr_Repair_81_r2_0001_out
     RDKit          3D

 82 86  0  0  0  0  0  0  0  0999 V2000
    0.4350    8.8000   -2.3440 C   0  0  0  0  0  0  0  0  0  0  0  0
    1.1740    9.9400   -3.0490 C   0  0  2  0  0  0  0  0  0  0  0  0
    2.6760    9.9620   -2.7000 C   0  0  0  0  0  0  0  0  0  0  0  0
    3.5550   10.5580   -3.8020 C   0  0  0  0  0  0  0  0  0  0  0  0
    4.9510   10.8150   -3.3200 C   0  0  2  0  0  0  0  0  0  0  0  0
    5.5370   12.0320   -3.8020 O   0  0  0  0  0  0  0  0  0  0  0  0
    6.1640   10.8130   -4.2310 C   0  0  0  0  0  0  0  0  0  0  0  0
    6.0380   10.5470   -5.6990 C   0  0  0  0  0  0  0  0  0  0  0  0
    7.5140   10.5830   -3.6250 C   0  0  0  0  0  0  0  0  0  0  0  0
    0.5360   11.2760   -2.6870 C   0  0  1  0  0  0  0  0  0  0  0  0
   -0.8400   11.1110   -1.9880 C   0  0  0  0  0  0  0  0  0  0  0  0
   -0.9540   12.2550   -0.9490 C   0  0  0  0  0  0  0  0  0  0  0  0
    0.1950   13.2260   -1.3100 C   0  0  1  0  0  0  0  0  0  0  0  0
   -0.3570   14.0780   -2.4960 C   0  0  0  0  0  0  0  0  0  0  0  0
    0.7270   14.1280   -0.1490 C   0  0  2  0  0  0  0  0  0  0  0  0
   -0.3030   15.1080    0.4400 C   0  0  0  0  0  0  0  0  0  0  0  0
   -0.3480   16.4520   -0.2080 C   0  0  0  0  0  0  0  0  0  0  0  0
    0.5930   16.9570   -1.0280 C   0  0  0  0  0  0  0  0  0  0  0  0
    1.8940   16.1910   -1.3000 C   0  0  1  0  0  0  0  0  0  0  0  0
    3.1000   17.1590   -1.1770 C   0  0  0  0  0  0  0  0  0  0  0  0
    2.9530   18.3920   -2.0620 C   0  0  0  0  0  0  0  0  0  0  0  0
    1.6780   19.1590   -1.7220 C   0  0  2  0  0  0  0  0  0  0  0  0
    1.8060   19.7050   -0.4050 O   0  0  0  0  0  0  0  0  0  0  0  0
    0.3960   18.2830   -1.8020 C   0  0  0  0  0  0  0  0  0  0  0  0
    0.0920   17.9420   -3.2820 C   0  0  0  0  0  0  0  0  0  0  0  0
   -0.7980   19.1380   -1.2990 C   0  0  0  0  0  0  0  0  0  0  0  0
    2.0980   14.8530   -0.4680 C   0  0  1  0  0  0  0  0  0  0  0  0
    2.7600   15.1760    0.9060 C   0  0  0  0  0  0  0  0  0  0  0  0
    3.1040   13.9170   -1.2370 C   0  0  0  0  0  0  0  0  0  0  0  0
    2.5030   12.9630   -2.2860 C   0  0  0  0  0  0  0  0  0  0  0  0
    1.3110   12.1930   -1.7090 C   0  0  2  0  0  0  0  0  0  0  0  0
    1.8400   11.3100   -0.5280 C   0  0  0  0  0  0  0  0  0  0  0  0
    0.5178    8.9277   -1.2546 H   0  0  0  0  0  0  0  0  0  0  0  0
   -0.6256    8.8150   -2.6354 H   0  0  0  0  0  0  0  0  0  0  0  0
    0.8817    7.8379   -2.6354 H   0  0  0  0  0  0  0  0  0  0  0  0
    1.0890    9.7689   -4.1323 H   0  0  0  0  0  0  0  0  0  0  0  0
    2.8115   10.5595   -1.7864 H   0  0  0  0  0  0  0  0  0  0  0  0
    2.9907    8.9163   -2.5681 H   0  0  0  0  0  0  0  0  0  0  0  0
    3.5935    9.8545   -4.6468 H   0  0  0  0  0  0  0  0  0  0  0  0
    3.1159   11.5188   -4.1086 H   0  0  0  0  0  0  0  0  0  0  0  0
    4.7416   10.3040   -2.3687 H   0  0  0  0  0  0  0  0  0  0  0  0
    5.5718    9.5629   -5.8546 H   0  0  0  0  0  0  0  0  0  0  0  0
    5.4131   11.3258   -6.1605 H   0  0  0  0  0  0  0  0  0  0  0  0
    7.0365   10.5569   -6.1605 H   0  0  0  0  0  0  0  0  0  0  0  0
    7.4308   10.5972   -2.5282 H   0  0  0  0  0  0  0  0  0  0  0  0
    7.9006    9.6061   -3.9508 H   0  0  0  0  0  0  0  0  0  0  0  0
    8.2022   11.3768   -3.9508 H   0  0  0  0  0  0  0  0  0  0  0  0
    0.4975   11.7376   -3.6847 H   0  0  0  0  0  0  0  0  0  0  0  0
   -1.6516   11.1878   -2.7265 H   0  0  0  0  0  0  0  0  0  0  0  0
   -0.9208   10.1272   -1.5026 H   0  0  0  0  0  0  0  0  0  0  0  0
   -1.9284   12.7587   -1.0314 H   0  0  0  0  0  0  0  0  0  0  0  0
   -0.8805   11.8880    0.0853 H   0  0  0  0  0  0  0  0  0  0  0  0
   -0.9150   14.9393   -2.1002 H   0  0  0  0  0  0  0  0  0  0  0  0
    0.4813   14.4359   -3.1118 H   0  0  0  0  0  0  0  0  0  0  0  0
   -1.0262   13.4591   -3.1118 H   0  0  0  0  0  0  0  0  0  0  0  0
    0.9304   13.3950    0.6456 H   0  0  0  0  0  0  0  0  0  0  0  0
   -1.2993   14.6515    0.3452 H   0  0  0  0  0  0  0  0  0  0  0  0
    0.0045   15.2827    1.4816 H   0  0  0  0  0  0  0  0  0  0  0  0
   -1.2240   17.0832    0.0022 H   0  0  0  0  0  0  0  0  0  0  0  0
    1.8176   15.8190   -2.3324 H   0  0  0  0  0  0  0  0  0  0  0  0
    3.1852   17.4848   -0.1298 H   0  0  0  0  0  0  0  0  0  0  0  0
    3.9984   16.6166   -1.5068 H   0  0  0  0  0  0  0  0  0  0  0  0
    3.8208   19.0504   -1.9090 H   0  0  0  0  0  0  0  0  0  0  0  0
    2.8974   18.0663   -3.1112 H   0  0  0  0  0  0  0  0  0  0  0  0
    1.5615   19.9546   -2.4726 H   0  0  0  0  0  0  0  0  0  0  0  0
    0.9180   19.7280   -0.0080 H   0  0  0  0  0  0  0  0  0  0  0  0
   -0.6394   17.1216   -3.3265 H   0  0  0  0  0  0  0  0  0  0  0  0
   -0.3207   18.8288   -3.7853 H   0  0  0  0  0  0  0  0  0  0  0  0
    1.0202   17.6335   -3.7853 H   0  0  0  0  0  0  0  0  0  0  0  0
   -0.8068   19.1443   -0.1991 H   0  0  0  0  0  0  0  0  0  0  0  0
   -0.6937   20.1680   -1.6708 H   0  0  0  0  0  0  0  0  0  0  0  0
   -1.7395   18.7076   -1.6708 H   0  0  0  0  0  0  0  0  0  0  0  0
    2.0942   14.8512    1.7192 H   0  0  0  0  0  0  0  0  0  0  0  0
    3.7203   14.6452    0.9842 H   0  0  0  0  0  0  0  0  0  0  0  0
    2.9326   16.2596    0.9842 H   0  0  0  0  0  0  0  0  0  0  0  0
    3.8311   14.5621   -1.7520 H   0  0  0  0  0  0  0  0  0  0  0  0
    3.5338   13.2615   -0.4653 H   0  0  0  0  0  0  0  0  0  0  0  0
    2.1666   13.5488   -3.1541 H   0  0  0  0  0  0  0  0  0  0  0  0
    3.2757   12.2396   -2.5852 H   0  0  0  0  0  0  0  0  0  0  0  0
    1.5620   11.7740    0.4298 H   0  0  0  0  0  0  0  0  0  0  0  0
    1.3942   10.3064   -0.5923 H   0  0  0  0  0  0  0  0  0  0  0  0
    2.9352   11.2296   -0.5923 H   0  0  0  0  0  0  0  0  0  0  0  0
  1  2  1  0
  2  3  1  0
  3  4  1  0
  4  5  1  0
  5  6  1  0
  6  7  1  0
  7  8  1  0
  7  9  1  0
  2 10  1  0
 10 11  1  0
 11 12  1  0
 12 13  1  0
 13 14  1  6
 13 15  1  0
 15 16  1  0
 16 17  1  0
 17 18  2  0
 18 19  1  0
 19 20  1  0
 20 21  1  0
 21 22  1  0
 22 23  1  0
 22 24  1  0
 24 25  1  0
 24 26  1  0
 19 27  1  0
 27 28  1  1
 27 29  1  0
 29 30  1  0
 30 31  1  0
 31 32  1  1
  7  5  1  0
 31 10  1  0
 31 13  1  0
 27 15  1  0
 24 18  1  0
  1 33  1  0
  1 34  1  0
  1 35  1  0
  2 36  1  6
  3 37  1  0
  3 38  1  0
  4 39  1  0
  4 40  1  0
  5 41  1  1
  8 42  1  0
  8 43  1  0
  8 44  1  0
  9 45  1  0
  9 46  1  0
  9 47  1  0
 10 48  1  6
 11 49  1  0
 11 50  1  0
 12 51  1  0
 12 52  1  0
 14 53  1  0
 14 54  1  0
 14 55  1  0
 15 56  1  1
 16 57  1  0
 16 58  1  0
 17 59  1  0
 19 60  1  6
 20 61  1  0
 20 62  1  0
 21 63  1  0
 21 64  1  0
 22 65  1  6
 23 66  1  0
 25 67  1  0
 25 68  1  0
 25 69  1  0
 26 70  1  0
 26 71  1  0
 26 72  1  0
 28 73  1  0
 28 74  1  0
 28 75  1  0
 29 76  1  0
 29 77  1  0
 30 78  1  0
 30 79  1  0
 32 80  1  0
 32 81  1  0
 32 82  1  0
M  END
>  <meeko>  (8) 
{"is_sidechain": [false], "intermolecular_energy": 2.731, "internal_energy": -0.839}

$$$$
EPH_relaxed_0001_pdb2pqr_Repair_81_r2_0001_out
     RDKit          3D

 82 86  0  0  0  0  0  0  0  0999 V2000
    2.5950   19.2340   -0.9480 C   0  0  0  0  0  0  0  0  0  0  0  0
    2.4350   18.2420   -2.1040 C   0  0  2  0  0  0  0  0  0  0  0  0
    1.0330   18.3120   -2.7400 C   0  0  0  0  0  0  0  0  0  0  0  0
    0.2110   19.5220   -2.2860 C   0  0  0  0  0  0  0  0  0  0  0  0
   -1.0790   19.1060   -1.6460 C   0  0  2  0  0  0  0  0  0  0  0  0
   -1.9570   20.1890   -1.3100 O   0  0  0  0  0  0  0  0  0  0  0  0
   -1.4400   19.4260   -0.2070 C   0  0  0  0  0  0  0  0  0  0  0  0
   -0.5090   20.1920    0.6790 C   0  0  0  0  0  0  0  0  0  0  0  0
   -2.4700   18.5820    0.4770 C   0  0  0  0  0  0  0  0  0  0  0  0
    2.7160   16.8260   -1.6160 C   0  0  1  0  0  0  0  0  0  0  0  0
    3.5360   16.8000   -0.2990 C   0  0  0  0  0  0  0  0  0  0  0  0
    3.0290   15.5850    0.5200 C   0  0  0  0  0  0  0  0  0  0  0  0
    2.1800   14.7670   -0.4800 C   0  0  1  0  0  0  0  0  0  0  0  0
    3.2160   13.9390   -1.3030 C   0  0  0  0  0  0  0  0  0  0  0  0
    1.0720   13.8540    0.1380 C   0  0  2  0  0  0  0  0  0  0  0  0
    1.5880   12.7350    1.0600 C   0  0  0  0  0  0  0  0  0  0  0  0
    1.8850   11.4380    0.3830 C   0  0  0  0  0  0  0  0  0  0  0  0
    1.4790   11.0890   -0.8520 C   0  0  0  0  0  0  0  0  0  0  0  0
    0.5550   12.0040   -1.6650 C   0  0  1  0  0  0  0  0  0  0  0  0
   -0.5940   11.1630   -2.2820 C   0  0  0  0  0  0  0  0  0  0  0  0
   -0.0810    9.9800   -3.0970 C   0  0  0  0  0  0  0  0  0  0  0  0
    0.7870    9.0620   -2.2390 C   0  0  2  0  0  0  0  0  0  0  0  0
   -0.0370    8.4500   -1.2410 O   0  0  0  0  0  0  0  0  0  0  0  0
    1.9720    9.8010   -1.5570 C   0  0  0  0  0  0  0  0  0  0  0  0
    3.0190   10.2030   -2.6250 C   0  0  0  0  0  0  0  0  0  0  0  0
    2.6810    8.7940   -0.6110 C   0  0  0  0  0  0  0  0  0  0  0  0
    0.0260   13.3000   -0.9130 C   0  0  1  0  0  0  0  0  0  0  0  0
   -1.2700   12.9610   -0.1150 C   0  0  0  0  0  0  0  0  0  0  0  0
   -0.3800   14.3840   -1.9800 C   0  0  0  0  0  0  0  0  0  0  0  0
    0.7330   15.3340   -2.4630 C   0  0  0  0  0  0  0  0  0  0  0  0
    1.4940   15.9350   -1.2780 C   0  0  2  0  0  0  0  0  0  0  0  0
    0.4810   16.7920   -0.4440 C   0  0  0  0  0  0  0  0  0  0  0  0
    2.5087   18.6987    0.0091 H   0  0  0  0  0  0  0  0  0  0  0  0
    3.5823   19.7148   -1.0114 H   0  0  0  0  0  0  0  0  0  0  0  0
    1.8089   20.0009   -1.0114 H   0  0  0  0  0  0  0  0  0  0  0  0
    3.1631   18.5189   -2.8807 H   0  0  0  0  0  0  0  0  0  0  0  0
    1.1494   18.3614   -3.8327 H   0  0  0  0  0  0  0  0  0  0  0  0
    0.4878   17.4131   -2.4163 H   0  0  0  0  0  0  0  0  0  0  0  0
    0.7996   20.1005   -1.5588 H   0  0  0  0  0  0  0  0  0  0  0  0
   -0.0255   20.1286   -3.1726 H   0  0  0  0  0  0  0  0  0  0  0  0
   -1.0870   18.1659   -2.2171 H   0  0  0  0  0  0  0  0  0  0  0  0
   -0.7551   19.9895    1.7318 H   0  0  0  0  0  0  0  0  0  0  0  0
    0.5269   19.8813    0.4783 H   0  0  0  0  0  0  0  0  0  0  0  0
   -0.6144   21.2684    0.4783 H   0  0  0  0  0  0  0  0  0  0  0  0
   -2.3558   18.6756    1.5670 H   0  0  0  0  0  0  0  0  0  0  0  0
   -3.4748   18.9198    0.1833 H   0  0  0  0  0  0  0  0  0  0  0  0
   -2.3363   17.5304    0.1833 H   0  0  0  0  0  0  0  0  0  0  0  0
    3.2405   16.4278   -2.4971 H   0  0  0  0  0  0  0  0  0  0  0  0
    4.6071   16.6861   -0.5219 H   0  0  0  0  0  0  0  0  0  0  0  0
    3.4087   17.7364    0.2639 H   0  0  0  0  0  0  0  0  0  0  0  0
    3.8744   14.9872    0.8915 H   0  0  0  0  0  0  0  0  0  0  0  0
    2.4516   15.8904    1.4050 H   0  0  0  0  0  0  0  0  0  0  0  0
    3.8865   13.4031   -0.6151 H   0  0  0  0  0  0  0  0  0  0  0  0
    2.6851   13.2136   -1.9369 H   0  0  0  0  0  0  0  0  0  0  0  0
    3.8065   14.6168   -1.9369 H   0  0  0  0  0  0  0  0  0  0  0  0
    0.5284   14.5530    0.7906 H   0  0  0  0  0  0  0  0  0  0  0  0
    2.5132   13.0884    1.5387 H   0  0  0  0  0  0  0  0  0  0  0  0
    0.7754   12.5279    1.7719 H   0  0  0  0  0  0  0  0  0  0  0  0
    2.4867   10.7053    0.9408 H   0  0  0  0  0  0  0  0  0  0  0  0
    1.1772   12.4308   -2.4655 H   0  0  0  0  0  0  0  0  0  0  0  0
   -1.2282   10.7818   -1.4681 H   0  0  0  0  0  0  0  0  0  0  0  0
   -1.1583   11.8175   -2.9626 H   0  0  0  0  0  0  0  0  0  0  0  0
   -0.9387    9.4086   -3.4815 H   0  0  0  0  0  0  0  0  0  0  0  0
    0.5287   10.3641   -3.9281 H   0  0  0  0  0  0  0  0  0  0  0  0
    1.2302    8.3079   -2.9060 H   0  0  0  0  0  0  0  0  0  0  0  0
   -0.4880    9.1610   -0.7550 H   0  0  0  0  0  0  0  0  0  0  0  0
    3.9346   10.5545   -2.1268 H   0  0  0  0  0  0  0  0  0  0  0  0
    3.2550    9.3315   -3.2534 H   0  0  0  0  0  0  0  0  0  0  0  0
    2.6111   11.0085   -3.2534 H   0  0  0  0  0  0  0  0  0  0  0  0
    2.4847    9.0728    0.4348 H   0  0  0  0  0  0  0  0  0  0  0  0
    2.2959    7.7809   -0.7989 H   0  0  0  0  0  0  0  0  0  0  0  0
    3.7646    8.8150   -0.7989 H   0  0  0  0  0  0  0  0  0  0  0  0
   -1.0613   13.0156    0.9636 H   0  0  0  0  0  0  0  0  0  0  0  0
   -2.0588   13.6830   -0.3728 H   0  0  0  0  0  0  0  0  0  0  0  0
   -1.6042   11.9452   -0.3728 H   0  0  0  0  0  0  0  0  0  0  0  0
   -0.7706   13.8538   -2.8611 H   0  0  0  0  0  0  0  0  0  0  0  0
   -1.1095   15.0306   -1.4704 H   0  0  0  0  0  0  0  0  0  0  0  0
    1.4367   14.7719   -3.0946 H   0  0  0  0  0  0  0  0  0  0  0  0
    0.2714   16.1527   -3.0346 H   0  0  0  0  0  0  0  0  0  0  0  0
    0.6653   16.6360    0.6292 H   0  0  0  0  0  0  0  0  0  0  0  0
    0.6134   17.8564   -0.6879 H   0  0  0  0  0  0  0  0  0  0  0  0
   -0.5468   16.4850   -0.6879 H   0  0  0  0  0  0  0  0  0  0  0  0
  1  2  1  0
  2  3  1  0
  3  4  1  0
  4  5  1  0
  5  6  1  0
  6  7  1  0
  7  8  1  0
  7  9  1  0
  2 10  1  0
 10 11  1  0
 11 12  1  0
 12 13  1  0
 13 14  1  6
 13 15  1  0
 15 16  1  0
 16 17  1  0
 17 18  2  0
 18 19  1  0
 19 20  1  0
 20 21  1  0
 21 22  1  0
 22 23  1  0
 22 24  1  0
 24 25  1  0
 24 26  1  0
 19 27  1  0
 27 28  1  1
 27 29  1  0
 29 30  1  0
 30 31  1  0
 31 32  1  1
  7  5  1  0
 31 10  1  0
 31 13  1  0
 27 15  1  0
 24 18  1  0
  1 33  1  0
  1 34  1  0
  1 35  1  0
  2 36  1  6
  3 37  1  0
  3 38  1  0
  4 39  1  0
  4 40  1  0
  5 41  1  6
  8 42  1  0
  8 43  1  0
  8 44  1  0
  9 45  1  0
  9 46  1  0
  9 47  1  0
 10 48  1  6
 11 49  1  0
 11 50  1  0
 12 51  1  0
 12 52  1  0
 14 53  1  0
 14 54  1  0
 14 55  1  0
 15 56  1  1
 16 57  1  0
 16 58  1  0
 17 59  1  0
 19 60  1  6
 20 61  1  0
 20 62  1  0
 21 63  1  0
 21 64  1  0
 22 65  1  6
 23 66  1  0
 25 67  1  0
 25 68  1  0
 25 69  1  0
 26 70  1  0
 26 71  1  0
 26 72  1  0
 28 73  1  0
 28 74  1  0
 28 75  1  0
 29 76  1  0
 29 77  1  0
 30 78  1  0
 30 79  1  0
 32 80  1  0
 32 81  1  0
 32 82  1  0
M  END
>  <meeko>  (9) 
{"is_sidechain": [false], "intermolecular_energy": 2.731, "internal_energy": -0.839}

$$$$
EPH_relaxed_0001_pdb2pqr_Repair_81_r2_0001_out
     RDKit          3D

 82 86  0  0  0  0  0  0  0  0999 V2000
    0.1300   17.7110   -2.4750 C   0  0  0  0  0  0  0  0  0  0  0  0
   -0.0980   16.8220   -1.2490 C   0  0  2  0  0  0  0  0  0  0  0  0
   -0.1310   17.6360    0.0610 C   0  0  0  0  0  0  0  0  0  0  0  0
    0.4560   19.0430   -0.0750 C   0  0  0  0  0  0  0  0  0  0  0  0
    1.5930   19.2630    0.8770 C   0  0  2  0  0  0  0  0  0  0  0  0
    2.5870   20.1890    0.4180 O   0  0  0  0  0  0  0  0  0  0  0  0
    3.0190   18.8300    0.5910 C   0  0  0  0  0  0  0  0  0  0  0  0
    3.3840   18.1400   -0.6860 C   0  0  0  0  0  0  0  0  0  0  0  0
    3.9530   18.6370    1.7440 C   0  0  0  0  0  0  0  0  0  0  0  0
    0.9870   15.7550   -1.1720 C   0  0  1  0  0  0  0  0  0  0  0  0
    1.1920   15.2140    0.2680 C   0  0  0  0  0  0  0  0  0  0  0  0
    1.5450   13.7100    0.1340 C   0  0  0  0  0  0  0  0  0  0  0  0
    1.8570   13.5140   -1.3680 C   0  0  1  0  0  0  0  0  0  0  0  0
    3.3290   14.0040   -1.5400 C   0  0  0  0  0  0  0  0  0  0  0  0
    1.6600   12.0690   -1.9320 C   0  0  2  0  0  0  0  0  0  0  0  0
    2.5680   10.9950   -1.3070 C   0  0  0  0  0  0  0  0  0  0  0  0
    3.8740   10.7850   -1.9980 C   0  0  0  0  0  0  0  0  0  0  0  0
    4.1850   11.2210   -3.2330 C   0  0  0  0  0  0  0  0  0  0  0  0
    3.1380   11.9230   -4.1070 C   0  0  1  0  0  0  0  0  0  0  0  0
    3.1770   11.3290   -5.5400 C   0  0  0  0  0  0  0  0  0  0  0  0
    4.5730   11.3720   -6.1530 C   0  0  0  0  0  0  0  0  0  0  0  0
    5.5740   10.6140   -5.2850 C   0  0  2  0  0  0  0  0  0  0  0  0
    5.2420    9.2230   -5.3060 O   0  0  0  0  0  0  0  0  0  0  0  0
    5.6160   11.1190   -3.8150 C   0  0  0  0  0  0  0  0  0  0  0  0
    6.2620   12.5260   -3.7670 C   0  0  0  0  0  0  0  0  0  0  0  0
    6.5590   10.1810   -3.0150 C   0  0  0  0  0  0  0  0  0  0  0  0
    1.6660   11.9830   -3.5120 C   0  0  1  0  0  0  0  0  0  0  0  0
    0.8850   10.6880   -3.8900 C   0  0  0  0  0  0  0  0  0  0  0  0
    0.8900   13.1800   -4.1790 C   0  0  0  0  0  0  0  0  0  0  0  0
    1.0290   14.5590   -3.5060 C   0  0  0  0  0  0  0  0  0  0  0  0
    0.7730   14.4620   -1.9990 C   0  0  2  0  0  0  0  0  0  0  0  0
   -0.7080   13.9920   -1.7950 C   0  0  0  0  0  0  0  0  0  0  0  0
    0.3908   18.7281   -2.1470 H   0  0  0  0  0  0  0  0  0  0  0  0
    0.9515   17.2986   -3.0793 H   0  0  0  0  0  0  0  0  0  0  0  0
   -0.7885   17.7449   -3.0793 H   0  0  0  0  0  0  0  0  0  0  0  0
   -1.0819   16.3440   -1.3652 H   0  0  0  0  0  0  0  0  0  0  0  0
   -1.1775   17.7262    0.3877 H   0  0  0  0  0  0  0  0  0  0  0  0
    0.4910   17.0969    0.7907 H   0  0  0  0  0  0  0  0  0  0  0  0
    0.8208   19.1793   -1.1038 H   0  0  0  0  0  0  0  0  0  0  0  0
   -0.3354   19.7694    0.1617 H   0  0  0  0  0  0  0  0  0  0  0  0
    0.9321   19.1015    1.7413 H   0  0  0  0  0  0  0  0  0  0  0  0
    3.8872   17.1888   -0.4579 H   0  0  0  0  0  0  0  0  0  0  0  0
    2.4726   17.9421   -1.2693 H   0  0  0  0  0  0  0  0  0  0  0  0
    4.0605   18.7820   -1.2693 H   0  0  0  0  0  0  0  0  0  0  0  0
    3.3993   18.7514    2.6876 H   0  0  0  0  0  0  0  0  0  0  0  0
    4.3914   17.6293    1.6960 H   0  0  0  0  0  0  0  0  0  0  0  0
    4.7549   19.3884    1.6960 H   0  0  0  0  0  0  0  0  0  0  0  0
    1.8354   16.3253   -1.5781 H   0  0  0  0  0  0  0  0  0  0  0  0
    2.0135   15.7535    0.7621 H   0  0  0  0  0  0  0  0  0  0  0  0
    0.2860   15.3547    0.8758 H   0  0  0  0  0  0  0  0  0  0  0  0
    2.4227   13.4610    0.7485 H   0  0  0  0  0  0  0  0  0  0  0  0
    0.7289   13.0580    0.4788 H   0  0  0  0  0  0  0  0  0  0  0  0
    3.7832   14.1552   -0.5496 H   0  0  0  0  0  0  0  0  0  0  0  0
    3.9042   13.2489   -2.0958 H   0  0  0  0  0  0  0  0  0  0  0  0
    3.3369   14.9532   -2.0958 H   0  0  0  0  0  0  0  0  0  0  0  0
    0.6390   11.8251   -1.6033 H   0  0  0  0  0  0  0  0  0  0  0  0
    2.7765   11.2888   -0.2677 H   0  0  0  0  0  0  0  0  0  0  0  0
    2.0207   10.0448   -1.3943 H   0  0  0  0  0  0  0  0  0  0  0  0
    4.6483   10.2264   -1.4517 H   0  0  0  0  0  0  0  0  0  0  0  0
    3.4271   12.9840   -4.1345 H   0  0  0  0  0  0  0  0  0  0  0  0
    2.8429   10.2819   -5.4969 H   0  0  0  0  0  0  0  0  0  0  0  0
    2.5156   11.9392   -6.1726 H   0  0  0  0  0  0  0  0  0  0  0  0
    4.5419   10.9120   -7.1517 H   0  0  0  0  0  0  0  0  0  0  0  0
    4.8934   12.4220   -6.2227 H   0  0  0  0  0  0  0  0  0  0  0  0
    6.5749   10.7898   -5.7060 H   0  0  0  0  0  0  0  0  0  0  0  0
    5.2660    8.9000   -4.3890 H   0  0  0  0  0  0  0  0  0  0  0  0
    6.4015   12.8299   -2.7190 H   0  0  0  0  0  0  0  0  0  0  0  0
    7.2379   12.4989   -4.2739 H   0  0  0  0  0  0  0  0  0  0  0  0
    5.6054   13.2484   -4.2739 H   0  0  0  0  0  0  0  0  0  0  0  0
    6.4028   10.3364   -1.9373 H   0  0  0  0  0  0  0  0  0  0  0  0
    6.3379    9.1342   -3.2704 H   0  0  0  0  0  0  0  0  0  0  0  0
    7.6047   10.4077   -3.2704 H   0  0  0  0  0  0  0  0  0  0  0  0
    0.5714   10.1680   -2.9728 H   0  0  0  0  0  0  0  0  0  0  0  0
   -0.0029   10.9549   -4.4820 H   0  0  0  0  0  0  0  0  0  0  0  0
    1.5353   10.0272   -4.4820 H   0  0  0  0  0  0  0  0  0  0  0  0
    1.2522   13.2764   -5.2132 H   0  0  0  0  0  0  0  0  0  0  0  0
   -0.1748   12.9203   -4.0859 H   0  0  0  0  0  0  0  0  0  0  0  0
    2.0469   14.9405   -3.6742 H   0  0  0  0  0  0  0  0  0  0  0  0
    0.2850   15.2400   -3.9450 H   0  0  0  0  0  0  0  0  0  0  0  0
   -0.9258   13.9229   -0.7190 H   0  0  0  0  0  0  0  0  0  0  0  0
   -1.3905   14.7177   -2.2614 H   0  0  0  0  0  0  0  0  0  0  0  0
   -0.8472   13.0055   -2.2614 H   0  0  0  0  0  0  0  0  0  0  0  0
  1  2  1  0
  2  3  1  0
  3  4  1  0
  4  5  1  0
  5  6  1  0
  6  7  1  0
  7  8  1  0
  7  9  1  0
  2 10  1  0
 10 11  1  0
 11 12  1  0
 12 13  1  0
 13 14  1  1
 13 15  1  0
 15 16  1  0
 16 17  1  0
 17 18  2  0
 18 19  1  0
 19 20  1  0
 20 21  1  0
 21 22  1  0
 22 23  1  0
 22 24  1  0
 24 25  1  0
 24 26  1  0
 19 27  1  0
 27 28  1  1
 27 29  1  0
 29 30  1  0
 30 31  1  0
 31 32  1  6
  7  5  1  0
 31 10  1  0
 31 13  1  0
 27 15  1  0
 24 18  1  0
  1 33  1  0
  1 34  1  0
  1 35  1  0
  2 36  1  6
  3 37  1  0
  3 38  1  0
  4 39  1  0
  4 40  1  0
  5 41  1  1
  8 42  1  0
  8 43  1  0
  8 44  1  0
  9 45  1  0
  9 46  1  0
  9 47  1  0
 10 48  1  6
 11 49  1  0
 11 50  1  0
 12 51  1  0
 12 52  1  0
 14 53  1  0
 14 54  1  0
 14 55  1  0
 15 56  1  1
 16 57  1  0
 16 58  1  0
 17 59  1  0
 19 60  1  6
 20 61  1  0
 20 62  1  0
 21 63  1  0
 21 64  1  0
 22 65  1  6
 23 66  1  0
 25 67  1  0
 25 68  1  0
 25 69  1  0
 26 70  1  0
 26 71  1  0
 26 72  1  0
 28 73  1  0
 28 74  1  0
 28 75  1  0
 29 76  1  0
 29 77  1  0
 30 78  1  0
 30 79  1  0
 32 80  1  0
 32 81  1  0
 32 82  1  0
M  END
>  <meeko>  (10) 
{"is_sidechain": [false], "intermolecular_energy": 2.731, "internal_energy": -0.839}

$$$$
EPH_relaxed_0001_pdb2pqr_Repair_81_r2_0001_out
     RDKit          3D

 82 86  0  0  0  0  0  0  0  0999 V2000
    3.4560   18.4870   -2.7300 C   0  0  0  0  0  0  0  0  0  0  0  0
    2.1420   17.7100   -2.8480 C   0  0  2  0  0  0  0  0  0  0  0  0
    0.9330   18.5350   -2.3620 C   0  0  0  0  0  0  0  0  0  0  0  0
    1.1170   19.1320   -0.9640 C   0  0  0  0  0  0  0  0  0  0  0  0
   -0.0570   19.9720   -0.5610 C   0  0  2  0  0  0  0  0  0  0  0  0
   -0.1780   20.1940    0.8500 O   0  0  0  0  0  0  0  0  0  0  0  0
   -1.2340   19.4390    0.2340 C   0  0  0  0  0  0  0  0  0  0  0  0
   -1.2950   18.0090    0.6740 C   0  0  0  0  0  0  0  0  0  0  0  0
   -2.5370   20.1710    0.1630 C   0  0  0  0  0  0  0  0  0  0  0  0
    2.2350   16.4090   -2.0580 C   0  0  1  0  0  0  0  0  0  0  0  0
    2.5730   16.6420   -0.5610 C   0  0  0  0  0  0  0  0  0  0  0  0
    1.8150   15.5550    0.2430 C   0  0  0  0  0  0  0  0  0  0  0  0
    1.3400   14.5410   -0.8240 C   0  0  1  0  0  0  0  0  0  0  0  0
    2.5850   13.6430   -1.1060 C   0  0  0  0  0  0  0  0  0  0  0  0
    0.0830   13.6870   -0.4540 C   0  0  2  0  0  0  0  0  0  0  0  0
    0.2580   12.7630    0.7640 C   0  0  0  0  0  0  0  0  0  0  0  0
    0.7540   11.3890    0.4560 C   0  0  0  0  0  0  0  0  0  0  0  0
    0.7770   10.8210   -0.7640 C   0  0  0  0  0  0  0  0  0  0  0  0
    0.1810   11.5410   -1.9800 C   0  0  1  0  0  0  0  0  0  0  0  0
   -0.7040   10.5530   -2.7850 C   0  0  0  0  0  0  0  0  0  0  0  0
    0.0420    9.2790   -3.1700 C   0  0  0  0  0  0  0  0  0  0  0  0
    0.5700    8.5610   -1.9310 C   0  0  2  0  0  0  0  0  0  0  0  0
   -0.5410    8.0800   -1.1680 O   0  0  0  0  0  0  0  0  0  0  0  0
    1.4680    9.4610   -1.0360 C   0  0  0  0  0  0  0  0  0  0  0  0
    2.8120    9.7340   -1.7550 C   0  0  0  0  0  0  0  0  0  0  0  0
    1.8170    8.6620    0.2480 C   0  0  0  0  0  0  0  0  0  0  0  0
   -0.5590   12.9150   -1.6780 C   0  0  1  0  0  0  0  0  0  0  0  0
   -2.0480   12.6470   -1.3030 C   0  0  0  0  0  0  0  0  0  0  0  0
   -0.5810   13.7860   -2.9890 C   0  0  0  0  0  0  0  0  0  0  0  0
    0.6350   14.6990   -3.2380 C   0  0  0  0  0  0  0  0  0  0  0  0
    0.9640   15.5250   -1.9910 C   0  0  2  0  0  0  0  0  0  0  0  0
   -0.2620   16.4550   -1.6960 C   0  0  0  0  0  0  0  0  0  0  0  0
    3.7019   18.6324   -1.6677 H   0  0  0  0  0  0  0  0  0  0  0  0
    4.2622   17.9203   -3.2187 H   0  0  0  0  0  0  0  0  0  0  0  0
    3.3479   19.4665   -3.2187 H   0  0  0  0  0  0  0  0  0  0  0  0
    1.9836   17.4884   -3.9137 H   0  0  0  0  0  0  0  0  0  0  0  0
    0.7665   19.3585   -3.0721 H   0  0  0  0  0  0  0  0  0  0  0  0
    0.0758   17.8477   -2.3077 H   0  0  0  0  0  0  0  0  0  0  0  0
    1.2348   18.3129   -0.2393 H   0  0  0  0  0  0  0  0  0  0  0  0
    2.0092   19.7751   -0.9805 H   0  0  0  0  0  0  0  0  0  0  0  0
    0.0012   20.5445   -1.4985 H   0  0  0  0  0  0  0  0  0  0  0  0
   -1.2969   17.9633    1.7730 H   0  0  0  0  0  0  0  0  0  0  0  0
   -2.2138   17.5449    0.2861 H   0  0  0  0  0  0  0  0  0  0  0  0
   -0.4191   17.4683    0.2861 H   0  0  0  0  0  0  0  0  0  0  0  0
   -2.8992   20.3745    1.1815 H   0  0  0  0  0  0  0  0  0  0  0  0
   -2.3950   21.1214   -0.3724 H   0  0  0  0  0  0  0  0  0  0  0  0
   -3.2748   19.5553   -0.3724 H   0  0  0  0  0  0  0  0  0  0  0  0
    3.0187   15.8977   -2.6363 H   0  0  0  0  0  0  0  0  0  0  0  0
    3.6567   16.5469   -0.3981 H   0  0  0  0  0  0  0  0  0  0  0  0
    2.2735   17.6509   -0.2409 H   0  0  0  0  0  0  0  0  0  0  0  0
    2.4852   15.0703    0.9682 H   0  0  0  0  0  0  0  0  0  0  0  0
    0.9790   15.9723    0.8234 H   0  0  0  0  0  0  0  0  0  0  0  0
    3.0295   13.3224   -0.1522 H   0  0  0  0  0  0  0  0  0  0  0  0
    2.2761   12.7584   -1.6823 H   0  0  0  0  0  0  0  0  0  0  0  0
    3.3269   14.2153   -1.6823 H   0  0  0  0  0  0  0  0  0  0  0  0
   -0.6418   14.4546   -0.1450 H   0  0  0  0  0  0  0  0  0  0  0  0
    0.9750   13.2373    1.4502 H   0  0  0  0  0  0  0  0  0  0  0  0
   -0.7457   12.6346    1.1953 H   0  0  0  0  0  0  0  0  0  0  0  0
    1.1327   10.7901    1.2974 H   0  0  0  0  0  0  0  0  0  0  0  0
    1.0365   11.8606   -2.5932 H   0  0  0  0  0  0  0  0  0  0  0  0
   -1.5751   10.2797   -2.1714 H   0  0  0  0  0  0  0  0  0  0  0  0
   -1.0057   11.0570   -3.7150 H   0  0  0  0  0  0  0  0  0  0  0  0
   -0.6439    8.6092   -3.7094 H   0  0  0  0  0  0  0  0  0  0  0  0
    0.8953    9.5510   -3.8087 H   0  0  0  0  0  0  0  0  0  0  0  0
    1.2039    7.7311   -2.2766 H   0  0  0  0  0  0  0  0  0  0  0  0
   -0.5290    8.5380   -0.3100 H   0  0  0  0  0  0  0  0  0  0  0  0
    3.6022    9.8945   -1.0067 H   0  0  0  0  0  0  0  0  0  0  0  0
    3.0731    8.8705   -2.3845 H   0  0  0  0  0  0  0  0  0  0  0  0
    2.7155   10.6309   -2.3845 H   0  0  0  0  0  0  0  0  0  0  0  0
    1.5560    9.2595    1.1339 H   0  0  0  0  0  0  0  0  0  0  0  0
    1.2481    7.7206    0.2600 H   0  0  0  0  0  0  0  0  0  0  0  0
    2.8942    8.4396    0.2600 H   0  0  0  0  0  0  0  0  0  0  0  0
   -2.1527   12.6282   -0.2082 H   0  0  0  0  0  0  0  0  0  0  0  0
   -2.6801   13.4458   -1.7181 H   0  0  0  0  0  0  0  0  0  0  0  0
   -2.3620   11.6779   -1.7181 H   0  0  0  0  0  0  0  0  0  0  0  0
   -0.6613   13.0984   -3.8438 H   0  0  0  0  0  0  0  0  0  0  0  0
   -1.4335   14.4700   -2.8654 H   0  0  0  0  0  0  0  0  0  0  0  0
    1.5046   14.0775   -3.4978 H   0  0  0  0  0  0  0  0  0  0  0  0
    0.3943   15.3874   -4.0615 H   0  0  0  0  0  0  0  0  0  0  0  0
   -0.3933   16.5546   -0.6084 H   0  0  0  0  0  0  0  0  0  0  0  0
   -0.0839   17.4472   -2.1362 H   0  0  0  0  0  0  0  0  0  0  0  0
   -1.1695   16.0161   -2.1362 H   0  0  0  0  0  0  0  0  0  0  0  0
  1  2  1  0
  2  3  1  0
  3  4  1  0
  4  5  1  0
  5  6  1  0
  6  7  1  0
  7  8  1  0
  7  9  1  0
  2 10  1  0
 10 11  1  0
 11 12  1  0
 12 13  1  0
 13 14  1  6
 13 15  1  0
 15 16  1  0
 16 17  1  0
 17 18  2  0
 18 19  1  0
 19 20  1  0
 20 21  1  0
 21 22  1  0
 22 23  1  0
 22 24  1  0
 24 25  1  0
 24 26  1  0
 19 27  1  0
 27 28  1  1
 27 29  1  0
 29 30  1  0
 30 31  1  0
 31 32  1  1
  7  5  1  0
 31 10  1  0
 31 13  1  0
 27 15  1  0
 24 18  1  0
  1 33  1  0
  1 34  1  0
  1 35  1  0
  2 36  1  6
  3 37  1  0
  3 38  1  0
  4 39  1  0
  4 40  1  0
  5 41  1  6
  8 42  1  0
  8 43  1  0
  8 44  1  0
  9 45  1  0
  9 46  1  0
  9 47  1  0
 10 48  1  6
 11 49  1  0
 11 50  1  0
 12 51  1  0
 12 52  1  0
 14 53  1  0
 14 54  1  0
 14 55  1  0
 15 56  1  1
 16 57  1  0
 16 58  1  0
 17 59  1  0
 19 60  1  6
 20 61  1  0
 20 62  1  0
 21 63  1  0
 21 64  1  0
 22 65  1  6
 23 66  1  0
 25 67  1  0
 25 68  1  0
 25 69  1  0
 26 70  1  0
 26 71  1  0
 26 72  1  0
 28 73  1  0
 28 74  1  0
 28 75  1  0
 29 76  1  0
 29 77  1  0
 30 78  1  0
 30 79  1  0
 32 80  1  0
 32 81  1  0
 32 82  1  0
M  END
>  <meeko>  (11) 
{"is_sidechain": [false], "intermolecular_energy": 2.731, "internal_energy": -0.839}

$$$$
EPH_relaxed_0001_pdb2pqr_Repair_81_r2_0001_out
     RDKit          3D

 82 86  0  0  0  0  0  0  0  0999 V2000
   -0.8800   16.3640   -5.8590 C   0  0  0  0  0  0  0  0  0  0  0  0
    0.2200   15.6690   -6.6680 C   0  0  2  0  0  0  0  0  0  0  0  0
   -0.1700   15.4980   -8.1500 C   0  0  0  0  0  0  0  0  0  0  0  0
    0.4850   16.5210   -9.0820 C   0  0  0  0  0  0  0  0  0  0  0  0
    1.8830   16.1230   -9.4460 C   0  0  2  0  0  0  0  0  0  0  0  0
    2.3660   16.6870  -10.6730 O   0  0  0  0  0  0  0  0  0  0  0  0
    2.2210   15.2580  -10.6460 C   0  0  0  0  0  0  0  0  0  0  0  0
    1.1540   14.7380  -11.5580 C   0  0  0  0  0  0  0  0  0  0  0  0
    3.5230   14.5200  -10.6530 C   0  0  0  0  0  0  0  0  0  0  0  0
    0.5390   14.3120   -6.0530 C   0  0  1  0  0  0  0  0  0  0  0  0
    1.7990   13.6550   -6.6780 C   0  0  0  0  0  0  0  0  0  0  0  0
    2.5110   12.8820   -5.5380 C   0  0  0  0  0  0  0  0  0  0  0  0
    1.4770   12.8410   -4.3890 C   0  0  1  0  0  0  0  0  0  0  0  0
    0.5160   11.6670   -4.7550 C   0  0  0  0  0  0  0  0  0  0  0  0
    2.0550   12.6840   -2.9440 C   0  0  2  0  0  0  0  0  0  0  0  0
    2.8230   11.3760   -2.6870 C   0  0  0  0  0  0  0  0  0  0  0  0
    1.9980   10.2420   -2.1770 C   0  0  0  0  0  0  0  0  0  0  0  0
    0.7570   10.3450   -1.6660 C   0  0  0  0  0  0  0  0  0  0  0  0
    0.0970   11.7170   -1.4710 C   0  0  1  0  0  0  0  0  0  0  0  0
   -0.5420   11.7880   -0.0600 C   0  0  0  0  0  0  0  0  0  0  0  0
   -1.5050   10.6350    0.2060 C   0  0  0  0  0  0  0  0  0  0  0  0
   -0.7970    9.2900    0.0600 C   0  0  2  0  0  0  0  0  0  0  0  0
    0.1730    9.1630    1.1040 O   0  0  0  0  0  0  0  0  0  0  0  0
   -0.1070    9.1070   -1.3210 C   0  0  0  0  0  0  0  0  0  0  0  0
   -1.1820    8.9420   -2.4230 C   0  0  0  0  0  0  0  0  0  0  0  0
    0.6870    7.7730   -1.2850 C   0  0  0  0  0  0  0  0  0  0  0  0
    1.0100   12.9770   -1.7930 C   0  0  1  0  0  0  0  0  0  0  0  0
    1.8370   13.3710   -0.5310 C   0  0  0  0  0  0  0  0  0  0  0  0
    0.0870   14.2100   -2.1210 C   0  0  0  0  0  0  0  0  0  0  0  0
   -0.3520   14.3770   -3.5880 C   0  0  0  0  0  0  0  0  0  0  0  0
    0.8470   14.2740   -4.5350 C   0  0  2  0  0  0  0  0  0  0  0  0
    1.8210   15.4560   -4.2050 C   0  0  0  0  0  0  0  0  0  0  0  0
   -0.6803   16.2378   -4.7847 H   0  0  0  0  0  0  0  0  0  0  0  0
   -0.8950   17.4359   -6.1058 H   0  0  0  0  0  0  0  0  0  0  0  0
   -1.8544   15.9173   -6.1058 H   0  0  0  0  0  0  0  0  0  0  0  0
    1.1124   16.3111   -6.6335 H   0  0  0  0  0  0  0  0  0  0  0  0
    0.1308   14.4908   -8.4740 H   0  0  0  0  0  0  0  0  0  0  0  0
   -1.2569   15.6536   -8.2158 H   0  0  0  0  0  0  0  0  0  0  0  0
   -0.1139   16.6006  -10.0012 H   0  0  0  0  0  0  0  0  0  0  0  0
    0.5290   17.4859   -8.5557 H   0  0  0  0  0  0  0  0  0  0  0  0
    2.1653   16.0559   -8.3850 H   0  0  0  0  0  0  0  0  0  0  0  0
    0.3246   14.3338  -10.9590 H   0  0  0  0  0  0  0  0  0  0  0  0
    0.7832   15.5564  -12.1926 H   0  0  0  0  0  0  0  0  0  0  0  0
    1.5701   13.9417  -12.1926 H   0  0  0  0  0  0  0  0  0  0  0  0
    3.8462   14.3368   -9.6176 H   0  0  0  0  0  0  0  0  0  0  0  0
    3.3970   13.5590  -11.1733 H   0  0  0  0  0  0  0  0  0  0  0  0
    4.2828   15.1217  -11.1733 H   0  0  0  0  0  0  0  0  0  0  0  0
   -0.4068   13.7891   -6.2578 H   0  0  0  0  0  0  0  0  0  0  0  0
    1.5065   12.9621   -7.4807 H   0  0  0  0  0  0  0  0  0  0  0  0
    2.4640   14.4134   -7.1169 H   0  0  0  0  0  0  0  0  0  0  0  0
    2.7711   11.8637   -5.8628 H   0  0  0  0  0  0  0  0  0  0  0  0
    3.4532   13.3615   -5.2342 H   0  0  0  0  0  0  0  0  0  0  0  0
    0.1362   11.2030   -3.8328 H   0  0  0  0  0  0  0  0  0  0  0  0
   -0.3277   12.0542   -5.3451 H   0  0  0  0  0  0  0  0  0  0  0  0
    1.0622   10.9164   -5.3451 H   0  0  0  0  0  0  0  0  0  0  0  0
    2.8079   13.4849   -2.9026 H   0  0  0  0  0  0  0  0  0  0  0  0
    3.2847   11.0612   -3.6345 H   0  0  0  0  0  0  0  0  0  0  0  0
    3.5523   11.6019   -1.8951 H   0  0  0  0  0  0  0  0  0  0  0  0
    2.4417    9.2365   -2.2225 H   0  0  0  0  0  0  0  0  0  0  0  0
   -0.6871   11.7899   -2.2390 H   0  0  0  0  0  0  0  0  0  0  0  0
    0.2602   11.7578    0.6921 H   0  0  0  0  0  0  0  0  0  0  0  0
   -1.1177   12.7235   -0.0014 H   0  0  0  0  0  0  0  0  0  0  0  0
   -1.9008   10.7247    1.2284 H   0  0  0  0  0  0  0  0  0  0  0  0
   -2.3230   10.6834   -0.5279 H   0  0  0  0  0  0  0  0  0  0  0  0
   -1.5636    8.5045    0.1334 H   0  0  0  0  0  0  0  0  0  0  0  0
    0.8970    9.7830    0.9090 H   0  0  0  0  0  0  0  0  0  0  0  0
   -2.1662    8.7909   -1.9555 H   0  0  0  0  0  0  0  0  0  0  0  0
   -1.2080    9.8467   -3.0482 H   0  0  0  0  0  0  0  0  0  0  0  0
   -0.9355    8.0712   -3.0482 H   0  0  0  0  0  0  0  0  0  0  0  0
    0.8622    7.4787   -0.2397 H   0  0  0  0  0  0  0  0  0  0  0  0
    0.1089    6.9883   -1.7949 H   0  0  0  0  0  0  0  0  0  0  0  0
    1.6524    7.9070   -1.7949 H   0  0  0  0  0  0  0  0  0  0  0  0
    1.2738   13.1027    0.3750 H   0  0  0  0  0  0  0  0  0  0  0  0
    2.7966   12.8333   -0.5389 H   0  0  0  0  0  0  0  0  0  0  0  0
    2.0240   14.4550   -0.5389 H   0  0  0  0  0  0  0  0  0  0  0  0
   -0.8228   14.1168   -1.5098 H   0  0  0  0  0  0  0  0  0  0  0  0
    0.7007   15.0960   -1.9011 H   0  0  0  0  0  0  0  0  0  0  0  0
   -1.0769   13.5885   -3.8385 H   0  0  0  0  0  0  0  0  0  0  0  0
   -0.8075   15.3712   -3.7064 H   0  0  0  0  0  0  0  0  0  0  0  0
    1.9100   15.5640   -3.1139 H   0  0  0  0  0  0  0  0  0  0  0  0
    2.8115   15.2458   -4.6347 H   0  0  0  0  0  0  0  0  0  0  0  0
    1.4253   16.3881   -4.6347 H   0  0  0  0  0  0  0  0  0  0  0  0
  1  2  1  0
  2  3  1  0
  3  4  1  0
  4  5  1  0
  5  6  1  0
  6  7  1  0
  7  8  1  0
  7  9  1  0
  2 10  1  0
 10 11  1  0
 11 12  1  0
 12 13  1  0
 13 14  1  6
 13 15  1  0
 15 16  1  0
 16 17  1  0
 17 18  2  0
 18 19  1  0
 19 20  1  0
 20 21  1  0
 21 22  1  0
 22 23  1  0
 22 24  1  0
 24 25  1  0
 24 26  1  0
 19 27  1  0
 27 28  1  1
 27 29  1  0
 29 30  1  0
 30 31  1  0
 31 32  1  1
  7  5  1  0
 31 10  1  0
 31 13  1  0
 27 15  1  0
 24 18  1  0
  1 33  1  0
  1 34  1  0
  1 35  1  0
  2 36  1  6
  3 37  1  0
  3 38  1  0
  4 39  1  0
  4 40  1  0
  5 41  1  1
  8 42  1  0
  8 43  1  0
  8 44  1  0
  9 45  1  0
  9 46  1  0
  9 47  1  0
 10 48  1  1
 11 49  1  0
 11 50  1  0
 12 51  1  0
 12 52  1  0
 14 53  1  0
 14 54  1  0
 14 55  1  0
 15 56  1  6
 16 57  1  0
 16 58  1  0
 17 59  1  0
 19 60  1  6
 20 61  1  0
 20 62  1  0
 21 63  1  0
 21 64  1  0
 22 65  1  1
 23 66  1  0
 25 67  1  0
 25 68  1  0
 25 69  1  0
 26 70  1  0
 26 71  1  0
 26 72  1  0
 28 73  1  0
 28 74  1  0
 28 75  1  0
 29 76  1  0
 29 77  1  0
 30 78  1  0
 30 79  1  0
 32 80  1  0
 32 81  1  0
 32 82  1  0
M  END
>  <meeko>  (12) 
{"is_sidechain": [false], "intermolecular_energy": 2.731, "internal_energy": -0.839}

$$$$
EPH_relaxed_0001_pdb2pqr_Repair_81_r2_0001_out
     RDKit          3D

 82 86  0  0  0  0  0  0  0  0999 V2000
   -1.9480    9.9010    0.3110 C   0  0  0  0  0  0  0  0  0  0  0  0
   -1.0960   10.4910   -0.8170 C   0  0  2  0  0  0  0  0  0  0  0  0
   -0.0620    9.4810   -1.3530 C   0  0  0  0  0  0  0  0  0  0  0  0
   -0.4710    8.0180   -1.1550 C   0  0  0  0  0  0  0  0  0  0  0  0
   -1.3470    7.5320   -2.2690 C   0  0  2  0  0  0  0  0  0  0  0  0
   -2.0890    8.5600   -2.9400 O   0  0  0  0  0  0  0  0  0  0  0  0
   -2.8630    7.5830   -2.2250 C   0  0  0  0  0  0  0  0  0  0  0  0
   -3.5900    8.1330   -1.0380 C   0  0  0  0  0  0  0  0  0  0  0  0
   -3.6360    6.6590   -3.1130 C   0  0  0  0  0  0  0  0  0  0  0  0
   -0.3890   11.7500   -0.3290 C   0  0  1  0  0  0  0  0  0  0  0  0
    0.8540   11.4370    0.5460 C   0  0  0  0  0  0  0  0  0  0  0  0
    1.9040   12.5370    0.2410 C   0  0  0  0  0  0  0  0  0  0  0  0
    1.1190   13.6200   -0.5350 C   0  0  1  0  0  0  0  0  0  0  0  0
    0.3850   14.4490    0.5650 C   0  0  0  0  0  0  0  0  0  0  0  0
    1.9600   14.5360   -1.4830 C   0  0  2  0  0  0  0  0  0  0  0  0
    3.0250   15.3980   -0.7820 C   0  0  0  0  0  0  0  0  0  0  0  0
    2.5650   16.7490   -0.3450 C   0  0  0  0  0  0  0  0  0  0  0  0
    1.4400   17.3630   -0.7560 C   0  0  0  0  0  0  0  0  0  0  0  0
    0.5450   16.7310   -1.8290 C   0  0  1  0  0  0  0  0  0  0  0  0
    0.1610   17.8030   -2.8820 C   0  0  0  0  0  0  0  0  0  0  0  0
   -0.4680   19.0420   -2.2530 C   0  0  0  0  0  0  0  0  0  0  0  0
    0.4750   19.6760   -1.2340 C   0  0  2  0  0  0  0  0  0  0  0  0
    1.6170   20.1940   -1.9230 O   0  0  0  0  0  0  0  0  0  0  0  0
    0.9370   18.6860   -0.1280 C   0  0  0  0  0  0  0  0  0  0  0  0
   -0.2530   18.3590    0.8080 C   0  0  0  0  0  0  0  0  0  0  0  0
    1.9930   19.4100    0.7500 C   0  0  0  0  0  0  0  0  0  0  0  0
    1.0940   15.3940   -2.4910 C   0  0  1  0  0  0  0  0  0  0  0  0
    2.0240   15.7400   -3.6940 C   0  0  0  0  0  0  0  0  0  0  0  0
   -0.1150   14.5800   -3.0850 C   0  0  0  0  0  0  0  0  0  0  0  0
   -0.8300   13.6030   -2.1320 C   0  0  0  0  0  0  0  0  0  0  0  0
    0.1790   12.7090   -1.4050 C   0  0  2  0  0  0  0  0  0  0  0  0
    0.9180   11.8460   -2.4850 C   0  0  0  0  0  0  0  0  0  0  0  0
   -1.5241   10.1946    1.2827 H   0  0  0  0  0  0  0  0  0  0  0  0
   -2.9772   10.2808    0.2302 H   0  0  0  0  0  0  0  0  0  0  0  0
   -1.9546    8.8040    0.2302 H   0  0  0  0  0  0  0  0  0  0  0  0
   -1.7731   10.7419   -1.6468 H   0  0  0  0  0  0  0  0  0  0  0  0
    0.0737    9.6611   -2.4296 H   0  0  0  0  0  0  0  0  0  0  0  0
    0.8651    9.6360   -0.7817 H   0  0  0  0  0  0  0  0  0  0  0  0
    0.4357    7.3963   -1.1173 H   0  0  0  0  0  0  0  0  0  0  0  0
   -1.0385    7.9447   -0.2155 H   0  0  0  0  0  0  0  0  0  0  0  0
   -0.6425    6.7193   -2.4995 H   0  0  0  0  0  0  0  0  0  0  0  0
   -3.1122    7.7715   -0.1155 H   0  0  0  0  0  0  0  0  0  0  0  0
   -3.5542    9.2321   -1.0630 H   0  0  0  0  0  0  0  0  0  0  0  0
   -4.6380    7.7996   -1.0630 H   0  0  0  0  0  0  0  0  0  0  0  0
   -4.2202    5.9607   -2.4957 H   0  0  0  0  0  0  0  0  0  0  0  0
   -4.3168    7.2449   -3.7480 H   0  0  0  0  0  0  0  0  0  0  0  0
   -2.9391    6.0923   -3.7480 H   0  0  0  0  0  0  0  0  0  0  0  0
   -1.2210   12.2332    0.2042 H   0  0  0  0  0  0  0  0  0  0  0  0
    0.5821   11.4578    1.6117 H   0  0  0  0  0  0  0  0  0  0  0  0
    1.2532   10.4368    0.3219 H   0  0  0  0  0  0  0  0  0  0  0  0
    2.3165   12.9495    1.1736 H   0  0  0  0  0  0  0  0  0  0  0  0
    2.7594   12.1502   -0.3323 H   0  0  0  0  0  0  0  0  0  0  0  0
    0.6971   14.0965    1.5592 H   0  0  0  0  0  0  0  0  0  0  0  0
    0.6427   15.5128    0.4556 H   0  0  0  0  0  0  0  0  0  0  0  0
   -0.7021   14.3220    0.4556 H   0  0  0  0  0  0  0  0  0  0  0  0
    2.5177   13.8034   -2.0849 H   0  0  0  0  0  0  0  0  0  0  0  0
    3.3718   14.8526    0.1081 H   0  0  0  0  0  0  0  0  0  0  0  0
    3.8149   15.5718   -1.5276 H   0  0  0  0  0  0  0  0  0  0  0  0
    3.1991   17.2886    0.3739 H   0  0  0  0  0  0  0  0  0  0  0  0
   -0.3575   16.3836   -1.3049 H   0  0  0  0  0  0  0  0  0  0  0  0
    1.0688   18.1053   -3.4246 H   0  0  0  0  0  0  0  0  0  0  0  0
   -0.5842   17.3563   -3.5567 H   0  0  0  0  0  0  0  0  0  0  0  0
   -0.6885   19.7744   -3.0436 H   0  0  0  0  0  0  0  0  0  0  0  0
   -1.3921   18.7426   -1.7369 H   0  0  0  0  0  0  0  0  0  0  0  0
   -0.0799   20.4781   -0.7253 H   0  0  0  0  0  0  0  0  0  0  0  0
    1.2950   20.7980   -2.6140 H   0  0  0  0  0  0  0  0  0  0  0  0
    0.0696   18.4476    1.8559 H   0  0  0  0  0  0  0  0  0  0  0  0
   -1.0748   19.0646    0.6164 H   0  0  0  0  0  0  0  0  0  0  0  0
   -0.5989   17.3325    0.6164 H   0  0  0  0  0  0  0  0  0  0  0  0
    1.7587   19.2493    1.8127 H   0  0  0  0  0  0  0  0  0  0  0  0
    2.9922   19.0061    0.5297 H   0  0  0  0  0  0  0  0  0  0  0  0
    1.9764   20.4876    0.5297 H   0  0  0  0  0  0  0  0  0  0  0  0
    2.9925   16.1003   -3.3169 H   0  0  0  0  0  0  0  0  0  0  0  0
    2.1809   14.8401   -4.3068 H   0  0  0  0  0  0  0  0  0  0  0  0
    1.5546   16.5236   -4.3068 H   0  0  0  0  0  0  0  0  0  0  0  0
   -0.8620   15.3052   -3.4400 H   0  0  0  0  0  0  0  0  0  0  0  0
    0.3227   13.9469   -3.8709 H   0  0  0  0  0  0  0  0  0  0  0  0
   -1.4016   14.1786   -1.3890 H   0  0  0  0  0  0  0  0  0  0  0  0
   -1.5018   12.9641   -2.7240 H   0  0  0  0  0  0  0  0  0  0  0  0
    1.5556   11.1014   -1.9859 H   0  0  0  0  0  0  0  0  0  0  0  0
    0.1763   11.3313   -3.1135 H   0  0  0  0  0  0  0  0  0  0  0  0
    1.5407   12.4997   -3.1135 H   0  0  0  0  0  0  0  0  0  0  0  0
  1  2  1  0
  2  3  1  0
  3  4  1  0
  4  5  1  0
  5  6  1  0
  6  7  1  0
  7  8  1  0
  7  9  1  0
  2 10  1  0
 10 11  1  0
 11 12  1  0
 12 13  1  0
 13 14  1  1
 13 15  1  0
 15 16  1  0
 16 17  1  0
 17 18  2  0
 18 19  1  0
 19 20  1  0
 20 21  1  0
 21 22  1  0
 22 23  1  0
 22 24  1  0
 24 25  1  0
 24 26  1  0
 19 27  1  0
 27 28  1  6
 27 29  1  0
 29 30  1  0
 30 31  1  0
 31 32  1  6
  7  5  1  0
 31 10  1  0
 31 13  1  0
 27 15  1  0
 24 18  1  0
  1 33  1  0
  1 34  1  0
  1 35  1  0
  2 36  1  6
  3 37  1  0
  3 38  1  0
  4 39  1  0
  4 40  1  0
  5 41  1  6
  8 42  1  0
  8 43  1  0
  8 44  1  0
  9 45  1  0
  9 46  1  0
  9 47  1  0
 10 48  1  1
 11 49  1  0
 11 50  1  0
 12 51  1  0
 12 52  1  0
 14 53  1  0
 14 54  1  0
 14 55  1  0
 15 56  1  6
 16 57  1  0
 16 58  1  0
 17 59  1  0
 19 60  1  1
 20 61  1  0
 20 62  1  0
 21 63  1  0
 21 64  1  0
 22 65  1  1
 23 66  1  0
 25 67  1  0
 25 68  1  0
 25 69  1  0
 26 70  1  0
 26 71  1  0
 26 72  1  0
 28 73  1  0
 28 74  1  0
 28 75  1  0
 29 76  1  0
 29 77  1  0
 30 78  1  0
 30 79  1  0
 32 80  1  0
 32 81  1  0
 32 82  1  0
M  END
>  <meeko>  (13) 
{"is_sidechain": [false], "intermolecular_energy": 2.731, "internal_energy": -0.839}

$$$$
EPH_relaxed_0001_pdb2pqr_Repair_81_r2_0001_out
     RDKit          3D

 82 86  0  0  0  0  0  0  0  0999 V2000
    0.1310    9.3160   -2.3580 C   0  0  0  0  0  0  0  0  0  0  0  0
    1.1540   10.3570   -2.8220 C   0  0  2  0  0  0  0  0  0  0  0  0
    2.5740    9.7660   -2.9340 C   0  0  0  0  0  0  0  0  0  0  0  0
    3.4850   10.5320   -3.8970 C   0  0  0  0  0  0  0  0  0  0  0  0
    4.8710   10.6830   -3.3470 C   0  0  2  0  0  0  0  0  0  0  0  0
    5.5180   11.9170   -3.6850 O   0  0  0  0  0  0  0  0  0  0  0  0
    6.1150   10.7220   -4.2150 C   0  0  0  0  0  0  0  0  0  0  0  0
    6.0320   10.6090   -5.7050 C   0  0  0  0  0  0  0  0  0  0  0  0
    7.4330   10.3800   -3.5920 C   0  0  0  0  0  0  0  0  0  0  0  0
    1.1580   11.5440   -1.8660 C   0  0  1  0  0  0  0  0  0  0  0  0
    2.2070   11.3940   -0.7320 C   0  0  0  0  0  0  0  0  0  0  0  0
    2.7450   12.8160   -0.4300 C   0  0  0  0  0  0  0  0  0  0  0  0
    1.7640   13.7670   -1.1550 C   0  0  1  0  0  0  0  0  0  0  0  0
    0.5410   13.8900   -0.1930 C   0  0  0  0  0  0  0  0  0  0  0  0
    2.3280   15.1700   -1.5530 C   0  0  2  0  0  0  0  0  0  0  0  0
    2.7690   16.0550   -0.3740 C   0  0  0  0  0  0  0  0  0  0  0  0
    1.7110   16.9500    0.1810 C   0  0  0  0  0  0  0  0  0  0  0  0
    0.5450   17.2510   -0.4200 C   0  0  0  0  0  0  0  0  0  0  0  0
    0.2370   16.7470   -1.8360 C   0  0  1  0  0  0  0  0  0  0  0  0
   -0.3270   17.9140   -2.6890 C   0  0  0  0  0  0  0  0  0  0  0  0
   -1.5290   18.5890   -2.0350 C   0  0  0  0  0  0  0  0  0  0  0  0
   -1.1670   19.1270   -0.6540 C   0  0  2  0  0  0  0  0  0  0  0  0
   -0.2260   20.1940   -0.8070 O   0  0  0  0  0  0  0  0  0  0  0  0
   -0.5790   18.0430    0.2920 C   0  0  0  0  0  0  0  0  0  0  0  0
   -1.6930   17.0470    0.6990 C   0  0  0  0  0  0  0  0  0  0  0  0
   -0.1260   18.7450    1.6000 C   0  0  0  0  0  0  0  0  0  0  0  0
    1.4150   15.9710   -2.5680 C   0  0  1  0  0  0  0  0  0  0  0  0
    2.3460   16.9850   -3.3000 C   0  0  0  0  0  0  0  0  0  0  0  0
    0.8040   15.0430   -3.6840 C   0  0  0  0  0  0  0  0  0  0  0  0
    0.3760   13.6270   -3.2530 C   0  0  0  0  0  0  0  0  0  0  0  0
    1.4890   12.9360   -2.4600 C   0  0  2  0  0  0  0  0  0  0  0  0
    2.7260   12.7780   -3.4100 C   0  0  0  0  0  0  0  0  0  0  0  0
    0.1063    9.2909   -1.2586 H   0  0  0  0  0  0  0  0  0  0  0  0
   -0.8646    9.5842   -2.7411 H   0  0  0  0  0  0  0  0  0  0  0  0
    0.4166    8.3252   -2.7411 H   0  0  0  0  0  0  0  0  0  0  0  0
    0.8547   10.6899   -3.8268 H   0  0  0  0  0  0  0  0  0  0  0  0
    3.0352    9.7786   -1.9354 H   0  0  0  0  0  0  0  0  0  0  0  0
    2.4675    8.7469   -3.3341 H   0  0  0  0  0  0  0  0  0  0  0  0
    3.5372    9.9847   -4.8497 H   0  0  0  0  0  0  0  0  0  0  0  0
    3.0624   11.5371   -4.0425 H   0  0  0  0  0  0  0  0  0  0  0  0
    4.6092   10.0891   -2.4589 H   0  0  0  0  0  0  0  0  0  0  0  0
    5.4004    9.7491   -5.9729 H   0  0  0  0  0  0  0  0  0  0  0  0
    5.5934   11.5291   -6.1186 H   0  0  0  0  0  0  0  0  0  0  0  0
    7.0411   10.4657   -6.1186 H   0  0  0  0  0  0  0  0  0  0  0  0
    7.3381   10.4046   -2.4964 H   0  0  0  0  0  0  0  0  0  0  0  0
    7.7390    9.3727   -3.9110 H   0  0  0  0  0  0  0  0  0  0  0  0
    8.1901   11.1114   -3.9110 H   0  0  0  0  0  0  0  0  0  0  0  0
    0.1094   11.5167   -1.5349 H   0  0  0  0  0  0  0  0  0  0  0  0
    1.7357   10.9686    0.1663 H   0  0  0  0  0  0  0  0  0  0  0  0
    3.0216   10.7193   -1.0340 H   0  0  0  0  0  0  0  0  0  0  0  0
    2.7444   13.0095    0.6529 H   0  0  0  0  0  0  0  0  0  0  0  0
    3.7828   12.9499   -0.7691 H   0  0  0  0  0  0  0  0  0  0  0  0
    0.8897   13.8549    0.8497 H   0  0  0  0  0  0  0  0  0  0  0  0
    0.0256   14.8445   -0.3754 H   0  0  0  0  0  0  0  0  0  0  0  0
   -0.1542   13.0572   -0.3754 H   0  0  0  0  0  0  0  0  0  0  0  0
    3.2512   14.9092   -2.0912 H   0  0  0  0  0  0  0  0  0  0  0  0
    3.1154   15.3955    0.4353 H   0  0  0  0  0  0  0  0  0  0  0  0
    3.5535   16.7181   -0.7675 H   0  0  0  0  0  0  0  0  0  0  0  0
    1.9006   17.4023    1.1656 H   0  0  0  0  0  0  0  0  0  0  0  0
   -0.5273   15.9644   -1.7205 H   0  0  0  0  0  0  0  0  0  0  0  0
    0.4656   18.6638   -2.8287 H   0  0  0  0  0  0  0  0  0  0  0  0
   -0.6612   17.4945   -3.6494 H   0  0  0  0  0  0  0  0  0  0  0  0
   -1.8634   19.4227   -2.6699 H   0  0  0  0  0  0  0  0  0  0  0  0
   -2.3317   17.8452   -1.9230 H   0  0  0  0  0  0  0  0  0  0  0  0
   -2.0965   19.4812   -0.1844 H   0  0  0  0  0  0  0  0  0  0  0  0
   -0.1200   20.6190    0.0610 H   0  0  0  0  0  0  0  0  0  0  0  0
   -1.7536   16.9929    1.7960 H   0  0  0  0  0  0  0  0  0  0  0  0
   -2.6570   17.3899    0.2950 H   0  0  0  0  0  0  0  0  0  0  0  0
   -1.4597   16.0508    0.2950 H   0  0  0  0  0  0  0  0  0  0  0  0
   -0.4929   18.1765    2.4673 H   0  0  0  0  0  0  0  0  0  0  0  0
    0.9726   18.7911    1.6299 H   0  0  0  0  0  0  0  0  0  0  0  0
   -0.5367   19.7650    1.6299 H   0  0  0  0  0  0  0  0  0  0  0  0
    2.8943   17.5821   -2.5565 H   0  0  0  0  0  0  0  0  0  0  0  0
    3.0619   16.4367   -3.9300 H   0  0  0  0  0  0  0  0  0  0  0  0
    1.7387   17.6516   -3.9300 H   0  0  0  0  0  0  0  0  0  0  0  0
   -0.0841   15.5502   -4.0890 H   0  0  0  0  0  0  0  0  0  0  0  0
    1.6178   14.8897   -4.4080 H   0  0  0  0  0  0  0  0  0  0  0  0
   -0.5232   13.6988   -2.6235 H   0  0  0  0  0  0  0  0  0  0  0  0
    0.1676   13.0335   -4.1554 H   0  0  0  0  0  0  0  0  0  0  0  0
    3.6387   12.6614   -2.8072 H   0  0  0  0  0  0  0  0  0  0  0  0
    2.5898   11.8900   -4.0447 H   0  0  0  0  0  0  0  0  0  0  0  0
    2.8174   13.6718   -4.0447 H   0  0  0  0  0  0  0  0  0  0  0  0
  1  2  1  0
  2  3  1  0
  3  4  1  0
  4  5  1  0
  5  6  1  0
  6  7  1  0
  7  8  1  0
  7  9  1  0
  2 10  1  0
 10 11  1  0
 11 12  1  0
 12 13  1  0
 13 14  1  1
 13 15  1  0
 15 16  1  0
 16 17  1  0
 17 18  2  0
 18 19  1  0
 19 20  1  0
 20 21  1  0
 21 22  1  0
 22 23  1  0
 22 24  1  0
 24 25  1  0
 24 26  1  0
 19 27  1  0
 27 28  1  6
 27 29  1  0
 29 30  1  0
 30 31  1  0
 31 32  1  6
  7  5  1  0
 31 10  1  0
 31 13  1  0
 27 15  1  0
 24 18  1  0
  1 33  1  0
  1 34  1  0
  1 35  1  0
  2 36  1  6
  3 37  1  0
  3 38  1  0
  4 39  1  0
  4 40  1  0
  5 41  1  1
  8 42  1  0
  8 43  1  0
  8 44  1  0
  9 45  1  0
  9 46  1  0
  9 47  1  0
 10 48  1  1
 11 49  1  0
 11 50  1  0
 12 51  1  0
 12 52  1  0
 14 53  1  0
 14 54  1  0
 14 55  1  0
 15 56  1  6
 16 57  1  0
 16 58  1  0
 17 59  1  0
 19 60  1  1
 20 61  1  0
 20 62  1  0
 21 63  1  0
 21 64  1  0
 22 65  1  1
 23 66  1  0
 25 67  1  0
 25 68  1  0
 25 69  1  0
 26 70  1  0
 26 71  1  0
 26 72  1  0
 28 73  1  0
 28 74  1  0
 28 75  1  0
 29 76  1  0
 29 77  1  0
 30 78  1  0
 30 79  1  0
 32 80  1  0
 32 81  1  0
 32 82  1  0
M  END
>  <meeko>  (14) 
{"is_sidechain": [false], "intermolecular_energy": 2.731, "internal_energy": -0.839}

$$$$
EPH_relaxed_0001_pdb2pqr_Repair_81_r2_0001_out
     RDKit          3D

 82 86  0  0  0  0  0  0  0  0999 V2000
    2.8650   11.3490   -5.3210 C   0  0  0  0  0  0  0  0  0  0  0  0
    1.8530   11.0490   -4.2110 C   0  0  2  0  0  0  0  0  0  0  0  0
    0.7400   10.0930   -4.6840 C   0  0  0  0  0  0  0  0  0  0  0  0
   -0.3440    9.8410   -3.6320 C   0  0  0  0  0  0  0  0  0  0  0  0
    0.1760    9.0290   -2.4840 C   0  0  2  0  0  0  0  0  0  0  0  0
   -0.6810    7.9570   -2.0730 O   0  0  0  0  0  0  0  0  0  0  0  0
   -0.4730    9.0060   -1.1130 C   0  0  0  0  0  0  0  0  0  0  0  0
   -1.6990    9.8120   -0.8170 C   0  0  0  0  0  0  0  0  0  0  0  0
    0.3540    8.5920    0.0640 C   0  0  0  0  0  0  0  0  0  0  0  0
    1.2420   12.3480   -3.6990 C   0  0  1  0  0  0  0  0  0  0  0  0
   -0.2950   12.2520   -3.5130 C   0  0  0  0  0  0  0  0  0  0  0  0
   -0.6520   13.1210   -2.2800 C   0  0  0  0  0  0  0  0  0  0  0  0
    0.6270   13.9450   -2.0010 C   0  0  1  0  0  0  0  0  0  0  0  0
    0.5680   15.1330   -3.0120 C   0  0  0  0  0  0  0  0  0  0  0  0
    0.8200   14.4460   -0.5320 C   0  0  2  0  0  0  0  0  0  0  0  0
   -0.2630   15.4160   -0.0270 C   0  0  0  0  0  0  0  0  0  0  0  0
    0.0170   16.8630   -0.2600 C   0  0  0  0  0  0  0  0  0  0  0  0
    1.2130   17.3850   -0.5910 C   0  0  0  0  0  0  0  0  0  0  0  0
    2.4640   16.5000   -0.6680 C   0  0  1  0  0  0  0  0  0  0  0  0
    3.6370   17.1980    0.0700 C   0  0  0  0  0  0  0  0  0  0  0  0
    3.8910   18.6130   -0.4410 C   0  0  0  0  0  0  0  0  0  0  0  0
    2.6420   19.4770   -0.2950 C   0  0  2  0  0  0  0  0  0  0  0  0
    2.3730   19.6670    1.0980 O   0  0  0  0  0  0  0  0  0  0  0  0
    1.3910   18.8700   -0.9900 C   0  0  0  0  0  0  0  0  0  0  0  0
    1.5640   18.9440   -2.5270 C   0  0  0  0  0  0  0  0  0  0  0  0
    0.1710   19.7680   -0.6470 C   0  0  0  0  0  0  0  0  0  0  0  0
    2.2730   14.9880   -0.2170 C   0  0  1  0  0  0  0  0  0  0  0  0
    2.4700   14.8630    1.3240 C   0  0  0  0  0  0  0  0  0  0  0  0
    3.3960   14.1080   -0.8820 C   0  0  0  0  0  0  0  0  0  0  0  0
    3.0980   13.5420   -2.2830 C   0  0  0  0  0  0  0  0  0  0  0  0
    1.7250   12.8660   -2.3210 C   0  0  2  0  0  0  0  0  0  0  0  0
    1.7610   11.6530   -1.3300 C   0  0  0  0  0  0  0  0  0  0  0  0
    3.8278   11.6344   -4.8720 H   0  0  0  0  0  0  0  0  0  0  0  0
    3.0022   10.4529   -5.9440 H   0  0  0  0  0  0  0  0  0  0  0  0
    2.4917   12.1751   -5.9440 H   0  0  0  0  0  0  0  0  0  0  0  0
    2.3948   10.5473   -3.3957 H   0  0  0  0  0  0  0  0  0  0  0  0
    0.2643   10.5280   -5.5754 H   0  0  0  0  0  0  0  0  0  0  0  0
    1.2164    9.1238   -4.8929 H   0  0  0  0  0  0  0  0  0  0  0  0
   -0.7027   10.8085   -3.2508 H   0  0  0  0  0  0  0  0  0  0  0  0
   -1.1602    9.2781   -4.1084 H   0  0  0  0  0  0  0  0  0  0  0  0
    1.2145    9.1968   -2.8054 H   0  0  0  0  0  0  0  0  0  0  0  0
   -1.8280    9.8968    0.2721 H   0  0  0  0  0  0  0  0  0  0  0  0
   -1.5916   10.8163   -1.2528 H   0  0  0  0  0  0  0  0  0  0  0  0
   -2.5784    9.3153   -1.2528 H   0  0  0  0  0  0  0  0  0  0  0  0
   -0.1726    8.8556    0.9931 H   0  0  0  0  0  0  0  0  0  0  0  0
    0.5191    7.5049    0.0319 H   0  0  0  0  0  0  0  0  0  0  0  0
    1.3232    9.1112    0.0319 H   0  0  0  0  0  0  0  0  0  0  0  0
    1.5707   13.0330   -4.4945 H   0  0  0  0  0  0  0  0  0  0  0  0
   -0.8093   12.6340   -4.4072 H   0  0  0  0  0  0  0  0  0  0  0  0
   -0.6103   11.2086   -3.3651 H   0  0  0  0  0  0  0  0  0  0  0  0
   -1.5002   13.7844   -2.5047 H   0  0  0  0  0  0  0  0  0  0  0  0
   -0.9543   12.5133   -1.4143 H   0  0  0  0  0  0  0  0  0  0  0  0
    0.5208   16.0829   -2.4592 H   0  0  0  0  0  0  0  0  0  0  0  0
    1.4678   15.1212   -3.6446 H   0  0  0  0  0  0  0  0  0  0  0  0
   -0.3262   15.0321   -3.6446 H   0  0  0  0  0  0  0  0  0  0  0  0
    0.6910   13.5224    0.0513 H   0  0  0  0  0  0  0  0  0  0  0  0
   -1.2062   15.1664   -0.5351 H   0  0  0  0  0  0  0  0  0  0  0  0
   -0.3021   15.2861    1.0646 H   0  0  0  0  0  0  0  0  0  0  0  0
   -0.8251   17.5624   -0.1522 H   0  0  0  0  0  0  0  0  0  0  0  0
    2.7012   16.4005   -1.7375 H   0  0  0  0  0  0  0  0  0  0  0  0
    3.3987   17.2480    1.1427 H   0  0  0  0  0  0  0  0  0  0  0  0
    4.5465   16.6078   -0.1158 H   0  0  0  0  0  0  0  0  0  0  0  0
    4.7103   19.0635    0.1385 H   0  0  0  0  0  0  0  0  0  0  0  0
    4.1584   18.5591   -1.5066 H   0  0  0  0  0  0  0  0  0  0  0  0
    2.8444   20.4354   -0.7956 H   0  0  0  0  0  0  0  0  0  0  0  0
    2.6330   18.8530    1.5610 H   0  0  0  0  0  0  0  0  0  0  0  0
    2.5514   19.3664   -2.7649 H   0  0  0  0  0  0  0  0  0  0  0  0
    1.4850   17.9333   -2.9540 H   0  0  0  0  0  0  0  0  0  0  0  0
    0.7785   19.5849   -2.9540 H   0  0  0  0  0  0  0  0  0  0  0  0
    0.0674   19.8442    0.4455 H   0  0  0  0  0  0  0  0  0  0  0  0
    0.3232   20.7712   -1.0718 H   0  0  0  0  0  0  0  0  0  0  0  0
   -0.7416   19.3245   -1.0718 H   0  0  0  0  0  0  0  0  0  0  0  0
    1.6505   15.3830    1.8418 H   0  0  0  0  0  0  0  0  0  0  0  0
    2.4681   13.8005    1.6089 H   0  0  0  0  0  0  0  0  0  0  0  0
    3.4305   15.3173    1.6089 H   0  0  0  0  0  0  0  0  0  0  0  0
    4.3017   14.7275   -0.9594 H   0  0  0  0  0  0  0  0  0  0  0  0
    3.4936   13.2267   -0.2310 H   0  0  0  0  0  0  0  0  0  0  0  0
    3.1147   14.3638   -3.0140 H   0  0  0  0  0  0  0  0  0  0  0  0
    3.8646   12.7923   -2.5284 H   0  0  0  0  0  0  0  0  0  0  0  0
    1.7500   12.0248   -0.2948 H   0  0  0  0  0  0  0  0  0  0  0  0
    0.8814   11.0146   -1.4997 H   0  0  0  0  0  0  0  0  0  0  0  0
    2.6769   11.0679   -1.4997 H   0  0  0  0  0  0  0  0  0  0  0  0
  1  2  1  0
  2  3  1  0
  3  4  1  0
  4  5  1  0
  5  6  1  0
  6  7  1  0
  7  8  1  0
  7  9  1  0
  2 10  1  0
 10 11  1  0
 11 12  1  0
 12 13  1  0
 13 14  1  6
 13 15  1  0
 15 16  1  0
 16 17  1  0
 17 18  2  0
 18 19  1  0
 19 20  1  0
 20 21  1  0
 21 22  1  0
 22 23  1  0
 22 24  1  0
 24 25  1  0
 24 26  1  0
 19 27  1  0
 27 28  1  1
 27 29  1  0
 29 30  1  0
 30 31  1  0
 31 32  1  1
  7  5  1  0
 31 10  1  0
 31 13  1  0
 27 15  1  0
 24 18  1  0
  1 33  1  0
  1 34  1  0
  1 35  1  0
  2 36  1  1
  3 37  1  0
  3 38  1  0
  4 39  1  0
  4 40  1  0
  5 41  1  1
  8 42  1  0
  8 43  1  0
  8 44  1  0
  9 45  1  0
  9 46  1  0
  9 47  1  0
 10 48  1  6
 11 49  1  0
 11 50  1  0
 12 51  1  0
 12 52  1  0
 14 53  1  0
 14 54  1  0
 14 55  1  0
 15 56  1  1
 16 57  1  0
 16 58  1  0
 17 59  1  0
 19 60  1  6
 20 61  1  0
 20 62  1  0
 21 63  1  0
 21 64  1  0
 22 65  1  6
 23 66  1  0
 25 67  1  0
 25 68  1  0
 25 69  1  0
 26 70  1  0
 26 71  1  0
 26 72  1  0
 28 73  1  0
 28 74  1  0
 28 75  1  0
 29 76  1  0
 29 77  1  0
 30 78  1  0
 30 79  1  0
 32 80  1  0
 32 81  1  0
 32 82  1  0
M  END
>  <meeko>  (15) 
{"is_sidechain": [false], "intermolecular_energy": 2.731, "internal_energy": -0.839}

$$$$
EPH_relaxed_0001_pdb2pqr_Repair_81_r2_0001_out
     RDKit          3D

 82 86  0  0  0  0  0  0  0  0999 V2000
   -1.9840    9.6040   -0.1540 C   0  0  0  0  0  0  0  0  0  0  0  0
   -1.5740   10.5660   -1.2720 C   0  0  2  0  0  0  0  0  0  0  0  0
   -0.6800    9.8830   -2.3270 C   0  0  0  0  0  0  0  0  0  0  0  0
    0.6980    9.4770   -1.7970 C   0  0  0  0  0  0  0  0  0  0  0  0
    1.8000    9.9740   -2.6820 C   0  0  2  0  0  0  0  0  0  0  0  0
    2.9670    9.1410   -2.7100 O   0  0  0  0  0  0  0  0  0  0  0  0
    3.1400   10.4570   -2.1590 C   0  0  0  0  0  0  0  0  0  0  0  0
    3.4480   10.4670   -0.6940 C   0  0  0  0  0  0  0  0  0  0  0  0
    3.9590   11.3680   -3.0190 C   0  0  0  0  0  0  0  0  0  0  0  0
   -0.8530   11.7720   -0.6820 C   0  0  1  0  0  0  0  0  0  0  0  0
    0.3190   11.3690    0.2530 C   0  0  0  0  0  0  0  0  0  0  0  0
    1.4270   12.4380    0.0680 C   0  0  0  0  0  0  0  0  0  0  0  0
    0.7350   13.5870   -0.7030 C   0  0  1  0  0  0  0  0  0  0  0  0
   -0.0370   14.3940    0.3880 C   0  0  0  0  0  0  0  0  0  0  0  0
    1.6690   14.5100   -1.5510 C   0  0  2  0  0  0  0  0  0  0  0  0
    2.7180   15.2950   -0.7440 C   0  0  0  0  0  0  0  0  0  0  0  0
    2.2820   16.6430   -0.2730 C   0  0  0  0  0  0  0  0  0  0  0  0
    1.2090   17.3200   -0.7220 C   0  0  0  0  0  0  0  0  0  0  0  0
    0.3610   16.7740   -1.8790 C   0  0  1  0  0  0  0  0  0  0  0  0
    0.0870   17.9090   -2.9000 C   0  0  0  0  0  0  0  0  0  0  0  0
   -0.5350   19.1420   -2.2520 C   0  0  0  0  0  0  0  0  0  0  0  0
    0.3640   19.6890   -1.1470 C   0  0  2  0  0  0  0  0  0  0  0  0
    1.5670   20.1920   -1.7380 O   0  0  0  0  0  0  0  0  0  0  0  0
    0.7170   18.6320   -0.0640 C   0  0  0  0  0  0  0  0  0  0  0  0
   -0.5420   18.3110    0.7790 C   0  0  0  0  0  0  0  0  0  0  0  0
    1.7410   19.2720    0.9120 C   0  0  0  0  0  0  0  0  0  0  0  0
    0.9020   15.4490   -2.5690 C   0  0  1  0  0  0  0  0  0  0  0  0
    1.9200   15.8110   -3.6940 C   0  0  0  0  0  0  0  0  0  0  0  0
   -0.2970   14.7110   -3.2760 C   0  0  0  0  0  0  0  0  0  0  0  0
   -1.1070   13.7220   -2.4170 C   0  0  0  0  0  0  0  0  0  0  0  0
   -0.1810   12.7550   -1.6730 C   0  0  2  0  0  0  0  0  0  0  0  0
    0.5930   11.9140   -2.7440 C   0  0  0  0  0  0  0  0  0  0  0  0
   -1.7852   10.0703    0.8222 H   0  0  0  0  0  0  0  0  0  0  0  0
   -3.0569    9.3773   -0.2404 H   0  0  0  0  0  0  0  0  0  0  0  0
   -1.4044    8.6731   -0.2404 H   0  0  0  0  0  0  0  0  0  0  0  0
   -2.4932   10.8938   -1.7796 H   0  0  0  0  0  0  0  0  0  0  0  0
   -1.1944    8.9790   -2.6852 H   0  0  0  0  0  0  0  0  0  0  0  0
   -0.5122   10.6165   -3.1294 H   0  0  0  0  0  0  0  0  0  0  0  0
    0.8314    9.8993   -0.7901 H   0  0  0  0  0  0  0  0  0  0  0  0
    0.7463    8.3783   -1.7730 H   0  0  0  0  0  0  0  0  0  0  0  0
    1.0731   10.4234   -3.3745 H   0  0  0  0  0  0  0  0  0  0  0  0
    2.5091   10.4365   -0.1217 H   0  0  0  0  0  0  0  0  0  0  0  0
    4.0598    9.5882   -0.4419 H   0  0  0  0  0  0  0  0  0  0  0  0
    4.0015   11.3836   -0.4419 H   0  0  0  0  0  0  0  0  0  0  0  0
    4.5580   12.0343   -2.3809 H   0  0  0  0  0  0  0  0  0  0  0  0
    4.6284   10.7691   -3.6541 H   0  0  0  0  0  0  0  0  0  0  0  0
    3.2925   11.9701   -3.6541 H   0  0  0  0  0  0  0  0  0  0  0  0
   -1.6990   12.2643   -0.1800 H   0  0  0  0  0  0  0  0  0  0  0  0
   -0.0199   11.3519    1.2994 H   0  0  0  0  0  0  0  0  0  0  0  0
    0.6939   10.3648    0.0059 H   0  0  0  0  0  0  0  0  0  0  0  0
    1.7936   12.7903    1.0434 H   0  0  0  0  0  0  0  0  0  0  0  0
    2.3024   12.0433   -0.4685 H   0  0  0  0  0  0  0  0  0  0  0  0
    0.2827   14.0598    1.3861 H   0  0  0  0  0  0  0  0  0  0  0  0
    0.1802   15.4662    0.2733 H   0  0  0  0  0  0  0  0  0  0  0  0
   -1.1178   14.2245    0.2733 H   0  0  0  0  0  0  0  0  0  0  0  0
    2.2361   13.7835   -2.1516 H   0  0  0  0  0  0  0  0  0  0  0  0
    2.9852   14.6963    0.1393 H   0  0  0  0  0  0  0  0  0  0  0  0
    3.5608   15.4697   -1.4290 H   0  0  0  0  0  0  0  0  0  0  0  0
    2.8897   17.1239    0.5077 H   0  0  0  0  0  0  0  0  0  0  0  0
   -0.5861   16.4388   -1.4311 H   0  0  0  0  0  0  0  0  0  0  0  0
    1.0391   18.1993   -3.3683 H   0  0  0  0  0  0  0  0  0  0  0  0
   -0.6288   17.5249   -3.6417 H   0  0  0  0  0  0  0  0  0  0  0  0
   -0.6770   19.9185   -3.0181 H   0  0  0  0  0  0  0  0  0  0  0  0
   -1.5011   18.8569   -1.8100 H   0  0  0  0  0  0  0  0  0  0  0  0
   -0.1922   20.4882   -0.6353 H   0  0  0  0  0  0  0  0  0  0  0  0
    2.2190   20.3080   -1.0260 H   0  0  0  0  0  0  0  0  0  0  0  0
   -0.2931   18.3745    1.8486 H   0  0  0  0  0  0  0  0  0  0  0  0
   -1.3354   19.0356    0.5436 H   0  0  0  0  0  0  0  0  0  0  0  0
   -0.8917   17.2950    0.5436 H   0  0  0  0  0  0  0  0  0  0  0  0
    1.4300   19.0776    1.9491 H   0  0  0  0  0  0  0  0  0  0  0  0
    2.7352   18.8343    0.7392 H   0  0  0  0  0  0  0  0  0  0  0  0
    1.7832   20.3575    0.7392 H   0  0  0  0  0  0  0  0  0  0  0  0
    2.8641   16.1467   -3.2401 H   0  0  0  0  0  0  0  0  0  0  0  0
    2.1078   14.9246   -4.3176 H   0  0  0  0  0  0  0  0  0  0  0  0
    1.5060   16.6170   -4.3176 H   0  0  0  0  0  0  0  0  0  0  0  0
   -0.9923   15.4808   -3.6420 H   0  0  0  0  0  0  0  0  0  0  0  0
    0.1663   14.0970   -4.0623 H   0  0  0  0  0  0  0  0  0  0  0  0
   -1.7021   14.2861   -1.6837 H   0  0  0  0  0  0  0  0  0  0  0  0
   -1.7636   13.1387   -3.0793 H   0  0  0  0  0  0  0  0  0  0  0  0
    1.2544   11.1953   -2.2379 H   0  0  0  0  0  0  0  0  0  0  0  0
   -0.1268   11.3698   -3.3731 H   0  0  0  0  0  0  0  0  0  0  0  0
    1.1949   12.5862   -3.3731 H   0  0  0  0  0  0  0  0  0  0  0  0
  1  2  1  0
  2  3  1  0
  3  4  1  0
  4  5  1  0
  5  6  1  0
  6  7  1  0
  7  8  1  0
  7  9  1  0
  2 10  1  0
 10 11  1  0
 11 12  1  0
 12 13  1  0
 13 14  1  1
 13 15  1  0
 15 16  1  0
 16 17  1  0
 17 18  2  0
 18 19  1  0
 19 20  1  0
 20 21  1  0
 21 22  1  0
 22 23  1  0
 22 24  1  0
 24 25  1  0
 24 26  1  0
 19 27  1  0
 27 28  1  6
 27 29  1  0
 29 30  1  0
 30 31  1  0
 31 32  1  6
  7  5  1  0
 31 10  1  0
 31 13  1  0
 27 15  1  0
 24 18  1  0
  1 33  1  0
  1 34  1  0
  1 35  1  0
  2 36  1  6
  3 37  1  0
  3 38  1  0
  4 39  1  0
  4 40  1  0
  5 41  1  6
  8 42  1  0
  8 43  1  0
  8 44  1  0
  9 45  1  0
  9 46  1  0
  9 47  1  0
 10 48  1  1
 11 49  1  0
 11 50  1  0
 12 51  1  0
 12 52  1  0
 14 53  1  0
 14 54  1  0
 14 55  1  0
 15 56  1  6
 16 57  1  0
 16 58  1  0
 17 59  1  0
 19 60  1  1
 20 61  1  0
 20 62  1  0
 21 63  1  0
 21 64  1  0
 22 65  1  1
 23 66  1  0
 25 67  1  0
 25 68  1  0
 25 69  1  0
 26 70  1  0
 26 71  1  0
 26 72  1  0
 28 73  1  0
 28 74  1  0
 28 75  1  0
 29 76  1  0
 29 77  1  0
 30 78  1  0
 30 79  1  0
 32 80  1  0
 32 81  1  0
 32 82  1  0
M  END
>  <meeko>  (16) 
{"is_sidechain": [false], "intermolecular_energy": 2.731, "internal_energy": -0.839}

$$$$
EPH_relaxed_0001_pdb2pqr_Repair_81_r2_0001_out
     RDKit          3D

 82 86  0  0  0  0  0  0  0  0999 V2000
    3.1120   14.8350   -7.5540 C   0  0  0  0  0  0  0  0  0  0  0  0
    1.5880   14.8760   -7.4040 C   0  0  2  0  0  0  0  0  0  0  0  0
    0.9730   16.1210   -8.0730 C   0  0  0  0  0  0  0  0  0  0  0  0
    1.8980   16.7950   -9.0900 C   0  0  0  0  0  0  0  0  0  0  0  0
    1.5690   16.3880  -10.4940 C   0  0  2  0  0  0  0  0  0  0  0  0
    0.9890   15.0830  -10.6190 O   0  0  0  0  0  0  0  0  0  0  0  0
    2.2770   15.2640  -11.2280 C   0  0  0  0  0  0  0  0  0  0  0  0
    3.3730   14.4780  -10.5790 C   0  0  0  0  0  0  0  0  0  0  0  0
    2.2440   15.2540  -12.7240 C   0  0  0  0  0  0  0  0  0  0  0  0
    1.2100   14.8370   -5.9280 C   0  0  1  0  0  0  0  0  0  0  0  0
   -0.0390   15.7010   -5.6080 C   0  0  0  0  0  0  0  0  0  0  0  0
   -0.8160   14.9650   -4.4870 C   0  0  0  0  0  0  0  0  0  0  0  0
    0.1680   13.8900   -3.9710 C   0  0  1  0  0  0  0  0  0  0  0  0
    1.1140   14.6500   -2.9890 C   0  0  0  0  0  0  0  0  0  0  0  0
   -0.4730   12.6330   -3.2970 C   0  0  2  0  0  0  0  0  0  0  0  0
   -1.2830   12.9180   -2.0200 C   0  0  0  0  0  0  0  0  0  0  0  0
   -0.5070   12.8580   -0.7460 C   0  0  0  0  0  0  0  0  0  0  0  0
    0.7140   12.3110   -0.5990 C   0  0  0  0  0  0  0  0  0  0  0  0
    1.3990   11.5870   -1.7650 C   0  0  1  0  0  0  0  0  0  0  0  0
    1.9810   10.2380   -1.2680 C   0  0  0  0  0  0  0  0  0  0  0  0
    2.9020   10.4070   -0.0640 C   0  0  0  0  0  0  0  0  0  0  0  0
    2.1690   11.0770    1.0950 C   0  0  2  0  0  0  0  0  0  0  0  0
    1.1530   10.1890    1.5730 O   0  0  0  0  0  0  0  0  0  0  0  0
    1.5310   12.4410    0.7100 C   0  0  0  0  0  0  0  0  0  0  0  0
    2.6470   13.4920    0.4840 C   0  0  0  0  0  0  0  0  0  0  0  0
    0.7040   12.9420    1.9250 C   0  0  0  0  0  0  0  0  0  0  0  0
    0.5310   11.4270   -3.0870 C   0  0  1  0  0  0  0  0  0  0  0  0
   -0.3370   10.1350   -3.0010 C   0  0  0  0  0  0  0  0  0  0  0  0
    1.4970   11.2320   -4.3150 C   0  0  0  0  0  0  0  0  0  0  0  0
    2.0010   12.5100   -5.0130 C   0  0  0  0  0  0  0  0  0  0  0  0
    0.8400   13.4590   -5.3250 C   0  0  2  0  0  0  0  0  0  0  0  0
   -0.1170   12.7290   -6.3280 C   0  0  0  0  0  0  0  0  0  0  0  0
    3.5783   14.8225   -6.5578 H   0  0  0  0  0  0  0  0  0  0  0  0
    3.4019   13.9287   -8.1060 H   0  0  0  0  0  0  0  0  0  0  0  0
    3.4502   15.7244   -8.1060 H   0  0  0  0  0  0  0  0  0  0  0  0
    1.1806   13.9913   -7.9152 H   0  0  0  0  0  0  0  0  0  0  0  0
    0.0511   15.8172   -8.5904 H   0  0  0  0  0  0  0  0  0  0  0  0
    0.7850   16.8543   -7.2749 H   0  0  0  0  0  0  0  0  0  0  0  0
    1.7909   17.8861   -9.0009 H   0  0  0  0  0  0  0  0  0  0  0  0
    2.9301   16.4811   -8.8752 H   0  0  0  0  0  0  0  0  0  0  0  0
    1.3561   17.4311  -10.7709 H   0  0  0  0  0  0  0  0  0  0  0  0
    3.2761   14.5475   -9.4855 H   0  0  0  0  0  0  0  0  0  0  0  0
    3.3008   13.4246  -10.8873 H   0  0  0  0  0  0  0  0  0  0  0  0
    4.3476   14.8843  -10.8873 H   0  0  0  0  0  0  0  0  0  0  0  0
    1.2437   14.9509  -13.0667 H   0  0  0  0  0  0  0  0  0  0  0  0
    2.4716   16.2614  -13.1025 H   0  0  0  0  0  0  0  0  0  0  0  0
    2.9925   14.5423  -13.1025 H   0  0  0  0  0  0  0  0  0  0  0  0
    2.1501   15.2002   -5.4873 H   0  0  0  0  0  0  0  0  0  0  0  0
    0.2690   16.6991   -5.2630 H   0  0  0  0  0  0  0  0  0  0  0  0
   -0.6665   15.8346   -6.5015 H   0  0  0  0  0  0  0  0  0  0  0  0
   -1.0873   15.6621   -3.6805 H   0  0  0  0  0  0  0  0  0  0  0  0
   -1.7579   14.5281   -4.8502 H   0  0  0  0  0  0  0  0  0  0  0  0
    0.8276   14.4199   -1.9522 H   0  0  0  0  0  0  0  0  0  0  0  0
    2.1530   14.3326   -3.1614 H   0  0  0  0  0  0  0  0  0  0  0  0
    1.0280   15.7330   -3.1614 H   0  0  0  0  0  0  0  0  0  0  0  0
   -1.2069   12.3108   -4.0504 H   0  0  0  0  0  0  0  0  0  0  0  0
   -1.7136   13.9263   -2.1086 H   0  0  0  0  0  0  0  0  0  0  0  0
   -2.0381   12.1208   -1.9543 H   0  0  0  0  0  0  0  0  0  0  0  0
   -0.9725   13.2981    0.1482 H   0  0  0  0  0  0  0  0  0  0  0  0
    2.2156   12.2463   -2.0942 H   0  0  0  0  0  0  0  0  0  0  0  0
    1.1482    9.5774   -0.9850 H   0  0  0  0  0  0  0  0  0  0  0  0
    2.5771    9.8093   -2.0871 H   0  0  0  0  0  0  0  0  0  0  0  0
    3.2572    9.4173    0.2590 H   0  0  0  0  0  0  0  0  0  0  0  0
    3.7497   11.0435   -0.3576 H   0  0  0  0  0  0  0  0  0  0  0  0
    2.9128   11.2882    1.8774 H   0  0  0  0  0  0  0  0  0  0  0  0
    1.4070    9.9060    2.4670 H   0  0  0  0  0  0  0  0  0  0  0  0
    3.0212   13.8444    1.4565 H   0  0  0  0  0  0  0  0  0  0  0  0
    3.4718   13.0350   -0.0825 H   0  0  0  0  0  0  0  0  0  0  0  0
    2.2403   14.3427   -0.0825 H   0  0  0  0  0  0  0  0  0  0  0  0
    1.2028   12.6398    2.8577 H   0  0  0  0  0  0  0  0  0  0  0  0
    0.6271   14.0387    1.8890 H   0  0  0  0  0  0  0  0  0  0  0  0
   -0.3037   12.5024    1.8890 H   0  0  0  0  0  0  0  0  0  0  0  0
   -0.5093    9.8786   -1.9453 H   0  0  0  0  0  0  0  0  0  0  0  0
   -1.3026   10.3082   -3.4985 H   0  0  0  0  0  0  0  0  0  0  0  0
    0.1884    9.3065   -3.4985 H   0  0  0  0  0  0  0  0  0  0  0  0
    2.3781   10.6771   -3.9603 H   0  0  0  0  0  0  0  0  0  0  0  0
    0.8963   10.7081   -5.0731 H   0  0  0  0  0  0  0  0  0  0  0  0
    2.7167   13.0220   -4.3530 H   0  0  0  0  0  0  0  0  0  0  0  0
    2.4849   12.2252   -5.9589 H   0  0  0  0  0  0  0  0  0  0  0  0
   -0.8688   12.1555   -5.7660 H   0  0  0  0  0  0  0  0  0  0  0  0
   -0.6217   13.4736   -6.9611 H   0  0  0  0  0  0  0  0  0  0  0  0
    0.4677   12.0454   -6.9611 H   0  0  0  0  0  0  0  0  0  0  0  0
  1  2  1  0
  2  3  1  0
  3  4  1  0
  4  5  1  0
  5  6  1  0
  6  7  1  0
  7  8  1  0
  7  9  1  0
  2 10  1  0
 10 11  1  0
 11 12  1  0
 12 13  1  0
 13 14  1  1
 13 15  1  0
 15 16  1  0
 16 17  1  0
 17 18  2  0
 18 19  1  0
 19 20  1  0
 20 21  1  0
 21 22  1  0
 22 23  1  0
 22 24  1  0
 24 25  1  0
 24 26  1  0
 19 27  1  0
 27 28  1  1
 27 29  1  0
 29 30  1  0
 30 31  1  0
 31 32  1  6
  7  5  1  0
 31 10  1  0
 31 13  1  0
 27 15  1  0
 24 18  1  0
  1 33  1  0
  1 34  1  0
  1 35  1  0
  2 36  1  6
  3 37  1  0
  3 38  1  0
  4 39  1  0
  4 40  1  0
  5 41  1  6
  8 42  1  0
  8 43  1  0
  8 44  1  0
  9 45  1  0
  9 46  1  0
  9 47  1  0
 10 48  1  1
 11 49  1  0
 11 50  1  0
 12 51  1  0
 12 52  1  0
 14 53  1  0
 14 54  1  0
 14 55  1  0
 15 56  1  6
 16 57  1  0
 16 58  1  0
 17 59  1  0
 19 60  1  6
 20 61  1  0
 20 62  1  0
 21 63  1  0
 21 64  1  0
 22 65  1  1
 23 66  1  0
 25 67  1  0
 25 68  1  0
 25 69  1  0
 26 70  1  0
 26 71  1  0
 26 72  1  0
 28 73  1  0
 28 74  1  0
 28 75  1  0
 29 76  1  0
 29 77  1  0
 30 78  1  0
 30 79  1  0
 32 80  1  0
 32 81  1  0
 32 82  1  0
M  END
>  <meeko>  (17) 
{"is_sidechain": [false], "intermolecular_energy": 2.731, "internal_energy": -0.839}

$$$$
EPH_relaxed_0001_pdb2pqr_Repair_81_r2_0001_out
     RDKit          3D

 82 86  0  0  0  0  0  0  0  0999 V2000
    0.0380    9.3800   -4.1170 C   0  0  0  0  0  0  0  0  0  0  0  0
    0.1480    9.6040   -2.6060 C   0  0  2  0  0  0  0  0  0  0  0  0
   -0.6790    8.5780   -1.8050 C   0  0  0  0  0  0  0  0  0  0  0  0
   -1.4700    7.6050   -2.6830 C   0  0  0  0  0  0  0  0  0  0  0  0
   -2.9090    8.0060   -2.7980 C   0  0  2  0  0  0  0  0  0  0  0  0
   -3.7190    7.6610   -1.6660 O   0  0  0  0  0  0  0  0  0  0  0  0
   -4.0500    7.0110   -2.9040 C   0  0  0  0  0  0  0  0  0  0  0  0
   -3.8000    5.5350   -2.9030 C   0  0  0  0  0  0  0  0  0  0  0  0
   -5.3450    7.4680   -3.4980 C   0  0  0  0  0  0  0  0  0  0  0  0
   -0.2990   11.0190   -2.2570 C   0  0  1  0  0  0  0  0  0  0  0  0
   -1.5340   11.0410   -1.3170 C   0  0  0  0  0  0  0  0  0  0  0  0
   -1.3600   12.2630   -0.3780 C   0  0  0  0  0  0  0  0  0  0  0  0
   -0.2180   13.0860   -1.0180 C   0  0  1  0  0  0  0  0  0  0  0  0
   -0.9020   13.9020   -2.1600 C   0  0  0  0  0  0  0  0  0  0  0  0
    0.5910   14.0120   -0.0520 C   0  0  2  0  0  0  0  0  0  0  0  0
   -0.2270   15.1280    0.6190 C   0  0  0  0  0  0  0  0  0  0  0  0
   -0.2760   16.4210   -0.1260 C   0  0  0  0  0  0  0  0  0  0  0  0
    0.5390   16.7700   -1.1390 C   0  0  0  0  0  0  0  0  0  0  0  0
    1.6990   15.8620   -1.5660 C   0  0  1  0  0  0  0  0  0  0  0  0
    2.9850   16.7120   -1.7410 C   0  0  0  0  0  0  0  0  0  0  0  0
    2.7850   17.8880   -2.6920 C   0  0  0  0  0  0  0  0  0  0  0  0
    1.6620   18.7990   -2.2030 C   0  0  2  0  0  0  0  0  0  0  0  0
    2.0730   19.4220   -0.9820 O   0  0  0  0  0  0  0  0  0  0  0  0
    0.3180   18.0510   -1.9810 C   0  0  0  0  0  0  0  0  0  0  0  0
   -0.2790   17.6360   -3.3490 C   0  0  0  0  0  0  0  0  0  0  0  0
   -0.6890   19.0530   -1.3540 C   0  0  0  0  0  0  0  0  0  0  0  0
    1.9370   14.5730   -0.6680 C   0  0  1  0  0  0  0  0  0  0  0  0
    2.8640   14.9260    0.5360 C   0  0  0  0  0  0  0  0  0  0  0  0
    2.7040   13.4900   -1.5150 C   0  0  0  0  0  0  0  0  0  0  0  0
    1.8430   12.5280   -2.3560 C   0  0  0  0  0  0  0  0  0  0  0  0
    0.7160   11.9220   -1.5140 C   0  0  2  0  0  0  0  0  0  0  0  0
    1.3740   11.0780   -0.3700 C   0  0  0  0  0  0  0  0  0  0  0  0
   -0.4394    8.4079   -4.3098 H   0  0  0  0  0  0  0  0  0  0  0  0
   -0.5690   10.1815   -4.5633 H   0  0  0  0  0  0  0  0  0  0  0  0
    1.0434    9.3897   -4.5633 H   0  0  0  0  0  0  0  0  0  0  0  0
    1.2032    9.4674   -2.3270 H   0  0  0  0  0  0  0  0  0  0  0  0
    0.0078    7.9958   -1.1731 H   0  0  0  0  0  0  0  0  0  0  0  0
   -1.4123    9.1469   -1.2145 H   0  0  0  0  0  0  0  0  0  0  0  0
   -1.0233    7.5881   -3.6881 H   0  0  0  0  0  0  0  0  0  0  0  0
   -1.4278    6.6100   -2.2158 H   0  0  0  0  0  0  0  0  0  0  0  0
   -2.6396    8.8862   -3.4002 H   0  0  0  0  0  0  0  0  0  0  0  0
   -3.7389    5.1742   -1.8657 H   0  0  0  0  0  0  0  0  0  0  0  0
   -4.6242    5.0232   -3.4213 H   0  0  0  0  0  0  0  0  0  0  0  0
   -2.8532    5.3231   -3.4213 H   0  0  0  0  0  0  0  0  0  0  0  0
   -6.0506    7.7170   -2.6917 H   0  0  0  0  0  0  0  0  0  0  0  0
   -5.1693    8.3584   -4.1195 H   0  0  0  0  0  0  0  0  0  0  0  0
   -5.7671    6.6645   -4.1195 H   0  0  0  0  0  0  0  0  0  0  0  0
   -0.4799   11.4100   -3.2691 H   0  0  0  0  0  0  0  0  0  0  0  0
   -2.4569   11.1447   -1.9065 H   0  0  0  0  0  0  0  0  0  0  0  0
   -1.6081   10.1072   -0.7403 H   0  0  0  0  0  0  0  0  0  0  0  0
   -2.2868   12.8538   -0.3334 H   0  0  0  0  0  0  0  0  0  0  0  0
   -1.1316   11.9657    0.6561 H   0  0  0  0  0  0  0  0  0  0  0  0
   -1.5499   14.6749   -1.7209 H   0  0  0  0  0  0  0  0  0  0  0  0
   -0.1307   14.3799   -2.7818 H   0  0  0  0  0  0  0  0  0  0  0  0
   -1.5073   13.2260   -2.7818 H   0  0  0  0  0  0  0  0  0  0  0  0
    0.8729   13.3210    0.7561 H   0  0  0  0  0  0  0  0  0  0  0  0
   -1.2589   14.7667    0.7403 H   0  0  0  0  0  0  0  0  0  0  0  0
    0.2795   15.3452    1.5710 H   0  0  0  0  0  0  0  0  0  0  0  0
   -1.0421   17.1493    0.1783 H   0  0  0  0  0  0  0  0  0  0  0  0
    1.4048   15.4273   -2.5327 H   0  0  0  0  0  0  0  0  0  0  0  0
    3.2867   17.1014   -0.7575 H   0  0  0  0  0  0  0  0  0  0  0  0
    3.7588   16.0609   -2.1738 H   0  0  0  0  0  0  0  0  0  0  0  0
    3.7186   18.4668   -2.7504 H   0  0  0  0  0  0  0  0  0  0  0  0
    2.5132   17.4961   -3.6833 H   0  0  0  0  0  0  0  0  0  0  0  0
    1.4782   19.5465   -2.9888 H   0  0  0  0  0  0  0  0  0  0  0  0
    2.9420   19.8300   -1.1370 H   0  0  0  0  0  0  0  0  0  0  0  0
   -1.1722   17.0151   -3.1860 H   0  0  0  0  0  0  0  0  0  0  0  0
   -0.5570   18.5366   -3.9161 H   0  0  0  0  0  0  0  0  0  0  0  0
    0.4683   17.0617   -3.9161 H   0  0  0  0  0  0  0  0  0  0  0  0
   -0.6299   18.9942   -0.2572 H   0  0  0  0  0  0  0  0  0  0  0  0
   -0.4417   20.0740   -1.6803 H   0  0  0  0  0  0  0  0  0  0  0  0
   -1.7087   18.8006   -1.6803 H   0  0  0  0  0  0  0  0  0  0  0  0
    2.3339   14.7241    1.4784 H   0  0  0  0  0  0  0  0  0  0  0  0
    3.7755   14.3120    0.4893 H   0  0  0  0  0  0  0  0  0  0  0  0
    3.1363   15.9907    0.4893 H   0  0  0  0  0  0  0  0  0  0  0  0
    3.3777   14.0216   -2.2031 H   0  0  0  0  0  0  0  0  0  0  0  0
    3.2100   12.8518   -0.7757 H   0  0  0  0  0  0  0  0  0  0  0  0
    1.4043   13.0816   -3.1993 H   0  0  0  0  0  0  0  0  0  0  0  0
    2.4842   11.7128   -2.7223 H   0  0  0  0  0  0  0  0  0  0  0  0
    1.0624   11.4777    0.6063 H   0  0  0  0  0  0  0  0  0  0  0  0
    1.0525   10.0296   -0.4565 H   0  0  0  0  0  0  0  0  0  0  0  0
    2.4692   11.1340   -0.4565 H   0  0  0  0  0  0  0  0  0  0  0  0
  1  2  1  0
  2  3  1  0
  3  4  1  0
  4  5  1  0
  5  6  1  0
  6  7  1  0
  7  8  1  0
  7  9  1  0
  2 10  1  0
 10 11  1  0
 11 12  1  0
 12 13  1  0
 13 14  1  6
 13 15  1  0
 15 16  1  0
 16 17  1  0
 17 18  2  0
 18 19  1  0
 19 20  1  0
 20 21  1  0
 21 22  1  0
 22 23  1  0
 22 24  1  0
 24 25  1  0
 24 26  1  0
 19 27  1  0
 27 28  1  1
 27 29  1  0
 29 30  1  0
 30 31  1  0
 31 32  1  1
  7  5  1  0
 31 10  1  0
 31 13  1  0
 27 15  1  0
 24 18  1  0
  1 33  1  0
  1 34  1  0
  1 35  1  0
  2 36  1  1
  3 37  1  0
  3 38  1  0
  4 39  1  0
  4 40  1  0
  5 41  1  6
  8 42  1  0
  8 43  1  0
  8 44  1  0
  9 45  1  0
  9 46  1  0
  9 47  1  0
 10 48  1  6
 11 49  1  0
 11 50  1  0
 12 51  1  0
 12 52  1  0
 14 53  1  0
 14 54  1  0
 14 55  1  0
 15 56  1  1
 16 57  1  0
 16 58  1  0
 17 59  1  0
 19 60  1  6
 20 61  1  0
 20 62  1  0
 21 63  1  0
 21 64  1  0
 22 65  1  6
 23 66  1  0
 25 67  1  0
 25 68  1  0
 25 69  1  0
 26 70  1  0
 26 71  1  0
 26 72  1  0
 28 73  1  0
 28 74  1  0
 28 75  1  0
 29 76  1  0
 29 77  1  0
 30 78  1  0
 30 79  1  0
 32 80  1  0
 32 81  1  0
 32 82  1  0
M  END
>  <meeko>  (18) 
{"is_sidechain": [false], "intermolecular_energy": 2.731, "internal_energy": -0.839}

$$$$
EPH_relaxed_0001_pdb2pqr_Repair_81_r2_0001_out
     RDKit          3D

 82 86  0  0  0  0  0  0  0  0999 V2000
    3.4570   17.9180   -0.8000 C   0  0  0  0  0  0  0  0  0  0  0  0
    2.2370   17.4200   -1.5790 C   0  0  2  0  0  0  0  0  0  0  0  0
    0.9120   17.7830   -0.8770 C   0  0  0  0  0  0  0  0  0  0  0  0
    0.9920   19.0590   -0.0350 C   0  0  0  0  0  0  0  0  0  0  0  0
   -0.2540   19.8830   -0.1590 C   0  0  2  0  0  0  0  0  0  0  0  0
   -0.8920   20.1940    1.0870 O   0  0  0  0  0  0  0  0  0  0  0  0
   -1.6380   19.3640    0.1820 C   0  0  0  0  0  0  0  0  0  0  0  0
   -1.8480   17.9660    0.6720 C   0  0  0  0  0  0  0  0  0  0  0  0
   -2.8260   20.0460   -0.4210 C   0  0  0  0  0  0  0  0  0  0  0  0
    2.3260   15.9110   -1.7750 C   0  0  1  0  0  0  0  0  0  0  0  0
    3.7900   15.4090   -1.8900 C   0  0  0  0  0  0  0  0  0  0  0  0
    3.8390   14.0140   -1.2170 C   0  0  0  0  0  0  0  0  0  0  0  0
    2.3550   13.6160   -1.0350 C   0  0  1  0  0  0  0  0  0  0  0  0
    1.9130   13.0670   -2.4280 C   0  0  0  0  0  0  0  0  0  0  0  0
    2.0490   12.5970    0.1110 C   0  0  2  0  0  0  0  0  0  0  0  0
    2.7000   11.2130   -0.0560 C   0  0  0  0  0  0  0  0  0  0  0  0
    1.8780   10.2060   -0.7900 C   0  0  0  0  0  0  0  0  0  0  0  0
    0.5600   10.3090   -1.0470 C   0  0  0  0  0  0  0  0  0  0  0  0
   -0.2600   11.4830   -0.4970 C   0  0  1  0  0  0  0  0  0  0  0  0
   -1.5780   10.9490    0.1220 C   0  0  0  0  0  0  0  0  0  0  0  0
   -2.3750   10.0860   -0.8510 C   0  0  0  0  0  0  0  0  0  0  0  0
   -1.5450    8.8970   -1.3300 C   0  0  2  0  0  0  0  0  0  0  0  0
   -1.3110    8.0220   -0.2220 O   0  0  0  0  0  0  0  0  0  0  0  0
   -0.1890    9.3120   -1.9650 C   0  0  0  0  0  0  0  0  0  0  0  0
   -0.4410   10.0020   -3.3280 C   0  0  0  0  0  0  0  0  0  0  0  0
    0.6090    8.0170   -2.2760 C   0  0  0  0  0  0  0  0  0  0  0  0
    0.5140   12.4740    0.4750 C   0  0  1  0  0  0  0  0  0  0  0  0
    0.4450   11.9440    1.9400 C   0  0  0  0  0  0  0  0  0  0  0  0
   -0.2160   13.8700    0.4730 C   0  0  0  0  0  0  0  0  0  0  0  0
    0.2160   14.8770   -0.6100 C   0  0  0  0  0  0  0  0  0  0  0  0
    1.7410   15.0130   -0.6560 C   0  0  2  0  0  0  0  0  0  0  0  0
    2.2130   15.5840    0.7240 C   0  0  0  0  0  0  0  0  0  0  0  0
    3.2606   17.8378    0.2794 H   0  0  0  0  0  0  0  0  0  0  0  0
    4.3330   17.3055   -1.0598 H   0  0  0  0  0  0  0  0  0  0  0  0
    3.6541   18.9686   -1.0598 H   0  0  0  0  0  0  0  0  0  0  0  0
    2.2411   17.9229   -2.5573 H   0  0  0  0  0  0  0  0  0  0  0  0
    0.1381   17.9223   -1.6462 H   0  0  0  0  0  0  0  0  0  0  0  0
    0.6757   16.9578   -0.1891 H   0  0  0  0  0  0  0  0  0  0  0  0
    1.1327   18.7818    1.0202 H   0  0  0  0  0  0  0  0  0  0  0  0
    1.8383   19.6591   -0.4007 H   0  0  0  0  0  0  0  0  0  0  0  0
    0.1438   20.3934   -1.0486 H   0  0  0  0  0  0  0  0  0  0  0  0
   -1.8490   17.9593    1.7720 H   0  0  0  0  0  0  0  0  0  0  0  0
   -2.8129   17.5889    0.3021 H   0  0  0  0  0  0  0  0  0  0  0  0
   -1.0365   17.3220    0.3021 H   0  0  0  0  0  0  0  0  0  0  0  0
   -3.4794   20.4211    0.3805 H   0  0  0  0  0  0  0  0  0  0  0  0
   -2.4887   20.8880   -1.0433 H   0  0  0  0  0  0  0  0  0  0  0  0
   -3.3830   19.3301   -1.0433 H   0  0  0  0  0  0  0  0  0  0  0  0
    1.7270   15.8084   -2.6919 H   0  0  0  0  0  0  0  0  0  0  0  0
    4.0811   15.3296   -2.9478 H   0  0  0  0  0  0  0  0  0  0  0  0
    4.4862   16.1072   -1.4023 H   0  0  0  0  0  0  0  0  0  0  0  0
    4.3590   13.2900   -1.8615 H   0  0  0  0  0  0  0  0  0  0  0  0
    4.3865   14.0301   -0.2631 H   0  0  0  0  0  0  0  0  0  0  0  0
    1.2289   12.2173   -2.2870 H   0  0  0  0  0  0  0  0  0  0  0  0
    1.3998   13.8617   -2.9893 H   0  0  0  0  0  0  0  0  0  0  0  0
    2.7989   12.7352   -2.9893 H   0  0  0  0  0  0  0  0  0  0  0  0
    2.5465   13.0582    0.9769 H   0  0  0  0  0  0  0  0  0  0  0  0
    3.6444   11.3455   -0.6042 H   0  0  0  0  0  0  0  0  0  0  0  0
    2.8329   10.8146    0.9607 H   0  0  0  0  0  0  0  0  0  0  0  0
    2.3924    9.3034   -1.1516 H   0  0  0  0  0  0  0  0  0  0  0  0
   -0.4873   12.1262   -1.3599 H   0  0  0  0  0  0  0  0  0  0  0  0
   -1.3320   10.3455    1.0082 H   0  0  0  0  0  0  0  0  0  0  0  0
   -2.1998   11.8180    0.3831 H   0  0  0  0  0  0  0  0  0  0  0  0
   -3.2787    9.7143   -0.3458 H   0  0  0  0  0  0  0  0  0  0  0  0
   -2.6471   10.6989   -1.7229 H   0  0  0  0  0  0  0  0  0  0  0  0
   -2.1186    8.3914   -2.1208 H   0  0  0  0  0  0  0  0  0  0  0  0
   -2.0040    8.1920    0.4380 H   0  0  0  0  0  0  0  0  0  0  0  0
   -0.8139   11.0229   -3.1587 H   0  0  0  0  0  0  0  0  0  0  0  0
    0.4996   10.0447   -3.8968 H   0  0  0  0  0  0  0  0  0  0  0  0
   -1.1877    9.4285   -3.8968 H   0  0  0  0  0  0  0  0  0  0  0  0
    0.9064    7.5343   -1.3334 H   0  0  0  0  0  0  0  0  0  0  0  0
   -0.0217    7.3284   -2.8575 H   0  0  0  0  0  0  0  0  0  0  0  0
    1.5076    8.2708   -2.8575 H   0  0  0  0  0  0  0  0  0  0  0  0
    0.5546   12.7855    2.6399 H   0  0  0  0  0  0  0  0  0  0  0  0
   -0.5247   11.4523    2.1067 H   0  0  0  0  0  0  0  0  0  0  0  0
    1.2565   11.2204    2.1067 H   0  0  0  0  0  0  0  0  0  0  0  0
   -1.2922   13.6828    0.3434 H   0  0  0  0  0  0  0  0  0  0  0  0
    0.0577   14.3399    1.4292 H   0  0  0  0  0  0  0  0  0  0  0  0
   -0.1438   14.5285   -1.5893 H   0  0  0  0  0  0  0  0  0  0  0  0
   -0.2163   15.8591   -0.3679 H   0  0  0  0  0  0  0  0  0  0  0  0
    1.7413   15.0134    1.5376 H   0  0  0  0  0  0  0  0  0  0  0  0
    3.3068   15.4976    0.8018 H   0  0  0  0  0  0  0  0  0  0  0  0
    1.9223   16.6420    0.8018 H   0  0  0  0  0  0  0  0  0  0  0  0
  1  2  1  0
  2  3  1  0
  3  4  1  0
  4  5  1  0
  5  6  1  0
  6  7  1  0
  7  8  1  0
  7  9  1  0
  2 10  1  0
 10 11  1  0
 11 12  1  0
 12 13  1  0
 13 14  1  6
 13 15  1  0
 15 16  1  0
 16 17  1  0
 17 18  2  0
 18 19  1  0
 19 20  1  0
 20 21  1  0
 21 22  1  0
 22 23  1  0
 22 24  1  0
 24 25  1  0
 24 26  1  0
 19 27  1  0
 27 28  1  1
 27 29  1  0
 29 30  1  0
 30 31  1  0
 31 32  1  1
  7  5  1  0
 31 10  1  0
 31 13  1  0
 27 15  1  0
 24 18  1  0
  1 33  1  0
  1 34  1  0
  1 35  1  0
  2 36  1  6
  3 37  1  0
  3 38  1  0
  4 39  1  0
  4 40  1  0
  5 41  1  6
  8 42  1  0
  8 43  1  0
  8 44  1  0
  9 45  1  0
  9 46  1  0
  9 47  1  0
 10 48  1  6
 11 49  1  0
 11 50  1  0
 12 51  1  0
 12 52  1  0
 14 53  1  0
 14 54  1  0
 14 55  1  0
 15 56  1  1
 16 57  1  0
 16 58  1  0
 17 59  1  0
 19 60  1  6
 20 61  1  0
 20 62  1  0
 21 63  1  0
 21 64  1  0
 22 65  1  6
 23 66  1  0
 25 67  1  0
 25 68  1  0
 25 69  1  0
 26 70  1  0
 26 71  1  0
 26 72  1  0
 28 73  1  0
 28 74  1  0
 28 75  1  0
 29 76  1  0
 29 77  1  0
 30 78  1  0
 30 79  1  0
 32 80  1  0
 32 81  1  0
 32 82  1  0
M  END
>  <meeko>  (19) 
{"is_sidechain": [false], "intermolecular_energy": 2.731, "internal_energy": -0.839}

$$$$
