EPH_relaxed_0001_pdb2pqr_Repair_196_r2_0001_out
     RDKit          3D

 82 86  0  0  0  0  0  0  0  0999 V2000
   -0.7920   19.7840    0.3030 C   0  0  0  0  0  0  0  0  0  0  0  0
    0.4510   19.1510    0.9350 C   0  0  2  0  0  0  0  0  0  0  0  0
    1.5540   20.1910    1.2150 C   0  0  0  0  0  0  0  0  0  0  0  0
    2.1900   20.0560    2.6010 C   0  0  0  0  0  0  0  0  0  0  0  0
    3.6860   20.0200    2.5240 C   0  0  2  0  0  0  0  0  0  0  0  0
    4.2660   18.7250    2.7330 O   0  0  0  0  0  0  0  0  0  0  0  0
    4.5790   19.7260    3.7150 C   0  0  0  0  0  0  0  0  0  0  0  0
    4.0070   19.4500    5.0700 C   0  0  0  0  0  0  0  0  0  0  0  0
    6.0030   20.1870    3.6730 C   0  0  0  0  0  0  0  0  0  0  0  0
    0.9910   18.0510    0.0290 C   0  0  1  0  0  0  0  0  0  0  0  0
    2.4670   18.2910   -0.3880 C   0  0  0  0  0  0  0  0  0  0  0  0
    3.1390   16.8960   -0.4770 C   0  0  0  0  0  0  0  0  0  0  0  0
    1.9630   15.8930   -0.4360 C   0  0  1  0  0  0  0  0  0  0  0  0
    1.4130   15.8600   -1.8970 C   0  0  0  0  0  0  0  0  0  0  0  0
    2.2960   14.4580    0.0870 C   0  0  2  0  0  0  0  0  0  0  0  0
    3.3140   13.6740   -0.7600 C   0  0  0  0  0  0  0  0  0  0  0  0
    2.7270   12.8370   -1.8480 C   0  0  0  0  0  0  0  0  0  0  0  0
    1.4310   12.4920   -1.9570 C   0  0  0  0  0  0  0  0  0  0  0  0
    0.4200   12.8740   -0.8680 C   0  0  1  0  0  0  0  0  0  0  0  0
   -0.4560   11.6420   -0.5190 C   0  0  0  0  0  0  0  0  0  0  0  0
   -1.1240   11.0330   -1.7480 C   0  0  0  0  0  0  0  0  0  0  0  0
   -0.0840   10.6130   -2.7830 C   0  0  2  0  0  0  0  0  0  0  0  0
    0.6860    9.5310   -2.2500 O   0  0  0  0  0  0  0  0  0  0  0  0
    0.8630   11.7710   -3.2040 C   0  0  0  0  0  0  0  0  0  0  0  0
    0.0780   12.8050   -4.0490 C   0  0  0  0  0  0  0  0  0  0  0  0
    1.9510   11.1810   -4.1420 C   0  0  0  0  0  0  0  0  0  0  0  0
    1.0240   13.5780    0.4220 C   0  0  1  0  0  0  0  0  0  0  0  0
    1.4870   12.5000    1.4500 C   0  0  0  0  0  0  0  0  0  0  0  0
   -0.1080   14.4100    1.1320 C   0  0  0  0  0  0  0  0  0  0  0  0
   -0.3100   15.8610    0.6520 C   0  0  0  0  0  0  0  0  0  0  0  0
    1.0250   16.6110    0.6010 C   0  0  2  0  0  0  0  0  0  0  0  0
    1.5910   16.6790    2.0600 C   0  0  0  0  0  0  0  0  0  0  0  0
   -1.4710   20.1298    1.0963 H   0  0  0  0  0  0  0  0  0  0  0  0
   -0.4913   20.6388   -0.3206 H   0  0  0  0  0  0  0  0  0  0  0  0
   -1.3065   19.0381   -0.3206 H   0  0  0  0  0  0  0  0  0  0  0  0
    0.1487   18.7222    1.9018 H   0  0  0  0  0  0  0  0  0  0  0  0
    2.3431   20.0726    0.4578 H   0  0  0  0  0  0  0  0  0  0  0  0
    1.0787   21.1822    1.1747 H   0  0  0  0  0  0  0  0  0  0  0  0
    1.8855   20.9143    3.2179 H   0  0  0  0  0  0  0  0  0  0  0  0
    1.8469   19.1097    3.0446 H   0  0  0  0  0  0  0  0  0  0  0  0
    3.6901   20.8313    1.7812 H   0  0  0  0  0  0  0  0  0  0  0  0
    4.7126   19.7905    5.8422 H   0  0  0  0  0  0  0  0  0  0  0  0
    3.0537   19.9872    5.1819 H   0  0  0  0  0  0  0  0  0  0  0  0
    3.8343   18.3694    5.1819 H   0  0  0  0  0  0  0  0  0  0  0  0
    6.3794   20.3088    4.6994 H   0  0  0  0  0  0  0  0  0  0  0  0
    6.6145   19.4409    3.1444 H   0  0  0  0  0  0  0  0  0  0  0  0
    6.0612   21.1499    3.1444 H   0  0  0  0  0  0  0  0  0  0  0  0
    0.2610   18.1133   -0.7915 H   0  0  0  0  0  0  0  0  0  0  0  0
    2.5075   18.7941   -1.3654 H   0  0  0  0  0  0  0  0  0  0  0  0
    2.9840   18.9328    0.3405 H   0  0  0  0  0  0  0  0  0  0  0  0
    3.7024   16.7956   -1.4164 H   0  0  0  0  0  0  0  0  0  0  0  0
    3.8595   16.7274    0.3369 H   0  0  0  0  0  0  0  0  0  0  0  0
    0.3152   15.7941   -1.8741 H   0  0  0  0  0  0  0  0  0  0  0  0
    1.7144   16.7778   -2.4231 H   0  0  0  0  0  0  0  0  0  0  0  0
    1.8220   14.9848   -2.4231 H   0  0  0  0  0  0  0  0  0  0  0  0
    2.8000   14.6673    1.0421 H   0  0  0  0  0  0  0  0  0  0  0  0
    4.0017   14.3980   -1.2214 H   0  0  0  0  0  0  0  0  0  0  0  0
    3.8091   12.9742   -0.0707 H   0  0  0  0  0  0  0  0  0  0  0  0
    3.4123   12.4712   -2.6268 H   0  0  0  0  0  0  0  0  0  0  0  0
   -0.2074   13.6673   -1.3005 H   0  0  0  0  0  0  0  0  0  0  0  0
    0.1808   10.8782   -0.0488 H   0  0  0  0  0  0  0  0  0  0  0  0
   -1.2519   11.9797    0.1611 H   0  0  0  0  0  0  0  0  0  0  0  0
   -1.7041   10.1499   -1.4419 H   0  0  0  0  0  0  0  0  0  0  0  0
   -1.7832   11.7889   -2.1998 H   0  0  0  0  0  0  0  0  0  0  0  0
   -0.6259   10.3058   -3.6896 H   0  0  0  0  0  0  0  0  0  0  0  0
    1.6250    9.7480   -2.3760 H   0  0  0  0  0  0  0  0  0  0  0  0
   -0.4499   13.5004   -3.3798 H   0  0  0  0  0  0  0  0  0  0  0  0
    0.7786   13.3675   -4.6836 H   0  0  0  0  0  0  0  0  0  0  0  0
   -0.6521   12.2814   -4.6836 H   0  0  0  0  0  0  0  0  0  0  0  0
    2.7585   10.7431   -3.5369 H   0  0  0  0  0  0  0  0  0  0  0  0
    1.5044   10.4015   -4.7767 H   0  0  0  0  0  0  0  0  0  0  0  0
    2.3607   11.9805   -4.7767 H   0  0  0  0  0  0  0  0  0  0  0  0
    1.3261   12.8746    2.4717 H   0  0  0  0  0  0  0  0  0  0  0  0
    0.9054   11.5782    1.3016 H   0  0  0  0  0  0  0  0  0  0  0  0
    2.5559   12.2870    1.3016 H   0  0  0  0  0  0  0  0  0  0  0  0
   -1.0575   13.8750    0.9827 H   0  0  0  0  0  0  0  0  0  0  0  0
    0.2131   14.4961    2.1806 H   0  0  0  0  0  0  0  0  0  0  0  0
   -0.7549   15.8489   -0.3539 H   0  0  0  0  0  0  0  0  0  0  0  0
   -0.9755   16.3760    1.3604 H   0  0  0  0  0  0  0  0  0  0  0  0
    0.7644   16.5797    2.7790 H   0  0  0  0  0  0  0  0  0  0  0  0
    2.3102   15.8608    2.2128 H   0  0  0  0  0  0  0  0  0  0  0  0
    2.0959   17.6443    2.2128 H   0  0  0  0  0  0  0  0  0  0  0  0
  1  2  1  0
  2  3  1  0
  3  4  1  0
  4  5  1  0
  5  6  1  0
  6  7  1  0
  7  8  1  0
  7  9  1  0
  2 10  1  0
 10 11  1  0
 11 12  1  0
 12 13  1  0
 13 14  1  6
 13 15  1  0
 15 16  1  0
 16 17  1  0
 17 18  2  0
 18 19  1  0
 19 20  1  0
 20 21  1  0
 21 22  1  0
 22 23  1  0
 22 24  1  0
 24 25  1  0
 24 26  1  0
 19 27  1  0
 27 28  1  1
 27 29  1  0
 29 30  1  0
 30 31  1  0
 31 32  1  1
  7  5  1  0
 31 10  1  0
 31 13  1  0
 27 15  1  0
 24 18  1  0
  1 33  1  0
  1 34  1  0
  1 35  1  0
  2 36  1  1
  3 37  1  0
  3 38  1  0
  4 39  1  0
  4 40  1  0
  5 41  1  6
  8 42  1  0
  8 43  1  0
  8 44  1  0
  9 45  1  0
  9 46  1  0
  9 47  1  0
 10 48  1  6
 11 49  1  0
 11 50  1  0
 12 51  1  0
 12 52  1  0
 14 53  1  0
 14 54  1  0
 14 55  1  0
 15 56  1  1
 16 57  1  0
 16 58  1  0
 17 59  1  0
 19 60  1  6
 20 61  1  0
 20 62  1  0
 21 63  1  0
 21 64  1  0
 22 65  1  6
 23 66  1  0
 25 67  1  0
 25 68  1  0
 25 69  1  0
 26 70  1  0
 26 71  1  0
 26 72  1  0
 28 73  1  0
 28 74  1  0
 28 75  1  0
 29 76  1  0
 29 77  1  0
 30 78  1  0
 30 79  1  0
 32 80  1  0
 32 81  1  0
 32 82  1  0
M  END
>  <meeko>  (1) 
{"is_sidechain": [false], "intermolecular_energy": 2.731, "internal_energy": -0.839}

$$$$
EPH_relaxed_0001_pdb2pqr_Repair_196_r2_0001_out
     RDKit          3D

 82 86  0  0  0  0  0  0  0  0999 V2000
    0.6560    9.4940   -1.9040 C   0  0  0  0  0  0  0  0  0  0  0  0
    1.4120   10.4960   -2.7810 C   0  0  2  0  0  0  0  0  0  0  0  0
    2.9310   10.4710   -2.5140 C   0  0  0  0  0  0  0  0  0  0  0  0
    3.7590   11.1510   -3.6080 C   0  0  0  0  0  0  0  0  0  0  0  0
    5.2090   11.2300   -3.2360 C   0  0  2  0  0  0  0  0  0  0  0  0
    5.9470   12.2520   -3.9190 O   0  0  0  0  0  0  0  0  0  0  0  0
    6.3370   10.8970   -4.1950 C   0  0  0  0  0  0  0  0  0  0  0  0
    6.0640   10.4590   -5.5990 C   0  0  0  0  0  0  0  0  0  0  0  0
    7.6720   10.5270   -3.6270 C   0  0  0  0  0  0  0  0  0  0  0  0
    0.8670   11.9010   -2.5540 C   0  0  1  0  0  0  0  0  0  0  0  0
   -0.6850   11.9470   -2.5550 C   0  0  0  0  0  0  0  0  0  0  0  0
   -1.1010   13.0260   -1.5220 C   0  0  0  0  0  0  0  0  0  0  0  0
    0.2070   13.7910   -1.2090 C   0  0  1  0  0  0  0  0  0  0  0  0
    0.3730   14.8010   -2.3860 C   0  0  0  0  0  0  0  0  0  0  0  0
    0.2720   14.5060    0.1800 C   0  0  2  0  0  0  0  0  0  0  0  0
   -0.7690   15.6190    0.3900 C   0  0  0  0  0  0  0  0  0  0  0  0
   -0.3330   16.9870   -0.0200 C   0  0  0  0  0  0  0  0  0  0  0  0
    0.9350   17.3610   -0.2700 C   0  0  0  0  0  0  0  0  0  0  0  0
    2.1010   16.3890   -0.0510 C   0  0  1  0  0  0  0  0  0  0  0  0
    3.2390   17.1100    0.7180 C   0  0  0  0  0  0  0  0  0  0  0  0
    3.6780   18.4030    0.0360 C   0  0  0  0  0  0  0  0  0  0  0  0
    2.5040   19.3670   -0.1110 C   0  0  2  0  0  0  0  0  0  0  0  0
    2.0940   19.7970    1.1910 O   0  0  0  0  0  0  0  0  0  0  0  0
    1.2920   18.7470   -0.8620 C   0  0  0  0  0  0  0  0  0  0  0  0
    1.6480   18.5600   -2.3580 C   0  0  0  0  0  0  0  0  0  0  0  0
    0.1270   19.7720   -0.8180 C   0  0  0  0  0  0  0  0  0  0  0  0
    1.7220   14.9860    0.5940 C   0  0  1  0  0  0  0  0  0  0  0  0
    1.7280   15.0970    2.1490 C   0  0  0  0  0  0  0  0  0  0  0  0
    2.8310   13.9320    0.2200 C   0  0  0  0  0  0  0  0  0  0  0  0
    2.6470   13.1720   -1.1070 C   0  0  0  0  0  0  0  0  0  0  0  0
    1.2310   12.5980   -1.2190 C   0  0  2  0  0  0  0  0  0  0  0  0
    1.0420   11.5610   -0.0600 C   0  0  0  0  0  0  0  0  0  0  0  0
    0.8327    9.7282   -0.8439 H   0  0  0  0  0  0  0  0  0  0  0  0
   -0.4209    9.5579   -2.1191 H   0  0  0  0  0  0  0  0  0  0  0  0
    1.0131    8.4760   -2.1191 H   0  0  0  0  0  0  0  0  0  0  0  0
    1.2557   10.2016   -3.8293 H   0  0  0  0  0  0  0  0  0  0  0  0
    3.1248   10.9856   -1.5613 H   0  0  0  0  0  0  0  0  0  0  0  0
    3.2360    9.4144   -2.4896 H   0  0  0  0  0  0  0  0  0  0  0  0
    3.6607   10.5748   -4.5398 H   0  0  0  0  0  0  0  0  0  0  0  0
    3.3813   12.1760   -3.7373 H   0  0  0  0  0  0  0  0  0  0  0  0
    4.9893   10.8970   -2.2109 H   0  0  0  0  0  0  0  0  0  0  0  0
    5.4822    9.5256   -5.5853 H   0  0  0  0  0  0  0  0  0  0  0  0
    5.4923   11.2398   -6.1221 H   0  0  0  0  0  0  0  0  0  0  0  0
    7.0167   10.2896   -6.1221 H   0  0  0  0  0  0  0  0  0  0  0  0
    7.6198   10.5415   -2.5283 H   0  0  0  0  0  0  0  0  0  0  0  0
    7.9486    9.5183   -3.9677 H   0  0  0  0  0  0  0  0  0  0  0  0
    8.4284   11.2494   -3.9677 H   0  0  0  0  0  0  0  0  0  0  0  0
    1.3474   12.4232   -3.3945 H   0  0  0  0  0  0  0  0  0  0  0  0
   -1.0554   12.2171   -3.5549 H   0  0  0  0  0  0  0  0  0  0  0  0
   -1.1095   10.9662   -2.2945 H   0  0  0  0  0  0  0  0  0  0  0  0
   -1.8543   13.7036   -1.9502 H   0  0  0  0  0  0  0  0  0  0  0  0
   -1.5541   12.5879   -0.6205 H   0  0  0  0  0  0  0  0  0  0  0  0
    0.5389   15.8106   -1.9821 H   0  0  0  0  0  0  0  0  0  0  0  0
    1.2348   14.5067   -3.0030 H   0  0  0  0  0  0  0  0  0  0  0  0
   -0.5377   14.7980   -3.0030 H   0  0  0  0  0  0  0  0  0  0  0  0
   -0.0083   13.6998    0.8739 H   0  0  0  0  0  0  0  0  0  0  0  0
   -1.6657   15.3596   -0.1919 H   0  0  0  0  0  0  0  0  0  0  0  0
   -0.9461   15.6688    1.4745 H   0  0  0  0  0  0  0  0  0  0  0  0
   -1.1145   17.7537   -0.1266 H   0  0  0  0  0  0  0  0  0  0  0  0
    2.4513   16.1033   -1.0538 H   0  0  0  0  0  0  0  0  0  0  0  0
    2.8837   17.3488    1.7313 H   0  0  0  0  0  0  0  0  0  0  0  0
    4.1064   16.4339    0.7421 H   0  0  0  0  0  0  0  0  0  0  0  0
    4.4627   18.8808    0.6409 H   0  0  0  0  0  0  0  0  0  0  0  0
    4.0603   18.1594   -0.9662 H   0  0  0  0  0  0  0  0  0  0  0  0
    2.8492   20.2160   -0.7193 H   0  0  0  0  0  0  0  0  0  0  0  0
    1.2870   19.3070    1.4220 H   0  0  0  0  0  0  0  0  0  0  0  0
    2.6189   18.0500   -2.4429 H   0  0  0  0  0  0  0  0  0  0  0  0
    0.8713   17.9535   -2.8467 H   0  0  0  0  0  0  0  0  0  0  0  0
    1.7066   19.5437   -2.8467 H   0  0  0  0  0  0  0  0  0  0  0  0
   -0.1261   19.9947    0.2291 H   0  0  0  0  0  0  0  0  0  0  0  0
    0.4341   20.6981   -1.3259 H   0  0  0  0  0  0  0  0  0  0  0  0
   -0.7525   19.3495   -1.3259 H   0  0  0  0  0  0  0  0  0  0  0  0
    1.6736   14.0902    2.5887 H   0  0  0  0  0  0  0  0  0  0  0  0
    2.6542   15.5911    2.4778 H   0  0  0  0  0  0  0  0  0  0  0  0
    0.8605   15.6881    2.4778 H   0  0  0  0  0  0  0  0  0  0  0  0
    3.7922   14.4644    0.1681 H   0  0  0  0  0  0  0  0  0  0  0  0
    2.7724   13.1620    1.0034 H   0  0  0  0  0  0  0  0  0  0  0  0
    2.8223   13.8631   -1.9447 H   0  0  0  0  0  0  0  0  0  0  0  0
    3.3659   12.3400   -1.1370 H   0  0  0  0  0  0  0  0  0  0  0  0
    1.1353   12.0731    0.9090 H   0  0  0  0  0  0  0  0  0  0  0  0
    0.0454   11.1019   -0.1376 H   0  0  0  0  0  0  0  0  0  0  0  0
    1.8126   10.7799   -0.1376 H   0  0  0  0  0  0  0  0  0  0  0  0
  1  2  1  0
  2  3  1  0
  3  4  1  0
  4  5  1  0
  5  6  1  0
  6  7  1  0
  7  8  1  0
  7  9  1  0
  2 10  1  0
 10 11  1  0
 11 12  1  0
 12 13  1  0
 13 14  1  6
 13 15  1  0
 15 16  1  0
 16 17  1  0
 17 18  2  0
 18 19  1  0
 19 20  1  0
 20 21  1  0
 21 22  1  0
 22 23  1  0
 22 24  1  0
 24 25  1  0
 24 26  1  0
 19 27  1  0
 27 28  1  1
 27 29  1  0
 29 30  1  0
 30 31  1  0
 31 32  1  1
  7  5  1  0
 31 10  1  0
 31 13  1  0
 27 15  1  0
 24 18  1  0
  1 33  1  0
  1 34  1  0
  1 35  1  0
  2 36  1  6
  3 37  1  0
  3 38  1  0
  4 39  1  0
  4 40  1  0
  5 41  1  1
  8 42  1  0
  8 43  1  0
  8 44  1  0
  9 45  1  0
  9 46  1  0
  9 47  1  0
 10 48  1  6
 11 49  1  0
 11 50  1  0
 12 51  1  0
 12 52  1  0
 14 53  1  0
 14 54  1  0
 14 55  1  0
 15 56  1  1
 16 57  1  0
 16 58  1  0
 17 59  1  0
 19 60  1  6
 20 61  1  0
 20 62  1  0
 21 63  1  0
 21 64  1  0
 22 65  1  6
 23 66  1  0
 25 67  1  0
 25 68  1  0
 25 69  1  0
 26 70  1  0
 26 71  1  0
 26 72  1  0
 28 73  1  0
 28 74  1  0
 28 75  1  0
 29 76  1  0
 29 77  1  0
 30 78  1  0
 30 79  1  0
 32 80  1  0
 32 81  1  0
 32 82  1  0
M  END
>  <meeko>  (2) 
{"is_sidechain": [false], "intermolecular_energy": 2.731, "internal_energy": -0.839}

$$$$
EPH_relaxed_0001_pdb2pqr_Repair_196_r2_0001_out
     RDKit          3D

 82 86  0  0  0  0  0  0  0  0999 V2000
   -1.3870   19.3630   -0.2330 C   0  0  0  0  0  0  0  0  0  0  0  0
   -0.1210   18.8710    0.4750 C   0  0  2  0  0  0  0  0  0  0  0  0
    0.9830   19.9470    0.5050 C   0  0  0  0  0  0  0  0  0  0  0  0
    1.7460   20.0080    1.8310 C   0  0  0  0  0  0  0  0  0  0  0  0
    3.2290   19.9560    1.6200 C   0  0  2  0  0  0  0  0  0  0  0  0
    3.8260   18.6770    1.8720 O   0  0  0  0  0  0  0  0  0  0  0  0
    4.2280   19.7480    2.7430 C   0  0  0  0  0  0  0  0  0  0  0  0
    3.7820   19.5780    4.1610 C   0  0  0  0  0  0  0  0  0  0  0  0
    5.6410   20.1940    2.5360 C   0  0  0  0  0  0  0  0  0  0  0  0
    0.3980   17.6110   -0.2070 C   0  0  1  0  0  0  0  0  0  0  0  0
    1.7480   17.8400   -0.9380 C   0  0  0  0  0  0  0  0  0  0  0  0
    2.5630   16.5290   -0.7950 C   0  0  0  0  0  0  0  0  0  0  0  0
    1.5400   15.4880   -0.2830 C   0  0  1  0  0  0  0  0  0  0  0  0
    0.7720   15.0190   -1.5590 C   0  0  0  0  0  0  0  0  0  0  0  0
    2.1260   14.2780    0.5150 C   0  0  2  0  0  0  0  0  0  0  0  0
    3.0840   13.3740   -0.2810 C   0  0  0  0  0  0  0  0  0  0  0  0
    2.4380   12.2310   -0.9930 C   0  0  0  0  0  0  0  0  0  0  0  0
    1.1930   11.7720   -0.7670 C   0  0  0  0  0  0  0  0  0  0  0  0
    0.3300   12.3570    0.3580 C   0  0  1  0  0  0  0  0  0  0  0  0
   -0.3220   11.2020    1.1640 C   0  0  0  0  0  0  0  0  0  0  0  0
   -1.0980   10.2350    0.2760 C   0  0  0  0  0  0  0  0  0  0  0  0
   -0.1920    9.6300   -0.7940 C   0  0  2  0  0  0  0  0  0  0  0  0
    0.7790    8.7950   -0.1570 O   0  0  0  0  0  0  0  0  0  0  0  0
    0.5270   10.6990   -1.6630 C   0  0  0  0  0  0  0  0  0  0  0  0
   -0.5040   11.4030   -2.5800 C   0  0  0  0  0  0  0  0  0  0  0  0
    1.5150    9.9610   -2.6070 C   0  0  0  0  0  0  0  0  0  0  0  0
    1.0410   13.4280    1.2920 C   0  0  1  0  0  0  0  0  0  0  0  0
    1.7900   12.7060    2.4540 C   0  0  0  0  0  0  0  0  0  0  0  0
   -0.0570   14.3320    1.9660 C   0  0  0  0  0  0  0  0  0  0  0  0
   -0.5080   15.5790    1.1810 C   0  0  0  0  0  0  0  0  0  0  0  0
    0.6990   16.3870    0.6940 C   0  0  2  0  0  0  0  0  0  0  0  0
    1.4780   16.8900    1.9570 C   0  0  0  0  0  0  0  0  0  0  0  0
   -2.1369   19.6544    0.5172 H   0  0  0  0  0  0  0  0  0  0  0  0
   -1.1413   20.2311   -0.8623 H   0  0  0  0  0  0  0  0  0  0  0  0
   -1.7920   18.5568   -0.8623 H   0  0  0  0  0  0  0  0  0  0  0  0
   -0.3904   18.6460    1.5175 H   0  0  0  0  0  0  0  0  0  0  0  0
    1.7012   19.7304   -0.2995 H   0  0  0  0  0  0  0  0  0  0  0  0
    0.4875   20.9203    0.3738 H   0  0  0  0  0  0  0  0  0  0  0  0
    1.4918   20.9463    2.3457 H   0  0  0  0  0  0  0  0  0  0  0  0
    1.4547   19.1359    2.4347 H   0  0  0  0  0  0  0  0  0  0  0  0
    3.1644   20.7086    0.8203 H   0  0  0  0  0  0  0  0  0  0  0  0
    4.5911   19.8864    4.8394 H   0  0  0  0  0  0  0  0  0  0  0  0
    2.8936   20.2005    4.3431 H   0  0  0  0  0  0  0  0  0  0  0  0
    3.5334   18.5221    4.3431 H   0  0  0  0  0  0  0  0  0  0  0  0
    6.1241   20.3465    3.5124 H   0  0  0  0  0  0  0  0  0  0  0  0
    6.1892   19.4252    1.9717 H   0  0  0  0  0  0  0  0  0  0  0  0
    5.6485   21.1382    1.9717 H   0  0  0  0  0  0  0  0  0  0  0  0
   -0.4557   17.3934   -0.8657 H   0  0  0  0  0  0  0  0  0  0  0  0
    1.5704   18.0614   -2.0007 H   0  0  0  0  0  0  0  0  0  0  0  0
    2.2920   18.6921   -0.5044 H   0  0  0  0  0  0  0  0  0  0  0  0
    2.9772   16.2212   -1.7665 H   0  0  0  0  0  0  0  0  0  0  0  0
    3.4195   16.6422   -0.1141 H   0  0  0  0  0  0  0  0  0  0  0  0
   -0.1317   14.4671   -1.2609 H   0  0  0  0  0  0  0  0  0  0  0  0
    0.4852   15.8962   -2.1575 H   0  0  0  0  0  0  0  0  0  0  0  0
    1.4214   14.3632   -2.1575 H   0  0  0  0  0  0  0  0  0  0  0  0
    2.7467   14.7748    1.2752 H   0  0  0  0  0  0  0  0  0  0  0  0
    3.5948   13.9964   -1.0305 H   0  0  0  0  0  0  0  0  0  0  0  0
    3.7651   12.9267    0.4579 H   0  0  0  0  0  0  0  0  0  0  0  0
    3.0297   11.7212   -1.7676 H   0  0  0  0  0  0  0  0  0  0  0  0
   -0.4504   12.9543   -0.1362 H   0  0  0  0  0  0  0  0  0  0  0  0
    0.4703   10.6442    1.6847 H   0  0  0  0  0  0  0  0  0  0  0  0
   -1.0343   11.6497    1.8726 H   0  0  0  0  0  0  0  0  0  0  0  0
   -1.5100    9.4267    0.8980 H   0  0  0  0  0  0  0  0  0  0  0  0
   -1.9081   10.7883   -0.2216 H   0  0  0  0  0  0  0  0  0  0  0  0
   -0.8293    9.0483   -1.4763 H   0  0  0  0  0  0  0  0  0  0  0  0
    1.6140    8.8890   -0.6460 H   0  0  0  0  0  0  0  0  0  0  0  0
   -1.2551   11.9158   -1.9612 H   0  0  0  0  0  0  0  0  0  0  0  0
    0.0119   12.1383   -3.2150 H   0  0  0  0  0  0  0  0  0  0  0  0
   -1.0010   10.6548   -3.2150 H   0  0  0  0  0  0  0  0  0  0  0  0
    2.2533    9.4095   -2.0064 H   0  0  0  0  0  0  0  0  0  0  0  0
    0.9583    9.2558   -3.2416 H   0  0  0  0  0  0  0  0  0  0  0  0
    2.0332   10.6949   -3.2416 H   0  0  0  0  0  0  0  0  0  0  0  0
    1.4098   13.0725    3.4189 H   0  0  0  0  0  0  0  0  0  0  0  0
    1.6209   11.6215    2.3813 H   0  0  0  0  0  0  0  0  0  0  0  0
    2.8676   12.9148    2.3813 H   0  0  0  0  0  0  0  0  0  0  0  0
   -0.9455   13.7060    2.1353 H   0  0  0  0  0  0  0  0  0  0  0  0
    0.4131   14.7221    2.8808 H   0  0  0  0  0  0  0  0  0  0  0  0
   -1.1027   15.2614    0.3118 H   0  0  0  0  0  0  0  0  0  0  0  0
   -1.1094   16.2145    1.8477 H   0  0  0  0  0  0  0  0  0  0  0  0
    0.9580   16.5542    2.8663 H   0  0  0  0  0  0  0  0  0  0  0  0
    2.4986   16.4799    1.9457 H   0  0  0  0  0  0  0  0  0  0  0  0
    1.5243   17.9890    1.9457 H   0  0  0  0  0  0  0  0  0  0  0  0
  1  2  1  0
  2  3  1  0
  3  4  1  0
  4  5  1  0
  5  6  1  0
  6  7  1  0
  7  8  1  0
  7  9  1  0
  2 10  1  0
 10 11  1  0
 11 12  1  0
 12 13  1  0
 13 14  1  6
 13 15  1  0
 15 16  1  0
 16 17  1  0
 17 18  2  0
 18 19  1  0
 19 20  1  0
 20 21  1  0
 21 22  1  0
 22 23  1  0
 22 24  1  0
 24 25  1  0
 24 26  1  0
 19 27  1  0
 27 28  1  1
 27 29  1  0
 29 30  1  0
 30 31  1  0
 31 32  1  1
  7  5  1  0
 31 10  1  0
 31 13  1  0
 27 15  1  0
 24 18  1  0
  1 33  1  0
  1 34  1  0
  1 35  1  0
  2 36  1  1
  3 37  1  0
  3 38  1  0
  4 39  1  0
  4 40  1  0
  5 41  1  6
  8 42  1  0
  8 43  1  0
  8 44  1  0
  9 45  1  0
  9 46  1  0
  9 47  1  0
 10 48  1  6
 11 49  1  0
 11 50  1  0
 12 51  1  0
 12 52  1  0
 14 53  1  0
 14 54  1  0
 14 55  1  0
 15 56  1  1
 16 57  1  0
 16 58  1  0
 17 59  1  0
 19 60  1  6
 20 61  1  0
 20 62  1  0
 21 63  1  0
 21 64  1  0
 22 65  1  6
 23 66  1  0
 25 67  1  0
 25 68  1  0
 25 69  1  0
 26 70  1  0
 26 71  1  0
 26 72  1  0
 28 73  1  0
 28 74  1  0
 28 75  1  0
 29 76  1  0
 29 77  1  0
 30 78  1  0
 30 79  1  0
 32 80  1  0
 32 81  1  0
 32 82  1  0
M  END
>  <meeko>  (3) 
{"is_sidechain": [false], "intermolecular_energy": 2.731, "internal_energy": -0.839}

$$$$
EPH_relaxed_0001_pdb2pqr_Repair_196_r2_0001_out
     RDKit          3D

 82 86  0  0  0  0  0  0  0  0999 V2000
    1.2770    9.8930    0.6560 C   0  0  0  0  0  0  0  0  0  0  0  0
   -0.1240   10.4340    0.9560 C   0  0  2  0  0  0  0  0  0  0  0  0
   -1.0820   10.2590   -0.2390 C   0  0  0  0  0  0  0  0  0  0  0  0
   -0.4610    9.5090   -1.4210 C   0  0  0  0  0  0  0  0  0  0  0  0
   -0.4290   10.3550   -2.6580 C   0  0  2  0  0  0  0  0  0  0  0  0
    0.0940    9.6970   -3.8190 O   0  0  0  0  0  0  0  0  0  0  0  0
    0.8550   10.8120   -3.3260 C   0  0  0  0  0  0  0  0  0  0  0  0
    2.1960   10.4380   -2.7770 C   0  0  0  0  0  0  0  0  0  0  0  0
    0.8090   12.0140   -4.2170 C   0  0  0  0  0  0  0  0  0  0  0  0
   -0.0400   11.9050    1.3460 C   0  0  1  0  0  0  0  0  0  0  0  0
    0.4290   12.1080    2.8120 C   0  0  0  0  0  0  0  0  0  0  0  0
    1.2870   13.3990    2.8310 C   0  0  0  0  0  0  0  0  0  0  0  0
    1.0130   14.0700    1.4650 C   0  0  1  0  0  0  0  0  0  0  0  0
   -0.3430   14.8200    1.6510 C   0  0  0  0  0  0  0  0  0  0  0  0
    2.1300   15.0240    0.9270 C   0  0  2  0  0  0  0  0  0  0  0  0
    2.4130   16.2570    1.8030 C   0  0  0  0  0  0  0  0  0  0  0  0
    1.6090   17.4710    1.4730 C   0  0  0  0  0  0  0  0  0  0  0  0
    0.9070   17.6600    0.3400 C   0  0  0  0  0  0  0  0  0  0  0  0
    0.9550   16.6310   -0.7970 C   0  0  1  0  0  0  0  0  0  0  0  0
    1.1640   17.3630   -2.1490 C   0  0  0  0  0  0  0  0  0  0  0  0
    0.1240   18.4530   -2.3910 C   0  0  0  0  0  0  0  0  0  0  0  0
    0.1470   19.4880   -1.2690 C   0  0  2  0  0  0  0  0  0  0  0  0
    1.3910   20.1940   -1.3190 O   0  0  0  0  0  0  0  0  0  0  0  0
   -0.0440   18.8660    0.1420 C   0  0  0  0  0  0  0  0  0  0  0  0
   -1.5020   18.3660    0.2970 C   0  0  0  0  0  0  0  0  0  0  0  0
    0.1400   19.9950    1.1910 C   0  0  0  0  0  0  0  0  0  0  0  0
    1.9650   15.4210   -0.5950 C   0  0  1  0  0  0  0  0  0  0  0  0
    3.3830   15.8210   -1.1070 C   0  0  0  0  0  0  0  0  0  0  0  0
    1.4980   14.2080   -1.4830 C   0  0  0  0  0  0  0  0  0  0  0  0
    0.4840   13.2350   -0.8520 C   0  0  0  0  0  0  0  0  0  0  0  0
    0.9380   12.7990    0.5440 C   0  0  2  0  0  0  0  0  0  0  0  0
    2.2900   12.0230    0.3860 C   0  0  0  0  0  0  0  0  0  0  0  0
    1.8019    9.6903    1.6012 H   0  0  0  0  0  0  0  0  0  0  0  0
    1.1941    8.9622    0.0757 H   0  0  0  0  0  0  0  0  0  0  0  0
    1.8412   10.6379    0.0757 H   0  0  0  0  0  0  0  0  0  0  0  0
   -0.5323    9.8500    1.7940 H   0  0  0  0  0  0  0  0  0  0  0  0
   -1.9648    9.6987    0.1027 H   0  0  0  0  0  0  0  0  0  0  0  0
   -1.3376   11.2674   -0.5965 H   0  0  0  0  0  0  0  0  0  0  0  0
    0.5678    9.2205   -1.1595 H   0  0  0  0  0  0  0  0  0  0  0  0
   -1.0782    8.6222   -1.6274 H   0  0  0  0  0  0  0  0  0  0  0  0
   -1.3282   10.9011   -2.3368 H   0  0  0  0  0  0  0  0  0  0  0  0
    2.1581   10.4486   -1.6777 H   0  0  0  0  0  0  0  0  0  0  0  0
    2.4665    9.4301   -3.1249 H   0  0  0  0  0  0  0  0  0  0  0  0
    2.9491   11.1604   -3.1249 H   0  0  0  0  0  0  0  0  0  0  0  0
    0.7741   12.9253   -3.6019 H   0  0  0  0  0  0  0  0  0  0  0  0
    1.7070   12.0344   -4.8519 H   0  0  0  0  0  0  0  0  0  0  0  0
   -0.0880   11.9657   -4.8519 H   0  0  0  0  0  0  0  0  0  0  0  0
   -1.0778   12.2088    1.1445 H   0  0  0  0  0  0  0  0  0  0  0  0
   -0.4407   12.2211    3.4760 H   0  0  0  0  0  0  0  0  0  0  0  0
    1.0089   11.2425    3.1652 H   0  0  0  0  0  0  0  0  0  0  0  0
    0.9787   14.0580    3.6561 H   0  0  0  0  0  0  0  0  0  0  0  0
    2.3554   13.1874    2.9848 H   0  0  0  0  0  0  0  0  0  0  0  0
   -0.5534   14.9364    2.7244 H   0  0  0  0  0  0  0  0  0  0  0  0
   -0.2810   15.8121    1.1798 H   0  0  0  0  0  0  0  0  0  0  0  0
   -1.1504   14.2402    1.1798 H   0  0  0  0  0  0  0  0  0  0  0  0
    3.0304   14.3960    0.9967 H   0  0  0  0  0  0  0  0  0  0  0  0
    2.2059   15.9859    2.8488 H   0  0  0  0  0  0  0  0  0  0  0  0
    3.4631   16.5275    1.6181 H   0  0  0  0  0  0  0  0  0  0  0  0
    1.5885   18.2794    2.2187 H   0  0  0  0  0  0  0  0  0  0  0  0
   -0.0227   16.1270   -0.7928 H   0  0  0  0  0  0  0  0  0  0  0  0
    2.1634   17.8226   -2.1504 H   0  0  0  0  0  0  0  0  0  0  0  0
    1.0599   16.6181   -2.9516 H   0  0  0  0  0  0  0  0  0  0  0  0
    0.3420   18.9528   -3.3463 H   0  0  0  0  0  0  0  0  0  0  0  0
   -0.8723   17.9876   -2.4189 H   0  0  0  0  0  0  0  0  0  0  0  0
   -0.7027   20.1678   -1.4296 H   0  0  0  0  0  0  0  0  0  0  0  0
    1.8180   19.9790   -2.1650 H   0  0  0  0  0  0  0  0  0  0  0  0
   -1.7489   18.2813    1.3656 H   0  0  0  0  0  0  0  0  0  0  0  0
   -2.1875   19.0804   -0.1823 H   0  0  0  0  0  0  0  0  0  0  0  0
   -1.6048   17.3812   -0.1823 H   0  0  0  0  0  0  0  0  0  0  0  0
    0.0707   19.5699    2.2032 H   0  0  0  0  0  0  0  0  0  0  0  0
    1.1263   20.4632    1.0566 H   0  0  0  0  0  0  0  0  0  0  0  0
   -0.6466   20.7521    1.0566 H   0  0  0  0  0  0  0  0  0  0  0  0
    4.0440   16.0075   -0.2477 H   0  0  0  0  0  0  0  0  0  0  0  0
    3.7964   15.0044   -1.7172 H   0  0  0  0  0  0  0  0  0  0  0  0
    3.3087   16.7332   -1.7172 H   0  0  0  0  0  0  0  0  0  0  0  0
    1.0410   14.6197   -2.3949 H   0  0  0  0  0  0  0  0  0  0  0  0
    2.4050   13.6089   -1.6519 H   0  0  0  0  0  0  0  0  0  0  0  0
   -0.4928   13.7346   -0.7730 H   0  0  0  0  0  0  0  0  0  0  0  0
    0.4097   12.3428   -1.4911 H   0  0  0  0  0  0  0  0  0  0  0  0
    2.6971   11.7893    1.3808 H   0  0  0  0  0  0  0  0  0  0  0  0
    2.1139   11.0885   -0.1669 H   0  0  0  0  0  0  0  0  0  0  0  0
    3.0081   12.6464   -0.1669 H   0  0  0  0  0  0  0  0  0  0  0  0
  1  2  1  0
  2  3  1  0
  3  4  1  0
  4  5  1  0
  5  6  1  0
  6  7  1  0
  7  8  1  0
  7  9  1  0
  2 10  1  0
 10 11  1  0
 11 12  1  0
 12 13  1  0
 13 14  1  1
 13 15  1  0
 15 16  1  0
 16 17  1  0
 17 18  2  0
 18 19  1  0
 19 20  1  0
 20 21  1  0
 21 22  1  0
 22 23  1  0
 22 24  1  0
 24 25  1  0
 24 26  1  0
 19 27  1  0
 27 28  1  6
 27 29  1  0
 29 30  1  0
 30 31  1  0
 31 32  1  6
  7  5  1  0
 31 10  1  0
 31 13  1  0
 27 15  1  0
 24 18  1  0
  1 33  1  0
  1 34  1  0
  1 35  1  0
  2 36  1  1
  3 37  1  0
  3 38  1  0
  4 39  1  0
  4 40  1  0
  5 41  1  6
  8 42  1  0
  8 43  1  0
  8 44  1  0
  9 45  1  0
  9 46  1  0
  9 47  1  0
 10 48  1  1
 11 49  1  0
 11 50  1  0
 12 51  1  0
 12 52  1  0
 14 53  1  0
 14 54  1  0
 14 55  1  0
 15 56  1  6
 16 57  1  0
 16 58  1  0
 17 59  1  0
 19 60  1  6
 20 61  1  0
 20 62  1  0
 21 63  1  0
 21 64  1  0
 22 65  1  6
 23 66  1  0
 25 67  1  0
 25 68  1  0
 25 69  1  0
 26 70  1  0
 26 71  1  0
 26 72  1  0
 28 73  1  0
 28 74  1  0
 28 75  1  0
 29 76  1  0
 29 77  1  0
 30 78  1  0
 30 79  1  0
 32 80  1  0
 32 81  1  0
 32 82  1  0
M  END
>  <meeko>  (4) 
{"is_sidechain": [false], "intermolecular_energy": 2.731, "internal_energy": -0.839}

$$$$
EPH_relaxed_0001_pdb2pqr_Repair_196_r2_0001_out
     RDKit          3D

 82 86  0  0  0  0  0  0  0  0999 V2000
    3.5920   18.6920    1.2130 C   0  0  0  0  0  0  0  0  0  0  0  0
    2.1970   18.5270    1.8240 C   0  0  2  0  0  0  0  0  0  0  0  0
    2.1480   18.9930    3.2930 C   0  0  0  0  0  0  0  0  0  0  0  0
    3.2770   19.9550    3.6720 C   0  0  0  0  0  0  0  0  0  0  0  0
    4.3250   19.2800    4.5040 C   0  0  2  0  0  0  0  0  0  0  0  0
    5.1680   20.1730    5.2450 O   0  0  0  0  0  0  0  0  0  0  0  0
    5.8130   19.3890    4.2270 C   0  0  0  0  0  0  0  0  0  0  0  0
    6.3360   20.1940    3.0790 C   0  0  0  0  0  0  0  0  0  0  0  0
    6.7210   18.3290    4.7680 C   0  0  0  0  0  0  0  0  0  0  0  0
    1.7560   17.0710    1.7250 C   0  0  1  0  0  0  0  0  0  0  0  0
    0.4890   16.7720    2.5690 C   0  0  0  0  0  0  0  0  0  0  0  0
   -0.3320   15.7150    1.7860 C   0  0  0  0  0  0  0  0  0  0  0  0
    0.6370   15.1990    0.6960 C   0  0  1  0  0  0  0  0  0  0  0  0
    1.5340   14.1480    1.4220 C   0  0  0  0  0  0  0  0  0  0  0  0
   -0.0240   14.6040   -0.5900 C   0  0  2  0  0  0  0  0  0  0  0  0
   -0.8900   13.3540   -0.3590 C   0  0  0  0  0  0  0  0  0  0  0  0
   -0.1700   12.0500   -0.4660 C   0  0  0  0  0  0  0  0  0  0  0  0
    1.0470   11.8710   -1.0120 C   0  0  0  0  0  0  0  0  0  0  0  0
    1.7870   13.0350   -1.6850 C   0  0  1  0  0  0  0  0  0  0  0  0
    2.3560   12.5660   -3.0500 C   0  0  0  0  0  0  0  0  0  0  0  0
    3.2230   11.3170   -2.9240 C   0  0  0  0  0  0  0  0  0  0  0  0
    2.4360   10.1660   -2.3040 C   0  0  2  0  0  0  0  0  0  0  0  0
    1.4070    9.7680   -3.2160 O   0  0  0  0  0  0  0  0  0  0  0  0
    1.8060   10.5240   -0.9290 C   0  0  0  0  0  0  0  0  0  0  0  0
    2.9240   10.6610    0.1350 C   0  0  0  0  0  0  0  0  0  0  0  0
    0.9240    9.3280   -0.4810 C   0  0  0  0  0  0  0  0  0  0  0  0
    0.9780   14.3980   -1.7970 C   0  0  1  0  0  0  0  0  0  0  0  0
    0.1160   14.4000   -3.0970 C   0  0  0  0  0  0  0  0  0  0  0  0
    1.9970   15.5900   -1.9390 C   0  0  0  0  0  0  0  0  0  0  0  0
    2.5220   16.2140   -0.6320 C   0  0  0  0  0  0  0  0  0  0  0  0
    1.3690   16.5390    0.3220 C   0  0  2  0  0  0  0  0  0  0  0  0
    0.4610   17.6110   -0.3720 C   0  0  0  0  0  0  0  0  0  0  0  0
    4.3367   18.7801    2.0178 H   0  0  0  0  0  0  0  0  0  0  0  0
    3.8260   17.8153    0.5912 H   0  0  0  0  0  0  0  0  0  0  0  0
    3.6150   19.5991    0.5912 H   0  0  0  0  0  0  0  0  0  0  0  0
    1.5071   19.1648    1.2519 H   0  0  0  0  0  0  0  0  0  0  0  0
    1.1872   19.5005    3.4644 H   0  0  0  0  0  0  0  0  0  0  0  0
    2.2666   18.0961    3.9187 H   0  0  0  0  0  0  0  0  0  0  0  0
    3.7437   20.3370    2.7520 H   0  0  0  0  0  0  0  0  0  0  0  0
    2.8444   20.7747    4.2645 H   0  0  0  0  0  0  0  0  0  0  0  0
    3.6676   18.4140    4.6712 H   0  0  0  0  0  0  0  0  0  0  0  0
    6.8976   21.0584    3.4630 H   0  0  0  0  0  0  0  0  0  0  0  0
    7.0006   19.5684    2.4651 H   0  0  0  0  0  0  0  0  0  0  0  0
    5.4943   20.5470    2.4651 H   0  0  0  0  0  0  0  0  0  0  0  0
    6.6996   18.3540    5.8675 H   0  0  0  0  0  0  0  0  0  0  0  0
    6.3832   17.3427    4.4170 H   0  0  0  0  0  0  0  0  0  0  0  0
    7.7474   18.5113    4.4170 H   0  0  0  0  0  0  0  0  0  0  0  0
    2.6739   16.5761    2.0752 H   0  0  0  0  0  0  0  0  0  0  0  0
    0.7753   16.3753    3.5542 H   0  0  0  0  0  0  0  0  0  0  0  0
   -0.1001   17.6862    2.7340 H   0  0  0  0  0  0  0  0  0  0  0  0
   -0.6426   14.8946    2.4497 H   0  0  0  0  0  0  0  0  0  0  0  0
   -1.2548   16.1351    1.3595 H   0  0  0  0  0  0  0  0  0  0  0  0
    1.4316   14.2680    2.5106 H   0  0  0  0  0  0  0  0  0  0  0  0
    1.2181   13.1346    1.1335 H   0  0  0  0  0  0  0  0  0  0  0  0
    2.5845   14.3007    1.1335 H   0  0  0  0  0  0  0  0  0  0  0  0
   -0.7222   15.4004   -0.8871 H   0  0  0  0  0  0  0  0  0  0  0  0
   -1.3221   13.4218    0.6503 H   0  0  0  0  0  0  0  0  0  0  0  0
   -1.6424   13.3527   -1.1614 H   0  0  0  0  0  0  0  0  0  0  0  0
   -0.6774   11.1604   -0.0645 H   0  0  0  0  0  0  0  0  0  0  0  0
    2.6121   13.3031   -1.0088 H   0  0  0  0  0  0  0  0  0  0  0  0
    1.5161   12.3456   -3.7252 H   0  0  0  0  0  0  0  0  0  0  0  0
    2.9900   13.3744   -3.4432 H   0  0  0  0  0  0  0  0  0  0  0  0
    3.5705   11.0178   -3.9239 H   0  0  0  0  0  0  0  0  0  0  0  0
    4.0784   11.5482   -2.2722 H   0  0  0  0  0  0  0  0  0  0  0  0
    3.1436    9.3443   -2.1194 H   0  0  0  0  0  0  0  0  0  0  0  0
    1.7900    9.7650   -4.1090 H   0  0  0  0  0  0  0  0  0  0  0  0
    2.4817   10.6068    1.1407 H   0  0  0  0  0  0  0  0  0  0  0  0
    3.6513    9.8453    0.0098 H   0  0  0  0  0  0  0  0  0  0  0  0
    3.4328   11.6282    0.0098 H   0  0  0  0  0  0  0  0  0  0  0  0
    0.8933    9.2864    0.6178 H   0  0  0  0  0  0  0  0  0  0  0  0
   -0.0960    9.4581   -0.8716 H   0  0  0  0  0  0  0  0  0  0  0  0
    1.3496    8.3919   -0.8716 H   0  0  0  0  0  0  0  0  0  0  0  0
   -0.9510   14.4025   -2.8295 H   0  0  0  0  0  0  0  0  0  0  0  0
    0.3476   15.2976   -3.6892 H   0  0  0  0  0  0  0  0  0  0  0  0
    0.3435   13.5013   -3.6892 H   0  0  0  0  0  0  0  0  0  0  0  0
    2.8655   15.2199   -2.5035 H   0  0  0  0  0  0  0  0  0  0  0  0
    1.4330   16.3934   -2.4355 H   0  0  0  0  0  0  0  0  0  0  0  0
    3.2045   15.5035   -0.1428 H   0  0  0  0  0  0  0  0  0  0  0  0
    3.0491   17.1481   -0.8763 H   0  0  0  0  0  0  0  0  0  0  0  0
   -0.0483   18.2123    0.3954 H   0  0  0  0  0  0  0  0  0  0  0  0
    1.0823   18.2671   -0.9993 H   0  0  0  0  0  0  0  0  0  0  0  0
   -0.2884   17.1061   -0.9993 H   0  0  0  0  0  0  0  0  0  0  0  0
  1  2  1  0
  2  3  1  0
  3  4  1  0
  4  5  1  0
  5  6  1  0
  6  7  1  0
  7  8  1  0
  7  9  1  0
  2 10  1  0
 10 11  1  0
 11 12  1  0
 12 13  1  0
 13 14  1  1
 13 15  1  0
 15 16  1  0
 16 17  1  0
 17 18  2  0
 18 19  1  0
 19 20  1  0
 20 21  1  0
 21 22  1  0
 22 23  1  0
 22 24  1  0
 24 25  1  0
 24 26  1  0
 19 27  1  0
 27 28  1  6
 27 29  1  0
 29 30  1  0
 30 31  1  0
 31 32  1  6
  7  5  1  0
 31 10  1  0
 31 13  1  0
 27 15  1  0
 24 18  1  0
  1 33  1  0
  1 34  1  0
  1 35  1  0
  2 36  1  6
  3 37  1  0
  3 38  1  0
  4 39  1  0
  4 40  1  0
  5 41  1  1
  8 42  1  0
  8 43  1  0
  8 44  1  0
  9 45  1  0
  9 46  1  0
  9 47  1  0
 10 48  1  1
 11 49  1  0
 11 50  1  0
 12 51  1  0
 12 52  1  0
 14 53  1  0
 14 54  1  0
 14 55  1  0
 15 56  1  6
 16 57  1  0
 16 58  1  0
 17 59  1  0
 19 60  1  1
 20 61  1  0
 20 62  1  0
 21 63  1  0
 21 64  1  0
 22 65  1  1
 23 66  1  0
 25 67  1  0
 25 68  1  0
 25 69  1  0
 26 70  1  0
 26 71  1  0
 26 72  1  0
 28 73  1  0
 28 74  1  0
 28 75  1  0
 29 76  1  0
 29 77  1  0
 30 78  1  0
 30 79  1  0
 32 80  1  0
 32 81  1  0
 32 82  1  0
M  END
>  <meeko>  (5) 
{"is_sidechain": [false], "intermolecular_energy": 2.731, "internal_energy": -0.839}

$$$$
EPH_relaxed_0001_pdb2pqr_Repair_196_r2_0001_out
     RDKit          3D

 82 86  0  0  0  0  0  0  0  0999 V2000
    2.4760   10.2460   -0.0580 C   0  0  0  0  0  0  0  0  0  0  0  0
    1.1870   10.3610   -0.8770 C   0  0  2  0  0  0  0  0  0  0  0  0
    1.2860    9.6170   -2.2230 C   0  0  0  0  0  0  0  0  0  0  0  0
    1.8480   10.4740   -3.3610 C   0  0  0  0  0  0  0  0  0  0  0  0
    3.3460   10.5160   -3.3360 C   0  0  2  0  0  0  0  0  0  0  0  0
    3.9050   11.8160   -3.1110 O   0  0  0  0  0  0  0  0  0  0  0  0
    4.1800   11.2210   -4.3890 C   0  0  0  0  0  0  0  0  0  0  0  0
    3.5440   11.9320   -5.5420 C   0  0  0  0  0  0  0  0  0  0  0  0
    5.6080   10.8060   -4.5670 C   0  0  0  0  0  0  0  0  0  0  0  0
    0.8530   11.8290   -1.1160 C   0  0  1  0  0  0  0  0  0  0  0  0
   -0.5620   12.0280   -1.7220 C   0  0  0  0  0  0  0  0  0  0  0  0
   -1.1220   13.3460   -1.1270 C   0  0  0  0  0  0  0  0  0  0  0  0
    0.1000   14.0260   -0.4670 C   0  0  1  0  0  0  0  0  0  0  0  0
    0.8510   14.7280   -1.6410 C   0  0  0  0  0  0  0  0  0  0  0  0
   -0.2090   15.0210    0.6990 C   0  0  2  0  0  0  0  0  0  0  0  0
   -1.0430   16.2520    0.3020 C   0  0  0  0  0  0  0  0  0  0  0  0
   -0.2560   17.4430   -0.1330 C   0  0  0  0  0  0  0  0  0  0  0  0
    1.0630   17.6240    0.0670 C   0  0  0  0  0  0  0  0  0  0  0  0
    1.8830   16.6130    0.8780 C   0  0  1  0  0  0  0  0  0  0  0  0
    2.7800   17.3690    1.8930 C   0  0  0  0  0  0  0  0  0  0  0  0
    3.6530   18.4280    1.2270 C   0  0  0  0  0  0  0  0  0  0  0  0
    2.7990   19.4480    0.4790 C   0  0  2  0  0  0  0  0  0  0  0  0
    2.0340   20.1940    1.4300 O   0  0  0  0  0  0  0  0  0  0  0  0
    1.8460   18.8010   -0.5650 C   0  0  0  0  0  0  0  0  0  0  0  0
    2.6730   18.2520   -1.7540 C   0  0  0  0  0  0  0  0  0  0  0  0
    0.9430   19.9220   -1.1460 C   0  0  0  0  0  0  0  0  0  0  0  0
    1.0580   15.4330    1.5520 C   0  0  1  0  0  0  0  0  0  0  0  0
    0.5280   15.8850    2.9470 C   0  0  0  0  0  0  0  0  0  0  0  0
    2.0230   14.2170    1.8170 C   0  0  0  0  0  0  0  0  0  0  0  0
    2.1940   13.2040    0.6690 C   0  0  0  0  0  0  0  0  0  0  0  0
    0.8340   12.7640    0.1190 C   0  0  2  0  0  0  0  0  0  0  0  0
    0.0640   12.0350    1.2720 C   0  0  0  0  0  0  0  0  0  0  0  0
    2.2322   10.2678    1.0144 H   0  0  0  0  0  0  0  0  0  0  0  0
    2.9810    9.2992   -0.3001 H   0  0  0  0  0  0  0  0  0  0  0  0
    3.1406   11.0884   -0.3001 H   0  0  0  0  0  0  0  0  0  0  0  0
    0.3822    9.8862   -0.2965 H   0  0  0  0  0  0  0  0  0  0  0  0
    1.9416    8.7438   -2.0896 H   0  0  0  0  0  0  0  0  0  0  0  0
    0.2624    9.3339   -2.5095 H   0  0  0  0  0  0  0  0  0  0  0  0
    1.5193   10.0508   -4.3217 H   0  0  0  0  0  0  0  0  0  0  0  0
    1.4741   11.5007   -3.2338 H   0  0  0  0  0  0  0  0  0  0  0  0
    3.3911    9.4998   -2.9173 H   0  0  0  0  0  0  0  0  0  0  0  0
    2.8554   12.7018   -5.1634 H   0  0  0  0  0  0  0  0  0  0  0  0
    4.3239   12.4072   -6.1551 H   0  0  0  0  0  0  0  0  0  0  0  0
    2.9851   11.2096   -6.1551 H   0  0  0  0  0  0  0  0  0  0  0  0
    6.0760   10.6700   -3.5808 H   0  0  0  0  0  0  0  0  0  0  0  0
    5.6478    9.8591   -5.1254 H   0  0  0  0  0  0  0  0  0  0  0  0
    6.1491   11.5841   -5.1254 H   0  0  0  0  0  0  0  0  0  0  0  0
    1.6852   12.1021   -1.7815 H   0  0  0  0  0  0  0  0  0  0  0  0
   -0.4977   12.1042   -2.8175 H   0  0  0  0  0  0  0  0  0  0  0  0
   -1.2171   11.1772   -1.4835 H   0  0  0  0  0  0  0  0  0  0  0  0
   -1.5398   13.9835   -1.9201 H   0  0  0  0  0  0  0  0  0  0  0  0
   -1.9373   13.1671   -0.4106 H   0  0  0  0  0  0  0  0  0  0  0  0
    1.5975   15.4258   -1.2336 H   0  0  0  0  0  0  0  0  0  0  0  0
    1.3558   13.9704   -2.2585 H   0  0  0  0  0  0  0  0  0  0  0  0
    0.1291   15.2827   -2.2585 H   0  0  0  0  0  0  0  0  0  0  0  0
   -0.8553   14.4209    1.3564 H   0  0  0  0  0  0  0  0  0  0  0  0
   -1.7049   15.9609   -0.5270 H   0  0  0  0  0  0  0  0  0  0  0  0
   -1.5824   16.5593    1.2101 H   0  0  0  0  0  0  0  0  0  0  0  0
   -0.7994   18.2401   -0.6616 H   0  0  0  0  0  0  0  0  0  0  0  0
    2.5119   16.0782    0.1510 H   0  0  0  0  0  0  0  0  0  0  0  0
    2.1348   17.8604    2.6361 H   0  0  0  0  0  0  0  0  0  0  0  0
    3.4485   16.6317    2.3615 H   0  0  0  0  0  0  0  0  0  0  0  0
    4.2406   18.9472    1.9985 H   0  0  0  0  0  0  0  0  0  0  0  0
    4.3185   17.9312    0.5057 H   0  0  0  0  0  0  0  0  0  0  0  0
    3.4823   20.1020   -0.0825 H   0  0  0  0  0  0  0  0  0  0  0  0
    2.1430   21.1370    1.2200 H   0  0  0  0  0  0  0  0  0  0  0  0
    3.5320   17.6817   -1.3708 H   0  0  0  0  0  0  0  0  0  0  0  0
    2.0404   17.5939   -2.3678 H   0  0  0  0  0  0  0  0  0  0  0  0
    3.0339   19.0905   -2.3678 H   0  0  0  0  0  0  0  0  0  0  0  0
    0.4862   20.4891   -0.3215 H   0  0  0  0  0  0  0  0  0  0  0  0
    1.5509   20.5991   -1.7641 H   0  0  0  0  0  0  0  0  0  0  0  0
    0.1520   19.4722   -1.7641 H   0  0  0  0  0  0  0  0  0  0  0  0
    1.1093   15.3892    3.7383 H   0  0  0  0  0  0  0  0  0  0  0  0
    0.6332   16.9757    3.0434 H   0  0  0  0  0  0  0  0  0  0  0  0
   -0.5324   15.6090    3.0434 H   0  0  0  0  0  0  0  0  0  0  0  0
    3.0170   14.6257    2.0512 H   0  0  0  0  0  0  0  0  0  0  0  0
    1.5540   13.6497    2.6345 H   0  0  0  0  0  0  0  0  0  0  0  0
    2.7751   13.6713   -0.1397 H   0  0  0  0  0  0  0  0  0  0  0  0
    2.7182   12.3185    1.0578 H   0  0  0  0  0  0  0  0  0  0  0  0
    0.4381   12.3892    2.2439 H   0  0  0  0  0  0  0  0  0  0  0  0
   -1.0109   12.2542    1.1909 H   0  0  0  0  0  0  0  0  0  0  0  0
    0.2241   10.9497    1.1909 H   0  0  0  0  0  0  0  0  0  0  0  0
  1  2  1  0
  2  3  1  0
  3  4  1  0
  4  5  1  0
  5  6  1  0
  6  7  1  0
  7  8  1  0
  7  9  1  0
  2 10  1  0
 10 11  1  0
 11 12  1  0
 12 13  1  0
 13 14  1  6
 13 15  1  0
 15 16  1  0
 16 17  1  0
 17 18  2  0
 18 19  1  0
 19 20  1  0
 20 21  1  0
 21 22  1  0
 22 23  1  0
 22 24  1  0
 24 25  1  0
 24 26  1  0
 19 27  1  0
 27 28  1  1
 27 29  1  0
 29 30  1  0
 30 31  1  0
 31 32  1  1
  7  5  1  0
 31 10  1  0
 31 13  1  0
 27 15  1  0
 24 18  1  0
  1 33  1  0
  1 34  1  0
  1 35  1  0
  2 36  1  1
  3 37  1  0
  3 38  1  0
  4 39  1  0
  4 40  1  0
  5 41  1  1
  8 42  1  0
  8 43  1  0
  8 44  1  0
  9 45  1  0
  9 46  1  0
  9 47  1  0
 10 48  1  6
 11 49  1  0
 11 50  1  0
 12 51  1  0
 12 52  1  0
 14 53  1  0
 14 54  1  0
 14 55  1  0
 15 56  1  1
 16 57  1  0
 16 58  1  0
 17 59  1  0
 19 60  1  6
 20 61  1  0
 20 62  1  0
 21 63  1  0
 21 64  1  0
 22 65  1  6
 23 66  1  0
 25 67  1  0
 25 68  1  0
 25 69  1  0
 26 70  1  0
 26 71  1  0
 26 72  1  0
 28 73  1  0
 28 74  1  0
 28 75  1  0
 29 76  1  0
 29 77  1  0
 30 78  1  0
 30 79  1  0
 32 80  1  0
 32 81  1  0
 32 82  1  0
M  END
>  <meeko>  (6) 
{"is_sidechain": [false], "intermolecular_energy": 2.731, "internal_energy": -0.839}

$$$$
EPH_relaxed_0001_pdb2pqr_Repair_196_r2_0001_out
     RDKit          3D

 82 86  0  0  0  0  0  0  0  0999 V2000
   -1.6430    8.4200   -1.9400 C   0  0  0  0  0  0  0  0  0  0  0  0
   -1.8960    9.0090   -0.5490 C   0  0  2  0  0  0  0  0  0  0  0  0
   -3.3090    9.6130   -0.4230 C   0  0  0  0  0  0  0  0  0  0  0  0
   -4.4130    8.5660   -0.2530 C   0  0  0  0  0  0  0  0  0  0  0  0
   -5.0080    8.1680   -1.5700 C   0  0  2  0  0  0  0  0  0  0  0  0
   -6.3290    8.6710   -1.8060 O   0  0  0  0  0  0  0  0  0  0  0  0
   -6.2030    7.2430   -1.7030 C   0  0  0  0  0  0  0  0  0  0  0  0
   -6.8750    6.6580   -0.5000 C   0  0  0  0  0  0  0  0  0  0  0  0
   -6.4110    6.5240   -2.9990 C   0  0  0  0  0  0  0  0  0  0  0  0
   -0.8460   10.0680   -0.2340 C   0  0  1  0  0  0  0  0  0  0  0  0
    0.4580    9.4620    0.3490 C   0  0  0  0  0  0  0  0  0  0  0  0
    1.6300   10.3260   -0.1830 C   0  0  0  0  0  0  0  0  0  0  0  0
    0.9500   11.5830   -0.7750 C   0  0  1  0  0  0  0  0  0  0  0  0
    0.6650   12.5020    0.4550 C   0  0  0  0  0  0  0  0  0  0  0  0
    1.7450   12.3400   -1.8880 C   0  0  2  0  0  0  0  0  0  0  0  0
    3.0960   12.9260   -1.4420 C   0  0  0  0  0  0  0  0  0  0  0  0
    3.0430   14.3250   -0.9220 C   0  0  0  0  0  0  0  0  0  0  0  0
    2.0150   15.1800   -1.0800 C   0  0  0  0  0  0  0  0  0  0  0  0
    0.7960   14.7970   -1.9280 C   0  0  1  0  0  0  0  0  0  0  0  0
    0.4360   15.9700   -2.8770 C   0  0  0  0  0  0  0  0  0  0  0  0
    0.2390   17.2860   -2.1310 C   0  0  0  0  0  0  0  0  0  0  0  0
    1.4930   17.6620   -1.3470 C   0  0  2  0  0  0  0  0  0  0  0  0
    2.5440   17.9560   -2.2720 O   0  0  0  0  0  0  0  0  0  0  0  0
    1.9570   16.5510   -0.3630 C   0  0  0  0  0  0  0  0  0  0  0  0
    0.9530   16.4440    0.8110 C   0  0  0  0  0  0  0  0  0  0  0  0
    3.3070   16.9980    0.2590 C   0  0  0  0  0  0  0  0  0  0  0  0
    0.8890   13.4040   -2.6870 C   0  0  1  0  0  0  0  0  0  0  0  0
    1.5910   13.5960   -4.0660 C   0  0  0  0  0  0  0  0  0  0  0  0
   -0.5660   12.8890   -2.9980 C   0  0  0  0  0  0  0  0  0  0  0  0
   -1.2530   12.0470   -1.9060 C   0  0  0  0  0  0  0  0  0  0  0  0
   -0.3290   10.9290   -1.4140 C   0  0  2  0  0  0  0  0  0  0  0  0
   -0.0430    9.9760   -2.6240 C   0  0  0  0  0  0  0  0  0  0  0  0
   -1.2107    7.4136   -1.8389 H   0  0  0  0  0  0  0  0  0  0  0  0
   -2.5935    8.3572   -2.4900 H   0  0  0  0  0  0  0  0  0  0  0  0
   -0.9431    9.0662   -2.4900 H   0  0  0  0  0  0  0  0  0  0  0  0
   -1.8229    8.1863    0.1775 H   0  0  0  0  0  0  0  0  0  0  0  0
   -3.3250   10.2797    0.4518 H   0  0  0  0  0  0  0  0  0  0  0  0
   -3.5149   10.1477   -1.3620 H   0  0  0  0  0  0  0  0  0  0  0  0
   -3.9870    7.6741    0.2297 H   0  0  0  0  0  0  0  0  0  0  0  0
   -5.2102    9.0058    0.3643 H   0  0  0  0  0  0  0  0  0  0  0  0
   -4.0152    8.1629   -2.0437 H   0  0  0  0  0  0  0  0  0  0  0  0
   -6.4110    7.0619    0.4119 H   0  0  0  0  0  0  0  0  0  0  0  0
   -7.9436    6.9185   -0.5140 H   0  0  0  0  0  0  0  0  0  0  0  0
   -6.7642    5.5637   -0.5140 H   0  0  0  0  0  0  0  0  0  0  0  0
   -6.7115    5.4851   -2.7978 H   0  0  0  0  0  0  0  0  0  0  0  0
   -7.1999    7.0288   -3.5759 H   0  0  0  0  0  0  0  0  0  0  0  0
   -5.4744    6.5296   -3.5759 H   0  0  0  0  0  0  0  0  0  0  0  0
   -1.4192   10.6938    0.4659 H   0  0  0  0  0  0  0  0  0  0  0  0
    0.4322    9.4943    1.4482 H   0  0  0  0  0  0  0  0  0  0  0  0
    0.5740    8.4106    0.0473 H   0  0  0  0  0  0  0  0  0  0  0  0
    2.3116   10.6020    0.6351 H   0  0  0  0  0  0  0  0  0  0  0  0
    2.2386    9.7912   -0.9270 H   0  0  0  0  0  0  0  0  0  0  0  0
    0.8400   11.9376    1.3828 H   0  0  0  0  0  0  0  0  0  0  0  0
    1.3349   13.3739    0.4243 H   0  0  0  0  0  0  0  0  0  0  0  0
   -0.3807   12.8418    0.4243 H   0  0  0  0  0  0  0  0  0  0  0  0
    1.9886   11.5319   -2.5934 H   0  0  0  0  0  0  0  0  0  0  0  0
    3.4998   12.2825   -0.6464 H   0  0  0  0  0  0  0  0  0  0  0  0
    3.7260   12.9595   -2.3431 H   0  0  0  0  0  0  0  0  0  0  0  0
    3.9179   14.6876   -0.3625 H   0  0  0  0  0  0  0  0  0  0  0  0
   -0.0265   14.6258   -1.2179 H   0  0  0  0  0  0  0  0  0  0  0  0
    1.2499   16.0963   -3.6061 H   0  0  0  0  0  0  0  0  0  0  0  0
   -0.5146   15.7204   -3.3710 H   0  0  0  0  0  0  0  0  0  0  0  0
    0.0166   18.0816   -2.8573 H   0  0  0  0  0  0  0  0  0  0  0  0
   -0.5947   17.1668   -1.4233 H   0  0  0  0  0  0  0  0  0  0  0  0
    1.2471   18.5410   -0.7331 H   0  0  0  0  0  0  0  0  0  0  0  0
    2.6790   18.9190   -2.2690 H   0  0  0  0  0  0  0  0  0  0  0  0
    1.4971   16.5020    1.7652 H   0  0  0  0  0  0  0  0  0  0  0  0
    0.2291   17.2701    0.7509 H   0  0  0  0  0  0  0  0  0  0  0  0
    0.4195   15.4839    0.7509 H   0  0  0  0  0  0  0  0  0  0  0  0
    3.2314   16.9730    1.3561 H   0  0  0  0  0  0  0  0  0  0  0  0
    4.1055   16.3163   -0.0692 H   0  0  0  0  0  0  0  0  0  0  0  0
    3.5409   18.0215   -0.0692 H   0  0  0  0  0  0  0  0  0  0  0  0
    2.6408   13.8831   -3.9062 H   0  0  0  0  0  0  0  0  0  0  0  0
    1.5507   12.6538   -4.6323 H   0  0  0  0  0  0  0  0  0  0  0  0
    1.0768   14.3865   -4.6323 H   0  0  0  0  0  0  0  0  0  0  0  0
   -1.1977   13.7697   -3.1858 H   0  0  0  0  0  0  0  0  0  0  0  0
   -0.4538   12.2106   -3.8566 H   0  0  0  0  0  0  0  0  0  0  0  0
   -1.5121   12.6988   -1.0587 H   0  0  0  0  0  0  0  0  0  0  0  0
   -2.1590   11.5914   -2.3322 H   0  0  0  0  0  0  0  0  0  0  0  0
    0.2542    8.9857   -2.2485 H   0  0  0  0  0  0  0  0  0  0  0  0
   -0.9514    9.8784   -3.2366 H   0  0  0  0  0  0  0  0  0  0  0  0
    0.7691   10.3947   -3.2366 H   0  0  0  0  0  0  0  0  0  0  0  0
  1  2  1  0
  2  3  1  0
  3  4  1  0
  4  5  1  0
  5  6  1  0
  6  7  1  0
  7  8  1  0
  7  9  1  0
  2 10  1  0
 10 11  1  0
 11 12  1  0
 12 13  1  0
 13 14  1  1
 13 15  1  0
 15 16  1  0
 16 17  1  0
 17 18  2  0
 18 19  1  0
 19 20  1  0
 20 21  1  0
 21 22  1  0
 22 23  1  0
 22 24  1  0
 24 25  1  0
 24 26  1  0
 19 27  1  0
 27 28  1  6
 27 29  1  0
 29 30  1  0
 30 31  1  0
 31 32  1  6
  7  5  1  0
 31 10  1  0
 31 13  1  0
 27 15  1  0
 24 18  1  0
  1 33  1  0
  1 34  1  0
  1 35  1  0
  2 36  1  1
  3 37  1  0
  3 38  1  0
  4 39  1  0
  4 40  1  0
  5 41  1  6
  8 42  1  0
  8 43  1  0
  8 44  1  0
  9 45  1  0
  9 46  1  0
  9 47  1  0
 10 48  1  1
 11 49  1  0
 11 50  1  0
 12 51  1  0
 12 52  1  0
 14 53  1  0
 14 54  1  0
 14 55  1  0
 15 56  1  6
 16 57  1  0
 16 58  1  0
 17 59  1  0
 19 60  1  1
 20 61  1  0
 20 62  1  0
 21 63  1  0
 21 64  1  0
 22 65  1  1
 23 66  1  0
 25 67  1  0
 25 68  1  0
 25 69  1  0
 26 70  1  0
 26 71  1  0
 26 72  1  0
 28 73  1  0
 28 74  1  0
 28 75  1  0
 29 76  1  0
 29 77  1  0
 30 78  1  0
 30 79  1  0
 32 80  1  0
 32 81  1  0
 32 82  1  0
M  END
>  <meeko>  (7) 
{"is_sidechain": [false], "intermolecular_energy": 2.731, "internal_energy": -0.839}

$$$$
EPH_relaxed_0001_pdb2pqr_Repair_196_r2_0001_out
     RDKit          3D

 82 86  0  0  0  0  0  0  0  0999 V2000
    1.7280   10.4010   -0.3250 C   0  0  0  0  0  0  0  0  0  0  0  0
    1.6510   10.8720   -1.7800 C   0  0  2  0  0  0  0  0  0  0  0  0
    2.7060   10.1840   -2.6690 C   0  0  0  0  0  0  0  0  0  0  0  0
    3.4870   11.1540   -3.5600 C   0  0  0  0  0  0  0  0  0  0  0  0
    4.9380   11.2000   -3.1900 C   0  0  2  0  0  0  0  0  0  0  0  0
    5.6920   12.2270   -3.8490 O   0  0  0  0  0  0  0  0  0  0  0  0
    6.0600   10.8730   -4.1580 C   0  0  0  0  0  0  0  0  0  0  0  0
    5.7780   10.4740   -5.5720 C   0  0  0  0  0  0  0  0  0  0  0  0
    7.3900   10.4680   -3.6020 C   0  0  0  0  0  0  0  0  0  0  0  0
    1.8220   12.3850   -1.8450 C   0  0  1  0  0  0  0  0  0  0  0  0
    1.5450   12.9570   -3.2620 C   0  0  0  0  0  0  0  0  0  0  0  0
    0.8880   14.3470   -3.0630 C   0  0  0  0  0  0  0  0  0  0  0  0
    1.1090   14.6720   -1.5670 C   0  0  1  0  0  0  0  0  0  0  0  0
    2.5710   15.2120   -1.4860 C   0  0  0  0  0  0  0  0  0  0  0  0
    0.0900   15.6650   -0.9180 C   0  0  2  0  0  0  0  0  0  0  0  0
    0.0820   17.0800   -1.5220 C   0  0  0  0  0  0  0  0  0  0  0  0
    1.0130   18.0540   -0.8780 C   0  0  0  0  0  0  0  0  0  0  0  0
    1.6110   17.8910    0.3170 C   0  0  0  0  0  0  0  0  0  0  0  0
    1.2950   16.6740    1.1960 C   0  0  1  0  0  0  0  0  0  0  0  0
    1.0510   17.1400    2.6560 C   0  0  0  0  0  0  0  0  0  0  0  0
    2.2050   17.9730    3.2050 C   0  0  0  0  0  0  0  0  0  0  0  0
    2.4500   19.2050    2.3360 C   0  0  2  0  0  0  0  0  0  0  0  0
    1.3230   20.0790    2.4470 O   0  0  0  0  0  0  0  0  0  0  0  0
    2.6990   18.8600    0.8410 C   0  0  0  0  0  0  0  0  0  0  0  0
    4.0780   18.1710    0.6880 C   0  0  0  0  0  0  0  0  0  0  0  0
    2.7910   20.1940    0.0530 C   0  0  0  0  0  0  0  0  0  0  0  0
    0.1490   15.7120    0.6630 C   0  0  1  0  0  0  0  0  0  0  0  0
   -1.2430   16.2240    1.1450 C   0  0  0  0  0  0  0  0  0  0  0  0
    0.3400   14.2840    1.2980 C   0  0  0  0  0  0  0  0  0  0  0  0
    1.2650   13.3070    0.5460 C   0  0  0  0  0  0  0  0  0  0  0  0
    0.9030   13.2450   -0.9410 C   0  0  2  0  0  0  0  0  0  0  0  0
   -0.5560   12.6840   -1.0550 C   0  0  0  0  0  0  0  0  0  0  0  0
    1.5874   11.2607    0.3466 H   0  0  0  0  0  0  0  0  0  0  0  0
    0.9396    9.6570   -0.1382 H   0  0  0  0  0  0  0  0  0  0  0  0
    2.7123    9.9469   -0.1382 H   0  0  0  0  0  0  0  0  0  0  0  0
    0.6601   10.5924   -2.1672 H   0  0  0  0  0  0  0  0  0  0  0  0
    3.4202    9.6591   -2.0175 H   0  0  0  0  0  0  0  0  0  0  0  0
    2.1652    9.4979   -3.3374 H   0  0  0  0  0  0  0  0  0  0  0  0
    3.3961   10.8284   -4.6068 H   0  0  0  0  0  0  0  0  0  0  0  0
    3.0659   12.1608   -3.4225 H   0  0  0  0  0  0  0  0  0  0  0  0
    4.7138   10.8447   -2.1734 H   0  0  0  0  0  0  0  0  0  0  0  0
    5.1431    9.5757   -5.5798 H   0  0  0  0  0  0  0  0  0  0  0  0
    5.2583   11.2948   -6.0879 H   0  0  0  0  0  0  0  0  0  0  0  0
    6.7252   10.2581   -6.0879 H   0  0  0  0  0  0  0  0  0  0  0  0
    7.3473   10.4810   -2.5029 H   0  0  0  0  0  0  0  0  0  0  0  0
    7.6383    9.4535   -3.9473 H   0  0  0  0  0  0  0  0  0  0  0  0
    8.1615   11.1719   -3.9473 H   0  0  0  0  0  0  0  0  0  0  0  0
    2.8655   12.4671   -1.5068 H   0  0  0  0  0  0  0  0  0  0  0  0
    2.4875   13.0599   -3.8198 H   0  0  0  0  0  0  0  0  0  0  0  0
    0.8872   12.2880   -3.8362 H   0  0  0  0  0  0  0  0  0  0  0  0
    1.3736   15.1009   -3.7001 H   0  0  0  0  0  0  0  0  0  0  0  0
   -0.1772   14.3482   -3.3374 H   0  0  0  0  0  0  0  0  0  0  0  0
    2.8640   15.3202   -0.4313 H   0  0  0  0  0  0  0  0  0  0  0  0
    3.2509   14.5057   -1.9848 H   0  0  0  0  0  0  0  0  0  0  0  0
    2.6286   16.1907   -1.9848 H   0  0  0  0  0  0  0  0  0  0  0  0
   -0.8786   15.2195   -1.1890 H   0  0  0  0  0  0  0  0  0  0  0  0
    0.3573   16.9978   -2.5838 H   0  0  0  0  0  0  0  0  0  0  0  0
   -0.9317   17.4747   -1.3588 H   0  0  0  0  0  0  0  0  0  0  0  0
    1.2283   18.9830   -1.4263 H   0  0  0  0  0  0  0  0  0  0  0  0
    2.1848   16.0287    1.1533 H   0  0  0  0  0  0  0  0  0  0  0  0
    0.1338   17.7466    2.6838 H   0  0  0  0  0  0  0  0  0  0  0  0
    0.9608   16.2406    3.2828 H   0  0  0  0  0  0  0  0  0  0  0  0
    1.9610   18.2964    4.2277 H   0  0  0  0  0  0  0  0  0  0  0  0
    3.1155   17.3557    3.2040 H   0  0  0  0  0  0  0  0  0  0  0  0
    3.3664   19.6906    2.7026 H   0  0  0  0  0  0  0  0  0  0  0  0
    1.0820   20.1300    3.3880 H   0  0  0  0  0  0  0  0  0  0  0  0
    4.4960   17.9621    1.6838 H   0  0  0  0  0  0  0  0  0  0  0  0
    3.9572   17.2274    0.1358 H   0  0  0  0  0  0  0  0  0  0  0  0
    4.7600   18.8342    0.1358 H   0  0  0  0  0  0  0  0  0  0  0  0
    2.8490   21.0344    0.7603 H   0  0  0  0  0  0  0  0  0  0  0  0
    3.6906   20.1847   -0.5799 H   0  0  0  0  0  0  0  0  0  0  0  0
    1.8986   20.3083   -0.5799 H   0  0  0  0  0  0  0  0  0  0  0  0
   -1.2694   16.2337    2.2446 H   0  0  0  0  0  0  0  0  0  0  0  0
   -1.4106   17.2426    0.7652 H   0  0  0  0  0  0  0  0  0  0  0  0
   -2.0307   15.5568    0.7652 H   0  0  0  0  0  0  0  0  0  0  0  0
    0.7523   14.4216    2.3085 H   0  0  0  0  0  0  0  0  0  0  0  0
   -0.6565   13.8192    1.2660 H   0  0  0  0  0  0  0  0  0  0  0  0
    2.3064   13.6458    0.6491 H   0  0  0  0  0  0  0  0  0  0  0  0
    1.1422   12.3034    0.9793 H   0  0  0  0  0  0  0  0  0  0  0  0
   -0.9677   12.5257   -0.0473 H   0  0  0  0  0  0  0  0  0  0  0  0
   -1.1845   13.4046   -1.5988 H   0  0  0  0  0  0  0  0  0  0  0  0
   -0.5398   11.7280   -1.5988 H   0  0  0  0  0  0  0  0  0  0  0  0
  1  2  1  0
  2  3  1  0
  3  4  1  0
  4  5  1  0
  5  6  1  0
  6  7  1  0
  7  8  1  0
  7  9  1  0
  2 10  1  0
 10 11  1  0
 11 12  1  0
 12 13  1  0
 13 14  1  6
 13 15  1  0
 15 16  1  0
 16 17  1  0
 17 18  2  0
 18 19  1  0
 19 20  1  0
 20 21  1  0
 21 22  1  0
 22 23  1  0
 22 24  1  0
 24 25  1  0
 24 26  1  0
 19 27  1  0
 27 28  1  1
 27 29  1  0
 29 30  1  0
 30 31  1  0
 31 32  1  1
  7  5  1  0
 31 10  1  0
 31 13  1  0
 27 15  1  0
 24 18  1  0
  1 33  1  0
  1 34  1  0
  1 35  1  0
  2 36  1  6
  3 37  1  0
  3 38  1  0
  4 39  1  0
  4 40  1  0
  5 41  1  1
  8 42  1  0
  8 43  1  0
  8 44  1  0
  9 45  1  0
  9 46  1  0
  9 47  1  0
 10 48  1  1
 11 49  1  0
 11 50  1  0
 12 51  1  0
 12 52  1  0
 14 53  1  0
 14 54  1  0
 14 55  1  0
 15 56  1  1
 16 57  1  0
 16 58  1  0
 17 59  1  0
 19 60  1  1
 20 61  1  0
 20 62  1  0
 21 63  1  0
 21 64  1  0
 22 65  1  1
 23 66  1  0
 25 67  1  0
 25 68  1  0
 25 69  1  0
 26 70  1  0
 26 71  1  0
 26 72  1  0
 28 73  1  0
 28 74  1  0
 28 75  1  0
 29 76  1  0
 29 77  1  0
 30 78  1  0
 30 79  1  0
 32 80  1  0
 32 81  1  0
 32 82  1  0
M  END
>  <meeko>  (8) 
{"is_sidechain": [false], "intermolecular_energy": 2.731, "internal_energy": -0.839}

$$$$
EPH_relaxed_0001_pdb2pqr_Repair_196_r2_0001_out
     RDKit          3D

 82 86  0  0  0  0  0  0  0  0999 V2000
    3.9870   17.9700    0.7220 C   0  0  0  0  0  0  0  0  0  0  0  0
    2.5630   18.3690    1.1180 C   0  0  2  0  0  0  0  0  0  0  0  0
    2.4940   18.9280    2.5530 C   0  0  0  0  0  0  0  0  0  0  0  0
    3.6460   19.8740    2.9010 C   0  0  0  0  0  0  0  0  0  0  0  0
    4.5470   19.2900    3.9470 C   0  0  2  0  0  0  0  0  0  0  0  0
    5.5360   20.1940    4.4580 O   0  0  0  0  0  0  0  0  0  0  0  0
    6.0310   19.0550    3.7350 C   0  0  0  0  0  0  0  0  0  0  0  0
    6.6990   19.3980    2.4410 C   0  0  0  0  0  0  0  0  0  0  0  0
    6.7260   18.0490    4.5990 C   0  0  0  0  0  0  0  0  0  0  0  0
    1.6290   17.1720    0.9790 C   0  0  1  0  0  0  0  0  0  0  0  0
    0.1440   17.5890    0.8130 C   0  0  0  0  0  0  0  0  0  0  0  0
   -0.5080   16.5550   -0.1410 C   0  0  0  0  0  0  0  0  0  0  0  0
    0.5200   15.4030   -0.2270 C   0  0  1  0  0  0  0  0  0  0  0  0
    0.2800   14.5540    1.0610 C   0  0  0  0  0  0  0  0  0  0  0  0
    0.4640   14.5220   -1.5180 C   0  0  2  0  0  0  0  0  0  0  0  0
   -0.8510   13.7510   -1.7250 C   0  0  0  0  0  0  0  0  0  0  0  0
   -0.8890   12.3830   -1.1280 C   0  0  0  0  0  0  0  0  0  0  0  0
    0.1810   11.6850   -0.7030 C   0  0  0  0  0  0  0  0  0  0  0  0
    1.6020   12.2300   -0.8920 C   0  0  1  0  0  0  0  0  0  0  0  0
    2.5170   11.1090   -1.4510 C   0  0  0  0  0  0  0  0  0  0  0  0
    2.4850    9.8460   -0.5950 C   0  0  0  0  0  0  0  0  0  0  0  0
    1.0630    9.3020   -0.4780 C   0  0  2  0  0  0  0  0  0  0  0  0
    0.6380    8.8450   -1.7650 O   0  0  0  0  0  0  0  0  0  0  0  0
    0.0500   10.3480    0.0660 C   0  0  0  0  0  0  0  0  0  0  0  0
    0.3340   10.6180    1.5640 C   0  0  0  0  0  0  0  0  0  0  0  0
   -1.3680    9.7170    0.0010 C   0  0  0  0  0  0  0  0  0  0  0  0
    1.7220   13.5830   -1.7170 C   0  0  1  0  0  0  0  0  0  0  0  0
    1.8070   13.2710   -3.2420 C   0  0  0  0  0  0  0  0  0  0  0  0
    3.0710   14.3010   -1.3350 C   0  0  0  0  0  0  0  0  0  0  0  0
    3.0330   15.2500   -0.1220 C   0  0  0  0  0  0  0  0  0  0  0  0
    1.8580   16.2280   -0.2280 C   0  0  2  0  0  0  0  0  0  0  0  0
    2.0840   17.1110   -1.5020 C   0  0  0  0  0  0  0  0  0  0  0  0
    4.5864   17.8021    1.6290 H   0  0  0  0  0  0  0  0  0  0  0  0
    3.9566   17.0458    0.1263 H   0  0  0  0  0  0  0  0  0  0  0  0
    4.4412   18.7755    0.1263 H   0  0  0  0  0  0  0  0  0  0  0  0
    2.2429   19.1706    0.4362 H   0  0  0  0  0  0  0  0  0  0  0  0
    1.5475   19.4768    2.6667 H   0  0  0  0  0  0  0  0  0  0  0  0
    2.5658   18.0690    3.2364 H   0  0  0  0  0  0  0  0  0  0  0  0
    4.2343   20.0686    1.9921 H   0  0  0  0  0  0  0  0  0  0  0  0
    3.2165   20.8049    3.2997 H   0  0  0  0  0  0  0  0  0  0  0  0
    3.7407   18.6361    4.3107 H   0  0  0  0  0  0  0  0  0  0  0  0
    7.6607   19.8918    2.6444 H   0  0  0  0  0  0  0  0  0  0  0  0
    6.8740   18.4782    1.8636 H   0  0  0  0  0  0  0  0  0  0  0  0
    6.0535   20.0762    1.8636 H   0  0  0  0  0  0  0  0  0  0  0  0
    6.5560   18.2950    5.6576 H   0  0  0  0  0  0  0  0  0  0  0  0
    6.3273   17.0459    4.3871 H   0  0  0  0  0  0  0  0  0  0  0  0
    7.8053   18.0669    4.3871 H   0  0  0  0  0  0  0  0  0  0  0  0
    1.8613   16.6471    1.9174 H   0  0  0  0  0  0  0  0  0  0  0  0
   -0.3640   17.5770    1.7886 H   0  0  0  0  0  0  0  0  0  0  0  0
    0.0633   18.6076    0.4055 H   0  0  0  0  0  0  0  0  0  0  0  0
   -1.4622   16.1943    0.2706 H   0  0  0  0  0  0  0  0  0  0  0  0
   -0.7381   16.9839   -1.1275 H   0  0  0  0  0  0  0  0  0  0  0  0
    0.4564   15.1779    1.9496 H   0  0  0  0  0  0  0  0  0  0  0  0
   -0.7570   14.1872    1.0705 H   0  0  0  0  0  0  0  0  0  0  0  0
    0.9715   13.6986    1.0705 H   0  0  0  0  0  0  0  0  0  0  0  0
    0.4980   15.2751   -2.3191 H   0  0  0  0  0  0  0  0  0  0  0  0
   -1.6646   14.3402   -1.2768 H   0  0  0  0  0  0  0  0  0  0  0  0
   -0.9545   13.6119   -2.8113 H   0  0  0  0  0  0  0  0  0  0  0  0
   -1.8745   11.9050   -1.0268 H   0  0  0  0  0  0  0  0  0  0  0  0
    1.9475   12.5298    0.1084 H   0  0  0  0  0  0  0  0  0  0  0  0
    2.1821   10.8546   -2.4674 H   0  0  0  0  0  0  0  0  0  0  0  0
    3.5495   11.4883   -1.4479 H   0  0  0  0  0  0  0  0  0  0  0  0
    3.1261    9.0812   -1.0577 H   0  0  0  0  0  0  0  0  0  0  0  0
    2.8496   10.0953    0.4124 H   0  0  0  0  0  0  0  0  0  0  0  0
    1.0834    8.4775    0.2498 H   0  0  0  0  0  0  0  0  0  0  0  0
   -0.1010    8.2280   -1.6290 H   0  0  0  0  0  0  0  0  0  0  0  0
   -0.3259    9.9906    2.1812 H   0  0  0  0  0  0  0  0  0  0  0  0
    1.3837   10.3767    1.7875 H   0  0  0  0  0  0  0  0  0  0  0  0
    0.1460   11.6785    1.7875 H   0  0  0  0  0  0  0  0  0  0  0  0
   -1.7423    9.5504    1.0218 H   0  0  0  0  0  0  0  0  0  0  0  0
   -2.0480   10.3974   -0.5324 H   0  0  0  0  0  0  0  0  0  0  0  0
   -1.3177    8.7563   -0.5324 H   0  0  0  0  0  0  0  0  0  0  0  0
    2.0937   12.2188   -3.3856 H   0  0  0  0  0  0  0  0  0  0  0  0
    0.8271   13.4510   -3.7083 H   0  0  0  0  0  0  0  0  0  0  0  0
    2.5602   13.9231   -3.7083 H   0  0  0  0  0  0  0  0  0  0  0  0
    3.8156   13.5195   -1.1231 H   0  0  0  0  0  0  0  0  0  0  0  0
    3.3093   14.9431   -2.1957 H   0  0  0  0  0  0  0  0  0  0  0  0
    2.9245   14.6553    0.7970 H   0  0  0  0  0  0  0  0  0  0  0  0
    3.9691   15.8272   -0.0985 H   0  0  0  0  0  0  0  0  0  0  0  0
    2.3460   18.1348   -1.1968 H   0  0  0  0  0  0  0  0  0  0  0  0
    2.9024   16.6864   -2.1019 H   0  0  0  0  0  0  0  0  0  0  0  0
    1.1622   17.1318   -2.1019 H   0  0  0  0  0  0  0  0  0  0  0  0
  1  2  1  0
  2  3  1  0
  3  4  1  0
  4  5  1  0
  5  6  1  0
  6  7  1  0
  7  8  1  0
  7  9  1  0
  2 10  1  0
 10 11  1  0
 11 12  1  0
 12 13  1  0
 13 14  1  1
 13 15  1  0
 15 16  1  0
 16 17  1  0
 17 18  2  0
 18 19  1  0
 19 20  1  0
 20 21  1  0
 21 22  1  0
 22 23  1  0
 22 24  1  0
 24 25  1  0
 24 26  1  0
 19 27  1  0
 27 28  1  6
 27 29  1  0
 29 30  1  0
 30 31  1  0
 31 32  1  6
  7  5  1  0
 31 10  1  0
 31 13  1  0
 27 15  1  0
 24 18  1  0
  1 33  1  0
  1 34  1  0
  1 35  1  0
  2 36  1  6
  3 37  1  0
  3 38  1  0
  4 39  1  0
  4 40  1  0
  5 41  1  1
  8 42  1  0
  8 43  1  0
  8 44  1  0
  9 45  1  0
  9 46  1  0
  9 47  1  0
 10 48  1  1
 11 49  1  0
 11 50  1  0
 12 51  1  0
 12 52  1  0
 14 53  1  0
 14 54  1  0
 14 55  1  0
 15 56  1  6
 16 57  1  0
 16 58  1  0
 17 59  1  0
 19 60  1  1
 20 61  1  0
 20 62  1  0
 21 63  1  0
 21 64  1  0
 22 65  1  1
 23 66  1  0
 25 67  1  0
 25 68  1  0
 25 69  1  0
 26 70  1  0
 26 71  1  0
 26 72  1  0
 28 73  1  0
 28 74  1  0
 28 75  1  0
 29 76  1  0
 29 77  1  0
 30 78  1  0
 30 79  1  0
 32 80  1  0
 32 81  1  0
 32 82  1  0
M  END
>  <meeko>  (9) 
{"is_sidechain": [false], "intermolecular_energy": 2.731, "internal_energy": -0.839}

$$$$
EPH_relaxed_0001_pdb2pqr_Repair_196_r2_0001_out
     RDKit          3D

 82 86  0  0  0  0  0  0  0  0999 V2000
    3.0500   10.1710   -1.3890 C   0  0  0  0  0  0  0  0  0  0  0  0
    1.7040   10.8520   -1.6500 C   0  0  2  0  0  0  0  0  0  0  0  0
    1.0330   10.3380   -2.9400 C   0  0  0  0  0  0  0  0  0  0  0  0
   -0.0170    9.2510   -2.6960 C   0  0  0  0  0  0  0  0  0  0  0  0
   -0.8180    9.5210   -1.4590 C   0  0  2  0  0  0  0  0  0  0  0  0
   -0.9550    8.3990   -0.5780 O   0  0  0  0  0  0  0  0  0  0  0  0
   -2.1660    8.8850   -1.1790 C   0  0  0  0  0  0  0  0  0  0  0  0
   -2.7930    7.9280   -2.1450 C   0  0  0  0  0  0  0  0  0  0  0  0
   -3.0900    9.5600   -0.2140 C   0  0  0  0  0  0  0  0  0  0  0  0
    1.8920   12.3630   -1.7270 C   0  0  1  0  0  0  0  0  0  0  0  0
    1.6680   12.9210   -3.1580 C   0  0  0  0  0  0  0  0  0  0  0  0
    1.0190   14.3190   -2.9960 C   0  0  0  0  0  0  0  0  0  0  0  0
    1.1940   14.6600   -1.4980 C   0  0  1  0  0  0  0  0  0  0  0  0
    2.6580   15.1860   -1.3750 C   0  0  0  0  0  0  0  0  0  0  0  0
    0.1650   15.6700   -0.8940 C   0  0  2  0  0  0  0  0  0  0  0  0
    0.1910   17.0780   -1.5140 C   0  0  0  0  0  0  0  0  0  0  0  0
    1.1100   18.0500   -0.8500 C   0  0  0  0  0  0  0  0  0  0  0  0
    1.6670   17.8950    0.3660 C   0  0  0  0  0  0  0  0  0  0  0  0
    1.3100   16.6910    1.2480 C   0  0  1  0  0  0  0  0  0  0  0  0
    1.0230   17.1760    2.6930 C   0  0  0  0  0  0  0  0  0  0  0  0
    2.1670   18.0040    3.2710 C   0  0  0  0  0  0  0  0  0  0  0  0
    2.4530   19.2230    2.3970 C   0  0  2  0  0  0  0  0  0  0  0  0
    1.3320   20.1100    2.4610 O   0  0  0  0  0  0  0  0  0  0  0  0
    2.7470   18.8590    0.9150 C   0  0  0  0  0  0  0  0  0  0  0  0
    4.1230   18.1540    0.8150 C   0  0  0  0  0  0  0  0  0  0  0  0
    2.8780   20.1830    0.1150 C   0  0  0  0  0  0  0  0  0  0  0  0
    0.1720   15.7340    0.6880 C   0  0  1  0  0  0  0  0  0  0  0  0
   -1.2300   16.2660    1.1170 C   0  0  0  0  0  0  0  0  0  0  0  0
    0.3270   14.3110    1.3440 C   0  0  0  0  0  0  0  0  0  0  0  0
    1.2660   13.3180    0.6340 C   0  0  0  0  0  0  0  0  0  0  0  0
    0.9530   13.2410   -0.8640 C   0  0  2  0  0  0  0  0  0  0  0  0
   -0.5070   12.6940   -1.0200 C   0  0  0  0  0  0  0  0  0  0  0  0
    3.2146   10.0877   -0.3046 H   0  0  0  0  0  0  0  0  0  0  0  0
    3.0458    9.1666   -1.8374 H   0  0  0  0  0  0  0  0  0  0  0  0
    3.8567   10.7694   -1.8374 H   0  0  0  0  0  0  0  0  0  0  0  0
    1.0388   10.6024   -0.8102 H   0  0  0  0  0  0  0  0  0  0  0  0
    0.5440   11.1874   -3.4394 H   0  0  0  0  0  0  0  0  0  0  0  0
    1.8247    9.8878   -3.5569 H   0  0  0  0  0  0  0  0  0  0  0  0
   -0.6972    9.2123   -3.5596 H   0  0  0  0  0  0  0  0  0  0  0  0
    0.5065    8.2927   -2.5628 H   0  0  0  0  0  0  0  0  0  0  0  0
   -0.4777   10.5669   -1.4391 H   0  0  0  0  0  0  0  0  0  0  0  0
   -3.3132    7.1340   -1.5891 H   0  0  0  0  0  0  0  0  0  0  0  0
   -3.5145    8.4657   -2.7778 H   0  0  0  0  0  0  0  0  0  0  0  0
   -2.0119    7.4813   -2.7778 H   0  0  0  0  0  0  0  0  0  0  0  0
   -2.7765    9.3310    0.8152 H   0  0  0  0  0  0  0  0  0  0  0  0
   -3.0565   10.6478   -0.3740 H   0  0  0  0  0  0  0  0  0  0  0  0
   -4.1161    9.1973   -0.3740 H   0  0  0  0  0  0  0  0  0  0  0  0
    2.9247   12.4392   -1.3560 H   0  0  0  0  0  0  0  0  0  0  0  0
    2.6294   13.0085   -3.6853 H   0  0  0  0  0  0  0  0  0  0  0  0
    1.0231   12.2519   -3.7465 H   0  0  0  0  0  0  0  0  0  0  0  0
    1.5325   15.0607   -3.6255 H   0  0  0  0  0  0  0  0  0  0  0  0
   -0.0368   14.3267   -3.3047 H   0  0  0  0  0  0  0  0  0  0  0  0
    2.9251   15.2820   -0.3122 H   0  0  0  0  0  0  0  0  0  0  0  0
    3.3442   14.4782   -1.8630 H   0  0  0  0  0  0  0  0  0  0  0  0
    2.7368   16.1687   -1.8630 H   0  0  0  0  0  0  0  0  0  0  0  0
   -0.7988   15.2312   -1.1916 H   0  0  0  0  0  0  0  0  0  0  0  0
    0.5005   16.9810   -2.5651 H   0  0  0  0  0  0  0  0  0  0  0  0
   -0.8236   17.4843   -1.3895 H   0  0  0  0  0  0  0  0  0  0  0  0
    1.3524   18.9706   -1.4011 H   0  0  0  0  0  0  0  0  0  0  0  0
    2.1941   16.0365    1.2421 H   0  0  0  0  0  0  0  0  0  0  0  0
    0.1117   17.7920    2.6836 H   0  0  0  0  0  0  0  0  0  0  0  0
    0.9030   16.2847    3.3264 H   0  0  0  0  0  0  0  0  0  0  0  0
    1.8926   18.3416    4.2813 H   0  0  0  0  0  0  0  0  0  0  0  0
    3.0706   17.3778    3.3074 H   0  0  0  0  0  0  0  0  0  0  0  0
    3.3621   19.7030    2.7884 H   0  0  0  0  0  0  0  0  0  0  0  0
    1.0470   20.1580    3.3890 H   0  0  0  0  0  0  0  0  0  0  0  0
    4.5082   17.9566    1.8263 H   0  0  0  0  0  0  0  0  0  0  0  0
    4.0093   17.2031    0.2739 H   0  0  0  0  0  0  0  0  0  0  0  0
    4.8284   18.8017    0.2739 H   0  0  0  0  0  0  0  0  0  0  0  0
    2.9616   21.0275    0.8148 H   0  0  0  0  0  0  0  0  0  0  0  0
    3.7764   20.1414   -0.5183 H   0  0  0  0  0  0  0  0  0  0  0  0
    1.9888   20.3182   -0.5183 H   0  0  0  0  0  0  0  0  0  0  0  0
   -1.2929   16.2899    2.2149 H   0  0  0  0  0  0  0  0  0  0  0  0
   -1.3743   17.2814    0.7193 H   0  0  0  0  0  0  0  0  0  0  0  0
   -2.0116   15.6019    0.7193 H   0  0  0  0  0  0  0  0  0  0  0  0
    0.7067   14.4553    2.3663 H   0  0  0  0  0  0  0  0  0  0  0  0
   -0.6725   13.8556    1.2837 H   0  0  0  0  0  0  0  0  0  0  0  0
    2.3066   13.6487    0.7675 H   0  0  0  0  0  0  0  0  0  0  0  0
    1.1189   12.3208    1.0743 H   0  0  0  0  0  0  0  0  0  0  0  0
   -0.9453   12.5298   -0.0246 H   0  0  0  0  0  0  0  0  0  0  0  0
   -1.1154   13.4252   -1.5725 H   0  0  0  0  0  0  0  0  0  0  0  0
   -0.4852   11.7431   -1.5725 H   0  0  0  0  0  0  0  0  0  0  0  0
  1  2  1  0
  2  3  1  0
  3  4  1  0
  4  5  1  0
  5  6  1  0
  6  7  1  0
  7  8  1  0
  7  9  1  0
  2 10  1  0
 10 11  1  0
 11 12  1  0
 12 13  1  0
 13 14  1  6
 13 15  1  0
 15 16  1  0
 16 17  1  0
 17 18  2  0
 18 19  1  0
 19 20  1  0
 20 21  1  0
 21 22  1  0
 22 23  1  0
 22 24  1  0
 24 25  1  0
 24 26  1  0
 19 27  1  0
 27 28  1  1
 27 29  1  0
 29 30  1  0
 30 31  1  0
 31 32  1  1
  7  5  1  0
 31 10  1  0
 31 13  1  0
 27 15  1  0
 24 18  1  0
  1 33  1  0
  1 34  1  0
  1 35  1  0
  2 36  1  1
  3 37  1  0
  3 38  1  0
  4 39  1  0
  4 40  1  0
  5 41  1  1
  8 42  1  0
  8 43  1  0
  8 44  1  0
  9 45  1  0
  9 46  1  0
  9 47  1  0
 10 48  1  1
 11 49  1  0
 11 50  1  0
 12 51  1  0
 12 52  1  0
 14 53  1  0
 14 54  1  0
 14 55  1  0
 15 56  1  1
 16 57  1  0
 16 58  1  0
 17 59  1  0
 19 60  1  1
 20 61  1  0
 20 62  1  0
 21 63  1  0
 21 64  1  0
 22 65  1  1
 23 66  1  0
 25 67  1  0
 25 68  1  0
 25 69  1  0
 26 70  1  0
 26 71  1  0
 26 72  1  0
 28 73  1  0
 28 74  1  0
 28 75  1  0
 29 76  1  0
 29 77  1  0
 30 78  1  0
 30 79  1  0
 32 80  1  0
 32 81  1  0
 32 82  1  0
M  END
>  <meeko>  (10) 
{"is_sidechain": [false], "intermolecular_energy": 2.731, "internal_energy": -0.839}

$$$$
EPH_relaxed_0001_pdb2pqr_Repair_196_r2_0001_out
     RDKit          3D

 82 86  0  0  0  0  0  0  0  0999 V2000
   -0.7080    8.4640   -1.9530 C   0  0  0  0  0  0  0  0  0  0  0  0
   -1.0900    8.9290   -0.5450 C   0  0  2  0  0  0  0  0  0  0  0  0
   -2.5620    9.3820   -0.4620 C   0  0  0  0  0  0  0  0  0  0  0  0
   -3.4920    8.6280   -1.4170 C   0  0  0  0  0  0  0  0  0  0  0  0
   -4.8330    8.3720   -0.7970 C   0  0  2  0  0  0  0  0  0  0  0  0
   -5.0120    7.0440   -0.2870 O   0  0  0  0  0  0  0  0  0  0  0  0
   -5.8580    7.4210   -1.3850 C   0  0  0  0  0  0  0  0  0  0  0  0
   -5.5880    6.6660   -2.6490 C   0  0  0  0  0  0  0  0  0  0  0  0
   -7.2960    7.5950   -1.0060 C   0  0  0  0  0  0  0  0  0  0  0  0
   -0.1710   10.0630   -0.1050 C   0  0  1  0  0  0  0  0  0  0  0  0
    1.2680    9.5760    0.2130 C   0  0  0  0  0  0  0  0  0  0  0  0
    2.2300   10.7100   -0.2230 C   0  0  0  0  0  0  0  0  0  0  0  0
    1.3110   11.9300   -0.4650 C   0  0  1  0  0  0  0  0  0  0  0  0
    1.0520   12.5250    0.9540 C   0  0  0  0  0  0  0  0  0  0  0  0
    1.8480   13.0140   -1.4560 C   0  0  2  0  0  0  0  0  0  0  0  0
    3.1460   13.7130   -1.0170 C   0  0  0  0  0  0  0  0  0  0  0  0
    2.9600   14.9520   -0.2050 C   0  0  0  0  0  0  0  0  0  0  0  0
    1.8100   15.6400   -0.0810 C   0  0  0  0  0  0  0  0  0  0  0  0
    0.5620   15.2390   -0.8780 C   0  0  1  0  0  0  0  0  0  0  0  0
   -0.0740   16.5020   -1.5140 C   0  0  0  0  0  0  0  0  0  0  0  0
   -0.3640   17.5920   -0.4870 C   0  0  0  0  0  0  0  0  0  0  0  0
    0.9110   18.0060    0.2440 C   0  0  2  0  0  0  0  0  0  0  0  0
    1.7890   18.6470   -0.6870 O   0  0  0  0  0  0  0  0  0  0  0  0
    1.6450   16.8130    0.9180 C   0  0  0  0  0  0  0  0  0  0  0  0
    0.8190   16.3090    2.1270 C   0  0  0  0  0  0  0  0  0  0  0  0
    2.9850   17.3420    1.4970 C   0  0  0  0  0  0  0  0  0  0  0  0
    0.7580   14.0600   -1.9260 C   0  0  1  0  0  0  0  0  0  0  0  0
    1.2510   14.6360   -3.2880 C   0  0  0  0  0  0  0  0  0  0  0  0
   -0.6370   13.3860   -2.2070 C   0  0  0  0  0  0  0  0  0  0  0  0
   -1.0570   12.2410   -1.2660 C   0  0  0  0  0  0  0  0  0  0  0  0
    0.0700   11.2150   -1.1120 C   0  0  2  0  0  0  0  0  0  0  0  0
    0.3370   10.5830   -2.5210 C   0  0  0  0  0  0  0  0  0  0  0  0
   -0.0112    7.6158   -1.8826 H   0  0  0  0  0  0  0  0  0  0  0  0
   -1.6132    8.1510   -2.4940 H   0  0  0  0  0  0  0  0  0  0  0  0
   -0.2252    9.2912   -2.4940 H   0  0  0  0  0  0  0  0  0  0  0  0
   -0.9704    8.0695    0.1309 H   0  0  0  0  0  0  0  0  0  0  0  0
   -2.9171    9.2226    0.5668 H   0  0  0  0  0  0  0  0  0  0  0  0
   -2.5897   10.4417   -0.7556 H   0  0  0  0  0  0  0  0  0  0  0  0
   -3.6293    9.2278   -2.3288 H   0  0  0  0  0  0  0  0  0  0  0  0
   -3.0306    7.6570   -1.6502 H   0  0  0  0  0  0  0  0  0  0  0  0
   -4.9039    9.4168   -0.4603 H   0  0  0  0  0  0  0  0  0  0  0  0
   -5.2270    5.6565   -2.4031 H   0  0  0  0  0  0  0  0  0  0  0  0
   -6.5150    6.5909   -3.2364 H   0  0  0  0  0  0  0  0  0  0  0  0
   -4.8236    7.1958   -3.2364 H   0  0  0  0  0  0  0  0  0  0  0  0
   -7.3875    7.6061    0.0901 H   0  0  0  0  0  0  0  0  0  0  0  0
   -7.6706    8.5450   -1.4148 H   0  0  0  0  0  0  0  0  0  0  0  0
   -7.8864    6.7617   -1.4148 H   0  0  0  0  0  0  0  0  0  0  0  0
   -0.7378   10.4337    0.7618 H   0  0  0  0  0  0  0  0  0  0  0  0
    1.3733    9.3834    1.2909 H   0  0  0  0  0  0  0  0  0  0  0  0
    1.4946    8.6397   -0.3180 H   0  0  0  0  0  0  0  0  0  0  0  0
    2.9608   10.9257    0.5704 H   0  0  0  0  0  0  0  0  0  0  0  0
    2.8120   10.4424   -1.1172 H   0  0  0  0  0  0  0  0  0  0  0  0
    1.3676   11.8000    1.7188 H   0  0  0  0  0  0  0  0  0  0  0  0
    1.6264   13.4557    1.0718 H   0  0  0  0  0  0  0  0  0  0  0  0
   -0.0206   12.7387    1.0718 H   0  0  0  0  0  0  0  0  0  0  0  0
    2.1155   12.4146   -2.3387 H   0  0  0  0  0  0  0  0  0  0  0  0
    3.7309   12.9990   -0.4185 H   0  0  0  0  0  0  0  0  0  0  0  0
    3.6497   14.0286   -1.9426 H   0  0  0  0  0  0  0  0  0  0  0  0
    3.8369   15.3348    0.3377 H   0  0  0  0  0  0  0  0  0  0  0  0
   -0.1346   14.7969   -0.1505 H   0  0  0  0  0  0  0  0  0  0  0  0
    0.6186   16.9037   -2.2683 H   0  0  0  0  0  0  0  0  0  0  0  0
   -1.0327   16.2028   -1.9627 H   0  0  0  0  0  0  0  0  0  0  0  0
   -0.7848   18.4685   -1.0014 H   0  0  0  0  0  0  0  0  0  0  0  0
   -1.0794   17.1985    0.2502 H   0  0  0  0  0  0  0  0  0  0  0  0
    0.6197   18.6926    1.0525 H   0  0  0  0  0  0  0  0  0  0  0  0
    2.6750   18.6670   -0.2890 H   0  0  0  0  0  0  0  0  0  0  0  0
    1.3146   16.6114    3.0613 H   0  0  0  0  0  0  0  0  0  0  0  0
   -0.1900   16.7455    2.0893 H   0  0  0  0  0  0  0  0  0  0  0  0
    0.7456   15.2121    2.0893 H   0  0  0  0  0  0  0  0  0  0  0  0
    2.9417   17.3249    2.5960 H   0  0  0  0  0  0  0  0  0  0  0  0
    3.8111   16.7025    1.1526 H   0  0  0  0  0  0  0  0  0  0  0  0
    3.1515   18.3733    1.1526 H   0  0  0  0  0  0  0  0  0  0  0  0
    1.9562   15.4599   -3.1039 H   0  0  0  0  0  0  0  0  0  0  0  0
    1.7547   13.8433   -3.8606 H   0  0  0  0  0  0  0  0  0  0  0  0
    0.3900   15.0113   -3.8606 H   0  0  0  0  0  0  0  0  0  0  0  0
   -1.4052   14.1705   -2.1401 H   0  0  0  0  0  0  0  0  0  0  0  0
   -0.5378   12.9216   -3.1992 H   0  0  0  0  0  0  0  0  0  0  0  0
   -1.3007   12.6586   -0.2779 H   0  0  0  0  0  0  0  0  0  0  0  0
   -1.9336   11.7362   -1.6981 H   0  0  0  0  0  0  0  0  0  0  0  0
    0.7623    9.5762   -2.3966 H   0  0  0  0  0  0  0  0  0  0  0  0
   -0.6093   10.5151   -3.0777 H   0  0  0  0  0  0  0  0  0  0  0  0
    1.0454   11.2141   -3.0777 H   0  0  0  0  0  0  0  0  0  0  0  0
  1  2  1  0
  2  3  1  0
  3  4  1  0
  4  5  1  0
  5  6  1  0
  6  7  1  0
  7  8  1  0
  7  9  1  0
  2 10  1  0
 10 11  1  0
 11 12  1  0
 12 13  1  0
 13 14  1  1
 13 15  1  0
 15 16  1  0
 16 17  1  0
 17 18  2  0
 18 19  1  0
 19 20  1  0
 20 21  1  0
 21 22  1  0
 22 23  1  0
 22 24  1  0
 24 25  1  0
 24 26  1  0
 19 27  1  0
 27 28  1  6
 27 29  1  0
 29 30  1  0
 30 31  1  0
 31 32  1  6
  7  5  1  0
 31 10  1  0
 31 13  1  0
 27 15  1  0
 24 18  1  0
  1 33  1  0
  1 34  1  0
  1 35  1  0
  2 36  1  1
  3 37  1  0
  3 38  1  0
  4 39  1  0
  4 40  1  0
  5 41  1  1
  8 42  1  0
  8 43  1  0
  8 44  1  0
  9 45  1  0
  9 46  1  0
  9 47  1  0
 10 48  1  1
 11 49  1  0
 11 50  1  0
 12 51  1  0
 12 52  1  0
 14 53  1  0
 14 54  1  0
 14 55  1  0
 15 56  1  6
 16 57  1  0
 16 58  1  0
 17 59  1  0
 19 60  1  1
 20 61  1  0
 20 62  1  0
 21 63  1  0
 21 64  1  0
 22 65  1  1
 23 66  1  0
 25 67  1  0
 25 68  1  0
 25 69  1  0
 26 70  1  0
 26 71  1  0
 26 72  1  0
 28 73  1  0
 28 74  1  0
 28 75  1  0
 29 76  1  0
 29 77  1  0
 30 78  1  0
 30 79  1  0
 32 80  1  0
 32 81  1  0
 32 82  1  0
M  END
>  <meeko>  (11) 
{"is_sidechain": [false], "intermolecular_energy": 2.731, "internal_energy": -0.839}

$$$$
EPH_relaxed_0001_pdb2pqr_Repair_196_r2_0001_out
     RDKit          3D

 82 86  0  0  0  0  0  0  0  0999 V2000
    2.7350    9.7830   -2.0970 C   0  0  0  0  0  0  0  0  0  0  0  0
    2.1330   10.4460   -0.8550 C   0  0  2  0  0  0  0  0  0  0  0  0
    0.8610    9.7220   -0.3690 C   0  0  0  0  0  0  0  0  0  0  0  0
    0.1920    8.8640   -1.4460 C   0  0  0  0  0  0  0  0  0  0  0  0
   -1.1700    8.4050   -1.0220 C   0  0  2  0  0  0  0  0  0  0  0  0
   -2.1890    8.5540   -2.0190 O   0  0  0  0  0  0  0  0  0  0  0  0
   -2.3460    9.3430   -0.8290 C   0  0  0  0  0  0  0  0  0  0  0  0
   -2.2140   10.8170   -1.0540 C   0  0  0  0  0  0  0  0  0  0  0  0
   -3.4800    8.9000    0.0430 C   0  0  0  0  0  0  0  0  0  0  0  0
    1.8210   11.9090   -1.1460 C   0  0  1  0  0  0  0  0  0  0  0  0
    0.6680   12.0810   -2.1710 C   0  0  0  0  0  0  0  0  0  0  0  0
   -0.1190   13.3490   -1.7510 C   0  0  0  0  0  0  0  0  0  0  0  0
    0.7900   14.0450   -0.7110 C   0  0  1  0  0  0  0  0  0  0  0  0
    1.8430   14.8270   -1.5580 C   0  0  0  0  0  0  0  0  0  0  0  0
    0.0720   14.9760    0.3200 C   0  0  2  0  0  0  0  0  0  0  0  0
   -0.6510   16.1900   -0.2900 C   0  0  0  0  0  0  0  0  0  0  0  0
    0.1740   17.4290   -0.4100 C   0  0  0  0  0  0  0  0  0  0  0  0
    1.3470   17.6510    0.2100 C   0  0  0  0  0  0  0  0  0  0  0  0
    1.9120   16.6370    1.2130 C   0  0  1  0  0  0  0  0  0  0  0  0
    2.3950   17.3810    2.4860 C   0  0  0  0  0  0  0  0  0  0  0  0
    3.3820   18.5010    2.1690 C   0  0  0  0  0  0  0  0  0  0  0  0
    2.7640   19.5200    1.2150 C   0  0  2  0  0  0  0  0  0  0  0  0
    1.6970   20.1940    1.8900 O   0  0  0  0  0  0  0  0  0  0  0  0
    2.2320   18.8840   -0.0990 C   0  0  0  0  0  0  0  0  0  0  0  0
    3.4240   18.4190   -0.9720 C   0  0  0  0  0  0  0  0  0  0  0  0
    1.5090   19.9940   -0.9080 C   0  0  0  0  0  0  0  0  0  0  0  0
    0.9750   15.3990    1.5500 C   0  0  1  0  0  0  0  0  0  0  0  0
    0.0010   15.7680    2.7100 C   0  0  0  0  0  0  0  0  0  0  0  0
    1.8620   14.2100    2.0760 C   0  0  0  0  0  0  0  0  0  0  0  0
    2.4450   13.2550    1.0170 C   0  0  0  0  0  0  0  0  0  0  0  0
    1.3580   12.7880    0.0430 C   0  0  2  0  0  0  0  0  0  0  0  0
    0.2960   11.9800    0.8630 C   0  0  0  0  0  0  0  0  0  0  0  0
    3.4446    9.0014   -1.7879 H   0  0  0  0  0  0  0  0  0  0  0  0
    1.9315    9.3319   -2.6977 H   0  0  0  0  0  0  0  0  0  0  0  0
    3.2613   10.5394   -2.6977 H   0  0  0  0  0  0  0  0  0  0  0  0
    2.8791   10.3785   -0.0496 H   0  0  0  0  0  0  0  0  0  0  0  0
    1.1330    9.0706    0.4747 H   0  0  0  0  0  0  0  0  0  0  0  0
    0.1379   10.4998   -0.0824 H   0  0  0  0  0  0  0  0  0  0  0  0
    0.0974    9.4579   -2.3671 H   0  0  0  0  0  0  0  0  0  0  0  0
    0.8171    7.9744   -1.6131 H   0  0  0  0  0  0  0  0  0  0  0  0
   -0.7334    7.6271   -0.3783 H   0  0  0  0  0  0  0  0  0  0  0  0
   -2.1678   11.3333   -0.0838 H   0  0  0  0  0  0  0  0  0  0  0  0
   -1.2941   11.0203   -1.6218 H   0  0  0  0  0  0  0  0  0  0  0  0
   -3.0832   11.1805   -1.6218 H   0  0  0  0  0  0  0  0  0  0  0  0
   -3.1952    9.0113    1.0996 H   0  0  0  0  0  0  0  0  0  0  0  0
   -4.3657    9.5182   -0.1651 H   0  0  0  0  0  0  0  0  0  0  0  0
   -3.7121    7.8451   -0.1651 H   0  0  0  0  0  0  0  0  0  0  0  0
    2.8087   12.2417   -1.4977 H   0  0  0  0  0  0  0  0  0  0  0  0
    1.0776   12.2077   -3.1840 H   0  0  0  0  0  0  0  0  0  0  0  0
    0.0144   11.1963   -2.1821 H   0  0  0  0  0  0  0  0  0  0  0  0
   -0.2904   14.0045   -2.6175 H   0  0  0  0  0  0  0  0  0  0  0  0
   -1.1117   13.1080   -1.3429 H   0  0  0  0  0  0  0  0  0  0  0  0
    2.5420   15.3461   -0.8857 H   0  0  0  0  0  0  0  0  0  0  0  0
    2.3999   14.1219   -2.1925 H   0  0  0  0  0  0  0  0  0  0  0  0
    1.3290   15.5640   -2.1925 H   0  0  0  0  0  0  0  0  0  0  0  0
   -0.7207   14.3236    0.7150 H   0  0  0  0  0  0  0  0  0  0  0  0
   -0.9937   15.9108   -1.2973 H   0  0  0  0  0  0  0  0  0  0  0  0
   -1.4705   16.4355    0.4015 H   0  0  0  0  0  0  0  0  0  0  0  0
   -0.2102   18.2282   -1.0608 H   0  0  0  0  0  0  0  0  0  0  0  0
    2.7671   16.1594    0.7122 H   0  0  0  0  0  0  0  0  0  0  0  0
    1.5210   17.8143    2.9943 H   0  0  0  0  0  0  0  0  0  0  0  0
    2.9127   16.6499    3.1243 H   0  0  0  0  0  0  0  0  0  0  0  0
    3.6635   19.0078    3.1038 H   0  0  0  0  0  0  0  0  0  0  0  0
    4.2680   18.0618    1.6872 H   0  0  0  0  0  0  0  0  0  0  0  0
    3.5575   20.2239    0.9236 H   0  0  0  0  0  0  0  0  0  0  0  0
    1.0840   19.5170    2.2210 H   0  0  0  0  0  0  0  0  0  0  0  0
    4.2507   18.0965   -0.3220 H   0  0  0  0  0  0  0  0  0  0  0  0
    3.1075   17.5784   -1.6070 H   0  0  0  0  0  0  0  0  0  0  0  0
    3.7603   19.2519   -1.6070 H   0  0  0  0  0  0  0  0  0  0  0  0
    1.0432   20.7091   -0.2140 H   0  0  0  0  0  0  0  0  0  0  0  0
    2.2383   20.5199   -1.5417 H   0  0  0  0  0  0  0  0  0  0  0  0
    0.7331   19.5396   -1.5417 H   0  0  0  0  0  0  0  0  0  0  0  0
    0.4935   15.5814    3.6757 H   0  0  0  0  0  0  0  0  0  0  0  0
   -0.2707   16.8314    2.6364 H   0  0  0  0  0  0  0  0  0  0  0  0
   -0.9071   15.1516    2.6364 H   0  0  0  0  0  0  0  0  0  0  0  0
    2.7057   14.6451    2.6317 H   0  0  0  0  0  0  0  0  0  0  0  0
    1.1825   13.5898    2.6790 H   0  0  0  0  0  0  0  0  0  0  0  0
    3.2318   13.7787    0.4542 H   0  0  0  0  0  0  0  0  0  0  0  0
    2.8597   12.3741    1.5289 H   0  0  0  0  0  0  0  0  0  0  0  0
    0.4795   12.1196    1.9386 H   0  0  0  0  0  0  0  0  0  0  0  0
   -0.7125   12.3412    0.6132 H   0  0  0  0  0  0  0  0  0  0  0  0
    0.3751   10.9117    0.6132 H   0  0  0  0  0  0  0  0  0  0  0  0
  1  2  1  0
  2  3  1  0
  3  4  1  0
  4  5  1  0
  5  6  1  0
  6  7  1  0
  7  8  1  0
  7  9  1  0
  2 10  1  0
 10 11  1  0
 11 12  1  0
 12 13  1  0
 13 14  1  6
 13 15  1  0
 15 16  1  0
 16 17  1  0
 17 18  2  0
 18 19  1  0
 19 20  1  0
 20 21  1  0
 21 22  1  0
 22 23  1  0
 22 24  1  0
 24 25  1  0
 24 26  1  0
 19 27  1  0
 27 28  1  1
 27 29  1  0
 29 30  1  0
 30 31  1  0
 31 32  1  1
  7  5  1  0
 31 10  1  0
 31 13  1  0
 27 15  1  0
 24 18  1  0
  1 33  1  0
  1 34  1  0
  1 35  1  0
  2 36  1  1
  3 37  1  0
  3 38  1  0
  4 39  1  0
  4 40  1  0
  5 41  1  1
  8 42  1  0
  8 43  1  0
  8 44  1  0
  9 45  1  0
  9 46  1  0
  9 47  1  0
 10 48  1  6
 11 49  1  0
 11 50  1  0
 12 51  1  0
 12 52  1  0
 14 53  1  0
 14 54  1  0
 14 55  1  0
 15 56  1  1
 16 57  1  0
 16 58  1  0
 17 59  1  0
 19 60  1  6
 20 61  1  0
 20 62  1  0
 21 63  1  0
 21 64  1  0
 22 65  1  6
 23 66  1  0
 25 67  1  0
 25 68  1  0
 25 69  1  0
 26 70  1  0
 26 71  1  0
 26 72  1  0
 28 73  1  0
 28 74  1  0
 28 75  1  0
 29 76  1  0
 29 77  1  0
 30 78  1  0
 30 79  1  0
 32 80  1  0
 32 81  1  0
 32 82  1  0
M  END
>  <meeko>  (12) 
{"is_sidechain": [false], "intermolecular_energy": 2.731, "internal_energy": -0.839}

$$$$
EPH_relaxed_0001_pdb2pqr_Repair_196_r2_0001_out
     RDKit          3D

 82 86  0  0  0  0  0  0  0  0999 V2000
    0.0620   11.0380   -3.9550 C   0  0  0  0  0  0  0  0  0  0  0  0
    1.1230   10.6240   -2.9310 C   0  0  2  0  0  0  0  0  0  0  0  0
    0.8060    9.2600   -2.2850 C   0  0  0  0  0  0  0  0  0  0  0  0
    0.3820    9.3580   -0.8170 C   0  0  0  0  0  0  0  0  0  0  0  0
   -1.0220    8.8760   -0.6120 C   0  0  2  0  0  0  0  0  0  0  0  0
   -1.8510    8.9320   -1.7800 O   0  0  0  0  0  0  0  0  0  0  0  0
   -2.2370    9.7820   -0.6880 C   0  0  0  0  0  0  0  0  0  0  0  0
   -2.1040   11.2440   -0.9770 C   0  0  0  0  0  0  0  0  0  0  0  0
   -3.4960    9.3480   -0.0030 C   0  0  0  0  0  0  0  0  0  0  0  0
    1.2500   11.6940   -1.8540 C   0  0  1  0  0  0  0  0  0  0  0  0
    2.3940   11.3970   -0.8480 C   0  0  0  0  0  0  0  0  0  0  0  0
    3.0010   12.7650   -0.4430 C   0  0  0  0  0  0  0  0  0  0  0  0
    1.9850   13.8100   -0.9600 C   0  0  1  0  0  0  0  0  0  0  0  0
    0.8600   13.8460    0.1210 C   0  0  0  0  0  0  0  0  0  0  0  0
    2.5510   15.2380   -1.2520 C   0  0  2  0  0  0  0  0  0  0  0  0
    3.1250   15.9750   -0.0290 C   0  0  0  0  0  0  0  0  0  0  0  0
    2.1500   16.8210    0.7210 C   0  0  0  0  0  0  0  0  0  0  0  0
    0.9430   17.2100    0.2700 C   0  0  0  0  0  0  0  0  0  0  0  0
    0.4900   16.8770   -1.1580 C   0  0  1  0  0  0  0  0  0  0  0  0
   -0.1150   18.1440   -1.8170 C   0  0  0  0  0  0  0  0  0  0  0  0
   -1.2310   18.7620   -0.9810 C   0  0  0  0  0  0  0  0  0  0  0  0
   -0.7270   19.1330    0.4110 C   0  0  2  0  0  0  0  0  0  0  0  0
    0.2270   20.1930    0.2890 O   0  0  0  0  0  0  0  0  0  0  0  0
   -0.0870   17.9370    1.1700 C   0  0  0  0  0  0  0  0  0  0  0  0
   -1.1870   16.9230    1.5670 C   0  0  0  0  0  0  0  0  0  0  0  0
    0.5060   18.4780    2.4990 C   0  0  0  0  0  0  0  0  0  0  0  0
    1.5720   16.1660   -2.0800 C   0  0  1  0  0  0  0  0  0  0  0  0
    2.4620   17.2390   -2.7800 C   0  0  0  0  0  0  0  0  0  0  0  0
    0.8340   15.3830   -3.2290 C   0  0  0  0  0  0  0  0  0  0  0  0
    0.4060   13.9360   -2.9200 C   0  0  0  0  0  0  0  0  0  0  0  0
    1.5660   13.1380   -2.3180 C   0  0  2  0  0  0  0  0  0  0  0  0
    2.7040   13.0660   -3.3930 C   0  0  0  0  0  0  0  0  0  0  0  0
   -0.8380   11.3892   -3.4289 H   0  0  0  0  0  0  0  0  0  0  0  0
    0.4575   11.8478   -4.5858 H   0  0  0  0  0  0  0  0  0  0  0  0
   -0.1955   10.1744   -4.5858 H   0  0  0  0  0  0  0  0  0  0  0  0
    2.0781   10.5206   -3.4669 H   0  0  0  0  0  0  0  0  0  0  0  0
   -0.0106    8.7888   -2.8516 H   0  0  0  0  0  0  0  0  0  0  0  0
    1.7326    8.6678   -2.3132 H   0  0  0  0  0  0  0  0  0  0  0  0
    1.0620    8.7444   -0.2079 H   0  0  0  0  0  0  0  0  0  0  0  0
    0.4288   10.4151   -0.5165 H   0  0  0  0  0  0  0  0  0  0  0  0
   -0.6877    8.1518    0.1455 H   0  0  0  0  0  0  0  0  0  0  0  0
   -2.0533   11.8018   -0.0303 H   0  0  0  0  0  0  0  0  0  0  0  0
   -1.1860   11.4212   -1.5566 H   0  0  0  0  0  0  0  0  0  0  0  0
   -2.9749   11.5839   -1.5566 H   0  0  0  0  0  0  0  0  0  0  0  0
   -3.3558    9.3963    1.0870 H   0  0  0  0  0  0  0  0  0  0  0  0
   -4.3212   10.0135   -0.2964 H   0  0  0  0  0  0  0  0  0  0  0  0
   -3.7358    8.3153   -0.2964 H   0  0  0  0  0  0  0  0  0  0  0  0
    0.2359   11.6487   -1.4304 H   0  0  0  0  0  0  0  0  0  0  0  0
    1.9946   10.8826    0.0385 H   0  0  0  0  0  0  0  0  0  0  0  0
    3.1565   10.7449   -1.2988 H   0  0  0  0  0  0  0  0  0  0  0  0
    3.1078   12.8344    0.6496 H   0  0  0  0  0  0  0  0  0  0  0  0
    4.0062   12.9166   -0.8632 H   0  0  0  0  0  0  0  0  0  0  0  0
    1.3137   13.8315    1.1230 H   0  0  0  0  0  0  0  0  0  0  0  0
    0.2654   14.7636    0.0010 H   0  0  0  0  0  0  0  0  0  0  0  0
    0.2079   12.9683    0.0010 H   0  0  0  0  0  0  0  0  0  0  0  0
    3.4122   15.0227   -1.9016 H   0  0  0  0  0  0  0  0  0  0  0  0
    3.5254   15.2213    0.6650 H   0  0  0  0  0  0  0  0  0  0  0  0
    3.8885   16.6639   -0.4195 H   0  0  0  0  0  0  0  0  0  0  0  0
    2.4429   17.1547    1.7274 H   0  0  0  0  0  0  0  0  0  0  0  0
   -0.2842   16.1018   -1.0596 H   0  0  0  0  0  0  0  0  0  0  0  0
    0.6833   18.8897   -1.9459 H   0  0  0  0  0  0  0  0  0  0  0  0
   -0.5483   17.8436   -2.7824 H   0  0  0  0  0  0  0  0  0  0  0  0
   -1.5984   19.6684   -1.4844 H   0  0  0  0  0  0  0  0  0  0  0  0
   -2.0412   18.0253   -0.8767 H   0  0  0  0  0  0  0  0  0  0  0  0
   -1.5979   19.4496    1.0036 H   0  0  0  0  0  0  0  0  0  0  0  0
    0.5810   20.1670   -0.6160 H   0  0  0  0  0  0  0  0  0  0  0  0
   -1.2520   16.8631    2.6634 H   0  0  0  0  0  0  0  0  0  0  0  0
   -2.1541   17.2530    1.1598 H   0  0  0  0  0  0  0  0  0  0  0  0
   -0.9366   15.9323    1.1598 H   0  0  0  0  0  0  0  0  0  0  0  0
   -0.0098   18.0075    3.3490 H   0  0  0  0  0  0  0  0  0  0  0  0
    1.5793   18.2414    2.5448 H   0  0  0  0  0  0  0  0  0  0  0  0
    0.3686   19.5684    2.5448 H   0  0  0  0  0  0  0  0  0  0  0  0
    2.9683   17.8494   -2.0177 H   0  0  0  0  0  0  0  0  0  0  0  0
    3.2139   16.7387   -3.4079 H   0  0  0  0  0  0  0  0  0  0  0  0
    1.8314   17.8855   -3.4079 H   0  0  0  0  0  0  0  0  0  0  0  0
   -0.0723   15.9497   -3.4889 H   0  0  0  0  0  0  0  0  0  0  0  0
    1.5728   15.2976   -4.0394 H   0  0  0  0  0  0  0  0  0  0  0  0
   -0.4290   13.9528   -2.2041 H   0  0  0  0  0  0  0  0  0  0  0  0
    0.0982   13.4531   -3.8592 H   0  0  0  0  0  0  0  0  0  0  0  0
    3.6803   13.0042   -2.8899 H   0  0  0  0  0  0  0  0  0  0  0  0
    2.5586   12.1753   -4.0218 H   0  0  0  0  0  0  0  0  0  0  0  0
    2.6720   13.9680   -4.0218 H   0  0  0  0  0  0  0  0  0  0  0  0
  1  2  1  0
  2  3  1  0
  3  4  1  0
  4  5  1  0
  5  6  1  0
  6  7  1  0
  7  8  1  0
  7  9  1  0
  2 10  1  0
 10 11  1  0
 11 12  1  0
 12 13  1  0
 13 14  1  1
 13 15  1  0
 15 16  1  0
 16 17  1  0
 17 18  2  0
 18 19  1  0
 19 20  1  0
 20 21  1  0
 21 22  1  0
 22 23  1  0
 22 24  1  0
 24 25  1  0
 24 26  1  0
 19 27  1  0
 27 28  1  6
 27 29  1  0
 29 30  1  0
 30 31  1  0
 31 32  1  6
  7  5  1  0
 31 10  1  0
 31 13  1  0
 27 15  1  0
 24 18  1  0
  1 33  1  0
  1 34  1  0
  1 35  1  0
  2 36  1  6
  3 37  1  0
  3 38  1  0
  4 39  1  0
  4 40  1  0
  5 41  1  1
  8 42  1  0
  8 43  1  0
  8 44  1  0
  9 45  1  0
  9 46  1  0
  9 47  1  0
 10 48  1  1
 11 49  1  0
 11 50  1  0
 12 51  1  0
 12 52  1  0
 14 53  1  0
 14 54  1  0
 14 55  1  0
 15 56  1  6
 16 57  1  0
 16 58  1  0
 17 59  1  0
 19 60  1  1
 20 61  1  0
 20 62  1  0
 21 63  1  0
 21 64  1  0
 22 65  1  1
 23 66  1  0
 25 67  1  0
 25 68  1  0
 25 69  1  0
 26 70  1  0
 26 71  1  0
 26 72  1  0
 28 73  1  0
 28 74  1  0
 28 75  1  0
 29 76  1  0
 29 77  1  0
 30 78  1  0
 30 79  1  0
 32 80  1  0
 32 81  1  0
 32 82  1  0
M  END
>  <meeko>  (13) 
{"is_sidechain": [false], "intermolecular_energy": 2.731, "internal_energy": -0.839}

$$$$
EPH_relaxed_0001_pdb2pqr_Repair_196_r2_0001_out
     RDKit          3D

 82 86  0  0  0  0  0  0  0  0999 V2000
    0.6190   17.2410    2.2090 C   0  0  0  0  0  0  0  0  0  0  0  0
    1.4940   17.0400    0.9690 C   0  0  2  0  0  0  0  0  0  0  0  0
    1.7030   18.3530    0.1870 C   0  0  0  0  0  0  0  0  0  0  0  0
    2.0750   19.5450    1.0730 C   0  0  0  0  0  0  0  0  0  0  0  0
    3.5420   19.5690    1.3820 C   0  0  2  0  0  0  0  0  0  0  0  0
    4.0200   18.4280    2.1050 O   0  0  0  0  0  0  0  0  0  0  0  0
    4.0990   19.6890    2.7880 C   0  0  0  0  0  0  0  0  0  0  0  0
    3.1970   19.7940    3.9780 C   0  0  0  0  0  0  0  0  0  0  0  0
    5.4970   20.1940    2.9640 C   0  0  0  0  0  0  0  0  0  0  0  0
    0.8730   15.9860    0.0600 C   0  0  1  0  0  0  0  0  0  0  0  0
    0.6220   16.5100   -1.3790 C   0  0  0  0  0  0  0  0  0  0  0  0
    0.8670   15.3180   -2.3390 C   0  0  0  0  0  0  0  0  0  0  0  0
    0.9230   14.0790   -1.4150 C   0  0  1  0  0  0  0  0  0  0  0  0
   -0.5700   13.7150   -1.1400 C   0  0  0  0  0  0  0  0  0  0  0  0
    1.7270   12.8510   -1.9540 C   0  0  2  0  0  0  0  0  0  0  0  0
    1.1720   12.2230   -3.2440 C   0  0  0  0  0  0  0  0  0  0  0  0
    0.1770   11.1280   -3.0440 C   0  0  0  0  0  0  0  0  0  0  0  0
   -0.0430   10.4730   -1.8880 C   0  0  0  0  0  0  0  0  0  0  0  0
    0.8190   10.7500   -0.6500 C   0  0  1  0  0  0  0  0  0  0  0  0
    1.2550    9.4050   -0.0110 C   0  0  0  0  0  0  0  0  0  0  0  0
    0.0730    8.4900    0.2930 C   0  0  0  0  0  0  0  0  0  0  0  0
   -0.7250    8.1910   -0.9730 C   0  0  2  0  0  0  0  0  0  0  0  0
    0.0850    7.4080   -1.8550 O   0  0  0  0  0  0  0  0  0  0  0  0
   -1.2110    9.4720   -1.7090 C   0  0  0  0  0  0  0  0  0  0  0  0
   -2.3190   10.1620   -0.8760 C   0  0  0  0  0  0  0  0  0  0  0  0
   -1.8780    9.0340   -3.0400 C   0  0  0  0  0  0  0  0  0  0  0  0
    2.0370   11.7490   -0.8610 C   0  0  1  0  0  0  0  0  0  0  0  0
    3.2880   10.9640   -1.3620 C   0  0  0  0  0  0  0  0  0  0  0  0
    2.4330   12.3770    0.5270 C   0  0  0  0  0  0  0  0  0  0  0  0
    1.6870   13.6570    0.9490 C   0  0  0  0  0  0  0  0  0  0  0  0
    1.6850   14.6890   -0.1830 C   0  0  2  0  0  0  0  0  0  0  0  0
    3.1730   15.0910   -0.4660 C   0  0  0  0  0  0  0  0  0  0  0  0
    1.2281   17.1011    3.1142 H   0  0  0  0  0  0  0  0  0  0  0  0
    0.2012   18.2585    2.2019 H   0  0  0  0  0  0  0  0  0  0  0  0
   -0.2010   16.5078    2.2019 H   0  0  0  0  0  0  0  0  0  0  0  0
    2.4818   16.6992    1.3126 H   0  0  0  0  0  0  0  0  0  0  0  0
    2.5110   18.1975   -0.5430 H   0  0  0  0  0  0  0  0  0  0  0  0
    0.7441   18.5968   -0.2936 H   0  0  0  0  0  0  0  0  0  0  0  0
    1.8052   20.4751    0.5513 H   0  0  0  0  0  0  0  0  0  0  0  0
    1.5259   19.4521    2.0216 H   0  0  0  0  0  0  0  0  0  0  0  0
    3.7520   20.1235    0.4554 H   0  0  0  0  0  0  0  0  0  0  0  0
    3.7950   19.7244    4.8986 H   0  0  0  0  0  0  0  0  0  0  0  0
    2.6704   20.7595    3.9549 H   0  0  0  0  0  0  0  0  0  0  0  0
    2.4627   18.9753    3.9549 H   0  0  0  0  0  0  0  0  0  0  0  0
    5.7248   20.2763    4.0370 H   0  0  0  0  0  0  0  0  0  0  0  0
    6.2020   19.4937    2.4922 H   0  0  0  0  0  0  0  0  0  0  0  0
    5.5917   21.1831    2.4922 H   0  0  0  0  0  0  0  0  0  0  0  0
   -0.0362   15.7591    0.6360 H   0  0  0  0  0  0  0  0  0  0  0  0
   -0.4136   16.8679   -1.4764 H   0  0  0  0  0  0  0  0  0  0  0  0
    1.2909   17.3507   -1.6151 H   0  0  0  0  0  0  0  0  0  0  0  0
    0.0434   15.2262   -3.0624 H   0  0  0  0  0  0  0  0  0  0  0  0
    1.7868   15.4401   -2.9298 H   0  0  0  0  0  0  0  0  0  0  0  0
   -0.7432   13.6728   -0.0545 H   0  0  0  0  0  0  0  0  0  0  0  0
   -1.2221   14.4805   -1.5858 H   0  0  0  0  0  0  0  0  0  0  0  0
   -0.7967   12.7353   -1.5858 H   0  0  0  0  0  0  0  0  0  0  0  0
    2.6900   13.3035   -2.2329 H   0  0  0  0  0  0  0  0  0  0  0  0
    0.6881   13.0193   -3.8286 H   0  0  0  0  0  0  0  0  0  0  0  0
    2.0321   11.7631   -3.7527 H   0  0  0  0  0  0  0  0  0  0  0  0
   -0.4272   10.8313   -3.9140 H   0  0  0  0  0  0  0  0  0  0  0  0
    0.1763   11.3048    0.0494 H   0  0  0  0  0  0  0  0  0  0  0  0
    1.9316    8.8872   -0.7068 H   0  0  0  0  0  0  0  0  0  0  0  0
    1.7525    9.6349    0.9428 H   0  0  0  0  0  0  0  0  0  0  0  0
    0.4479    7.5453    0.7137 H   0  0  0  0  0  0  0  0  0  0  0  0
   -0.5870    8.9964    1.0126 H   0  0  0  0  0  0  0  0  0  0  0  0
   -1.6285    7.6414   -0.6704 H   0  0  0  0  0  0  0  0  0  0  0  0
    0.9410    7.2620   -1.4160 H   0  0  0  0  0  0  0  0  0  0  0  0
   -2.1078   10.0305    0.1955 H   0  0  0  0  0  0  0  0  0  0  0  0
   -2.3434   11.2353   -1.1159 H   0  0  0  0  0  0  0  0  0  0  0  0
   -3.2929    9.7105   -1.1159 H   0  0  0  0  0  0  0  0  0  0  0  0
   -2.7791    8.4423   -2.8212 H   0  0  0  0  0  0  0  0  0  0  0  0
   -2.1568    9.9254   -3.6211 H   0  0  0  0  0  0  0  0  0  0  0  0
   -1.1708    8.4239   -3.6211 H   0  0  0  0  0  0  0  0  0  0  0  0
    3.8643   10.6024   -0.4977 H   0  0  0  0  0  0  0  0  0  0  0  0
    2.9636   10.1072   -1.9709 H   0  0  0  0  0  0  0  0  0  0  0  0
    3.9184   11.6287   -1.9709 H   0  0  0  0  0  0  0  0  0  0  0  0
    2.2517   11.6160    1.3003 H   0  0  0  0  0  0  0  0  0  0  0  0
    3.4845   12.6804    0.4159 H   0  0  0  0  0  0  0  0  0  0  0  0
    0.6481   13.4005    1.2039 H   0  0  0  0  0  0  0  0  0  0  0  0
    2.2009   14.0917    1.8190 H   0  0  0  0  0  0  0  0  0  0  0  0
    3.7020   15.2339    0.4878 H   0  0  0  0  0  0  0  0  0  0  0  0
    3.6650   14.2936   -1.0422 H   0  0  0  0  0  0  0  0  0  0  0  0
    3.1965   16.0277   -1.0422 H   0  0  0  0  0  0  0  0  0  0  0  0
  1  2  1  0
  2  3  1  0
  3  4  1  0
  4  5  1  0
  5  6  1  0
  6  7  1  0
  7  8  1  0
  7  9  1  0
  2 10  1  0
 10 11  1  0
 11 12  1  0
 12 13  1  0
 13 14  1  1
 13 15  1  0
 15 16  1  0
 16 17  1  0
 17 18  2  0
 18 19  1  0
 19 20  1  0
 20 21  1  0
 21 22  1  0
 22 23  1  0
 22 24  1  0
 24 25  1  0
 24 26  1  0
 19 27  1  0
 27 28  1  6
 27 29  1  0
 29 30  1  0
 30 31  1  0
 31 32  1  6
  7  5  1  0
 31 10  1  0
 31 13  1  0
 27 15  1  0
 24 18  1  0
  1 33  1  0
  1 34  1  0
  1 35  1  0
  2 36  1  1
  3 37  1  0
  3 38  1  0
  4 39  1  0
  4 40  1  0
  5 41  1  6
  8 42  1  0
  8 43  1  0
  8 44  1  0
  9 45  1  0
  9 46  1  0
  9 47  1  0
 10 48  1  1
 11 49  1  0
 11 50  1  0
 12 51  1  0
 12 52  1  0
 14 53  1  0
 14 54  1  0
 14 55  1  0
 15 56  1  6
 16 57  1  0
 16 58  1  0
 17 59  1  0
 19 60  1  1
 20 61  1  0
 20 62  1  0
 21 63  1  0
 21 64  1  0
 22 65  1  1
 23 66  1  0
 25 67  1  0
 25 68  1  0
 25 69  1  0
 26 70  1  0
 26 71  1  0
 26 72  1  0
 28 73  1  0
 28 74  1  0
 28 75  1  0
 29 76  1  0
 29 77  1  0
 30 78  1  0
 30 79  1  0
 32 80  1  0
 32 81  1  0
 32 82  1  0
M  END
>  <meeko>  (14) 
{"is_sidechain": [false], "intermolecular_energy": 2.731, "internal_energy": -0.839}

$$$$
EPH_relaxed_0001_pdb2pqr_Repair_196_r2_0001_out
     RDKit          3D

 82 86  0  0  0  0  0  0  0  0999 V2000
    3.7340   17.6050    1.9100 C   0  0  0  0  0  0  0  0  0  0  0  0
    2.3950   17.7700    1.1870 C   0  0  2  0  0  0  0  0  0  0  0  0
    1.5160   18.8600    1.8340 C   0  0  0  0  0  0  0  0  0  0  0  0
    0.8950   19.8290    0.8240 C   0  0  0  0  0  0  0  0  0  0  0  0
   -0.6030   19.7730    0.8520 C   0  0  2  0  0  0  0  0  0  0  0  0
   -1.1660   18.5590    0.3370 O   0  0  0  0  0  0  0  0  0  0  0  0
   -1.4620   19.7570   -0.3980 C   0  0  0  0  0  0  0  0  0  0  0  0
   -0.8530   19.7990   -1.7650 C   0  0  0  0  0  0  0  0  0  0  0  0
   -2.8900   20.1930   -0.2900 C   0  0  0  0  0  0  0  0  0  0  0  0
    1.6470   16.4420    1.1680 C   0  0  1  0  0  0  0  0  0  0  0  0
    0.2560   16.5300    1.8510 C   0  0  0  0  0  0  0  0  0  0  0  0
   -0.6880   15.5830    1.0660 C   0  0  0  0  0  0  0  0  0  0  0  0
    0.2570   14.7380    0.1790 C   0  0  1  0  0  0  0  0  0  0  0  0
    0.8000   13.6200    1.1220 C   0  0  0  0  0  0  0  0  0  0  0  0
   -0.3690   14.1410   -1.1240 C   0  0  2  0  0  0  0  0  0  0  0  0
   -1.5190   13.1440   -0.8970 C   0  0  0  0  0  0  0  0  0  0  0  0
   -1.1080   11.7140   -0.7740 C   0  0  0  0  0  0  0  0  0  0  0  0
    0.0910   11.2120   -1.1240 C   0  0  0  0  0  0  0  0  0  0  0  0
    1.1500   12.0960   -1.7960 C   0  0  1  0  0  0  0  0  0  0  0  0
    1.7510   11.3480   -3.0150 C   0  0  0  0  0  0  0  0  0  0  0  0
    2.2900    9.9680   -2.6470 C   0  0  0  0  0  0  0  0  0  0  0  0
    1.1940    9.1000   -2.0350 C   0  0  2  0  0  0  0  0  0  0  0  0
    0.2140    8.8190   -3.0400 O   0  0  0  0  0  0  0  0  0  0  0  0
    0.5080    9.7550   -0.8040 C   0  0  0  0  0  0  0  0  0  0  0  0
    1.4960    9.7820    0.3880 C   0  0  0  0  0  0  0  0  0  0  0  0
   -0.6700    8.8410   -0.3710 C   0  0  0  0  0  0  0  0  0  0  0  0
    0.6920   13.5750   -2.1520 C   0  0  1  0  0  0  0  0  0  0  0  0
    0.0100   13.5980   -3.5540 C   0  0  0  0  0  0  0  0  0  0  0  0
    1.9660   14.4940   -2.2640 C   0  0  0  0  0  0  0  0  0  0  0  0
    2.4650   15.1510   -0.9630 C   0  0  0  0  0  0  0  0  0  0  0  0
    1.3140   15.8330   -0.2170 C   0  0  2  0  0  0  0  0  0  0  0  0
    0.7610   16.9780   -1.1330 C   0  0  0  0  0  0  0  0  0  0  0  0
    3.5686   17.6254    2.9973 H   0  0  0  0  0  0  0  0  0  0  0  0
    4.1880   16.6441    1.6261 H   0  0  0  0  0  0  0  0  0  0  0  0
    4.4077   18.4269    1.6261 H   0  0  0  0  0  0  0  0  0  0  0  0
    2.6126   18.0891    0.1570 H   0  0  0  0  0  0  0  0  0  0  0  0
    0.7032   18.3674    2.3878 H   0  0  0  0  0  0  0  0  0  0  0  0
    2.1702   19.4539    2.4893 H   0  0  0  0  0  0  0  0  0  0  0  0
    1.2182   20.8522    1.0662 H   0  0  0  0  0  0  0  0  0  0  0  0
    1.2307   19.5378   -0.1822 H   0  0  0  0  0  0  0  0  0  0  0  0
   -0.6333   20.3926    1.7604 H   0  0  0  0  0  0  0  0  0  0  0  0
    0.2409   19.8744   -1.6769 H   0  0  0  0  0  0  0  0  0  0  0  0
   -1.1144   18.8807   -2.3112 H   0  0  0  0  0  0  0  0  0  0  0  0
   -1.2380   20.6727   -2.3112 H   0  0  0  0  0  0  0  0  0  0  0  0
   -3.1682   20.2779    0.7708 H   0  0  0  0  0  0  0  0  0  0  0  0
   -3.0133   21.1697   -0.7807 H   0  0  0  0  0  0  0  0  0  0  0  0
   -3.5378   19.4517   -0.7807 H   0  0  0  0  0  0  0  0  0  0  0  0
    2.3804   15.8098    1.6899 H   0  0  0  0  0  0  0  0  0  0  0  0
    0.3282   16.2084    2.9005 H   0  0  0  0  0  0  0  0  0  0  0  0
   -0.1237   17.5624    1.8427 H   0  0  0  0  0  0  0  0  0  0  0  0
   -1.2529   14.9385    1.7556 H   0  0  0  0  0  0  0  0  0  0  0  0
   -1.4341   16.1338    0.4744 H   0  0  0  0  0  0  0  0  0  0  0  0
    0.6538   13.9211    2.1698 H   0  0  0  0  0  0  0  0  0  0  0  0
    0.2567   12.6829    0.9305 H   0  0  0  0  0  0  0  0  0  0  0  0
    1.8724   13.4677    0.9305 H   0  0  0  0  0  0  0  0  0  0  0  0
   -0.8272   15.0245   -1.5925 H   0  0  0  0  0  0  0  0  0  0  0  0
   -2.0383   13.4294    0.0297 H   0  0  0  0  0  0  0  0  0  0  0  0
   -2.1538   13.2023   -1.7935 H   0  0  0  0  0  0  0  0  0  0  0  0
   -1.8475   11.0112   -0.3626 H   0  0  0  0  0  0  0  0  0  0  0  0
    1.9312   12.2643   -1.0401 H   0  0  0  0  0  0  0  0  0  0  0  0
    0.9669   11.2286   -3.7772 H   0  0  0  0  0  0  0  0  0  0  0  0
    2.5938   11.9462   -3.3917 H   0  0  0  0  0  0  0  0  0  0  0  0
    2.6733    9.4776   -3.5540 H   0  0  0  0  0  0  0  0  0  0  0  0
    3.0947   10.0911   -1.9071 H   0  0  0  0  0  0  0  0  0  0  0  0
    1.6687    8.1760   -1.6732 H   0  0  0  0  0  0  0  0  0  0  0  0
    0.3020    7.8830   -3.2840 H   0  0  0  0  0  0  0  0  0  0  0  0
    0.9319    9.7666    1.3322 H   0  0  0  0  0  0  0  0  0  0  0  0
    2.1535    8.9015    0.3393 H   0  0  0  0  0  0  0  0  0  0  0  0
    2.1044   10.6971    0.3393 H   0  0  0  0  0  0  0  0  0  0  0  0
   -0.7197    8.8025    0.7272 H   0  0  0  0  0  0  0  0  0  0  0  0
   -1.6130    9.2461   -0.7667 H   0  0  0  0  0  0  0  0  0  0  0  0
   -0.5119    7.8269   -0.7667 H   0  0  0  0  0  0  0  0  0  0  0  0
   -1.0823   13.6348   -3.4298 H   0  0  0  0  0  0  0  0  0  0  0  0
    0.3459   14.4853   -4.1106 H   0  0  0  0  0  0  0  0  0  0  0  0
    0.2853   12.6901   -4.1106 H   0  0  0  0  0  0  0  0  0  0  0  0
    2.7863   13.8786   -2.6619 H   0  0  0  0  0  0  0  0  0  0  0  0
    1.6617   15.3303   -2.9105 H   0  0  0  0  0  0  0  0  0  0  0  0
    2.9057   14.3784   -0.3157 H   0  0  0  0  0  0  0  0  0  0  0  0
    3.2163   15.9122   -1.2201 H   0  0  0  0  0  0  0  0  0  0  0  0
    0.3680   17.7918   -0.5058 H   0  0  0  0  0  0  0  0  0  0  0  0
    1.5722   17.3636   -1.7681 H   0  0  0  0  0  0  0  0  0  0  0  0
   -0.0453   16.5824   -1.7681 H   0  0  0  0  0  0  0  0  0  0  0  0
  1  2  1  0
  2  3  1  0
  3  4  1  0
  4  5  1  0
  5  6  1  0
  6  7  1  0
  7  8  1  0
  7  9  1  0
  2 10  1  0
 10 11  1  0
 11 12  1  0
 12 13  1  0
 13 14  1  1
 13 15  1  0
 15 16  1  0
 16 17  1  0
 17 18  2  0
 18 19  1  0
 19 20  1  0
 20 21  1  0
 21 22  1  0
 22 23  1  0
 22 24  1  0
 24 25  1  0
 24 26  1  0
 19 27  1  0
 27 28  1  6
 27 29  1  0
 29 30  1  0
 30 31  1  0
 31 32  1  6
  7  5  1  0
 31 10  1  0
 31 13  1  0
 27 15  1  0
 24 18  1  0
  1 33  1  0
  1 34  1  0
  1 35  1  0
  2 36  1  6
  3 37  1  0
  3 38  1  0
  4 39  1  0
  4 40  1  0
  5 41  1  1
  8 42  1  0
  8 43  1  0
  8 44  1  0
  9 45  1  0
  9 46  1  0
  9 47  1  0
 10 48  1  1
 11 49  1  0
 11 50  1  0
 12 51  1  0
 12 52  1  0
 14 53  1  0
 14 54  1  0
 14 55  1  0
 15 56  1  6
 16 57  1  0
 16 58  1  0
 17 59  1  0
 19 60  1  1
 20 61  1  0
 20 62  1  0
 21 63  1  0
 21 64  1  0
 22 65  1  1
 23 66  1  0
 25 67  1  0
 25 68  1  0
 25 69  1  0
 26 70  1  0
 26 71  1  0
 26 72  1  0
 28 73  1  0
 28 74  1  0
 28 75  1  0
 29 76  1  0
 29 77  1  0
 30 78  1  0
 30 79  1  0
 32 80  1  0
 32 81  1  0
 32 82  1  0
M  END
>  <meeko>  (15) 
{"is_sidechain": [false], "intermolecular_energy": 2.731, "internal_energy": -0.839}

$$$$
EPH_relaxed_0001_pdb2pqr_Repair_196_r2_0001_out
     RDKit          3D

 82 86  0  0  0  0  0  0  0  0999 V2000
   -0.7640   10.1740   -2.3380 C   0  0  0  0  0  0  0  0  0  0  0  0
   -0.4190    9.9360   -0.8660 C   0  0  2  0  0  0  0  0  0  0  0  0
   -1.4450    9.0190   -0.1700 C   0  0  0  0  0  0  0  0  0  0  0  0
   -2.8930    9.2880   -0.5870 C   0  0  0  0  0  0  0  0  0  0  0  0
   -3.6740    8.0160   -0.7340 C   0  0  2  0  0  0  0  0  0  0  0  0
   -4.0800    7.7150   -2.0750 O   0  0  0  0  0  0  0  0  0  0  0  0
   -5.1360    7.9740   -1.1360 C   0  0  0  0  0  0  0  0  0  0  0  0
   -5.9050    9.2270   -1.4150 C   0  0  0  0  0  0  0  0  0  0  0  0
   -5.9400    6.7610   -0.7830 C   0  0  0  0  0  0  0  0  0  0  0  0
   -0.3290   11.2680   -0.1310 C   0  0  1  0  0  0  0  0  0  0  0  0
   -0.1090   11.0940    1.3960 C   0  0  0  0  0  0  0  0  0  0  0  0
    0.7980   12.2640    1.8540 C   0  0  0  0  0  0  0  0  0  0  0  0
    0.7990   13.2470    0.6600 C   0  0  1  0  0  0  0  0  0  0  0  0
   -0.5290   14.0550    0.8040 C   0  0  0  0  0  0  0  0  0  0  0  0
    2.0390   14.1930    0.5430 C   0  0  2  0  0  0  0  0  0  0  0  0
    2.2290   15.1670    1.7190 C   0  0  0  0  0  0  0  0  0  0  0  0
    1.5580   16.4910    1.5640 C   0  0  0  0  0  0  0  0  0  0  0  0
    1.0720   16.9920    0.4130 C   0  0  0  0  0  0  0  0  0  0  0  0
    1.2620   16.2460   -0.9130 C   0  0  1  0  0  0  0  0  0  0  0  0
    1.7380   17.2410   -2.0040 C   0  0  0  0  0  0  0  0  0  0  0  0
    0.8130   18.4470   -2.1400 C   0  0  0  0  0  0  0  0  0  0  0  0
    0.6960   19.1960   -0.8150 C   0  0  2  0  0  0  0  0  0  0  0  0
    1.9640   19.7810   -0.5030 O   0  0  0  0  0  0  0  0  0  0  0  0
    0.2320   18.2930    0.3610 C   0  0  0  0  0  0  0  0  0  0  0  0
   -1.2540   17.9040    0.1640 C   0  0  0  0  0  0  0  0  0  0  0  0
    0.2920   19.1360    1.6630 C   0  0  0  0  0  0  0  0  0  0  0  0
    2.1590   14.9360   -0.8490 C   0  0  1  0  0  0  0  0  0  0  0  0
    3.6620   15.3110   -1.0250 C   0  0  0  0  0  0  0  0  0  0  0  0
    1.7900   14.0000   -2.0600 C   0  0  0  0  0  0  0  0  0  0  0  0
    0.6340   13.0050   -1.8430 C   0  0  0  0  0  0  0  0  0  0  0  0
    0.8180   12.2270   -0.5360 C   0  0  2  0  0  0  0  0  0  0  0  0
    2.1350   11.3880   -0.6610 C   0  0  0  0  0  0  0  0  0  0  0  0
   -1.6677   10.7974   -2.4066 H   0  0  0  0  0  0  0  0  0  0  0  0
    0.0739   10.6871   -2.8327 H   0  0  0  0  0  0  0  0  0  0  0  0
   -0.9461    9.2085   -2.8327 H   0  0  0  0  0  0  0  0  0  0  0  0
    0.5554    9.4265   -0.8330 H   0  0  0  0  0  0  0  0  0  0  0  0
   -1.2009    7.9751   -0.4162 H   0  0  0  0  0  0  0  0  0  0  0  0
   -1.3781    9.2224    0.9090 H   0  0  0  0  0  0  0  0  0  0  0  0
   -3.3737    9.9149    0.1785 H   0  0  0  0  0  0  0  0  0  0  0  0
   -2.8799    9.7967   -1.5622 H   0  0  0  0  0  0  0  0  0  0  0  0
   -3.1247    7.5545    0.0998 H   0  0  0  0  0  0  0  0  0  0  0  0
   -6.1946    9.6988   -0.4645 H   0  0  0  0  0  0  0  0  0  0  0  0
   -5.2774    9.9214   -1.9928 H   0  0  0  0  0  0  0  0  0  0  0  0
   -6.8083    8.9818   -1.9928 H   0  0  0  0  0  0  0  0  0  0  0  0
   -6.0018    6.6678    0.3113 H   0  0  0  0  0  0  0  0  0  0  0  0
   -6.9530    6.8583   -1.2005 H   0  0  0  0  0  0  0  0  0  0  0  0
   -5.4558    5.8659   -1.2005 H   0  0  0  0  0  0  0  0  0  0  0  0
   -1.2999   11.7008   -0.4138 H   0  0  0  0  0  0  0  0  0  0  0  0
   -1.0730   11.1330    1.9243 H   0  0  0  0  0  0  0  0  0  0  0  0
    0.3567   10.1228    1.6195 H   0  0  0  0  0  0  0  0  0  0  0  0
    0.3862   12.7456    2.7532 H   0  0  0  0  0  0  0  0  0  0  0  0
    1.8114   11.9276    2.1183 H   0  0  0  0  0  0  0  0  0  0  0  0
   -0.7592   14.1951    1.8705 H   0  0  0  0  0  0  0  0  0  0  0  0
   -0.4149   15.0369    0.3215 H   0  0  0  0  0  0  0  0  0  0  0  0
   -1.3486   13.5024    0.3215 H   0  0  0  0  0  0  0  0  0  0  0  0
    2.8807   13.4872    0.6006 H   0  0  0  0  0  0  0  0  0  0  0  0
    1.8303   14.6877    2.6253 H   0  0  0  0  0  0  0  0  0  0  0  0
    3.3077   15.3763    1.7700 H   0  0  0  0  0  0  0  0  0  0  0  0
    1.4515   17.1101    2.4670 H   0  0  0  0  0  0  0  0  0  0  0  0
    0.2733   15.8446   -1.1800 H   0  0  0  0  0  0  0  0  0  0  0  0
    2.7451   17.5970   -1.7413 H   0  0  0  0  0  0  0  0  0  0  0  0
    1.7351   16.7079   -2.9662 H   0  0  0  0  0  0  0  0  0  0  0  0
    1.2181   19.1272   -2.9037 H   0  0  0  0  0  0  0  0  0  0  0  0
   -0.1863   18.0922   -2.4326 H   0  0  0  0  0  0  0  0  0  0  0  0
   -0.0775   19.9682   -0.9396 H   0  0  0  0  0  0  0  0  0  0  0  0
    1.9300   20.7160   -0.7650 H   0  0  0  0  0  0  0  0  0  0  0  0
   -1.7335   17.7785    1.1460 H   0  0  0  0  0  0  0  0  0  0  0  0
   -1.7695   18.6975   -0.3970 H   0  0  0  0  0  0  0  0  0  0  0  0
   -1.3146   16.9597   -0.3970 H   0  0  0  0  0  0  0  0  0  0  0  0
    0.2444   18.4674    2.5352 H   0  0  0  0  0  0  0  0  0  0  0  0
    1.2329   19.7052    1.6882 H   0  0  0  0  0  0  0  0  0  0  0  0
   -0.5588   19.8327    1.6882 H   0  0  0  0  0  0  0  0  0  0  0  0
    4.1291   15.4275   -0.0359 H   0  0  0  0  0  0  0  0  0  0  0  0
    4.1761   14.5136   -1.5816 H   0  0  0  0  0  0  0  0  0  0  0  0
    3.7413   16.2565   -1.5816 H   0  0  0  0  0  0  0  0  0  0  0  0
    1.5185   14.6453   -2.9085 H   0  0  0  0  0  0  0  0  0  0  0  0
    2.6806   13.3750   -2.2219 H   0  0  0  0  0  0  0  0  0  0  0  0
   -0.3150   13.5596   -1.8011 H   0  0  0  0  0  0  0  0  0  0  0  0
    0.6254   12.2897   -2.6787 H   0  0  0  0  0  0  0  0  0  0  0  0
    2.5131   11.1472    0.3435 H   0  0  0  0  0  0  0  0  0  0  0  0
    1.9258   10.4564   -1.2072 H   0  0  0  0  0  0  0  0  0  0  0  0
    2.8909   11.9713   -1.2072 H   0  0  0  0  0  0  0  0  0  0  0  0
  1  2  1  0
  2  3  1  0
  3  4  1  0
  4  5  1  0
  5  6  1  0
  6  7  1  0
  7  8  1  0
  7  9  1  0
  2 10  1  0
 10 11  1  0
 11 12  1  0
 12 13  1  0
 13 14  1  6
 13 15  1  0
 15 16  1  0
 16 17  1  0
 17 18  2  0
 18 19  1  0
 19 20  1  0
 20 21  1  0
 21 22  1  0
 22 23  1  0
 22 24  1  0
 24 25  1  0
 24 26  1  0
 19 27  1  0
 27 28  1  6
 27 29  1  0
 29 30  1  0
 30 31  1  0
 31 32  1  6
  7  5  1  0
 31 10  1  0
 31 13  1  0
 27 15  1  0
 24 18  1  0
  1 33  1  0
  1 34  1  0
  1 35  1  0
  2 36  1  6
  3 37  1  0
  3 38  1  0
  4 39  1  0
  4 40  1  0
  5 41  1  1
  8 42  1  0
  8 43  1  0
  8 44  1  0
  9 45  1  0
  9 46  1  0
  9 47  1  0
 10 48  1  1
 11 49  1  0
 11 50  1  0
 12 51  1  0
 12 52  1  0
 14 53  1  0
 14 54  1  0
 14 55  1  0
 15 56  1  6
 16 57  1  0
 16 58  1  0
 17 59  1  0
 19 60  1  6
 20 61  1  0
 20 62  1  0
 21 63  1  0
 21 64  1  0
 22 65  1  6
 23 66  1  0
 25 67  1  0
 25 68  1  0
 25 69  1  0
 26 70  1  0
 26 71  1  0
 26 72  1  0
 28 73  1  0
 28 74  1  0
 28 75  1  0
 29 76  1  0
 29 77  1  0
 30 78  1  0
 30 79  1  0
 32 80  1  0
 32 81  1  0
 32 82  1  0
M  END
>  <meeko>  (16) 
{"is_sidechain": [false], "intermolecular_energy": 2.731, "internal_energy": -0.839}

$$$$
EPH_relaxed_0001_pdb2pqr_Repair_196_r2_0001_out
     RDKit          3D

 82 86  0  0  0  0  0  0  0  0999 V2000
   -1.3700   18.2720    0.7680 C   0  0  0  0  0  0  0  0  0  0  0  0
    0.0180   18.1320    1.4000 C   0  0  2  0  0  0  0  0  0  0  0  0
    0.8220   19.4450    1.3300 C   0  0  0  0  0  0  0  0  0  0  0  0
    0.6810   20.1840   -0.0040 C   0  0  0  0  0  0  0  0  0  0  0  0
    1.6830   19.7060   -1.0110 C   0  0  2  0  0  0  0  0  0  0  0  0
    1.4730   20.1940   -2.3420 O   0  0  0  0  0  0  0  0  0  0  0  0
    1.3370   18.7750   -2.1590 C   0  0  0  0  0  0  0  0  0  0  0  0
   -0.0560   18.2670   -2.3580 C   0  0  0  0  0  0  0  0  0  0  0  0
    2.4360   17.9780   -2.7890 C   0  0  0  0  0  0  0  0  0  0  0  0
    0.7900   17.0110    0.7140 C   0  0  1  0  0  0  0  0  0  0  0  0
    2.3200   17.1040    0.9580 C   0  0  0  0  0  0  0  0  0  0  0  0
    2.8480   15.6490    1.0470 C   0  0  0  0  0  0  0  0  0  0  0  0
    1.6810   14.7780    0.5270 C   0  0  1  0  0  0  0  0  0  0  0  0
    1.7860   14.8540   -1.0290 C   0  0  0  0  0  0  0  0  0  0  0  0
    1.6450   13.2980    1.0310 C   0  0  2  0  0  0  0  0  0  0  0  0
    2.8520   12.4390    0.6180 C   0  0  0  0  0  0  0  0  0  0  0  0
    2.7010   11.7060   -0.6740 C   0  0  0  0  0  0  0  0  0  0  0  0
    1.5430   11.5080   -1.3300 C   0  0  0  0  0  0  0  0  0  0  0  0
    0.2080   11.9600   -0.7250 C   0  0  1  0  0  0  0  0  0  0  0  0
   -0.8340   10.8180   -0.8600 C   0  0  0  0  0  0  0  0  0  0  0  0
   -0.9820   10.3270   -2.2960 C   0  0  0  0  0  0  0  0  0  0  0  0
    0.3550    9.8320   -2.8430 C   0  0  2  0  0  0  0  0  0  0  0  0
    0.7400    8.6560   -2.1240 O   0  0  0  0  0  0  0  0  0  0  0  0
    1.4860   10.8940   -2.7510 C   0  0  0  0  0  0  0  0  0  0  0  0
    1.2120   12.0350   -3.7620 C   0  0  0  0  0  0  0  0  0  0  0  0
    2.8100   10.2220   -3.2030 C   0  0  0  0  0  0  0  0  0  0  0  0
    0.2790   12.5510    0.7490 C   0  0  1  0  0  0  0  0  0  0  0  0
    0.1810   11.3950    1.7910 C   0  0  0  0  0  0  0  0  0  0  0  0
   -0.9710   13.4760    0.9930 C   0  0  0  0  0  0  0  0  0  0  0  0
   -0.8320   14.9540    0.5830 C   0  0  0  0  0  0  0  0  0  0  0  0
    0.4610   15.5580    1.1400 C   0  0  2  0  0  0  0  0  0  0  0  0
    0.3750   15.5150    2.7030 C   0  0  0  0  0  0  0  0  0  0  0  0
   -2.1281   18.3485    1.5614 H   0  0  0  0  0  0  0  0  0  0  0  0
   -1.3993   19.1777    0.1444 H   0  0  0  0  0  0  0  0  0  0  0  0
   -1.5795   17.3904    0.1444 H   0  0  0  0  0  0  0  0  0  0  0  0
   -0.1247   17.8886    2.4632 H   0  0  0  0  0  0  0  0  0  0  0  0
    0.4720   20.1096    2.1336 H   0  0  0  0  0  0  0  0  0  0  0  0
    1.8835   19.1776    1.4382 H   0  0  0  0  0  0  0  0  0  0  0  0
   -0.3311   20.0147   -0.4001 H   0  0  0  0  0  0  0  0  0  0  0  0
    0.8597   21.2543    0.1763 H   0  0  0  0  0  0  0  0  0  0  0  0
    2.4716   19.6711   -0.2449 H   0  0  0  0  0  0  0  0  0  0  0  0
   -0.5270   18.0952   -1.3789 H   0  0  0  0  0  0  0  0  0  0  0  0
   -0.6403   19.0099   -2.9207 H   0  0  0  0  0  0  0  0  0  0  0  0
   -0.0249   17.3223   -2.9207 H   0  0  0  0  0  0  0  0  0  0  0  0
    3.0587   17.5264   -2.0026 H   0  0  0  0  0  0  0  0  0  0  0  0
    2.0013   17.1838   -3.4137 H   0  0  0  0  0  0  0  0  0  0  0  0
    3.0558   18.6380   -3.4137 H   0  0  0  0  0  0  0  0  0  0  0  0
    0.4752   17.1789   -0.3265 H   0  0  0  0  0  0  0  0  0  0  0  0
    2.8051   17.6327    0.1242 H   0  0  0  0  0  0  0  0  0  0  0  0
    2.5397   17.6610    1.8808 H   0  0  0  0  0  0  0  0  0  0  0  0
    3.7398   15.5202    0.4160 H   0  0  0  0  0  0  0  0  0  0  0  0
    3.1488   15.3762    2.0693 H   0  0  0  0  0  0  0  0  0  0  0  0
    2.6479   15.4778   -1.3083 H   0  0  0  0  0  0  0  0  0  0  0  0
    1.9187   13.8413   -1.4375 H   0  0  0  0  0  0  0  0  0  0  0  0
    0.8654   15.2964   -1.4375 H   0  0  0  0  0  0  0  0  0  0  0  0
    1.7237   13.4175    2.1216 H   0  0  0  0  0  0  0  0  0  0  0  0
    3.7268   13.1004    0.5333 H   0  0  0  0  0  0  0  0  0  0  0  0
    2.9566   11.6675    1.3951 H   0  0  0  0  0  0  0  0  0  0  0  0
    3.6138   11.2928   -1.1280 H   0  0  0  0  0  0  0  0  0  0  0  0
   -0.1141   12.8311   -1.3145 H   0  0  0  0  0  0  0  0  0  0  0  0
   -0.5158    9.9743   -0.2301 H   0  0  0  0  0  0  0  0  0  0  0  0
   -1.8086   11.2165   -0.5417 H   0  0  0  0  0  0  0  0  0  0  0  0
   -1.7092    9.5020   -2.3214 H   0  0  0  0  0  0  0  0  0  0  0  0
   -1.3287   11.1641   -2.9197 H   0  0  0  0  0  0  0  0  0  0  0  0
    0.2141    9.6160   -3.9124 H   0  0  0  0  0  0  0  0  0  0  0  0
    0.2140    8.6250   -1.3080 H   0  0  0  0  0  0  0  0  0  0  0  0
    0.9891   12.9633   -3.2156 H   0  0  0  0  0  0  0  0  0  0  0  0
    2.0995   12.1857   -4.3942 H   0  0  0  0  0  0  0  0  0  0  0  0
    0.3529   11.7663   -4.3942 H   0  0  0  0  0  0  0  0  0  0  0  0
    3.3921    9.9265   -2.3176 H   0  0  0  0  0  0  0  0  0  0  0  0
    2.5816    9.3307   -3.8059 H   0  0  0  0  0  0  0  0  0  0  0  0
    3.3946   10.9325   -3.8059 H   0  0  0  0  0  0  0  0  0  0  0  0
    0.2165   11.8137    2.8076 H   0  0  0  0  0  0  0  0  0  0  0  0
   -0.7662   10.8538    1.6502 H   0  0  0  0  0  0  0  0  0  0  0  0
    1.0236   10.7021    1.6502 H   0  0  0  0  0  0  0  0  0  0  0  0
   -1.8141   13.0519    0.4280 H   0  0  0  0  0  0  0  0  0  0  0  0
   -1.1086   13.4918    2.0842 H   0  0  0  0  0  0  0  0  0  0  0  0
   -0.8178   15.0232   -0.5147 H   0  0  0  0  0  0  0  0  0  0  0  0
   -1.6857   15.5136    0.9929 H   0  0  0  0  0  0  0  0  0  0  0  0
    1.2807   15.9679    3.1326 H   0  0  0  0  0  0  0  0  0  0  0  0
   -0.5097   16.0768    3.0371 H   0  0  0  0  0  0  0  0  0  0  0  0
    0.2936   14.4701    3.0371 H   0  0  0  0  0  0  0  0  0  0  0  0
  1  2  1  0
  2  3  1  0
  3  4  1  0
  4  5  1  0
  5  6  1  0
  6  7  1  0
  7  8  1  0
  7  9  1  0
  2 10  1  0
 10 11  1  0
 11 12  1  0
 12 13  1  0
 13 14  1  6
 13 15  1  0
 15 16  1  0
 16 17  1  0
 17 18  2  0
 18 19  1  0
 19 20  1  0
 20 21  1  0
 21 22  1  0
 22 23  1  0
 22 24  1  0
 24 25  1  0
 24 26  1  0
 19 27  1  0
 27 28  1  1
 27 29  1  0
 29 30  1  0
 30 31  1  0
 31 32  1  1
  7  5  1  0
 31 10  1  0
 31 13  1  0
 27 15  1  0
 24 18  1  0
  1 33  1  0
  1 34  1  0
  1 35  1  0
  2 36  1  1
  3 37  1  0
  3 38  1  0
  4 39  1  0
  4 40  1  0
  5 41  1  1
  8 42  1  0
  8 43  1  0
  8 44  1  0
  9 45  1  0
  9 46  1  0
  9 47  1  0
 10 48  1  6
 11 49  1  0
 11 50  1  0
 12 51  1  0
 12 52  1  0
 14 53  1  0
 14 54  1  0
 14 55  1  0
 15 56  1  1
 16 57  1  0
 16 58  1  0
 17 59  1  0
 19 60  1  6
 20 61  1  0
 20 62  1  0
 21 63  1  0
 21 64  1  0
 22 65  1  6
 23 66  1  0
 25 67  1  0
 25 68  1  0
 25 69  1  0
 26 70  1  0
 26 71  1  0
 26 72  1  0
 28 73  1  0
 28 74  1  0
 28 75  1  0
 29 76  1  0
 29 77  1  0
 30 78  1  0
 30 79  1  0
 32 80  1  0
 32 81  1  0
 32 82  1  0
M  END
>  <meeko>  (17) 
{"is_sidechain": [false], "intermolecular_energy": 2.731, "internal_energy": -0.839}

$$$$
EPH_relaxed_0001_pdb2pqr_Repair_196_r2_0001_out
     RDKit          3D

 82 86  0  0  0  0  0  0  0  0999 V2000
    1.7010   16.9960    1.8590 C   0  0  0  0  0  0  0  0  0  0  0  0
    2.0600   17.0190    0.3710 C   0  0  2  0  0  0  0  0  0  0  0  0
    1.8030   18.3990   -0.2680 C   0  0  0  0  0  0  0  0  0  0  0  0
    1.0890   19.3840    0.6620 C   0  0  0  0  0  0  0  0  0  0  0  0
   -0.1630   19.9260    0.0400 C   0  0  2  0  0  0  0  0  0  0  0  0
   -1.2230   20.1950    0.9660 O   0  0  0  0  0  0  0  0  0  0  0  0
   -1.4740   19.1630   -0.0030 C   0  0  0  0  0  0  0  0  0  0  0  0
   -1.5990   17.7930    0.5860 C   0  0  0  0  0  0  0  0  0  0  0  0
   -2.4880   19.5410   -1.0370 C   0  0  0  0  0  0  0  0  0  0  0  0
    1.2700   15.9470   -0.3710 C   0  0  1  0  0  0  0  0  0  0  0  0
    0.8200   16.4060   -1.7830 C   0  0  0  0  0  0  0  0  0  0  0  0
    0.8710   15.1550   -2.6980 C   0  0  0  0  0  0  0  0  0  0  0  0
    1.0240   13.9650   -1.7220 C   0  0  1  0  0  0  0  0  0  0  0  0
   -0.4210   13.6820   -1.2040 C   0  0  0  0  0  0  0  0  0  0  0  0
    1.6920   12.6760   -2.3030 C   0  0  2  0  0  0  0  0  0  0  0  0
    0.9230   12.0060   -3.4560 C   0  0  0  0  0  0  0  0  0  0  0  0
   -0.0670   10.9680   -3.0440 C   0  0  0  0  0  0  0  0  0  0  0  0
   -0.1310   10.3850   -1.8320 C   0  0  0  0  0  0  0  0  0  0  0  0
    0.9200   10.6880   -0.7560 C   0  0  1  0  0  0  0  0  0  0  0  0
    1.4010    9.3600   -0.1140 C   0  0  0  0  0  0  0  0  0  0  0  0
    0.2470    8.5160    0.4190 C   0  0  0  0  0  0  0  0  0  0  0  0
   -0.7460    8.1870   -0.6930 C   0  0  2  0  0  0  0  0  0  0  0  0
   -0.1090    7.3240   -1.6390 O   0  0  0  0  0  0  0  0  0  0  0  0
   -1.2920    9.4470   -1.4200 C   0  0  0  0  0  0  0  0  0  0  0  0
   -2.2340   10.2290   -0.4710 C   0  0  0  0  0  0  0  0  0  0  0  0
   -2.1710    8.9700   -2.6070 C   0  0  0  0  0  0  0  0  0  0  0  0
    2.1260   11.6200   -1.2080 C   0  0  1  0  0  0  0  0  0  0  0  0
    3.2560   10.7550   -1.8450 C   0  0  0  0  0  0  0  0  0  0  0  0
    2.7530   12.3020    0.0650 C   0  0  0  0  0  0  0  0  0  0  0  0
    2.1260   13.6340    0.5200 C   0  0  0  0  0  0  0  0  0  0  0  0
    1.9880   14.6040   -0.6570 C   0  0  2  0  0  0  0  0  0  0  0  0
    3.4280   14.9250   -1.1850 C   0  0  0  0  0  0  0  0  0  0  0  0
    2.6210   17.0549    2.4591 H   0  0  0  0  0  0  0  0  0  0  0  0
    1.0546   17.8546    2.0935 H   0  0  0  0  0  0  0  0  0  0  0  0
    1.1694   16.0620    2.0935 H   0  0  0  0  0  0  0  0  0  0  0  0
    3.1372   16.8122    0.2879 H   0  0  0  0  0  0  0  0  0  0  0  0
    2.7712   18.8337   -0.5571 H   0  0  0  0  0  0  0  0  0  0  0  0
    1.1420   18.2354   -1.1319 H   0  0  0  0  0  0  0  0  0  0  0  0
    0.8274   18.8662    1.5966 H   0  0  0  0  0  0  0  0  0  0  0  0
    1.7686   20.2271    0.8553 H   0  0  0  0  0  0  0  0  0  0  0  0
    0.4184   20.4377   -0.7411 H   0  0  0  0  0  0  0  0  0  0  0  0
   -1.5925   17.8638    1.6837 H   0  0  0  0  0  0  0  0  0  0  0  0
   -2.5426   17.3357    0.2536 H   0  0  0  0  0  0  0  0  0  0  0  0
   -0.7537   17.1725    0.2536 H   0  0  0  0  0  0  0  0  0  0  0  0
   -3.4077   19.8839   -0.5405 H   0  0  0  0  0  0  0  0  0  0  0  0
   -2.0870   20.3500   -1.6652 H   0  0  0  0  0  0  0  0  0  0  0  0
   -2.7145   18.6669   -1.6652 H   0  0  0  0  0  0  0  0  0  0  0  0
    0.4523   15.7905    0.3479 H   0  0  0  0  0  0  0  0  0  0  0  0
   -0.2045   16.8045   -1.7431 H   0  0  0  0  0  0  0  0  0  0  0  0
    1.4746   17.2025   -2.1665 H   0  0  0  0  0  0  0  0  0  0  0  0
   -0.0570   15.0622   -3.2813 H   0  0  0  0  0  0  0  0  0  0  0  0
    1.6925   15.2047   -3.4278 H   0  0  0  0  0  0  0  0  0  0  0  0
   -0.4227   13.6817   -0.1040 H   0  0  0  0  0  0  0  0  0  0  0  0
   -1.1019   14.4638   -1.5715 H   0  0  0  0  0  0  0  0  0  0  0  0
   -0.7567   12.7010   -1.5715 H   0  0  0  0  0  0  0  0  0  0  0  0
    2.6167   13.0707   -2.7491 H   0  0  0  0  0  0  0  0  0  0  0  0
    0.3833   12.7910   -4.0060 H   0  0  0  0  0  0  0  0  0  0  0  0
    1.6778   11.4831   -4.0617 H   0  0  0  0  0  0  0  0  0  0  0  0
   -0.8072   10.6525   -3.7941 H   0  0  0  0  0  0  0  0  0  0  0  0
    0.4128   11.3056   -0.0001 H   0  0  0  0  0  0  0  0  0  0  0  0
    1.9427    8.7771   -0.8735 H   0  0  0  0  0  0  0  0  0  0  0  0
    2.0484    9.6162    0.7376 H   0  0  0  0  0  0  0  0  0  0  0  0
    0.6474    7.5789    0.8332 H   0  0  0  0  0  0  0  0  0  0  0  0
   -0.2760    9.0883    1.1993 H   0  0  0  0  0  0  0  0  0  0  0  0
   -1.6121    7.6948   -0.2265 H   0  0  0  0  0  0  0  0  0  0  0  0
    0.8140    7.6160   -1.7290 H   0  0  0  0  0  0  0  0  0  0  0  0
   -1.9681   10.0083    0.5733 H   0  0  0  0  0  0  0  0  0  0  0  0
   -2.1277   11.3081   -0.6562 H   0  0  0  0  0  0  0  0  0  0  0  0
   -3.2751    9.9260   -0.6562 H   0  0  0  0  0  0  0  0  0  0  0  0
   -3.0757    8.4790   -2.2192 H   0  0  0  0  0  0  0  0  0  0  0  0
   -2.4585    9.8359   -3.2215 H   0  0  0  0  0  0  0  0  0  0  0  0
   -1.6017    8.2571   -3.2215 H   0  0  0  0  0  0  0  0  0  0  0  0
    3.8582   10.2940   -1.0482 H   0  0  0  0  0  0  0  0  0  0  0  0
    2.8076    9.9672   -2.4681 H   0  0  0  0  0  0  0  0  0  0  0  0
    3.8994   11.3935   -2.4681 H   0  0  0  0  0  0  0  0  0  0  0  0
    2.6664   11.5911    0.9000 H   0  0  0  0  0  0  0  0  0  0  0  0
    3.7848   12.5530   -0.2219 H   0  0  0  0  0  0  0  0  0  0  0  0
    1.1298   13.4371    0.9430 H   0  0  0  0  0  0  0  0  0  0  0  0
    2.7815   14.0905    1.2763 H   0  0  0  0  0  0  0  0  0  0  0  0
    4.1060   15.0761   -0.3321 H   0  0  0  0  0  0  0  0  0  0  0  0
    3.7898   14.0855   -1.7968 H   0  0  0  0  0  0  0  0  0  0  0  0
    3.3990   15.8387   -1.7968 H   0  0  0  0  0  0  0  0  0  0  0  0
  1  2  1  0
  2  3  1  0
  3  4  1  0
  4  5  1  0
  5  6  1  0
  6  7  1  0
  7  8  1  0
  7  9  1  0
  2 10  1  0
 10 11  1  0
 11 12  1  0
 12 13  1  0
 13 14  1  1
 13 15  1  0
 15 16  1  0
 16 17  1  0
 17 18  2  0
 18 19  1  0
 19 20  1  0
 20 21  1  0
 21 22  1  0
 22 23  1  0
 22 24  1  0
 24 25  1  0
 24 26  1  0
 19 27  1  0
 27 28  1  6
 27 29  1  0
 29 30  1  0
 30 31  1  0
 31 32  1  6
  7  5  1  0
 31 10  1  0
 31 13  1  0
 27 15  1  0
 24 18  1  0
  1 33  1  0
  1 34  1  0
  1 35  1  0
  2 36  1  1
  3 37  1  0
  3 38  1  0
  4 39  1  0
  4 40  1  0
  5 41  1  6
  8 42  1  0
  8 43  1  0
  8 44  1  0
  9 45  1  0
  9 46  1  0
  9 47  1  0
 10 48  1  1
 11 49  1  0
 11 50  1  0
 12 51  1  0
 12 52  1  0
 14 53  1  0
 14 54  1  0
 14 55  1  0
 15 56  1  6
 16 57  1  0
 16 58  1  0
 17 59  1  0
 19 60  1  1
 20 61  1  0
 20 62  1  0
 21 63  1  0
 21 64  1  0
 22 65  1  1
 23 66  1  0
 25 67  1  0
 25 68  1  0
 25 69  1  0
 26 70  1  0
 26 71  1  0
 26 72  1  0
 28 73  1  0
 28 74  1  0
 28 75  1  0
 29 76  1  0
 29 77  1  0
 30 78  1  0
 30 79  1  0
 32 80  1  0
 32 81  1  0
 32 82  1  0
M  END
>  <meeko>  (18) 
{"is_sidechain": [false], "intermolecular_energy": 2.731, "internal_energy": -0.839}

$$$$
