EPH_relaxed_0001_pdb2pqr_Repair_273_r2_0001_out
     RDKit          3D

 82 86  0  0  0  0  0  0  0  0999 V2000
   -1.6580    8.6000   -1.9280 C   0  0  0  0  0  0  0  0  0  0  0  0
   -2.0480    9.1190   -0.5410 C   0  0  2  0  0  0  0  0  0  0  0  0
   -3.5430    9.4880   -0.4590 C   0  0  0  0  0  0  0  0  0  0  0  0
   -4.4690    8.2770   -0.3140 C   0  0  0  0  0  0  0  0  0  0  0  0
   -5.1510    7.9430   -1.6060 C   0  0  2  0  0  0  0  0  0  0  0  0
   -6.3460    8.6930   -1.8630 O   0  0  0  0  0  0  0  0  0  0  0  0
   -6.5120    7.2770   -1.6850 C   0  0  0  0  0  0  0  0  0  0  0  0
   -7.2710    6.9040   -0.4510 C   0  0  0  0  0  0  0  0  0  0  0  0
   -6.8810    6.5510   -2.9410 C   0  0  0  0  0  0  0  0  0  0  0  0
   -1.1930   10.3270   -0.1790 C   0  0  1  0  0  0  0  0  0  0  0  0
   -0.1590   10.0150    0.9360 C   0  0  0  0  0  0  0  0  0  0  0  0
    1.1080   10.8500    0.6180 C   0  0  0  0  0  0  0  0  0  0  0  0
    0.6500   11.8560   -0.4640 C   0  0  1  0  0  0  0  0  0  0  0  0
   -0.0590   13.0000    0.3260 C   0  0  0  0  0  0  0  0  0  0  0  0
    1.7670   12.4120   -1.4070 C   0  0  2  0  0  0  0  0  0  0  0  0
    2.8680   13.2250   -0.7050 C   0  0  0  0  0  0  0  0  0  0  0  0
    2.6130   14.6930   -0.6060 C   0  0  0  0  0  0  0  0  0  0  0  0
    1.6870   15.3740   -1.3060 C   0  0  0  0  0  0  0  0  0  0  0  0
    0.8430   14.6780   -2.3820 C   0  0  1  0  0  0  0  0  0  0  0  0
    0.8110   15.5540   -3.6620 C   0  0  0  0  0  0  0  0  0  0  0  0
    0.3430   16.9790   -3.3850 C   0  0  0  0  0  0  0  0  0  0  0  0
    1.2410   17.6570   -2.3540 C   0  0  2  0  0  0  0  0  0  0  0  0
    2.5420   17.8370   -2.9230 O   0  0  0  0  0  0  0  0  0  0  0  0
    1.3580   16.8610   -1.0240 C   0  0  0  0  0  0  0  0  0  0  0  0
    0.0120   16.9250   -0.2600 C   0  0  0  0  0  0  0  0  0  0  0  0
    2.4010   17.5800   -0.1270 C   0  0  0  0  0  0  0  0  0  0  0  0
    1.2190   13.1650   -2.6870 C   0  0  1  0  0  0  0  0  0  0  0  0
    2.3510   13.1030   -3.7570 C   0  0  0  0  0  0  0  0  0  0  0  0
   -0.0290   12.4410   -3.3180 C   0  0  0  0  0  0  0  0  0  0  0  0
   -1.0340   11.8080   -2.3370 C   0  0  0  0  0  0  0  0  0  0  0  0
   -0.3160   10.9400   -1.3000 C   0  0  2  0  0  0  0  0  0  0  0  0
    0.3890    9.7670   -2.0630 C   0  0  0  0  0  0  0  0  0  0  0  0
   -1.0004    7.7248   -1.8204 H   0  0  0  0  0  0  0  0  0  0  0  0
   -2.5648    8.3116   -2.4799 H   0  0  0  0  0  0  0  0  0  0  0  0
   -1.1287    9.3907   -2.4799 H   0  0  0  0  0  0  0  0  0  0  0  0
   -1.8681    8.3072    0.1791 H   0  0  0  0  0  0  0  0  0  0  0  0
   -3.6914   10.1447    0.4109 H   0  0  0  0  0  0  0  0  0  0  0  0
   -3.8048    9.9811   -1.4068 H   0  0  0  0  0  0  0  0  0  0  0  0
   -3.8742    7.4101    0.0096 H   0  0  0  0  0  0  0  0  0  0  0  0
   -5.2424    8.5236    0.4283 H   0  0  0  0  0  0  0  0  0  0  0  0
   -4.1872    7.7110   -2.0828 H   0  0  0  0  0  0  0  0  0  0  0  0
   -6.6893    7.1899    0.4377 H   0  0  0  0  0  0  0  0  0  0  0  0
   -8.2370    7.4300   -0.4417 H   0  0  0  0  0  0  0  0  0  0  0  0
   -7.4448    5.8179   -0.4417 H   0  0  0  0  0  0  0  0  0  0  0  0
   -7.3657    5.5974   -2.6844 H   0  0  0  0  0  0  0  0  0  0  0  0
   -7.5749    7.1680   -3.5308 H   0  0  0  0  0  0  0  0  0  0  0  0
   -5.9736    6.3541   -3.5308 H   0  0  0  0  0  0  0  0  0  0  0  0
   -1.9856   11.0338    0.1077 H   0  0  0  0  0  0  0  0  0  0  0  0
   -0.5637   10.3000    1.9183 H   0  0  0  0  0  0  0  0  0  0  0  0
    0.0742    8.9405    0.9687 H   0  0  0  0  0  0  0  0  0  0  0  0
    1.4602   11.3789    1.5159 H   0  0  0  0  0  0  0  0  0  0  0  0
    1.9460   10.2239    0.2779 H   0  0  0  0  0  0  0  0  0  0  0  0
    0.0510   12.8225    1.4060 H   0  0  0  0  0  0  0  0  0  0  0  0
    0.3996   13.9650    0.0644 H   0  0  0  0  0  0  0  0  0  0  0  0
   -1.1273   13.0188    0.0644 H   0  0  0  0  0  0  0  0  0  0  0  0
    2.2554   11.4926   -1.7623 H   0  0  0  0  0  0  0  0  0  0  0  0
    2.9833   12.8306    0.3154 H   0  0  0  0  0  0  0  0  0  0  0  0
    3.7698   13.1143   -1.3251 H   0  0  0  0  0  0  0  0  0  0  0  0
    3.2342   15.2659    0.0982 H   0  0  0  0  0  0  0  0  0  0  0  0
   -0.1708   14.5909   -1.9641 H   0  0  0  0  0  0  0  0  0  0  0  0
    1.8243   15.5924   -4.0882 H   0  0  0  0  0  0  0  0  0  0  0  0
    0.0945   15.0975   -4.3607 H   0  0  0  0  0  0  0  0  0  0  0  0
    0.3709   17.5555   -4.3214 H   0  0  0  0  0  0  0  0  0  0  0  0
   -0.6819   16.9410   -2.9872 H   0  0  0  0  0  0  0  0  0  0  0  0
    0.7805   18.6234   -2.1010 H   0  0  0  0  0  0  0  0  0  0  0  0
    2.4410   17.8500   -3.8900 H   0  0  0  0  0  0  0  0  0  0  0  0
    0.2043   16.9159    0.8230 H   0  0  0  0  0  0  0  0  0  0  0  0
   -0.5194   17.8494   -0.5302 H   0  0  0  0  0  0  0  0  0  0  0  0
   -0.6047   16.0552   -0.5302 H   0  0  0  0  0  0  0  0  0  0  0  0
    2.1539   17.4097    0.9313 H   0  0  0  0  0  0  0  0  0  0  0  0
    3.4039   17.1805   -0.3383 H   0  0  0  0  0  0  0  0  0  0  0  0
    2.3843   18.6594   -0.3383 H   0  0  0  0  0  0  0  0  0  0  0  0
    3.3280   13.0495   -3.2545 H   0  0  0  0  0  0  0  0  0  0  0  0
    2.2128   12.2111   -4.3858 H   0  0  0  0  0  0  0  0  0  0  0  0
    2.3110   14.0047   -4.3858 H   0  0  0  0  0  0  0  0  0  0  0  0
   -0.5742   13.1822   -3.9208 H   0  0  0  0  0  0  0  0  0  0  0  0
    0.3859   11.5975   -3.8893 H   0  0  0  0  0  0  0  0  0  0  0  0
   -1.5831   12.6078   -1.8185 H   0  0  0  0  0  0  0  0  0  0  0  0
   -1.7270   11.1719   -2.9071 H   0  0  0  0  0  0  0  0  0  0  0  0
    0.8141    9.0597   -1.3357 H   0  0  0  0  0  0  0  0  0  0  0  0
   -0.3459    9.2463   -2.6945 H   0  0  0  0  0  0  0  0  0  0  0  0
    1.1937   10.1716   -2.6945 H   0  0  0  0  0  0  0  0  0  0  0  0
  1  2  1  0
  2  3  1  0
  3  4  1  0
  4  5  1  0
  5  6  1  0
  6  7  1  0
  7  8  1  0
  7  9  1  0
  2 10  1  0
 10 11  1  0
 11 12  1  0
 12 13  1  0
 13 14  1  1
 13 15  1  0
 15 16  1  0
 16 17  1  0
 17 18  2  0
 18 19  1  0
 19 20  1  0
 20 21  1  0
 21 22  1  0
 22 23  1  0
 22 24  1  0
 24 25  1  0
 24 26  1  0
 19 27  1  0
 27 28  1  6
 27 29  1  0
 29 30  1  0
 30 31  1  0
 31 32  1  6
  7  5  1  0
 31 10  1  0
 31 13  1  0
 27 15  1  0
 24 18  1  0
  1 33  1  0
  1 34  1  0
  1 35  1  0
  2 36  1  1
  3 37  1  0
  3 38  1  0
  4 39  1  0
  4 40  1  0
  5 41  1  6
  8 42  1  0
  8 43  1  0
  8 44  1  0
  9 45  1  0
  9 46  1  0
  9 47  1  0
 10 48  1  1
 11 49  1  0
 11 50  1  0
 12 51  1  0
 12 52  1  0
 14 53  1  0
 14 54  1  0
 14 55  1  0
 15 56  1  6
 16 57  1  0
 16 58  1  0
 17 59  1  0
 19 60  1  1
 20 61  1  0
 20 62  1  0
 21 63  1  0
 21 64  1  0
 22 65  1  1
 23 66  1  0
 25 67  1  0
 25 68  1  0
 25 69  1  0
 26 70  1  0
 26 71  1  0
 26 72  1  0
 28 73  1  0
 28 74  1  0
 28 75  1  0
 29 76  1  0
 29 77  1  0
 30 78  1  0
 30 79  1  0
 32 80  1  0
 32 81  1  0
 32 82  1  0
M  END
>  <meeko>  (1) 
{"is_sidechain": [false], "intermolecular_energy": 2.731, "internal_energy": -0.839}

$$$$
EPH_relaxed_0001_pdb2pqr_Repair_273_r2_0001_out
     RDKit          3D

 82 86  0  0  0  0  0  0  0  0999 V2000
    1.9430   19.6970   -0.5330 C   0  0  0  0  0  0  0  0  0  0  0  0
    2.3580   18.4570    0.2640 C   0  0  2  0  0  0  0  0  0  0  0  0
    3.8130   18.0400   -0.0270 C   0  0  0  0  0  0  0  0  0  0  0  0
    4.7630   18.2520    1.1550 C   0  0  0  0  0  0  0  0  0  0  0  0
    4.1160   19.0470    2.2490 C   0  0  2  0  0  0  0  0  0  0  0  0
    4.8650   20.1890    2.6830 O   0  0  0  0  0  0  0  0  0  0  0  0
    4.6790   19.1480    3.6540 C   0  0  0  0  0  0  0  0  0  0  0  0
    5.9410   18.4430    4.0420 C   0  0  0  0  0  0  0  0  0  0  0  0
    3.7540   19.5230    4.7700 C   0  0  0  0  0  0  0  0  0  0  0  0
    1.4130   17.3020   -0.0450 C   0  0  1  0  0  0  0  0  0  0  0  0
    0.1610   17.7510   -0.8450 C   0  0  0  0  0  0  0  0  0  0  0  0
   -0.1970   16.5870   -1.8060 C   0  0  0  0  0  0  0  0  0  0  0  0
    0.6440   15.3920   -1.3000 C   0  0  1  0  0  0  0  0  0  0  0  0
   -0.1650   14.8130   -0.0970 C   0  0  0  0  0  0  0  0  0  0  0  0
    0.9780   14.2870   -2.3550 C   0  0  2  0  0  0  0  0  0  0  0  0
   -0.2410   13.5540   -2.9410 C   0  0  0  0  0  0  0  0  0  0  0  0
   -0.6630   12.3270   -2.2040 C   0  0  0  0  0  0  0  0  0  0  0  0
    0.0750   11.6720   -1.2890 C   0  0  0  0  0  0  0  0  0  0  0  0
    1.5160   12.1020   -0.9840 C   0  0  1  0  0  0  0  0  0  0  0  0
    2.4340   10.8530   -0.9560 C   0  0  0  0  0  0  0  0  0  0  0  0
    1.9320    9.7780    0.0020 C   0  0  0  0  0  0  0  0  0  0  0  0
    0.5190    9.3340   -0.3680 C   0  0  2  0  0  0  0  0  0  0  0  0
    0.5630    8.6630   -1.6310 O   0  0  0  0  0  0  0  0  0  0  0  0
   -0.4950   10.5110   -0.4370 C   0  0  0  0  0  0  0  0  0  0  0  0
   -0.7700   11.0450    0.9910 C   0  0  0  0  0  0  0  0  0  0  0  0
   -1.8450    9.9480   -0.9570 C   0  0  0  0  0  0  0  0  0  0  0  0
    2.0980   13.2680   -1.8940 C   0  0  1  0  0  0  0  0  0  0  0  0
    2.7180   12.6700   -3.1930 C   0  0  0  0  0  0  0  0  0  0  0  0
    3.2750   13.9790   -1.1270 C   0  0  0  0  0  0  0  0  0  0  0  0
    2.8920   15.1410   -0.1910 C   0  0  0  0  0  0  0  0  0  0  0  0
    1.9700   16.1370   -0.9010 C   0  0  2  0  0  0  0  0  0  0  0  0
    2.7640   16.7510   -2.1030 C   0  0  0  0  0  0  0  0  0  0  0  0
    1.6723   20.5058    0.1617 H   0  0  0  0  0  0  0  0  0  0  0  0
    2.7810   20.0230   -1.1666 H   0  0  0  0  0  0  0  0  0  0  0  0
    1.0776   19.4529   -1.1666 H   0  0  0  0  0  0  0  0  0  0  0  0
    2.2960   18.7131    1.3320 H   0  0  0  0  0  0  0  0  0  0  0  0
    3.8217   16.9725   -0.2922 H   0  0  0  0  0  0  0  0  0  0  0  0
    4.1725   18.6795   -0.8466 H   0  0  0  0  0  0  0  0  0  0  0  0
    5.0598   17.2710    1.5545 H   0  0  0  0  0  0  0  0  0  0  0  0
    5.6390   18.8119    0.7955 H   0  0  0  0  0  0  0  0  0  0  0  0
    3.1140   18.7951    1.8715 H   0  0  0  0  0  0  0  0  0  0  0  0
    6.0155   18.4014    5.1387 H   0  0  0  0  0  0  0  0  0  0  0  0
    5.9295   17.4206    3.6362 H   0  0  0  0  0  0  0  0  0  0  0  0
    6.8055   18.9888    3.6362 H   0  0  0  0  0  0  0  0  0  0  0  0
    4.2439   19.3244    5.7347 H   0  0  0  0  0  0  0  0  0  0  0  0
    3.5067   20.5924    4.6976 H   0  0  0  0  0  0  0  0  0  0  0  0
    2.8318   18.9277    4.6976 H   0  0  0  0  0  0  0  0  0  0  0  0
    1.2085   16.9530    0.9779 H   0  0  0  0  0  0  0  0  0  0  0  0
   -0.6764   17.9473   -0.1593 H   0  0  0  0  0  0  0  0  0  0  0  0
    0.3605   18.6774   -1.4036 H   0  0  0  0  0  0  0  0  0  0  0  0
   -1.2712   16.3561   -1.7533 H   0  0  0  0  0  0  0  0  0  0  0  0
    0.0163   16.8325   -2.8568 H   0  0  0  0  0  0  0  0  0  0  0  0
    0.2949   15.1421    0.8465 H   0  0  0  0  0  0  0  0  0  0  0  0
   -1.2027   15.1748   -0.1449 H   0  0  0  0  0  0  0  0  0  0  0  0
   -0.1573   13.7141   -0.1449 H   0  0  0  0  0  0  0  0  0  0  0  0
    1.4009   14.8733   -3.1841 H   0  0  0  0  0  0  0  0  0  0  0  0
   -1.0885   14.2552   -2.9468 H   0  0  0  0  0  0  0  0  0  0  0  0
    0.0600   13.2176   -3.9441 H   0  0  0  0  0  0  0  0  0  0  0  0
   -1.6617   11.9239   -2.4276 H   0  0  0  0  0  0  0  0  0  0  0  0
    1.4906   12.5679    0.0121 H   0  0  0  0  0  0  0  0  0  0  0  0
    2.4813   10.4277   -1.9693 H   0  0  0  0  0  0  0  0  0  0  0  0
    3.4253   11.1757   -0.6049 H   0  0  0  0  0  0  0  0  0  0  0  0
    2.6061    8.9101   -0.0457 H   0  0  0  0  0  0  0  0  0  0  0  0
    1.9137   10.1954    1.0196 H   0  0  0  0  0  0  0  0  0  0  0  0
    0.1655    8.6616    0.4275 H   0  0  0  0  0  0  0  0  0  0  0  0
    0.4450    9.3330   -2.3250 H   0  0  0  0  0  0  0  0  0  0  0  0
   -0.3974   10.3215    1.7311 H   0  0  0  0  0  0  0  0  0  0  0  0
   -0.2554   12.0075    1.1279 H   0  0  0  0  0  0  0  0  0  0  0  0
   -1.8524   11.1851    1.1279 H   0  0  0  0  0  0  0  0  0  0  0  0
   -2.4845    9.6813   -0.1026 H   0  0  0  0  0  0  0  0  0  0  0  0
   -2.3493   10.7108   -1.5684 H   0  0  0  0  0  0  0  0  0  0  0  0
   -1.6579    9.0529   -1.5684 H   0  0  0  0  0  0  0  0  0  0  0  0
    3.4860   11.9293   -2.9254 H   0  0  0  0  0  0  0  0  0  0  0  0
    1.9293   12.1829   -3.7852 H   0  0  0  0  0  0  0  0  0  0  0  0
    3.1763   13.4758   -3.7852 H   0  0  0  0  0  0  0  0  0  0  0  0
    3.7850   13.2167   -0.5197 H   0  0  0  0  0  0  0  0  0  0  0  0
    3.8966   14.4345   -1.9120 H   0  0  0  0  0  0  0  0  0  0  0  0
    2.3736   14.7366    0.6909 H   0  0  0  0  0  0  0  0  0  0  0  0
    3.8106   15.6665    0.1091 H   0  0  0  0  0  0  0  0  0  0  0  0
    3.5796   17.3817   -1.7197 H   0  0  0  0  0  0  0  0  0  0  0  0
    3.1845   15.9408   -2.7168 H   0  0  0  0  0  0  0  0  0  0  0  0
    2.0856   17.3618   -2.7168 H   0  0  0  0  0  0  0  0  0  0  0  0
  1  2  1  0
  2  3  1  0
  3  4  1  0
  4  5  1  0
  5  6  1  0
  6  7  1  0
  7  8  1  0
  7  9  1  0
  2 10  1  0
 10 11  1  0
 11 12  1  0
 12 13  1  0
 13 14  1  1
 13 15  1  0
 15 16  1  0
 16 17  1  0
 17 18  2  0
 18 19  1  0
 19 20  1  0
 20 21  1  0
 21 22  1  0
 22 23  1  0
 22 24  1  0
 24 25  1  0
 24 26  1  0
 19 27  1  0
 27 28  1  6
 27 29  1  0
 29 30  1  0
 30 31  1  0
 31 32  1  6
  7  5  1  0
 31 10  1  0
 31 13  1  0
 27 15  1  0
 24 18  1  0
  1 33  1  0
  1 34  1  0
  1 35  1  0
  2 36  1  1
  3 37  1  0
  3 38  1  0
  4 39  1  0
  4 40  1  0
  5 41  1  1
  8 42  1  0
  8 43  1  0
  8 44  1  0
  9 45  1  0
  9 46  1  0
  9 47  1  0
 10 48  1  1
 11 49  1  0
 11 50  1  0
 12 51  1  0
 12 52  1  0
 14 53  1  0
 14 54  1  0
 14 55  1  0
 15 56  1  6
 16 57  1  0
 16 58  1  0
 17 59  1  0
 19 60  1  1
 20 61  1  0
 20 62  1  0
 21 63  1  0
 21 64  1  0
 22 65  1  1
 23 66  1  0
 25 67  1  0
 25 68  1  0
 25 69  1  0
 26 70  1  0
 26 71  1  0
 26 72  1  0
 28 73  1  0
 28 74  1  0
 28 75  1  0
 29 76  1  0
 29 77  1  0
 30 78  1  0
 30 79  1  0
 32 80  1  0
 32 81  1  0
 32 82  1  0
M  END
>  <meeko>  (2) 
{"is_sidechain": [false], "intermolecular_energy": 2.731, "internal_energy": -0.839}

$$$$
EPH_relaxed_0001_pdb2pqr_Repair_273_r2_0001_out
     RDKit          3D

 82 86  0  0  0  0  0  0  0  0999 V2000
    0.4080   18.4440   -0.0380 C   0  0  0  0  0  0  0  0  0  0  0  0
    1.4940   17.3830   -0.2430 C   0  0  2  0  0  0  0  0  0  0  0  0
    2.7160   17.9420   -0.9990 C   0  0  0  0  0  0  0  0  0  0  0  0
    3.9480   18.1440   -0.1130 C   0  0  0  0  0  0  0  0  0  0  0  0
    3.5730   18.6160    1.2590 C   0  0  2  0  0  0  0  0  0  0  0  0
    3.8100   20.0100    1.4990 O   0  0  0  0  0  0  0  0  0  0  0  0
    4.5840   19.0900    2.2870 C   0  0  0  0  0  0  0  0  0  0  0  0
    6.0490   19.1140    1.9860 C   0  0  0  0  0  0  0  0  0  0  0  0
    4.1990   19.0640    3.7330 C   0  0  0  0  0  0  0  0  0  0  0  0
    0.9180   16.1890   -0.9950 C   0  0  1  0  0  0  0  0  0  0  0  0
    0.7760   16.4530   -2.5180 C   0  0  0  0  0  0  0  0  0  0  0  0
    1.0650   15.1090   -3.2340 C   0  0  0  0  0  0  0  0  0  0  0  0
    1.0350   14.0510   -2.1050 C   0  0  1  0  0  0  0  0  0  0  0  0
   -0.4800   13.7500   -1.8780 C   0  0  0  0  0  0  0  0  0  0  0  0
    1.8520   12.7430   -2.3620 C   0  0  2  0  0  0  0  0  0  0  0  0
    1.3750   11.9010   -3.5580 C   0  0  0  0  0  0  0  0  0  0  0  0
    0.3500   10.8640   -3.2400 C   0  0  0  0  0  0  0  0  0  0  0  0
    0.0390   10.4240   -2.0060 C   0  0  0  0  0  0  0  0  0  0  0  0
    0.8180   10.9100   -0.7770 C   0  0  1  0  0  0  0  0  0  0  0  0
    1.1850    9.6960    0.1160 C   0  0  0  0  0  0  0  0  0  0  0  0
   -0.0320    8.8560    0.4910 C   0  0  0  0  0  0  0  0  0  0  0  0
   -0.7460    8.3430   -0.7560 C   0  0  2  0  0  0  0  0  0  0  0  0
    0.1090    7.4130   -1.4270 O   0  0  0  0  0  0  0  0  0  0  0  0
   -1.1560    9.4770   -1.7370 C   0  0  0  0  0  0  0  0  0  0  0  0
   -2.3070   10.3090   -1.1190 C   0  0  0  0  0  0  0  0  0  0  0  0
   -1.7390    8.8150   -3.0150 C   0  0  0  0  0  0  0  0  0  0  0  0
    2.0650   11.8490   -1.0740 C   0  0  1  0  0  0  0  0  0  0  0  0
    3.3330   10.9810   -1.3400 C   0  0  0  0  0  0  0  0  0  0  0  0
    2.3770   12.7100    0.2070 C   0  0  0  0  0  0  0  0  0  0  0  0
    1.6270   14.0480    0.3440 C   0  0  0  0  0  0  0  0  0  0  0  0
    1.7210   14.8650   -0.9480 C   0  0  2  0  0  0  0  0  0  0  0  0
    3.2320   15.2020   -1.1910 C   0  0  0  0  0  0  0  0  0  0  0  0
    0.2474   18.6010    1.0388 H   0  0  0  0  0  0  0  0  0  0  0  0
    0.7261   19.3889   -0.5028 H   0  0  0  0  0  0  0  0  0  0  0  0
   -0.5292   18.1040   -0.5028 H   0  0  0  0  0  0  0  0  0  0  0  0
    1.8385   17.0649    0.7521 H   0  0  0  0  0  0  0  0  0  0  0  0
    2.9782   17.2390   -1.8034 H   0  0  0  0  0  0  0  0  0  0  0  0
    2.4307   18.9323   -1.3837 H   0  0  0  0  0  0  0  0  0  0  0  0
    4.4855   17.1881   -0.0266 H   0  0  0  0  0  0  0  0  0  0  0  0
    4.5826   18.9126   -0.5784 H   0  0  0  0  0  0  0  0  0  0  0  0
    2.7548   17.8827    1.3126 H   0  0  0  0  0  0  0  0  0  0  0  0
    6.6168   19.1233    2.9281 H   0  0  0  0  0  0  0  0  0  0  0  0
    6.3185   18.2201    1.4043 H   0  0  0  0  0  0  0  0  0  0  0  0
    6.2891   20.0162    1.4043 H   0  0  0  0  0  0  0  0  0  0  0  0
    5.1044   19.1251    4.3547 H   0  0  0  0  0  0  0  0  0  0  0  0
    3.5443   19.9200    3.9536 H   0  0  0  0  0  0  0  0  0  0  0  0
    3.6653   18.1278    3.9536 H   0  0  0  0  0  0  0  0  0  0  0  0
   -0.0329   16.0722   -0.4545 H   0  0  0  0  0  0  0  0  0  0  0  0
   -0.2438   16.7940   -2.7498 H   0  0  0  0  0  0  0  0  0  0  0  0
    1.4744   17.2353   -2.8499 H   0  0  0  0  0  0  0  0  0  0  0  0
    0.2917   14.8958   -3.9866 H   0  0  0  0  0  0  0  0  0  0  0  0
    2.0255   15.1200   -3.7700 H   0  0  0  0  0  0  0  0  0  0  0  0
   -0.6879   13.7087   -0.7986 H   0  0  0  0  0  0  0  0  0  0  0  0
   -1.0848   14.5455   -2.3377 H   0  0  0  0  0  0  0  0  0  0  0  0
   -0.7347   12.7837   -2.3377 H   0  0  0  0  0  0  0  0  0  0  0  0
    2.8402   13.1334   -2.6466 H   0  0  0  0  0  0  0  0  0  0  0  0
    0.9461   12.5847   -4.3053 H   0  0  0  0  0  0  0  0  0  0  0  0
    2.2595   11.3542   -3.9168 H   0  0  0  0  0  0  0  0  0  0  0  0
   -0.1978   10.4217   -4.0852 H   0  0  0  0  0  0  0  0  0  0  0  0
    0.1391   11.5823   -0.2319 H   0  0  0  0  0  0  0  0  0  0  0  0
    1.8979    9.0600   -0.4292 H   0  0  0  0  0  0  0  0  0  0  0  0
    1.6208   10.0865    1.0474 H   0  0  0  0  0  0  0  0  0  0  0  0
    0.2955    7.9982    1.0968 H   0  0  0  0  0  0  0  0  0  0  0  0
   -0.7307    9.4855    1.0615 H   0  0  0  0  0  0  0  0  0  0  0  0
   -1.6780    7.8600   -0.4272 H   0  0  0  0  0  0  0  0  0  0  0  0
    0.8350    7.9180   -1.8300 H   0  0  0  0  0  0  0  0  0  0  0  0
   -2.2441   10.2635   -0.0217 H   0  0  0  0  0  0  0  0  0  0  0  0
   -2.2210   11.3551   -1.4482 H   0  0  0  0  0  0  0  0  0  0  0  0
   -3.2733    9.8993   -1.4482 H   0  0  0  0  0  0  0  0  0  0  0  0
   -2.4408    8.0182   -2.7276 H   0  0  0  0  0  0  0  0  0  0  0  0
   -2.2686    9.5725   -3.6113 H   0  0  0  0  0  0  0  0  0  0  0  0
   -0.9206    8.3854   -3.6113 H   0  0  0  0  0  0  0  0  0  0  0  0
    3.7771   10.6770   -0.3806 H   0  0  0  0  0  0  0  0  0  0  0  0
    3.0508   10.0857   -1.9135 H   0  0  0  0  0  0  0  0  0  0  0  0
    4.0655   11.5680   -1.9135 H   0  0  0  0  0  0  0  0  0  0  0  0
    2.1300   12.0984    1.0873 H   0  0  0  0  0  0  0  0  0  0  0  0
    3.4389   12.9831    0.1186 H   0  0  0  0  0  0  0  0  0  0  0  0
    0.5687   13.8460    0.5656 H   0  0  0  0  0  0  0  0  0  0  0  0
    2.0879   14.6262    1.1584 H   0  0  0  0  0  0  0  0  0  0  0  0
    3.7425   15.3159   -0.2233 H   0  0  0  0  0  0  0  0  0  0  0  0
    3.7026   14.3867   -1.7601 H   0  0  0  0  0  0  0  0  0  0  0  0
    3.3116   16.1400   -1.7601 H   0  0  0  0  0  0  0  0  0  0  0  0
  1  2  1  0
  2  3  1  0
  3  4  1  0
  4  5  1  0
  5  6  1  0
  6  7  1  0
  7  8  1  0
  7  9  1  0
  2 10  1  0
 10 11  1  0
 11 12  1  0
 12 13  1  0
 13 14  1  1
 13 15  1  0
 15 16  1  0
 16 17  1  0
 17 18  2  0
 18 19  1  0
 19 20  1  0
 20 21  1  0
 21 22  1  0
 22 23  1  0
 22 24  1  0
 24 25  1  0
 24 26  1  0
 19 27  1  0
 27 28  1  6
 27 29  1  0
 29 30  1  0
 30 31  1  0
 31 32  1  6
  7  5  1  0
 31 10  1  0
 31 13  1  0
 27 15  1  0
 24 18  1  0
  1 33  1  0
  1 34  1  0
  1 35  1  0
  2 36  1  1
  3 37  1  0
  3 38  1  0
  4 39  1  0
  4 40  1  0
  5 41  1  1
  8 42  1  0
  8 43  1  0
  8 44  1  0
  9 45  1  0
  9 46  1  0
  9 47  1  0
 10 48  1  1
 11 49  1  0
 11 50  1  0
 12 51  1  0
 12 52  1  0
 14 53  1  0
 14 54  1  0
 14 55  1  0
 15 56  1  6
 16 57  1  0
 16 58  1  0
 17 59  1  0
 19 60  1  1
 20 61  1  0
 20 62  1  0
 21 63  1  0
 21 64  1  0
 22 65  1  1
 23 66  1  0
 25 67  1  0
 25 68  1  0
 25 69  1  0
 26 70  1  0
 26 71  1  0
 26 72  1  0
 28 73  1  0
 28 74  1  0
 28 75  1  0
 29 76  1  0
 29 77  1  0
 30 78  1  0
 30 79  1  0
 32 80  1  0
 32 81  1  0
 32 82  1  0
M  END
>  <meeko>  (3) 
{"is_sidechain": [false], "intermolecular_energy": 2.731, "internal_energy": -0.839}

$$$$
EPH_relaxed_0001_pdb2pqr_Repair_273_r2_0001_out
     RDKit          3D

 82 86  0  0  0  0  0  0  0  0999 V2000
    2.2960   18.0750   -2.7090 C   0  0  0  0  0  0  0  0  0  0  0  0
    0.9870   17.6760   -2.0210 C   0  0  2  0  0  0  0  0  0  0  0  0
    1.0930   17.7520   -0.4840 C   0  0  0  0  0  0  0  0  0  0  0  0
    0.7490   19.1290    0.0890 C   0  0  0  0  0  0  0  0  0  0  0  0
   -0.6850   19.2100    0.5160 C   0  0  2  0  0  0  0  0  0  0  0  0
   -1.5550   18.2670   -0.1250 O   0  0  0  0  0  0  0  0  0  0  0  0
   -1.8080   19.6540   -0.4040 C   0  0  0  0  0  0  0  0  0  0  0  0
   -1.5440   20.0480   -1.8230 C   0  0  0  0  0  0  0  0  0  0  0  0
   -3.0720   20.1710    0.2090 C   0  0  0  0  0  0  0  0  0  0  0  0
    0.5840   16.2690   -2.4460 C   0  0  1  0  0  0  0  0  0  0  0  0
    0.7100   16.0490   -3.9780 C   0  0  0  0  0  0  0  0  0  0  0  0
    1.1550   14.5780   -4.1830 C   0  0  0  0  0  0  0  0  0  0  0  0
    0.9500   13.9120   -2.8030 C   0  0  1  0  0  0  0  0  0  0  0  0
   -0.5730   13.5750   -2.7420 C   0  0  0  0  0  0  0  0  0  0  0  0
    1.8310   12.6550   -2.5040 C   0  0  2  0  0  0  0  0  0  0  0  0
    1.5960   11.4570   -3.4390 C   0  0  0  0  0  0  0  0  0  0  0  0
    0.5560   10.4870   -2.9850 C   0  0  0  0  0  0  0  0  0  0  0  0
    0.0410   10.4170   -1.7440 C   0  0  0  0  0  0  0  0  0  0  0  0
    0.5760   11.3110   -0.6180 C   0  0  1  0  0  0  0  0  0  0  0  0
    0.8070   10.4560    0.6560 C   0  0  0  0  0  0  0  0  0  0  0  0
   -0.4370    9.6760    1.0710 C   0  0  0  0  0  0  0  0  0  0  0  0
   -0.9040    8.7560   -0.0540 C   0  0  2  0  0  0  0  0  0  0  0  0
    0.0790    7.7360   -0.2540 O   0  0  0  0  0  0  0  0  0  0  0  0
   -1.1600    9.5050   -1.3910 C   0  0  0  0  0  0  0  0  0  0  0  0
   -2.4220   10.3930   -1.2580 C   0  0  0  0  0  0  0  0  0  0  0  0
   -1.4880    8.4450   -2.4770 C   0  0  0  0  0  0  0  0  0  0  0  0
    1.8330   12.2110   -0.9850 C   0  0  1  0  0  0  0  0  0  0  0  0
    3.1480   11.4060   -0.7580 C   0  0  0  0  0  0  0  0  0  0  0  0
    1.8890   13.4400   -0.0020 C   0  0  0  0  0  0  0  0  0  0  0  0
    1.0940   14.6950   -0.4120 C   0  0  0  0  0  0  0  0  0  0  0  0
    1.3990   15.0880   -1.8610 C   0  0  2  0  0  0  0  0  0  0  0  0
    2.9200   15.4530   -1.9480 C   0  0  0  0  0  0  0  0  0  0  0  0
    3.0550   18.3063   -1.9471 H   0  0  0  0  0  0  0  0  0  0  0  0
    2.6484   17.2435   -3.3370 H   0  0  0  0  0  0  0  0  0  0  0  0
    2.1247   18.9617   -3.3370 H   0  0  0  0  0  0  0  0  0  0  0  0
    0.2155   18.3943   -2.3352 H   0  0  0  0  0  0  0  0  0  0  0  0
    0.4023   17.0133   -0.0513 H   0  0  0  0  0  0  0  0  0  0  0  0
    2.1422   17.5484   -0.2236 H   0  0  0  0  0  0  0  0  0  0  0  0
    1.3918   19.3231    0.9603 H   0  0  0  0  0  0  0  0  0  0  0  0
    0.9148   19.8789   -0.6985 H   0  0  0  0  0  0  0  0  0  0  0  0
   -0.3907   19.5268    1.5274 H   0  0  0  0  0  0  0  0  0  0  0  0
   -0.9318   20.9617   -1.8420 H   0  0  0  0  0  0  0  0  0  0  0  0
   -1.0069   19.2360   -2.3351 H   0  0  0  0  0  0  0  0  0  0  0  0
   -2.4992   20.2359   -2.3351 H   0  0  0  0  0  0  0  0  0  0  0  0
   -2.9885   20.1369    1.3053 H   0  0  0  0  0  0  0  0  0  0  0  0
   -3.2381   21.2093   -0.1139 H   0  0  0  0  0  0  0  0  0  0  0  0
   -3.9182   19.5467   -0.1139 H   0  0  0  0  0  0  0  0  0  0  0  0
   -0.4444   16.2461   -2.0564 H   0  0  0  0  0  0  0  0  0  0  0  0
   -0.2599   16.2231   -4.4668 H   0  0  0  0  0  0  0  0  0  0  0  0
    1.4370   16.7469   -4.4190 H   0  0  0  0  0  0  0  0  0  0  0  0
    0.5340   14.0874   -4.9469 H   0  0  0  0  0  0  0  0  0  0  0  0
    2.1953   14.5019   -4.5322 H   0  0  0  0  0  0  0  0  0  0  0  0
   -0.8912   13.5046   -1.6914 H   0  0  0  0  0  0  0  0  0  0  0  0
   -1.1446   14.3684   -3.2458 H   0  0  0  0  0  0  0  0  0  0  0  0
   -0.7565   12.6145   -3.2458 H   0  0  0  0  0  0  0  0  0  0  0  0
    2.8443   13.0176   -2.7316 H   0  0  0  0  0  0  0  0  0  0  0  0
    1.2909   11.8473   -4.4211 H   0  0  0  0  0  0  0  0  0  0  0  0
    2.5434   10.8985   -3.4613 H   0  0  0  0  0  0  0  0  0  0  0  0
    0.1788    9.7688   -3.7279 H   0  0  0  0  0  0  0  0  0  0  0  0
   -0.2057   12.0612   -0.4278 H   0  0  0  0  0  0  0  0  0  0  0  0
    1.6210    9.7428    0.4591 H   0  0  0  0  0  0  0  0  0  0  0  0
    1.0599   11.1425    1.4774 H   0  0  0  0  0  0  0  0  0  0  0  0
   -0.2024    9.0695    1.9582 H   0  0  0  0  0  0  0  0  0  0  0  0
   -1.2414   10.3916    1.2964 H   0  0  0  0  0  0  0  0  0  0  0  0
   -1.8678    8.3234    0.2524 H   0  0  0  0  0  0  0  0  0  0  0  0
    0.1280    7.2100    0.5630 H   0  0  0  0  0  0  0  0  0  0  0  0
   -2.6479   10.5520   -0.1933 H   0  0  0  0  0  0  0  0  0  0  0  0
   -2.2403   11.3634   -1.7431 H   0  0  0  0  0  0  0  0  0  0  0  0
   -3.2740    9.8943   -1.7431 H   0  0  0  0  0  0  0  0  0  0  0  0
   -1.7799    7.5017   -1.9923 H   0  0  0  0  0  0  0  0  0  0  0  0
   -2.3163    8.8067   -3.1041 H   0  0  0  0  0  0  0  0  0  0  0  0
   -0.6002    8.2757   -3.1041 H   0  0  0  0  0  0  0  0  0  0  0  0
    3.3285   11.2955    0.3214 H   0  0  0  0  0  0  0  0  0  0  0  0
    3.0529   10.4112   -1.2176 H   0  0  0  0  0  0  0  0  0  0  0  0
    3.9907   11.9432   -1.2176 H   0  0  0  0  0  0  0  0  0  0  0  0
    1.5027   13.1049    0.9719 H   0  0  0  0  0  0  0  0  0  0  0  0
    2.9426   13.7560    0.0037 H   0  0  0  0  0  0  0  0  0  0  0  0
    0.0182   14.4874   -0.3143 H   0  0  0  0  0  0  0  0  0  0  0  0
    1.3869   15.5264    0.2461 H   0  0  0  0  0  0  0  0  0  0  0  0
    3.3320   15.5519   -0.9329 H   0  0  0  0  0  0  0  0  0  0  0  0
    3.4576   14.6584   -2.4861 H   0  0  0  0  0  0  0  0  0  0  0  0
    3.0384   16.4051   -2.4861 H   0  0  0  0  0  0  0  0  0  0  0  0
  1  2  1  0
  2  3  1  0
  3  4  1  0
  4  5  1  0
  5  6  1  0
  6  7  1  0
  7  8  1  0
  7  9  1  0
  2 10  1  0
 10 11  1  0
 11 12  1  0
 12 13  1  0
 13 14  1  1
 13 15  1  0
 15 16  1  0
 16 17  1  0
 17 18  2  0
 18 19  1  0
 19 20  1  0
 20 21  1  0
 21 22  1  0
 22 23  1  0
 22 24  1  0
 24 25  1  0
 24 26  1  0
 19 27  1  0
 27 28  1  6
 27 29  1  0
 29 30  1  0
 30 31  1  0
 31 32  1  1
  7  5  1  0
 31 10  1  0
 31 13  1  0
 27 15  1  0
 24 18  1  0
  1 33  1  0
  1 34  1  0
  1 35  1  0
  2 36  1  6
  3 37  1  0
  3 38  1  0
  4 39  1  0
  4 40  1  0
  5 41  1  1
  8 42  1  0
  8 43  1  0
  8 44  1  0
  9 45  1  0
  9 46  1  0
  9 47  1  0
 10 48  1  1
 11 49  1  0
 11 50  1  0
 12 51  1  0
 12 52  1  0
 14 53  1  0
 14 54  1  0
 14 55  1  0
 15 56  1  6
 16 57  1  0
 16 58  1  0
 17 59  1  0
 19 60  1  1
 20 61  1  0
 20 62  1  0
 21 63  1  0
 21 64  1  0
 22 65  1  1
 23 66  1  0
 25 67  1  0
 25 68  1  0
 25 69  1  0
 26 70  1  0
 26 71  1  0
 26 72  1  0
 28 73  1  0
 28 74  1  0
 28 75  1  0
 29 76  1  0
 29 77  1  0
 30 78  1  0
 30 79  1  0
 32 80  1  0
 32 81  1  0
 32 82  1  0
M  END
>  <meeko>  (4) 
{"is_sidechain": [false], "intermolecular_energy": 2.731, "internal_energy": -0.839}

$$$$
EPH_relaxed_0001_pdb2pqr_Repair_273_r2_0001_out
     RDKit          3D

 82 86  0  0  0  0  0  0  0  0999 V2000
    2.1790   17.9920   -2.5190 C   0  0  0  0  0  0  0  0  0  0  0  0
    0.6600   17.8510   -2.6470 C   0  0  2  0  0  0  0  0  0  0  0  0
   -0.0770   18.3410   -1.3850 C   0  0  0  0  0  0  0  0  0  0  0  0
    0.6020   17.9290   -0.0760 C   0  0  0  0  0  0  0  0  0  0  0  0
    1.1410   19.1150    0.6660 C   0  0  2  0  0  0  0  0  0  0  0  0
    2.0270   19.9450   -0.0960 O   0  0  0  0  0  0  0  0  0  0  0  0
    2.6030   19.2760    1.0370 C   0  0  0  0  0  0  0  0  0  0  0  0
    3.6180   18.2360    0.6780 C   0  0  0  0  0  0  0  0  0  0  0  0
    2.9580   20.1940    2.1640 C   0  0  0  0  0  0  0  0  0  0  0  0
    0.2960   16.3980   -2.9320 C   0  0  1  0  0  0  0  0  0  0  0  0
    0.3520   16.0540   -4.4450 C   0  0  0  0  0  0  0  0  0  0  0  0
    0.8470   14.5890   -4.5520 C   0  0  0  0  0  0  0  0  0  0  0  0
    0.7420   14.0350   -3.1120 C   0  0  1  0  0  0  0  0  0  0  0  0
   -0.7600   13.6480   -2.9400 C   0  0  0  0  0  0  0  0  0  0  0  0
    1.6900   12.8430   -2.7590 C   0  0  2  0  0  0  0  0  0  0  0  0
    1.4590   11.5610   -3.5780 C   0  0  0  0  0  0  0  0  0  0  0  0
    0.4850   10.5950   -2.9890 C   0  0  0  0  0  0  0  0  0  0  0  0
    0.0380   10.6110   -1.7200 C   0  0  0  0  0  0  0  0  0  0  0  0
    0.5920   11.6170   -0.7020 C   0  0  1  0  0  0  0  0  0  0  0  0
    0.9240   10.8830    0.6230 C   0  0  0  0  0  0  0  0  0  0  0  0
   -0.2630   10.0940    1.1690 C   0  0  0  0  0  0  0  0  0  0  0  0
   -0.7480    9.0650    0.1510 C   0  0  2  0  0  0  0  0  0  0  0  0
    0.2670    8.0700   -0.0170 O   0  0  0  0  0  0  0  0  0  0  0  0
   -1.1030    9.6870   -1.2280 C   0  0  0  0  0  0  0  0  0  0  0  0
   -2.3930   10.5340   -1.0990 C   0  0  0  0  0  0  0  0  0  0  0  0
   -1.4420    8.5270   -2.2020 C   0  0  0  0  0  0  0  0  0  0  0  0
    1.7890   12.5300   -1.2110 C   0  0  1  0  0  0  0  0  0  0  0  0
    3.1470   11.7970   -0.9910 C   0  0  0  0  0  0  0  0  0  0  0  0
    1.8440   13.8390   -0.3380 C   0  0  0  0  0  0  0  0  0  0  0  0
    0.9760   15.0230   -0.8060 C   0  0  0  0  0  0  0  0  0  0  0  0
    1.1880   15.3030   -2.2970 C   0  0  2  0  0  0  0  0  0  0  0  0
    2.6860   15.7170   -2.4970 C   0  0  0  0  0  0  0  0  0  0  0  0
    2.4565   18.0178   -1.4549 H   0  0  0  0  0  0  0  0  0  0  0  0
    2.6690   17.1355   -3.0051 H   0  0  0  0  0  0  0  0  0  0  0  0
    2.5030   18.9241   -3.0051 H   0  0  0  0  0  0  0  0  0  0  0  0
    0.3375   18.4868   -3.4848 H   0  0  0  0  0  0  0  0  0  0  0  0
   -0.1296   19.4392   -1.4181 H   0  0  0  0  0  0  0  0  0  0  0  0
   -1.0722   17.8724   -1.3919 H   0  0  0  0  0  0  0  0  0  0  0  0
   -0.1330   17.4143    0.5603 H   0  0  0  0  0  0  0  0  0  0  0  0
    1.4446   17.2655   -0.3207 H   0  0  0  0  0  0  0  0  0  0  0  0
    0.2168   19.1950    1.2572 H   0  0  0  0  0  0  0  0  0  0  0  0
    4.0403   17.8033    1.5969 H   0  0  0  0  0  0  0  0  0  0  0  0
    3.1370   17.4429    0.0867 H   0  0  0  0  0  0  0  0  0  0  0  0
    4.4225   18.6976    0.0867 H   0  0  0  0  0  0  0  0  0  0  0  0
    2.7633   19.6904    3.1224 H   0  0  0  0  0  0  0  0  0  0  0  0
    4.0236   20.4593    2.0991 H   0  0  0  0  0  0  0  0  0  0  0  0
    2.3482   21.1072    2.0991 H   0  0  0  0  0  0  0  0  0  0  0  0
   -0.7091   16.3694   -2.4860 H   0  0  0  0  0  0  0  0  0  0  0  0
   -0.6483   16.1496   -4.8926 H   0  0  0  0  0  0  0  0  0  0  0  0
    1.0254   16.7388   -4.9813 H   0  0  0  0  0  0  0  0  0  0  0  0
    0.2083   14.0125   -5.2373 H   0  0  0  0  0  0  0  0  0  0  0  0
    1.8701   14.5227   -4.9507 H   0  0  0  0  0  0  0  0  0  0  0  0
   -1.0022   13.5856   -1.8688 H   0  0  0  0  0  0  0  0  0  0  0  0
   -1.3923   14.4125   -3.4150 H   0  0  0  0  0  0  0  0  0  0  0  0
   -0.9442   12.6731   -3.4150 H   0  0  0  0  0  0  0  0  0  0  0  0
    2.6737   13.2236   -3.0711 H   0  0  0  0  0  0  0  0  0  0  0  0
    1.0884   11.8543   -4.5713 H   0  0  0  0  0  0  0  0  0  0  0  0
    2.4268   11.0388   -3.6055 H   0  0  0  0  0  0  0  0  0  0  0  0
    0.1002    9.8030   -3.6483 H   0  0  0  0  0  0  0  0  0  0  0  0
   -0.2100   12.3502   -0.5312 H   0  0  0  0  0  0  0  0  0  0  0  0
    1.7563   10.1871    0.4415 H   0  0  0  0  0  0  0  0  0  0  0  0
    1.1893   11.6460    1.3696 H   0  0  0  0  0  0  0  0  0  0  0  0
    0.0427    9.5741    2.0889 H   0  0  0  0  0  0  0  0  0  0  0  0
   -1.0844   10.7950    1.3786 H   0  0  0  0  0  0  0  0  0  0  0  0
   -1.6761    8.6243    0.5439 H   0  0  0  0  0  0  0  0  0  0  0  0
    0.7780    8.3020   -0.8110 H   0  0  0  0  0  0  0  0  0  0  0  0
   -2.6262   10.6871   -0.0350 H   0  0  0  0  0  0  0  0  0  0  0  0
   -2.2416   11.5090   -1.5852 H   0  0  0  0  0  0  0  0  0  0  0  0
   -3.2275   10.0075   -1.5852 H   0  0  0  0  0  0  0  0  0  0  0  0
   -1.7046    7.6283   -1.6246 H   0  0  0  0  0  0  0  0  0  0  0  0
   -2.2929    8.8172   -2.8358 H   0  0  0  0  0  0  0  0  0  0  0  0
   -0.5687    8.3134   -2.8358 H   0  0  0  0  0  0  0  0  0  0  0  0
    3.3376   11.6941    0.0875 H   0  0  0  0  0  0  0  0  0  0  0  0
    3.1042   10.7995   -1.4526 H   0  0  0  0  0  0  0  0  0  0  0  0
    3.9574   12.3802   -1.4526 H   0  0  0  0  0  0  0  0  0  0  0  0
    1.5237   13.5736    0.6803 H   0  0  0  0  0  0  0  0  0  0  0  0
    2.8821   14.1942   -0.4168 H   0  0  0  0  0  0  0  0  0  0  0  0
   -0.0834   14.7834   -0.6320 H   0  0  0  0  0  0  0  0  0  0  0  0
    1.2671   15.9179   -0.2364 H   0  0  0  0  0  0  0  0  0  0  0  0
    3.1641   15.8491   -1.5152 H   0  0  0  0  0  0  0  0  0  0  0  0
    3.2120   14.9306   -3.0581 H   0  0  0  0  0  0  0  0  0  0  0  0
    2.7335   16.6619   -3.0581 H   0  0  0  0  0  0  0  0  0  0  0  0
  1  2  1  0
  2  3  1  0
  3  4  1  0
  4  5  1  0
  5  6  1  0
  6  7  1  0
  7  8  1  0
  7  9  1  0
  2 10  1  0
 10 11  1  0
 11 12  1  0
 12 13  1  0
 13 14  1  1
 13 15  1  0
 15 16  1  0
 16 17  1  0
 17 18  2  0
 18 19  1  0
 19 20  1  0
 20 21  1  0
 21 22  1  0
 22 23  1  0
 22 24  1  0
 24 25  1  0
 24 26  1  0
 19 27  1  0
 27 28  1  6
 27 29  1  0
 29 30  1  0
 30 31  1  0
 31 32  1  1
  7  5  1  0
 31 10  1  0
 31 13  1  0
 27 15  1  0
 24 18  1  0
  1 33  1  0
  1 34  1  0
  1 35  1  0
  2 36  1  6
  3 37  1  0
  3 38  1  0
  4 39  1  0
  4 40  1  0
  5 41  1  1
  8 42  1  0
  8 43  1  0
  8 44  1  0
  9 45  1  0
  9 46  1  0
  9 47  1  0
 10 48  1  1
 11 49  1  0
 11 50  1  0
 12 51  1  0
 12 52  1  0
 14 53  1  0
 14 54  1  0
 14 55  1  0
 15 56  1  6
 16 57  1  0
 16 58  1  0
 17 59  1  0
 19 60  1  1
 20 61  1  0
 20 62  1  0
 21 63  1  0
 21 64  1  0
 22 65  1  1
 23 66  1  0
 25 67  1  0
 25 68  1  0
 25 69  1  0
 26 70  1  0
 26 71  1  0
 26 72  1  0
 28 73  1  0
 28 74  1  0
 28 75  1  0
 29 76  1  0
 29 77  1  0
 30 78  1  0
 30 79  1  0
 32 80  1  0
 32 81  1  0
 32 82  1  0
M  END
>  <meeko>  (5) 
{"is_sidechain": [false], "intermolecular_energy": 2.731, "internal_energy": -0.839}

$$$$
EPH_relaxed_0001_pdb2pqr_Repair_273_r2_0001_out
     RDKit          3D

 82 86  0  0  0  0  0  0  0  0999 V2000
    0.0510   10.4560   -3.7530 C   0  0  0  0  0  0  0  0  0  0  0  0
    1.1240   10.2680   -2.6770 C   0  0  2  0  0  0  0  0  0  0  0  0
    0.8950    8.9910   -1.8450 C   0  0  0  0  0  0  0  0  0  0  0  0
    0.2280    9.2490   -0.4910 C   0  0  0  0  0  0  0  0  0  0  0  0
   -1.1950    8.7780   -0.4750 C   0  0  2  0  0  0  0  0  0  0  0  0
   -1.8730    8.8790   -1.7340 O   0  0  0  0  0  0  0  0  0  0  0  0
   -2.3840    9.7000   -0.6710 C   0  0  0  0  0  0  0  0  0  0  0  0
   -2.2040   11.1690   -0.8960 C   0  0  0  0  0  0  0  0  0  0  0  0
   -3.7210    9.2620   -0.1610 C   0  0  0  0  0  0  0  0  0  0  0  0
    1.1610   11.4860   -1.7620 C   0  0  1  0  0  0  0  0  0  0  0  0
    2.2180   11.3540   -0.6330 C   0  0  0  0  0  0  0  0  0  0  0  0
    2.7890   12.7740   -0.3850 C   0  0  0  0  0  0  0  0  0  0  0  0
    1.8190   13.7190   -1.1320 C   0  0  1  0  0  0  0  0  0  0  0  0
    0.6090   13.9000   -0.1640 C   0  0  0  0  0  0  0  0  0  0  0  0
    2.4070   15.0960   -1.5840 C   0  0  2  0  0  0  0  0  0  0  0  0
    2.8780   16.0110   -0.4400 C   0  0  0  0  0  0  0  0  0  0  0  0
    1.8440   16.9460    0.0950 C   0  0  0  0  0  0  0  0  0  0  0  0
    0.6790   17.2500   -0.5050 C   0  0  0  0  0  0  0  0  0  0  0  0
    0.3460   16.7060   -1.9010 C   0  0  1  0  0  0  0  0  0  0  0  0
   -0.2030   17.8540   -2.7870 C   0  0  0  0  0  0  0  0  0  0  0  0
   -1.3840   18.5750   -2.1460 C   0  0  0  0  0  0  0  0  0  0  0  0
   -0.9980   19.1530   -0.7860 C   0  0  2  0  0  0  0  0  0  0  0  0
   -0.0370   20.1940   -0.9840 O   0  0  0  0  0  0  0  0  0  0  0  0
   -0.4220   18.0890    0.1900 C   0  0  0  0  0  0  0  0  0  0  0  0
   -1.5520   17.1300    0.6410 C   0  0  0  0  0  0  0  0  0  0  0  0
    0.0580   18.8260    1.4690 C   0  0  0  0  0  0  0  0  0  0  0  0
    1.5010   15.8810   -2.6160 C   0  0  1  0  0  0  0  0  0  0  0  0
    2.4450   16.8500   -3.3910 C   0  0  0  0  0  0  0  0  0  0  0  0
    0.8600   14.9290   -3.6940 C   0  0  0  0  0  0  0  0  0  0  0  0
    0.4080   13.5370   -3.2120 C   0  0  0  0  0  0  0  0  0  0  0  0
    1.5150   12.8500   -2.4060 C   0  0  2  0  0  0  0  0  0  0  0  0
    2.7380   12.6350   -3.3610 C   0  0  0  0  0  0  0  0  0  0  0  0
   -0.9238   10.6268   -3.2728 H   0  0  0  0  0  0  0  0  0  0  0  0
    0.3080   11.3228   -4.3796 H   0  0  0  0  0  0  0  0  0  0  0  0
   -0.0020    9.5535   -4.3796 H   0  0  0  0  0  0  0  0  0  0  0  0
    2.0910   10.1584   -3.1898 H   0  0  0  0  0  0  0  0  0  0  0  0
    0.2537    8.3100   -2.4237 H   0  0  0  0  0  0  0  0  0  0  0  0
    1.8859    8.5606   -1.6380 H   0  0  0  0  0  0  0  0  0  0  0  0
    0.7890    8.7151    0.2902 H   0  0  0  0  0  0  0  0  0  0  0  0
    0.2322   10.3337   -0.3079 H   0  0  0  0  0  0  0  0  0  0  0  0
   -0.9626    8.0276    0.2950 H   0  0  0  0  0  0  0  0  0  0  0  0
   -2.1410   11.6835    0.0742 H   0  0  0  0  0  0  0  0  0  0  0  0
   -1.2779   11.3422   -1.4638 H   0  0  0  0  0  0  0  0  0  0  0  0
   -3.0609   11.5607   -1.4638 H   0  0  0  0  0  0  0  0  0  0  0  0
   -3.7127    9.2647    0.9390 H   0  0  0  0  0  0  0  0  0  0  0  0
   -4.4961    9.9532   -0.5235 H   0  0  0  0  0  0  0  0  0  0  0  0
   -3.9369    8.2462   -0.5235 H   0  0  0  0  0  0  0  0  0  0  0  0
    0.1152   11.4907   -1.4209 H   0  0  0  0  0  0  0  0  0  0  0  0
    1.7468   10.9700    0.2838 H   0  0  0  0  0  0  0  0  0  0  0  0
    3.0155   10.6526   -0.9193 H   0  0  0  0  0  0  0  0  0  0  0  0
    2.8045   13.0042    0.6905 H   0  0  0  0  0  0  0  0  0  0  0  0
    3.8257   12.8750   -0.7387 H   0  0  0  0  0  0  0  0  0  0  0  0
    0.9610   13.8473    0.8768 H   0  0  0  0  0  0  0  0  0  0  0  0
    0.1393   14.8784   -0.3431 H   0  0  0  0  0  0  0  0  0  0  0  0
   -0.1265   13.1019   -0.3431 H   0  0  0  0  0  0  0  0  0  0  0  0
    3.3183   14.7975   -2.1229 H   0  0  0  0  0  0  0  0  0  0  0  0
    3.2195   15.3721    0.3877 H   0  0  0  0  0  0  0  0  0  0  0  0
    3.6714   16.6444   -0.8635 H   0  0  0  0  0  0  0  0  0  0  0  0
    2.0526   17.4271    1.0620 H   0  0  0  0  0  0  0  0  0  0  0  0
   -0.4339   15.9445   -1.7532 H   0  0  0  0  0  0  0  0  0  0  0  0
    0.6031   18.5823   -2.9596 H   0  0  0  0  0  0  0  0  0  0  0  0
   -0.5555   17.4088   -3.7291 H   0  0  0  0  0  0  0  0  0  0  0  0
   -1.7076   19.3932   -2.8062 H   0  0  0  0  0  0  0  0  0  0  0  0
   -2.2002   17.8519   -2.0012 H   0  0  0  0  0  0  0  0  0  0  0  0
   -1.9153   19.5424   -0.3202 H   0  0  0  0  0  0  0  0  0  0  0  0
   -0.3330   20.9680   -0.4750 H   0  0  0  0  0  0  0  0  0  0  0  0
   -1.5893   17.0984    1.7399 H   0  0  0  0  0  0  0  0  0  0  0  0
   -2.5157   17.4901    0.2517 H   0  0  0  0  0  0  0  0  0  0  0  0
   -1.3534   16.1206    0.2517 H   0  0  0  0  0  0  0  0  0  0  0  0
   -0.2950   18.2840    2.3588 H   0  0  0  0  0  0  0  0  0  0  0  0
    1.1572   18.8680    1.4773 H   0  0  0  0  0  0  0  0  0  0  0  0
   -0.3480   19.8483    1.4773 H   0  0  0  0  0  0  0  0  0  0  0  0
    3.0267   17.4472   -2.6734 H   0  0  0  0  0  0  0  0  0  0  0  0
    3.1305   16.2665   -4.0232 H   0  0  0  0  0  0  0  0  0  0  0  0
    1.8438   17.5200   -4.0232 H   0  0  0  0  0  0  0  0  0  0  0  0
   -0.0219   15.4405   -4.1071 H   0  0  0  0  0  0  0  0  0  0  0  0
    1.6632   14.7349   -4.4201 H   0  0  0  0  0  0  0  0  0  0  0  0
   -0.4835   13.6479   -2.5772 H   0  0  0  0  0  0  0  0  0  0  0  0
    0.1792   12.9181   -4.0921 H   0  0  0  0  0  0  0  0  0  0  0  0
    3.6470   12.4752   -2.7624 H   0  0  0  0  0  0  0  0  0  0  0  0
    2.5574   11.7548   -3.9956 H   0  0  0  0  0  0  0  0  0  0  0  0
    2.8684   13.5240   -3.9956 H   0  0  0  0  0  0  0  0  0  0  0  0
  1  2  1  0
  2  3  1  0
  3  4  1  0
  4  5  1  0
  5  6  1  0
  6  7  1  0
  7  8  1  0
  7  9  1  0
  2 10  1  0
 10 11  1  0
 11 12  1  0
 12 13  1  0
 13 14  1  1
 13 15  1  0
 15 16  1  0
 16 17  1  0
 17 18  2  0
 18 19  1  0
 19 20  1  0
 20 21  1  0
 21 22  1  0
 22 23  1  0
 22 24  1  0
 24 25  1  0
 24 26  1  0
 19 27  1  0
 27 28  1  6
 27 29  1  0
 29 30  1  0
 30 31  1  0
 31 32  1  6
  7  5  1  0
 31 10  1  0
 31 13  1  0
 27 15  1  0
 24 18  1  0
  1 33  1  0
  1 34  1  0
  1 35  1  0
  2 36  1  6
  3 37  1  0
  3 38  1  0
  4 39  1  0
  4 40  1  0
  5 41  1  1
  8 42  1  0
  8 43  1  0
  8 44  1  0
  9 45  1  0
  9 46  1  0
  9 47  1  0
 10 48  1  1
 11 49  1  0
 11 50  1  0
 12 51  1  0
 12 52  1  0
 14 53  1  0
 14 54  1  0
 14 55  1  0
 15 56  1  6
 16 57  1  0
 16 58  1  0
 17 59  1  0
 19 60  1  1
 20 61  1  0
 20 62  1  0
 21 63  1  0
 21 64  1  0
 22 65  1  1
 23 66  1  0
 25 67  1  0
 25 68  1  0
 25 69  1  0
 26 70  1  0
 26 71  1  0
 26 72  1  0
 28 73  1  0
 28 74  1  0
 28 75  1  0
 29 76  1  0
 29 77  1  0
 30 78  1  0
 30 79  1  0
 32 80  1  0
 32 81  1  0
 32 82  1  0
M  END
>  <meeko>  (6) 
{"is_sidechain": [false], "intermolecular_energy": 2.731, "internal_energy": -0.839}

$$$$
EPH_relaxed_0001_pdb2pqr_Repair_273_r2_0001_out
     RDKit          3D

 82 86  0  0  0  0  0  0  0  0999 V2000
   -5.0960    5.9430   -1.7030 C   0  0  0  0  0  0  0  0  0  0  0  0
   -5.4170    7.4380   -1.7750 C   0  0  2  0  0  0  0  0  0  0  0  0
   -5.2070    8.1440   -0.4210 C   0  0  0  0  0  0  0  0  0  0  0  0
   -4.1380    9.2400   -0.4570 C   0  0  0  0  0  0  0  0  0  0  0  0
   -2.8000    8.6970   -0.8580 C   0  0  2  0  0  0  0  0  0  0  0  0
   -1.7420    8.9660    0.0720 O   0  0  0  0  0  0  0  0  0  0  0  0
   -1.6170    9.5740   -1.2240 C   0  0  0  0  0  0  0  0  0  0  0  0
   -1.7180   11.0670   -1.2080 C   0  0  0  0  0  0  0  0  0  0  0  0
   -0.5240    8.9870   -2.0620 C   0  0  0  0  0  0  0  0  0  0  0  0
   -6.8510    7.6390   -2.2500 C   0  0  1  0  0  0  0  0  0  0  0  0
   -7.1360    6.9360   -3.6040 C   0  0  0  0  0  0  0  0  0  0  0  0
   -8.6030    6.4380   -3.5500 C   0  0  0  0  0  0  0  0  0  0  0  0
   -9.2120    7.1510   -2.3190 C   0  0  1  0  0  0  0  0  0  0  0  0
   -9.5840    8.5790   -2.8270 C   0  0  0  0  0  0  0  0  0  0  0  0
  -10.4310    6.4430   -1.6430 C   0  0  2  0  0  0  0  0  0  0  0  0
  -11.6760    6.2940   -2.5350 C   0  0  0  0  0  0  0  0  0  0  0  0
  -12.6500    7.4230   -2.4630 C   0  0  0  0  0  0  0  0  0  0  0  0
  -12.6780    8.3730   -1.5100 C   0  0  0  0  0  0  0  0  0  0  0  0
  -11.7210    8.3150   -0.3120 C   0  0  1  0  0  0  0  0  0  0  0  0
  -12.5120    8.5830    0.9950 C   0  0  0  0  0  0  0  0  0  0  0  0
  -13.3030    9.8860    0.9440 C   0  0  0  0  0  0  0  0  0  0  0  0
  -14.2840    9.8820   -0.2260 C   0  0  2  0  0  0  0  0  0  0  0  0
  -15.2870    8.8900    0.0170 O   0  0  0  0  0  0  0  0  0  0  0  0
  -13.6030    9.6120   -1.5960 C   0  0  0  0  0  0  0  0  0  0  0  0
  -12.7420   10.8350   -2.0000 C   0  0  0  0  0  0  0  0  0  0  0  0
  -14.7190    9.4940   -2.6690 C   0  0  0  0  0  0  0  0  0  0  0  0
  -10.8060    7.0190   -0.2180 C   0  0  1  0  0  0  0  0  0  0  0  0
  -11.5670    5.8840    0.5340 C   0  0  0  0  0  0  0  0  0  0  0  0
   -9.5340    7.3490    0.6480 C   0  0  0  0  0  0  0  0  0  0  0  0
   -8.3190    7.9350   -0.0980 C   0  0  0  0  0  0  0  0  0  0  0  0
   -7.9840    7.1030   -1.3390 C   0  0  2  0  0  0  0  0  0  0  0  0
   -7.5840    5.6670   -0.8580 C   0  0  0  0  0  0  0  0  0  0  0  0
   -5.0294    5.6326   -0.6498 H   0  0  0  0  0  0  0  0  0  0  0  0
   -5.8921    5.3725   -2.2037 H   0  0  0  0  0  0  0  0  0  0  0  0
   -4.1359    5.7496   -2.2037 H   0  0  0  0  0  0  0  0  0  0  0  0
   -4.7194    7.8914   -2.4946 H   0  0  0  0  0  0  0  0  0  0  0  0
   -6.1606    8.5990   -0.1151 H   0  0  0  0  0  0  0  0  0  0  0  0
   -4.8595    7.3795    0.2895 H   0  0  0  0  0  0  0  0  0  0  0  0
   -4.4416   10.0103   -1.1812 H   0  0  0  0  0  0  0  0  0  0  0  0
   -4.0470    9.6633    0.5542 H   0  0  0  0  0  0  0  0  0  0  0  0
   -3.2721    7.8444   -1.3681 H   0  0  0  0  0  0  0  0  0  0  0  0
   -1.7420   11.4217   -0.1670 H   0  0  0  0  0  0  0  0  0  0  0  0
   -0.8470   11.4990   -1.7226 H   0  0  0  0  0  0  0  0  0  0  0  0
   -2.6392   11.3777   -1.7226 H   0  0  0  0  0  0  0  0  0  0  0  0
    0.2551    8.5686   -1.4078 H   0  0  0  0  0  0  0  0  0  0  0  0
   -0.9370    8.1893   -2.6969 H   0  0  0  0  0  0  0  0  0  0  0  0
   -0.0871    9.7718   -2.6969 H   0  0  0  0  0  0  0  0  0  0  0  0
   -6.8819    8.7381   -2.2821 H   0  0  0  0  0  0  0  0  0  0  0  0
   -7.0076    7.6464   -4.4340 H   0  0  0  0  0  0  0  0  0  0  0  0
   -6.4410    6.0994   -3.7684 H   0  0  0  0  0  0  0  0  0  0  0  0
   -9.1421    6.7179   -4.4670 H   0  0  0  0  0  0  0  0  0  0  0  0
   -8.6692    5.3427   -3.4728 H   0  0  0  0  0  0  0  0  0  0  0  0
   -9.7565    9.2412   -1.9657 H   0  0  0  0  0  0  0  0  0  0  0  0
   -8.7597    8.9776   -3.4367 H   0  0  0  0  0  0  0  0  0  0  0  0
  -10.4980    8.5248   -3.4367 H   0  0  0  0  0  0  0  0  0  0  0  0
  -10.0533    5.4220   -1.4851 H   0  0  0  0  0  0  0  0  0  0  0  0
  -11.3382    6.2024   -3.5778 H   0  0  0  0  0  0  0  0  0  0  0  0
  -12.2107    5.4064   -2.1659 H   0  0  0  0  0  0  0  0  0  0  0  0
  -13.4095    7.4837   -3.2564 H   0  0  0  0  0  0  0  0  0  0  0  0
  -10.9832    9.1150   -0.4721 H   0  0  0  0  0  0  0  0  0  0  0  0
  -13.2129    7.7514    1.1596 H   0  0  0  0  0  0  0  0  0  0  0  0
  -11.7832    8.6670    1.8147 H   0  0  0  0  0  0  0  0  0  0  0  0
  -13.8631   10.0044    1.8833 H   0  0  0  0  0  0  0  0  0  0  0  0
  -12.5985   10.7200    0.8093 H   0  0  0  0  0  0  0  0  0  0  0  0
  -14.7262   10.8872   -0.2890 H   0  0  0  0  0  0  0  0  0  0  0  0
  -15.5720    8.5440   -0.8450 H   0  0  0  0  0  0  0  0  0  0  0  0
  -12.3825   11.3456   -1.0944 H   0  0  0  0  0  0  0  0  0  0  0  0
  -11.8817   10.4969   -2.5962 H   0  0  0  0  0  0  0  0  0  0  0  0
  -13.3505   11.5309   -2.5962 H   0  0  0  0  0  0  0  0  0  0  0  0
  -15.6953    9.3908   -2.1728 H   0  0  0  0  0  0  0  0  0  0  0  0
  -14.7206   10.3970   -3.2972 H   0  0  0  0  0  0  0  0  0  0  0  0
  -14.5317    8.6106   -3.2972 H   0  0  0  0  0  0  0  0  0  0  0  0
  -11.4674    6.0325    1.6194 H   0  0  0  0  0  0  0  0  0  0  0  0
  -12.6311    5.9097    0.2565 H   0  0  0  0  0  0  0  0  0  0  0  0
  -11.1391    4.9094    0.2565 H   0  0  0  0  0  0  0  0  0  0  0  0
   -9.8344    8.0755    1.4173 H   0  0  0  0  0  0  0  0  0  0  0  0
   -9.1919    6.3793    1.0387 H   0  0  0  0  0  0  0  0  0  0  0  0
   -8.5492    8.9653   -0.4070 H   0  0  0  0  0  0  0  0  0  0  0  0
   -7.4518    7.9204    0.5785 H   0  0  0  0  0  0  0  0  0  0  0  0
   -7.5758    5.6376    0.2416 H   0  0  0  0  0  0  0  0  0  0  0  0
   -8.3128    4.9364   -1.2389 H   0  0  0  0  0  0  0  0  0  0  0  0
   -6.5824    5.4185   -1.2389 H   0  0  0  0  0  0  0  0  0  0  0  0
  1  2  1  0
  2  3  1  0
  3  4  1  0
  4  5  1  0
  5  6  1  0
  6  7  1  0
  7  8  1  0
  7  9  1  0
  2 10  1  0
 10 11  1  0
 11 12  1  0
 12 13  1  0
 13 14  1  6
 13 15  1  0
 15 16  1  0
 16 17  1  0
 17 18  2  0
 18 19  1  0
 19 20  1  0
 20 21  1  0
 21 22  1  0
 22 23  1  0
 22 24  1  0
 24 25  1  0
 24 26  1  0
 19 27  1  0
 27 28  1  1
 27 29  1  0
 29 30  1  0
 30 31  1  0
 31 32  1  1
  7  5  1  0
 31 10  1  0
 31 13  1  0
 27 15  1  0
 24 18  1  0
  1 33  1  0
  1 34  1  0
  1 35  1  0
  2 36  1  6
  3 37  1  0
  3 38  1  0
  4 39  1  0
  4 40  1  0
  5 41  1  6
  8 42  1  0
  8 43  1  0
  8 44  1  0
  9 45  1  0
  9 46  1  0
  9 47  1  0
 10 48  1  6
 11 49  1  0
 11 50  1  0
 12 51  1  0
 12 52  1  0
 14 53  1  0
 14 54  1  0
 14 55  1  0
 15 56  1  1
 16 57  1  0
 16 58  1  0
 17 59  1  0
 19 60  1  6
 20 61  1  0
 20 62  1  0
 21 63  1  0
 21 64  1  0
 22 65  1  6
 23 66  1  0
 25 67  1  0
 25 68  1  0
 25 69  1  0
 26 70  1  0
 26 71  1  0
 26 72  1  0
 28 73  1  0
 28 74  1  0
 28 75  1  0
 29 76  1  0
 29 77  1  0
 30 78  1  0
 30 79  1  0
 32 80  1  0
 32 81  1  0
 32 82  1  0
M  END
>  <meeko>  (7) 
{"is_sidechain": [false], "intermolecular_energy": 2.731, "internal_energy": -0.839}

$$$$
EPH_relaxed_0001_pdb2pqr_Repair_273_r2_0001_out
     RDKit          3D

 82 86  0  0  0  0  0  0  0  0999 V2000
    0.4380    8.7960   -2.3740 C   0  0  0  0  0  0  0  0  0  0  0  0
    1.1820    9.9410   -3.0660 C   0  0  2  0  0  0  0  0  0  0  0  0
    2.6810    9.9610   -2.7070 C   0  0  0  0  0  0  0  0  0  0  0  0
    3.5700   10.5420   -3.8100 C   0  0  0  0  0  0  0  0  0  0  0  0
    4.9630   10.8000   -3.3210 C   0  0  2  0  0  0  0  0  0  0  0  0
    5.5420   12.0270   -3.7820 O   0  0  0  0  0  0  0  0  0  0  0  0
    6.1790   10.8190   -4.2290 C   0  0  0  0  0  0  0  0  0  0  0  0
    6.0570   10.5750   -5.7000 C   0  0  0  0  0  0  0  0  0  0  0  0
    7.5280   10.5890   -3.6230 C   0  0  0  0  0  0  0  0  0  0  0  0
    0.5400   11.2740   -2.6990 C   0  0  1  0  0  0  0  0  0  0  0  0
   -0.8340   11.1030   -1.9990 C   0  0  0  0  0  0  0  0  0  0  0  0
   -0.9500   12.2440   -0.9560 C   0  0  0  0  0  0  0  0  0  0  0  0
    0.1960   13.2190   -1.3150 C   0  0  1  0  0  0  0  0  0  0  0  0
   -0.3600   14.0730   -2.4970 C   0  0  0  0  0  0  0  0  0  0  0  0
    0.7270   14.1190   -0.1520 C   0  0  2  0  0  0  0  0  0  0  0  0
   -0.3040   15.0940    0.4420 C   0  0  0  0  0  0  0  0  0  0  0  0
   -0.3540   16.4400   -0.2020 C   0  0  0  0  0  0  0  0  0  0  0  0
    0.5840   16.9500   -1.0210 C   0  0  0  0  0  0  0  0  0  0  0  0
    1.8870   16.1880   -1.2980 C   0  0  1  0  0  0  0  0  0  0  0  0
    3.0910   17.1590   -1.1730 C   0  0  0  0  0  0  0  0  0  0  0  0
    2.9390   18.3950   -2.0540 C   0  0  0  0  0  0  0  0  0  0  0  0
    1.6630   19.1570   -1.7090 C   0  0  2  0  0  0  0  0  0  0  0  0
    1.7910   19.6990   -0.3910 O   0  0  0  0  0  0  0  0  0  0  0  0
    0.3830   18.2780   -1.7910 C   0  0  0  0  0  0  0  0  0  0  0  0
    0.0780   17.9410   -3.2710 C   0  0  0  0  0  0  0  0  0  0  0  0
   -0.8130   19.1280   -1.2840 C   0  0  0  0  0  0  0  0  0  0  0  0
    2.0950   14.8480   -0.4700 C   0  0  1  0  0  0  0  0  0  0  0  0
    2.7590   15.1690    0.9040 C   0  0  0  0  0  0  0  0  0  0  0  0
    3.1030   13.9170   -1.2430 C   0  0  0  0  0  0  0  0  0  0  0  0
    2.5030   12.9650   -2.2950 C   0  0  0  0  0  0  0  0  0  0  0  0
    1.3140   12.1900   -1.7190 C   0  0  2  0  0  0  0  0  0  0  0  0
    1.8470   11.3050   -0.5410 C   0  0  0  0  0  0  0  0  0  0  0  0
    0.5152    8.9149   -1.2832 H   0  0  0  0  0  0  0  0  0  0  0  0
   -0.6210    8.8146   -2.6708 H   0  0  0  0  0  0  0  0  0  0  0  0
    0.8852    7.8358   -2.6708 H   0  0  0  0  0  0  0  0  0  0  0  0
    1.1055    9.7775   -4.1511 H   0  0  0  0  0  0  0  0  0  0  0  0
    2.8127   10.5679   -1.7990 H   0  0  0  0  0  0  0  0  0  0  0  0
    2.9908    8.9156   -2.5615 H   0  0  0  0  0  0  0  0  0  0  0  0
    3.6122    9.8289   -4.6465 H   0  0  0  0  0  0  0  0  0  0  0  0
    3.1362   11.5006   -4.1307 H   0  0  0  0  0  0  0  0  0  0  0  0
    4.7544   10.2730   -2.3783 H   0  0  0  0  0  0  0  0  0  0  0  0
    5.5711    9.6031   -5.8714 H   0  0  0  0  0  0  0  0  0  0  0  0
    5.4518   11.3729   -6.1551 H   0  0  0  0  0  0  0  0  0  0  0  0
    7.0584   10.5696   -6.1551 H   0  0  0  0  0  0  0  0  0  0  0  0
    7.4445   10.6032   -2.5263 H   0  0  0  0  0  0  0  0  0  0  0  0
    7.9145    9.6120   -3.9487 H   0  0  0  0  0  0  0  0  0  0  0  0
    8.2164   11.3827   -3.9487 H   0  0  0  0  0  0  0  0  0  0  0  0
    0.4983   11.7386   -3.6952 H   0  0  0  0  0  0  0  0  0  0  0  0
   -1.6468   11.1797   -2.7362 H   0  0  0  0  0  0  0  0  0  0  0  0
   -0.9113   10.1175   -1.5164 H   0  0  0  0  0  0  0  0  0  0  0  0
   -1.9258   12.7454   -1.0359 H   0  0  0  0  0  0  0  0  0  0  0  0
   -0.8745   11.8740    0.0771 H   0  0  0  0  0  0  0  0  0  0  0  0
   -0.9192   14.9319   -2.0975 H   0  0  0  0  0  0  0  0  0  0  0  0
    0.4763   14.4346   -3.1133 H   0  0  0  0  0  0  0  0  0  0  0  0
   -1.0290   13.4545   -3.1133 H   0  0  0  0  0  0  0  0  0  0  0  0
    0.9330   13.3837    0.6397 H   0  0  0  0  0  0  0  0  0  0  0  0
   -1.2993   14.6351    0.3479 H   0  0  0  0  0  0  0  0  0  0  0  0
    0.0052   15.2664    1.4835 H   0  0  0  0  0  0  0  0  0  0  0  0
   -1.2318   17.0678    0.0110 H   0  0  0  0  0  0  0  0  0  0  0  0
    1.8107   15.8195   -2.3316 H   0  0  0  0  0  0  0  0  0  0  0  0
    3.1768   17.4814   -0.1248 H   0  0  0  0  0  0  0  0  0  0  0  0
    3.9906   16.6203   -1.5055 H   0  0  0  0  0  0  0  0  0  0  0  0
    3.8053   19.0553   -1.9004 H   0  0  0  0  0  0  0  0  0  0  0  0
    2.8824   18.0728   -3.1042 H   0  0  0  0  0  0  0  0  0  0  0  0
    1.5436   19.9552   -2.4564 H   0  0  0  0  0  0  0  0  0  0  0  0
    2.4110   19.1340    0.1000 H   0  0  0  0  0  0  0  0  0  0  0  0
   -0.6595   17.1261   -3.3170 H   0  0  0  0  0  0  0  0  0  0  0  0
   -0.3275   18.8314   -3.7737 H   0  0  0  0  0  0  0  0  0  0  0  0
    1.0043   17.6260   -3.7737 H   0  0  0  0  0  0  0  0  0  0  0  0
   -0.8194   19.1325   -0.1840 H   0  0  0  0  0  0  0  0  0  0  0  0
   -0.7132   20.1590   -1.6544 H   0  0  0  0  0  0  0  0  0  0  0  0
   -1.7538   18.6948   -1.6544 H   0  0  0  0  0  0  0  0  0  0  0  0
    2.0924   14.8468    1.7175 H   0  0  0  0  0  0  0  0  0  0  0  0
    3.7174   14.6347    0.9818 H   0  0  0  0  0  0  0  0  0  0  0  0
    2.9356   16.2519    0.9818 H   0  0  0  0  0  0  0  0  0  0  0  0
    3.8281   14.5656   -1.7564 H   0  0  0  0  0  0  0  0  0  0  0  0
    3.5353   13.2600   -0.4739 H   0  0  0  0  0  0  0  0  0  0  0  0
    2.1638   13.5531   -3.1605 H   0  0  0  0  0  0  0  0  0  0  0  0
    3.2772   12.2448   -2.5981 H   0  0  0  0  0  0  0  0  0  0  0  0
    1.5695   11.7658    0.4185 H   0  0  0  0  0  0  0  0  0  0  0  0
    1.4035   10.3006   -0.6072 H   0  0  0  0  0  0  0  0  0  0  0  0
    2.9423   11.2273   -0.6072 H   0  0  0  0  0  0  0  0  0  0  0  0
  1  2  1  0
  2  3  1  0
  3  4  1  0
  4  5  1  0
  5  6  1  0
  6  7  1  0
  7  8  1  0
  7  9  1  0
  2 10  1  0
 10 11  1  0
 11 12  1  0
 12 13  1  0
 13 14  1  6
 13 15  1  0
 15 16  1  0
 16 17  1  0
 17 18  2  0
 18 19  1  0
 19 20  1  0
 20 21  1  0
 21 22  1  0
 22 23  1  0
 22 24  1  0
 24 25  1  0
 24 26  1  0
 19 27  1  0
 27 28  1  1
 27 29  1  0
 29 30  1  0
 30 31  1  0
 31 32  1  1
  7  5  1  0
 31 10  1  0
 31 13  1  0
 27 15  1  0
 24 18  1  0
  1 33  1  0
  1 34  1  0
  1 35  1  0
  2 36  1  6
  3 37  1  0
  3 38  1  0
  4 39  1  0
  4 40  1  0
  5 41  1  1
  8 42  1  0
  8 43  1  0
  8 44  1  0
  9 45  1  0
  9 46  1  0
  9 47  1  0
 10 48  1  6
 11 49  1  0
 11 50  1  0
 12 51  1  0
 12 52  1  0
 14 53  1  0
 14 54  1  0
 14 55  1  0
 15 56  1  1
 16 57  1  0
 16 58  1  0
 17 59  1  0
 19 60  1  6
 20 61  1  0
 20 62  1  0
 21 63  1  0
 21 64  1  0
 22 65  1  6
 23 66  1  0
 25 67  1  0
 25 68  1  0
 25 69  1  0
 26 70  1  0
 26 71  1  0
 26 72  1  0
 28 73  1  0
 28 74  1  0
 28 75  1  0
 29 76  1  0
 29 77  1  0
 30 78  1  0
 30 79  1  0
 32 80  1  0
 32 81  1  0
 32 82  1  0
M  END
>  <meeko>  (8) 
{"is_sidechain": [false], "intermolecular_energy": 2.731, "internal_energy": -0.839}

$$$$
EPH_relaxed_0001_pdb2pqr_Repair_273_r2_0001_out
     RDKit          3D

 82 86  0  0  0  0  0  0  0  0999 V2000
    2.4360   19.3770   -0.7220 C   0  0  0  0  0  0  0  0  0  0  0  0
    2.4330   18.4530   -1.9440 C   0  0  2  0  0  0  0  0  0  0  0  0
    1.0970   18.5090   -2.7110 C   0  0  0  0  0  0  0  0  0  0  0  0
    0.1800   19.6520   -2.2670 C   0  0  0  0  0  0  0  0  0  0  0  0
   -1.0510   19.1400   -1.5810 C   0  0  2  0  0  0  0  0  0  0  0  0
   -1.9740   20.1580   -1.1720 O   0  0  0  0  0  0  0  0  0  0  0  0
   -1.3610   19.3980   -0.1180 C   0  0  0  0  0  0  0  0  0  0  0  0
   -0.4350   20.1940    0.7470 C   0  0  0  0  0  0  0  0  0  0  0  0
   -2.3040   18.4740    0.5870 C   0  0  0  0  0  0  0  0  0  0  0  0
    2.7280   17.0210   -1.5140 C   0  0  1  0  0  0  0  0  0  0  0  0
    3.5320   16.9490   -0.1880 C   0  0  0  0  0  0  0  0  0  0  0  0
    3.0320   15.6930    0.5710 C   0  0  0  0  0  0  0  0  0  0  0  0
    2.2090   14.9070   -0.4760 C   0  0  1  0  0  0  0  0  0  0  0  0
    3.2680   14.1310   -1.3200 C   0  0  0  0  0  0  0  0  0  0  0  0
    1.1070   13.9520    0.0880 C   0  0  2  0  0  0  0  0  0  0  0  0
    1.6280   12.8020    0.9670 C   0  0  0  0  0  0  0  0  0  0  0  0
    1.9520   11.5400    0.2380 C   0  0  0  0  0  0  0  0  0  0  0  0
    1.5670   11.2390   -1.0160 C   0  0  0  0  0  0  0  0  0  0  0  0
    0.6400   12.1750   -1.8010 C   0  0  1  0  0  0  0  0  0  0  0  0
   -0.4880   11.3460   -2.4690 C   0  0  0  0  0  0  0  0  0  0  0  0
    0.0530   10.2070   -3.3280 C   0  0  0  0  0  0  0  0  0  0  0  0
    0.9230    9.2650   -2.4990 C   0  0  2  0  0  0  0  0  0  0  0  0
    0.0960    8.5990   -1.5400 O   0  0  0  0  0  0  0  0  0  0  0  0
    2.0890    9.9900   -1.7690 C   0  0  0  0  0  0  0  0  0  0  0  0
    3.1430   10.4530   -2.8050 C   0  0  0  0  0  0  0  0  0  0  0  0
    2.8000    8.9540   -0.8590 C   0  0  0  0  0  0  0  0  0  0  0  0
    0.0830   13.4300   -1.0000 C   0  0  1  0  0  0  0  0  0  0  0  0
   -1.2180   13.0390   -0.2360 C   0  0  0  0  0  0  0  0  0  0  0  0
   -0.3260   14.5540   -2.0250 C   0  0  0  0  0  0  0  0  0  0  0  0
    0.7790   15.5400   -2.4520 C   0  0  0  0  0  0  0  0  0  0  0  0
    1.5160   16.0990   -1.2310 C   0  0  2  0  0  0  0  0  0  0  0  0
    0.4800   16.9050   -0.3750 C   0  0  0  0  0  0  0  0  0  0  0  0
    2.4340   18.7709    0.1960 H   0  0  0  0  0  0  0  0  0  0  0  0
    3.3362   20.0088   -0.7423 H   0  0  0  0  0  0  0  0  0  0  0  0
    1.5399   20.0147   -0.7423 H   0  0  0  0  0  0  0  0  0  0  0  0
    3.2202   18.8051   -2.6269 H   0  0  0  0  0  0  0  0  0  0  0  0
    1.3161   18.6354   -3.7815 H   0  0  0  0  0  0  0  0  0  0  0  0
    0.5653   17.5696   -2.4996 H   0  0  0  0  0  0  0  0  0  0  0  0
    0.7314   20.3020   -1.5717 H   0  0  0  0  0  0  0  0  0  0  0  0
   -0.1327   20.2088   -3.1627 H   0  0  0  0  0  0  0  0  0  0  0  0
   -1.0306   18.2171   -2.1792 H   0  0  0  0  0  0  0  0  0  0  0  0
   -0.6627   19.9983    1.8052 H   0  0  0  0  0  0  0  0  0  0  0  0
    0.6047   19.9033    0.5358 H   0  0  0  0  0  0  0  0  0  0  0  0
   -0.5663   21.2655    0.5358 H   0  0  0  0  0  0  0  0  0  0  0  0
   -2.1861   18.5895    1.6745 H   0  0  0  0  0  0  0  0  0  0  0  0
   -3.3381   18.7182    0.3023 H   0  0  0  0  0  0  0  0  0  0  0  0
   -2.0809   17.4352    0.3023 H   0  0  0  0  0  0  0  0  0  0  0  0
    3.2688   16.6692   -2.4049 H   0  0  0  0  0  0  0  0  0  0  0  0
    4.6074   16.8594   -0.4015 H   0  0  0  0  0  0  0  0  0  0  0  0
    3.3844   17.8583    0.4131 H   0  0  0  0  0  0  0  0  0  0  0  0
    3.8809   15.0918    0.9287 H   0  0  0  0  0  0  0  0  0  0  0  0
    2.4381   15.9515    1.4601 H   0  0  0  0  0  0  0  0  0  0  0  0
    3.9692   13.6172   -0.6459 H   0  0  0  0  0  0  0  0  0  0  0  0
    2.7597   13.3900   -1.9545 H   0  0  0  0  0  0  0  0  0  0  0  0
    3.8215   14.8389   -1.9545 H   0  0  0  0  0  0  0  0  0  0  0  0
    0.5450   14.6133    0.7639 H   0  0  0  0  0  0  0  0  0  0  0  0
    2.5421   13.1473    1.4721 H   0  0  0  0  0  0  0  0  0  0  0  0
    0.8102   12.5528    1.6592 H   0  0  0  0  0  0  0  0  0  0  0  0
    2.5572   10.7922    0.7715 H   0  0  0  0  0  0  0  0  0  0  0  0
    1.2654   12.6447   -2.5745 H   0  0  0  0  0  0  0  0  0  0  0  0
   -1.1268   10.9206   -1.6810 H   0  0  0  0  0  0  0  0  0  0  0  0
   -1.0533   12.0215   -3.1279 H   0  0  0  0  0  0  0  0  0  0  0  0
   -0.7911    9.6409   -3.7487 H   0  0  0  0  0  0  0  0  0  0  0  0
    0.6677   10.6356   -4.1333 H   0  0  0  0  0  0  0  0  0  0  0  0
    1.3854    8.5472   -3.1925 H   0  0  0  0  0  0  0  0  0  0  0  0
   -0.1140    9.2380   -0.8380 H   0  0  0  0  0  0  0  0  0  0  0  0
    4.0277   10.8416   -2.2794 H   0  0  0  0  0  0  0  0  0  0  0  0
    3.4362    9.6008   -3.4357 H   0  0  0  0  0  0  0  0  0  0  0  0
    2.7137   11.2454   -3.4357 H   0  0  0  0  0  0  0  0  0  0  0  0
    2.6238    9.2107    0.1960 H   0  0  0  0  0  0  0  0  0  0  0  0
    2.3996    7.9502   -1.0639 H   0  0  0  0  0  0  0  0  0  0  0  0
    3.8807    8.9666   -1.0639 H   0  0  0  0  0  0  0  0  0  0  0  0
   -1.0372   13.0933    0.8477 H   0  0  0  0  0  0  0  0  0  0  0  0
   -2.0260   13.7340   -0.5082 H   0  0  0  0  0  0  0  0  0  0  0  0
   -1.5090   12.0137   -0.5082 H   0  0  0  0  0  0  0  0  0  0  0  0
   -0.6978   14.0570   -2.9332 H   0  0  0  0  0  0  0  0  0  0  0  0
   -1.0713   15.1674   -1.4975 H   0  0  0  0  0  0  0  0  0  0  0  0
    1.4988   15.0162   -3.0982 H   0  0  0  0  0  0  0  0  0  0  0  0
    0.3130   16.3762   -2.9939 H   0  0  0  0  0  0  0  0  0  0  0  0
    0.6847   16.7457    0.6940 H   0  0  0  0  0  0  0  0  0  0  0  0
    0.5655   17.9764   -0.6091 H   0  0  0  0  0  0  0  0  0  0  0  0
   -0.5375   16.5586   -0.6091 H   0  0  0  0  0  0  0  0  0  0  0  0
  1  2  1  0
  2  3  1  0
  3  4  1  0
  4  5  1  0
  5  6  1  0
  6  7  1  0
  7  8  1  0
  7  9  1  0
  2 10  1  0
 10 11  1  0
 11 12  1  0
 12 13  1  0
 13 14  1  6
 13 15  1  0
 15 16  1  0
 16 17  1  0
 17 18  2  0
 18 19  1  0
 19 20  1  0
 20 21  1  0
 21 22  1  0
 22 23  1  0
 22 24  1  0
 24 25  1  0
 24 26  1  0
 19 27  1  0
 27 28  1  1
 27 29  1  0
 29 30  1  0
 30 31  1  0
 31 32  1  1
  7  5  1  0
 31 10  1  0
 31 13  1  0
 27 15  1  0
 24 18  1  0
  1 33  1  0
  1 34  1  0
  1 35  1  0
  2 36  1  6
  3 37  1  0
  3 38  1  0
  4 39  1  0
  4 40  1  0
  5 41  1  6
  8 42  1  0
  8 43  1  0
  8 44  1  0
  9 45  1  0
  9 46  1  0
  9 47  1  0
 10 48  1  6
 11 49  1  0
 11 50  1  0
 12 51  1  0
 12 52  1  0
 14 53  1  0
 14 54  1  0
 14 55  1  0
 15 56  1  1
 16 57  1  0
 16 58  1  0
 17 59  1  0
 19 60  1  6
 20 61  1  0
 20 62  1  0
 21 63  1  0
 21 64  1  0
 22 65  1  6
 23 66  1  0
 25 67  1  0
 25 68  1  0
 25 69  1  0
 26 70  1  0
 26 71  1  0
 26 72  1  0
 28 73  1  0
 28 74  1  0
 28 75  1  0
 29 76  1  0
 29 77  1  0
 30 78  1  0
 30 79  1  0
 32 80  1  0
 32 81  1  0
 32 82  1  0
M  END
>  <meeko>  (9) 
{"is_sidechain": [false], "intermolecular_energy": 2.731, "internal_energy": -0.839}

$$$$
EPH_relaxed_0001_pdb2pqr_Repair_273_r2_0001_out
     RDKit          3D

 82 86  0  0  0  0  0  0  0  0999 V2000
    0.0190    9.4350   -2.6380 C   0  0  0  0  0  0  0  0  0  0  0  0
    1.1180   10.4320   -3.0140 C   0  0  2  0  0  0  0  0  0  0  0  0
    2.5090    9.7680   -3.0740 C   0  0  0  0  0  0  0  0  0  0  0  0
    3.4930   10.4830   -4.0030 C   0  0  0  0  0  0  0  0  0  0  0  0
    4.8510   10.6080   -3.3820 C   0  0  2  0  0  0  0  0  0  0  0  0
    5.4900   11.8740   -3.5890 O   0  0  0  0  0  0  0  0  0  0  0  0
    6.1310   10.7360   -4.1870 C   0  0  0  0  0  0  0  0  0  0  0  0
    6.1140   10.7450   -5.6830 C   0  0  0  0  0  0  0  0  0  0  0  0
    7.4260   10.3620   -3.5360 C   0  0  0  0  0  0  0  0  0  0  0  0
    1.1350   11.5870   -2.0190 C   0  0  1  0  0  0  0  0  0  0  0  0
    2.2030   11.4030   -0.9080 C   0  0  0  0  0  0  0  0  0  0  0  0
    2.7440   12.8160   -0.5690 C   0  0  0  0  0  0  0  0  0  0  0  0
    1.7490   13.7870   -1.2450 C   0  0  1  0  0  0  0  0  0  0  0  0
    0.5410   13.8750   -0.2600 C   0  0  0  0  0  0  0  0  0  0  0  0
    2.3030   15.2030   -1.6070 C   0  0  2  0  0  0  0  0  0  0  0  0
    2.7610   16.0500   -0.4070 C   0  0  0  0  0  0  0  0  0  0  0  0
    1.7110   16.9240    0.1950 C   0  0  0  0  0  0  0  0  0  0  0  0
    0.5350   17.2420   -0.3770 C   0  0  0  0  0  0  0  0  0  0  0  0
    0.2050   16.7840   -1.8040 C   0  0  1  0  0  0  0  0  0  0  0  0
   -0.3750   17.9770   -2.6090 C   0  0  0  0  0  0  0  0  0  0  0  0
   -1.5680   18.6270   -1.9140 C   0  0  0  0  0  0  0  0  0  0  0  0
   -1.1850   19.1210   -0.5210 C   0  0  2  0  0  0  0  0  0  0  0  0
   -0.2480   20.1940   -0.6540 O   0  0  0  0  0  0  0  0  0  0  0  0
   -0.5790   18.0070    0.3790 C   0  0  0  0  0  0  0  0  0  0  0  0
   -1.6840   16.9960    0.7700 C   0  0  0  0  0  0  0  0  0  0  0  0
   -0.1060   18.6670    1.7020 C   0  0  0  0  0  0  0  0  0  0  0  0
    1.3720   16.0350   -2.5800 C   0  0  1  0  0  0  0  0  0  0  0  0
    2.2900   17.0750   -3.2930 C   0  0  0  0  0  0  0  0  0  0  0  0
    0.7450   15.1430   -3.7150 C   0  0  0  0  0  0  0  0  0  0  0  0
    0.3270   13.7130   -3.3240 C   0  0  0  0  0  0  0  0  0  0  0  0
    1.4540   12.9980   -2.5730 C   0  0  2  0  0  0  0  0  0  0  0  0
    2.6760   12.8750   -3.5470 C   0  0  0  0  0  0  0  0  0  0  0  0
   -0.0556    9.3673   -1.5426 H   0  0  0  0  0  0  0  0  0  0  0  0
   -0.9421    9.7758   -3.0506 H   0  0  0  0  0  0  0  0  0  0  0  0
    0.2649    8.4454   -3.0506 H   0  0  0  0  0  0  0  0  0  0  0  0
    0.8896   10.8118   -4.0208 H   0  0  0  0  0  0  0  0  0  0  0  0
    2.9335    9.7590   -2.0593 H   0  0  0  0  0  0  0  0  0  0  0  0
    2.3643    8.7550   -3.4776 H   0  0  0  0  0  0  0  0  0  0  0  0
    3.5801    9.9107   -4.9384 H   0  0  0  0  0  0  0  0  0  0  0  0
    3.1092   11.4959   -4.1947 H   0  0  0  0  0  0  0  0  0  0  0  0
    4.5613    9.9392   -2.5581 H   0  0  0  0  0  0  0  0  0  0  0  0
    5.1933   11.2324   -6.0363 H   0  0  0  0  0  0  0  0  0  0  0  0
    6.9883   11.2984   -6.0563 H   0  0  0  0  0  0  0  0  0  0  0  0
    6.1479    9.7108   -6.0563 H   0  0  0  0  0  0  0  0  0  0  0  0
    7.3099   10.3955   -2.4427 H   0  0  0  0  0  0  0  0  0  0  0  0
    7.7107    9.3449   -3.8435 H   0  0  0  0  0  0  0  0  0  0  0  0
    8.2091   11.0707   -3.8435 H   0  0  0  0  0  0  0  0  0  0  0  0
    0.0922   11.5460   -1.6712 H   0  0  0  0  0  0  0  0  0  0  0  0
    1.7474   10.9479   -0.0162 H   0  0  0  0  0  0  0  0  0  0  0  0
    3.0135   10.7402   -1.2453 H   0  0  0  0  0  0  0  0  0  0  0  0
    2.7621   12.9741    0.5194 H   0  0  0  0  0  0  0  0  0  0  0  0
    3.7755   12.9634   -0.9215 H   0  0  0  0  0  0  0  0  0  0  0  0
    0.9099   13.8481    0.7760 H   0  0  0  0  0  0  0  0  0  0  0  0
   -0.0038   14.8152   -0.4310 H   0  0  0  0  0  0  0  0  0  0  0  0
   -0.1343   13.0237   -0.4310 H   0  0  0  0  0  0  0  0  0  0  0  0
    3.2170   14.9618   -2.1695 H   0  0  0  0  0  0  0  0  0  0  0  0
    3.1220   15.3650    0.3744 H   0  0  0  0  0  0  0  0  0  0  0  0
    3.5371   16.7280   -0.7918 H   0  0  0  0  0  0  0  0  0  0  0  0
    1.9160   17.3438    1.1909 H   0  0  0  0  0  0  0  0  0  0  0  0
   -0.5559   15.9962   -1.7019 H   0  0  0  0  0  0  0  0  0  0  0  0
    0.4137   18.7331   -2.7365 H   0  0  0  0  0  0  0  0  0  0  0  0
   -0.7236   17.5885   -3.5772 H   0  0  0  0  0  0  0  0  0  0  0  0
   -1.9144   19.4801   -2.5159 H   0  0  0  0  0  0  0  0  0  0  0  0
   -2.3670   17.8776   -1.8135 H   0  0  0  0  0  0  0  0  0  0  0  0
   -2.1074   19.4579   -0.0253 H   0  0  0  0  0  0  0  0  0  0  0  0
    0.2380   20.2660    0.1850 H   0  0  0  0  0  0  0  0  0  0  0  0
   -1.7525   16.9334    1.8661 H   0  0  0  0  0  0  0  0  0  0  0  0
   -2.6487   17.3307    0.3609 H   0  0  0  0  0  0  0  0  0  0  0  0
   -1.4361   16.0055    0.3609 H   0  0  0  0  0  0  0  0  0  0  0  0
   -0.5092   18.1045    2.5570 H   0  0  0  0  0  0  0  0  0  0  0  0
    0.9932   18.6589    1.7433 H   0  0  0  0  0  0  0  0  0  0  0  0
   -0.4669   19.7053    1.7433 H   0  0  0  0  0  0  0  0  0  0  0  0
    2.8195   17.6749   -2.5382 H   0  0  0  0  0  0  0  0  0  0  0  0
    3.0223   16.5474   -3.9218 H   0  0  0  0  0  0  0  0  0  0  0  0
    1.6756   17.7361   -3.9218 H   0  0  0  0  0  0  0  0  0  0  0  0
   -0.1506   15.6610   -4.0886 H   0  0  0  0  0  0  0  0  0  0  0  0
    1.5472   15.0155   -4.4567 H   0  0  0  0  0  0  0  0  0  0  0  0
   -0.5616   13.7620   -2.6775 H   0  0  0  0  0  0  0  0  0  0  0  0
    0.1048   13.1493   -4.2421 H   0  0  0  0  0  0  0  0  0  0  0  0
    3.6030   12.7817   -2.9623 H   0  0  0  0  0  0  0  0  0  0  0  0
    2.5513   11.9849   -4.1811 H   0  0  0  0  0  0  0  0  0  0  0  0
    2.7312   13.7721   -4.1811 H   0  0  0  0  0  0  0  0  0  0  0  0
  1  2  1  0
  2  3  1  0
  3  4  1  0
  4  5  1  0
  5  6  1  0
  6  7  1  0
  7  8  1  0
  7  9  1  0
  2 10  1  0
 10 11  1  0
 11 12  1  0
 12 13  1  0
 13 14  1  1
 13 15  1  0
 15 16  1  0
 16 17  1  0
 17 18  2  0
 18 19  1  0
 19 20  1  0
 20 21  1  0
 21 22  1  0
 22 23  1  0
 22 24  1  0
 24 25  1  0
 24 26  1  0
 19 27  1  0
 27 28  1  6
 27 29  1  0
 29 30  1  0
 30 31  1  0
 31 32  1  6
  7  5  1  0
 31 10  1  0
 31 13  1  0
 27 15  1  0
 24 18  1  0
  1 33  1  0
  1 34  1  0
  1 35  1  0
  2 36  1  6
  3 37  1  0
  3 38  1  0
  4 39  1  0
  4 40  1  0
  5 41  1  1
  8 42  1  0
  8 43  1  0
  8 44  1  0
  9 45  1  0
  9 46  1  0
  9 47  1  0
 10 48  1  1
 11 49  1  0
 11 50  1  0
 12 51  1  0
 12 52  1  0
 14 53  1  0
 14 54  1  0
 14 55  1  0
 15 56  1  6
 16 57  1  0
 16 58  1  0
 17 59  1  0
 19 60  1  1
 20 61  1  0
 20 62  1  0
 21 63  1  0
 21 64  1  0
 22 65  1  1
 23 66  1  0
 25 67  1  0
 25 68  1  0
 25 69  1  0
 26 70  1  0
 26 71  1  0
 26 72  1  0
 28 73  1  0
 28 74  1  0
 28 75  1  0
 29 76  1  0
 29 77  1  0
 30 78  1  0
 30 79  1  0
 32 80  1  0
 32 81  1  0
 32 82  1  0
M  END
>  <meeko>  (10) 
{"is_sidechain": [false], "intermolecular_energy": 2.731, "internal_energy": -0.839}

$$$$
EPH_relaxed_0001_pdb2pqr_Repair_273_r2_0001_out
     RDKit          3D

 82 86  0  0  0  0  0  0  0  0999 V2000
   -0.9230   16.3810   -5.8820 C   0  0  0  0  0  0  0  0  0  0  0  0
    0.1790   15.6860   -6.6860 C   0  0  2  0  0  0  0  0  0  0  0  0
   -0.2150   15.4910   -8.1640 C   0  0  0  0  0  0  0  0  0  0  0  0
    0.4390   16.4990   -9.1130 C   0  0  0  0  0  0  0  0  0  0  0  0
    1.8450   16.1070   -9.4540 C   0  0  2  0  0  0  0  0  0  0  0  0
    2.3440   16.6710  -10.6740 O   0  0  0  0  0  0  0  0  0  0  0  0
    2.2070   15.2410  -10.6460 C   0  0  0  0  0  0  0  0  0  0  0  0
    1.1580   14.7120  -11.5730 C   0  0  0  0  0  0  0  0  0  0  0  0
    3.5130   14.5100  -10.6290 C   0  0  0  0  0  0  0  0  0  0  0  0
    0.5120   14.3390   -6.0540 C   0  0  1  0  0  0  0  0  0  0  0  0
    1.7380   13.6550   -6.7160 C   0  0  0  0  0  0  0  0  0  0  0  0
    2.4920   12.9010   -5.5910 C   0  0  0  0  0  0  0  0  0  0  0  0
    1.5080   12.8970   -4.3970 C   0  0  1  0  0  0  0  0  0  0  0  0
    0.5210   11.7250   -4.6950 C   0  0  0  0  0  0  0  0  0  0  0  0
    2.1470   12.7680   -2.9760 C   0  0  2  0  0  0  0  0  0  0  0  0
    2.9140   11.4580   -2.7220 C   0  0  0  0  0  0  0  0  0  0  0  0
    2.1000   10.3440   -2.1510 C   0  0  0  0  0  0  0  0  0  0  0  0
    0.8840   10.4720   -1.5890 C   0  0  0  0  0  0  0  0  0  0  0  0
    0.2460   11.8540   -1.3980 C   0  0  1  0  0  0  0  0  0  0  0  0
   -0.3300   11.9640    0.0380 C   0  0  0  0  0  0  0  0  0  0  0  0
   -1.2910   10.8270    0.3720 C   0  0  0  0  0  0  0  0  0  0  0  0
   -0.6030    9.4720    0.2270 C   0  0  2  0  0  0  0  0  0  0  0  0
    0.4100    9.3590    1.2300 O   0  0  0  0  0  0  0  0  0  0  0  0
    0.0250    9.2510   -1.1780 C   0  0  0  0  0  0  0  0  0  0  0  0
   -1.0990    9.0710   -2.2280 C   0  0  0  0  0  0  0  0  0  0  0  0
    0.8070    7.9100   -1.1460 C   0  0  0  0  0  0  0  0  0  0  0  0
    1.1560   13.0970   -1.7880 C   0  0  1  0  0  0  0  0  0  0  0  0
    2.0400   13.5110   -0.5720 C   0  0  0  0  0  0  0  0  0  0  0  0
    0.2310   14.3320   -2.1040 C   0  0  0  0  0  0  0  0  0  0  0  0
   -0.2710   14.4700   -3.5540 C   0  0  0  0  0  0  0  0  0  0  0  0
    0.8850   14.3330   -4.5500 C   0  0  2  0  0  0  0  0  0  0  0  0
    1.8840   15.5120   -4.2900 C   0  0  0  0  0  0  0  0  0  0  0  0
   -0.7263   16.2569   -4.8069 H   0  0  0  0  0  0  0  0  0  0  0  0
   -0.9382   17.4524   -6.1307 H   0  0  0  0  0  0  0  0  0  0  0  0
   -1.8964   15.9330   -6.1307 H   0  0  0  0  0  0  0  0  0  0  0  0
    1.0654   16.3370   -6.6639 H   0  0  0  0  0  0  0  0  0  0  0  0
    0.0844   14.4785   -8.4726 H   0  0  0  0  0  0  0  0  0  0  0  0
   -1.3021   15.6454   -8.2302 H   0  0  0  0  0  0  0  0  0  0  0  0
   -0.1513   16.5512  -10.0397 H   0  0  0  0  0  0  0  0  0  0  0  0
    0.4679   17.4762   -8.6088 H   0  0  0  0  0  0  0  0  0  0  0  0
    2.1107   16.0434   -8.3885 H   0  0  0  0  0  0  0  0  0  0  0  0
    0.3274   14.2931  -10.9860 H   0  0  0  0  0  0  0  0  0  0  0  0
    0.7834   15.5290  -12.2072 H   0  0  0  0  0  0  0  0  0  0  0  0
    1.5922   13.9251  -12.2072 H   0  0  0  0  0  0  0  0  0  0  0  0
    3.8227   14.3367   -9.5878 H   0  0  0  0  0  0  0  0  0  0  0  0
    3.3994   13.5443  -11.1433 H   0  0  0  0  0  0  0  0  0  0  0  0
    4.2767   15.1118  -11.1433 H   0  0  0  0  0  0  0  0  0  0  0  0
   -0.4463   13.8211   -6.2069 H   0  0  0  0  0  0  0  0  0  0  0  0
    1.4049   12.9469   -7.4891 H   0  0  0  0  0  0  0  0  0  0  0  0
    2.3904   14.3969   -7.1997 H   0  0  0  0  0  0  0  0  0  0  0  0
    2.7281   11.8730   -5.9031 H   0  0  0  0  0  0  0  0  0  0  0  0
    3.4512   13.3773   -5.3397 H   0  0  0  0  0  0  0  0  0  0  0  0
    0.1616   11.2983   -3.7470 H   0  0  0  0  0  0  0  0  0  0  0  0
   -0.3341   12.1040   -5.2740 H   0  0  0  0  0  0  0  0  0  0  0  0
    1.0399   10.9469   -5.2740 H   0  0  0  0  0  0  0  0  0  0  0  0
    2.9078   13.5624   -2.9862 H   0  0  0  0  0  0  0  0  0  0  0  0
    3.3318   11.1171   -3.6808 H   0  0  0  0  0  0  0  0  0  0  0  0
    3.6791   11.6941   -1.9678 H   0  0  0  0  0  0  0  0  0  0  0  0
    2.5309    9.3328   -2.1933 H   0  0  0  0  0  0  0  0  0  0  0  0
   -0.5700   11.9171   -2.1329 H   0  0  0  0  0  0  0  0  0  0  0  0
    0.5040   11.9428    0.7550 H   0  0  0  0  0  0  0  0  0  0  0  0
   -0.8937   12.9065    0.1002 H   0  0  0  0  0  0  0  0  0  0  0  0
   -1.6412   10.9441    1.4082 H   0  0  0  0  0  0  0  0  0  0  0  0
   -2.1393   10.8670   -0.3271 H   0  0  0  0  0  0  0  0  0  0  0  0
   -1.3730    8.6964    0.3519 H   0  0  0  0  0  0  0  0  0  0  0  0
    1.2450    9.1420    0.7820 H   0  0  0  0  0  0  0  0  0  0  0  0
   -2.0594    8.9172   -1.7143 H   0  0  0  0  0  0  0  0  0  0  0  0
   -1.1600    9.9708   -2.8578 H   0  0  0  0  0  0  0  0  0  0  0  0
   -0.8759    8.1971   -2.8578 H   0  0  0  0  0  0  0  0  0  0  0  0
    0.9809    7.6118   -0.1016 H   0  0  0  0  0  0  0  0  0  0  0  0
    0.2212    7.1316   -1.6569 H   0  0  0  0  0  0  0  0  0  0  0  0
    1.7729    8.0365   -1.6569 H   0  0  0  0  0  0  0  0  0  0  0  0
    1.5155   13.2653    0.3632 H   0  0  0  0  0  0  0  0  0  0  0  0
    2.9950   12.9665   -0.6107 H   0  0  0  0  0  0  0  0  0  0  0  0
    2.2332   14.5932   -0.6107 H   0  0  0  0  0  0  0  0  0  0  0  0
   -0.6517   14.2624   -1.4513 H   0  0  0  0  0  0  0  0  0  0  0  0
    0.8623   15.2163   -1.9322 H   0  0  0  0  0  0  0  0  0  0  0  0
   -1.0135   13.6835   -3.7541 H   0  0  0  0  0  0  0  0  0  0  0  0
   -0.7225   15.4657   -3.6755 H   0  0  0  0  0  0  0  0  0  0  0  0
    2.0065   15.6566   -3.2064 H   0  0  0  0  0  0  0  0  0  0  0  0
    2.8586   15.2729   -4.7405 H   0  0  0  0  0  0  0  0  0  0  0  0
    1.4881   16.4341   -4.7405 H   0  0  0  0  0  0  0  0  0  0  0  0
  1  2  1  0
  2  3  1  0
  3  4  1  0
  4  5  1  0
  5  6  1  0
  6  7  1  0
  7  8  1  0
  7  9  1  0
  2 10  1  0
 10 11  1  0
 11 12  1  0
 12 13  1  0
 13 14  1  6
 13 15  1  0
 15 16  1  0
 16 17  1  0
 17 18  2  0
 18 19  1  0
 19 20  1  0
 20 21  1  0
 21 22  1  0
 22 23  1  0
 22 24  1  0
 24 25  1  0
 24 26  1  0
 19 27  1  0
 27 28  1  1
 27 29  1  0
 29 30  1  0
 30 31  1  0
 31 32  1  6
  7  5  1  0
 31 10  1  0
 31 13  1  0
 27 15  1  0
 24 18  1  0
  1 33  1  0
  1 34  1  0
  1 35  1  0
  2 36  1  6
  3 37  1  0
  3 38  1  0
  4 39  1  0
  4 40  1  0
  5 41  1  1
  8 42  1  0
  8 43  1  0
  8 44  1  0
  9 45  1  0
  9 46  1  0
  9 47  1  0
 10 48  1  1
 11 49  1  0
 11 50  1  0
 12 51  1  0
 12 52  1  0
 14 53  1  0
 14 54  1  0
 14 55  1  0
 15 56  1  6
 16 57  1  0
 16 58  1  0
 17 59  1  0
 19 60  1  6
 20 61  1  0
 20 62  1  0
 21 63  1  0
 21 64  1  0
 22 65  1  1
 23 66  1  0
 25 67  1  0
 25 68  1  0
 25 69  1  0
 26 70  1  0
 26 71  1  0
 26 72  1  0
 28 73  1  0
 28 74  1  0
 28 75  1  0
 29 76  1  0
 29 77  1  0
 30 78  1  0
 30 79  1  0
 32 80  1  0
 32 81  1  0
 32 82  1  0
M  END
>  <meeko>  (11) 
{"is_sidechain": [false], "intermolecular_energy": 2.731, "internal_energy": -0.839}

$$$$
EPH_relaxed_0001_pdb2pqr_Repair_273_r2_0001_out
     RDKit          3D

 82 86  0  0  0  0  0  0  0  0999 V2000
   -3.7300    7.1840   -3.4300 C   0  0  0  0  0  0  0  0  0  0  0  0
   -3.7200    7.2660   -1.9010 C   0  0  2  0  0  0  0  0  0  0  0  0
   -5.1190    7.0330   -1.2970 C   0  0  0  0  0  0  0  0  0  0  0  0
   -6.2520    7.0990   -2.3250 C   0  0  0  0  0  0  0  0  0  0  0  0
   -7.5760    7.3660   -1.6740 C   0  0  2  0  0  0  0  0  0  0  0  0
   -8.2230    6.2050   -1.1380 O   0  0  0  0  0  0  0  0  0  0  0  0
   -8.8960    6.8600   -2.2260 C   0  0  0  0  0  0  0  0  0  0  0  0
   -8.9570    6.0470   -3.4810 C   0  0  0  0  0  0  0  0  0  0  0  0
  -10.1550    7.5600   -1.8220 C   0  0  0  0  0  0  0  0  0  0  0  0
   -3.1810    8.6210   -1.4570 C   0  0  1  0  0  0  0  0  0  0  0  0
   -3.8180    9.1120   -0.1300 C   0  0  0  0  0  0  0  0  0  0  0  0
   -2.7120    9.8810    0.6390 C   0  0  0  0  0  0  0  0  0  0  0  0
   -1.5890   10.0930   -0.4020 C   0  0  1  0  0  0  0  0  0  0  0  0
   -2.0440   11.3310   -1.2370 C   0  0  0  0  0  0  0  0  0  0  0  0
   -0.1450   10.2810    0.1680 C   0  0  2  0  0  0  0  0  0  0  0  0
    0.0490   11.5220    1.0580 C   0  0  0  0  0  0  0  0  0  0  0  0
    0.4730   12.7610    0.3420 C   0  0  0  0  0  0  0  0  0  0  0  0
    0.9640   12.8110   -0.9100 C   0  0  0  0  0  0  0  0  0  0  0  0
    1.2270   11.5250   -1.7050 C   0  0  1  0  0  0  0  0  0  0  0  0
    2.6270   11.6040   -2.3680 C   0  0  0  0  0  0  0  0  0  0  0  0
    2.8040   12.8600   -3.2160 C   0  0  0  0  0  0  0  0  0  0  0  0
    2.5920   14.1180   -2.3770 C   0  0  2  0  0  0  0  0  0  0  0  0
    3.6460   14.2130   -1.4140 O   0  0  0  0  0  0  0  0  0  0  0  0
    1.2170   14.1460   -1.6520 C   0  0  0  0  0  0  0  0  0  0  0  0
    0.0860   14.3480   -2.6900 C   0  0  0  0  0  0  0  0  0  0  0  0
    1.1890   15.3960   -0.7310 C   0  0  0  0  0  0  0  0  0  0  0  0
    1.0010   10.1640   -0.9170 C   0  0  1  0  0  0  0  0  0  0  0  0
    2.3010    9.7700   -0.1510 C   0  0  0  0  0  0  0  0  0  0  0  0
    0.7280    9.0100   -1.9520 C   0  0  0  0  0  0  0  0  0  0  0  0
   -0.7350    8.7960   -2.3860 C   0  0  0  0  0  0  0  0  0  0  0  0
   -1.6620    8.7230   -1.1690 C   0  0  2  0  0  0  0  0  0  0  0  0
   -1.2420    7.4740   -0.3220 C   0  0  0  0  0  0  0  0  0  0  0  0
   -3.8578    6.1364   -3.7402 H   0  0  0  0  0  0  0  0  0  0  0  0
   -4.5613    7.7871   -3.8241 H   0  0  0  0  0  0  0  0  0  0  0  0
   -2.7782    7.5696   -3.8241 H   0  0  0  0  0  0  0  0  0  0  0  0
   -3.0634    6.4645   -1.5315 H   0  0  0  0  0  0  0  0  0  0  0  0
   -5.1334    6.0382   -0.8277 H   0  0  0  0  0  0  0  0  0  0  0  0
   -5.2950    7.8415   -0.5722 H   0  0  0  0  0  0  0  0  0  0  0  0
   -6.0374    7.9062   -3.0408 H   0  0  0  0  0  0  0  0  0  0  0  0
   -6.3102    6.1258   -2.8344 H   0  0  0  0  0  0  0  0  0  0  0  0
   -7.2448    8.3648   -1.3536 H   0  0  0  0  0  0  0  0  0  0  0  0
   -9.0370    4.9806   -3.2235 H   0  0  0  0  0  0  0  0  0  0  0  0
   -9.8350    6.3486   -4.0710 H   0  0  0  0  0  0  0  0  0  0  0  0
   -8.0438    6.2142   -4.0710 H   0  0  0  0  0  0  0  0  0  0  0  0
  -10.2188    7.5955   -0.7244 H   0  0  0  0  0  0  0  0  0  0  0  0
  -10.1495    8.5846   -2.2223 H   0  0  0  0  0  0  0  0  0  0  0  0
  -11.0224    7.0146   -2.2223 H   0  0  0  0  0  0  0  0  0  0  0  0
   -3.4367    9.2200   -2.3435 H   0  0  0  0  0  0  0  0  0  0  0  0
   -4.6665    9.7794   -0.3412 H   0  0  0  0  0  0  0  0  0  0  0  0
   -4.1968    8.2666    0.4631 H   0  0  0  0  0  0  0  0  0  0  0  0
   -3.0919   10.8471    1.0026 H   0  0  0  0  0  0  0  0  0  0  0  0
   -2.3612    9.3318    1.5252 H   0  0  0  0  0  0  0  0  0  0  0  0
   -2.3422   12.1425   -0.5569 H   0  0  0  0  0  0  0  0  0  0  0  0
   -1.2122   11.6713   -1.8713 H   0  0  0  0  0  0  0  0  0  0  0  0
   -2.8982   11.0516   -1.8713 H   0  0  0  0  0  0  0  0  0  0  0  0
   -0.0413    9.4138    0.8368 H   0  0  0  0  0  0  0  0  0  0  0  0
   -0.9060   11.7310    1.5624 H   0  0  0  0  0  0  0  0  0  0  0  0
    0.8681   11.2751    1.7494 H   0  0  0  0  0  0  0  0  0  0  0  0
    0.3760   13.7137    0.8833 H   0  0  0  0  0  0  0  0  0  0  0  0
    0.4482   11.4823   -2.4806 H   0  0  0  0  0  0  0  0  0  0  0  0
    3.3919   11.6018   -1.5775 H   0  0  0  0  0  0  0  0  0  0  0  0
    2.7299   10.7347   -3.0342 H   0  0  0  0  0  0  0  0  0  0  0  0
    3.8218   12.8725   -3.6331 H   0  0  0  0  0  0  0  0  0  0  0  0
    2.0578   12.8466   -4.0241 H   0  0  0  0  0  0  0  0  0  0  0  0
    2.6024   14.9779   -3.0629 H   0  0  0  0  0  0  0  0  0  0  0  0
    4.1910   14.9830   -1.6480 H   0  0  0  0  0  0  0  0  0  0  0  0
   -0.8663   14.5181   -2.1663 H   0  0  0  0  0  0  0  0  0  0  0  0
    0.3183   15.2189   -3.3206 H   0  0  0  0  0  0  0  0  0  0  0  0
    0.0025   13.4506   -3.3206 H   0  0  0  0  0  0  0  0  0  0  0  0
    1.1962   15.0762    0.3215 H   0  0  0  0  0  0  0  0  0  0  0  0
    2.0734   16.0187   -0.9310 H   0  0  0  0  0  0  0  0  0  0  0  0
    0.2776   15.9785   -0.9310 H   0  0  0  0  0  0  0  0  0  0  0  0
    2.1191    9.8251    0.9325 H   0  0  0  0  0  0  0  0  0  0  0  0
    2.5899    8.7440   -0.4226 H   0  0  0  0  0  0  0  0  0  0  0  0
    3.1109   10.4630   -0.4226 H   0  0  0  0  0  0  0  0  0  0  0  0
    1.3145    9.2289   -2.8565 H   0  0  0  0  0  0  0  0  0  0  0  0
    1.0115    8.0837   -1.4308 H   0  0  0  0  0  0  0  0  0  0  0  0
   -1.0468    9.6343   -3.0263 H   0  0  0  0  0  0  0  0  0  0  0  0
   -0.8025    7.8459   -2.9362 H   0  0  0  0  0  0  0  0  0  0  0  0
   -1.3224    7.7132    0.7487 H   0  0  0  0  0  0  0  0  0  0  0  0
   -1.9056    6.6296   -0.5599 H   0  0  0  0  0  0  0  0  0  0  0  0
   -0.2030    7.2021   -0.5599 H   0  0  0  0  0  0  0  0  0  0  0  0
  1  2  1  0
  2  3  1  0
  3  4  1  0
  4  5  1  0
  5  6  1  0
  6  7  1  0
  7  8  1  0
  7  9  1  0
  2 10  1  0
 10 11  1  0
 11 12  1  0
 12 13  1  0
 13 14  1  6
 13 15  1  0
 15 16  1  0
 16 17  1  0
 17 18  2  0
 18 19  1  0
 19 20  1  0
 20 21  1  0
 21 22  1  0
 22 23  1  0
 22 24  1  0
 24 25  1  0
 24 26  1  0
 19 27  1  0
 27 28  1  1
 27 29  1  0
 29 30  1  0
 30 31  1  0
 31 32  1  1
  7  5  1  0
 31 10  1  0
 31 13  1  0
 27 15  1  0
 24 18  1  0
  1 33  1  0
  1 34  1  0
  1 35  1  0
  2 36  1  1
  3 37  1  0
  3 38  1  0
  4 39  1  0
  4 40  1  0
  5 41  1  1
  8 42  1  0
  8 43  1  0
  8 44  1  0
  9 45  1  0
  9 46  1  0
  9 47  1  0
 10 48  1  6
 11 49  1  0
 11 50  1  0
 12 51  1  0
 12 52  1  0
 14 53  1  0
 14 54  1  0
 14 55  1  0
 15 56  1  1
 16 57  1  0
 16 58  1  0
 17 59  1  0
 19 60  1  6
 20 61  1  0
 20 62  1  0
 21 63  1  0
 21 64  1  0
 22 65  1  6
 23 66  1  0
 25 67  1  0
 25 68  1  0
 25 69  1  0
 26 70  1  0
 26 71  1  0
 26 72  1  0
 28 73  1  0
 28 74  1  0
 28 75  1  0
 29 76  1  0
 29 77  1  0
 30 78  1  0
 30 79  1  0
 32 80  1  0
 32 81  1  0
 32 82  1  0
M  END
>  <meeko>  (12) 
{"is_sidechain": [false], "intermolecular_energy": 2.731, "internal_energy": -0.839}

$$$$
EPH_relaxed_0001_pdb2pqr_Repair_273_r2_0001_out
     RDKit          3D

 82 86  0  0  0  0  0  0  0  0999 V2000
   -2.2200    7.8520   -2.1500 C   0  0  0  0  0  0  0  0  0  0  0  0
   -2.1630    8.4600   -0.7460 C   0  0  2  0  0  0  0  0  0  0  0  0
   -3.5370    8.4390   -0.0470 C   0  0  0  0  0  0  0  0  0  0  0  0
   -4.7180    8.6000   -1.0080 C   0  0  0  0  0  0  0  0  0  0  0  0
   -5.4620    7.3120   -1.1920 C   0  0  2  0  0  0  0  0  0  0  0  0
   -5.6370    6.9100   -2.5570 O   0  0  0  0  0  0  0  0  0  0  0  0
   -6.8360    7.2230   -1.8310 C   0  0  0  0  0  0  0  0  0  0  0  0
   -7.5470    8.4430   -2.3250 C   0  0  0  0  0  0  0  0  0  0  0  0
   -7.6880    6.0290   -1.5320 C   0  0  0  0  0  0  0  0  0  0  0  0
   -1.6380    9.8890   -0.8190 C   0  0  1  0  0  0  0  0  0  0  0  0
   -1.1870   10.4320    0.5630 C   0  0  0  0  0  0  0  0  0  0  0  0
    0.0320   11.3550    0.3060 C   0  0  0  0  0  0  0  0  0  0  0  0
    0.0370   11.5770   -1.2250 C   0  0  1  0  0  0  0  0  0  0  0  0
   -1.0230   12.6960   -1.4710 C   0  0  0  0  0  0  0  0  0  0  0  0
    1.4160   11.9370   -1.8660 C   0  0  2  0  0  0  0  0  0  0  0  0
    2.0360   13.2590   -1.3820 C   0  0  0  0  0  0  0  0  0  0  0  0
    1.6680   14.4660   -2.1790 C   0  0  0  0  0  0  0  0  0  0  0  0
    1.1050   14.4540   -3.4020 C   0  0  0  0  0  0  0  0  0  0  0  0
    0.8730   13.1340   -4.1490 C   0  0  1  0  0  0  0  0  0  0  0  0
    1.3550   13.2790   -5.6170 C   0  0  0  0  0  0  0  0  0  0  0  0
    0.7200   14.4710   -6.3260 C   0  0  0  0  0  0  0  0  0  0  0  0
    1.0220   15.7710   -5.5850 C   0  0  2  0  0  0  0  0  0  0  0  0
    2.4250   16.0370   -5.6740 O   0  0  0  0  0  0  0  0  0  0  0  0
    0.5890   15.7400   -4.0930 C   0  0  0  0  0  0  0  0  0  0  0  0
   -0.9570   15.7550   -3.9990 C   0  0  0  0  0  0  0  0  0  0  0  0
    1.0770   17.0550   -3.4270 C   0  0  0  0  0  0  0  0  0  0  0  0
    1.4440   11.8290   -3.4450 C   0  0  1  0  0  0  0  0  0  0  0  0
    2.9350   11.6150   -3.8500 C   0  0  0  0  0  0  0  0  0  0  0  0
    0.6560   10.5730   -3.9730 C   0  0  0  0  0  0  0  0  0  0  0  0
   -0.6360   10.1980   -3.2230 C   0  0  0  0  0  0  0  0  0  0  0  0
   -0.3970   10.1460   -1.7110 C   0  0  2  0  0  0  0  0  0  0  0  0
    0.6480    9.0140   -1.4310 C   0  0  0  0  0  0  0  0  0  0  0  0
   -2.3224    6.7595   -2.0726 H   0  0  0  0  0  0  0  0  0  0  0  0
   -3.0835    8.2637   -2.6931 H   0  0  0  0  0  0  0  0  0  0  0  0
   -1.2950    8.0960   -2.6931 H   0  0  0  0  0  0  0  0  0  0  0  0
   -1.4783    7.8423   -0.1463 H   0  0  0  0  0  0  0  0  0  0  0  0
   -3.6449    7.4786    0.4783 H   0  0  0  0  0  0  0  0  0  0  0  0
   -3.5617    9.2977    0.6400 H   0  0  0  0  0  0  0  0  0  0  0  0
   -5.4074    9.3552   -0.6024 H   0  0  0  0  0  0  0  0  0  0  0  0
   -4.3240    8.9114   -1.9867 H   0  0  0  0  0  0  0  0  0  0  0  0
   -5.0606    6.9185   -0.2465 H   0  0  0  0  0  0  0  0  0  0  0  0
   -7.8937    9.0379   -1.4672 H   0  0  0  0  0  0  0  0  0  0  0  0
   -6.8591    9.0463   -2.9355 H   0  0  0  0  0  0  0  0  0  0  0  0
   -8.4110    8.1418   -2.9355 H   0  0  0  0  0  0  0  0  0  0  0  0
   -7.7764    5.9052   -0.4426 H   0  0  0  0  0  0  0  0  0  0  0  0
   -8.6879    6.1739   -1.9669 H   0  0  0  0  0  0  0  0  0  0  0  0
   -7.2257    5.1305   -1.9669 H   0  0  0  0  0  0  0  0  0  0  0  0
   -2.5201   10.3872   -1.2476 H   0  0  0  0  0  0  0  0  0  0  0  0
   -2.0028   11.0034    1.0299 H   0  0  0  0  0  0  0  0  0  0  0  0
   -0.9222    9.6089    1.2430 H   0  0  0  0  0  0  0  0  0  0  0  0
   -0.0861   12.3112    0.8367 H   0  0  0  0  0  0  0  0  0  0  0  0
    0.9729   10.9138    0.6668 H   0  0  0  0  0  0  0  0  0  0  0  0
   -1.3844   13.0775   -0.5047 H   0  0  0  0  0  0  0  0  0  0  0  0
   -0.5638   13.5172   -2.0409 H   0  0  0  0  0  0  0  0  0  0  0  0
   -1.8678   12.2819   -2.0409 H   0  0  0  0  0  0  0  0  0  0  0  0
    2.0705   11.1420   -1.4794 H   0  0  0  0  0  0  0  0  0  0  0  0
    1.7128   13.4258   -0.3439 H   0  0  0  0  0  0  0  0  0  0  0  0
    3.1243   13.1425   -1.4917 H   0  0  0  0  0  0  0  0  0  0  0  0
    1.8742   15.4484   -1.7292 H   0  0  0  0  0  0  0  0  0  0  0  0
   -0.2128   12.9589   -4.1278 H   0  0  0  0  0  0  0  0  0  0  0  0
    2.4473   13.4089   -5.6183 H   0  0  0  0  0  0  0  0  0  0  0  0
    1.0548   12.3697   -6.1584 H   0  0  0  0  0  0  0  0  0  0  0  0
    1.1214   14.5376   -7.3480 H   0  0  0  0  0  0  0  0  0  0  0  0
   -0.3701   14.3255   -6.3495 H   0  0  0  0  0  0  0  0  0  0  0  0
    0.4357   16.5685   -6.0649 H   0  0  0  0  0  0  0  0  0  0  0  0
    2.7150   15.7940   -6.5700 H   0  0  0  0  0  0  0  0  0  0  0  0
   -1.2600   15.7579   -2.9416 H   0  0  0  0  0  0  0  0  0  0  0  0
   -1.3457   16.6570   -4.4943 H   0  0  0  0  0  0  0  0  0  0  0  0
   -1.3632   14.8608   -4.4943 H   0  0  0  0  0  0  0  0  0  0  0  0
    1.0375   16.9485   -2.3329 H   0  0  0  0  0  0  0  0  0  0  0  0
    2.1117   17.2616   -3.7381 H   0  0  0  0  0  0  0  0  0  0  0  0
    0.4276   17.8865   -3.7381 H   0  0  0  0  0  0  0  0  0  0  0  0
    3.5520   11.5264   -2.9437 H   0  0  0  0  0  0  0  0  0  0  0  0
    3.0246   10.6948   -4.4460 H   0  0  0  0  0  0  0  0  0  0  0  0
    3.2798   12.4729   -4.4460 H   0  0  0  0  0  0  0  0  0  0  0  0
    0.3878   10.7654   -5.0223 H   0  0  0  0  0  0  0  0  0  0  0  0
    1.3354    9.7216   -3.8195 H   0  0  0  0  0  0  0  0  0  0  0  0
   -1.4089   10.9502   -3.4394 H   0  0  0  0  0  0  0  0  0  0  0  0
   -0.9615    9.2031   -3.5610 H   0  0  0  0  0  0  0  0  0  0  0  0
    0.7669    8.8852   -0.3451 H   0  0  0  0  0  0  0  0  0  0  0  0
    0.2957    8.0716   -1.8756 H   0  0  0  0  0  0  0  0  0  0  0  0
    1.6155    9.2900   -1.8756 H   0  0  0  0  0  0  0  0  0  0  0  0
  1  2  1  0
  2  3  1  0
  3  4  1  0
  4  5  1  0
  5  6  1  0
  6  7  1  0
  7  8  1  0
  7  9  1  0
  2 10  1  0
 10 11  1  0
 11 12  1  0
 12 13  1  0
 13 14  1  1
 13 15  1  0
 15 16  1  0
 16 17  1  0
 17 18  2  0
 18 19  1  0
 19 20  1  0
 20 21  1  0
 21 22  1  0
 22 23  1  0
 22 24  1  0
 24 25  1  0
 24 26  1  0
 19 27  1  0
 27 28  1  6
 27 29  1  0
 29 30  1  0
 30 31  1  0
 31 32  1  6
  7  5  1  0
 31 10  1  0
 31 13  1  0
 27 15  1  0
 24 18  1  0
  1 33  1  0
  1 34  1  0
  1 35  1  0
  2 36  1  1
  3 37  1  0
  3 38  1  0
  4 39  1  0
  4 40  1  0
  5 41  1  1
  8 42  1  0
  8 43  1  0
  8 44  1  0
  9 45  1  0
  9 46  1  0
  9 47  1  0
 10 48  1  6
 11 49  1  0
 11 50  1  0
 12 51  1  0
 12 52  1  0
 14 53  1  0
 14 54  1  0
 14 55  1  0
 15 56  1  1
 16 57  1  0
 16 58  1  0
 17 59  1  0
 19 60  1  6
 20 61  1  0
 20 62  1  0
 21 63  1  0
 21 64  1  0
 22 65  1  6
 23 66  1  0
 25 67  1  0
 25 68  1  0
 25 69  1  0
 26 70  1  0
 26 71  1  0
 26 72  1  0
 28 73  1  0
 28 74  1  0
 28 75  1  0
 29 76  1  0
 29 77  1  0
 30 78  1  0
 30 79  1  0
 32 80  1  0
 32 81  1  0
 32 82  1  0
M  END
>  <meeko>  (13) 
{"is_sidechain": [false], "intermolecular_energy": 2.731, "internal_energy": -0.839}

$$$$
EPH_relaxed_0001_pdb2pqr_Repair_273_r2_0001_out
     RDKit          3D

 82 86  0  0  0  0  0  0  0  0999 V2000
    2.8420   11.3620   -5.3950 C   0  0  0  0  0  0  0  0  0  0  0  0
    1.8510   11.0500   -4.2700 C   0  0  2  0  0  0  0  0  0  0  0  0
    0.7350   10.0910   -4.7280 C   0  0  0  0  0  0  0  0  0  0  0  0
   -0.3340    9.8350   -3.6610 C   0  0  0  0  0  0  0  0  0  0  0  0
    0.2090    9.0400   -2.5120 C   0  0  2  0  0  0  0  0  0  0  0  0
   -0.6130    7.9380   -2.1060 O   0  0  0  0  0  0  0  0  0  0  0  0
   -0.4460    8.9930   -1.1440 C   0  0  0  0  0  0  0  0  0  0  0  0
   -1.7000    9.7550   -0.8530 C   0  0  0  0  0  0  0  0  0  0  0  0
    0.3900    8.6050    0.0360 C   0  0  0  0  0  0  0  0  0  0  0  0
    1.2420   12.3430   -3.7410 C   0  0  1  0  0  0  0  0  0  0  0  0
   -0.2970   12.2490   -3.5610 C   0  0  0  0  0  0  0  0  0  0  0  0
   -0.6550   13.1010   -2.3170 C   0  0  0  0  0  0  0  0  0  0  0  0
    0.6250   13.9170   -2.0210 C   0  0  1  0  0  0  0  0  0  0  0  0
    0.5730   15.1200   -3.0150 C   0  0  0  0  0  0  0  0  0  0  0  0
    0.8130   14.3960   -0.5450 C   0  0  2  0  0  0  0  0  0  0  0  0
   -0.2690   15.3610   -0.0280 C   0  0  0  0  0  0  0  0  0  0  0  0
    0.0170   16.8110   -0.2390 C   0  0  0  0  0  0  0  0  0  0  0  0
    1.2150   17.3340   -0.5590 C   0  0  0  0  0  0  0  0  0  0  0  0
    2.4640   16.4470   -0.6440 C   0  0  1  0  0  0  0  0  0  0  0  0
    3.6360   17.1300    0.1080 C   0  0  0  0  0  0  0  0  0  0  0  0
    3.8960   18.5520   -0.3810 C   0  0  0  0  0  0  0  0  0  0  0  0
    2.6480   19.4180   -0.2260 C   0  0  2  0  0  0  0  0  0  0  0  0
    2.3750   19.5880    1.1680 O   0  0  0  0  0  0  0  0  0  0  0  0
    1.3990   18.8250   -0.9350 C   0  0  0  0  0  0  0  0  0  0  0  0
    1.5770   18.9200   -2.4700 C   0  0  0  0  0  0  0  0  0  0  0  0
    0.1800   19.7200   -0.5830 C   0  0  0  0  0  0  0  0  0  0  0  0
    2.2670   14.9290   -0.2160 C   0  0  1  0  0  0  0  0  0  0  0  0
    2.4580   14.7810    1.3240 C   0  0  0  0  0  0  0  0  0  0  0  0
    3.3910   14.0560   -0.8900 C   0  0  0  0  0  0  0  0  0  0  0  0
    3.0960   13.5120   -2.3010 C   0  0  0  0  0  0  0  0  0  0  0  0
    1.7210   12.8400   -2.3530 C   0  0  2  0  0  0  0  0  0  0  0  0
    1.7500   11.6130   -1.3800 C   0  0  0  0  0  0  0  0  0  0  0  0
    3.8060   11.6655   -4.9607 H   0  0  0  0  0  0  0  0  0  0  0  0
    2.9856   10.4656   -6.0162 H   0  0  0  0  0  0  0  0  0  0  0  0
    2.4462   12.1790   -6.0162 H   0  0  0  0  0  0  0  0  0  0  0  0
    2.4096   10.5462   -3.4675 H   0  0  0  0  0  0  0  0  0  0  0  0
    0.2457   10.5249   -5.6125 H   0  0  0  0  0  0  0  0  0  0  0  0
    1.2115    9.1234   -4.9439 H   0  0  0  0  0  0  0  0  0  0  0  0
   -0.7004   10.8014   -3.2843 H   0  0  0  0  0  0  0  0  0  0  0  0
   -1.1484    9.2577   -4.1230 H   0  0  0  0  0  0  0  0  0  0  0  0
    1.2427    9.2437   -2.8282 H   0  0  0  0  0  0  0  0  0  0  0  0
   -1.8350    9.8370    0.2356 H   0  0  0  0  0  0  0  0  0  0  0  0
   -1.6272   10.7617   -1.2903 H   0  0  0  0  0  0  0  0  0  0  0  0
   -2.5600    9.2266   -1.2903 H   0  0  0  0  0  0  0  0  0  0  0  0
   -0.1466    8.8541    0.9633 H   0  0  0  0  0  0  0  0  0  0  0  0
    0.5873    7.5233    0.0058 H   0  0  0  0  0  0  0  0  0  0  0  0
    1.3435    9.1526    0.0058 H   0  0  0  0  0  0  0  0  0  0  0  0
    1.5760   13.0379   -4.5255 H   0  0  0  0  0  0  0  0  0  0  0  0
   -0.8073   12.6455   -4.4512 H   0  0  0  0  0  0  0  0  0  0  0  0
   -0.6160   11.2045   -3.4292 H   0  0  0  0  0  0  0  0  0  0  0  0
   -1.5003   13.7702   -2.5350 H   0  0  0  0  0  0  0  0  0  0  0  0
   -0.9617   12.4814   -1.4614 H   0  0  0  0  0  0  0  0  0  0  0  0
    0.5323   16.0621   -2.4486 H   0  0  0  0  0  0  0  0  0  0  0  0
    1.4724   15.1115   -3.6483 H   0  0  0  0  0  0  0  0  0  0  0  0
   -0.3223   15.0339   -3.6483 H   0  0  0  0  0  0  0  0  0  0  0  0
    0.6780   13.4638    0.0232 H   0  0  0  0  0  0  0  0  0  0  0  0
   -1.2116   15.1220   -0.5423 H   0  0  0  0  0  0  0  0  0  0  0  0
   -0.3124   15.2145    1.0613 H   0  0  0  0  0  0  0  0  0  0  0  0
   -0.8231   17.5116   -0.1230 H   0  0  0  0  0  0  0  0  0  0  0  0
    2.7050   16.3632   -1.7140 H   0  0  0  0  0  0  0  0  0  0  0  0
    3.3941   17.1647    1.1805 H   0  0  0  0  0  0  0  0  0  0  0  0
    4.5444   16.5399   -0.0835 H   0  0  0  0  0  0  0  0  0  0  0  0
    4.7147   18.9913    0.2078 H   0  0  0  0  0  0  0  0  0  0  0  0
    4.1670   18.5133   -1.4464 H   0  0  0  0  0  0  0  0  0  0  0  0
    2.8543   20.3837   -0.7107 H   0  0  0  0  0  0  0  0  0  0  0  0
    1.4670   19.2820    1.3300 H   0  0  0  0  0  0  0  0  0  0  0  0
    2.5263   19.4266   -2.6984 H   0  0  0  0  0  0  0  0  0  0  0  0
    1.5885   17.9081   -2.9011 H   0  0  0  0  0  0  0  0  0  0  0  0
    0.7427   19.4928   -2.9011 H   0  0  0  0  0  0  0  0  0  0  0  0
    0.0817   19.7922    0.5102 H   0  0  0  0  0  0  0  0  0  0  0  0
    0.3289   20.7249   -1.0049 H   0  0  0  0  0  0  0  0  0  0  0  0
   -0.7342   19.2770   -1.0049 H   0  0  0  0  0  0  0  0  0  0  0  0
    1.6930   15.3737    1.8470 H   0  0  0  0  0  0  0  0  0  0  0  0
    2.3577   13.7225    1.6059 H   0  0  0  0  0  0  0  0  0  0  0  0
    3.4580   15.1424    1.6059 H   0  0  0  0  0  0  0  0  0  0  0  0
    4.2985   14.6743   -0.9548 H   0  0  0  0  0  0  0  0  0  0  0  0
    3.4847   13.1649   -0.2519 H   0  0  0  0  0  0  0  0  0  0  0  0
    3.1169   14.3448   -3.0194 H   0  0  0  0  0  0  0  0  0  0  0  0
    3.8616   12.7644   -2.5558 H   0  0  0  0  0  0  0  0  0  0  0  0
    1.7416   11.9699   -0.3395 H   0  0  0  0  0  0  0  0  0  0  0  0
    0.8665   10.9825   -1.5586 H   0  0  0  0  0  0  0  0  0  0  0  0
    2.6623   11.0249   -1.5586 H   0  0  0  0  0  0  0  0  0  0  0  0
  1  2  1  0
  2  3  1  0
  3  4  1  0
  4  5  1  0
  5  6  1  0
  6  7  1  0
  7  8  1  0
  7  9  1  0
  2 10  1  0
 10 11  1  0
 11 12  1  0
 12 13  1  0
 13 14  1  6
 13 15  1  0
 15 16  1  0
 16 17  1  0
 17 18  2  0
 18 19  1  0
 19 20  1  0
 20 21  1  0
 21 22  1  0
 22 23  1  0
 22 24  1  0
 24 25  1  0
 24 26  1  0
 19 27  1  0
 27 28  1  1
 27 29  1  0
 29 30  1  0
 30 31  1  0
 31 32  1  1
  7  5  1  0
 31 10  1  0
 31 13  1  0
 27 15  1  0
 24 18  1  0
  1 33  1  0
  1 34  1  0
  1 35  1  0
  2 36  1  1
  3 37  1  0
  3 38  1  0
  4 39  1  0
  4 40  1  0
  5 41  1  1
  8 42  1  0
  8 43  1  0
  8 44  1  0
  9 45  1  0
  9 46  1  0
  9 47  1  0
 10 48  1  6
 11 49  1  0
 11 50  1  0
 12 51  1  0
 12 52  1  0
 14 53  1  0
 14 54  1  0
 14 55  1  0
 15 56  1  1
 16 57  1  0
 16 58  1  0
 17 59  1  0
 19 60  1  6
 20 61  1  0
 20 62  1  0
 21 63  1  0
 21 64  1  0
 22 65  1  6
 23 66  1  0
 25 67  1  0
 25 68  1  0
 25 69  1  0
 26 70  1  0
 26 71  1  0
 26 72  1  0
 28 73  1  0
 28 74  1  0
 28 75  1  0
 29 76  1  0
 29 77  1  0
 30 78  1  0
 30 79  1  0
 32 80  1  0
 32 81  1  0
 32 82  1  0
M  END
>  <meeko>  (14) 
{"is_sidechain": [false], "intermolecular_energy": 2.731, "internal_energy": -0.839}

$$$$
EPH_relaxed_0001_pdb2pqr_Repair_273_r2_0001_out
     RDKit          3D

 82 86  0  0  0  0  0  0  0  0999 V2000
    2.0410   17.3600   -4.1210 C   0  0  0  0  0  0  0  0  0  0  0  0
    1.9450   17.4850   -2.5980 C   0  0  2  0  0  0  0  0  0  0  0  0
    2.9240   18.5360   -2.0380 C   0  0  0  0  0  0  0  0  0  0  0  0
    2.2330   19.7650   -1.4400 C   0  0  0  0  0  0  0  0  0  0  0  0
    2.4050   19.8290    0.0470 C   0  0  2  0  0  0  0  0  0  0  0  0
    2.1950   18.5850    0.7280 O   0  0  0  0  0  0  0  0  0  0  0  0
    1.2660   19.6380    1.0310 C   0  0  0  0  0  0  0  0  0  0  0  0
   -0.1310   19.3700    0.5650 C   0  0  0  0  0  0  0  0  0  0  0  0
    1.4130   20.1940    2.4130 C   0  0  0  0  0  0  0  0  0  0  0  0
    2.2080   16.1310   -1.9480 C   0  0  1  0  0  0  0  0  0  0  0  0
    3.0040   16.2500   -0.6210 C   0  0  0  0  0  0  0  0  0  0  0  0
    2.4740   15.1370    0.3190 C   0  0  0  0  0  0  0  0  0  0  0  0
    1.6390   14.2150   -0.5990 C   0  0  1  0  0  0  0  0  0  0  0  0
    2.6850   13.2960   -1.3040 C   0  0  0  0  0  0  0  0  0  0  0  0
    0.5140   13.3810    0.0960 C   0  0  2  0  0  0  0  0  0  0  0  0
    1.0060   12.3710    1.1470 C   0  0  0  0  0  0  0  0  0  0  0  0
    1.3080   11.0040    0.6260 C   0  0  0  0  0  0  0  0  0  0  0  0
    0.9230   10.5210   -0.5690 C   0  0  0  0  0  0  0  0  0  0  0  0
    0.0200   11.3420   -1.4970 C   0  0  1  0  0  0  0  0  0  0  0  0
   -1.1220   10.4420   -2.0380 C   0  0  0  0  0  0  0  0  0  0  0  0
   -0.6010    9.1730   -2.7050 C   0  0  0  0  0  0  0  0  0  0  0  0
    0.2450    8.3540   -1.7330 C   0  0  2  0  0  0  0  0  0  0  0  0
   -0.6010    7.8610   -0.6890 O   0  0  0  0  0  0  0  0  0  0  0  0
    1.4220    9.1600   -1.1160 C   0  0  0  0  0  0  0  0  0  0  0  0
    2.4910    9.4350   -2.2020 C   0  0  0  0  0  0  0  0  0  0  0  0
    2.1070    8.2630   -0.0500 C   0  0  0  0  0  0  0  0  0  0  0  0
   -0.5150   12.7170   -0.9060 C   0  0  1  0  0  0  0  0  0  0  0  0
   -1.8280   12.4750   -0.1000 C   0  0  0  0  0  0  0  0  0  0  0  0
   -0.8950   13.6760   -2.0960 C   0  0  0  0  0  0  0  0  0  0  0  0
    0.2320   14.5610   -2.6610 C   0  0  0  0  0  0  0  0  0  0  0  0
    0.9750   15.2890   -1.5360 C   0  0  2  0  0  0  0  0  0  0  0  0
   -0.0480   16.2380   -0.8230 C   0  0  0  0  0  0  0  0  0  0  0  0
    2.6923   16.5119   -4.3790 H   0  0  0  0  0  0  0  0  0  0  0  0
    1.0375   17.1921   -4.5391 H   0  0  0  0  0  0  0  0  0  0  0  0
    2.4621   18.2862   -4.5391 H   0  0  0  0  0  0  0  0  0  0  0  0
    0.9259   17.8221   -2.3577 H   0  0  0  0  0  0  0  0  0  0  0  0
    3.5302   18.0618   -1.2521 H   0  0  0  0  0  0  0  0  0  0  0  0
    3.5335   18.8895   -2.8827 H   0  0  0  0  0  0  0  0  0  0  0  0
    2.6666   20.6711   -1.8883 H   0  0  0  0  0  0  0  0  0  0  0  0
    1.1572   19.6933   -1.6579 H   0  0  0  0  0  0  0  0  0  0  0  0
    3.1704   20.6128   -0.0521 H   0  0  0  0  0  0  0  0  0  0  0  0
   -0.7903   19.2435    1.4364 H   0  0  0  0  0  0  0  0  0  0  0  0
   -0.4839   20.2168   -0.0419 H   0  0  0  0  0  0  0  0  0  0  0  0
   -0.1455   18.4527   -0.0419 H   0  0  0  0  0  0  0  0  0  0  0  0
    1.2043   19.4045    3.1500 H   0  0  0  0  0  0  0  0  0  0  0  0
    2.4397   20.5635    2.5523 H   0  0  0  0  0  0  0  0  0  0  0  0
    0.7031   21.0226    2.5523 H   0  0  0  0  0  0  0  0  0  0  0  0
    2.7461   15.6338   -2.7685 H   0  0  0  0  0  0  0  0  0  0  0  0
    4.0783   16.1071   -0.8094 H   0  0  0  0  0  0  0  0  0  0  0  0
    2.8729   17.2444   -0.1693 H   0  0  0  0  0  0  0  0  0  0  0  0
    3.3084   14.5814    0.7718 H   0  0  0  0  0  0  0  0  0  0  0  0
    1.8817   15.5424    1.1525 H   0  0  0  0  0  0  0  0  0  0  0  0
    3.2827   12.7709   -0.5444 H   0  0  0  0  0  0  0  0  0  0  0  0
    2.1620   12.5600   -1.9323 H   0  0  0  0  0  0  0  0  0  0  0  0
    3.3476   13.9094   -1.9323 H   0  0  0  0  0  0  0  0  0  0  0  0
   -0.0378   14.1506    0.6556 H   0  0  0  0  0  0  0  0  0  0  0  0
    1.9243   12.7725    1.6004 H   0  0  0  0  0  0  0  0  0  0  0  0
    0.1789   12.2484    1.8617 H   0  0  0  0  0  0  0  0  0  0  0  0
    1.8945   10.3361    1.2740 H   0  0  0  0  0  0  0  0  0  0  0  0
    0.6598   11.6733   -2.3282 H   0  0  0  0  0  0  0  0  0  0  0  0
   -1.7739   10.1571   -1.1990 H   0  0  0  0  0  0  0  0  0  0  0  0
   -1.6692   11.0183   -2.7986 H   0  0  0  0  0  0  0  0  0  0  0  0
   -1.4548    8.5654   -3.0394 H   0  0  0  0  0  0  0  0  0  0  0  0
    0.0265    9.4589   -3.5620 H   0  0  0  0  0  0  0  0  0  0  0  0
    0.6959    7.5279   -2.3024 H   0  0  0  0  0  0  0  0  0  0  0  0
   -0.1520    7.1010   -0.2820 H   0  0  0  0  0  0  0  0  0  0  0  0
    3.4485    9.6813   -1.7199 H   0  0  0  0  0  0  0  0  0  0  0  0
    2.6157    8.5397   -2.8288 H   0  0  0  0  0  0  0  0  0  0  0  0
    2.1682   10.2793   -2.8288 H   0  0  0  0  0  0  0  0  0  0  0  0
    1.8366    8.6171    0.9557 H   0  0  0  0  0  0  0  0  0  0  0  0
    1.7711    7.2231   -0.1752 H   0  0  0  0  0  0  0  0  0  0  0  0
    3.1987    8.3133   -0.1752 H   0  0  0  0  0  0  0  0  0  0  0  0
   -1.6096   12.5153    0.9773 H   0  0  0  0  0  0  0  0  0  0  0  0
   -2.5631   13.2528   -0.3544 H   0  0  0  0  0  0  0  0  0  0  0  0
   -2.2375   11.4863   -0.3544 H   0  0  0  0  0  0  0  0  0  0  0  0
   -1.2724   13.0516   -2.9192 H   0  0  0  0  0  0  0  0  0  0  0  0
   -1.6301   14.3785   -1.6764 H   0  0  0  0  0  0  0  0  0  0  0  0
    0.9439   13.9288   -3.2119 H   0  0  0  0  0  0  0  0  0  0  0  0
   -0.2140   15.3120   -3.3296 H   0  0  0  0  0  0  0  0  0  0  0  0
    0.0586   16.1391    0.2674 H   0  0  0  0  0  0  0  0  0  0  0  0
    0.1505   17.2790   -1.1179 H   0  0  0  0  0  0  0  0  0  0  0  0
   -1.0712   15.9621   -1.1179 H   0  0  0  0  0  0  0  0  0  0  0  0
  1  2  1  0
  2  3  1  0
  3  4  1  0
  4  5  1  0
  5  6  1  0
  6  7  1  0
  7  8  1  0
  7  9  1  0
  2 10  1  0
 10 11  1  0
 11 12  1  0
 12 13  1  0
 13 14  1  6
 13 15  1  0
 15 16  1  0
 16 17  1  0
 17 18  2  0
 18 19  1  0
 19 20  1  0
 20 21  1  0
 21 22  1  0
 22 23  1  0
 22 24  1  0
 24 25  1  0
 24 26  1  0
 19 27  1  0
 27 28  1  1
 27 29  1  0
 29 30  1  0
 30 31  1  0
 31 32  1  1
  7  5  1  0
 31 10  1  0
 31 13  1  0
 27 15  1  0
 24 18  1  0
  1 33  1  0
  1 34  1  0
  1 35  1  0
  2 36  1  6
  3 37  1  0
  3 38  1  0
  4 39  1  0
  4 40  1  0
  5 41  1  6
  8 42  1  0
  8 43  1  0
  8 44  1  0
  9 45  1  0
  9 46  1  0
  9 47  1  0
 10 48  1  6
 11 49  1  0
 11 50  1  0
 12 51  1  0
 12 52  1  0
 14 53  1  0
 14 54  1  0
 14 55  1  0
 15 56  1  1
 16 57  1  0
 16 58  1  0
 17 59  1  0
 19 60  1  6
 20 61  1  0
 20 62  1  0
 21 63  1  0
 21 64  1  0
 22 65  1  6
 23 66  1  0
 25 67  1  0
 25 68  1  0
 25 69  1  0
 26 70  1  0
 26 71  1  0
 26 72  1  0
 28 73  1  0
 28 74  1  0
 28 75  1  0
 29 76  1  0
 29 77  1  0
 30 78  1  0
 30 79  1  0
 32 80  1  0
 32 81  1  0
 32 82  1  0
M  END
>  <meeko>  (15) 
{"is_sidechain": [false], "intermolecular_energy": 2.731, "internal_energy": -0.839}

$$$$
EPH_relaxed_0001_pdb2pqr_Repair_273_r2_0001_out
     RDKit          3D

 82 86  0  0  0  0  0  0  0  0999 V2000
    0.9780   14.8840   -2.6630 C   0  0  0  0  0  0  0  0  0  0  0  0
    1.2130   14.2080   -4.0170 C   0  0  2  0  0  0  0  0  0  0  0  0
    0.4870   14.9380   -5.1640 C   0  0  0  0  0  0  0  0  0  0  0  0
    1.0390   14.6040   -6.5530 C   0  0  0  0  0  0  0  0  0  0  0  0
    0.8260   15.7300   -7.5200 C   0  0  2  0  0  0  0  0  0  0  0  0
    0.3730   15.3250   -8.8180 O   0  0  0  0  0  0  0  0  0  0  0  0
    1.6720   15.9370   -8.7620 C   0  0  0  0  0  0  0  0  0  0  0  0
    2.7960   15.0100   -9.1040 C   0  0  0  0  0  0  0  0  0  0  0  0
    1.7220   17.3020   -9.3730 C   0  0  0  0  0  0  0  0  0  0  0  0
    0.7600   12.7530   -3.9570 C   0  0  1  0  0  0  0  0  0  0  0  0
    1.8910   11.7600   -4.3340 C   0  0  0  0  0  0  0  0  0  0  0  0
    1.6910   10.4990   -3.4550 C   0  0  0  0  0  0  0  0  0  0  0  0
    0.2770   10.6660   -2.8500 C   0  0  1  0  0  0  0  0  0  0  0  0
   -0.6990   10.1930   -3.9730 C   0  0  0  0  0  0  0  0  0  0  0  0
    0.0100    9.9210   -1.5020 C   0  0  2  0  0  0  0  0  0  0  0  0
    0.1130    8.3870   -1.5730 C   0  0  0  0  0  0  0  0  0  0  0  0
   -1.1600    7.6770   -1.8930 C   0  0  0  0  0  0  0  0  0  0  0  0
   -2.3920    8.2150   -1.8360 C   0  0  0  0  0  0  0  0  0  0  0  0
   -2.6030    9.6450   -1.3210 C   0  0  1  0  0  0  0  0  0  0  0  0
   -3.7840    9.6640   -0.3140 C   0  0  0  0  0  0  0  0  0  0  0  0
   -5.0580    9.0580   -0.8950 C   0  0  0  0  0  0  0  0  0  0  0  0
   -4.8230    7.6180   -1.3420 C   0  0  2  0  0  0  0  0  0  0  0  0
   -4.5660    6.8130   -0.1870 O   0  0  0  0  0  0  0  0  0  0  0  0
   -3.6490    7.4730   -2.3520 C   0  0  0  0  0  0  0  0  0  0  0  0
   -4.0550    8.0910   -3.7130 C   0  0  0  0  0  0  0  0  0  0  0  0
   -3.4270    5.9580   -2.6110 C   0  0  0  0  0  0  0  0  0  0  0  0
   -1.3100   10.3780   -0.7590 C   0  0  1  0  0  0  0  0  0  0  0  0
   -1.1150   10.0310    0.7490 C   0  0  0  0  0  0  0  0  0  0  0  0
   -1.5290   11.9350   -0.8320 C   0  0  0  0  0  0  0  0  0  0  0  0
   -1.1350   12.6310   -2.1480 C   0  0  0  0  0  0  0  0  0  0  0  0
    0.2730   12.2160   -2.5880 C   0  0  2  0  0  0  0  0  0  0  0  0
    1.2790   12.6980   -1.4880 C   0  0  0  0  0  0  0  0  0  0  0  0
    1.2228   14.1798   -1.8542 H   0  0  0  0  0  0  0  0  0  0  0  0
    1.6195   15.7738   -2.5811 H   0  0  0  0  0  0  0  0  0  0  0  0
   -0.0771   15.1840   -2.5811 H   0  0  0  0  0  0  0  0  0  0  0  0
    2.2918   14.2537   -4.2269 H   0  0  0  0  0  0  0  0  0  0  0  0
   -0.5763   14.6576   -5.1362 H   0  0  0  0  0  0  0  0  0  0  0  0
    0.6409   16.0159   -5.0075 H   0  0  0  0  0  0  0  0  0  0  0  0
    2.1176   14.4050   -6.4695 H   0  0  0  0  0  0  0  0  0  0  0  0
    0.5033   13.7210   -6.9316 H   0  0  0  0  0  0  0  0  0  0  0  0
    0.5360   16.4082   -6.7039 H   0  0  0  0  0  0  0  0  0  0  0  0
    3.2542   14.6321   -8.1781 H   0  0  0  0  0  0  0  0  0  0  0  0
    2.4085   14.1654   -9.6926 H   0  0  0  0  0  0  0  0  0  0  0  0
    3.5514   15.5512   -9.6926 H   0  0  0  0  0  0  0  0  0  0  0  0
    1.7498   18.0597   -8.5760 H   0  0  0  0  0  0  0  0  0  0  0  0
    2.6240   17.3920   -9.9961 H   0  0  0  0  0  0  0  0  0  0  0  0
    0.8290   17.4578   -9.9961 H   0  0  0  0  0  0  0  0  0  0  0  0
   -0.0796   12.7915   -4.6666 H   0  0  0  0  0  0  0  0  0  0  0  0
    1.8220   11.4940   -5.3991 H   0  0  0  0  0  0  0  0  0  0  0  0
    2.8816   12.2068   -4.1637 H   0  0  0  0  0  0  0  0  0  0  0  0
    1.7465    9.5864   -4.0666 H   0  0  0  0  0  0  0  0  0  0  0  0
    2.4671   10.4020   -2.6815 H   0  0  0  0  0  0  0  0  0  0  0  0
   -1.5995    9.7566   -3.5163 H   0  0  0  0  0  0  0  0  0  0  0  0
   -0.9843   11.0528   -4.5970 H   0  0  0  0  0  0  0  0  0  0  0  0
   -0.2009    9.4363   -4.5970 H   0  0  0  0  0  0  0  0  0  0  0  0
    0.8558   10.2488   -0.8798 H   0  0  0  0  0  0  0  0  0  0  0  0
    0.8492    8.1313   -2.3492 H   0  0  0  0  0  0  0  0  0  0  0  0
    0.4020    8.0543   -0.5651 H   0  0  0  0  0  0  0  0  0  0  0  0
   -1.0847    6.6239   -2.2018 H   0  0  0  0  0  0  0  0  0  0  0  0
   -2.8549   10.2516   -2.2034 H   0  0  0  0  0  0  0  0  0  0  0  0
   -3.4955    9.0896    0.5787 H   0  0  0  0  0  0  0  0  0  0  0  0
   -3.9962   10.7149   -0.0680 H   0  0  0  0  0  0  0  0  0  0  0  0
   -5.8459    9.0726   -0.1276 H   0  0  0  0  0  0  0  0  0  0  0  0
   -5.3617    9.6518   -1.7698 H   0  0  0  0  0  0  0  0  0  0  0  0
   -5.7304    7.2832   -1.8660 H   0  0  0  0  0  0  0  0  0  0  0  0
   -4.2460    7.4020    0.5170 H   0  0  0  0  0  0  0  0  0  0  0  0
   -4.6515    8.9989   -3.5401 H   0  0  0  0  0  0  0  0  0  0  0  0
   -3.1503    8.3496   -4.2827 H   0  0  0  0  0  0  0  0  0  0  0  0
   -4.6516    7.3633   -4.2827 H   0  0  0  0  0  0  0  0  0  0  0  0
   -3.3495    5.4292   -1.6496 H   0  0  0  0  0  0  0  0  0  0  0  0
   -4.2758    5.5556   -3.1834 H   0  0  0  0  0  0  0  0  0  0  0  0
   -2.4985    5.8161   -3.1834 H   0  0  0  0  0  0  0  0  0  0  0  0
   -1.5604   10.8236    1.3682 H   0  0  0  0  0  0  0  0  0  0  0  0
   -1.6065    9.0723    0.9712 H   0  0  0  0  0  0  0  0  0  0  0  0
   -0.0405    9.9523    0.9712 H   0  0  0  0  0  0  0  0  0  0  0  0
   -2.5980   12.1290   -0.6601 H   0  0  0  0  0  0  0  0  0  0  0  0
   -0.8556   12.3562   -0.0710 H   0  0  0  0  0  0  0  0  0  0  0  0
   -1.8540   12.3515   -2.9321 H   0  0  0  0  0  0  0  0  0  0  0  0
   -1.1454   13.7190   -1.9860 H   0  0  0  0  0  0  0  0  0  0  0  0
    0.8578   12.4962   -0.4921 H   0  0  0  0  0  0  0  0  0  0  0  0
    2.2309   12.1582   -1.5998 H   0  0  0  0  0  0  0  0  0  0  0  0
    1.4547   13.7781   -1.5998 H   0  0  0  0  0  0  0  0  0  0  0  0
  1  2  1  0
  2  3  1  0
  3  4  1  0
  4  5  1  0
  5  6  1  0
  6  7  1  0
  7  8  1  0
  7  9  1  0
  2 10  1  0
 10 11  1  0
 11 12  1  0
 12 13  1  0
 13 14  1  6
 13 15  1  0
 15 16  1  0
 16 17  1  0
 17 18  2  0
 18 19  1  0
 19 20  1  0
 20 21  1  0
 21 22  1  0
 22 23  1  0
 22 24  1  0
 24 25  1  0
 24 26  1  0
 19 27  1  0
 27 28  1  1
 27 29  1  0
 29 30  1  0
 30 31  1  0
 31 32  1  1
  7  5  1  0
 31 10  1  0
 31 13  1  0
 27 15  1  0
 24 18  1  0
  1 33  1  0
  1 34  1  0
  1 35  1  0
  2 36  1  6
  3 37  1  0
  3 38  1  0
  4 39  1  0
  4 40  1  0
  5 41  1  1
  8 42  1  0
  8 43  1  0
  8 44  1  0
  9 45  1  0
  9 46  1  0
  9 47  1  0
 10 48  1  6
 11 49  1  0
 11 50  1  0
 12 51  1  0
 12 52  1  0
 14 53  1  0
 14 54  1  0
 14 55  1  0
 15 56  1  1
 16 57  1  0
 16 58  1  0
 17 59  1  0
 19 60  1  6
 20 61  1  0
 20 62  1  0
 21 63  1  0
 21 64  1  0
 22 65  1  6
 23 66  1  0
 25 67  1  0
 25 68  1  0
 25 69  1  0
 26 70  1  0
 26 71  1  0
 26 72  1  0
 28 73  1  0
 28 74  1  0
 28 75  1  0
 29 76  1  0
 29 77  1  0
 30 78  1  0
 30 79  1  0
 32 80  1  0
 32 81  1  0
 32 82  1  0
M  END
>  <meeko>  (16) 
{"is_sidechain": [false], "intermolecular_energy": 2.731, "internal_energy": -0.839}

$$$$
EPH_relaxed_0001_pdb2pqr_Repair_273_r2_0001_out
     RDKit          3D

 82 86  0  0  0  0  0  0  0  0999 V2000
   -2.5500   10.0480   -0.5840 C   0  0  0  0  0  0  0  0  0  0  0  0
   -1.2790   10.4070   -1.3590 C   0  0  2  0  0  0  0  0  0  0  0  0
   -0.2720    9.2400   -1.3960 C   0  0  0  0  0  0  0  0  0  0  0  0
    1.1890    9.6840   -1.2840 C   0  0  0  0  0  0  0  0  0  0  0  0
    1.8280    9.8330   -2.6310 C   0  0  2  0  0  0  0  0  0  0  0  0
    3.0830    9.1560   -2.7770 O   0  0  0  0  0  0  0  0  0  0  0  0
    3.1230   10.5890   -2.8640 C   0  0  0  0  0  0  0  0  0  0  0  0
    3.8560   11.2470   -1.7380 C   0  0  0  0  0  0  0  0  0  0  0  0
    3.4150   11.1020   -4.2400 C   0  0  0  0  0  0  0  0  0  0  0  0
   -0.6260   11.6400   -0.7440 C   0  0  1  0  0  0  0  0  0  0  0  0
    0.5610   11.2830    0.1900 C   0  0  0  0  0  0  0  0  0  0  0  0
    1.6120   12.4120    0.0300 C   0  0  0  0  0  0  0  0  0  0  0  0
    0.8640   13.5360   -0.7250 C   0  0  1  0  0  0  0  0  0  0  0  0
    0.0450   14.2820    0.3740 C   0  0  0  0  0  0  0  0  0  0  0  0
    1.7520   14.5220   -1.5520 C   0  0  2  0  0  0  0  0  0  0  0  0
    2.7540   15.3470   -0.7260 C   0  0  0  0  0  0  0  0  0  0  0  0
    2.2450   16.6620   -0.2350 C   0  0  0  0  0  0  0  0  0  0  0  0
    1.1400   17.2890   -0.6790 C   0  0  0  0  0  0  0  0  0  0  0  0
    0.3280   16.7180   -1.8490 C   0  0  1  0  0  0  0  0  0  0  0  0
   -0.0010   17.8540   -2.8530 C   0  0  0  0  0  0  0  0  0  0  0  0
   -0.6910   19.0420   -2.1880 C   0  0  0  0  0  0  0  0  0  0  0  0
    0.1730   19.6170   -1.0690 C   0  0  2  0  0  0  0  0  0  0  0  0
    1.3500   20.1930   -1.6440 O   0  0  0  0  0  0  0  0  0  0  0  0
    0.5760   18.5620   -0.0010 C   0  0  0  0  0  0  0  0  0  0  0  0
   -0.6690   18.1600    0.8280 C   0  0  0  0  0  0  0  0  0  0  0  0
    1.5590   19.2380    0.9910 C   0  0  0  0  0  0  0  0  0  0  0  0
    0.9410   15.4350   -2.5590 C   0  0  1  0  0  0  0  0  0  0  0  0
    1.9440   15.8710   -3.6710 C   0  0  0  0  0  0  0  0  0  0  0  0
   -0.2130   14.6480   -3.2850 C   0  0  0  0  0  0  0  0  0  0  0  0
   -0.9740   13.6030   -2.4470 C   0  0  0  0  0  0  0  0  0  0  0  0
   -0.0020   12.6740   -1.7140 C   0  0  2  0  0  0  0  0  0  0  0  0
    0.8210   11.8930   -2.7960 C   0  0  0  0  0  0  0  0  0  0  0  0
   -2.3492   10.1047    0.4960 H   0  0  0  0  0  0  0  0  0  0  0  0
   -3.3510   10.7550   -0.8457 H   0  0  0  0  0  0  0  0  0  0  0  0
   -2.8628    9.0264   -0.8457 H   0  0  0  0  0  0  0  0  0  0  0  0
   -1.5737   10.6211   -2.3969 H   0  0  0  0  0  0  0  0  0  0  0  0
   -0.4943    8.5627   -0.5582 H   0  0  0  0  0  0  0  0  0  0  0  0
   -0.3847    8.7490   -2.3739 H   0  0  0  0  0  0  0  0  0  0  0  0
    1.2285   10.6513   -0.7618 H   0  0  0  0  0  0  0  0  0  0  0  0
    1.7401    8.9122   -0.7267 H   0  0  0  0  0  0  0  0  0  0  0  0
    0.8431    9.8886   -3.1177 H   0  0  0  0  0  0  0  0  0  0  0  0
    3.4548   10.8868   -0.7792 H   0  0  0  0  0  0  0  0  0  0  0  0
    4.9261   11.0006   -1.8034 H   0  0  0  0  0  0  0  0  0  0  0  0
    3.7261   12.3373   -1.8034 H   0  0  0  0  0  0  0  0  0  0  0  0
    3.9580   12.0559   -4.1681 H   0  0  0  0  0  0  0  0  0  0  0  0
    4.0313   10.3692   -4.7814 H   0  0  0  0  0  0  0  0  0  0  0  0
    2.4702   11.2578   -4.7814 H   0  0  0  0  0  0  0  0  0  0  0  0
   -1.4993   12.0784   -0.2388 H   0  0  0  0  0  0  0  0  0  0  0  0
    0.2186   11.2295    1.2340 H   0  0  0  0  0  0  0  0  0  0  0  0
    0.9896   10.3046   -0.0726 H   0  0  0  0  0  0  0  0  0  0  0  0
    1.9547   12.7660    1.0135 H   0  0  0  0  0  0  0  0  0  0  0  0
    2.5098   12.0735   -0.5080 H   0  0  0  0  0  0  0  0  0  0  0  0
    0.3925   13.9654    1.3685 H   0  0  0  0  0  0  0  0  0  0  0  0
    0.1874   15.3672    0.2641 H   0  0  0  0  0  0  0  0  0  0  0  0
   -1.0222   14.0392    0.2641 H   0  0  0  0  0  0  0  0  0  0  0  0
    2.3605   13.8377   -2.1614 H   0  0  0  0  0  0  0  0  0  0  0  0
    3.0480   14.7482    0.1486 H   0  0  0  0  0  0  0  0  0  0  0  0
    3.5898   15.5775   -1.4029 H   0  0  0  0  0  0  0  0  0  0  0  0
    2.8225   17.1609    0.5572 H   0  0  0  0  0  0  0  0  0  0  0  0
   -0.6013   16.3251   -1.4108 H   0  0  0  0  0  0  0  0  0  0  0  0
    0.9366   18.2021   -3.3111 H   0  0  0  0  0  0  0  0  0  0  0  0
   -0.6919   17.4450   -3.6049 H   0  0  0  0  0  0  0  0  0  0  0  0
   -0.8703   19.8227   -2.9420 H   0  0  0  0  0  0  0  0  0  0  0  0
   -1.6428   18.6991   -1.7563 H   0  0  0  0  0  0  0  0  0  0  0  0
   -0.4273   20.3771   -0.5476 H   0  0  0  0  0  0  0  0  0  0  0  0
    1.9080   19.4630   -1.9640 H   0  0  0  0  0  0  0  0  0  0  0  0
   -0.4355   18.2354    1.9003 H   0  0  0  0  0  0  0  0  0  0  0  0
   -1.5038   18.8342    0.5862 H   0  0  0  0  0  0  0  0  0  0  0  0
   -0.9519   17.1249    0.5862 H   0  0  0  0  0  0  0  0  0  0  0  0
    1.2450   19.0220    2.0229 H   0  0  0  0  0  0  0  0  0  0  0  0
    2.5734   18.8456    0.8267 H   0  0  0  0  0  0  0  0  0  0  0  0
    1.5556   20.3257    0.8267 H   0  0  0  0  0  0  0  0  0  0  0  0
    2.8579   16.2683   -3.2052 H   0  0  0  0  0  0  0  0  0  0  0  0
    2.1988   15.0024   -4.2960 H   0  0  0  0  0  0  0  0  0  0  0  0
    1.4827   16.6498   -4.2960 H   0  0  0  0  0  0  0  0  0  0  0  0
   -0.9461   15.3863   -3.6421 H   0  0  0  0  0  0  0  0  0  0  0  0
    0.2857   14.0729   -4.0791 H   0  0  0  0  0  0  0  0  0  0  0  0
   -1.6017   14.1224   -1.7079 H   0  0  0  0  0  0  0  0  0  0  0  0
   -1.5957   12.9972   -3.1227 H   0  0  0  0  0  0  0  0  0  0  0  0
    1.5326   11.2177   -2.2985 H   0  0  0  0  0  0  0  0  0  0  0  0
    0.1356   11.3052   -3.4243 H   0  0  0  0  0  0  0  0  0  0  0  0
    1.3721   12.6082   -3.4243 H   0  0  0  0  0  0  0  0  0  0  0  0
  1  2  1  0
  2  3  1  0
  3  4  1  0
  4  5  1  0
  5  6  1  0
  6  7  1  0
  7  8  1  0
  7  9  1  0
  2 10  1  0
 10 11  1  0
 11 12  1  0
 12 13  1  0
 13 14  1  1
 13 15  1  0
 15 16  1  0
 16 17  1  0
 17 18  2  0
 18 19  1  0
 19 20  1  0
 20 21  1  0
 21 22  1  0
 22 23  1  0
 22 24  1  0
 24 25  1  0
 24 26  1  0
 19 27  1  0
 27 28  1  6
 27 29  1  0
 29 30  1  0
 30 31  1  0
 31 32  1  6
  7  5  1  0
 31 10  1  0
 31 13  1  0
 27 15  1  0
 24 18  1  0
  1 33  1  0
  1 34  1  0
  1 35  1  0
  2 36  1  6
  3 37  1  0
  3 38  1  0
  4 39  1  0
  4 40  1  0
  5 41  1  6
  8 42  1  0
  8 43  1  0
  8 44  1  0
  9 45  1  0
  9 46  1  0
  9 47  1  0
 10 48  1  1
 11 49  1  0
 11 50  1  0
 12 51  1  0
 12 52  1  0
 14 53  1  0
 14 54  1  0
 14 55  1  0
 15 56  1  6
 16 57  1  0
 16 58  1  0
 17 59  1  0
 19 60  1  1
 20 61  1  0
 20 62  1  0
 21 63  1  0
 21 64  1  0
 22 65  1  1
 23 66  1  0
 25 67  1  0
 25 68  1  0
 25 69  1  0
 26 70  1  0
 26 71  1  0
 26 72  1  0
 28 73  1  0
 28 74  1  0
 28 75  1  0
 29 76  1  0
 29 77  1  0
 30 78  1  0
 30 79  1  0
 32 80  1  0
 32 81  1  0
 32 82  1  0
M  END
>  <meeko>  (17) 
{"is_sidechain": [false], "intermolecular_energy": 2.731, "internal_energy": -0.839}

$$$$
