EPH_relaxed_0001_pdb2pqr_Repair_398_r2_0001_out
     RDKit          3D

 82 86  0  0  0  0  0  0  0  0999 V2000
   -1.4490    8.4840   -1.8140 C   0  0  0  0  0  0  0  0  0  0  0  0
   -1.9090    9.0860   -0.4830 C   0  0  2  0  0  0  0  0  0  0  0  0
   -3.4020    9.4700   -0.5050 C   0  0  0  0  0  0  0  0  0  0  0  0
   -4.3460    8.2660   -0.5540 C   0  0  0  0  0  0  0  0  0  0  0  0
   -4.5420    7.7720   -1.9550 C   0  0  2  0  0  0  0  0  0  0  0  0
   -5.8930    7.8400   -2.4300 O   0  0  0  0  0  0  0  0  0  0  0  0
   -5.3340    6.5230   -2.2990 C   0  0  0  0  0  0  0  0  0  0  0  0
   -5.9790    5.6910   -1.2360 C   0  0  0  0  0  0  0  0  0  0  0  0
   -5.0700    5.8470   -3.6080 C   0  0  0  0  0  0  0  0  0  0  0  0
   -1.0620   10.3070   -0.1450 C   0  0  1  0  0  0  0  0  0  0  0  0
    0.0090   10.0100    0.9390 C   0  0  0  0  0  0  0  0  0  0  0  0
    1.2530   10.8650    0.5850 C   0  0  0  0  0  0  0  0  0  0  0  0
    0.7480   11.8640   -0.4830 C   0  0  1  0  0  0  0  0  0  0  0  0
    0.0440   12.9970    0.3290 C   0  0  0  0  0  0  0  0  0  0  0  0
    1.8280   12.4380   -1.4570 C   0  0  2  0  0  0  0  0  0  0  0  0
    2.9370   13.2680   -0.7870 C   0  0  0  0  0  0  0  0  0  0  0  0
    2.6610   14.7320   -0.6790 C   0  0  0  0  0  0  0  0  0  0  0  0
    1.7040   15.3990   -1.3510 C   0  0  0  0  0  0  0  0  0  0  0  0
    0.8400   14.6910   -2.4020 C   0  0  1  0  0  0  0  0  0  0  0  0
    0.7580   15.5660   -3.6800 C   0  0  0  0  0  0  0  0  0  0  0  0
    0.2750   16.9840   -3.3870 C   0  0  0  0  0  0  0  0  0  0  0  0
    1.1930   17.6750   -2.3820 C   0  0  2  0  0  0  0  0  0  0  0  0
    2.4740   17.8760   -2.9890 O   0  0  0  0  0  0  0  0  0  0  0  0
    1.3610   16.8800   -1.0570 C   0  0  0  0  0  0  0  0  0  0  0  0
    0.0380   16.9220   -0.2540 C   0  0  0  0  0  0  0  0  0  0  0  0
    2.4190   17.6150   -0.1910 C   0  0  0  0  0  0  0  0  0  0  0  0
    1.2310   13.1830   -2.7190 C   0  0  1  0  0  0  0  0  0  0  0  0
    2.3320   13.1400   -3.8230 C   0  0  0  0  0  0  0  0  0  0  0  0
   -0.0230   12.4410   -3.3140 C   0  0  0  0  0  0  0  0  0  0  0  0
   -0.9900   11.7920   -2.3050 C   0  0  0  0  0  0  0  0  0  0  0  0
   -0.2280   10.9340   -1.2910 C   0  0  2  0  0  0  0  0  0  0  0  0
    0.4720    9.7730   -2.0760 C   0  0  0  0  0  0  0  0  0  0  0  0
   -0.7916    7.6237   -1.6196 H   0  0  0  0  0  0  0  0  0  0  0  0
   -2.3261    8.1526   -2.3892 H   0  0  0  0  0  0  0  0  0  0  0  0
   -0.8988    9.2433   -2.3892 H   0  0  0  0  0  0  0  0  0  0  0  0
   -1.7775    8.3163    0.2918 H   0  0  0  0  0  0  0  0  0  0  0  0
   -3.6250   10.0495    0.4030 H   0  0  0  0  0  0  0  0  0  0  0  0
   -3.5716   10.0493   -1.4246 H   0  0  0  0  0  0  0  0  0  0  0  0
   -3.9202    7.4542    0.0539 H   0  0  0  0  0  0  0  0  0  0  0  0
   -5.3241    8.5810   -0.1615 H   0  0  0  0  0  0  0  0  0  0  0  0
   -3.5343    8.1087   -2.2401 H   0  0  0  0  0  0  0  0  0  0  0  0
   -5.6856    6.0695   -0.2457 H   0  0  0  0  0  0  0  0  0  0  0  0
   -7.0726    5.7462   -1.3404 H   0  0  0  0  0  0  0  0  0  0  0  0
   -5.6530    4.6456   -1.3404 H   0  0  0  0  0  0  0  0  0  0  0  0
   -4.6754    4.8365   -3.4258 H   0  0  0  0  0  0  0  0  0  0  0  0
   -6.0069    5.7771   -4.1801 H   0  0  0  0  0  0  0  0  0  0  0  0
   -4.3337    6.4306   -4.1801 H   0  0  0  0  0  0  0  0  0  0  0  0
   -1.8562   11.0017    0.1658 H   0  0  0  0  0  0  0  0  0  0  0  0
   -0.3711   10.2878    1.9332 H   0  0  0  0  0  0  0  0  0  0  0  0
    0.2597    8.9392    0.9635 H   0  0  0  0  0  0  0  0  0  0  0  0
    1.6226   11.3992    1.4727 H   0  0  0  0  0  0  0  0  0  0  0  0
    2.0907   10.2523    0.2205 H   0  0  0  0  0  0  0  0  0  0  0  0
    0.1633   12.8050    1.4055 H   0  0  0  0  0  0  0  0  0  0  0  0
    0.4993   13.9661    0.0767 H   0  0  0  0  0  0  0  0  0  0  0  0
   -1.0265   13.0180    0.0767 H   0  0  0  0  0  0  0  0  0  0  0  0
    2.3203   11.5265   -1.8268 H   0  0  0  0  0  0  0  0  0  0  0  0
    3.0890   12.8749    0.2290 H   0  0  0  0  0  0  0  0  0  0  0  0
    3.8218   13.1719   -1.4334 H   0  0  0  0  0  0  0  0  0  0  0  0
    3.2931   15.3143    0.0076 H   0  0  0  0  0  0  0  0  0  0  0  0
   -0.1599   14.5889   -1.9550 H   0  0  0  0  0  0  0  0  0  0  0  0
    1.7580   15.6208   -4.1349 H   0  0  0  0  0  0  0  0  0  0  0  0
    0.0300   15.0984   -4.3593 H   0  0  0  0  0  0  0  0  0  0  0  0
    0.2656   17.5619   -4.3229 H   0  0  0  0  0  0  0  0  0  0  0  0
   -0.7369   16.9294   -2.9592 H   0  0  0  0  0  0  0  0  0  0  0  0
    0.7256   18.6341   -2.1144 H   0  0  0  0  0  0  0  0  0  0  0  0
    2.5600   18.8230   -3.1870 H   0  0  0  0  0  0  0  0  0  0  0  0
    0.2623   16.9149    0.8229 H   0  0  0  0  0  0  0  0  0  0  0  0
   -0.5157   17.8382   -0.5072 H   0  0  0  0  0  0  0  0  0  0  0  0
   -0.5727   16.0428   -0.5072 H   0  0  0  0  0  0  0  0  0  0  0  0
    2.1937   17.4585    0.8743 H   0  0  0  0  0  0  0  0  0  0  0  0
    3.4189   17.2161   -0.4168 H   0  0  0  0  0  0  0  0  0  0  0  0
    2.3941   18.6913   -0.4168 H   0  0  0  0  0  0  0  0  0  0  0  0
    3.3243   13.1012   -3.3499 H   0  0  0  0  0  0  0  0  0  0  0  0
    2.1890   12.2468   -4.4488 H   0  0  0  0  0  0  0  0  0  0  0  0
    2.2591   14.0417   -4.4488 H   0  0  0  0  0  0  0  0  0  0  0  0
   -0.5964   13.1743   -3.9000 H   0  0  0  0  0  0  0  0  0  0  0  0
    0.3880   11.6042   -3.8978 H   0  0  0  0  0  0  0  0  0  0  0  0
   -1.5357   12.5829   -1.7695 H   0  0  0  0  0  0  0  0  0  0  0  0
   -1.6904   11.1465   -2.8552 H   0  0  0  0  0  0  0  0  0  0  0  0
    0.9042    9.0562   -1.3622 H   0  0  0  0  0  0  0  0  0  0  0  0
   -0.2675    9.2600   -2.7085 H   0  0  0  0  0  0  0  0  0  0  0  0
    1.2708   10.1875   -2.7085 H   0  0  0  0  0  0  0  0  0  0  0  0
  1  2  1  0
  2  3  1  0
  3  4  1  0
  4  5  1  0
  5  6  1  0
  6  7  1  0
  7  8  1  0
  7  9  1  0
  2 10  1  0
 10 11  1  0
 11 12  1  0
 12 13  1  0
 13 14  1  1
 13 15  1  0
 15 16  1  0
 16 17  1  0
 17 18  2  0
 18 19  1  0
 19 20  1  0
 20 21  1  0
 21 22  1  0
 22 23  1  0
 22 24  1  0
 24 25  1  0
 24 26  1  0
 19 27  1  0
 27 28  1  6
 27 29  1  0
 29 30  1  0
 30 31  1  0
 31 32  1  6
  7  5  1  0
 31 10  1  0
 31 13  1  0
 27 15  1  0
 24 18  1  0
  1 33  1  0
  1 34  1  0
  1 35  1  0
  2 36  1  1
  3 37  1  0
  3 38  1  0
  4 39  1  0
  4 40  1  0
  5 41  1  6
  8 42  1  0
  8 43  1  0
  8 44  1  0
  9 45  1  0
  9 46  1  0
  9 47  1  0
 10 48  1  1
 11 49  1  0
 11 50  1  0
 12 51  1  0
 12 52  1  0
 14 53  1  0
 14 54  1  0
 14 55  1  0
 15 56  1  6
 16 57  1  0
 16 58  1  0
 17 59  1  0
 19 60  1  1
 20 61  1  0
 20 62  1  0
 21 63  1  0
 21 64  1  0
 22 65  1  1
 23 66  1  0
 25 67  1  0
 25 68  1  0
 25 69  1  0
 26 70  1  0
 26 71  1  0
 26 72  1  0
 28 73  1  0
 28 74  1  0
 28 75  1  0
 29 76  1  0
 29 77  1  0
 30 78  1  0
 30 79  1  0
 32 80  1  0
 32 81  1  0
 32 82  1  0
M  END
>  <meeko>  (1) 
{"is_sidechain": [false], "intermolecular_energy": 2.731, "internal_energy": -0.839}

$$$$
EPH_relaxed_0001_pdb2pqr_Repair_398_r2_0001_out
     RDKit          3D

 82 86  0  0  0  0  0  0  0  0999 V2000
    1.9740   19.6300   -0.6370 C   0  0  0  0  0  0  0  0  0  0  0  0
    2.3690   18.4170    0.2090 C   0  0  2  0  0  0  0  0  0  0  0  0
    3.8190   17.9670   -0.0630 C   0  0  0  0  0  0  0  0  0  0  0  0
    4.7660   18.1950    1.1180 C   0  0  0  0  0  0  0  0  0  0  0  0
    4.0910   18.9290    2.2360 C   0  0  2  0  0  0  0  0  0  0  0  0
    4.6940   20.1830    2.5800 O   0  0  0  0  0  0  0  0  0  0  0  0
    4.7320   19.1630    3.5910 C   0  0  0  0  0  0  0  0  0  0  0  0
    6.1090   18.6630    3.9000 C   0  0  0  0  0  0  0  0  0  0  0  0
    3.8450   19.4440    4.7640 C   0  0  0  0  0  0  0  0  0  0  0  0
    1.4080   17.2640   -0.0550 C   0  0  1  0  0  0  0  0  0  0  0  0
    0.1190   17.7170   -0.7910 C   0  0  0  0  0  0  0  0  0  0  0  0
   -0.2880   16.5570   -1.7360 C   0  0  0  0  0  0  0  0  0  0  0  0
    0.5740   15.3580   -1.2750 C   0  0  1  0  0  0  0  0  0  0  0  0
   -0.1750   14.7780   -0.0350 C   0  0  0  0  0  0  0  0  0  0  0  0
    0.8530   14.2560   -2.3480 C   0  0  2  0  0  0  0  0  0  0  0  0
   -0.3950   13.5270   -2.8760 C   0  0  0  0  0  0  0  0  0  0  0  0
   -0.7820   12.2980   -2.1210 C   0  0  0  0  0  0  0  0  0  0  0  0
   -0.0010   11.6400   -1.2450 C   0  0  0  0  0  0  0  0  0  0  0  0
    1.4540   12.0670   -1.0110 C   0  0  1  0  0  0  0  0  0  0  0  0
    2.3710   10.8150   -1.0330 C   0  0  0  0  0  0  0  0  0  0  0  0
    1.9140    9.7390   -0.0530 C   0  0  0  0  0  0  0  0  0  0  0  0
    0.4830    9.2990   -0.3540 C   0  0  2  0  0  0  0  0  0  0  0  0
    0.4630    8.6310   -1.6190 O   0  0  0  0  0  0  0  0  0  0  0  0
   -0.5300   10.4770   -0.3690 C   0  0  0  0  0  0  0  0  0  0  0  0
   -0.7330   11.0080    1.0720 C   0  0  0  0  0  0  0  0  0  0  0  0
   -1.9050    9.9190   -0.8230 C   0  0  0  0  0  0  0  0  0  0  0  0
    1.9930   13.2340   -1.9460 C   0  0  1  0  0  0  0  0  0  0  0  0
    2.5460   12.6380   -3.2760 C   0  0  0  0  0  0  0  0  0  0  0  0
    3.2080   13.9410   -1.2370 C   0  0  0  0  0  0  0  0  0  0  0  0
    2.8740   15.1010   -0.2800 C   0  0  0  0  0  0  0  0  0  0  0  0
    1.9190   16.1000   -0.9410 C   0  0  2  0  0  0  0  0  0  0  0  0
    2.6540   16.7160   -2.1800 C   0  0  0  0  0  0  0  0  0  0  0  0
    1.7019   20.4656    0.0247 H   0  0  0  0  0  0  0  0  0  0  0  0
    2.8221   19.9262   -1.2718 H   0  0  0  0  0  0  0  0  0  0  0  0
    1.1141   19.3700   -1.2718 H   0  0  0  0  0  0  0  0  0  0  0  0
    2.3087   18.7167    1.2657 H   0  0  0  0  0  0  0  0  0  0  0  0
    3.8107   16.8927   -0.2991 H   0  0  0  0  0  0  0  0  0  0  0  0
    4.1937   18.5773   -0.8979 H   0  0  0  0  0  0  0  0  0  0  0  0
    5.1129   17.2197    1.4901 H   0  0  0  0  0  0  0  0  0  0  0  0
    5.6105   18.8063    0.7672 H   0  0  0  0  0  0  0  0  0  0  0  0
    3.1122   18.5211    1.9433 H   0  0  0  0  0  0  0  0  0  0  0  0
    6.2450   18.6136    4.9904 H   0  0  0  0  0  0  0  0  0  0  0  0
    6.2403   17.6598    3.4683 H   0  0  0  0  0  0  0  0  0  0  0  0
    6.8534   19.3482    3.4683 H   0  0  0  0  0  0  0  0  0  0  0  0
    4.4024   19.2674    5.6958 H   0  0  0  0  0  0  0  0  0  0  0  0
    3.5117   20.4917    4.7290 H   0  0  0  0  0  0  0  0  0  0  0  0
    2.9692   18.7793    4.7290 H   0  0  0  0  0  0  0  0  0  0  0  0
    1.2547   16.9128    0.9761 H   0  0  0  0  0  0  0  0  0  0  0  0
   -0.6832   17.9127   -0.0642 H   0  0  0  0  0  0  0  0  0  0  0  0
    0.2924   18.6445   -1.3564 H   0  0  0  0  0  0  0  0  0  0  0  0
   -1.3589   16.3284   -1.6315 H   0  0  0  0  0  0  0  0  0  0  0  0
   -0.1254   16.8051   -2.7953 H   0  0  0  0  0  0  0  0  0  0  0  0
    0.3006   15.1463    0.8860 H   0  0  0  0  0  0  0  0  0  0  0  0
   -1.2267   15.0996   -0.0584 H   0  0  0  0  0  0  0  0  0  0  0  0
   -0.1269   13.6793   -0.0584 H   0  0  0  0  0  0  0  0  0  0  0  0
    1.2352   14.8440   -3.1954 H   0  0  0  0  0  0  0  0  0  0  0  0
   -1.2406   14.2296   -2.8384 H   0  0  0  0  0  0  0  0  0  0  0  0
   -0.1451   13.1932   -3.8939 H   0  0  0  0  0  0  0  0  0  0  0  0
   -1.7911   11.8967   -2.2959 H   0  0  0  0  0  0  0  0  0  0  0  0
    1.4783   12.5304   -0.0137 H   0  0  0  0  0  0  0  0  0  0  0  0
    2.3664   10.3922   -2.0485 H   0  0  0  0  0  0  0  0  0  0  0  0
    3.3798   11.1342   -0.7324 H   0  0  0  0  0  0  0  0  0  0  0  0
    2.5828    8.8696   -0.1353 H   0  0  0  0  0  0  0  0  0  0  0  0
    1.9468   10.1544    0.9650 H   0  0  0  0  0  0  0  0  0  0  0  0
    0.1677    8.6252    0.4563 H   0  0  0  0  0  0  0  0  0  0  0  0
    0.4440    7.6740   -1.4460 H   0  0  0  0  0  0  0  0  0  0  0  0
   -0.4366   10.2326    1.7937 H   0  0  0  0  0  0  0  0  0  0  0  0
   -0.1144   11.9050    1.2228 H   0  0  0  0  0  0  0  0  0  0  0  0
   -1.7922   11.2635    1.2228 H   0  0  0  0  0  0  0  0  0  0  0  0
   -2.5110    9.6731    0.0614 H   0  0  0  0  0  0  0  0  0  0  0  0
   -2.4271   10.6764   -1.4261 H   0  0  0  0  0  0  0  0  0  0  0  0
   -1.7516    9.0120   -1.4261 H   0  0  0  0  0  0  0  0  0  0  0  0
    3.2779   11.8492   -3.0479 H   0  0  0  0  0  0  0  0  0  0  0  0
    1.7168   12.2112   -3.8593 H   0  0  0  0  0  0  0  0  0  0  0  0
    3.0335   13.4330   -3.8593 H   0  0  0  0  0  0  0  0  0  0  0  0
    3.7464   13.1763   -0.6579 H   0  0  0  0  0  0  0  0  0  0  0  0
    3.7904   14.3976   -2.0508 H   0  0  0  0  0  0  0  0  0  0  0  0
    2.3996   14.6950    0.6256 H   0  0  0  0  0  0  0  0  0  0  0  0
    3.8071   15.6245   -0.0245 H   0  0  0  0  0  0  0  0  0  0  0  0
    3.4546   17.3870   -1.8352 H   0  0  0  0  0  0  0  0  0  0  0  0
    3.0886   15.9084   -2.7874 H   0  0  0  0  0  0  0  0  0  0  0  0
    1.9348   17.2851   -2.7874 H   0  0  0  0  0  0  0  0  0  0  0  0
  1  2  1  0
  2  3  1  0
  3  4  1  0
  4  5  1  0
  5  6  1  0
  6  7  1  0
  7  8  1  0
  7  9  1  0
  2 10  1  0
 10 11  1  0
 11 12  1  0
 12 13  1  0
 13 14  1  1
 13 15  1  0
 15 16  1  0
 16 17  1  0
 17 18  2  0
 18 19  1  0
 19 20  1  0
 20 21  1  0
 21 22  1  0
 22 23  1  0
 22 24  1  0
 24 25  1  0
 24 26  1  0
 19 27  1  0
 27 28  1  6
 27 29  1  0
 29 30  1  0
 30 31  1  0
 31 32  1  6
  7  5  1  0
 31 10  1  0
 31 13  1  0
 27 15  1  0
 24 18  1  0
  1 33  1  0
  1 34  1  0
  1 35  1  0
  2 36  1  1
  3 37  1  0
  3 38  1  0
  4 39  1  0
  4 40  1  0
  5 41  1  1
  8 42  1  0
  8 43  1  0
  8 44  1  0
  9 45  1  0
  9 46  1  0
  9 47  1  0
 10 48  1  1
 11 49  1  0
 11 50  1  0
 12 51  1  0
 12 52  1  0
 14 53  1  0
 14 54  1  0
 14 55  1  0
 15 56  1  6
 16 57  1  0
 16 58  1  0
 17 59  1  0
 19 60  1  1
 20 61  1  0
 20 62  1  0
 21 63  1  0
 21 64  1  0
 22 65  1  1
 23 66  1  0
 25 67  1  0
 25 68  1  0
 25 69  1  0
 26 70  1  0
 26 71  1  0
 26 72  1  0
 28 73  1  0
 28 74  1  0
 28 75  1  0
 29 76  1  0
 29 77  1  0
 30 78  1  0
 30 79  1  0
 32 80  1  0
 32 81  1  0
 32 82  1  0
M  END
>  <meeko>  (2) 
{"is_sidechain": [false], "intermolecular_energy": 2.731, "internal_energy": -0.839}

$$$$
EPH_relaxed_0001_pdb2pqr_Repair_398_r2_0001_out
     RDKit          3D

 82 86  0  0  0  0  0  0  0  0999 V2000
    2.2080   18.0320   -2.6050 C   0  0  0  0  0  0  0  0  0  0  0  0
    0.6860   17.8750   -2.6700 C   0  0  2  0  0  0  0  0  0  0  0  0
   -0.0020   18.3430   -1.3720 C   0  0  0  0  0  0  0  0  0  0  0  0
    0.7350   17.9220   -0.0980 C   0  0  0  0  0  0  0  0  0  0  0  0
    1.2520   19.1070    0.6610 C   0  0  2  0  0  0  0  0  0  0  0  0
    2.1510   19.9440   -0.0780 O   0  0  0  0  0  0  0  0  0  0  0  0
    2.7050   19.2720    1.0650 C   0  0  0  0  0  0  0  0  0  0  0  0
    3.7320   18.2380    0.7240 C   0  0  0  0  0  0  0  0  0  0  0  0
    3.0310   20.1870    2.2040 C   0  0  0  0  0  0  0  0  0  0  0  0
    0.3260   16.4210   -2.9550 C   0  0  1  0  0  0  0  0  0  0  0  0
    0.3920   16.0750   -4.4670 C   0  0  0  0  0  0  0  0  0  0  0  0
    0.8900   14.6110   -4.5690 C   0  0  0  0  0  0  0  0  0  0  0  0
    0.7770   14.0590   -3.1290 C   0  0  1  0  0  0  0  0  0  0  0  0
   -0.7260   13.6690   -2.9660 C   0  0  0  0  0  0  0  0  0  0  0  0
    1.7240   12.8680   -2.7680 C   0  0  2  0  0  0  0  0  0  0  0  0
    1.5000   11.5850   -3.5870 C   0  0  0  0  0  0  0  0  0  0  0  0
    0.5240   10.6180   -3.0030 C   0  0  0  0  0  0  0  0  0  0  0  0
    0.0690   10.6350   -1.7360 C   0  0  0  0  0  0  0  0  0  0  0  0
    0.6150   11.6430   -0.7170 C   0  0  1  0  0  0  0  0  0  0  0  0
    0.9400   10.9120    0.6120 C   0  0  0  0  0  0  0  0  0  0  0  0
   -0.2490   10.1220    1.1510 C   0  0  0  0  0  0  0  0  0  0  0  0
   -0.7260    9.0900    0.1320 C   0  0  2  0  0  0  0  0  0  0  0  0
    0.2910    8.0970   -0.0290 O   0  0  0  0  0  0  0  0  0  0  0  0
   -1.0740    9.7100   -1.2500 C   0  0  0  0  0  0  0  0  0  0  0  0
   -2.3660   10.5560   -1.1310 C   0  0  0  0  0  0  0  0  0  0  0  0
   -1.4040    8.5480   -2.2250 C   0  0  0  0  0  0  0  0  0  0  0  0
    1.8140   12.5580   -1.2190 C   0  0  1  0  0  0  0  0  0  0  0  0
    3.1720   11.8270   -0.9900 C   0  0  0  0  0  0  0  0  0  0  0  0
    1.8610   13.8680   -0.3480 C   0  0  0  0  0  0  0  0  0  0  0  0
    0.9950   15.0500   -0.8230 C   0  0  0  0  0  0  0  0  0  0  0  0
    1.2160   15.3280   -2.3120 C   0  0  2  0  0  0  0  0  0  0  0  0
    2.7140   15.7450   -2.5040 C   0  0  0  0  0  0  0  0  0  0  0  0
    2.5286   18.0651   -1.5533 H   0  0  0  0  0  0  0  0  0  0  0  0
    2.6865   17.1784   -3.1075 H   0  0  0  0  0  0  0  0  0  0  0  0
    2.5021   18.9653   -3.1075 H   0  0  0  0  0  0  0  0  0  0  0  0
    0.3214   18.5159   -3.4863 H   0  0  0  0  0  0  0  0  0  0  0  0
   -0.0659   19.4410   -1.3894 H   0  0  0  0  0  0  0  0  0  0  0  0
   -0.9923   17.8651   -1.3430 H   0  0  0  0  0  0  0  0  0  0  0  0
    0.0417   17.3610    0.5460 H   0  0  0  0  0  0  0  0  0  0  0  0
    1.5942   17.2997   -0.3887 H   0  0  0  0  0  0  0  0  0  0  0  0
    0.3147   19.1809    1.2320 H   0  0  0  0  0  0  0  0  0  0  0  0
    4.1501   17.8171    1.6503 H   0  0  0  0  0  0  0  0  0  0  0  0
    3.2631   17.4356    0.1356 H   0  0  0  0  0  0  0  0  0  0  0  0
    4.5376   18.7014    0.1356 H   0  0  0  0  0  0  0  0  0  0  0  0
    2.8460   19.6678    3.1559 H   0  0  0  0  0  0  0  0  0  0  0  0
    4.0893   20.4814    2.1465 H   0  0  0  0  0  0  0  0  0  0  0  0
    2.3972   21.0842    2.1465 H   0  0  0  0  0  0  0  0  0  0  0  0
   -0.6819   16.3912   -2.5155 H   0  0  0  0  0  0  0  0  0  0  0  0
   -0.6056   16.1683   -4.9209 H   0  0  0  0  0  0  0  0  0  0  0  0
    1.0676   16.7602   -5.0000 H   0  0  0  0  0  0  0  0  0  0  0  0
    0.2565   14.0325   -5.2574 H   0  0  0  0  0  0  0  0  0  0  0  0
    1.9156   14.5457   -4.9614 H   0  0  0  0  0  0  0  0  0  0  0  0
   -0.9742   13.6046   -1.8963 H   0  0  0  0  0  0  0  0  0  0  0  0
   -1.3570   14.4332   -3.4434 H   0  0  0  0  0  0  0  0  0  0  0  0
   -0.9058   12.6945   -3.4434 H   0  0  0  0  0  0  0  0  0  0  0  0
    2.7095   13.2488   -3.0743 H   0  0  0  0  0  0  0  0  0  0  0  0
    1.1350   11.8768   -4.5828 H   0  0  0  0  0  0  0  0  0  0  0  0
    2.4688   11.0644   -3.6080 H   0  0  0  0  0  0  0  0  0  0  0  0
    0.1446    9.8246   -3.6637 H   0  0  0  0  0  0  0  0  0  0  0  0
   -0.1897   12.3749   -0.5536 H   0  0  0  0  0  0  0  0  0  0  0  0
    1.7749   10.2174    0.4374 H   0  0  0  0  0  0  0  0  0  0  0  0
    1.1991   11.6767    1.3590 H   0  0  0  0  0  0  0  0  0  0  0  0
    0.0514    9.6043    2.0739 H   0  0  0  0  0  0  0  0  0  0  0  0
   -1.0729   10.8222    1.3533 H   0  0  0  0  0  0  0  0  0  0  0  0
   -1.6551    8.6476    0.5206 H   0  0  0  0  0  0  0  0  0  0  0  0
    0.7610    8.0170    0.8190 H   0  0  0  0  0  0  0  0  0  0  0  0
   -2.6052   10.7126   -0.0688 H   0  0  0  0  0  0  0  0  0  0  0  0
   -2.2132   11.5295   -1.6198 H   0  0  0  0  0  0  0  0  0  0  0  0
   -3.1972   10.0267   -1.6198 H   0  0  0  0  0  0  0  0  0  0  0  0
   -1.6599    7.6469   -1.6483 H   0  0  0  0  0  0  0  0  0  0  0  0
   -2.2570    8.8322   -2.8588 H   0  0  0  0  0  0  0  0  0  0  0  0
   -0.5290    8.3415   -2.8588 H   0  0  0  0  0  0  0  0  0  0  0  0
    3.3572   11.7273    0.0897 H   0  0  0  0  0  0  0  0  0  0  0  0
    3.1327   10.8281   -1.4491 H   0  0  0  0  0  0  0  0  0  0  0  0
    3.9841   12.4098   -1.4491 H   0  0  0  0  0  0  0  0  0  0  0  0
    1.5342   13.6035    0.6685 H   0  0  0  0  0  0  0  0  0  0  0  0
    2.8991   14.2246   -0.4207 H   0  0  0  0  0  0  0  0  0  0  0  0
   -0.0652   14.8094   -0.6554 H   0  0  0  0  0  0  0  0  0  0  0  0
    1.2815   15.9460   -0.2528 H   0  0  0  0  0  0  0  0  0  0  0  0
    3.1870   15.8767   -1.5197 H   0  0  0  0  0  0  0  0  0  0  0  0
    3.2442   14.9603   -3.0636 H   0  0  0  0  0  0  0  0  0  0  0  0
    2.7625   16.6908   -3.0636 H   0  0  0  0  0  0  0  0  0  0  0  0
  1  2  1  0
  2  3  1  0
  3  4  1  0
  4  5  1  0
  5  6  1  0
  6  7  1  0
  7  8  1  0
  7  9  1  0
  2 10  1  0
 10 11  1  0
 11 12  1  0
 12 13  1  0
 13 14  1  1
 13 15  1  0
 15 16  1  0
 16 17  1  0
 17 18  2  0
 18 19  1  0
 19 20  1  0
 20 21  1  0
 21 22  1  0
 22 23  1  0
 22 24  1  0
 24 25  1  0
 24 26  1  0
 19 27  1  0
 27 28  1  6
 27 29  1  0
 29 30  1  0
 30 31  1  0
 31 32  1  1
  7  5  1  0
 31 10  1  0
 31 13  1  0
 27 15  1  0
 24 18  1  0
  1 33  1  0
  1 34  1  0
  1 35  1  0
  2 36  1  6
  3 37  1  0
  3 38  1  0
  4 39  1  0
  4 40  1  0
  5 41  1  1
  8 42  1  0
  8 43  1  0
  8 44  1  0
  9 45  1  0
  9 46  1  0
  9 47  1  0
 10 48  1  1
 11 49  1  0
 11 50  1  0
 12 51  1  0
 12 52  1  0
 14 53  1  0
 14 54  1  0
 14 55  1  0
 15 56  1  6
 16 57  1  0
 16 58  1  0
 17 59  1  0
 19 60  1  1
 20 61  1  0
 20 62  1  0
 21 63  1  0
 21 64  1  0
 22 65  1  1
 23 66  1  0
 25 67  1  0
 25 68  1  0
 25 69  1  0
 26 70  1  0
 26 71  1  0
 26 72  1  0
 28 73  1  0
 28 74  1  0
 28 75  1  0
 29 76  1  0
 29 77  1  0
 30 78  1  0
 30 79  1  0
 32 80  1  0
 32 81  1  0
 32 82  1  0
M  END
>  <meeko>  (3) 
{"is_sidechain": [false], "intermolecular_energy": 2.731, "internal_energy": -0.839}

$$$$
EPH_relaxed_0001_pdb2pqr_Repair_398_r2_0001_out
     RDKit          3D

 82 86  0  0  0  0  0  0  0  0999 V2000
    2.2500   18.0450   -2.7370 C   0  0  0  0  0  0  0  0  0  0  0  0
    0.9750   17.6370   -1.9940 C   0  0  2  0  0  0  0  0  0  0  0  0
    1.1560   17.6810   -0.4630 C   0  0  0  0  0  0  0  0  0  0  0  0
    0.8340   19.0440    0.1550 C   0  0  0  0  0  0  0  0  0  0  0  0
   -0.6050   19.1430    0.5620 C   0  0  2  0  0  0  0  0  0  0  0  0
   -1.4890   18.2640   -0.1460 O   0  0  0  0  0  0  0  0  0  0  0  0
   -1.6980   19.6710   -0.3480 C   0  0  0  0  0  0  0  0  0  0  0  0
   -1.3980   20.1370   -1.7380 C   0  0  0  0  0  0  0  0  0  0  0  0
   -2.9580   20.1890    0.2720 C   0  0  0  0  0  0  0  0  0  0  0  0
    0.5460   16.2400   -2.4270 C   0  0  1  0  0  0  0  0  0  0  0  0
    0.6070   16.0470   -3.9660 C   0  0  0  0  0  0  0  0  0  0  0  0
    1.0330   14.5770   -4.2160 C   0  0  0  0  0  0  0  0  0  0  0  0
    0.8810   13.8880   -2.8400 C   0  0  1  0  0  0  0  0  0  0  0  0
   -0.6400   13.5590   -2.7220 C   0  0  0  0  0  0  0  0  0  0  0  0
    1.7660   12.6210   -2.6000 C   0  0  2  0  0  0  0  0  0  0  0  0
    1.4850   11.4400   -3.5470 C   0  0  0  0  0  0  0  0  0  0  0  0
    0.4590   10.4690   -3.0670 C   0  0  0  0  0  0  0  0  0  0  0  0
   -0.0050   10.3790   -1.8060 C   0  0  0  0  0  0  0  0  0  0  0  0
    0.5820   11.2500   -0.6880 C   0  0  1  0  0  0  0  0  0  0  0  0
    0.8600   10.3710    0.5600 C   0  0  0  0  0  0  0  0  0  0  0  0
   -0.3700    9.5910    1.0130 C   0  0  0  0  0  0  0  0  0  0  0  0
   -0.8900    8.6940   -0.1080 C   0  0  2  0  0  0  0  0  0  0  0  0
    0.0780    7.6720   -0.3670 O   0  0  0  0  0  0  0  0  0  0  0  0
   -1.1960    9.4680   -1.4200 C   0  0  0  0  0  0  0  0  0  0  0  0
   -2.4460   10.3600   -1.2190 C   0  0  0  0  0  0  0  0  0  0  0  0
   -1.5760    8.4290   -2.5100 C   0  0  0  0  0  0  0  0  0  0  0  0
    1.8280   12.1500   -1.0910 C   0  0  1  0  0  0  0  0  0  0  0  0
    3.1470   11.3330   -0.9330 C   0  0  0  0  0  0  0  0  0  0  0  0
    1.9330   13.3610   -0.0900 C   0  0  0  0  0  0  0  0  0  0  0  0
    1.1300   14.6270   -0.4440 C   0  0  0  0  0  0  0  0  0  0  0  0
    1.3760   15.0440   -1.8970 C   0  0  2  0  0  0  0  0  0  0  0  0
    2.8950   15.4020   -2.0410 C   0  0  0  0  0  0  0  0  0  0  0  0
    3.0347   18.2961   -2.0081 H   0  0  0  0  0  0  0  0  0  0  0  0
    2.5894   17.2106   -3.3683 H   0  0  0  0  0  0  0  0  0  0  0  0
    2.0419   18.9214   -3.3683 H   0  0  0  0  0  0  0  0  0  0  0  0
    0.1924   18.3645   -2.2554 H   0  0  0  0  0  0  0  0  0  0  0  0
    0.4908   16.9295   -0.0128 H   0  0  0  0  0  0  0  0  0  0  0  0
    2.2175   17.4776   -0.2585 H   0  0  0  0  0  0  0  0  0  0  0  0
    1.4664   19.1910    1.0430 H   0  0  0  0  0  0  0  0  0  0  0  0
    1.0300   19.8181   -0.6016 H   0  0  0  0  0  0  0  0  0  0  0  0
   -0.3199   19.3934    1.5945 H   0  0  0  0  0  0  0  0  0  0  0  0
   -0.8030   21.0612   -1.6945 H   0  0  0  0  0  0  0  0  0  0  0  0
   -0.8300   19.3600   -2.2706 H   0  0  0  0  0  0  0  0  0  0  0  0
   -2.3404   20.3324   -2.2706 H   0  0  0  0  0  0  0  0  0  0  0  0
   -2.8693   20.1525    1.3678 H   0  0  0  0  0  0  0  0  0  0  0  0
   -3.1238   21.2283   -0.0481 H   0  0  0  0  0  0  0  0  0  0  0  0
   -3.8068   19.5669   -0.0481 H   0  0  0  0  0  0  0  0  0  0  0  0
   -0.4656   16.2161   -1.9956 H   0  0  0  0  0  0  0  0  0  0  0  0
   -0.3811   16.2359   -4.4109 H   0  0  0  0  0  0  0  0  0  0  0  0
    1.3201   16.7482   -4.4240 H   0  0  0  0  0  0  0  0  0  0  0  0
    0.3772   14.1040   -4.9618 H   0  0  0  0  0  0  0  0  0  0  0  0
    2.0571   14.5005   -4.6102 H   0  0  0  0  0  0  0  0  0  0  0  0
   -0.9207   13.4983   -1.6602 H   0  0  0  0  0  0  0  0  0  0  0  0
   -1.2256   14.3513   -3.2113 H   0  0  0  0  0  0  0  0  0  0  0  0
   -0.8458   12.5956   -3.2113 H   0  0  0  0  0  0  0  0  0  0  0  0
    2.7713   12.9820   -2.8627 H   0  0  0  0  0  0  0  0  0  0  0  0
    1.1420   11.8495   -4.5086 H   0  0  0  0  0  0  0  0  0  0  0  0
    2.4271   10.8767   -3.6192 H   0  0  0  0  0  0  0  0  0  0  0  0
    0.0463    9.7667   -3.8062 H   0  0  0  0  0  0  0  0  0  0  0  0
   -0.1861   12.0013   -0.4524 H   0  0  0  0  0  0  0  0  0  0  0  0
    1.6604    9.6567    0.3168 H   0  0  0  0  0  0  0  0  0  0  0  0
    1.1511   11.0415    1.3820 H   0  0  0  0  0  0  0  0  0  0  0  0
   -0.1022    8.9671    1.8785 H   0  0  0  0  0  0  0  0  0  0  0  0
   -1.1596   10.3070    1.2850 H   0  0  0  0  0  0  0  0  0  0  0  0
   -1.8433    8.2620    0.2306 H   0  0  0  0  0  0  0  0  0  0  0  0
    0.6890    7.6470    0.3890 H   0  0  0  0  0  0  0  0  0  0  0  0
   -2.6324   10.4930   -0.1431 H   0  0  0  0  0  0  0  0  0  0  0  0
   -2.2750   11.3414   -1.6856 H   0  0  0  0  0  0  0  0  0  0  0  0
   -3.3184    9.8792   -1.6856 H   0  0  0  0  0  0  0  0  0  0  0  0
   -1.9157    7.5001   -2.0286 H   0  0  0  0  0  0  0  0  0  0  0  0
   -2.3842    8.8340   -3.1367 H   0  0  0  0  0  0  0  0  0  0  0  0
   -0.6972    8.2170   -3.1367 H   0  0  0  0  0  0  0  0  0  0  0  0
    3.3678   11.1962    0.1359 H   0  0  0  0  0  0  0  0  0  0  0  0
    3.0288   10.3497   -1.4117 H   0  0  0  0  0  0  0  0  0  0  0  0
    3.9747   11.8768   -1.4117 H   0  0  0  0  0  0  0  0  0  0  0  0
    1.5858   13.0109    0.8933 H   0  0  0  0  0  0  0  0  0  0  0  0
    2.9879   13.6709   -0.1232 H   0  0  0  0  0  0  0  0  0  0  0  0
    0.0580   14.4238   -0.3046 H   0  0  0  0  0  0  0  0  0  0  0  0
    1.4560   15.4448    0.2155 H   0  0  0  0  0  0  0  0  0  0  0  0
    3.3431   15.5076   -1.0420 H   0  0  0  0  0  0  0  0  0  0  0  0
    3.4100   14.6006   -2.5910 H   0  0  0  0  0  0  0  0  0  0  0  0
    2.9980   16.3490   -2.5910 H   0  0  0  0  0  0  0  0  0  0  0  0
  1  2  1  0
  2  3  1  0
  3  4  1  0
  4  5  1  0
  5  6  1  0
  6  7  1  0
  7  8  1  0
  7  9  1  0
  2 10  1  0
 10 11  1  0
 11 12  1  0
 12 13  1  0
 13 14  1  1
 13 15  1  0
 15 16  1  0
 16 17  1  0
 17 18  2  0
 18 19  1  0
 19 20  1  0
 20 21  1  0
 21 22  1  0
 22 23  1  0
 22 24  1  0
 24 25  1  0
 24 26  1  0
 19 27  1  0
 27 28  1  6
 27 29  1  0
 29 30  1  0
 30 31  1  0
 31 32  1  1
  7  5  1  0
 31 10  1  0
 31 13  1  0
 27 15  1  0
 24 18  1  0
  1 33  1  0
  1 34  1  0
  1 35  1  0
  2 36  1  1
  3 37  1  0
  3 38  1  0
  4 39  1  0
  4 40  1  0
  5 41  1  1
  8 42  1  0
  8 43  1  0
  8 44  1  0
  9 45  1  0
  9 46  1  0
  9 47  1  0
 10 48  1  1
 11 49  1  0
 11 50  1  0
 12 51  1  0
 12 52  1  0
 14 53  1  0
 14 54  1  0
 14 55  1  0
 15 56  1  6
 16 57  1  0
 16 58  1  0
 17 59  1  0
 19 60  1  1
 20 61  1  0
 20 62  1  0
 21 63  1  0
 21 64  1  0
 22 65  1  1
 23 66  1  0
 25 67  1  0
 25 68  1  0
 25 69  1  0
 26 70  1  0
 26 71  1  0
 26 72  1  0
 28 73  1  0
 28 74  1  0
 28 75  1  0
 29 76  1  0
 29 77  1  0
 30 78  1  0
 30 79  1  0
 32 80  1  0
 32 81  1  0
 32 82  1  0
M  END
>  <meeko>  (4) 
{"is_sidechain": [false], "intermolecular_energy": 2.731, "internal_energy": -0.839}

$$$$
EPH_relaxed_0001_pdb2pqr_Repair_398_r2_0001_out
     RDKit          3D

 82 86  0  0  0  0  0  0  0  0999 V2000
    3.6430   17.6630    0.7070 C   0  0  0  0  0  0  0  0  0  0  0  0
    2.7920   17.9460   -0.5340 C   0  0  2  0  0  0  0  0  0  0  0  0
    2.1200   19.3320   -0.4740 C   0  0  0  0  0  0  0  0  0  0  0  0
    1.2480   19.5390    0.7680 C   0  0  0  0  0  0  0  0  0  0  0  0
   -0.0810   20.1380    0.4190 C   0  0  2  0  0  0  0  0  0  0  0  0
   -1.0170   20.1910    1.5040 O   0  0  0  0  0  0  0  0  0  0  0  0
   -1.3750   19.3470    0.3970 C   0  0  0  0  0  0  0  0  0  0  0  0
   -1.4030   17.8880    0.7290 C   0  0  0  0  0  0  0  0  0  0  0  0
   -2.5190   19.8690   -0.4140 C   0  0  0  0  0  0  0  0  0  0  0  0
    1.7350   16.8600   -0.6980 C   0  0  1  0  0  0  0  0  0  0  0  0
    0.5150   17.3350   -1.5320 C   0  0  0  0  0  0  0  0  0  0  0  0
    0.0280   16.1110   -2.3490 C   0  0  0  0  0  0  0  0  0  0  0  0
    0.7610   14.9040   -1.7170 C   0  0  1  0  0  0  0  0  0  0  0  0
   -0.0730   14.5480   -0.4470 C   0  0  0  0  0  0  0  0  0  0  0  0
    0.9660   13.6600   -2.6410 C   0  0  2  0  0  0  0  0  0  0  0  0
   -0.3300   12.9870   -3.1270 C   0  0  0  0  0  0  0  0  0  0  0  0
   -0.8520   11.8980   -2.2490 C   0  0  0  0  0  0  0  0  0  0  0  0
   -0.1600   11.2830   -1.2720 C   0  0  0  0  0  0  0  0  0  0  0  0
    1.3210   11.6030   -1.0340 C   0  0  1  0  0  0  0  0  0  0  0  0
    2.1170   10.2810   -0.8720 C   0  0  0  0  0  0  0  0  0  0  0  0
    1.5340    9.3760    0.2090 C   0  0  0  0  0  0  0  0  0  0  0  0
    0.0780    9.0330   -0.0930 C   0  0  2  0  0  0  0  0  0  0  0  0
    0.0310    8.2210   -1.2710 O   0  0  0  0  0  0  0  0  0  0  0  0
   -0.8200   10.2870   -0.2870 C   0  0  0  0  0  0  0  0  0  0  0  0
   -1.0120   11.0040    1.0730 C   0  0  0  0  0  0  0  0  0  0  0  0
   -2.2280    9.8030   -0.7250 C   0  0  0  0  0  0  0  0  0  0  0  0
    1.9930   12.5960   -2.0770 C   0  0  1  0  0  0  0  0  0  0  0  0
    2.5250   11.7960   -3.3060 C   0  0  0  0  0  0  0  0  0  0  0  0
    3.2480   13.2710   -1.4100 C   0  0  0  0  0  0  0  0  0  0  0  0
    2.9980   14.5640   -0.6100 C   0  0  0  0  0  0  0  0  0  0  0  0
    2.1600   15.5570   -1.4200 C   0  0  2  0  0  0  0  0  0  0  0  0
    2.9830   15.9510   -2.6930 C   0  0  0  0  0  0  0  0  0  0  0  0
    3.0492   17.8605    1.6116 H   0  0  0  0  0  0  0  0  0  0  0  0
    3.9622   16.6103    0.7005 H   0  0  0  0  0  0  0  0  0  0  0  0
    4.5290   18.3149    0.7005 H   0  0  0  0  0  0  0  0  0  0  0  0
    3.4648   17.9438   -1.4042 H   0  0  0  0  0  0  0  0  0  0  0  0
    2.9072   20.1003   -0.4779 H   0  0  0  0  0  0  0  0  0  0  0  0
    1.4572   19.4066   -1.3488 H   0  0  0  0  0  0  0  0  0  0  0  0
    1.0838   18.5661    1.2544 H   0  0  0  0  0  0  0  0  0  0  0  0
    1.7707   20.2336    1.4420 H   0  0  0  0  0  0  0  0  0  0  0  0
    0.3873   20.8066   -0.3183 H   0  0  0  0  0  0  0  0  0  0  0  0
   -1.4054   17.7606    1.8216 H   0  0  0  0  0  0  0  0  0  0  0  0
   -2.3100   17.4328    0.3047 H   0  0  0  0  0  0  0  0  0  0  0  0
   -0.5141   17.3983    0.3047 H   0  0  0  0  0  0  0  0  0  0  0  0
   -3.3107   20.2303    0.2588 H   0  0  0  0  0  0  0  0  0  0  0  0
   -2.1708   20.6973   -1.0485 H   0  0  0  0  0  0  0  0  0  0  0  0
   -2.9165   19.0631   -1.0485 H   0  0  0  0  0  0  0  0  0  0  0  0
    1.5202   16.6505    0.3603 H   0  0  0  0  0  0  0  0  0  0  0  0
   -0.2854   17.6881   -0.8651 H   0  0  0  0  0  0  0  0  0  0  0  0
    0.7902   18.1683   -2.1952 H   0  0  0  0  0  0  0  0  0  0  0  0
   -1.0621   15.9934   -2.2601 H   0  0  0  0  0  0  0  0  0  0  0  0
    0.2425   16.2139   -3.4230 H   0  0  0  0  0  0  0  0  0  0  0  0
    0.5073   14.7957    0.4541 H   0  0  0  0  0  0  0  0  0  0  0  0
   -1.0097   15.1247   -0.4499 H   0  0  0  0  0  0  0  0  0  0  0  0
   -0.3045   13.4726   -0.4499 H   0  0  0  0  0  0  0  0  0  0  0  0
    1.4256   14.1045   -3.5361 H   0  0  0  0  0  0  0  0  0  0  0  0
   -1.1066   13.7621   -3.2052 H   0  0  0  0  0  0  0  0  0  0  0  0
   -0.0836   12.5111   -4.0877 H   0  0  0  0  0  0  0  0  0  0  0  0
   -1.8891   11.5709   -2.4145 H   0  0  0  0  0  0  0  0  0  0  0  0
    1.3604   12.1798   -0.0982 H   0  0  0  0  0  0  0  0  0  0  0  0
    2.1021    9.7407   -1.8301 H   0  0  0  0  0  0  0  0  0  0  0  0
    3.1421   10.5431   -0.5711 H   0  0  0  0  0  0  0  0  0  0  0  0
    2.1206    8.4466    0.2552 H   0  0  0  0  0  0  0  0  0  0  0  0
    1.5771    9.9066    1.1716 H   0  0  0  0  0  0  0  0  0  0  0  0
   -0.3214    8.4935    0.7785 H   0  0  0  0  0  0  0  0  0  0  0  0
   -0.6630    7.5530   -1.1400 H   0  0  0  0  0  0  0  0  0  0  0  0
   -0.8220   10.2943    1.8917 H   0  0  0  0  0  0  0  0  0  0  0  0
   -0.3076   11.8457    1.1464 H   0  0  0  0  0  0  0  0  0  0  0  0
   -2.0428   11.3810    1.1464 H   0  0  0  0  0  0  0  0  0  0  0  0
   -2.8374    9.5935    0.1665 H   0  0  0  0  0  0  0  0  0  0  0  0
   -2.7142   10.5856   -1.3259 H   0  0  0  0  0  0  0  0  0  0  0  0
   -2.1303    8.8869   -1.3259 H   0  0  0  0  0  0  0  0  0  0  0  0
    3.1025   10.9276   -2.9562 H   0  0  0  0  0  0  0  0  0  0  0  0
    1.6760   11.4508   -3.9142 H   0  0  0  0  0  0  0  0  0  0  0  0
    3.1717   12.4455   -3.9142 H   0  0  0  0  0  0  0  0  0  0  0  0
    3.6958   12.5367   -0.7243 H   0  0  0  0  0  0  0  0  0  0  0  0
    3.8932   13.5715   -2.2487 H   0  0  0  0  0  0  0  0  0  0  0  0
    2.4629   14.3149    0.3182 H   0  0  0  0  0  0  0  0  0  0  0  0
    3.9688   15.0285   -0.3824 H   0  0  0  0  0  0  0  0  0  0  0  0
    3.9360   16.4072   -2.3868 H   0  0  0  0  0  0  0  0  0  0  0  0
    3.1833   15.0512   -3.2931 H   0  0  0  0  0  0  0  0  0  0  0  0
    2.4077   16.6713   -3.2931 H   0  0  0  0  0  0  0  0  0  0  0  0
  1  2  1  0
  2  3  1  0
  3  4  1  0
  4  5  1  0
  5  6  1  0
  6  7  1  0
  7  8  1  0
  7  9  1  0
  2 10  1  0
 10 11  1  0
 11 12  1  0
 12 13  1  0
 13 14  1  1
 13 15  1  0
 15 16  1  0
 16 17  1  0
 17 18  2  0
 18 19  1  0
 19 20  1  0
 20 21  1  0
 21 22  1  0
 22 23  1  0
 22 24  1  0
 24 25  1  0
 24 26  1  0
 19 27  1  0
 27 28  1  6
 27 29  1  0
 29 30  1  0
 30 31  1  0
 31 32  1  6
  7  5  1  0
 31 10  1  0
 31 13  1  0
 27 15  1  0
 24 18  1  0
  1 33  1  0
  1 34  1  0
  1 35  1  0
  2 36  1  6
  3 37  1  0
  3 38  1  0
  4 39  1  0
  4 40  1  0
  5 41  1  6
  8 42  1  0
  8 43  1  0
  8 44  1  0
  9 45  1  0
  9 46  1  0
  9 47  1  0
 10 48  1  1
 11 49  1  0
 11 50  1  0
 12 51  1  0
 12 52  1  0
 14 53  1  0
 14 54  1  0
 14 55  1  0
 15 56  1  6
 16 57  1  0
 16 58  1  0
 17 59  1  0
 19 60  1  1
 20 61  1  0
 20 62  1  0
 21 63  1  0
 21 64  1  0
 22 65  1  1
 23 66  1  0
 25 67  1  0
 25 68  1  0
 25 69  1  0
 26 70  1  0
 26 71  1  0
 26 72  1  0
 28 73  1  0
 28 74  1  0
 28 75  1  0
 29 76  1  0
 29 77  1  0
 30 78  1  0
 30 79  1  0
 32 80  1  0
 32 81  1  0
 32 82  1  0
M  END
>  <meeko>  (5) 
{"is_sidechain": [false], "intermolecular_energy": 2.731, "internal_energy": -0.839}

$$$$
EPH_relaxed_0001_pdb2pqr_Repair_398_r2_0001_out
     RDKit          3D

 82 86  0  0  0  0  0  0  0  0999 V2000
    0.0640   10.3780   -3.5100 C   0  0  0  0  0  0  0  0  0  0  0  0
    1.1190   10.2050   -2.4140 C   0  0  2  0  0  0  0  0  0  0  0  0
    0.8480    8.9670   -1.5370 C   0  0  0  0  0  0  0  0  0  0  0  0
    0.0470    9.2740   -0.2690 C   0  0  0  0  0  0  0  0  0  0  0  0
   -1.3590    8.7630   -0.3630 C   0  0  2  0  0  0  0  0  0  0  0  0
   -1.9350    8.8360   -1.6740 O   0  0  0  0  0  0  0  0  0  0  0  0
   -2.5530    9.6490   -0.6630 C   0  0  0  0  0  0  0  0  0  0  0  0
   -2.3960   11.1210   -0.8870 C   0  0  0  0  0  0  0  0  0  0  0  0
   -3.9140    9.1770   -0.2580 C   0  0  0  0  0  0  0  0  0  0  0  0
    1.1760   11.4560   -1.5460 C   0  0  1  0  0  0  0  0  0  0  0  0
    2.2480   11.3600   -0.4280 C   0  0  0  0  0  0  0  0  0  0  0  0
    2.8290   12.7850   -0.2410 C   0  0  0  0  0  0  0  0  0  0  0  0
    1.8540   13.7070   -1.0090 C   0  0  1  0  0  0  0  0  0  0  0  0
    0.6580   13.9310   -0.0320 C   0  0  0  0  0  0  0  0  0  0  0  0
    2.4440   15.0630   -1.5200 C   0  0  2  0  0  0  0  0  0  0  0  0
    2.9350   16.0170   -0.4180 C   0  0  0  0  0  0  0  0  0  0  0  0
    1.9140   16.9770    0.0960 C   0  0  0  0  0  0  0  0  0  0  0  0
    0.7420   17.2660   -0.5000 C   0  0  0  0  0  0  0  0  0  0  0  0
    0.3870   16.6720   -1.8690 C   0  0  1  0  0  0  0  0  0  0  0  0
   -0.1680   17.7890   -2.7900 C   0  0  0  0  0  0  0  0  0  0  0  0
   -1.3370   18.5410   -2.1600 C   0  0  0  0  0  0  0  0  0  0  0  0
   -0.9280   19.1660   -0.8290 C   0  0  2  0  0  0  0  0  0  0  0  0
    0.0350   20.1940   -1.0790 O   0  0  0  0  0  0  0  0  0  0  0  0
   -0.3440   18.1370    0.1790 C   0  0  0  0  0  0  0  0  0  0  0  0
   -1.4730   17.2020    0.6810 C   0  0  0  0  0  0  0  0  0  0  0  0
    0.1580   18.9180    1.4230 C   0  0  0  0  0  0  0  0  0  0  0  0
    1.5270   15.8140   -2.5690 C   0  0  1  0  0  0  0  0  0  0  0  0
    2.4660   16.7480   -3.3920 C   0  0  0  0  0  0  0  0  0  0  0  0
    0.8660   14.8260   -3.6020 C   0  0  0  0  0  0  0  0  0  0  0  0
    0.4130   13.4560   -3.0610 C   0  0  0  0  0  0  0  0  0  0  0  0
    1.5280   12.7930   -2.2460 C   0  0  2  0  0  0  0  0  0  0  0  0
    2.7360   12.5350   -3.2090 C   0  0  0  0  0  0  0  0  0  0  0  0
   -0.9213   10.5396   -3.0483 H   0  0  0  0  0  0  0  0  0  0  0  0
    0.3230   11.2457   -4.1346 H   0  0  0  0  0  0  0  0  0  0  0  0
    0.0323    9.4731   -4.1346 H   0  0  0  0  0  0  0  0  0  0  0  0
    2.0890   10.0518   -2.9097 H   0  0  0  0  0  0  0  0  0  0  0  0
    0.2851    8.2347   -2.1345 H   0  0  0  0  0  0  0  0  0  0  0  0
    1.8263    8.5819   -1.2136 H   0  0  0  0  0  0  0  0  0  0  0  0
    0.5426    8.7975    0.5896 H   0  0  0  0  0  0  0  0  0  0  0  0
    0.0069   10.3663   -0.1453 H   0  0  0  0  0  0  0  0  0  0  0  0
   -1.1693    8.0251    0.4304 H   0  0  0  0  0  0  0  0  0  0  0  0
   -2.3411   11.6358    0.0836 H   0  0  0  0  0  0  0  0  0  0  0  0
   -1.4727   11.3091   -1.4546 H   0  0  0  0  0  0  0  0  0  0  0  0
   -3.2589   11.4996   -1.4546 H   0  0  0  0  0  0  0  0  0  0  0  0
   -3.9823    9.1533    0.8396 H   0  0  0  0  0  0  0  0  0  0  0  0
   -4.6744    9.8639   -0.6580 H   0  0  0  0  0  0  0  0  0  0  0  0
   -4.0858    8.1668   -0.6580 H   0  0  0  0  0  0  0  0  0  0  0  0
    0.1354   11.4798   -1.1903 H   0  0  0  0  0  0  0  0  0  0  0  0
    1.7880   11.0126    0.5089 H   0  0  0  0  0  0  0  0  0  0  0  0
    3.0380   10.6441   -0.6991 H   0  0  0  0  0  0  0  0  0  0  0  0
    2.8605   13.0548    0.8249 H   0  0  0  0  0  0  0  0  0  0  0  0
    3.8611   12.8670   -0.6126 H   0  0  0  0  0  0  0  0  0  0  0  0
    1.0152   13.8641    1.0062 H   0  0  0  0  0  0  0  0  0  0  0  0
    0.2232   14.9262   -0.2068 H   0  0  0  0  0  0  0  0  0  0  0  0
   -0.1075   13.1606   -0.2068 H   0  0  0  0  0  0  0  0  0  0  0  0
    3.3469   14.7399   -2.0589 H   0  0  0  0  0  0  0  0  0  0  0  0
    3.2847   15.4074    0.4282 H   0  0  0  0  0  0  0  0  0  0  0  0
    3.7254   16.6298   -0.8760 H   0  0  0  0  0  0  0  0  0  0  0  0
    2.1382   17.4919    1.0418 H   0  0  0  0  0  0  0  0  0  0  0  0
   -0.3945   15.9210   -1.6812 H   0  0  0  0  0  0  0  0  0  0  0  0
    0.6395   18.5056   -3.0009 H   0  0  0  0  0  0  0  0  0  0  0  0
   -0.5359   17.3108   -3.7098 H   0  0  0  0  0  0  0  0  0  0  0  0
   -1.6653   19.3361   -2.8456 H   0  0  0  0  0  0  0  0  0  0  0  0
   -2.1556   17.8292   -1.9775 H   0  0  0  0  0  0  0  0  0  0  0  0
   -1.8370   19.5768   -0.3654 H   0  0  0  0  0  0  0  0  0  0  0  0
    0.1770   20.2370   -2.0390 H   0  0  0  0  0  0  0  0  0  0  0  0
   -1.4814   17.1951    1.7809 H   0  0  0  0  0  0  0  0  0  0  0  0
   -2.4424   17.5653    0.3092 H   0  0  0  0  0  0  0  0  0  0  0  0
   -1.2967   16.1819    0.3092 H   0  0  0  0  0  0  0  0  0  0  0  0
   -0.1728   18.4033    2.3371 H   0  0  0  0  0  0  0  0  0  0  0  0
    1.2568   18.9664    1.4067 H   0  0  0  0  0  0  0  0  0  0  0  0
   -0.2543   19.9377    1.4067 H   0  0  0  0  0  0  0  0  0  0  0  0
    3.0749   17.3536   -2.7047 H   0  0  0  0  0  0  0  0  0  0  0  0
    3.1261   16.1378   -4.0260 H   0  0  0  0  0  0  0  0  0  0  0  0
    1.8594   17.4114   -4.0260 H   0  0  0  0  0  0  0  0  0  0  0  0
   -0.0186   15.3268   -4.0223 H   0  0  0  0  0  0  0  0  0  0  0  0
    1.6578   14.6000   -4.3313 H   0  0  0  0  0  0  0  0  0  0  0  0
   -0.4682   13.5965   -2.4178 H   0  0  0  0  0  0  0  0  0  0  0  0
    0.1673   12.8058   -3.9135 H   0  0  0  0  0  0  0  0  0  0  0  0
    3.6424   12.3414   -2.6165 H   0  0  0  0  0  0  0  0  0  0  0  0
    2.5194   11.6629   -3.8434 H   0  0  0  0  0  0  0  0  0  0  0  0
    2.8946   13.4195   -3.8434 H   0  0  0  0  0  0  0  0  0  0  0  0
  1  2  1  0
  2  3  1  0
  3  4  1  0
  4  5  1  0
  5  6  1  0
  6  7  1  0
  7  8  1  0
  7  9  1  0
  2 10  1  0
 10 11  1  0
 11 12  1  0
 12 13  1  0
 13 14  1  1
 13 15  1  0
 15 16  1  0
 16 17  1  0
 17 18  2  0
 18 19  1  0
 19 20  1  0
 20 21  1  0
 21 22  1  0
 22 23  1  0
 22 24  1  0
 24 25  1  0
 24 26  1  0
 19 27  1  0
 27 28  1  6
 27 29  1  0
 29 30  1  0
 30 31  1  0
 31 32  1  6
  7  5  1  0
 31 10  1  0
 31 13  1  0
 27 15  1  0
 24 18  1  0
  1 33  1  0
  1 34  1  0
  1 35  1  0
  2 36  1  6
  3 37  1  0
  3 38  1  0
  4 39  1  0
  4 40  1  0
  5 41  1  1
  8 42  1  0
  8 43  1  0
  8 44  1  0
  9 45  1  0
  9 46  1  0
  9 47  1  0
 10 48  1  1
 11 49  1  0
 11 50  1  0
 12 51  1  0
 12 52  1  0
 14 53  1  0
 14 54  1  0
 14 55  1  0
 15 56  1  6
 16 57  1  0
 16 58  1  0
 17 59  1  0
 19 60  1  1
 20 61  1  0
 20 62  1  0
 21 63  1  0
 21 64  1  0
 22 65  1  1
 23 66  1  0
 25 67  1  0
 25 68  1  0
 25 69  1  0
 26 70  1  0
 26 71  1  0
 26 72  1  0
 28 73  1  0
 28 74  1  0
 28 75  1  0
 29 76  1  0
 29 77  1  0
 30 78  1  0
 30 79  1  0
 32 80  1  0
 32 81  1  0
 32 82  1  0
M  END
>  <meeko>  (6) 
{"is_sidechain": [false], "intermolecular_energy": 2.731, "internal_energy": -0.839}

$$$$
EPH_relaxed_0001_pdb2pqr_Repair_398_r2_0001_out
     RDKit          3D

 82 86  0  0  0  0  0  0  0  0999 V2000
    0.4340    8.8630   -2.4570 C   0  0  0  0  0  0  0  0  0  0  0  0
    1.1850   10.0190   -3.1250 C   0  0  2  0  0  0  0  0  0  0  0  0
    2.6810   10.0300   -2.7550 C   0  0  0  0  0  0  0  0  0  0  0  0
    3.5820   10.6070   -3.8510 C   0  0  0  0  0  0  0  0  0  0  0  0
    4.9730   10.8540   -3.3520 C   0  0  2  0  0  0  0  0  0  0  0  0
    5.5720   12.0680   -3.8250 O   0  0  0  0  0  0  0  0  0  0  0  0
    6.1970   10.8450   -4.2480 C   0  0  0  0  0  0  0  0  0  0  0  0
    6.0870   10.5820   -5.7170 C   0  0  0  0  0  0  0  0  0  0  0  0
    7.5380   10.6080   -3.6260 C   0  0  0  0  0  0  0  0  0  0  0  0
    0.5420   11.3460   -2.7390 C   0  0  1  0  0  0  0  0  0  0  0  0
   -0.8280   11.1650   -2.0340 C   0  0  0  0  0  0  0  0  0  0  0  0
   -0.9410   12.2940   -0.9780 C   0  0  0  0  0  0  0  0  0  0  0  0
    0.2020   13.2740   -1.3320 C   0  0  1  0  0  0  0  0  0  0  0  0
   -0.3610   14.1410   -2.5010 C   0  0  0  0  0  0  0  0  0  0  0  0
    0.7370   14.1620   -0.1620 C   0  0  2  0  0  0  0  0  0  0  0  0
   -0.2930   15.1290    0.4490 C   0  0  0  0  0  0  0  0  0  0  0  0
   -0.3480   16.4820   -0.1790 C   0  0  0  0  0  0  0  0  0  0  0  0
    0.5850   17.0030   -0.9980 C   0  0  0  0  0  0  0  0  0  0  0  0
    1.8880   16.2470   -1.2900 C   0  0  1  0  0  0  0  0  0  0  0  0
    3.0900   17.2180   -1.1600 C   0  0  0  0  0  0  0  0  0  0  0  0
    2.9320   18.4640   -2.0260 C   0  0  0  0  0  0  0  0  0  0  0  0
    1.6560   19.2200   -1.6670 C   0  0  2  0  0  0  0  0  0  0  0  0
    1.7900   19.7470   -0.3430 O   0  0  0  0  0  0  0  0  0  0  0  0
    0.3780   18.3390   -1.7520 C   0  0  0  0  0  0  0  0  0  0  0  0
    0.0650   18.0180   -3.2340 C   0  0  0  0  0  0  0  0  0  0  0  0
   -0.8180   19.1810   -1.2290 C   0  0  0  0  0  0  0  0  0  0  0  0
    2.1030   14.8970   -0.4780 C   0  0  1  0  0  0  0  0  0  0  0  0
    2.7720   15.2040    0.8960 C   0  0  0  0  0  0  0  0  0  0  0  0
    3.1080   13.9780   -1.2670 C   0  0  0  0  0  0  0  0  0  0  0  0
    2.5040   13.0360   -2.3260 C   0  0  0  0  0  0  0  0  0  0  0  0
    1.3200   12.2530   -1.7530 C   0  0  2  0  0  0  0  0  0  0  0  0
    1.8600   11.3550   -0.5880 C   0  0  0  0  0  0  0  0  0  0  0  0
    0.5006    8.9655   -1.3638 H   0  0  0  0  0  0  0  0  0  0  0  0
   -0.6221    8.8860   -2.7638 H   0  0  0  0  0  0  0  0  0  0  0  0
    0.8842    7.9074   -2.7638 H   0  0  0  0  0  0  0  0  0  0  0  0
    1.1163    9.8749   -4.2134 H   0  0  0  0  0  0  0  0  0  0  0  0
    2.8094   10.6352   -1.8455 H   0  0  0  0  0  0  0  0  0  0  0  0
    2.9836    8.9827   -2.6083 H   0  0  0  0  0  0  0  0  0  0  0  0
    3.6249    9.8953   -4.6886 H   0  0  0  0  0  0  0  0  0  0  0  0
    3.1572   11.5693   -4.1727 H   0  0  0  0  0  0  0  0  0  0  0  0
    4.7490   10.3429   -2.4040 H   0  0  0  0  0  0  0  0  0  0  0  0
    5.6672    9.5783   -5.8794 H   0  0  0  0  0  0  0  0  0  0  0  0
    5.4279   11.3337   -6.1757 H   0  0  0  0  0  0  0  0  0  0  0  0
    7.0851   10.6406   -6.1757 H   0  0  0  0  0  0  0  0  0  0  0  0
    7.4421   10.6249   -2.5303 H   0  0  0  0  0  0  0  0  0  0  0  0
    7.9223    9.6280   -3.9453 H   0  0  0  0  0  0  0  0  0  0  0  0
    8.2349   11.3969   -3.9453 H   0  0  0  0  0  0  0  0  0  0  0  0
    0.4936   11.8213   -3.7298 H   0  0  0  0  0  0  0  0  0  0  0  0
   -1.6446   11.2483   -2.7663 H   0  0  0  0  0  0  0  0  0  0  0  0
   -0.9010   10.1742   -1.5618 H   0  0  0  0  0  0  0  0  0  0  0  0
   -1.9178   12.7949   -1.0479 H   0  0  0  0  0  0  0  0  0  0  0  0
   -0.8606   11.9130    0.0508 H   0  0  0  0  0  0  0  0  0  0  0  0
   -0.9164   14.9963   -2.0887 H   0  0  0  0  0  0  0  0  0  0  0  0
    0.4715   14.5081   -3.1192 H   0  0  0  0  0  0  0  0  0  0  0  0
   -1.0350   13.5298   -3.1192 H   0  0  0  0  0  0  0  0  0  0  0  0
    0.9477   13.4177    0.6201 H   0  0  0  0  0  0  0  0  0  0  0  0
   -1.2881   14.6698    0.3546 H   0  0  0  0  0  0  0  0  0  0  0  0
    0.0210   15.2896    1.4909 H   0  0  0  0  0  0  0  0  0  0  0  0
   -1.2251   17.1063    0.0464 H   0  0  0  0  0  0  0  0  0  0  0  0
    1.8071   15.8904   -2.3274 H   0  0  0  0  0  0  0  0  0  0  0  0
    3.1803   17.5285   -0.1086 H   0  0  0  0  0  0  0  0  0  0  0  0
    3.9887   16.6846   -1.5033 H   0  0  0  0  0  0  0  0  0  0  0  0
    3.7978   19.1240   -1.8684 H   0  0  0  0  0  0  0  0  0  0  0  0
    2.8714   18.1537   -3.0796 H   0  0  0  0  0  0  0  0  0  0  0  0
    1.5309   20.0262   -2.4048 H   0  0  0  0  0  0  0  0  0  0  0  0
    1.1450   20.4690   -0.2470 H   0  0  0  0  0  0  0  0  0  0  0  0
   -0.7021   17.2313   -3.2846 H   0  0  0  0  0  0  0  0  0  0  0  0
   -0.3057   18.9244   -3.7351 H   0  0  0  0  0  0  0  0  0  0  0  0
    0.9804   17.6703   -3.7351 H   0  0  0  0  0  0  0  0  0  0  0  0
   -0.8148   19.1787   -0.1290 H   0  0  0  0  0  0  0  0  0  0  0  0
   -0.7260   20.2147   -1.5938 H   0  0  0  0  0  0  0  0  0  0  0  0
   -1.7601   18.7459   -1.5938 H   0  0  0  0  0  0  0  0  0  0  0  0
    2.0985   14.8949    1.7089 H   0  0  0  0  0  0  0  0  0  0  0  0
    3.7194   14.6506    0.9743 H   0  0  0  0  0  0  0  0  0  0  0  0
    2.9702   16.2832    0.9743 H   0  0  0  0  0  0  0  0  0  0  0  0
    3.8282   14.6342   -1.7775 H   0  0  0  0  0  0  0  0  0  0  0  0
    3.5468   13.3137   -0.5080 H   0  0  0  0  0  0  0  0  0  0  0  0
    2.1594   13.6327   -3.1834 H   0  0  0  0  0  0  0  0  0  0  0  0
    3.2780   12.3203   -2.6404 H   0  0  0  0  0  0  0  0  0  0  0  0
    1.5890   11.8057    0.3782 H   0  0  0  0  0  0  0  0  0  0  0  0
    1.4153   10.3516   -0.6622 H   0  0  0  0  0  0  0  0  0  0  0  0
    2.9547   11.2773   -0.6622 H   0  0  0  0  0  0  0  0  0  0  0  0
  1  2  1  0
  2  3  1  0
  3  4  1  0
  4  5  1  0
  5  6  1  0
  6  7  1  0
  7  8  1  0
  7  9  1  0
  2 10  1  0
 10 11  1  0
 11 12  1  0
 12 13  1  0
 13 14  1  6
 13 15  1  0
 15 16  1  0
 16 17  1  0
 17 18  2  0
 18 19  1  0
 19 20  1  0
 20 21  1  0
 21 22  1  0
 22 23  1  0
 22 24  1  0
 24 25  1  0
 24 26  1  0
 19 27  1  0
 27 28  1  1
 27 29  1  0
 29 30  1  0
 30 31  1  0
 31 32  1  1
  7  5  1  0
 31 10  1  0
 31 13  1  0
 27 15  1  0
 24 18  1  0
  1 33  1  0
  1 34  1  0
  1 35  1  0
  2 36  1  6
  3 37  1  0
  3 38  1  0
  4 39  1  0
  4 40  1  0
  5 41  1  1
  8 42  1  0
  8 43  1  0
  8 44  1  0
  9 45  1  0
  9 46  1  0
  9 47  1  0
 10 48  1  6
 11 49  1  0
 11 50  1  0
 12 51  1  0
 12 52  1  0
 14 53  1  0
 14 54  1  0
 14 55  1  0
 15 56  1  1
 16 57  1  0
 16 58  1  0
 17 59  1  0
 19 60  1  6
 20 61  1  0
 20 62  1  0
 21 63  1  0
 21 64  1  0
 22 65  1  6
 23 66  1  0
 25 67  1  0
 25 68  1  0
 25 69  1  0
 26 70  1  0
 26 71  1  0
 26 72  1  0
 28 73  1  0
 28 74  1  0
 28 75  1  0
 29 76  1  0
 29 77  1  0
 30 78  1  0
 30 79  1  0
 32 80  1  0
 32 81  1  0
 32 82  1  0
M  END
>  <meeko>  (7) 
{"is_sidechain": [false], "intermolecular_energy": 2.731, "internal_energy": -0.839}

$$$$
EPH_relaxed_0001_pdb2pqr_Repair_398_r2_0001_out
     RDKit          3D

 82 86  0  0  0  0  0  0  0  0999 V2000
   -1.0860   19.7290   -2.0930 C   0  0  0  0  0  0  0  0  0  0  0  0
   -0.2480   19.0220   -1.0250 C   0  0  2  0  0  0  0  0  0  0  0  0
    0.7970   19.9610   -0.3900 C   0  0  0  0  0  0  0  0  0  0  0  0
    1.0600   19.6790    1.0910 C   0  0  0  0  0  0  0  0  0  0  0  0
    2.3990   20.1940    1.5250 C   0  0  2  0  0  0  0  0  0  0  0  0
    3.4010   20.1940    0.5000 O   0  0  0  0  0  0  0  0  0  0  0  0
    3.6390   19.3260    1.6190 C   0  0  0  0  0  0  0  0  0  0  0  0
    3.5990   17.8690    1.2780 C   0  0  0  0  0  0  0  0  0  0  0  0
    4.7610   19.7740    2.5020 C   0  0  0  0  0  0  0  0  0  0  0  0
    0.4430   17.8050   -1.6280 C   0  0  1  0  0  0  0  0  0  0  0  0
    1.9040   18.1020   -2.0620 C   0  0  0  0  0  0  0  0  0  0  0  0
    2.7200   16.8100   -1.7990 C   0  0  0  0  0  0  0  0  0  0  0  0
    1.6530   15.7200   -1.5400 C   0  0  1  0  0  0  0  0  0  0  0  0
    1.1760   15.2810   -2.9600 C   0  0  0  0  0  0  0  0  0  0  0  0
    2.1090   14.4970   -0.6800 C   0  0  2  0  0  0  0  0  0  0  0  0
    3.2390   13.6530   -1.2940 C   0  0  0  0  0  0  0  0  0  0  0  0
    2.7930   12.5210   -2.1590 C   0  0  0  0  0  0  0  0  0  0  0  0
    1.5450   12.0180   -2.2070 C   0  0  0  0  0  0  0  0  0  0  0  0
    0.4520   12.5330   -1.2610 C   0  0  1  0  0  0  0  0  0  0  0  0
   -0.3070   11.3290   -0.6430 C   0  0  0  0  0  0  0  0  0  0  0  0
   -0.8520   10.3760   -1.7010 C   0  0  0  0  0  0  0  0  0  0  0  0
    0.2720    9.8400   -2.5840 C   0  0  2  0  0  0  0  0  0  0  0  0
    1.1250    9.0080   -1.7910 O   0  0  0  0  0  0  0  0  0  0  0  0
    1.1130   10.9630   -3.2540 C   0  0  0  0  0  0  0  0  0  0  0  0
    0.2640   11.6720   -4.3380 C   0  0  0  0  0  0  0  0  0  0  0  0
    2.2970   10.2910   -4.0010 C   0  0  0  0  0  0  0  0  0  0  0  0
    0.9210   13.5860   -0.1670 C   0  0  1  0  0  0  0  0  0  0  0  0
    1.4450   12.8410    1.0980 C   0  0  0  0  0  0  0  0  0  0  0  0
   -0.3230   14.4320    0.2990 C   0  0  0  0  0  0  0  0  0  0  0  0
   -0.6510   15.6950   -0.5200 C   0  0  0  0  0  0  0  0  0  0  0  0
    0.5990   16.5550   -0.7250 C   0  0  2  0  0  0  0  0  0  0  0  0
    1.0890   17.0310    0.6850 C   0  0  0  0  0  0  0  0  0  0  0  0
   -1.8398   20.3650   -1.6060 H   0  0  0  0  0  0  0  0  0  0  0  0
   -0.4310   20.3515   -2.7203 H   0  0  0  0  0  0  0  0  0  0  0  0
   -1.5894   18.9786   -2.7203 H   0  0  0  0  0  0  0  0  0  0  0  0
   -0.9327   18.7026   -0.2255 H   0  0  0  0  0  0  0  0  0  0  0  0
    1.7439   19.8478   -0.9383 H   0  0  0  0  0  0  0  0  0  0  0  0
    0.3928   20.9819   -0.4554 H   0  0  0  0  0  0  0  0  0  0  0  0
    0.2785   20.1681    1.6911 H   0  0  0  0  0  0  0  0  0  0  0  0
    1.0476   18.5892    1.2396 H   0  0  0  0  0  0  0  0  0  0  0  0
    1.9277   20.8866    2.2378 H   0  0  0  0  0  0  0  0  0  0  0  0
    3.5827   17.2759    2.2043 H   0  0  0  0  0  0  0  0  0  0  0  0
    2.6946   17.6548    0.6896 H   0  0  0  0  0  0  0  0  0  0  0  0
    4.4903   17.6055    0.6896 H   0  0  0  0  0  0  0  0  0  0  0  0
    4.4676   19.6568    3.5557 H   0  0  0  0  0  0  0  0  0  0  0  0
    5.6531   19.1631    2.2997 H   0  0  0  0  0  0  0  0  0  0  0  0
    4.9870   20.8313    2.2997 H   0  0  0  0  0  0  0  0  0  0  0  0
   -0.2514   17.5884   -2.4532 H   0  0  0  0  0  0  0  0  0  0  0  0
    1.9367   18.3597   -3.1309 H   0  0  0  0  0  0  0  0  0  0  0  0
    2.3180   18.9520   -1.4998 H   0  0  0  0  0  0  0  0  0  0  0  0
    3.3330   16.5528   -2.6754 H   0  0  0  0  0  0  0  0  0  0  0  0
    3.4161   16.9211   -0.9546 H   0  0  0  0  0  0  0  0  0  0  0  0
    0.3698   14.5390   -2.8628 H   0  0  0  0  0  0  0  0  0  0  0  0
    0.8028   16.1582   -3.5089 H   0  0  0  0  0  0  0  0  0  0  0  0
    2.0193   14.8365   -3.5089 H   0  0  0  0  0  0  0  0  0  0  0  0
    2.5452   14.9815    0.2060 H   0  0  0  0  0  0  0  0  0  0  0  0
    3.8677   14.3189   -1.9034 H   0  0  0  0  0  0  0  0  0  0  0  0
    3.7718   13.1964   -0.4469 H   0  0  0  0  0  0  0  0  0  0  0  0
    3.5477   12.0588   -2.8123 H   0  0  0  0  0  0  0  0  0  0  0  0
   -0.2337   13.1270   -1.8831 H   0  0  0  0  0  0  0  0  0  0  0  0
    0.3834   10.7741    0.0093 H   0  0  0  0  0  0  0  0  0  0  0  0
   -1.1636   11.7278   -0.0798 H   0  0  0  0  0  0  0  0  0  0  0  0
   -1.3515    9.5323   -1.2024 H   0  0  0  0  0  0  0  0  0  0  0  0
   -1.5643   10.9251   -2.3344 H   0  0  0  0  0  0  0  0  0  0  0  0
   -0.1938    9.2677   -3.3998 H   0  0  0  0  0  0  0  0  0  0  0  0
    0.5570    8.4010   -1.2870 H   0  0  0  0  0  0  0  0  0  0  0  0
   -0.4942   12.3051   -3.8539 H   0  0  0  0  0  0  0  0  0  0  0  0
    0.9173   12.2966   -4.9650 H   0  0  0  0  0  0  0  0  0  0  0  0
   -0.2341   10.9178   -4.9650 H   0  0  0  0  0  0  0  0  0  0  0  0
    3.0104    9.8861   -3.2682 H   0  0  0  0  0  0  0  0  0  0  0  0
    1.9163    9.4743   -4.6320 H   0  0  0  0  0  0  0  0  0  0  0  0
    2.8030   11.0366   -4.6320 H   0  0  0  0  0  0  0  0  0  0  0  0
    1.0841   13.3542    2.0015 H   0  0  0  0  0  0  0  0  0  0  0  0
    1.0757   11.8048    1.0926 H   0  0  0  0  0  0  0  0  0  0  0  0
    2.5450   12.8383    1.0926 H   0  0  0  0  0  0  0  0  0  0  0  0
   -1.2043   13.7747    0.2640 H   0  0  0  0  0  0  0  0  0  0  0  0
   -0.0613   14.7997    1.3021 H   0  0  0  0  0  0  0  0  0  0  0  0
   -1.0462   15.3948   -1.5017 H   0  0  0  0  0  0  0  0  0  0  0  0
   -1.3972   16.2864    0.0309 H   0  0  0  0  0  0  0  0  0  0  0  0
    0.5342   16.4921    1.4672 H   0  0  0  0  0  0  0  0  0  0  0  0
    2.1642   16.8233    0.7889 H   0  0  0  0  0  0  0  0  0  0  0  0
    0.9126   18.1118    0.7889 H   0  0  0  0  0  0  0  0  0  0  0  0
  1  2  1  0
  2  3  1  0
  3  4  1  0
  4  5  1  0
  5  6  1  0
  6  7  1  0
  7  8  1  0
  7  9  1  0
  2 10  1  0
 10 11  1  0
 11 12  1  0
 12 13  1  0
 13 14  1  6
 13 15  1  0
 15 16  1  0
 16 17  1  0
 17 18  2  0
 18 19  1  0
 19 20  1  0
 20 21  1  0
 21 22  1  0
 22 23  1  0
 22 24  1  0
 24 25  1  0
 24 26  1  0
 19 27  1  0
 27 28  1  1
 27 29  1  0
 29 30  1  0
 30 31  1  0
 31 32  1  1
  7  5  1  0
 31 10  1  0
 31 13  1  0
 27 15  1  0
 24 18  1  0
  1 33  1  0
  1 34  1  0
  1 35  1  0
  2 36  1  1
  3 37  1  0
  3 38  1  0
  4 39  1  0
  4 40  1  0
  5 41  1  1
  8 42  1  0
  8 43  1  0
  8 44  1  0
  9 45  1  0
  9 46  1  0
  9 47  1  0
 10 48  1  6
 11 49  1  0
 11 50  1  0
 12 51  1  0
 12 52  1  0
 14 53  1  0
 14 54  1  0
 14 55  1  0
 15 56  1  1
 16 57  1  0
 16 58  1  0
 17 59  1  0
 19 60  1  6
 20 61  1  0
 20 62  1  0
 21 63  1  0
 21 64  1  0
 22 65  1  6
 23 66  1  0
 25 67  1  0
 25 68  1  0
 25 69  1  0
 26 70  1  0
 26 71  1  0
 26 72  1  0
 28 73  1  0
 28 74  1  0
 28 75  1  0
 29 76  1  0
 29 77  1  0
 30 78  1  0
 30 79  1  0
 32 80  1  0
 32 81  1  0
 32 82  1  0
M  END
>  <meeko>  (8) 
{"is_sidechain": [false], "intermolecular_energy": 2.731, "internal_energy": -0.839}

$$$$
EPH_relaxed_0001_pdb2pqr_Repair_398_r2_0001_out
     RDKit          3D

 82 86  0  0  0  0  0  0  0  0999 V2000
    1.9890   19.4530   -2.0990 C   0  0  0  0  0  0  0  0  0  0  0  0
    1.5630   19.3410   -0.6320 C   0  0  2  0  0  0  0  0  0  0  0  0
    2.6600   19.8370    0.3310 C   0  0  0  0  0  0  0  0  0  0  0  0
    3.5580   18.7190    0.8690 C   0  0  0  0  0  0  0  0  0  0  0  0
    3.6560   18.7580    2.3640 C   0  0  2  0  0  0  0  0  0  0  0  0
    3.4650   20.0550    2.9430 O   0  0  0  0  0  0  0  0  0  0  0  0
    4.7670   19.4710    3.1110 C   0  0  0  0  0  0  0  0  0  0  0  0
    5.8570   20.1940    2.3850 C   0  0  0  0  0  0  0  0  0  0  0  0
    5.0640   19.0550    4.5190 C   0  0  0  0  0  0  0  0  0  0  0  0
    1.1970   17.8980   -0.3070 C   0  0  1  0  0  0  0  0  0  0  0  0
   -0.1130   17.7850    0.5190 C   0  0  0  0  0  0  0  0  0  0  0  0
   -0.8260   16.4900    0.0520 C   0  0  0  0  0  0  0  0  0  0  0  0
    0.2410   15.7340   -0.7750 C   0  0  1  0  0  0  0  0  0  0  0  0
    1.1320   15.0120    0.2850 C   0  0  0  0  0  0  0  0  0  0  0  0
   -0.2980   14.7370   -1.8510 C   0  0  2  0  0  0  0  0  0  0  0  0
   -1.1200   13.5600   -1.2980 C   0  0  0  0  0  0  0  0  0  0  0  0
   -0.3360   12.3350   -0.9620 C   0  0  0  0  0  0  0  0  0  0  0  0
    0.9240   12.0800   -1.3610 C   0  0  0  0  0  0  0  0  0  0  0  0
    1.6560   13.0320   -2.3160 C   0  0  1  0  0  0  0  0  0  0  0  0
    2.3430   12.2120   -3.4400 C   0  0  0  0  0  0  0  0  0  0  0  0
    3.2550   11.1190   -2.8920 C   0  0  0  0  0  0  0  0  0  0  0  0
    2.4790   10.1590   -1.9940 C   0  0  2  0  0  0  0  0  0  0  0  0
    1.5370    9.4380   -2.7950 O   0  0  0  0  0  0  0  0  0  0  0  0
    1.7370   10.8730   -0.8300 C   0  0  0  0  0  0  0  0  0  0  0  0
    2.7670   11.3970    0.2000 C   0  0  0  0  0  0  0  0  0  0  0  0
    0.8810    9.8130   -0.0870 C   0  0  0  0  0  0  0  0  0  0  0  0
    0.7960   14.2420   -2.8820 C   0  0  1  0  0  0  0  0  0  0  0  0
    0.0300   13.7960   -4.1650 C   0  0  0  0  0  0  0  0  0  0  0  0
    1.7670   15.4000   -3.3250 C   0  0  0  0  0  0  0  0  0  0  0  0
    2.1680   16.4220   -2.2450 C   0  0  0  0  0  0  0  0  0  0  0  0
    0.9360   16.9440   -1.4990 C   0  0  2  0  0  0  0  0  0  0  0  0
    0.0320   17.6940   -2.5350 C   0  0  0  0  0  0  0  0  0  0  0  0
    3.0516   19.7324   -2.1519 H   0  0  0  0  0  0  0  0  0  0  0  0
    1.8390   18.4849   -2.5993 H   0  0  0  0  0  0  0  0  0  0  0  0
    1.3823   20.2222   -2.5993 H   0  0  0  0  0  0  0  0  0  0  0  0
    0.6846   19.9881   -0.4916 H   0  0  0  0  0  0  0  0  0  0  0  0
    3.2908   20.5617   -0.2047 H   0  0  0  0  0  0  0  0  0  0  0  0
    2.1497   20.2843    1.1967 H   0  0  0  0  0  0  0  0  0  0  0  0
    3.1400   17.7482    0.5643 H   0  0  0  0  0  0  0  0  0  0  0  0
    4.5673   18.8608    0.4553 H   0  0  0  0  0  0  0  0  0  0  0  0
    3.2523   17.7376    2.4404 H   0  0  0  0  0  0  0  0  0  0  0  0
    6.5436   20.6494    3.1138 H   0  0  0  0  0  0  0  0  0  0  0  0
    6.4109   19.4836    1.7537 H   0  0  0  0  0  0  0  0  0  0  0  0
    5.4180   20.9806    1.7537 H   0  0  0  0  0  0  0  0  0  0  0  0
    4.5703   19.7466    5.2175 H   0  0  0  0  0  0  0  0  0  0  0  0
    4.6889   18.0346    4.6867 H   0  0  0  0  0  0  0  0  0  0  0  0
    6.1509   19.0783    4.6867 H   0  0  0  0  0  0  0  0  0  0  0  0
    2.1095   17.5927    0.2260 H   0  0  0  0  0  0  0  0  0  0  0  0
    0.1201   17.7231    1.5922 H   0  0  0  0  0  0  0  0  0  0  0  0
   -0.7538   18.6659    0.3657 H   0  0  0  0  0  0  0  0  0  0  0  0
   -1.1451   15.8890    0.9163 H   0  0  0  0  0  0  0  0  0  0  0  0
   -1.7341   16.7009   -0.5318 H   0  0  0  0  0  0  0  0  0  0  0  0
    0.7943   15.2857    1.2955 H   0  0  0  0  0  0  0  0  0  0  0  0
    1.0492   13.9231    0.1531 H   0  0  0  0  0  0  0  0  0  0  0  0
    2.1801   15.3187    0.1531 H   0  0  0  0  0  0  0  0  0  0  0  0
   -1.0091   15.3603   -2.4129 H   0  0  0  0  0  0  0  0  0  0  0  0
   -1.6272   13.9002   -0.3831 H   0  0  0  0  0  0  0  0  0  0  0  0
   -1.8105   13.2673   -2.1027 H   0  0  0  0  0  0  0  0  0  0  0  0
   -0.8293   11.5771   -0.3358 H   0  0  0  0  0  0  0  0  0  0  0  0
    2.4176   13.5444   -1.7098 H   0  0  0  0  0  0  0  0  0  0  0  0
    1.5650   11.7438   -4.0608 H   0  0  0  0  0  0  0  0  0  0  0  0
    2.9657   12.9043   -4.0256 H   0  0  0  0  0  0  0  0  0  0  0  0
    3.6869   10.5559   -3.7324 H   0  0  0  0  0  0  0  0  0  0  0  0
    4.0498   11.5915   -2.2961 H   0  0  0  0  0  0  0  0  0  0  0  0
    3.2086    9.4790   -1.5300 H   0  0  0  0  0  0  0  0  0  0  0  0
    1.8080    9.5320   -3.7240 H   0  0  0  0  0  0  0  0  0  0  0  0
    2.3959   11.2082    1.2182 H   0  0  0  0  0  0  0  0  0  0  0  0
    3.7257   10.8771    0.0569 H   0  0  0  0  0  0  0  0  0  0  0  0
    2.9112   12.4781    0.0569 H   0  0  0  0  0  0  0  0  0  0  0  0
    0.9907    9.9489    0.9991 H   0  0  0  0  0  0  0  0  0  0  0  0
   -0.1760    9.9337   -0.3667 H   0  0  0  0  0  0  0  0  0  0  0  0
    1.2215    8.8051   -0.3667 H   0  0  0  0  0  0  0  0  0  0  0  0
   -0.8875   13.2618   -3.8772 H   0  0  0  0  0  0  0  0  0  0  0  0
   -0.2333   14.6820   -4.7614 H   0  0  0  0  0  0  0  0  0  0  0  0
    0.6705   13.1296   -4.7614 H   0  0  0  0  0  0  0  0  0  0  0  0
    2.6898   14.9346   -3.7016 H   0  0  0  0  0  0  0  0  0  0  0  0
    1.2035   15.9777   -4.0725 H   0  0  0  0  0  0  0  0  0  0  0  0
    2.8458   15.9385   -1.5261 H   0  0  0  0  0  0  0  0  0  0  0  0
    2.6675   17.2712   -2.7342 H   0  0  0  0  0  0  0  0  0  0  0  0
   -0.7076   18.3076   -1.9997 H   0  0  0  0  0  0  0  0  0  0  0  0
    0.6578   18.3418   -3.1664 H   0  0  0  0  0  0  0  0  0  0  0  0
   -0.4891   16.9593   -3.1664 H   0  0  0  0  0  0  0  0  0  0  0  0
  1  2  1  0
  2  3  1  0
  3  4  1  0
  4  5  1  0
  5  6  1  0
  6  7  1  0
  7  8  1  0
  7  9  1  0
  2 10  1  0
 10 11  1  0
 11 12  1  0
 12 13  1  0
 13 14  1  1
 13 15  1  0
 15 16  1  0
 16 17  1  0
 17 18  2  0
 18 19  1  0
 19 20  1  0
 20 21  1  0
 21 22  1  0
 22 23  1  0
 22 24  1  0
 24 25  1  0
 24 26  1  0
 19 27  1  0
 27 28  1  6
 27 29  1  0
 29 30  1  0
 30 31  1  0
 31 32  1  6
  7  5  1  0
 31 10  1  0
 31 13  1  0
 27 15  1  0
 24 18  1  0
  1 33  1  0
  1 34  1  0
  1 35  1  0
  2 36  1  6
  3 37  1  0
  3 38  1  0
  4 39  1  0
  4 40  1  0
  5 41  1  1
  8 42  1  0
  8 43  1  0
  8 44  1  0
  9 45  1  0
  9 46  1  0
  9 47  1  0
 10 48  1  1
 11 49  1  0
 11 50  1  0
 12 51  1  0
 12 52  1  0
 14 53  1  0
 14 54  1  0
 14 55  1  0
 15 56  1  6
 16 57  1  0
 16 58  1  0
 17 59  1  0
 19 60  1  1
 20 61  1  0
 20 62  1  0
 21 63  1  0
 21 64  1  0
 22 65  1  1
 23 66  1  0
 25 67  1  0
 25 68  1  0
 25 69  1  0
 26 70  1  0
 26 71  1  0
 26 72  1  0
 28 73  1  0
 28 74  1  0
 28 75  1  0
 29 76  1  0
 29 77  1  0
 30 78  1  0
 30 79  1  0
 32 80  1  0
 32 81  1  0
 32 82  1  0
M  END
>  <meeko>  (9) 
{"is_sidechain": [false], "intermolecular_energy": 2.731, "internal_energy": -0.839}

$$$$
EPH_relaxed_0001_pdb2pqr_Repair_398_r2_0001_out
     RDKit          3D

 82 86  0  0  0  0  0  0  0  0999 V2000
    2.7200   18.0020   -3.8040 C   0  0  0  0  0  0  0  0  0  0  0  0
    1.9660   17.9270   -2.4730 C   0  0  2  0  0  0  0  0  0  0  0  0
    2.3860   19.0490   -1.5040 C   0  0  0  0  0  0  0  0  0  0  0  0
    1.3740   20.1940   -1.4130 C   0  0  0  0  0  0  0  0  0  0  0  0
    0.3110   19.9150   -0.3930 C   0  0  2  0  0  0  0  0  0  0  0  0
   -0.4140   18.6960   -0.6030 O   0  0  0  0  0  0  0  0  0  0  0  0
   -1.1720   19.9110   -0.7110 C   0  0  0  0  0  0  0  0  0  0  0  0
   -1.6750   20.1940   -2.0920 C   0  0  0  0  0  0  0  0  0  0  0  0
   -2.1440   20.1160    0.4090 C   0  0  0  0  0  0  0  0  0  0  0  0
    2.1930   16.5660   -1.8240 C   0  0  1  0  0  0  0  0  0  0  0  0
    2.7150   16.6790   -0.3670 C   0  0  0  0  0  0  0  0  0  0  0  0
    2.0930   15.4980    0.4230 C   0  0  0  0  0  0  0  0  0  0  0  0
    1.5110   14.5650   -0.6640 C   0  0  1  0  0  0  0  0  0  0  0  0
    2.7320   13.7410   -1.1820 C   0  0  0  0  0  0  0  0  0  0  0  0
    0.3340   13.6360   -0.2200 C   0  0  2  0  0  0  0  0  0  0  0  0
    0.6870   12.6160    0.8770 C   0  0  0  0  0  0  0  0  0  0  0  0
    1.1740   11.2930    0.3840 C   0  0  0  0  0  0  0  0  0  0  0  0
    1.0540   10.8360   -0.8760 C   0  0  0  0  0  0  0  0  0  0  0  0
    0.2890   11.6380   -1.9360 C   0  0  1  0  0  0  0  0  0  0  0  0
   -0.6670   10.6930   -2.7100 C   0  0  0  0  0  0  0  0  0  0  0  0
    0.0550    9.4860   -3.3010 C   0  0  0  0  0  0  0  0  0  0  0  0
    0.7560    8.6810   -2.2100 C   0  0  2  0  0  0  0  0  0  0  0  0
   -0.2360    8.0950   -1.3610 O   0  0  0  0  0  0  0  0  0  0  0  0
    1.7380    9.5320   -1.3560 C   0  0  0  0  0  0  0  0  0  0  0  0
    2.9720    9.9160   -2.2110 C   0  0  0  0  0  0  0  0  0  0  0  0
    2.2690    8.6360   -0.2050 C   0  0  0  0  0  0  0  0  0  0  0  0
   -0.4400   12.9520   -1.4180 C   0  0  1  0  0  0  0  0  0  0  0  0
   -1.8620   12.5980   -0.8850 C   0  0  0  0  0  0  0  0  0  0  0  0
   -0.6520   13.9340   -2.6310 C   0  0  0  0  0  0  0  0  0  0  0  0
    0.4980   14.9090   -2.9460 C   0  0  0  0  0  0  0  0  0  0  0  0
    0.9640   15.6340   -1.6800 C   0  0  2  0  0  0  0  0  0  0  0  0
   -0.2370   16.4890   -1.1480 C   0  0  0  0  0  0  0  0  0  0  0  0
    3.7974   18.1092   -3.6096 H   0  0  0  0  0  0  0  0  0  0  0  0
    2.5410   17.0816   -4.3792 H   0  0  0  0  0  0  0  0  0  0  0  0
    2.3632   18.8691   -4.3792 H   0  0  0  0  0  0  0  0  0  0  0  0
    0.8961   18.0622   -2.6901 H   0  0  0  0  0  0  0  0  0  0  0  0
    2.5092   18.6139   -0.5013 H   0  0  0  0  0  0  0  0  0  0  0  0
    3.3215   19.4769   -1.8936 H   0  0  0  0  0  0  0  0  0  0  0  0
    1.9037   21.1164   -1.1327 H   0  0  0  0  0  0  0  0  0  0  0  0
    0.8882   20.3009   -2.3941 H   0  0  0  0  0  0  0  0  0  0  0  0
    0.8963   20.4189    0.3903 H   0  0  0  0  0  0  0  0  0  0  0  0
   -2.6322   20.7325   -2.0304 H   0  0  0  0  0  0  0  0  0  0  0  0
   -0.9408   20.8115   -2.6303 H   0  0  0  0  0  0  0  0  0  0  0  0
   -1.8216   19.2460   -2.6303 H   0  0  0  0  0  0  0  0  0  0  0  0
   -1.6229   20.0061    1.3715 H   0  0  0  0  0  0  0  0  0  0  0  0
   -2.5763   21.1251    0.3392 H   0  0  0  0  0  0  0  0  0  0  0  0
   -2.9470   19.3675    0.3392 H   0  0  0  0  0  0  0  0  0  0  0  0
    2.9088   16.1362   -2.5402 H   0  0  0  0  0  0  0  0  0  0  0  0
    3.8127   16.6091   -0.3512 H   0  0  0  0  0  0  0  0  0  0  0  0
    2.4349   17.6445    0.0796 H   0  0  0  0  0  0  0  0  0  0  0  0
    2.8623   14.9763    1.0112 H   0  0  0  0  0  0  0  0  0  0  0  0
    1.3278   15.8322    1.1391 H   0  0  0  0  0  0  0  0  0  0  0  0
    3.3039   13.3551   -0.3253 H   0  0  0  0  0  0  0  0  0  0  0  0
    2.3737   12.8993   -1.7928 H   0  0  0  0  0  0  0  0  0  0  0  0
    3.3785   14.3882   -1.7928 H   0  0  0  0  0  0  0  0  0  0  0  0
   -0.3647   14.3466    0.2458 H   0  0  0  0  0  0  0  0  0  0  0  0
    1.4740   13.0543    1.5083 H   0  0  0  0  0  0  0  0  0  0  0  0
   -0.2493   12.4138    1.4177 H   0  0  0  0  0  0  0  0  0  0  0  0
    1.6729   10.6368    1.1123 H   0  0  0  0  0  0  0  0  0  0  0  0
    1.0499   12.0414   -2.6202 H   0  0  0  0  0  0  0  0  0  0  0  0
   -1.4447   10.3352   -2.0192 H   0  0  0  0  0  0  0  0  0  0  0  0
   -1.0987   11.2652   -3.5444 H   0  0  0  0  0  0  0  0  0  0  0  0
   -0.6776    8.8417   -3.8092 H   0  0  0  0  0  0  0  0  0  0  0  0
    0.8122    9.8445   -4.0139 H   0  0  0  0  0  0  0  0  0  0  0  0
    1.3610    7.9083   -2.7068 H   0  0  0  0  0  0  0  0  0  0  0  0
   -0.6360    7.3530   -1.8440 H   0  0  0  0  0  0  0  0  0  0  0  0
    3.8104   10.1769   -1.5484 H   0  0  0  0  0  0  0  0  0  0  0  0
    3.2577    9.0643   -2.8458 H   0  0  0  0  0  0  0  0  0  0  0  0
    2.7239   10.7794   -2.8458 H   0  0  0  0  0  0  0  0  0  0  0  0
    2.0024    9.0859    0.7627 H   0  0  0  0  0  0  0  0  0  0  0  0
    1.8178    7.6357   -0.2810 H   0  0  0  0  0  0  0  0  0  0  0  0
    3.3631    8.5515   -0.2810 H   0  0  0  0  0  0  0  0  0  0  0  0
   -1.8524   12.6004    0.2150 H   0  0  0  0  0  0  0  0  0  0  0  0
   -2.5853   13.3435   -1.2470 H   0  0  0  0  0  0  0  0  0  0  0  0
   -2.1514   11.6004   -1.2470 H   0  0  0  0  0  0  0  0  0  0  0  0
   -0.8240   13.3216   -3.5285 H   0  0  0  0  0  0  0  0  0  0  0  0
   -1.4984   14.5729   -2.3388 H   0  0  0  0  0  0  0  0  0  0  0  0
    1.3423   14.3450   -3.3691 H   0  0  0  0  0  0  0  0  0  0  0  0
    0.1359   15.6577   -3.6659 H   0  0  0  0  0  0  0  0  0  0  0  0
   -0.2312   16.4849   -0.0480 H   0  0  0  0  0  0  0  0  0  0  0  0
   -0.1405   17.5228   -1.5113 H   0  0  0  0  0  0  0  0  0  0  0  0
   -1.1822   16.0594   -1.5113 H   0  0  0  0  0  0  0  0  0  0  0  0
  1  2  1  0
  2  3  1  0
  3  4  1  0
  4  5  1  0
  5  6  1  0
  6  7  1  0
  7  8  1  0
  7  9  1  0
  2 10  1  0
 10 11  1  0
 11 12  1  0
 12 13  1  0
 13 14  1  6
 13 15  1  0
 15 16  1  0
 16 17  1  0
 17 18  2  0
 18 19  1  0
 19 20  1  0
 20 21  1  0
 21 22  1  0
 22 23  1  0
 22 24  1  0
 24 25  1  0
 24 26  1  0
 19 27  1  0
 27 28  1  1
 27 29  1  0
 29 30  1  0
 30 31  1  0
 31 32  1  1
  7  5  1  0
 31 10  1  0
 31 13  1  0
 27 15  1  0
 24 18  1  0
  1 33  1  0
  1 34  1  0
  1 35  1  0
  2 36  1  6
  3 37  1  0
  3 38  1  0
  4 39  1  0
  4 40  1  0
  5 41  1  1
  8 42  1  0
  8 43  1  0
  8 44  1  0
  9 45  1  0
  9 46  1  0
  9 47  1  0
 10 48  1  6
 11 49  1  0
 11 50  1  0
 12 51  1  0
 12 52  1  0
 14 53  1  0
 14 54  1  0
 14 55  1  0
 15 56  1  1
 16 57  1  0
 16 58  1  0
 17 59  1  0
 19 60  1  6
 20 61  1  0
 20 62  1  0
 21 63  1  0
 21 64  1  0
 22 65  1  6
 23 66  1  0
 25 67  1  0
 25 68  1  0
 25 69  1  0
 26 70  1  0
 26 71  1  0
 26 72  1  0
 28 73  1  0
 28 74  1  0
 28 75  1  0
 29 76  1  0
 29 77  1  0
 30 78  1  0
 30 79  1  0
 32 80  1  0
 32 81  1  0
 32 82  1  0
M  END
>  <meeko>  (10) 
{"is_sidechain": [false], "intermolecular_energy": 2.731, "internal_energy": -0.839}

$$$$
EPH_relaxed_0001_pdb2pqr_Repair_398_r2_0001_out
     RDKit          3D

 82 86  0  0  0  0  0  0  0  0999 V2000
   -0.9370   16.4010   -5.8910 C   0  0  0  0  0  0  0  0  0  0  0  0
    0.1610   15.7080   -6.7030 C   0  0  2  0  0  0  0  0  0  0  0  0
   -0.2420   15.5140   -8.1780 C   0  0  0  0  0  0  0  0  0  0  0  0
    0.3980   16.5290   -9.1300 C   0  0  0  0  0  0  0  0  0  0  0  0
    1.8160   16.1680   -9.4530 C   0  0  2  0  0  0  0  0  0  0  0  0
    2.3070   16.7120  -10.6850 O   0  0  0  0  0  0  0  0  0  0  0  0
    2.2090   15.2800  -10.6190 C   0  0  0  0  0  0  0  0  0  0  0  0
    1.1810   14.6970  -11.5360 C   0  0  0  0  0  0  0  0  0  0  0  0
    3.5350   14.5870  -10.5750 C   0  0  0  0  0  0  0  0  0  0  0  0
    0.5010   14.3620   -6.0740 C   0  0  1  0  0  0  0  0  0  0  0  0
    1.7250   13.6820   -6.7430 C   0  0  0  0  0  0  0  0  0  0  0  0
    2.4860   12.9290   -5.6220 C   0  0  0  0  0  0  0  0  0  0  0  0
    1.5090   12.9210   -4.4240 C   0  0  1  0  0  0  0  0  0  0  0  0
    0.5230   11.7460   -4.7180 C   0  0  0  0  0  0  0  0  0  0  0  0
    2.1540   12.7910   -3.0060 C   0  0  2  0  0  0  0  0  0  0  0  0
    2.9250   11.4830   -2.7570 C   0  0  0  0  0  0  0  0  0  0  0  0
    2.1180   10.3660   -2.1830 C   0  0  0  0  0  0  0  0  0  0  0  0
    0.9040   10.4910   -1.6150 C   0  0  0  0  0  0  0  0  0  0  0  0
    0.2630   11.8710   -1.4190 C   0  0  1  0  0  0  0  0  0  0  0  0
   -0.3070   11.9780    0.0190 C   0  0  0  0  0  0  0  0  0  0  0  0
   -1.2630   10.8380    0.3560 C   0  0  0  0  0  0  0  0  0  0  0  0
   -0.5730    9.4850    0.2060 C   0  0  2  0  0  0  0  0  0  0  0  0
    0.4460    9.3740    1.2050 O   0  0  0  0  0  0  0  0  0  0  0  0
    0.0500    9.2670   -1.2010 C   0  0  0  0  0  0  0  0  0  0  0  0
   -1.0790    9.0860   -2.2470 C   0  0  0  0  0  0  0  0  0  0  0  0
    0.8350    7.9280   -1.1740 C   0  0  0  0  0  0  0  0  0  0  0  0
    1.1680   13.1170   -1.8120 C   0  0  1  0  0  0  0  0  0  0  0  0
    2.0570   13.5320   -0.6000 C   0  0  0  0  0  0  0  0  0  0  0  0
    0.2380   14.3490   -2.1230 C   0  0  0  0  0  0  0  0  0  0  0  0
   -0.2700   14.4880   -3.5700 C   0  0  0  0  0  0  0  0  0  0  0  0
    0.8810   14.3550   -4.5720 C   0  0  2  0  0  0  0  0  0  0  0  0
    1.8780   15.5360   -4.3150 C   0  0  0  0  0  0  0  0  0  0  0  0
   -0.7349   16.2734   -4.8173 H   0  0  0  0  0  0  0  0  0  0  0  0
   -0.9530   17.4732   -6.1362 H   0  0  0  0  0  0  0  0  0  0  0  0
   -1.9118   15.9542   -6.1362 H   0  0  0  0  0  0  0  0  0  0  0  0
    1.0465   16.3604   -6.6865 H   0  0  0  0  0  0  0  0  0  0  0  0
    0.0623   14.5044   -8.4912 H   0  0  0  0  0  0  0  0  0  0  0  0
   -1.3306   15.6613   -8.2358 H   0  0  0  0  0  0  0  0  0  0  0  0
   -0.1837   16.5586  -10.0631 H   0  0  0  0  0  0  0  0  0  0  0  0
    0.3984   17.5111   -8.6345 H   0  0  0  0  0  0  0  0  0  0  0  0
    2.0768   16.1414   -8.3847 H   0  0  0  0  0  0  0  0  0  0  0  0
    0.3760   14.2405  -10.9414 H   0  0  0  0  0  0  0  0  0  0  0  0
    0.7625   15.4922  -12.1705 H   0  0  0  0  0  0  0  0  0  0  0  0
    1.6486   13.9297  -12.1705 H   0  0  0  0  0  0  0  0  0  0  0  0
    3.8328   14.4314   -9.5276 H   0  0  0  0  0  0  0  0  0  0  0  0
    3.4573   13.6142  -11.0825 H   0  0  0  0  0  0  0  0  0  0  0  0
    4.2893   15.2062  -11.0825 H   0  0  0  0  0  0  0  0  0  0  0  0
   -0.4568   13.8418   -6.2224 H   0  0  0  0  0  0  0  0  0  0  0  0
    1.3899   12.9738   -7.5151 H   0  0  0  0  0  0  0  0  0  0  0  0
    2.3731   14.4258   -7.2296 H   0  0  0  0  0  0  0  0  0  0  0  0
    2.7234   11.9019   -5.9362 H   0  0  0  0  0  0  0  0  0  0  0  0
    3.4449   13.4080   -5.3748 H   0  0  0  0  0  0  0  0  0  0  0  0
    0.1660   11.3206   -3.7685 H   0  0  0  0  0  0  0  0  0  0  0  0
   -0.3337   12.1223   -5.2963 H   0  0  0  0  0  0  0  0  0  0  0  0
    1.0423   10.9676   -5.2963 H   0  0  0  0  0  0  0  0  0  0  0  0
    2.9128   13.5872   -3.0191 H   0  0  0  0  0  0  0  0  0  0  0  0
    3.3388   11.1442   -3.7182 H   0  0  0  0  0  0  0  0  0  0  0  0
    3.6927   11.7208   -2.0059 H   0  0  0  0  0  0  0  0  0  0  0  0
    2.5517    9.3561   -2.2279 H   0  0  0  0  0  0  0  0  0  0  0  0
   -0.5568   11.9326   -2.1498 H   0  0  0  0  0  0  0  0  0  0  0  0
    0.5301   11.9587    0.7324 H   0  0  0  0  0  0  0  0  0  0  0  0
   -0.8733   12.9188    0.0844 H   0  0  0  0  0  0  0  0  0  0  0  0
   -1.6084   10.9528    1.3940 H   0  0  0  0  0  0  0  0  0  0  0  0
   -2.1145   10.8768   -0.3393 H   0  0  0  0  0  0  0  0  0  0  0  0
   -1.3410    8.7077    0.3328 H   0  0  0  0  0  0  0  0  0  0  0  0
    0.4170   10.1810    1.7460 H   0  0  0  0  0  0  0  0  0  0  0  0
   -2.0373    8.9324   -1.7293 H   0  0  0  0  0  0  0  0  0  0  0  0
   -1.1427    9.9854   -2.8771 H   0  0  0  0  0  0  0  0  0  0  0  0
   -0.8584    8.2118   -2.8771 H   0  0  0  0  0  0  0  0  0  0  0  0
    1.0113    7.6273   -0.1307 H   0  0  0  0  0  0  0  0  0  0  0  0
    0.2502    7.1497   -1.6861 H   0  0  0  0  0  0  0  0  0  0  0  0
    1.7998    8.0582   -1.6861 H   0  0  0  0  0  0  0  0  0  0  0  0
    1.5356   13.2886    0.3375 H   0  0  0  0  0  0  0  0  0  0  0  0
    3.0112   12.9862   -0.6413 H   0  0  0  0  0  0  0  0  0  0  0  0
    2.2513   14.6139   -0.6413 H   0  0  0  0  0  0  0  0  0  0  0  0
   -0.6420   14.2756   -1.4670 H   0  0  0  0  0  0  0  0  0  0  0  0
    0.8675   15.2349   -1.9527 H   0  0  0  0  0  0  0  0  0  0  0  0
   -1.0118   13.7002   -3.7679 H   0  0  0  0  0  0  0  0  0  0  0  0
   -0.7234   15.4833   -3.6878 H   0  0  0  0  0  0  0  0  0  0  0  0
    2.0016   15.6824   -3.2318 H   0  0  0  0  0  0  0  0  0  0  0  0
    2.8525   15.2980   -4.7664 H   0  0  0  0  0  0  0  0  0  0  0  0
    1.4799   16.4567   -4.7664 H   0  0  0  0  0  0  0  0  0  0  0  0
  1  2  1  0
  2  3  1  0
  3  4  1  0
  4  5  1  0
  5  6  1  0
  6  7  1  0
  7  8  1  0
  7  9  1  0
  2 10  1  0
 10 11  1  0
 11 12  1  0
 12 13  1  0
 13 14  1  6
 13 15  1  0
 15 16  1  0
 16 17  1  0
 17 18  2  0
 18 19  1  0
 19 20  1  0
 20 21  1  0
 21 22  1  0
 22 23  1  0
 22 24  1  0
 24 25  1  0
 24 26  1  0
 19 27  1  0
 27 28  1  1
 27 29  1  0
 29 30  1  0
 30 31  1  0
 31 32  1  6
  7  5  1  0
 31 10  1  0
 31 13  1  0
 27 15  1  0
 24 18  1  0
  1 33  1  0
  1 34  1  0
  1 35  1  0
  2 36  1  6
  3 37  1  0
  3 38  1  0
  4 39  1  0
  4 40  1  0
  5 41  1  1
  8 42  1  0
  8 43  1  0
  8 44  1  0
  9 45  1  0
  9 46  1  0
  9 47  1  0
 10 48  1  1
 11 49  1  0
 11 50  1  0
 12 51  1  0
 12 52  1  0
 14 53  1  0
 14 54  1  0
 14 55  1  0
 15 56  1  6
 16 57  1  0
 16 58  1  0
 17 59  1  0
 19 60  1  6
 20 61  1  0
 20 62  1  0
 21 63  1  0
 21 64  1  0
 22 65  1  1
 23 66  1  0
 25 67  1  0
 25 68  1  0
 25 69  1  0
 26 70  1  0
 26 71  1  0
 26 72  1  0
 28 73  1  0
 28 74  1  0
 28 75  1  0
 29 76  1  0
 29 77  1  0
 30 78  1  0
 30 79  1  0
 32 80  1  0
 32 81  1  0
 32 82  1  0
M  END
>  <meeko>  (11) 
{"is_sidechain": [false], "intermolecular_energy": 2.731, "internal_energy": -0.839}

$$$$
EPH_relaxed_0001_pdb2pqr_Repair_398_r2_0001_out
     RDKit          3D

 82 86  0  0  0  0  0  0  0  0999 V2000
   -0.0170    9.3420   -2.4120 C   0  0  0  0  0  0  0  0  0  0  0  0
    1.0580   10.3380   -2.8550 C   0  0  2  0  0  0  0  0  0  0  0  0
    2.4540    9.6880   -2.9360 C   0  0  0  0  0  0  0  0  0  0  0  0
    3.4110   10.4040   -3.8920 C   0  0  0  0  0  0  0  0  0  0  0  0
    4.7980   10.4850   -3.3300 C   0  0  2  0  0  0  0  0  0  0  0  0
    5.3800   11.7950   -3.3590 O   0  0  0  0  0  0  0  0  0  0  0  0
    6.0240   10.7980   -4.1690 C   0  0  0  0  0  0  0  0  0  0  0  0
    5.9190   11.0480   -5.6410 C   0  0  0  0  0  0  0  0  0  0  0  0
    7.3670   10.3790   -3.6570 C   0  0  0  0  0  0  0  0  0  0  0  0
    1.0910   11.5250   -1.8990 C   0  0  1  0  0  0  0  0  0  0  0  0
    2.1530   11.3620   -0.7800 C   0  0  0  0  0  0  0  0  0  0  0  0
    2.7150   12.7770   -0.4870 C   0  0  0  0  0  0  0  0  0  0  0  0
    1.7370   13.7400   -1.1980 C   0  0  1  0  0  0  0  0  0  0  0  0
    0.5290   13.8800   -0.2190 C   0  0  0  0  0  0  0  0  0  0  0  0
    2.3130   15.1350   -1.6050 C   0  0  2  0  0  0  0  0  0  0  0  0
    2.7830   16.0150   -0.4330 C   0  0  0  0  0  0  0  0  0  0  0  0
    1.7450   16.9240    0.1370 C   0  0  0  0  0  0  0  0  0  0  0  0
    0.5750   17.2400   -0.4490 C   0  0  0  0  0  0  0  0  0  0  0  0
    0.2400   16.7410   -1.8600 C   0  0  1  0  0  0  0  0  0  0  0  0
   -0.3200   17.9140   -2.7060 C   0  0  0  0  0  0  0  0  0  0  0  0
   -1.5040   18.6050   -2.0360 C   0  0  0  0  0  0  0  0  0  0  0  0
   -1.1150   19.1400   -0.6590 C   0  0  2  0  0  0  0  0  0  0  0  0
   -0.1620   20.1940   -0.8260 O   0  0  0  0  0  0  0  0  0  0  0  0
   -0.5280   18.0480    0.2780 C   0  0  0  0  0  0  0  0  0  0  0  0
   -1.6500   17.0670    0.7010 C   0  0  0  0  0  0  0  0  0  0  0  0
   -0.0480   18.7450    1.5800 C   0  0  0  0  0  0  0  0  0  0  0  0
    1.3970   15.9480   -2.6080 C   0  0  1  0  0  0  0  0  0  0  0  0
    2.3320   16.9490   -3.3530 C   0  0  0  0  0  0  0  0  0  0  0  0
    0.7590   15.0280   -3.7150 C   0  0  0  0  0  0  0  0  0  0  0  0
    0.3180   13.6180   -3.2770 C   0  0  0  0  0  0  0  0  0  0  0  0
    1.4330   12.9120   -2.4990 C   0  0  2  0  0  0  0  0  0  0  0  0
    2.6530   12.7380   -3.4660 C   0  0  0  0  0  0  0  0  0  0  0  0
   -0.0543    9.3074   -1.3132 H   0  0  0  0  0  0  0  0  0  0  0  0
   -0.9949    9.6603   -2.8023 H   0  0  0  0  0  0  0  0  0  0  0  0
    0.2259    8.3427   -2.8023 H   0  0  0  0  0  0  0  0  0  0  0  0
    0.7949   10.6815   -3.8663 H   0  0  0  0  0  0  0  0  0  0  0  0
    2.8989    9.6941   -1.9300 H   0  0  0  0  0  0  0  0  0  0  0  0
    2.3123    8.6692   -3.3259 H   0  0  0  0  0  0  0  0  0  0  0  0
    3.4434    9.8526   -4.8433 H   0  0  0  0  0  0  0  0  0  0  0  0
    3.0417   11.4291   -4.0430 H   0  0  0  0  0  0  0  0  0  0  0  0
    4.5803    9.6793   -2.6135 H   0  0  0  0  0  0  0  0  0  0  0  0
    5.4983   12.0496   -5.8137 H   0  0  0  0  0  0  0  0  0  0  0  0
    6.9188   10.9869   -6.0955 H   0  0  0  0  0  0  0  0  0  0  0  0
    5.2627   10.2913   -6.0955 H   0  0  0  0  0  0  0  0  0  0  0  0
    7.3573   10.3820   -2.5570 H   0  0  0  0  0  0  0  0  0  0  0  0
    7.5977    9.3662   -4.0189 H   0  0  0  0  0  0  0  0  0  0  0  0
    8.1327   11.0809   -4.0189 H   0  0  0  0  0  0  0  0  0  0  0  0
    0.0470   11.5115   -1.5528 H   0  0  0  0  0  0  0  0  0  0  0  0
    1.6883   10.9441    0.1252 H   0  0  0  0  0  0  0  0  0  0  0  0
    2.9540   10.6759   -1.0926 H   0  0  0  0  0  0  0  0  0  0  0  0
    2.7329   12.9712    0.5956 H   0  0  0  0  0  0  0  0  0  0  0  0
    3.7495   12.8965   -0.8413 H   0  0  0  0  0  0  0  0  0  0  0  0
    0.8913   13.8380    0.8188 H   0  0  0  0  0  0  0  0  0  0  0  0
    0.0257   14.8425   -0.3930 H   0  0  0  0  0  0  0  0  0  0  0  0
   -0.1811   13.0581   -0.3930 H   0  0  0  0  0  0  0  0  0  0  0  0
    3.2245   14.8610   -2.1565 H   0  0  0  0  0  0  0  0  0  0  0  0
    3.1328   15.3514    0.3716 H   0  0  0  0  0  0  0  0  0  0  0  0
    3.5701   16.6677   -0.8386 H   0  0  0  0  0  0  0  0  0  0  0  0
    1.9539   17.3736    1.1189 H   0  0  0  0  0  0  0  0  0  0  0  0
   -0.5341   15.9699   -1.7330 H   0  0  0  0  0  0  0  0  0  0  0  0
    0.4804   18.6533   -2.8573 H   0  0  0  0  0  0  0  0  0  0  0  0
   -0.6727   17.4983   -3.6614 H   0  0  0  0  0  0  0  0  0  0  0  0
   -1.8365   19.4424   -2.6670 H   0  0  0  0  0  0  0  0  0  0  0  0
   -2.3147   17.8719   -1.9121 H   0  0  0  0  0  0  0  0  0  0  0  0
   -2.0325   19.5076   -0.1763 H   0  0  0  0  0  0  0  0  0  0  0  0
   -0.5600   21.0080   -0.4740 H   0  0  0  0  0  0  0  0  0  0  0  0
   -1.7024   17.0212    1.7988 H   0  0  0  0  0  0  0  0  0  0  0  0
   -2.6133   17.4178    0.3023 H   0  0  0  0  0  0  0  0  0  0  0  0
   -1.4310   16.0655    0.3023 H   0  0  0  0  0  0  0  0  0  0  0  0
   -0.4279   18.1934    2.4526 H   0  0  0  0  0  0  0  0  0  0  0  0
    1.0516   18.7582    1.6048 H   0  0  0  0  0  0  0  0  0  0  0  0
   -0.4278   19.7771    1.6048 H   0  0  0  0  0  0  0  0  0  0  0  0
    2.8901   17.5465   -2.6171 H   0  0  0  0  0  0  0  0  0  0  0  0
    3.0391   16.3903   -3.9837 H   0  0  0  0  0  0  0  0  0  0  0  0
    1.7264   17.6164   -3.9837 H   0  0  0  0  0  0  0  0  0  0  0  0
   -0.1276   15.5468   -4.1085 H   0  0  0  0  0  0  0  0  0  0  0  0
    1.5608   14.8636   -4.4499 H   0  0  0  0  0  0  0  0  0  0  0  0
   -0.5712   13.7023   -2.6349 H   0  0  0  0  0  0  0  0  0  0  0  0
    0.0890   13.0269   -4.1760 H   0  0  0  0  0  0  0  0  0  0  0  0
    3.5724   12.6069   -2.8765 H   0  0  0  0  0  0  0  0  0  0  0  0
    2.4949   11.8533   -4.1003 H   0  0  0  0  0  0  0  0  0  0  0  0
    2.7485   13.6316   -4.1003 H   0  0  0  0  0  0  0  0  0  0  0  0
  1  2  1  0
  2  3  1  0
  3  4  1  0
  4  5  1  0
  5  6  1  0
  6  7  1  0
  7  8  1  0
  7  9  1  0
  2 10  1  0
 10 11  1  0
 11 12  1  0
 12 13  1  0
 13 14  1  1
 13 15  1  0
 15 16  1  0
 16 17  1  0
 17 18  2  0
 18 19  1  0
 19 20  1  0
 20 21  1  0
 21 22  1  0
 22 23  1  0
 22 24  1  0
 24 25  1  0
 24 26  1  0
 19 27  1  0
 27 28  1  6
 27 29  1  0
 29 30  1  0
 30 31  1  0
 31 32  1  6
  7  5  1  0
 31 10  1  0
 31 13  1  0
 27 15  1  0
 24 18  1  0
  1 33  1  0
  1 34  1  0
  1 35  1  0
  2 36  1  6
  3 37  1  0
  3 38  1  0
  4 39  1  0
  4 40  1  0
  5 41  1  1
  8 42  1  0
  8 43  1  0
  8 44  1  0
  9 45  1  0
  9 46  1  0
  9 47  1  0
 10 48  1  1
 11 49  1  0
 11 50  1  0
 12 51  1  0
 12 52  1  0
 14 53  1  0
 14 54  1  0
 14 55  1  0
 15 56  1  6
 16 57  1  0
 16 58  1  0
 17 59  1  0
 19 60  1  1
 20 61  1  0
 20 62  1  0
 21 63  1  0
 21 64  1  0
 22 65  1  1
 23 66  1  0
 25 67  1  0
 25 68  1  0
 25 69  1  0
 26 70  1  0
 26 71  1  0
 26 72  1  0
 28 73  1  0
 28 74  1  0
 28 75  1  0
 29 76  1  0
 29 77  1  0
 30 78  1  0
 30 79  1  0
 32 80  1  0
 32 81  1  0
 32 82  1  0
M  END
>  <meeko>  (12) 
{"is_sidechain": [false], "intermolecular_energy": 2.731, "internal_energy": -0.839}

$$$$
EPH_relaxed_0001_pdb2pqr_Repair_398_r2_0001_out
     RDKit          3D

 82 86  0  0  0  0  0  0  0  0999 V2000
   -0.2860   15.1240   -7.7140 C   0  0  0  0  0  0  0  0  0  0  0  0
    1.0770   15.1170   -7.0160 C   0  0  2  0  0  0  0  0  0  0  0  0
    2.2440   15.2200   -8.0190 C   0  0  0  0  0  0  0  0  0  0  0  0
    2.2570   16.5270   -8.8160 C   0  0  0  0  0  0  0  0  0  0  0  0
    1.8600   16.3100  -10.2440 C   0  0  2  0  0  0  0  0  0  0  0  0
    1.1920   15.0660  -10.4980 O   0  0  0  0  0  0  0  0  0  0  0  0
    2.4710   15.2390  -11.1290 C   0  0  0  0  0  0  0  0  0  0  0  0
    3.5320   14.3160  -10.6160 C   0  0  0  0  0  0  0  0  0  0  0  0
    2.3930   15.4070  -12.6140 C   0  0  0  0  0  0  0  0  0  0  0  0
    1.2240   13.8540   -6.1750 C   0  0  1  0  0  0  0  0  0  0  0  0
    2.6540   13.2550   -6.2410 C   0  0  0  0  0  0  0  0  0  0  0  0
    2.9520   12.6540   -4.8430 C   0  0  0  0  0  0  0  0  0  0  0  0
    1.5800   12.6280   -4.1290 C   0  0  1  0  0  0  0  0  0  0  0  0
    0.8710   11.3460   -4.6680 C   0  0  0  0  0  0  0  0  0  0  0  0
    1.6140   12.6550   -2.5660 C   0  0  2  0  0  0  0  0  0  0  0  0
    2.3040   11.4470   -1.9080 C   0  0  0  0  0  0  0  0  0  0  0  0
    1.4080   10.2970   -1.5890 C   0  0  0  0  0  0  0  0  0  0  0  0
    0.0630   10.3380   -1.5570 C   0  0  0  0  0  0  0  0  0  0  0  0
   -0.6890   11.6590   -1.7650 C   0  0  1  0  0  0  0  0  0  0  0  0
   -1.7910   11.8030   -0.6820 C   0  0  0  0  0  0  0  0  0  0  0  0
   -2.7270   10.5990   -0.6360 C   0  0  0  0  0  0  0  0  0  0  0  0
   -1.9490    9.3130   -0.3700 C   0  0  2  0  0  0  0  0  0  0  0  0
   -1.4080    9.3680    0.9540 O   0  0  0  0  0  0  0  0  0  0  0  0
   -0.8050    9.0660   -1.3920 C   0  0  0  0  0  0  0  0  0  0  0  0
   -1.4090    8.7080   -2.7730 C   0  0  0  0  0  0  0  0  0  0  0  0
   -0.0120    7.8150   -0.9280 C   0  0  0  0  0  0  0  0  0  0  0  0
    0.2150   12.9590   -1.8920 C   0  0  1  0  0  0  0  0  0  0  0  0
    0.5190   13.5370   -0.4760 C   0  0  0  0  0  0  0  0  0  0  0  0
   -0.5900   14.0720   -2.6620 C   0  0  0  0  0  0  0  0  0  0  0  0
   -0.4880   14.0660   -4.1990 C   0  0  0  0  0  0  0  0  0  0  0  0
    0.9730   13.9810   -4.6510 C   0  0  2  0  0  0  0  0  0  0  0  0
    1.7070   15.2680   -4.1420 C   0  0  0  0  0  0  0  0  0  0  0  0
   -1.0851   15.1281   -6.9580 H   0  0  0  0  0  0  0  0  0  0  0  0
   -0.3714   16.0226   -8.3427 H   0  0  0  0  0  0  0  0  0  0  0  0
   -0.3806   14.2263   -8.3427 H   0  0  0  0  0  0  0  0  0  0  0  0
    1.1203   16.0038   -6.3666 H   0  0  0  0  0  0  0  0  0  0  0  0
    3.1890   15.1440   -7.4612 H   0  0  0  0  0  0  0  0  0  0  0  0
    2.1177   14.4026   -8.7442 H   0  0  0  0  0  0  0  0  0  0  0  0
    1.5519   17.2334   -8.3535 H   0  0  0  0  0  0  0  0  0  0  0  0
    3.2818   16.9264   -8.8023 H   0  0  0  0  0  0  0  0  0  0  0  0
    1.7073   17.3895  -10.3900 H   0  0  0  0  0  0  0  0  0  0  0  0
    3.5237   14.3232   -9.5161 H   0  0  0  0  0  0  0  0  0  0  0  0
    3.3365   13.2957  -10.9775 H   0  0  0  0  0  0  0  0  0  0  0  0
    4.5154   14.6509  -10.9775 H   0  0  0  0  0  0  0  0  0  0  0  0
    1.9405   16.3816  -12.8495 H   0  0  0  0  0  0  0  0  0  0  0  0
    3.4052   15.3597  -13.0420 H   0  0  0  0  0  0  0  0  0  0  0  0
    1.7760   14.6032  -13.0420 H   0  0  0  0  0  0  0  0  0  0  0  0
    0.4403   13.2342   -6.6350 H   0  0  0  0  0  0  0  0  0  0  0  0
    2.7004   12.4689   -7.0090 H   0  0  0  0  0  0  0  0  0  0  0  0
    3.3932   14.0255   -6.5055 H   0  0  0  0  0  0  0  0  0  0  0  0
    3.3604   11.6369   -4.9366 H   0  0  0  0  0  0  0  0  0  0  0  0
    3.7000   13.2393   -4.2881 H   0  0  0  0  0  0  0  0  0  0  0  0
    0.5312   10.7315   -3.8213 H   0  0  0  0  0  0  0  0  0  0  0  0
    0.0052   11.6362   -5.2813 H   0  0  0  0  0  0  0  0  0  0  0  0
    1.5771   10.7669   -5.2813 H   0  0  0  0  0  0  0  0  0  0  0  0
    2.2621   13.5193   -2.3590 H   0  0  0  0  0  0  0  0  0  0  0  0
    3.0868   11.0883   -2.5925 H   0  0  0  0  0  0  0  0  0  0  0  0
    2.6927   11.8065   -0.9438 H   0  0  0  0  0  0  0  0  0  0  0  0
    1.8876    9.3338   -1.3606 H   0  0  0  0  0  0  0  0  0  0  0  0
   -1.1506   11.5927   -2.7613 H   0  0  0  0  0  0  0  0  0  0  0  0
   -1.3080   11.9119    0.3003 H   0  0  0  0  0  0  0  0  0  0  0  0
   -2.3954   12.6863   -0.9361 H   0  0  0  0  0  0  0  0  0  0  0  0
   -3.4640   10.7465    0.1671 H   0  0  0  0  0  0  0  0  0  0  0  0
   -3.2315   10.5091   -1.6093 H   0  0  0  0  0  0  0  0  0  0  0  0
   -2.6518    8.4737   -0.4781 H   0  0  0  0  0  0  0  0  0  0  0  0
   -1.6940   10.2060    1.3550 H   0  0  0  0  0  0  0  0  0  0  0  0
   -2.3472    8.1519   -2.6298 H   0  0  0  0  0  0  0  0  0  0  0  0
   -1.6123    9.6316   -3.3349 H   0  0  0  0  0  0  0  0  0  0  0  0
   -0.6964    8.0863   -3.3349 H   0  0  0  0  0  0  0  0  0  0  0  0
    0.0093    7.7813    0.1713 H   0  0  0  0  0  0  0  0  0  0  0  0
   -0.5003    6.9077   -1.3132 H   0  0  0  0  0  0  0  0  0  0  0  0
    1.0169    7.8694   -1.3132 H   0  0  0  0  0  0  0  0  0  0  0  0
    0.1521   12.8394    0.2913 H   0  0  0  0  0  0  0  0  0  0  0  0
    1.6046   13.6716   -0.3602 H   0  0  0  0  0  0  0  0  0  0  0  0
    0.0148   14.5077   -0.3602 H   0  0  0  0  0  0  0  0  0  0  0  0
   -1.6518   13.9569   -2.3986 H   0  0  0  0  0  0  0  0  0  0  0  0
   -0.1372   15.0239   -2.3475 H   0  0  0  0  0  0  0  0  0  0  0  0
   -1.0376   13.1983   -4.5927 H   0  0  0  0  0  0  0  0  0  0  0  0
   -0.9201   15.0019   -4.5829 H   0  0  0  0  0  0  0  0  0  0  0  0
    1.7119   15.2765   -3.0420 H   0  0  0  0  0  0  0  0  0  0  0  0
    2.7424   15.2706   -4.5133 H   0  0  0  0  0  0  0  0  0  0  0  0
    1.1821   16.1605   -4.5133 H   0  0  0  0  0  0  0  0  0  0  0  0
  1  2  1  0
  2  3  1  0
  3  4  1  0
  4  5  1  0
  5  6  1  0
  6  7  1  0
  7  8  1  0
  7  9  1  0
  2 10  1  0
 10 11  1  0
 11 12  1  0
 12 13  1  0
 13 14  1  1
 13 15  1  0
 15 16  1  0
 16 17  1  0
 17 18  2  0
 18 19  1  0
 19 20  1  0
 20 21  1  0
 21 22  1  0
 22 23  1  0
 22 24  1  0
 24 25  1  0
 24 26  1  0
 19 27  1  0
 27 28  1  1
 27 29  1  0
 29 30  1  0
 30 31  1  0
 31 32  1  1
  7  5  1  0
 31 10  1  0
 31 13  1  0
 27 15  1  0
 24 18  1  0
  1 33  1  0
  1 34  1  0
  1 35  1  0
  2 36  1  1
  3 37  1  0
  3 38  1  0
  4 39  1  0
  4 40  1  0
  5 41  1  6
  8 42  1  0
  8 43  1  0
  8 44  1  0
  9 45  1  0
  9 46  1  0
  9 47  1  0
 10 48  1  6
 11 49  1  0
 11 50  1  0
 12 51  1  0
 12 52  1  0
 14 53  1  0
 14 54  1  0
 14 55  1  0
 15 56  1  6
 16 57  1  0
 16 58  1  0
 17 59  1  0
 19 60  1  6
 20 61  1  0
 20 62  1  0
 21 63  1  0
 21 64  1  0
 22 65  1  1
 23 66  1  0
 25 67  1  0
 25 68  1  0
 25 69  1  0
 26 70  1  0
 26 71  1  0
 26 72  1  0
 28 73  1  0
 28 74  1  0
 28 75  1  0
 29 76  1  0
 29 77  1  0
 30 78  1  0
 30 79  1  0
 32 80  1  0
 32 81  1  0
 32 82  1  0
M  END
>  <meeko>  (13) 
{"is_sidechain": [false], "intermolecular_energy": 2.731, "internal_energy": -0.839}

$$$$
EPH_relaxed_0001_pdb2pqr_Repair_398_r2_0001_out
     RDKit          3D

 82 86  0  0  0  0  0  0  0  0999 V2000
   -1.8570    7.8250   -1.9940 C   0  0  0  0  0  0  0  0  0  0  0  0
   -2.0670    8.5400   -0.6560 C   0  0  2  0  0  0  0  0  0  0  0  0
   -3.5500    8.5580   -0.2340 C   0  0  0  0  0  0  0  0  0  0  0  0
   -4.5150    8.1740   -1.3590 C   0  0  0  0  0  0  0  0  0  0  0  0
   -5.5240    7.1640   -0.9030 C   0  0  2  0  0  0  0  0  0  0  0  0
   -5.1760    5.8020   -1.1830 O   0  0  0  0  0  0  0  0  0  0  0  0
   -6.3400    6.3090   -1.8540 C   0  0  0  0  0  0  0  0  0  0  0  0
   -6.1850    6.4260   -3.3380 C   0  0  0  0  0  0  0  0  0  0  0  0
   -7.6250    5.7190   -1.3620 C   0  0  0  0  0  0  0  0  0  0  0  0
   -1.5320    9.9650   -0.7400 C   0  0  1  0  0  0  0  0  0  0  0  0
   -1.0260   10.4940    0.6290 C   0  0  0  0  0  0  0  0  0  0  0  0
    0.1910   11.4080    0.3320 C   0  0  0  0  0  0  0  0  0  0  0  0
    0.1410   11.6410   -1.1960 C   0  0  1  0  0  0  0  0  0  0  0  0
   -0.9170   12.7710   -1.3950 C   0  0  0  0  0  0  0  0  0  0  0  0
    1.4990   11.9930   -1.8860 C   0  0  2  0  0  0  0  0  0  0  0  0
    2.1490   13.3060   -1.4160 C   0  0  0  0  0  0  0  0  0  0  0  0
    1.7620   14.5220   -2.1910 C   0  0  0  0  0  0  0  0  0  0  0  0
    1.1550   14.5240   -3.3920 C   0  0  0  0  0  0  0  0  0  0  0  0
    0.8830   13.2110   -4.1390 C   0  0  1  0  0  0  0  0  0  0  0  0
    1.3110   13.3620   -5.6230 C   0  0  0  0  0  0  0  0  0  0  0  0
    0.6610   14.5640   -6.3000 C   0  0  0  0  0  0  0  0  0  0  0  0
    1.0020   15.8560   -5.5620 C   0  0  2  0  0  0  0  0  0  0  0  0
    2.4030   16.1100   -5.7010 O   0  0  0  0  0  0  0  0  0  0  0  0
    0.6250   15.8190   -4.0550 C   0  0  0  0  0  0  0  0  0  0  0  0
   -0.9170   15.8470   -3.9040 C   0  0  0  0  0  0  0  0  0  0  0  0
    1.1490   17.1250   -3.3990 C   0  0  0  0  0  0  0  0  0  0  0  0
    1.4680   11.8960   -3.4650 C   0  0  1  0  0  0  0  0  0  0  0  0
    2.9410   11.6720   -3.9270 C   0  0  0  0  0  0  0  0  0  0  0  0
    0.6490   10.6510   -3.9720 C   0  0  0  0  0  0  0  0  0  0  0  0
   -0.6180   10.2820   -3.1770 C   0  0  0  0  0  0  0  0  0  0  0  0
   -0.3230   10.2170   -1.6750 C   0  0  2  0  0  0  0  0  0  0  0  0
    0.7220    9.0740   -1.4410 C   0  0  0  0  0  0  0  0  0  0  0  0
   -1.5514    6.7845   -1.8097 H   0  0  0  0  0  0  0  0  0  0  0  0
   -2.7961    7.8354   -2.5666 H   0  0  0  0  0  0  0  0  0  0  0  0
   -1.0726    8.3416   -2.5666 H   0  0  0  0  0  0  0  0  0  0  0  0
   -1.5127    7.9787    0.1106 H   0  0  0  0  0  0  0  0  0  0  0  0
   -3.6836    7.8480    0.5955 H   0  0  0  0  0  0  0  0  0  0  0  0
   -3.7892    9.5919    0.0556 H   0  0  0  0  0  0  0  0  0  0  0  0
   -5.0431    9.0769   -1.6994 H   0  0  0  0  0  0  0  0  0  0  0  0
   -3.9290    7.7284   -2.1764 H   0  0  0  0  0  0  0  0  0  0  0  0
   -5.8098    7.7989   -0.0514 H   0  0  0  0  0  0  0  0  0  0  0  0
   -5.3263    7.0742   -3.5670 H   0  0  0  0  0  0  0  0  0  0  0  0
   -6.0163    5.4281   -3.7689 H   0  0  0  0  0  0  0  0  0  0  0  0
   -7.0985    6.8617   -3.7689 H   0  0  0  0  0  0  0  0  0  0  0  0
   -7.6300    5.7167   -0.2620 H   0  0  0  0  0  0  0  0  0  0  0  0
   -8.4693    6.3196   -1.7312 H   0  0  0  0  0  0  0  0  0  0  0  0
   -7.7198    4.6872   -1.7312 H   0  0  0  0  0  0  0  0  0  0  0  0
   -2.4240   10.4743   -1.1336 H   0  0  0  0  0  0  0  0  0  0  0  0
   -1.8188   11.0693    1.1295 H   0  0  0  0  0  0  0  0  0  0  0  0
   -0.7444    9.6642    1.2940 H   0  0  0  0  0  0  0  0  0  0  0  0
    0.1017   12.3615    0.8732 H   0  0  0  0  0  0  0  0  0  0  0  0
    1.1406   10.9555    0.6539 H   0  0  0  0  0  0  0  0  0  0  0  0
   -1.2559   13.1330   -0.4131 H   0  0  0  0  0  0  0  0  0  0  0  0
   -0.4647   13.6021   -1.9561 H   0  0  0  0  0  0  0  0  0  0  0  0
   -1.7760   12.3744   -1.9561 H   0  0  0  0  0  0  0  0  0  0  0  0
    2.1597   11.1889   -1.5298 H   0  0  0  0  0  0  0  0  0  0  0  0
    1.8663   13.4682   -0.3654 H   0  0  0  0  0  0  0  0  0  0  0  0
    3.2314   13.1808   -1.5665 H   0  0  0  0  0  0  0  0  0  0  0  0
    1.9927   15.4994   -1.7421 H   0  0  0  0  0  0  0  0  0  0  0  0
   -0.2028   13.0453   -4.0788 H   0  0  0  0  0  0  0  0  0  0  0  0
    2.4036   13.4823   -5.6643 H   0  0  0  0  0  0  0  0  0  0  0  0
    0.9824   12.4592   -6.1586 H   0  0  0  0  0  0  0  0  0  0  0  0
    1.0249   14.6342   -7.3357 H   0  0  0  0  0  0  0  0  0  0  0  0
   -0.4305   14.4282   -6.2842 H   0  0  0  0  0  0  0  0  0  0  0  0
    0.4051   16.6615   -6.0146 H   0  0  0  0  0  0  0  0  0  0  0  0
    2.6280   16.0130   -6.6420 H   0  0  0  0  0  0  0  0  0  0  0  0
   -1.1808   15.8518   -2.8361 H   0  0  0  0  0  0  0  0  0  0  0  0
   -1.3161   16.7525   -4.3843 H   0  0  0  0  0  0  0  0  0  0  0  0
   -1.3487   14.9565   -4.3843 H   0  0  0  0  0  0  0  0  0  0  0  0
    1.1096   17.0267   -2.3041 H   0  0  0  0  0  0  0  0  0  0  0  0
    2.1879   17.3023   -3.7141 H   0  0  0  0  0  0  0  0  0  0  0  0
    0.5208   17.9712   -3.7141 H   0  0  0  0  0  0  0  0  0  0  0  0
    3.5909   11.5732   -3.0450 H   0  0  0  0  0  0  0  0  0  0  0  0
    3.0004   10.7545   -4.5309 H   0  0  0  0  0  0  0  0  0  0  0  0
    3.2704   12.5304   -4.5309 H   0  0  0  0  0  0  0  0  0  0  0  0
    0.3438   10.8535   -5.0092 H   0  0  0  0  0  0  0  0  0  0  0  0
    1.3256    9.7924   -3.8497 H   0  0  0  0  0  0  0  0  0  0  0  0
   -1.3915   11.0426   -3.3593 H   0  0  0  0  0  0  0  0  0  0  0  0
   -0.9652    9.2926   -3.5095 H   0  0  0  0  0  0  0  0  0  0  0  0
    0.8621    8.9208   -0.3608 H   0  0  0  0  0  0  0  0  0  0  0  0
    0.3560    8.1432   -1.8989 H   0  0  0  0  0  0  0  0  0  0  0  0
    1.6818    9.3553   -1.8989 H   0  0  0  0  0  0  0  0  0  0  0  0
  1  2  1  0
  2  3  1  0
  3  4  1  0
  4  5  1  0
  5  6  1  0
  6  7  1  0
  7  8  1  0
  7  9  1  0
  2 10  1  0
 10 11  1  0
 11 12  1  0
 12 13  1  0
 13 14  1  1
 13 15  1  0
 15 16  1  0
 16 17  1  0
 17 18  2  0
 18 19  1  0
 19 20  1  0
 20 21  1  0
 21 22  1  0
 22 23  1  0
 22 24  1  0
 24 25  1  0
 24 26  1  0
 19 27  1  0
 27 28  1  6
 27 29  1  0
 29 30  1  0
 30 31  1  0
 31 32  1  6
  7  5  1  0
 31 10  1  0
 31 13  1  0
 27 15  1  0
 24 18  1  0
  1 33  1  0
  1 34  1  0
  1 35  1  0
  2 36  1  1
  3 37  1  0
  3 38  1  0
  4 39  1  0
  4 40  1  0
  5 41  1  1
  8 42  1  0
  8 43  1  0
  8 44  1  0
  9 45  1  0
  9 46  1  0
  9 47  1  0
 10 48  1  6
 11 49  1  0
 11 50  1  0
 12 51  1  0
 12 52  1  0
 14 53  1  0
 14 54  1  0
 14 55  1  0
 15 56  1  1
 16 57  1  0
 16 58  1  0
 17 59  1  0
 19 60  1  6
 20 61  1  0
 20 62  1  0
 21 63  1  0
 21 64  1  0
 22 65  1  6
 23 66  1  0
 25 67  1  0
 25 68  1  0
 25 69  1  0
 26 70  1  0
 26 71  1  0
 26 72  1  0
 28 73  1  0
 28 74  1  0
 28 75  1  0
 29 76  1  0
 29 77  1  0
 30 78  1  0
 30 79  1  0
 32 80  1  0
 32 81  1  0
 32 82  1  0
M  END
>  <meeko>  (14) 
{"is_sidechain": [false], "intermolecular_energy": 2.731, "internal_energy": -0.839}

$$$$
EPH_relaxed_0001_pdb2pqr_Repair_398_r2_0001_out
     RDKit          3D

 82 86  0  0  0  0  0  0  0  0999 V2000
   -1.1520    6.9160   -3.0480 C   0  0  0  0  0  0  0  0  0  0  0  0
   -2.4070    7.3790   -2.3020 C   0  0  2  0  0  0  0  0  0  0  0  0
   -3.6590    7.3530   -3.2000 C   0  0  0  0  0  0  0  0  0  0  0  0
   -4.3830    6.0040   -3.2080 C   0  0  0  0  0  0  0  0  0  0  0  0
   -5.8390    6.1590   -3.5290 C   0  0  2  0  0  0  0  0  0  0  0  0
   -6.4020    7.4260   -3.1650 O   0  0  0  0  0  0  0  0  0  0  0  0
   -6.9210    6.2790   -2.4710 C   0  0  0  0  0  0  0  0  0  0  0  0
   -6.5910    6.2500   -1.0120 C   0  0  0  0  0  0  0  0  0  0  0  0
   -8.3290    5.9350   -2.8450 C   0  0  0  0  0  0  0  0  0  0  0  0
   -2.1920    8.7830   -1.7470 C   0  0  1  0  0  0  0  0  0  0  0  0
   -3.1030    9.0890   -0.5290 C   0  0  0  0  0  0  0  0  0  0  0  0
   -2.2840    9.9970    0.4250 C   0  0  0  0  0  0  0  0  0  0  0  0
   -1.0700   10.4520   -0.4170 C   0  0  1  0  0  0  0  0  0  0  0  0
   -1.6040   11.6330   -1.2870 C   0  0  0  0  0  0  0  0  0  0  0  0
    0.2120   10.8570    0.3810 C   0  0  2  0  0  0  0  0  0  0  0  0
    0.0430   12.0650    1.3180 C   0  0  0  0  0  0  0  0  0  0  0  0
    0.3450   13.3930    0.7070 C   0  0  0  0  0  0  0  0  0  0  0  0
    1.0060   13.5900   -0.4480 C   0  0  0  0  0  0  0  0  0  0  0  0
    1.6130   12.4110   -1.2190 C   0  0  1  0  0  0  0  0  0  0  0  0
    3.0620   12.7630   -1.6470 C   0  0  0  0  0  0  0  0  0  0  0  0
    3.1410   14.0720   -2.4270 C   0  0  0  0  0  0  0  0  0  0  0  0
    2.5810   15.2310   -1.6050 C   0  0  2  0  0  0  0  0  0  0  0  0
    3.4400   15.4570   -0.4830 O   0  0  0  0  0  0  0  0  0  0  0  0
    1.1290   14.9850   -1.1100 C   0  0  0  0  0  0  0  0  0  0  0  0
    0.1530   15.0410   -2.3110 C   0  0  0  0  0  0  0  0  0  0  0  0
    0.7370   16.1630   -0.1770 C   0  0  0  0  0  0  0  0  0  0  0  0
    1.5140   10.9930   -0.5080 C   0  0  1  0  0  0  0  0  0  0  0  0
    2.7290   10.7910    0.4470 C   0  0  0  0  0  0  0  0  0  0  0  0
    1.6140    9.8630   -1.6000 C   0  0  0  0  0  0  0  0  0  0  0  0
    0.2970    9.4230   -2.2670 C   0  0  0  0  0  0  0  0  0  0  0  0
   -0.7790    9.1300   -1.2170 C   0  0  2  0  0  0  0  0  0  0  0  0
   -0.2790    7.9310   -0.3410 C   0  0  0  0  0  0  0  0  0  0  0  0
   -0.3777    6.6303   -2.3208 H   0  0  0  0  0  0  0  0  0  0  0  0
   -1.3994    6.0499   -3.6795 H   0  0  0  0  0  0  0  0  0  0  0  0
   -0.7776    7.7352   -3.6795 H   0  0  0  0  0  0  0  0  0  0  0  0
   -2.5802    6.6744   -1.4752 H   0  0  0  0  0  0  0  0  0  0  0  0
   -4.3598    8.1211   -2.8410 H   0  0  0  0  0  0  0  0  0  0  0  0
   -3.3202    7.5420   -4.2293 H   0  0  0  0  0  0  0  0  0  0  0  0
   -3.9183    5.3543   -3.9643 H   0  0  0  0  0  0  0  0  0  0  0  0
   -4.2979    5.5628   -2.2039 H   0  0  0  0  0  0  0  0  0  0  0  0
   -5.7375    5.5087   -4.4104 H   0  0  0  0  0  0  0  0  0  0  0  0
   -7.5176    6.3314   -0.4248 H   0  0  0  0  0  0  0  0  0  0  0  0
   -6.0850    5.3039   -0.7692 H   0  0  0  0  0  0  0  0  0  0  0  0
   -5.9278    7.0933   -0.7692 H   0  0  0  0  0  0  0  0  0  0  0  0
   -8.9256    5.7892   -1.9324 H   0  0  0  0  0  0  0  0  0  0  0  0
   -8.7612    6.7540   -3.4387 H   0  0  0  0  0  0  0  0  0  0  0  0
   -8.3349    5.0090   -3.4387 H   0  0  0  0  0  0  0  0  0  0  0  0
   -2.4099    9.3732   -2.6493 H   0  0  0  0  0  0  0  0  0  0  0  0
   -4.0140    9.6100   -0.8587 H   0  0  0  0  0  0  0  0  0  0  0  0
   -3.4118    8.1619   -0.0238 H   0  0  0  0  0  0  0  0  0  0  0  0
   -2.8815   10.8634    0.7447 H   0  0  0  0  0  0  0  0  0  0  0  0
   -1.9818    9.4723    1.3434 H   0  0  0  0  0  0  0  0  0  0  0  0
   -1.9676   12.4371   -0.6303 H   0  0  0  0  0  0  0  0  0  0  0  0
   -0.7920   12.0171   -1.9219 H   0  0  0  0  0  0  0  0  0  0  0  0
   -2.4287   11.2770   -1.9219 H   0  0  0  0  0  0  0  0  0  0  0  0
    0.3639    9.9880    1.0381 H   0  0  0  0  0  0  0  0  0  0  0  0
   -0.9999   12.0809    1.6674 H   0  0  0  0  0  0  0  0  0  0  0  0
    0.7764   11.9281    2.1263 H   0  0  0  0  0  0  0  0  0  0  0  0
   -0.0024   14.2862    1.2469 H   0  0  0  0  0  0  0  0  0  0  0  0
    0.9834   12.2743   -2.1106 H   0  0  0  0  0  0  0  0  0  0  0  0
    3.6842   12.8525   -0.7443 H   0  0  0  0  0  0  0  0  0  0  0  0
    3.4192   11.9592   -2.3075 H   0  0  0  0  0  0  0  0  0  0  0  0
    4.1923   14.2809   -2.6744 H   0  0  0  0  0  0  0  0  0  0  0  0
    2.5430   13.9709   -3.3447 H   0  0  0  0  0  0  0  0  0  0  0  0
    2.5434   16.1133   -2.2609 H   0  0  0  0  0  0  0  0  0  0  0  0
    4.0380   14.6930   -0.4120 H   0  0  0  0  0  0  0  0  0  0  0  0
   -0.8811   15.1003   -1.9407 H   0  0  0  0  0  0  0  0  0  0  0  0
    0.3749   15.9279   -2.9227 H   0  0  0  0  0  0  0  0  0  0  0  0
    0.2720   14.1346   -2.9227 H   0  0  0  0  0  0  0  0  0  0  0  0
    0.8412   15.8499    0.8724 H   0  0  0  0  0  0  0  0  0  0  0  0
    1.3983   17.0203   -0.3713 H   0  0  0  0  0  0  0  0  0  0  0  0
   -0.3061   16.4531   -0.3713 H   0  0  0  0  0  0  0  0  0  0  0  0
    2.3880   10.8477    1.4913 H   0  0  0  0  0  0  0  0  0  0  0  0
    3.1810    9.8054    0.2619 H   0  0  0  0  0  0  0  0  0  0  0  0
    3.4756   11.5774    0.2619 H   0  0  0  0  0  0  0  0  0  0  0  0
    2.2840   10.2255   -2.3935 H   0  0  0  0  0  0  0  0  0  0  0  0
    1.9751    8.9741   -1.0620 H   0  0  0  0  0  0  0  0  0  0  0  0
   -0.0565   10.2266   -2.9298 H   0  0  0  0  0  0  0  0  0  0  0  0
    0.4852    8.5042   -2.8418 H   0  0  0  0  0  0  0  0  0  0  0  0
   -0.3852    8.1856    0.7239 H   0  0  0  0  0  0  0  0  0  0  0  0
   -0.8794    7.0371   -0.5659 H   0  0  0  0  0  0  0  0  0  0  0  0
    0.7785    7.7285   -0.5659 H   0  0  0  0  0  0  0  0  0  0  0  0
  1  2  1  0
  2  3  1  0
  3  4  1  0
  4  5  1  0
  5  6  1  0
  6  7  1  0
  7  8  1  0
  7  9  1  0
  2 10  1  0
 10 11  1  0
 11 12  1  0
 12 13  1  0
 13 14  1  6
 13 15  1  0
 15 16  1  0
 16 17  1  0
 17 18  2  0
 18 19  1  0
 19 20  1  0
 20 21  1  0
 21 22  1  0
 22 23  1  0
 22 24  1  0
 24 25  1  0
 24 26  1  0
 19 27  1  0
 27 28  1  1
 27 29  1  0
 29 30  1  0
 30 31  1  0
 31 32  1  1
  7  5  1  0
 31 10  1  0
 31 13  1  0
 27 15  1  0
 24 18  1  0
  1 33  1  0
  1 34  1  0
  1 35  1  0
  2 36  1  1
  3 37  1  0
  3 38  1  0
  4 39  1  0
  4 40  1  0
  5 41  1  6
  8 42  1  0
  8 43  1  0
  8 44  1  0
  9 45  1  0
  9 46  1  0
  9 47  1  0
 10 48  1  6
 11 49  1  0
 11 50  1  0
 12 51  1  0
 12 52  1  0
 14 53  1  0
 14 54  1  0
 14 55  1  0
 15 56  1  1
 16 57  1  0
 16 58  1  0
 17 59  1  0
 19 60  1  6
 20 61  1  0
 20 62  1  0
 21 63  1  0
 21 64  1  0
 22 65  1  6
 23 66  1  0
 25 67  1  0
 25 68  1  0
 25 69  1  0
 26 70  1  0
 26 71  1  0
 26 72  1  0
 28 73  1  0
 28 74  1  0
 28 75  1  0
 29 76  1  0
 29 77  1  0
 30 78  1  0
 30 79  1  0
 32 80  1  0
 32 81  1  0
 32 82  1  0
M  END
>  <meeko>  (15) 
{"is_sidechain": [false], "intermolecular_energy": 2.731, "internal_energy": -0.839}

$$$$
EPH_relaxed_0001_pdb2pqr_Repair_398_r2_0001_out
     RDKit          3D

 82 86  0  0  0  0  0  0  0  0999 V2000
    2.8360   11.3470   -5.2820 C   0  0  0  0  0  0  0  0  0  0  0  0
    1.7940   11.0510   -4.1990 C   0  0  2  0  0  0  0  0  0  0  0  0
    0.6750   10.1210   -4.7080 C   0  0  0  0  0  0  0  0  0  0  0  0
   -0.3910    9.8070   -3.6550 C   0  0  0  0  0  0  0  0  0  0  0  0
    0.1800    9.0400   -2.5000 C   0  0  2  0  0  0  0  0  0  0  0  0
   -0.6270    7.9410   -2.0540 O   0  0  0  0  0  0  0  0  0  0  0  0
   -0.4480    9.0170   -1.1190 C   0  0  0  0  0  0  0  0  0  0  0  0
   -1.7010    9.7770   -0.8190 C   0  0  0  0  0  0  0  0  0  0  0  0
    0.4140    8.6610    0.0520 C   0  0  0  0  0  0  0  0  0  0  0  0
    1.1940   12.3550   -3.6850 C   0  0  1  0  0  0  0  0  0  0  0  0
   -0.3420   12.2660   -3.4820 C   0  0  0  0  0  0  0  0  0  0  0  0
   -0.6800   13.1410   -2.2470 C   0  0  0  0  0  0  0  0  0  0  0  0
    0.6050   13.9610   -1.9850 C   0  0  1  0  0  0  0  0  0  0  0  0
    0.5390   15.1450   -3.0000 C   0  0  0  0  0  0  0  0  0  0  0  0
    0.8150   14.4670   -0.5210 C   0  0  2  0  0  0  0  0  0  0  0  0
   -0.2580   15.4420   -0.0070 C   0  0  0  0  0  0  0  0  0  0  0  0
    0.0260   16.8880   -0.2490 C   0  0  0  0  0  0  0  0  0  0  0  0
    1.2200   17.4030   -0.5950 C   0  0  0  0  0  0  0  0  0  0  0  0
    2.4670   16.5130   -0.6820 C   0  0  1  0  0  0  0  0  0  0  0  0
    3.6510   17.2080    0.0400 C   0  0  0  0  0  0  0  0  0  0  0  0
    3.9050   18.6200   -0.4790 C   0  0  0  0  0  0  0  0  0  0  0  0
    2.6610   19.4910   -0.3220 C   0  0  2  0  0  0  0  0  0  0  0  0
    2.4080   19.6870    1.0730 O   0  0  0  0  0  0  0  0  0  0  0  0
    1.4000   18.8870   -1.0010 C   0  0  0  0  0  0  0  0  0  0  0  0
    1.5560   18.9540   -2.5410 C   0  0  0  0  0  0  0  0  0  0  0  0
    0.1880   19.7900   -0.6480 C   0  0  0  0  0  0  0  0  0  0  0  0
    2.2740   15.0030   -0.2240 C   0  0  1  0  0  0  0  0  0  0  0  0
    2.4880   14.8830    1.3160 C   0  0  0  0  0  0  0  0  0  0  0  0
    3.3870   14.1160   -0.8980 C   0  0  0  0  0  0  0  0  0  0  0  0
    3.0710   13.5470   -2.2940 C   0  0  0  0  0  0  0  0  0  0  0  0
    1.6940   12.8760   -2.3140 C   0  0  2  0  0  0  0  0  0  0  0  0
    1.7360   11.6670   -1.3190 C   0  0  0  0  0  0  0  0  0  0  0  0
    3.7908   11.6182   -4.8078 H   0  0  0  0  0  0  0  0  0  0  0  0
    2.9782   10.4537   -5.9080 H   0  0  0  0  0  0  0  0  0  0  0  0
    2.4873   12.1816   -5.9080 H   0  0  0  0  0  0  0  0  0  0  0  0
    2.3086   10.5293   -3.3786 H   0  0  0  0  0  0  0  0  0  0  0  0
    0.1843   10.6051   -5.5653 H   0  0  0  0  0  0  0  0  0  0  0  0
    1.1493    9.1664   -4.9798 H   0  0  0  0  0  0  0  0  0  0  0  0
   -0.8128   10.7519   -3.2819 H   0  0  0  0  0  0  0  0  0  0  0  0
   -1.1680    9.1880   -4.1274 H   0  0  0  0  0  0  0  0  0  0  0  0
    1.2058    9.2439   -2.8407 H   0  0  0  0  0  0  0  0  0  0  0  0
   -1.8303    9.8554    0.2706 H   0  0  0  0  0  0  0  0  0  0  0  0
   -1.6313   10.7852   -1.2535 H   0  0  0  0  0  0  0  0  0  0  0  0
   -2.5628    9.2493   -1.2535 H   0  0  0  0  0  0  0  0  0  0  0  0
   -0.1247    8.8835    0.9849 H   0  0  0  0  0  0  0  0  0  0  0  0
    0.6572    7.5888    0.0158 H   0  0  0  0  0  0  0  0  0  0  0  0
    1.3429    9.2491    0.0158 H   0  0  0  0  0  0  0  0  0  0  0  0
    1.5171   13.0358   -4.4863 H   0  0  0  0  0  0  0  0  0  0  0  0
   -0.8647   12.6477   -4.3715 H   0  0  0  0  0  0  0  0  0  0  0  0
   -0.6610   11.2246   -3.3282 H   0  0  0  0  0  0  0  0  0  0  0  0
   -1.5281   13.8072   -2.4637 H   0  0  0  0  0  0  0  0  0  0  0  0
   -0.9736   12.5368   -1.3760 H   0  0  0  0  0  0  0  0  0  0  0  0
    0.4860   16.0965   -2.4505 H   0  0  0  0  0  0  0  0  0  0  0  0
    1.4390   15.1365   -3.6324 H   0  0  0  0  0  0  0  0  0  0  0  0
   -0.3545   15.0365   -3.6324 H   0  0  0  0  0  0  0  0  0  0  0  0
    0.6872   13.5464    0.0674 H   0  0  0  0  0  0  0  0  0  0  0  0
   -1.2080   15.1944   -0.5032 H   0  0  0  0  0  0  0  0  0  0  0  0
   -0.2858   15.3159    1.0854 H   0  0  0  0  0  0  0  0  0  0  0  0
   -0.8118   17.5916   -0.1347 H   0  0  0  0  0  0  0  0  0  0  0  0
    2.6928   16.4096   -1.7536 H   0  0  0  0  0  0  0  0  0  0  0  0
    3.4252   17.2628    1.1152 H   0  0  0  0  0  0  0  0  0  0  0  0
    4.5558   16.6132   -0.1538 H   0  0  0  0  0  0  0  0  0  0  0  0
    4.7329   19.0690    0.0894 H   0  0  0  0  0  0  0  0  0  0  0  0
    4.1596   18.5608   -1.5475 H   0  0  0  0  0  0  0  0  0  0  0  0
    2.8624   20.4469   -0.8277 H   0  0  0  0  0  0  0  0  0  0  0  0
    1.4580   19.5450    1.2230 H   0  0  0  0  0  0  0  0  0  0  0  0
    2.5401   19.3767   -2.7918 H   0  0  0  0  0  0  0  0  0  0  0  0
    1.4738   17.9412   -2.9623 H   0  0  0  0  0  0  0  0  0  0  0  0
    0.7649   19.5917   -2.9623 H   0  0  0  0  0  0  0  0  0  0  0  0
    0.0908   19.8624    0.4453 H   0  0  0  0  0  0  0  0  0  0  0  0
    0.3437   20.7940   -1.0696 H   0  0  0  0  0  0  0  0  0  0  0  0
   -0.7295   19.3536   -1.0696 H   0  0  0  0  0  0  0  0  0  0  0  0
    1.6450   15.3557    1.8413 H   0  0  0  0  0  0  0  0  0  0  0  0
    2.5457   13.8209    1.5965 H   0  0  0  0  0  0  0  0  0  0  0  0
    3.4243   15.3877    1.5965 H   0  0  0  0  0  0  0  0  0  0  0  0
    4.2943   14.7315   -0.9871 H   0  0  0  0  0  0  0  0  0  0  0  0
    3.4887   13.2366   -0.2451 H   0  0  0  0  0  0  0  0  0  0  0  0
    3.0826   14.3665   -3.0276 H   0  0  0  0  0  0  0  0  0  0  0  0
    3.8319   12.7936   -2.5461 H   0  0  0  0  0  0  0  0  0  0  0  0
    1.7230   12.0424   -0.2851 H   0  0  0  0  0  0  0  0  0  0  0  0
    0.8597   11.0236   -1.4866 H   0  0  0  0  0  0  0  0  0  0  0  0
    2.6549   11.0860   -1.4866 H   0  0  0  0  0  0  0  0  0  0  0  0
  1  2  1  0
  2  3  1  0
  3  4  1  0
  4  5  1  0
  5  6  1  0
  6  7  1  0
  7  8  1  0
  7  9  1  0
  2 10  1  0
 10 11  1  0
 11 12  1  0
 12 13  1  0
 13 14  1  6
 13 15  1  0
 15 16  1  0
 16 17  1  0
 17 18  2  0
 18 19  1  0
 19 20  1  0
 20 21  1  0
 21 22  1  0
 22 23  1  0
 22 24  1  0
 24 25  1  0
 24 26  1  0
 19 27  1  0
 27 28  1  1
 27 29  1  0
 29 30  1  0
 30 31  1  0
 31 32  1  1
  7  5  1  0
 31 10  1  0
 31 13  1  0
 27 15  1  0
 24 18  1  0
  1 33  1  0
  1 34  1  0
  1 35  1  0
  2 36  1  1
  3 37  1  0
  3 38  1  0
  4 39  1  0
  4 40  1  0
  5 41  1  1
  8 42  1  0
  8 43  1  0
  8 44  1  0
  9 45  1  0
  9 46  1  0
  9 47  1  0
 10 48  1  6
 11 49  1  0
 11 50  1  0
 12 51  1  0
 12 52  1  0
 14 53  1  0
 14 54  1  0
 14 55  1  0
 15 56  1  1
 16 57  1  0
 16 58  1  0
 17 59  1  0
 19 60  1  6
 20 61  1  0
 20 62  1  0
 21 63  1  0
 21 64  1  0
 22 65  1  6
 23 66  1  0
 25 67  1  0
 25 68  1  0
 25 69  1  0
 26 70  1  0
 26 71  1  0
 26 72  1  0
 28 73  1  0
 28 74  1  0
 28 75  1  0
 29 76  1  0
 29 77  1  0
 30 78  1  0
 30 79  1  0
 32 80  1  0
 32 81  1  0
 32 82  1  0
M  END
>  <meeko>  (16) 
{"is_sidechain": [false], "intermolecular_energy": 2.731, "internal_energy": -0.839}

$$$$
EPH_relaxed_0001_pdb2pqr_Repair_398_r2_0001_out
     RDKit          3D

 82 86  0  0  0  0  0  0  0  0999 V2000
   -1.7520   14.8080    0.4030 C   0  0  0  0  0  0  0  0  0  0  0  0
   -0.4020   15.5150    0.2480 C   0  0  2  0  0  0  0  0  0  0  0  0
   -0.4210   16.5590   -0.8860 C   0  0  0  0  0  0  0  0  0  0  0  0
   -0.0510   17.9720   -0.4270 C   0  0  0  0  0  0  0  0  0  0  0  0
    1.3840   18.0600   -0.0040 C   0  0  2  0  0  0  0  0  0  0  0  0
    2.0390   19.2850   -0.3610 O   0  0  0  0  0  0  0  0  0  0  0  0
    2.5440   18.0910   -0.9820 C   0  0  0  0  0  0  0  0  0  0  0  0
    2.3190   18.0340   -2.4600 C   0  0  0  0  0  0  0  0  0  0  0  0
    3.9000   17.6860   -0.4960 C   0  0  0  0  0  0  0  0  0  0  0  0
    0.6950   14.4880   -0.0070 C   0  0  1  0  0  0  0  0  0  0  0  0
    0.8380   13.4650    1.1510 C   0  0  0  0  0  0  0  0  0  0  0  0
    1.2220   12.1090    0.5050 C   0  0  0  0  0  0  0  0  0  0  0  0
    1.6110   12.4660   -0.9490 C   0  0  1  0  0  0  0  0  0  0  0  0
    3.0810   12.9810   -0.8560 C   0  0  0  0  0  0  0  0  0  0  0  0
    1.4660   11.3210   -2.0040 C   0  0  2  0  0  0  0  0  0  0  0  0
    2.3600   10.0920   -1.7600 C   0  0  0  0  0  0  0  0  0  0  0  0
    3.7020   10.1410   -2.4110 C   0  0  0  0  0  0  0  0  0  0  0  0
    4.0670   10.9910   -3.3890 C   0  0  0  0  0  0  0  0  0  0  0  0
    3.0530   11.9630   -4.0060 C   0  0  1  0  0  0  0  0  0  0  0  0
    3.1730   11.9230   -5.5520 C   0  0  0  0  0  0  0  0  0  0  0  0
    4.5970   12.1810   -6.0350 C   0  0  0  0  0  0  0  0  0  0  0  0
    5.5660   11.1600   -5.4460 C   0  0  2  0  0  0  0  0  0  0  0  0
    5.2590    9.8690   -5.9830 O   0  0  0  0  0  0  0  0  0  0  0  0
    5.5270   11.1020   -3.8930 C   0  0  0  0  0  0  0  0  0  0  0  0
    6.1460   12.3960   -3.3090 C   0  0  0  0  0  0  0  0  0  0  0  0
    6.4440    9.9370   -3.4350 C   0  0  0  0  0  0  0  0  0  0  0  0
    1.5520   11.8090   -3.5060 C   0  0  1  0  0  0  0  0  0  0  0  0
    0.8130   10.7380   -4.3650 C   0  0  0  0  0  0  0  0  0  0  0  0
    0.7910   13.1670   -3.7390 C   0  0  0  0  0  0  0  0  0  0  0  0
    0.8730   14.2120   -2.6090 C   0  0  0  0  0  0  0  0  0  0  0  0
    0.5440   13.5800   -1.2530 C   0  0  2  0  0  0  0  0  0  0  0  0
   -0.9370   13.0720   -1.3090 C   0  0  0  0  0  0  0  0  0  0  0  0
   -1.9822   14.6875    1.4719 H   0  0  0  0  0  0  0  0  0  0  0  0
   -2.5383   15.4101   -0.0758 H   0  0  0  0  0  0  0  0  0  0  0  0
   -1.7050   13.8188   -0.0758 H   0  0  0  0  0  0  0  0  0  0  0  0
   -0.1984   16.0513    1.1866 H   0  0  0  0  0  0  0  0  0  0  0  0
    0.2965   16.2457   -1.6587 H   0  0  0  0  0  0  0  0  0  0  0  0
   -1.4527   16.6036   -1.2651 H   0  0  0  0  0  0  0  0  0  0  0  0
   -0.2213   18.6726   -1.2578 H   0  0  0  0  0  0  0  0  0  0  0  0
   -0.6797   18.2267    0.4389 H   0  0  0  0  0  0  0  0  0  0  0  0
    1.1848   17.4432    0.8848 H   0  0  0  0  0  0  0  0  0  0  0  0
    1.2707   17.7684   -2.6613 H   0  0  0  0  0  0  0  0  0  0  0  0
    2.5399   19.0165   -2.9027 H   0  0  0  0  0  0  0  0  0  0  0  0
    2.9810   17.2752   -2.9027 H   0  0  0  0  0  0  0  0  0  0  0  0
    3.9095   17.6832    0.6040 H   0  0  0  0  0  0  0  0  0  0  0  0
    4.1366   16.6780   -0.8673 H   0  0  0  0  0  0  0  0  0  0  0  0
    4.6507   18.3991   -0.8673 H   0  0  0  0  0  0  0  0  0  0  0  0
    1.5529   15.1643   -0.1362 H   0  0  0  0  0  0  0  0  0  0  0  0
    1.6251   13.7891    1.8477 H   0  0  0  0  0  0  0  0  0  0  0  0
   -0.0991   13.3798    1.7207 H   0  0  0  0  0  0  0  0  0  0  0  0
    2.0723   11.6538    1.0339 H   0  0  0  0  0  0  0  0  0  0  0  0
    0.4011   11.3781    0.5498 H   0  0  0  0  0  0  0  0  0  0  0  0
    3.3681   13.0816    0.2011 H   0  0  0  0  0  0  0  0  0  0  0  0
    3.7526   12.2646   -1.3518 H   0  0  0  0  0  0  0  0  0  0  0  0
    3.1586   13.9599   -1.3518 H   0  0  0  0  0  0  0  0  0  0  0  0
    0.4341   10.9775   -1.8389 H   0  0  0  0  0  0  0  0  0  0  0  0
    2.5119    9.9921   -0.6751 H   0  0  0  0  0  0  0  0  0  0  0  0
    1.8336    9.2381   -2.2115 H   0  0  0  0  0  0  0  0  0  0  0  0
    4.4572    9.4213   -2.0620 H   0  0  0  0  0  0  0  0  0  0  0  0
    3.3252   12.9625   -3.6360 H   0  0  0  0  0  0  0  0  0  0  0  0
    2.8553   10.9307   -5.9048 H   0  0  0  0  0  0  0  0  0  0  0  0
    2.5332   12.7207   -5.9574 H   0  0  0  0  0  0  0  0  0  0  0  0
    4.6232   12.1108   -7.1324 H   0  0  0  0  0  0  0  0  0  0  0  0
    4.9026   13.1853   -5.7065 H   0  0  0  0  0  0  0  0  0  0  0  0
    6.5833   11.4741   -5.7227 H   0  0  0  0  0  0  0  0  0  0  0  0
    5.5640    9.8550   -6.9060 H   0  0  0  0  0  0  0  0  0  0  0  0
    6.1238   12.3496   -2.2102 H   0  0  0  0  0  0  0  0  0  0  0  0
    7.1871   12.4912   -3.6510 H   0  0  0  0  0  0  0  0  0  0  0  0
    5.5667   13.2663   -3.6510 H   0  0  0  0  0  0  0  0  0  0  0  0
    6.4714    9.9022   -2.3359 H   0  0  0  0  0  0  0  0  0  0  0  0
    6.0496    8.9859   -3.8222 H   0  0  0  0  0  0  0  0  0  0  0  0
    7.4611   10.0970   -3.8222 H   0  0  0  0  0  0  0  0  0  0  0  0
    0.3147   10.0159   -3.7015 H   0  0  0  0  0  0  0  0  0  0  0  0
    0.0622   11.2314   -4.9998 H   0  0  0  0  0  0  0  0  0  0  0  0
    1.5407   10.2112   -4.9998 H   0  0  0  0  0  0  0  0  0  0  0  0
    1.2032   13.6276   -4.6489 H   0  0  0  0  0  0  0  0  0  0  0  0
   -0.2727   12.8939   -3.8020 H   0  0  0  0  0  0  0  0  0  0  0  0
    1.8914   14.6264   -2.5753 H   0  0  0  0  0  0  0  0  0  0  0  0
    0.1404   15.0069   -2.8125 H   0  0  0  0  0  0  0  0  0  0  0  0
   -1.3187   12.9411   -0.2857 H   0  0  0  0  0  0  0  0  0  0  0  0
   -1.5575   13.8087   -1.8403 H   0  0  0  0  0  0  0  0  0  0  0  0
   -0.9747   12.1096   -1.8403 H   0  0  0  0  0  0  0  0  0  0  0  0
  1  2  1  0
  2  3  1  0
  3  4  1  0
  4  5  1  0
  5  6  1  0
  6  7  1  0
  7  8  1  0
  7  9  1  0
  2 10  1  0
 10 11  1  0
 11 12  1  0
 12 13  1  0
 13 14  1  1
 13 15  1  0
 15 16  1  0
 16 17  1  0
 17 18  2  0
 18 19  1  0
 19 20  1  0
 20 21  1  0
 21 22  1  0
 22 23  1  0
 22 24  1  0
 24 25  1  0
 24 26  1  0
 19 27  1  0
 27 28  1  6
 27 29  1  0
 29 30  1  0
 30 31  1  0
 31 32  1  6
  7  5  1  0
 31 10  1  0
 31 13  1  0
 27 15  1  0
 24 18  1  0
  1 33  1  0
  1 34  1  0
  1 35  1  0
  2 36  1  1
  3 37  1  0
  3 38  1  0
  4 39  1  0
  4 40  1  0
  5 41  1  1
  8 42  1  0
  8 43  1  0
  8 44  1  0
  9 45  1  0
  9 46  1  0
  9 47  1  0
 10 48  1  6
 11 49  1  0
 11 50  1  0
 12 51  1  0
 12 52  1  0
 14 53  1  0
 14 54  1  0
 14 55  1  0
 15 56  1  6
 16 57  1  0
 16 58  1  0
 17 59  1  0
 19 60  1  1
 20 61  1  0
 20 62  1  0
 21 63  1  0
 21 64  1  0
 22 65  1  1
 23 66  1  0
 25 67  1  0
 25 68  1  0
 25 69  1  0
 26 70  1  0
 26 71  1  0
 26 72  1  0
 28 73  1  0
 28 74  1  0
 28 75  1  0
 29 76  1  0
 29 77  1  0
 30 78  1  0
 30 79  1  0
 32 80  1  0
 32 81  1  0
 32 82  1  0
M  END
>  <meeko>  (17) 
{"is_sidechain": [false], "intermolecular_energy": 2.731, "internal_energy": -0.839}

$$$$
EPH_relaxed_0001_pdb2pqr_Repair_398_r2_0001_out
     RDKit          3D

 82 86  0  0  0  0  0  0  0  0999 V2000
   -0.1640    9.3500   -4.2920 C   0  0  0  0  0  0  0  0  0  0  0  0
    0.1230    9.5710   -2.8040 C   0  0  2  0  0  0  0  0  0  0  0  0
   -0.5700    8.5180   -1.9170 C   0  0  0  0  0  0  0  0  0  0  0  0
   -2.0990    8.5650   -1.9860 C   0  0  0  0  0  0  0  0  0  0  0  0
   -2.6610    7.3490   -2.6580 C   0  0  2  0  0  0  0  0  0  0  0  0
   -3.7230    7.6140   -3.5840 O   0  0  0  0  0  0  0  0  0  0  0  0
   -4.0720    6.8410   -2.4240 C   0  0  0  0  0  0  0  0  0  0  0  0
   -5.0070    7.5380   -1.4860 C   0  0  0  0  0  0  0  0  0  0  0  0
   -4.3740    5.4060   -2.7240 C   0  0  0  0  0  0  0  0  0  0  0  0
   -0.3180   10.9710   -2.3920 C   0  0  1  0  0  0  0  0  0  0  0  0
   -1.5100   10.9540   -1.3990 C   0  0  0  0  0  0  0  0  0  0  0  0
   -1.3030   12.1470   -0.4310 C   0  0  0  0  0  0  0  0  0  0  0  0
   -0.1950   12.9990   -1.0940 C   0  0  1  0  0  0  0  0  0  0  0  0
   -0.9350   13.8440   -2.1780 C   0  0  0  0  0  0  0  0  0  0  0  0
    0.6490   13.9010   -0.1360 C   0  0  2  0  0  0  0  0  0  0  0  0
   -0.1470   14.9900    0.6060 C   0  0  0  0  0  0  0  0  0  0  0  0
   -0.2370   16.3040   -0.0960 C   0  0  0  0  0  0  0  0  0  0  0  0
    0.5310   16.6910   -1.1320 C   0  0  0  0  0  0  0  0  0  0  0  0
    1.6770   15.8060   -1.6380 C   0  0  1  0  0  0  0  0  0  0  0  0
    2.9480   16.6710   -1.8420 C   0  0  0  0  0  0  0  0  0  0  0  0
    2.6980   17.8740   -2.7460 C   0  0  0  0  0  0  0  0  0  0  0  0
    1.5920   18.7610   -2.1800 C   0  0  2  0  0  0  0  0  0  0  0  0
    2.0520   19.3490   -0.9590 O   0  0  0  0  0  0  0  0  0  0  0  0
    0.2640   17.9960   -1.9230 C   0  0  0  0  0  0  0  0  0  0  0  0
   -0.3900   17.6190   -3.2760 C   0  0  0  0  0  0  0  0  0  0  0  0
   -0.7210   18.9700   -1.2220 C   0  0  0  0  0  0  0  0  0  0  0  0
    1.9630   14.4920   -0.7920 C   0  0  1  0  0  0  0  0  0  0  0  0
    2.9390   14.8150    0.3810 C   0  0  0  0  0  0  0  0  0  0  0  0
    2.6990   13.4420   -1.7050 C   0  0  0  0  0  0  0  0  0  0  0  0
    1.8080   12.4990   -2.5370 C   0  0  0  0  0  0  0  0  0  0  0  0
    0.7240   11.8590   -1.6660 C   0  0  2  0  0  0  0  0  0  0  0  0
    1.4370   10.9850   -0.5790 C   0  0  0  0  0  0  0  0  0  0  0  0
   -1.0311    8.6823   -4.4030 H   0  0  0  0  0  0  0  0  0  0  0  0
   -0.3815   10.3161   -4.7709 H   0  0  0  0  0  0  0  0  0  0  0  0
    0.7144    8.8929   -4.7709 H   0  0  0  0  0  0  0  0  0  0  0  0
    1.2079    9.4646   -2.6565 H   0  0  0  0  0  0  0  0  0  0  0  0
   -0.2384    7.5199   -2.2393 H   0  0  0  0  0  0  0  0  0  0  0  0
   -0.2883    8.7383   -0.8768 H   0  0  0  0  0  0  0  0  0  0  0  0
   -2.5003    8.6249   -0.9636 H   0  0  0  0  0  0  0  0  0  0  0  0
   -2.3888    9.4474   -2.5754 H   0  0  0  0  0  0  0  0  0  0  0  0
   -1.6818    6.8489   -2.6253 H   0  0  0  0  0  0  0  0  0  0  0  0
   -4.7149    7.3203   -0.4481 H   0  0  0  0  0  0  0  0  0  0  0  0
   -4.9598    8.6231   -1.6603 H   0  0  0  0  0  0  0  0  0  0  0  0
   -6.0334    7.1829   -1.6603 H   0  0  0  0  0  0  0  0  0  0  0  0
   -4.4908    4.8511   -1.7814 H   0  0  0  0  0  0  0  0  0  0  0  0
   -5.3055    5.3411   -3.3055 H   0  0  0  0  0  0  0  0  0  0  0  0
   -3.5477    4.9712   -3.3055 H   0  0  0  0  0  0  0  0  0  0  0  0
   -0.5465   11.3918   -3.3823 H   0  0  0  0  0  0  0  0  0  0  0  0
   -2.4586   11.0686   -1.9440 H   0  0  0  0  0  0  0  0  0  0  0  0
   -1.5524   10.0022   -0.8492 H   0  0  0  0  0  0  0  0  0  0  0  0
   -2.2308   12.7288   -0.3276 H   0  0  0  0  0  0  0  0  0  0  0  0
   -1.0275   11.8194    0.5823 H   0  0  0  0  0  0  0  0  0  0  0  0
   -1.5833   14.5843   -1.6864 H   0  0  0  0  0  0  0  0  0  0  0  0
   -0.1959   14.3633   -2.8058 H   0  0  0  0  0  0  0  0  0  0  0  0
   -1.5473   13.1799   -2.8058 H   0  0  0  0  0  0  0  0  0  0  0  0
    0.9706   13.1872    0.6367 H   0  0  0  0  0  0  0  0  0  0  0  0
   -1.1701   14.6169    0.7613 H   0  0  0  0  0  0  0  0  0  0  0  0
    0.3989   15.1817    1.5416 H   0  0  0  0  0  0  0  0  0  0  0  0
   -0.9945   17.0162    0.2632 H   0  0  0  0  0  0  0  0  0  0  0  0
    1.3434   15.3993   -2.6041 H   0  0  0  0  0  0  0  0  0  0  0  0
    3.2899   17.0322   -0.8609 H   0  0  0  0  0  0  0  0  0  0  0  0
    3.7068   16.0401   -2.3280 H   0  0  0  0  0  0  0  0  0  0  0  0
    3.6243   18.4616   -2.8278 H   0  0  0  0  0  0  0  0  0  0  0  0
    2.3846   17.5104   -3.7358 H   0  0  0  0  0  0  0  0  0  0  0  0
    1.3695   19.5312   -2.9331 H   0  0  0  0  0  0  0  0  0  0  0  0
    2.5170   20.1730   -1.1860 H   0  0  0  0  0  0  0  0  0  0  0  0
   -1.3294   17.0775   -3.0909 H   0  0  0  0  0  0  0  0  0  0  0  0
   -0.6010   18.5340   -3.8489 H   0  0  0  0  0  0  0  0  0  0  0  0
    0.2961   16.9778   -3.8489 H   0  0  0  0  0  0  0  0  0  0  0  0
   -0.6207   18.8708   -0.1311 H   0  0  0  0  0  0  0  0  0  0  0  0
   -0.4886   20.0033   -1.5191 H   0  0  0  0  0  0  0  0  0  0  0  0
   -1.7516   18.7260   -1.5191 H   0  0  0  0  0  0  0  0  0  0  0  0
    2.4280   14.6459    1.3403 H   0  0  0  0  0  0  0  0  0  0  0  0
    3.8208   14.1608    0.3150 H   0  0  0  0  0  0  0  0  0  0  0  0
    3.2565   15.8661    0.3150 H   0  0  0  0  0  0  0  0  0  0  0  0
    3.3380   14.0000   -2.4053 H   0  0  0  0  0  0  0  0  0  0  0  0
    3.2415   12.7855   -1.0088 H   0  0  0  0  0  0  0  0  0  0  0  0
    1.3289   13.0745   -3.3428 H   0  0  0  0  0  0  0  0  0  0  0  0
    2.4379   11.7005   -2.9561 H   0  0  0  0  0  0  0  0  0  0  0  0
    1.1490   11.3381    0.4222 H   0  0  0  0  0  0  0  0  0  0  0  0
    1.1354    9.9339   -0.6979 H   0  0  0  0  0  0  0  0  0  0  0  0
    2.5273   11.0693   -0.6979 H   0  0  0  0  0  0  0  0  0  0  0  0
  1  2  1  0
  2  3  1  0
  3  4  1  0
  4  5  1  0
  5  6  1  0
  6  7  1  0
  7  8  1  0
  7  9  1  0
  2 10  1  0
 10 11  1  0
 11 12  1  0
 12 13  1  0
 13 14  1  6
 13 15  1  0
 15 16  1  0
 16 17  1  0
 17 18  2  0
 18 19  1  0
 19 20  1  0
 20 21  1  0
 21 22  1  0
 22 23  1  0
 22 24  1  0
 24 25  1  0
 24 26  1  0
 19 27  1  0
 27 28  1  1
 27 29  1  0
 29 30  1  0
 30 31  1  0
 31 32  1  1
  7  5  1  0
 31 10  1  0
 31 13  1  0
 27 15  1  0
 24 18  1  0
  1 33  1  0
  1 34  1  0
  1 35  1  0
  2 36  1  6
  3 37  1  0
  3 38  1  0
  4 39  1  0
  4 40  1  0
  5 41  1  6
  8 42  1  0
  8 43  1  0
  8 44  1  0
  9 45  1  0
  9 46  1  0
  9 47  1  0
 10 48  1  6
 11 49  1  0
 11 50  1  0
 12 51  1  0
 12 52  1  0
 14 53  1  0
 14 54  1  0
 14 55  1  0
 15 56  1  1
 16 57  1  0
 16 58  1  0
 17 59  1  0
 19 60  1  6
 20 61  1  0
 20 62  1  0
 21 63  1  0
 21 64  1  0
 22 65  1  6
 23 66  1  0
 25 67  1  0
 25 68  1  0
 25 69  1  0
 26 70  1  0
 26 71  1  0
 26 72  1  0
 28 73  1  0
 28 74  1  0
 28 75  1  0
 29 76  1  0
 29 77  1  0
 30 78  1  0
 30 79  1  0
 32 80  1  0
 32 81  1  0
 32 82  1  0
M  END
>  <meeko>  (18) 
{"is_sidechain": [false], "intermolecular_energy": 2.731, "internal_energy": -0.839}

$$$$
EPH_relaxed_0001_pdb2pqr_Repair_398_r2_0001_out
     RDKit          3D

 82 86  0  0  0  0  0  0  0  0999 V2000
   -2.5590   10.0840   -0.5020 C   0  0  0  0  0  0  0  0  0  0  0  0
   -1.2860   10.4170   -1.2840 C   0  0  2  0  0  0  0  0  0  0  0  0
   -0.2880    9.2420   -1.2970 C   0  0  0  0  0  0  0  0  0  0  0  0
    1.1780    9.6780   -1.2250 C   0  0  0  0  0  0  0  0  0  0  0  0
    1.7800    9.8250   -2.5900 C   0  0  2  0  0  0  0  0  0  0  0  0
    3.0190    9.1300   -2.7760 O   0  0  0  0  0  0  0  0  0  0  0  0
    3.0780   10.5630   -2.8570 C   0  0  0  0  0  0  0  0  0  0  0  0
    3.8530   11.2040   -1.7480 C   0  0  0  0  0  0  0  0  0  0  0  0
    3.3380   11.0790   -4.2380 C   0  0  0  0  0  0  0  0  0  0  0  0
   -0.6230   11.6570   -0.6950 C   0  0  1  0  0  0  0  0  0  0  0  0
    0.5750   11.3120    0.2290 C   0  0  0  0  0  0  0  0  0  0  0  0
    1.6250   12.4370    0.0390 C   0  0  0  0  0  0  0  0  0  0  0  0
    0.8690   13.5510   -0.7230 C   0  0  1  0  0  0  0  0  0  0  0  0
    0.0660   14.3140    0.3760 C   0  0  0  0  0  0  0  0  0  0  0  0
    1.7480   14.5230   -1.5760 C   0  0  2  0  0  0  0  0  0  0  0  0
    2.7620   15.3580   -0.7750 C   0  0  0  0  0  0  0  0  0  0  0  0
    2.2610   16.6810   -0.2960 C   0  0  0  0  0  0  0  0  0  0  0  0
    1.1520   17.3030   -0.7350 C   0  0  0  0  0  0  0  0  0  0  0  0
    0.3240   16.7170   -1.8870 C   0  0  1  0  0  0  0  0  0  0  0  0
   -0.0160   17.8390   -2.9030 C   0  0  0  0  0  0  0  0  0  0  0  0
   -0.6950   19.0370   -2.2460 C   0  0  0  0  0  0  0  0  0  0  0  0
    0.1840   19.6270   -1.1470 C   0  0  2  0  0  0  0  0  0  0  0  0
    1.3540   20.1920   -1.7450 O   0  0  0  0  0  0  0  0  0  0  0  0
    0.5980   18.5870   -0.0690 C   0  0  0  0  0  0  0  0  0  0  0  0
   -0.6360   18.1990    0.7820 C   0  0  0  0  0  0  0  0  0  0  0  0
    1.5960   19.2760    0.9010 C   0  0  0  0  0  0  0  0  0  0  0  0
    0.9270   15.4230   -2.5850 C   0  0  1  0  0  0  0  0  0  0  0  0
    1.9160   15.8400   -3.7160 C   0  0  0  0  0  0  0  0  0  0  0  0
   -0.2380   14.6270   -3.2850 C   0  0  0  0  0  0  0  0  0  0  0  0
   -0.9900   13.5960   -2.4230 C   0  0  0  0  0  0  0  0  0  0  0  0
   -0.0100   12.6750   -1.6890 C   0  0  2  0  0  0  0  0  0  0  0  0
    0.7970   11.8780   -2.7690 C   0  0  0  0  0  0  0  0  0  0  0  0
   -2.3513   10.1383    0.5769 H   0  0  0  0  0  0  0  0  0  0  0  0
   -3.3475   10.8061   -0.7604 H   0  0  0  0  0  0  0  0  0  0  0  0
   -2.8929    9.0683   -0.7604 H   0  0  0  0  0  0  0  0  0  0  0  0
   -1.5798   10.6120   -2.3260 H   0  0  0  0  0  0  0  0  0  0  0  0
   -0.5009    8.5961   -0.4325 H   0  0  0  0  0  0  0  0  0  0  0  0
   -0.4207    8.7185   -2.2553 H   0  0  0  0  0  0  0  0  0  0  0  0
    1.2373   10.6445   -0.7032 H   0  0  0  0  0  0  0  0  0  0  0  0
    1.7403    8.9028   -0.6837 H   0  0  0  0  0  0  0  0  0  0  0  0
    0.7823    9.8981   -3.0474 H   0  0  0  0  0  0  0  0  0  0  0  0
    3.4508   10.8714   -0.7797 H   0  0  0  0  0  0  0  0  0  0  0  0
    4.9112   10.9137   -1.8247 H   0  0  0  0  0  0  0  0  0  0  0  0
    3.7664   12.2979   -1.8247 H   0  0  0  0  0  0  0  0  0  0  0  0
    3.8322   12.0598   -4.1760 H   0  0  0  0  0  0  0  0  0  0  0  0
    3.9885   10.3740   -4.7764 H   0  0  0  0  0  0  0  0  0  0  0  0
    2.3844   11.1823   -4.7764 H   0  0  0  0  0  0  0  0  0  0  0  0
   -1.4885   12.1042   -0.1842 H   0  0  0  0  0  0  0  0  0  0  0  0
    0.2458   11.2743    1.2779 H   0  0  0  0  0  0  0  0  0  0  0  0
    0.9990   10.3291   -0.0244 H   0  0  0  0  0  0  0  0  0  0  0  0
    1.9805   12.8050    1.0128 H   0  0  0  0  0  0  0  0  0  0  0  0
    2.5154   12.0893   -0.5054 H   0  0  0  0  0  0  0  0  0  0  0  0
    0.4068   13.9901    1.3705 H   0  0  0  0  0  0  0  0  0  0  0  0
    0.2312   15.3960    0.2661 H   0  0  0  0  0  0  0  0  0  0  0  0
   -1.0061   14.0938    0.2661 H   0  0  0  0  0  0  0  0  0  0  0  0
    2.3465   13.8281   -2.1833 H   0  0  0  0  0  0  0  0  0  0  0  0
    3.0667   14.7712    0.1041 H   0  0  0  0  0  0  0  0  0  0  0  0
    3.5893   15.5775   -1.4659 H   0  0  0  0  0  0  0  0  0  0  0  0
    2.8489   17.1901    0.4820 H   0  0  0  0  0  0  0  0  0  0  0  0
   -0.6011   16.3326   -1.4327 H   0  0  0  0  0  0  0  0  0  0  0  0
    0.9161   18.1788   -3.3782 H   0  0  0  0  0  0  0  0  0  0  0  0
   -0.7171   17.4207   -3.6402 H   0  0  0  0  0  0  0  0  0  0  0  0
   -0.8833   19.8070   -3.0086 H   0  0  0  0  0  0  0  0  0  0  0  0
   -1.6412   18.7014   -1.7965 H   0  0  0  0  0  0  0  0  0  0  0  0
   -0.4078   20.3963   -0.6294 H   0  0  0  0  0  0  0  0  0  0  0  0
    1.3840   19.8960   -2.6710 H   0  0  0  0  0  0  0  0  0  0  0  0
   -0.3845   18.2781    1.8499 H   0  0  0  0  0  0  0  0  0  0  0  0
   -1.4695   18.8784    0.5503 H   0  0  0  0  0  0  0  0  0  0  0  0
   -0.9307   17.1648    0.5503 H   0  0  0  0  0  0  0  0  0  0  0  0
    1.2985   19.0706    1.9399 H   0  0  0  0  0  0  0  0  0  0  0  0
    2.6085   18.8836    0.7251 H   0  0  0  0  0  0  0  0  0  0  0  0
    1.5879   20.3618    0.7251 H   0  0  0  0  0  0  0  0  0  0  0  0
    2.8417   16.2303   -3.2681 H   0  0  0  0  0  0  0  0  0  0  0  0
    2.1509   14.9643   -4.3389 H   0  0  0  0  0  0  0  0  0  0  0  0
    1.4530   16.6195   -4.3389 H   0  0  0  0  0  0  0  0  0  0  0  0
   -0.9743   15.3614   -3.6435 H   0  0  0  0  0  0  0  0  0  0  0  0
    0.2499   14.0393   -4.0766 H   0  0  0  0  0  0  0  0  0  0  0  0
   -1.6072   14.1272   -1.6834 H   0  0  0  0  0  0  0  0  0  0  0  0
   -1.6214   12.9820   -3.0820 H   0  0  0  0  0  0  0  0  0  0  0  0
    1.4948   11.1889   -2.2708 H   0  0  0  0  0  0  0  0  0  0  0  0
    0.1004   11.3036   -3.3974 H   0  0  0  0  0  0  0  0  0  0  0  0
    1.3626   12.5817   -3.3974 H   0  0  0  0  0  0  0  0  0  0  0  0
  1  2  1  0
  2  3  1  0
  3  4  1  0
  4  5  1  0
  5  6  1  0
  6  7  1  0
  7  8  1  0
  7  9  1  0
  2 10  1  0
 10 11  1  0
 11 12  1  0
 12 13  1  0
 13 14  1  1
 13 15  1  0
 15 16  1  0
 16 17  1  0
 17 18  2  0
 18 19  1  0
 19 20  1  0
 20 21  1  0
 21 22  1  0
 22 23  1  0
 22 24  1  0
 24 25  1  0
 24 26  1  0
 19 27  1  0
 27 28  1  6
 27 29  1  0
 29 30  1  0
 30 31  1  0
 31 32  1  6
  7  5  1  0
 31 10  1  0
 31 13  1  0
 27 15  1  0
 24 18  1  0
  1 33  1  0
  1 34  1  0
  1 35  1  0
  2 36  1  6
  3 37  1  0
  3 38  1  0
  4 39  1  0
  4 40  1  0
  5 41  1  6
  8 42  1  0
  8 43  1  0
  8 44  1  0
  9 45  1  0
  9 46  1  0
  9 47  1  0
 10 48  1  1
 11 49  1  0
 11 50  1  0
 12 51  1  0
 12 52  1  0
 14 53  1  0
 14 54  1  0
 14 55  1  0
 15 56  1  6
 16 57  1  0
 16 58  1  0
 17 59  1  0
 19 60  1  1
 20 61  1  0
 20 62  1  0
 21 63  1  0
 21 64  1  0
 22 65  1  1
 23 66  1  0
 25 67  1  0
 25 68  1  0
 25 69  1  0
 26 70  1  0
 26 71  1  0
 26 72  1  0
 28 73  1  0
 28 74  1  0
 28 75  1  0
 29 76  1  0
 29 77  1  0
 30 78  1  0
 30 79  1  0
 32 80  1  0
 32 81  1  0
 32 82  1  0
M  END
>  <meeko>  (19) 
{"is_sidechain": [false], "intermolecular_energy": 2.731, "internal_energy": -0.839}

$$$$
