EPH_relaxed_0001_pdb2pqr_Repair_358_r2_0001_out
     RDKit          3D

 82 86  0  0  0  0  0  0  0  0999 V2000
   -4.8150   11.1320    0.2050 C   0  0  0  0  0  0  0  0  0  0  0  0
   -3.4680   10.6120   -0.3040 C   0  0  2  0  0  0  0  0  0  0  0  0
   -3.1560    9.1960    0.2230 C   0  0  0  0  0  0  0  0  0  0  0  0
   -3.5460    8.0790   -0.7490 C   0  0  0  0  0  0  0  0  0  0  0  0
   -5.0330    7.9500   -0.8790 C   0  0  2  0  0  0  0  0  0  0  0  0
   -5.5330    6.6130   -0.7450 O   0  0  0  0  0  0  0  0  0  0  0  0
   -5.7140    7.2320   -2.0290 C   0  0  0  0  0  0  0  0  0  0  0  0
   -4.9230    6.5950   -3.1280 C   0  0  0  0  0  0  0  0  0  0  0  0
   -7.1390    7.5690   -2.3400 C   0  0  0  0  0  0  0  0  0  0  0  0
   -2.3550   11.5730    0.0960 C   0  0  1  0  0  0  0  0  0  0  0  0
   -1.5070   11.0440    1.2840 C   0  0  0  0  0  0  0  0  0  0  0  0
   -0.0510   11.5170    1.0390 C   0  0  0  0  0  0  0  0  0  0  0  0
   -0.1670   12.5700   -0.0880 C   0  0  1  0  0  0  0  0  0  0  0  0
   -0.6060   13.8830    0.6340 C   0  0  0  0  0  0  0  0  0  0  0  0
    1.1110   12.7910   -0.9610 C   0  0  2  0  0  0  0  0  0  0  0  0
    2.3390   13.3190   -0.1990 C   0  0  0  0  0  0  0  0  0  0  0  0
    2.4630   14.8060   -0.1420 C   0  0  0  0  0  0  0  0  0  0  0  0
    1.7880   15.6780   -0.9140 C   0  0  0  0  0  0  0  0  0  0  0  0
    0.8610   15.1850   -2.0330 C   0  0  1  0  0  0  0  0  0  0  0  0
    1.1340   15.9970   -3.3270 C   0  0  0  0  0  0  0  0  0  0  0  0
    1.0320   17.5030   -3.1050 C   0  0  0  0  0  0  0  0  0  0  0  0
    2.0090   17.9630   -2.0260 C   0  0  2  0  0  0  0  0  0  0  0  0
    3.3450   17.7860   -2.5090 O   0  0  0  0  0  0  0  0  0  0  0  0
    1.8350   17.2070   -0.6790 C   0  0  0  0  0  0  0  0  0  0  0  0
    0.5070   17.6380   -0.0090 C   0  0  0  0  0  0  0  0  0  0  0  0
    2.9710   17.6660    0.2750 C   0  0  0  0  0  0  0  0  0  0  0  0
    0.8550   13.6160   -2.2870 C   0  0  1  0  0  0  0  0  0  0  0  0
    1.9960   13.2320   -3.2780 C   0  0  0  0  0  0  0  0  0  0  0  0
   -0.4960   13.2150   -2.9900 C   0  0  0  0  0  0  0  0  0  0  0  0
   -1.6890   12.8920   -2.0700 C   0  0  0  0  0  0  0  0  0  0  0  0
   -1.2830   11.9040   -0.9720 C   0  0  2  0  0  0  0  0  0  0  0  0
   -0.8570   10.5660   -1.6670 C   0  0  0  0  0  0  0  0  0  0  0  0
   -4.8159   11.1324    1.3050 H   0  0  0  0  0  0  0  0  0  0  0  0
   -4.9750   12.1565   -0.1621 H   0  0  0  0  0  0  0  0  0  0  0  0
   -5.6219   10.4807   -0.1621 H   0  0  0  0  0  0  0  0  0  0  0  0
   -3.5298   10.5506   -1.4005 H   0  0  0  0  0  0  0  0  0  0  0  0
   -2.0752    9.1273    0.4158 H   0  0  0  0  0  0  0  0  0  0  0  0
   -3.7543    9.0527    1.1349 H   0  0  0  0  0  0  0  0  0  0  0  0
   -3.1200    8.3027   -1.7382 H   0  0  0  0  0  0  0  0  0  0  0  0
   -3.1531    7.1300   -0.3553 H   0  0  0  0  0  0  0  0  0  0  0  0
   -5.1805    8.9486   -0.4418 H   0  0  0  0  0  0  0  0  0  0  0  0
   -4.1360    5.9612   -2.6934 H   0  0  0  0  0  0  0  0  0  0  0  0
   -5.5891    5.9783   -3.7492 H   0  0  0  0  0  0  0  0  0  0  0  0
   -4.4625    7.3773   -3.7492 H   0  0  0  0  0  0  0  0  0  0  0  0
   -7.6977    7.7011   -1.4017 H   0  0  0  0  0  0  0  0  0  0  0  0
   -7.1765    8.5008   -2.9234 H   0  0  0  0  0  0  0  0  0  0  0  0
   -7.5899    6.7527   -2.9234 H   0  0  0  0  0  0  0  0  0  0  0  0
   -2.9551   12.4681    0.3166 H   0  0  0  0  0  0  0  0  0  0  0  0
   -1.8846   11.4552    2.2318 H   0  0  0  0  0  0  0  0  0  0  0  0
   -1.5604    9.9473    1.3503 H   0  0  0  0  0  0  0  0  0  0  0  0
    0.3692   11.9680    1.9500 H   0  0  0  0  0  0  0  0  0  0  0  0
    0.6170   10.6866    0.7667 H   0  0  0  0  0  0  0  0  0  0  0  0
   -0.5570   13.7365    1.7231 H   0  0  0  0  0  0  0  0  0  0  0  0
    0.0667   14.7035    0.3438 H   0  0  0  0  0  0  0  0  0  0  0  0
   -1.6369   14.1339    0.3438 H   0  0  0  0  0  0  0  0  0  0  0  0
    1.3677   11.7660   -1.2668 H   0  0  0  0  0  0  0  0  0  0  0  0
    2.2864   12.9424    0.8332 H   0  0  0  0  0  0  0  0  0  0  0  0
    3.2187   12.9612   -0.7540 H   0  0  0  0  0  0  0  0  0  0  0  0
    3.1658   15.2245    0.5935 H   0  0  0  0  0  0  0  0  0  0  0  0
   -0.1649   15.3735   -1.6836 H   0  0  0  0  0  0  0  0  0  0  0  0
    2.1473   15.7610   -3.6842 H   0  0  0  0  0  0  0  0  0  0  0  0
    0.3688   15.7157   -4.0654 H   0  0  0  0  0  0  0  0  0  0  0  0
    1.2648   18.0222   -4.0464 H   0  0  0  0  0  0  0  0  0  0  0  0
    0.0093   17.7410   -2.7771 H   0  0  0  0  0  0  0  0  0  0  0  0
    1.7982   19.0227   -1.8194 H   0  0  0  0  0  0  0  0  0  0  0  0
    3.5050   16.8300   -2.5860 H   0  0  0  0  0  0  0  0  0  0  0  0
    0.6193   17.6015    1.0846 H   0  0  0  0  0  0  0  0  0  0  0  0
    0.2564   18.6636   -0.3179 H   0  0  0  0  0  0  0  0  0  0  0  0
   -0.2981   16.9550   -0.3179 H   0  0  0  0  0  0  0  0  0  0  0  0
    2.6485   17.5357    1.3186 H   0  0  0  0  0  0  0  0  0  0  0  0
    3.8711   17.0610    0.0911 H   0  0  0  0  0  0  0  0  0  0  0  0
    3.1981   18.7265    0.0911 H   0  0  0  0  0  0  0  0  0  0  0  0
    2.8890   12.9315   -2.7103 H   0  0  0  0  0  0  0  0  0  0  0  0
    1.6655   12.3956   -3.9114 H   0  0  0  0  0  0  0  0  0  0  0  0
    2.2384   14.0981   -3.9114 H   0  0  0  0  0  0  0  0  0  0  0  0
   -0.7938   14.0510   -3.6399 H   0  0  0  0  0  0  0  0  0  0  0  0
   -0.2775   12.2753   -3.5184 H   0  0  0  0  0  0  0  0  0  0  0  0
   -2.0456   13.8221   -1.6033 H   0  0  0  0  0  0  0  0  0  0  0  0
   -2.4854   12.4352   -2.6758 H   0  0  0  0  0  0  0  0  0  0  0  0
   -0.6177    9.8145   -0.9002 H   0  0  0  0  0  0  0  0  0  0  0  0
   -1.6829   10.1996   -2.2944 H   0  0  0  0  0  0  0  0  0  0  0  0
    0.0287   10.7445   -2.2944 H   0  0  0  0  0  0  0  0  0  0  0  0
  1  2  1  0
  2  3  1  0
  3  4  1  0
  4  5  1  0
  5  6  1  0
  6  7  1  0
  7  8  1  0
  7  9  1  0
  2 10  1  0
 10 11  1  0
 11 12  1  0
 12 13  1  0
 13 14  1  1
 13 15  1  0
 15 16  1  0
 16 17  1  0
 17 18  2  0
 18 19  1  0
 19 20  1  0
 20 21  1  0
 21 22  1  0
 22 23  1  0
 22 24  1  0
 24 25  1  0
 24 26  1  0
 19 27  1  0
 27 28  1  6
 27 29  1  0
 29 30  1  0
 30 31  1  0
 31 32  1  6
  7  5  1  0
 31 10  1  0
 31 13  1  0
 27 15  1  0
 24 18  1  0
  1 33  1  0
  1 34  1  0
  1 35  1  0
  2 36  1  6
  3 37  1  0
  3 38  1  0
  4 39  1  0
  4 40  1  0
  5 41  1  1
  8 42  1  0
  8 43  1  0
  8 44  1  0
  9 45  1  0
  9 46  1  0
  9 47  1  0
 10 48  1  1
 11 49  1  0
 11 50  1  0
 12 51  1  0
 12 52  1  0
 14 53  1  0
 14 54  1  0
 14 55  1  0
 15 56  1  6
 16 57  1  0
 16 58  1  0
 17 59  1  0
 19 60  1  1
 20 61  1  0
 20 62  1  0
 21 63  1  0
 21 64  1  0
 22 65  1  1
 23 66  1  0
 25 67  1  0
 25 68  1  0
 25 69  1  0
 26 70  1  0
 26 71  1  0
 26 72  1  0
 28 73  1  0
 28 74  1  0
 28 75  1  0
 29 76  1  0
 29 77  1  0
 30 78  1  0
 30 79  1  0
 32 80  1  0
 32 81  1  0
 32 82  1  0
M  END
>  <meeko>  (1) 
{"is_sidechain": [false], "intermolecular_energy": 2.731, "internal_energy": -0.839}

$$$$
EPH_relaxed_0001_pdb2pqr_Repair_358_r2_0001_out
     RDKit          3D

 82 86  0  0  0  0  0  0  0  0999 V2000
   -1.8590    8.6920   -1.8590 C   0  0  0  0  0  0  0  0  0  0  0  0
   -2.2130    9.1540   -0.4420 C   0  0  2  0  0  0  0  0  0  0  0  0
   -3.7150    9.4680   -0.2920 C   0  0  0  0  0  0  0  0  0  0  0  0
   -4.5990    8.2220   -0.2010 C   0  0  0  0  0  0  0  0  0  0  0  0
   -5.2610    7.9160   -1.5100 C   0  0  2  0  0  0  0  0  0  0  0  0
   -6.4590    8.6620   -1.7640 O   0  0  0  0  0  0  0  0  0  0  0  0
   -6.6150    7.2400   -1.6250 C   0  0  0  0  0  0  0  0  0  0  0  0
   -7.3870    6.8290   -0.4110 C   0  0  0  0  0  0  0  0  0  0  0  0
   -6.9610    6.5440   -2.9040 C   0  0  0  0  0  0  0  0  0  0  0  0
   -1.3840   10.3790   -0.0730 C   0  0  1  0  0  0  0  0  0  0  0  0
   -0.4360   10.1190    1.1270 C   0  0  0  0  0  0  0  0  0  0  0  0
    0.8520   10.9410    0.8660 C   0  0  0  0  0  0  0  0  0  0  0  0
    0.4770   11.8960   -0.2920 C   0  0  1  0  0  0  0  0  0  0  0  0
   -0.2870   13.0740    0.3920 C   0  0  0  0  0  0  0  0  0  0  0  0
    1.6610   12.4110   -1.1740 C   0  0  2  0  0  0  0  0  0  0  0  0
    2.7090   13.2570   -0.4300 C   0  0  0  0  0  0  0  0  0  0  0  0
    2.4490   14.7270   -0.4170 C   0  0  0  0  0  0  0  0  0  0  0  0
    1.5780   15.3750   -1.2140 C   0  0  0  0  0  0  0  0  0  0  0  0
    0.8140   14.6290   -2.3160 C   0  0  1  0  0  0  0  0  0  0  0  0
    0.8780   15.4460   -3.6330 C   0  0  0  0  0  0  0  0  0  0  0  0
    0.3920   16.8810   -3.4560 C   0  0  0  0  0  0  0  0  0  0  0  0
    1.2140   17.6070   -2.3930 C   0  0  2  0  0  0  0  0  0  0  0  0
    2.5530   17.7630   -2.8730 O   0  0  0  0  0  0  0  0  0  0  0  0
    1.2310   16.8720   -1.0240 C   0  0  0  0  0  0  0  0  0  0  0  0
   -0.1670   16.9680   -0.3640 C   0  0  0  0  0  0  0  0  0  0  0  0
    2.2070   17.6330   -0.0860 C   0  0  0  0  0  0  0  0  0  0  0  0
    1.2100   13.1040   -2.5230 C   0  0  1  0  0  0  0  0  0  0  0  0
    2.4170   12.9960   -3.5040 C   0  0  0  0  0  0  0  0  0  0  0  0
    0.0100   12.3510   -3.2110 C   0  0  0  0  0  0  0  0  0  0  0  0
   -1.0650   11.7610   -2.2790 C   0  0  0  0  0  0  0  0  0  0  0  0
   -0.4270   10.9410   -1.1540 C   0  0  2  0  0  0  0  0  0  0  0  0
    0.3310    9.7370   -1.8090 C   0  0  0  0  0  0  0  0  0  0  0  0
   -1.1908    7.8199   -1.8041 H   0  0  0  0  0  0  0  0  0  0  0  0
   -2.7789    8.4159   -2.3952 H   0  0  0  0  0  0  0  0  0  0  0  0
   -1.3531    9.5084   -2.3952 H   0  0  0  0  0  0  0  0  0  0  0  0
   -1.9794    8.3269    0.2445 H   0  0  0  0  0  0  0  0  0  0  0  0
   -3.8558   10.0611    0.6236 H   0  0  0  0  0  0  0  0  0  0  0  0
   -4.0209   10.0132   -1.1971 H   0  0  0  0  0  0  0  0  0  0  0  0
   -3.9767    7.3640    0.0930 H   0  0  0  0  0  0  0  0  0  0  0  0
   -5.3849    8.4125    0.5447 H   0  0  0  0  0  0  0  0  0  0  0  0
   -4.2888    7.7050   -1.9793 H   0  0  0  0  0  0  0  0  0  0  0  0
   -6.8334    7.1237    0.4927 H   0  0  0  0  0  0  0  0  0  0  0  0
   -8.3696    7.3234   -0.4166 H   0  0  0  0  0  0  0  0  0  0  0  0
   -7.5255    5.7378   -0.4166 H   0  0  0  0  0  0  0  0  0  0  0  0
   -7.4403    5.5799   -2.6787 H   0  0  0  0  0  0  0  0  0  0  0  0
   -7.6528    7.1701   -3.4866 H   0  0  0  0  0  0  0  0  0  0  0  0
   -6.0443    6.3705   -3.4866 H   0  0  0  0  0  0  0  0  0  0  0  0
   -2.1932   11.0977    0.1234 H   0  0  0  0  0  0  0  0  0  0  0  0
   -0.9114   10.4469    2.0632 H   0  0  0  0  0  0  0  0  0  0  0  0
   -0.2075    9.0474    1.2248 H   0  0  0  0  0  0  0  0  0  0  0  0
    1.1374   11.5109    1.7625 H   0  0  0  0  0  0  0  0  0  0  0  0
    1.7120   10.3016    0.6178 H   0  0  0  0  0  0  0  0  0  0  0  0
   -0.2192   12.9695    1.4849 H   0  0  0  0  0  0  0  0  0  0  0  0
    0.1636   14.0298    0.0864 H   0  0  0  0  0  0  0  0  0  0  0  0
   -1.3435   13.0524    0.0864 H   0  0  0  0  0  0  0  0  0  0  0  0
    2.1730   11.4775   -1.4505 H   0  0  0  0  0  0  0  0  0  0  0  0
    2.7482   12.9095    0.6129 H   0  0  0  0  0  0  0  0  0  0  0  0
    3.6541   13.1198   -0.9758 H   0  0  0  0  0  0  0  0  0  0  0  0
    3.0170   15.3322    0.3048 H   0  0  0  0  0  0  0  0  0  0  0  0
   -0.2281   14.5587   -1.9708 H   0  0  0  0  0  0  0  0  0  0  0  0
    1.9202   15.4676   -3.9841 H   0  0  0  0  0  0  0  0  0  0  0  0
    0.2150   14.9567   -4.3617 H   0  0  0  0  0  0  0  0  0  0  0  0
    0.4887   17.4147   -4.4130 H   0  0  0  0  0  0  0  0  0  0  0  0
   -0.6594   16.8590   -3.1333 H   0  0  0  0  0  0  0  0  0  0  0  0
    0.7388   18.5835   -2.2180 H   0  0  0  0  0  0  0  0  0  0  0  0
    2.6340   18.6630   -3.2320 H   0  0  0  0  0  0  0  0  0  0  0  0
   -0.0571   16.9605    0.7305 H   0  0  0  0  0  0  0  0  0  0  0  0
   -0.6568   17.9019   -0.6769 H   0  0  0  0  0  0  0  0  0  0  0  0
   -0.7799   16.1098   -0.6769 H   0  0  0  0  0  0  0  0  0  0  0  0
    1.9434   17.4275    0.9620 H   0  0  0  0  0  0  0  0  0  0  0  0
    3.2367   17.2970   -0.2778 H   0  0  0  0  0  0  0  0  0  0  0  0
    2.1322   18.7136   -0.2778 H   0  0  0  0  0  0  0  0  0  0  0  0
    3.3508   12.9124   -2.9286 H   0  0  0  0  0  0  0  0  0  0  0  0
    2.2958   12.1051   -4.1377 H   0  0  0  0  0  0  0  0  0  0  0  0
    2.4559   13.8943   -4.1377 H   0  0  0  0  0  0  0  0  0  0  0  0
   -0.4882   13.0640   -3.8844 H   0  0  0  0  0  0  0  0  0  0  0  0
    0.4639   11.4836   -3.7126 H   0  0  0  0  0  0  0  0  0  0  0  0
   -1.6491   12.5824   -1.8385 H   0  0  0  0  0  0  0  0  0  0  0  0
   -1.7152   11.0988   -2.8695 H   0  0  0  0  0  0  0  0  0  0  0  0
    0.7395    9.0881   -1.0203 H   0  0  0  0  0  0  0  0  0  0  0  0
   -0.3671    9.1601   -2.4334 H   0  0  0  0  0  0  0  0  0  0  0  0
    1.1530   10.1172   -2.4334 H   0  0  0  0  0  0  0  0  0  0  0  0
  1  2  1  0
  2  3  1  0
  3  4  1  0
  4  5  1  0
  5  6  1  0
  6  7  1  0
  7  8  1  0
  7  9  1  0
  2 10  1  0
 10 11  1  0
 11 12  1  0
 12 13  1  0
 13 14  1  1
 13 15  1  0
 15 16  1  0
 16 17  1  0
 17 18  2  0
 18 19  1  0
 19 20  1  0
 20 21  1  0
 21 22  1  0
 22 23  1  0
 22 24  1  0
 24 25  1  0
 24 26  1  0
 19 27  1  0
 27 28  1  6
 27 29  1  0
 29 30  1  0
 30 31  1  0
 31 32  1  6
  7  5  1  0
 31 10  1  0
 31 13  1  0
 27 15  1  0
 24 18  1  0
  1 33  1  0
  1 34  1  0
  1 35  1  0
  2 36  1  1
  3 37  1  0
  3 38  1  0
  4 39  1  0
  4 40  1  0
  5 41  1  6
  8 42  1  0
  8 43  1  0
  8 44  1  0
  9 45  1  0
  9 46  1  0
  9 47  1  0
 10 48  1  1
 11 49  1  0
 11 50  1  0
 12 51  1  0
 12 52  1  0
 14 53  1  0
 14 54  1  0
 14 55  1  0
 15 56  1  6
 16 57  1  0
 16 58  1  0
 17 59  1  0
 19 60  1  1
 20 61  1  0
 20 62  1  0
 21 63  1  0
 21 64  1  0
 22 65  1  1
 23 66  1  0
 25 67  1  0
 25 68  1  0
 25 69  1  0
 26 70  1  0
 26 71  1  0
 26 72  1  0
 28 73  1  0
 28 74  1  0
 28 75  1  0
 29 76  1  0
 29 77  1  0
 30 78  1  0
 30 79  1  0
 32 80  1  0
 32 81  1  0
 32 82  1  0
M  END
>  <meeko>  (2) 
{"is_sidechain": [false], "intermolecular_energy": 2.731, "internal_energy": -0.839}

$$$$
EPH_relaxed_0001_pdb2pqr_Repair_358_r2_0001_out
     RDKit          3D

 82 86  0  0  0  0  0  0  0  0999 V2000
    2.3250   20.1940   -0.9180 C   0  0  0  0  0  0  0  0  0  0  0  0
    2.1350   19.2330    0.2590 C   0  0  2  0  0  0  0  0  0  0  0  0
    3.4790   18.7120    0.8050 C   0  0  0  0  0  0  0  0  0  0  0  0
    3.7580   19.1280    2.2520 C   0  0  0  0  0  0  0  0  0  0  0  0
    5.2280   19.2020    2.5340 C   0  0  2  0  0  0  0  0  0  0  0  0
    5.7370   18.1360    3.3460 O   0  0  0  0  0  0  0  0  0  0  0  0
    5.8040   19.4540    3.9150 C   0  0  0  0  0  0  0  0  0  0  0  0
    4.9180   19.6480    5.1060 C   0  0  0  0  0  0  0  0  0  0  0  0
    7.1960   19.9940    4.0230 C   0  0  0  0  0  0  0  0  0  0  0  0
    1.2550   18.0620   -0.1640 C   0  0  1  0  0  0  0  0  0  0  0  0
    0.2850   18.4300   -1.3180 C   0  0  0  0  0  0  0  0  0  0  0  0
    0.1440   17.1660   -2.2050 C   0  0  0  0  0  0  0  0  0  0  0  0
    0.7640   16.0270   -1.3620 C   0  0  1  0  0  0  0  0  0  0  0  0
   -0.3620   15.6070   -0.3660 C   0  0  0  0  0  0  0  0  0  0  0  0
    1.3180   14.8010   -2.1580 C   0  0  2  0  0  0  0  0  0  0  0  0
    0.2680   14.0210   -2.9680 C   0  0  0  0  0  0  0  0  0  0  0  0
   -0.3910   12.8950   -2.2410 C   0  0  0  0  0  0  0  0  0  0  0  0
    0.0460   12.3430   -1.0940 C   0  0  0  0  0  0  0  0  0  0  0  0
    1.3710   12.7870   -0.4610 C   0  0  1  0  0  0  0  0  0  0  0  0
    2.1910   11.5370   -0.0480 C   0  0  0  0  0  0  0  0  0  0  0  0
    1.4030   10.5900    0.8520 C   0  0  0  0  0  0  0  0  0  0  0  0
    0.1220   10.1250    0.1640 C   0  0  2  0  0  0  0  0  0  0  0  0
    0.4710    9.3080   -0.9570 O   0  0  0  0  0  0  0  0  0  0  0  0
   -0.7820   11.2990   -0.3050 C   0  0  0  0  0  0  0  0  0  0  0  0
   -1.4040   12.0020    0.9270 C   0  0  0  0  0  0  0  0  0  0  0  0
   -1.9690   10.6970   -1.1060 C   0  0  0  0  0  0  0  0  0  0  0  0
    2.2270   13.8290   -1.3020 C   0  0  1  0  0  0  0  0  0  0  0  0
    3.1430   13.0720   -2.3110 C   0  0  0  0  0  0  0  0  0  0  0  0
    3.1870   14.6090   -0.3290 C   0  0  0  0  0  0  0  0  0  0  0  0
    2.6210   15.8790    0.3350 C   0  0  0  0  0  0  0  0  0  0  0  0
    1.9670   16.7960   -0.7040 C   0  0  2  0  0  0  0  0  0  0  0  0
    3.0810   17.2530   -1.7070 C   0  0  0  0  0  0  0  0  0  0  0  0
    2.5251   21.2061   -0.5364 H   0  0  0  0  0  0  0  0  0  0  0  0
    3.1743   19.8589   -1.5315 H   0  0  0  0  0  0  0  0  0  0  0  0
    1.4121   20.2073   -1.5315 H   0  0  0  0  0  0  0  0  0  0  0  0
    1.6447   19.7931    1.0689 H   0  0  0  0  0  0  0  0  0  0  0  0
    3.4718   17.6132    0.7547 H   0  0  0  0  0  0  0  0  0  0  0  0
    4.2717   19.1552    0.1844 H   0  0  0  0  0  0  0  0  0  0  0  0
    3.3104   20.1167    2.4313 H   0  0  0  0  0  0  0  0  0  0  0  0
    3.3190   18.3700    2.9174 H   0  0  0  0  0  0  0  0  0  0  0  0
    5.4143   19.6764    1.5592 H   0  0  0  0  0  0  0  0  0  0  0  0
    5.5070   19.5190    6.0260 H   0  0  0  0  0  0  0  0  0  0  0  0
    4.4901   20.6611    5.0835 H   0  0  0  0  0  0  0  0  0  0  0  0
    4.1059   18.9064    5.0835 H   0  0  0  0  0  0  0  0  0  0  0  0
    7.4672   20.0992    5.0838 H   0  0  0  0  0  0  0  0  0  0  0  0
    7.8967   19.3025    3.5323 H   0  0  0  0  0  0  0  0  0  0  0  0
    7.2470   20.9771    3.5323 H   0  0  0  0  0  0  0  0  0  0  0  0
    0.7692   17.8399    0.7976 H   0  0  0  0  0  0  0  0  0  0  0  0
   -0.6955   18.7184   -0.9111 H   0  0  0  0  0  0  0  0  0  0  0  0
    0.6693   19.2802   -1.9007 H   0  0  0  0  0  0  0  0  0  0  0  0
   -0.9147   16.9583   -2.4196 H   0  0  0  0  0  0  0  0  0  0  0  0
    0.6413   17.2823   -3.1792 H   0  0  0  0  0  0  0  0  0  0  0  0
   -0.0065   15.7396    0.6665 H   0  0  0  0  0  0  0  0  0  0  0  0
   -1.2504   16.2342   -0.5313 H   0  0  0  0  0  0  0  0  0  0  0  0
   -0.6227   14.5512   -0.5313 H   0  0  0  0  0  0  0  0  0  0  0  0
    1.9738   15.2789   -2.9007 H   0  0  0  0  0  0  0  0  0  0  0  0
   -0.5145   14.7282   -3.2803 H   0  0  0  0  0  0  0  0  0  0  0  0
    0.8102   13.5643   -3.8091 H   0  0  0  0  0  0  0  0  0  0  0  0
   -1.3111   12.4820   -2.6801 H   0  0  0  0  0  0  0  0  0  0  0  0
    1.1016   13.3688    0.4328 H   0  0  0  0  0  0  0  0  0  0  0  0
    2.4874   10.9938   -0.9574 H   0  0  0  0  0  0  0  0  0  0  0  0
    3.0664   11.8853    0.5198 H   0  0  0  0  0  0  0  0  0  0  0  0
    2.0253    9.7134    1.0851 H   0  0  0  0  0  0  0  0  0  0  0  0
    1.1325   11.1251    1.7742 H   0  0  0  0  0  0  0  0  0  0  0  0
   -0.4616    9.5561    0.9028 H   0  0  0  0  0  0  0  0  0  0  0  0
    0.9360    9.8720   -1.5980 H   0  0  0  0  0  0  0  0  0  0  0  0
   -1.0046   11.5506    1.8472 H   0  0  0  0  0  0  0  0  0  0  0  0
   -1.1519   13.0725    0.9044 H   0  0  0  0  0  0  0  0  0  0  0  0
   -2.4972   11.8822    0.9044 H   0  0  0  0  0  0  0  0  0  0  0  0
   -2.7261   10.3130   -0.4065 H   0  0  0  0  0  0  0  0  0  0  0  0
   -2.4170   11.4769   -1.7394 H   0  0  0  0  0  0  0  0  0  0  0  0
   -1.6045    9.8748   -1.7394 H   0  0  0  0  0  0  0  0  0  0  0  0
    3.8759   12.4663   -1.7578 H   0  0  0  0  0  0  0  0  0  0  0  0
    2.5276   12.4154   -2.9436 H   0  0  0  0  0  0  0  0  0  0  0  0
    3.6719   13.8001   -2.9436 H   0  0  0  0  0  0  0  0  0  0  0  0
    3.4814   13.9168    0.4736 H   0  0  0  0  0  0  0  0  0  0  0  0
    4.0153   14.9599   -0.9620 H   0  0  0  0  0  0  0  0  0  0  0  0
    1.8688   15.5891    1.0834 H   0  0  0  0  0  0  0  0  0  0  0  0
    3.4488   16.4240    0.8123 H   0  0  0  0  0  0  0  0  0  0  0  0
    3.9557   17.6119   -1.1448 H   0  0  0  0  0  0  0  0  0  0  0  0
    3.3755   16.4030   -2.3401 H   0  0  0  0  0  0  0  0  0  0  0  0
    2.6937   18.0649   -2.3401 H   0  0  0  0  0  0  0  0  0  0  0  0
  1  2  1  0
  2  3  1  0
  3  4  1  0
  4  5  1  0
  5  6  1  0
  6  7  1  0
  7  8  1  0
  7  9  1  0
  2 10  1  0
 10 11  1  0
 11 12  1  0
 12 13  1  0
 13 14  1  1
 13 15  1  0
 15 16  1  0
 16 17  1  0
 17 18  2  0
 18 19  1  0
 19 20  1  0
 20 21  1  0
 21 22  1  0
 22 23  1  0
 22 24  1  0
 24 25  1  0
 24 26  1  0
 19 27  1  0
 27 28  1  6
 27 29  1  0
 29 30  1  0
 30 31  1  0
 31 32  1  6
  7  5  1  0
 31 10  1  0
 31 13  1  0
 27 15  1  0
 24 18  1  0
  1 33  1  0
  1 34  1  0
  1 35  1  0
  2 36  1  1
  3 37  1  0
  3 38  1  0
  4 39  1  0
  4 40  1  0
  5 41  1  6
  8 42  1  0
  8 43  1  0
  8 44  1  0
  9 45  1  0
  9 46  1  0
  9 47  1  0
 10 48  1  1
 11 49  1  0
 11 50  1  0
 12 51  1  0
 12 52  1  0
 14 53  1  0
 14 54  1  0
 14 55  1  0
 15 56  1  6
 16 57  1  0
 16 58  1  0
 17 59  1  0
 19 60  1  1
 20 61  1  0
 20 62  1  0
 21 63  1  0
 21 64  1  0
 22 65  1  1
 23 66  1  0
 25 67  1  0
 25 68  1  0
 25 69  1  0
 26 70  1  0
 26 71  1  0
 26 72  1  0
 28 73  1  0
 28 74  1  0
 28 75  1  0
 29 76  1  0
 29 77  1  0
 30 78  1  0
 30 79  1  0
 32 80  1  0
 32 81  1  0
 32 82  1  0
M  END
>  <meeko>  (3) 
{"is_sidechain": [false], "intermolecular_energy": 2.731, "internal_energy": -0.839}

$$$$
EPH_relaxed_0001_pdb2pqr_Repair_358_r2_0001_out
     RDKit          3D

 82 86  0  0  0  0  0  0  0  0999 V2000
    2.3780   17.9500   -2.6710 C   0  0  0  0  0  0  0  0  0  0  0  0
    1.0880   17.5730   -1.9380 C   0  0  2  0  0  0  0  0  0  0  0  0
    1.2580   17.6080   -0.4060 C   0  0  0  0  0  0  0  0  0  0  0  0
    0.9560   18.9750    0.2150 C   0  0  0  0  0  0  0  0  0  0  0  0
   -0.4880   19.1040    0.5930 C   0  0  2  0  0  0  0  0  0  0  0  0
   -1.3750   18.2360   -0.1240 O   0  0  0  0  0  0  0  0  0  0  0  0
   -1.5530   19.6450   -0.3430 C   0  0  0  0  0  0  0  0  0  0  0  0
   -1.2180   20.0910   -1.7310 C   0  0  0  0  0  0  0  0  0  0  0  0
   -2.8150   20.1920    0.2480 C   0  0  0  0  0  0  0  0  0  0  0  0
    0.6260   16.1880   -2.3780 C   0  0  1  0  0  0  0  0  0  0  0  0
    0.7260   15.9860   -3.9140 C   0  0  0  0  0  0  0  0  0  0  0  0
    1.1110   14.5020   -4.1450 C   0  0  0  0  0  0  0  0  0  0  0  0
    0.8950   13.8240   -2.7710 C   0  0  1  0  0  0  0  0  0  0  0  0
   -0.6390   13.5460   -2.6970 C   0  0  0  0  0  0  0  0  0  0  0  0
    1.7300   12.5310   -2.5000 C   0  0  2  0  0  0  0  0  0  0  0  0
    1.4390   11.3550   -3.4490 C   0  0  0  0  0  0  0  0  0  0  0  0
    0.3670   10.4200   -2.9960 C   0  0  0  0  0  0  0  0  0  0  0  0
   -0.1370   10.3530   -1.7500 C   0  0  0  0  0  0  0  0  0  0  0  0
    0.4450   11.2090   -0.6180 C   0  0  1  0  0  0  0  0  0  0  0  0
    0.6570   10.3280    0.6420 C   0  0  0  0  0  0  0  0  0  0  0  0
   -0.6120    9.5910    1.0600 C   0  0  0  0  0  0  0  0  0  0  0  0
   -1.1270    8.7060   -0.0720 C   0  0  2  0  0  0  0  0  0  0  0  0
   -0.1860    7.6520   -0.2970 O   0  0  0  0  0  0  0  0  0  0  0  0
   -1.3680    9.4830   -1.3960 C   0  0  0  0  0  0  0  0  0  0  0  0
   -2.5930   10.4170   -1.2360 C   0  0  0  0  0  0  0  0  0  0  0  0
   -1.7490    8.4510   -2.4920 C   0  0  0  0  0  0  0  0  0  0  0  0
    1.7320   12.0650   -0.9870 C   0  0  1  0  0  0  0  0  0  0  0  0
    3.0180   11.2070   -0.7870 C   0  0  0  0  0  0  0  0  0  0  0  0
    1.8470   13.2770    0.0120 C   0  0  0  0  0  0  0  0  0  0  0  0
    1.0970   14.5670   -0.3720 C   0  0  0  0  0  0  0  0  0  0  0  0
    1.4000   14.9690   -1.8180 C   0  0  2  0  0  0  0  0  0  0  0  0
    2.9330   15.2760   -1.9180 C   0  0  0  0  0  0  0  0  0  0  0  0
    3.1636   18.1796   -1.9361 H   0  0  0  0  0  0  0  0  0  0  0  0
    2.7006   17.1086   -3.3018 H   0  0  0  0  0  0  0  0  0  0  0  0
    2.1967   18.8327   -3.3018 H   0  0  0  0  0  0  0  0  0  0  0  0
    0.3269   18.3216   -2.2030 H   0  0  0  0  0  0  0  0  0  0  0  0
    0.5758   16.8671    0.0363 H   0  0  0  0  0  0  0  0  0  0  0  0
    2.3140   17.3845   -0.1942 H   0  0  0  0  0  0  0  0  0  0  0  0
    1.5734   19.1014    1.1166 H   0  0  0  0  0  0  0  0  0  0  0  0
    1.1860   19.7496   -0.5314 H   0  0  0  0  0  0  0  0  0  0  0  0
   -0.2181   19.3576    1.6288 H   0  0  0  0  0  0  0  0  0  0  0  0
   -0.5580   20.9697   -1.6845 H   0  0  0  0  0  0  0  0  0  0  0  0
   -0.7067   19.2762   -2.2646 H   0  0  0  0  0  0  0  0  0  0  0  0
   -2.1430   20.3550   -2.2646 H   0  0  0  0  0  0  0  0  0  0  0  0
   -2.7484   20.1632    1.3456 H   0  0  0  0  0  0  0  0  0  0  0  0
   -2.9547   21.2315   -0.0837 H   0  0  0  0  0  0  0  0  0  0  0  0
   -3.6691   19.5833   -0.0837 H   0  0  0  0  0  0  0  0  0  0  0  0
   -0.3983   16.1986   -1.9772 H   0  0  0  0  0  0  0  0  0  0  0  0
   -0.2419   16.2047   -4.3888 H   0  0  0  0  0  0  0  0  0  0  0  0
    1.4745   16.6616   -4.3537 H   0  0  0  0  0  0  0  0  0  0  0  0
    0.4630   14.0471   -4.9086 H   0  0  0  0  0  0  0  0  0  0  0  0
    2.1436   14.3906   -4.5073 H   0  0  0  0  0  0  0  0  0  0  0  0
   -0.9510   13.4895   -1.6437 H   0  0  0  0  0  0  0  0  0  0  0  0
   -1.1837   14.3601   -3.1976 H   0  0  0  0  0  0  0  0  0  0  0  0
   -0.8634   12.5926   -3.1976 H   0  0  0  0  0  0  0  0  0  0  0  0
    2.7535   12.8587   -2.7348 H   0  0  0  0  0  0  0  0  0  0  0  0
    1.1389   11.7701   -4.4225 H   0  0  0  0  0  0  0  0  0  0  0  0
    2.3638   10.7608   -3.4895 H   0  0  0  0  0  0  0  0  0  0  0  0
   -0.0459    9.7272   -3.7440 H   0  0  0  0  0  0  0  0  0  0  0  0
   -0.3053   11.9857   -0.4085 H   0  0  0  0  0  0  0  0  0  0  0  0
    1.4406    9.5868    0.4264 H   0  0  0  0  0  0  0  0  0  0  0  0
    0.9456   10.9925    1.4697 H   0  0  0  0  0  0  0  0  0  0  0  0
   -0.3917    8.9632    1.9360 H   0  0  0  0  0  0  0  0  0  0  0  0
   -1.3853   10.3342    1.3041 H   0  0  0  0  0  0  0  0  0  0  0  0
   -2.1037    8.3070    0.2392 H   0  0  0  0  0  0  0  0  0  0  0  0
    0.3560    7.9000   -1.0650 H   0  0  0  0  0  0  0  0  0  0  0  0
   -2.7978   10.5732   -0.1666 H   0  0  0  0  0  0  0  0  0  0  0  0
   -2.3811   11.3848   -1.7139 H   0  0  0  0  0  0  0  0  0  0  0  0
   -3.4702    9.9564   -1.7139 H   0  0  0  0  0  0  0  0  0  0  0  0
   -2.0925    7.5207   -2.0161 H   0  0  0  0  0  0  0  0  0  0  0  0
   -2.5548    8.8617   -3.1181 H   0  0  0  0  0  0  0  0  0  0  0  0
   -0.8696    8.2396   -3.1181 H   0  0  0  0  0  0  0  0  0  0  0  0
    3.2098   11.0790    0.2886 H   0  0  0  0  0  0  0  0  0  0  0  0
    2.8774   10.2211   -1.2542 H   0  0  0  0  0  0  0  0  0  0  0  0
    3.8743   11.7154   -1.2542 H   0  0  0  0  0  0  0  0  0  0  0  0
    1.4589   12.9437    0.9858 H   0  0  0  0  0  0  0  0  0  0  0  0
    2.9121   13.5517    0.0100 H   0  0  0  0  0  0  0  0  0  0  0  0
    0.0152   14.3995   -0.2645 H   0  0  0  0  0  0  0  0  0  0  0  0
    1.4300   15.3769    0.2937 H   0  0  0  0  0  0  0  0  0  0  0  0
    3.3567   15.3609   -0.9064 H   0  0  0  0  0  0  0  0  0  0  0  0
    3.4357   14.4607   -2.4589 H   0  0  0  0  0  0  0  0  0  0  0  0
    3.0830   16.2220   -2.4589 H   0  0  0  0  0  0  0  0  0  0  0  0
  1  2  1  0
  2  3  1  0
  3  4  1  0
  4  5  1  0
  5  6  1  0
  6  7  1  0
  7  8  1  0
  7  9  1  0
  2 10  1  0
 10 11  1  0
 11 12  1  0
 12 13  1  0
 13 14  1  1
 13 15  1  0
 15 16  1  0
 16 17  1  0
 17 18  2  0
 18 19  1  0
 19 20  1  0
 20 21  1  0
 21 22  1  0
 22 23  1  0
 22 24  1  0
 24 25  1  0
 24 26  1  0
 19 27  1  0
 27 28  1  6
 27 29  1  0
 29 30  1  0
 30 31  1  0
 31 32  1  1
  7  5  1  0
 31 10  1  0
 31 13  1  0
 27 15  1  0
 24 18  1  0
  1 33  1  0
  1 34  1  0
  1 35  1  0
  2 36  1  1
  3 37  1  0
  3 38  1  0
  4 39  1  0
  4 40  1  0
  5 41  1  1
  8 42  1  0
  8 43  1  0
  8 44  1  0
  9 45  1  0
  9 46  1  0
  9 47  1  0
 10 48  1  1
 11 49  1  0
 11 50  1  0
 12 51  1  0
 12 52  1  0
 14 53  1  0
 14 54  1  0
 14 55  1  0
 15 56  1  6
 16 57  1  0
 16 58  1  0
 17 59  1  0
 19 60  1  1
 20 61  1  0
 20 62  1  0
 21 63  1  0
 21 64  1  0
 22 65  1  1
 23 66  1  0
 25 67  1  0
 25 68  1  0
 25 69  1  0
 26 70  1  0
 26 71  1  0
 26 72  1  0
 28 73  1  0
 28 74  1  0
 28 75  1  0
 29 76  1  0
 29 77  1  0
 30 78  1  0
 30 79  1  0
 32 80  1  0
 32 81  1  0
 32 82  1  0
M  END
>  <meeko>  (4) 
{"is_sidechain": [false], "intermolecular_energy": 2.731, "internal_energy": -0.839}

$$$$
EPH_relaxed_0001_pdb2pqr_Repair_358_r2_0001_out
     RDKit          3D

 82 86  0  0  0  0  0  0  0  0999 V2000
    1.9280   18.4170   -2.0550 C   0  0  0  0  0  0  0  0  0  0  0  0
    1.5290   17.4500   -0.9370 C   0  0  2  0  0  0  0  0  0  0  0  0
    2.7290   17.0580   -0.0530 C   0  0  0  0  0  0  0  0  0  0  0  0
    3.6860   18.2180    0.2360 C   0  0  0  0  0  0  0  0  0  0  0  0
    3.4300   18.8250    1.5820 C   0  0  2  0  0  0  0  0  0  0  0  0
    3.8360   20.1940    1.7070 O   0  0  0  0  0  0  0  0  0  0  0  0
    4.5350   19.2480    2.5320 C   0  0  0  0  0  0  0  0  0  0  0  0
    5.9780   19.0780    2.1760 C   0  0  0  0  0  0  0  0  0  0  0  0
    4.2170   19.3690    3.9900 C   0  0  0  0  0  0  0  0  0  0  0  0
    0.8920   16.2000   -1.5340 C   0  0  1  0  0  0  0  0  0  0  0  0
    0.6400   16.3280   -3.0600 C   0  0  0  0  0  0  0  0  0  0  0  0
    0.8660   14.9210   -3.6700 C   0  0  0  0  0  0  0  0  0  0  0  0
    0.9120   13.9700   -2.4520 C   0  0  1  0  0  0  0  0  0  0  0  0
   -0.5840   13.7110   -2.0890 C   0  0  0  0  0  0  0  0  0  0  0  0
    1.6990   12.6330   -2.6480 C   0  0  2  0  0  0  0  0  0  0  0  0
    1.1300   11.6940   -3.7250 C   0  0  0  0  0  0  0  0  0  0  0  0
    0.1230   10.7030   -3.2410 C   0  0  0  0  0  0  0  0  0  0  0  0
   -0.0990   10.3800   -1.9530 C   0  0  0  0  0  0  0  0  0  0  0  0
    0.7720   10.9640   -0.8330 C   0  0  1  0  0  0  0  0  0  0  0  0
    1.1950    9.8300    0.1380 C   0  0  0  0  0  0  0  0  0  0  0  0
    0.0030    9.0440    0.6750 C   0  0  0  0  0  0  0  0  0  0  0  0
   -0.8040    8.4310   -0.4660 C   0  0  2  0  0  0  0  0  0  0  0  0
   -0.0070    7.4320   -1.1100 O   0  0  0  0  0  0  0  0  0  0  0  0
   -1.2780    9.4770   -1.5130 C   0  0  0  0  0  0  0  0  0  0  0  0
   -2.3740   10.3770   -0.8910 C   0  0  0  0  0  0  0  0  0  0  0  0
   -1.9560    8.7110   -2.6810 C   0  0  0  0  0  0  0  0  0  0  0  0
    2.0000   11.8560   -1.3030 C   0  0  1  0  0  0  0  0  0  0  0  0
    3.2390   10.9510   -1.5800 C   0  0  0  0  0  0  0  0  0  0  0  0
    2.4110   12.8240   -0.1310 C   0  0  0  0  0  0  0  0  0  0  0  0
    1.6820   14.1790   -0.0620 C   0  0  0  0  0  0  0  0  0  0  0  0
    1.6870   14.8750   -1.4260 C   0  0  2  0  0  0  0  0  0  0  0  0
    3.1780   15.1690   -1.8070 C   0  0  0  0  0  0  0  0  0  0  0  0
    2.3124   19.3486   -1.6142 H   0  0  0  0  0  0  0  0  0  0  0  0
    2.7094   17.9560   -2.6770 H   0  0  0  0  0  0  0  0  0  0  0  0
    1.0489   18.6411   -2.6770 H   0  0  0  0  0  0  0  0  0  0  0  0
    0.8014   17.9683   -0.2952 H   0  0  0  0  0  0  0  0  0  0  0  0
    2.3449   16.6778    0.9051 H   0  0  0  0  0  0  0  0  0  0  0  0
    3.3016   16.2993   -0.6066 H   0  0  0  0  0  0  0  0  0  0  0  0
    4.7199   17.8436    0.2045 H   0  0  0  0  0  0  0  0  0  0  0  0
    3.5246   18.9941   -0.5267 H   0  0  0  0  0  0  0  0  0  0  0  0
    2.5366   18.1987    1.7217 H   0  0  0  0  0  0  0  0  0  0  0  0
    6.5768   19.0075    3.0960 H   0  0  0  0  0  0  0  0  0  0  0  0
    6.1041   18.1588    1.5851 H   0  0  0  0  0  0  0  0  0  0  0  0
    6.3142   19.9427    1.5851 H   0  0  0  0  0  0  0  0  0  0  0  0
    5.0831   19.0395    4.5828 H   0  0  0  0  0  0  0  0  0  0  0  0
    3.9866   20.4176    4.2292 H   0  0  0  0  0  0  0  0  0  0  0  0
    3.3477   18.7388    4.2292 H   0  0  0  0  0  0  0  0  0  0  0  0
   -0.0168   16.1445   -0.9168 H   0  0  0  0  0  0  0  0  0  0  0  0
   -0.3917   16.6607   -3.2470 H   0  0  0  0  0  0  0  0  0  0  0  0
    1.3174   17.0678   -3.5115 H   0  0  0  0  0  0  0  0  0  0  0  0
    0.0378   14.6515   -4.3419 H   0  0  0  0  0  0  0  0  0  0  0  0
    1.7845   14.8707   -4.2731 H   0  0  0  0  0  0  0  0  0  0  0  0
   -0.6978   13.6913   -0.9951 H   0  0  0  0  0  0  0  0  0  0  0  0
   -1.2074   14.5146   -2.5081 H   0  0  0  0  0  0  0  0  0  0  0  0
   -0.9010   12.7446   -2.5081 H   0  0  0  0  0  0  0  0  0  0  0  0
    2.6665   12.9824   -3.0378 H   0  0  0  0  0  0  0  0  0  0  0  0
    0.6524   12.3137   -4.4982 H   0  0  0  0  0  0  0  0  0  0  0  0
    1.9820   11.1052   -4.0959 H   0  0  0  0  0  0  0  0  0  0  0  0
   -0.4887   10.1943   -4.0006 H   0  0  0  0  0  0  0  0  0  0  0  0
    0.1397   11.6920   -0.3036 H   0  0  0  0  0  0  0  0  0  0  0  0
    1.8614    9.1377   -0.3975 H   0  0  0  0  0  0  0  0  0  0  0  0
    1.7007   10.2968    0.9961 H   0  0  0  0  0  0  0  0  0  0  0  0
    0.3679    8.2397    1.3307 H   0  0  0  0  0  0  0  0  0  0  0  0
   -0.6474    9.7315    1.2356 H   0  0  0  0  0  0  0  0  0  0  0  0
   -1.7129    7.9925   -0.0282 H   0  0  0  0  0  0  0  0  0  0  0  0
   -0.2230    6.5760   -0.7040 H   0  0  0  0  0  0  0  0  0  0  0  0
   -2.3116   10.3257    0.2060 H   0  0  0  0  0  0  0  0  0  0  0  0
   -2.2245   11.4164   -1.2186 H   0  0  0  0  0  0  0  0  0  0  0  0
   -3.3645   10.0282   -1.2186 H   0  0  0  0  0  0  0  0  0  0  0  0
   -2.6332    7.9459   -2.2735 H   0  0  0  0  0  0  0  0  0  0  0  0
   -2.5301    9.4175   -3.2985 H   0  0  0  0  0  0  0  0  0  0  0  0
   -1.1850    8.2269   -3.2985 H   0  0  0  0  0  0  0  0  0  0  0  0
    3.6792   10.6295   -0.6246 H   0  0  0  0  0  0  0  0  0  0  0  0
    2.9262   10.0672   -2.1554 H   0  0  0  0  0  0  0  0  0  0  0  0
    3.9857   11.5178   -2.1554 H   0  0  0  0  0  0  0  0  0  0  0  0
    2.2248   12.2972    0.8166 H   0  0  0  0  0  0  0  0  0  0  0  0
    3.4655   13.0736   -0.3200 H   0  0  0  0  0  0  0  0  0  0  0  0
    0.6413   14.0119    0.2528 H   0  0  0  0  0  0  0  0  0  0  0  0
    2.2050   14.8219    0.6614 H   0  0  0  0  0  0  0  0  0  0  0  0
    3.7744   15.2866   -0.8902 H   0  0  0  0  0  0  0  0  0  0  0  0
    3.5770   14.3322   -2.3991 H   0  0  0  0  0  0  0  0  0  0  0  0
    3.2295   16.0946   -2.3991 H   0  0  0  0  0  0  0  0  0  0  0  0
  1  2  1  0
  2  3  1  0
  3  4  1  0
  4  5  1  0
  5  6  1  0
  6  7  1  0
  7  8  1  0
  7  9  1  0
  2 10  1  0
 10 11  1  0
 11 12  1  0
 12 13  1  0
 13 14  1  1
 13 15  1  0
 15 16  1  0
 16 17  1  0
 17 18  2  0
 18 19  1  0
 19 20  1  0
 20 21  1  0
 21 22  1  0
 22 23  1  0
 22 24  1  0
 24 25  1  0
 24 26  1  0
 19 27  1  0
 27 28  1  6
 27 29  1  0
 29 30  1  0
 30 31  1  0
 31 32  1  6
  7  5  1  0
 31 10  1  0
 31 13  1  0
 27 15  1  0
 24 18  1  0
  1 33  1  0
  1 34  1  0
  1 35  1  0
  2 36  1  1
  3 37  1  0
  3 38  1  0
  4 39  1  0
  4 40  1  0
  5 41  1  1
  8 42  1  0
  8 43  1  0
  8 44  1  0
  9 45  1  0
  9 46  1  0
  9 47  1  0
 10 48  1  1
 11 49  1  0
 11 50  1  0
 12 51  1  0
 12 52  1  0
 14 53  1  0
 14 54  1  0
 14 55  1  0
 15 56  1  6
 16 57  1  0
 16 58  1  0
 17 59  1  0
 19 60  1  1
 20 61  1  0
 20 62  1  0
 21 63  1  0
 21 64  1  0
 22 65  1  1
 23 66  1  0
 25 67  1  0
 25 68  1  0
 25 69  1  0
 26 70  1  0
 26 71  1  0
 26 72  1  0
 28 73  1  0
 28 74  1  0
 28 75  1  0
 29 76  1  0
 29 77  1  0
 30 78  1  0
 30 79  1  0
 32 80  1  0
 32 81  1  0
 32 82  1  0
M  END
>  <meeko>  (5) 
{"is_sidechain": [false], "intermolecular_energy": 2.731, "internal_energy": -0.839}

$$$$
EPH_relaxed_0001_pdb2pqr_Repair_358_r2_0001_out
     RDKit          3D

 82 86  0  0  0  0  0  0  0  0999 V2000
    3.9330   18.2790    0.1620 C   0  0  0  0  0  0  0  0  0  0  0  0
    2.7590   18.8690   -0.6240 C   0  0  2  0  0  0  0  0  0  0  0  0
    2.1080   20.0580    0.1090 C   0  0  0  0  0  0  0  0  0  0  0  0
    0.9110   19.6650    0.9800 C   0  0  0  0  0  0  0  0  0  0  0  0
   -0.3760   20.1930    0.4240 C   0  0  2  0  0  0  0  0  0  0  0  0
   -1.4720   20.1940    1.3490 O   0  0  0  0  0  0  0  0  0  0  0  0
   -1.6080   19.3340    0.2060 C   0  0  0  0  0  0  0  0  0  0  0  0
   -1.6110   17.8750    0.5400 C   0  0  0  0  0  0  0  0  0  0  0  0
   -2.6380   19.7960   -0.7770 C   0  0  0  0  0  0  0  0  0  0  0  0
    1.7180   17.7890   -0.8920 C   0  0  1  0  0  0  0  0  0  0  0  0
    0.8160   18.1170   -2.1110 C   0  0  0  0  0  0  0  0  0  0  0  0
    0.4930   16.7690   -2.8050 C   0  0  0  0  0  0  0  0  0  0  0  0
    0.9350   15.6910   -1.7870 C   0  0  1  0  0  0  0  0  0  0  0  0
   -0.2440   15.5930   -0.7690 C   0  0  0  0  0  0  0  0  0  0  0  0
    1.3040   14.2920   -2.3790 C   0  0  2  0  0  0  0  0  0  0  0  0
    0.1530   13.5600   -3.0920 C   0  0  0  0  0  0  0  0  0  0  0  0
   -0.6670   12.6640   -2.2240 C   0  0  0  0  0  0  0  0  0  0  0  0
   -0.3210   12.2330   -0.9960 C   0  0  0  0  0  0  0  0  0  0  0  0
    1.0520   12.5690   -0.4020 C   0  0  1  0  0  0  0  0  0  0  0  0
    1.6780   11.2890    0.2130 C   0  0  0  0  0  0  0  0  0  0  0  0
    0.7550   10.6130    1.2220 C   0  0  0  0  0  0  0  0  0  0  0  0
   -0.5790   10.2420    0.5780 C   0  0  2  0  0  0  0  0  0  0  0  0
   -0.3500    9.2240   -0.4010 O   0  0  0  0  0  0  0  0  0  0  0  0
   -1.2980   11.4510   -0.0830 C   0  0  0  0  0  0  0  0  0  0  0  0
   -1.8130   12.4140    1.0150 C   0  0  0  0  0  0  0  0  0  0  0  0
   -2.5570   10.9150   -0.8160 C   0  0  0  0  0  0  0  0  0  0  0  0
    2.0560   13.3370   -1.3660 C   0  0  1  0  0  0  0  0  0  0  0  0
    2.8540   12.3120   -2.2280 C   0  0  0  0  0  0  0  0  0  0  0  0
    3.1180   14.1070   -0.4940 C   0  0  0  0  0  0  0  0  0  0  0  0
    2.7440   15.5300   -0.0410 C   0  0  0  0  0  0  0  0  0  0  0  0
    2.2360   16.3660   -1.2200 C   0  0  2  0  0  0  0  0  0  0  0  0
    3.4090   16.5000   -2.2510 C   0  0  0  0  0  0  0  0  0  0  0  0
    3.7384   18.3768    1.2402 H   0  0  0  0  0  0  0  0  0  0  0  0
    4.0487   17.2157   -0.0948 H   0  0  0  0  0  0  0  0  0  0  0  0
    4.8553   18.8207   -0.0948 H   0  0  0  0  0  0  0  0  0  0  0  0
    3.1563   19.2472   -1.5775 H   0  0  0  0  0  0  0  0  0  0  0  0
    2.8669   20.5264    0.7530 H   0  0  0  0  0  0  0  0  0  0  0  0
    1.7311   20.7441   -0.6638 H   0  0  0  0  0  0  0  0  0  0  0  0
    0.8532   18.5678    1.0323 H   0  0  0  0  0  0  0  0  0  0  0  0
    1.0568   20.1002    1.9797 H   0  0  0  0  0  0  0  0  0  0  0  0
    0.1659   20.8868   -0.2355 H   0  0  0  0  0  0  0  0  0  0  0  0
   -1.6113   17.7490    1.6328 H   0  0  0  0  0  0  0  0  0  0  0  0
   -2.5101   17.4037    0.1164 H   0  0  0  0  0  0  0  0  0  0  0  0
   -0.7138   17.4000    0.1164 H   0  0  0  0  0  0  0  0  0  0  0  0
   -3.5117   20.1879   -0.2357 H   0  0  0  0  0  0  0  0  0  0  0  0
   -2.2120   20.5893   -1.4089 H   0  0  0  0  0  0  0  0  0  0  0  0
   -2.9472   18.9503   -1.4089 H   0  0  0  0  0  0  0  0  0  0  0  0
    1.2022   17.7869    0.0796 H   0  0  0  0  0  0  0  0  0  0  0  0
   -0.1124   18.6021   -1.7754 H   0  0  0  0  0  0  0  0  0  0  0  0
    1.3229   18.8056   -2.8030 H   0  0  0  0  0  0  0  0  0  0  0  0
   -0.5840   16.6878   -3.0137 H   0  0  0  0  0  0  0  0  0  0  0  0
    1.0054   16.6644   -3.7727 H   0  0  0  0  0  0  0  0  0  0  0  0
    0.1531   15.6260    0.2563 H   0  0  0  0  0  0  0  0  0  0  0  0
   -0.9324   16.4370   -0.9229 H   0  0  0  0  0  0  0  0  0  0  0  0
   -0.7836   14.6469   -0.9229 H   0  0  0  0  0  0  0  0  0  0  0  0
    2.0254   14.5533   -3.1672 H   0  0  0  0  0  0  0  0  0  0  0  0
   -0.5155   14.3185   -3.5254 H   0  0  0  0  0  0  0  0  0  0  0  0
    0.6249   12.9086   -3.8423 H   0  0  0  0  0  0  0  0  0  0  0  0
   -1.6360   12.3273   -2.6212 H   0  0  0  0  0  0  0  0  0  0  0  0
    0.8675   13.3111    0.3887 H   0  0  0  0  0  0  0  0  0  0  0  0
    1.8950   10.5781   -0.5978 H   0  0  0  0  0  0  0  0  0  0  0  0
    2.5931   11.5876    0.7454 H   0  0  0  0  0  0  0  0  0  0  0  0
    1.2396    9.6998    1.5978 H   0  0  0  0  0  0  0  0  0  0  0  0
    0.5634   11.3143    2.0475 H   0  0  0  0  0  0  0  0  0  0  0  0
   -1.2430    9.8823    1.3778 H   0  0  0  0  0  0  0  0  0  0  0  0
    0.5510    9.3430   -0.7450 H   0  0  0  0  0  0  0  0  0  0  0  0
   -1.5882   11.9936    2.0063 H   0  0  0  0  0  0  0  0  0  0  0  0
   -1.3163   13.3898    0.9093 H   0  0  0  0  0  0  0  0  0  0  0  0
   -2.9003   12.5427    0.9093 H   0  0  0  0  0  0  0  0  0  0  0  0
   -3.3050   10.5966   -0.0750 H   0  0  0  0  0  0  0  0  0  0  0  0
   -2.9809   11.7107   -1.4462 H   0  0  0  0  0  0  0  0  0  0  0  0
   -2.2773   10.0579   -1.4462 H   0  0  0  0  0  0  0  0  0  0  0  0
    3.3939   11.6185   -1.5666 H   0  0  0  0  0  0  0  0  0  0  0  0
    2.1569   11.7454   -2.8628 H   0  0  0  0  0  0  0  0  0  0  0  0
    3.5742   12.8489   -2.8628 H   0  0  0  0  0  0  0  0  0  0  0  0
    3.3037   13.5081    0.4098 H   0  0  0  0  0  0  0  0  0  0  0  0
    3.9915   14.2342   -1.1503 H   0  0  0  0  0  0  0  0  0  0  0  0
    1.9548   15.4685    0.7228 H   0  0  0  0  0  0  0  0  0  0  0  0
    3.6420   16.0140    0.3706 H   0  0  0  0  0  0  0  0  0  0  0  0
    4.3611   16.6088   -1.7110 H   0  0  0  0  0  0  0  0  0  0  0  0
    3.4465   15.6003   -2.8828 H   0  0  0  0  0  0  0  0  0  0  0  0
    3.2426   17.3850   -2.8828 H   0  0  0  0  0  0  0  0  0  0  0  0
  1  2  1  0
  2  3  1  0
  3  4  1  0
  4  5  1  0
  5  6  1  0
  6  7  1  0
  7  8  1  0
  7  9  1  0
  2 10  1  0
 10 11  1  0
 11 12  1  0
 12 13  1  0
 13 14  1  1
 13 15  1  0
 15 16  1  0
 16 17  1  0
 17 18  2  0
 18 19  1  0
 19 20  1  0
 20 21  1  0
 21 22  1  0
 22 23  1  0
 22 24  1  0
 24 25  1  0
 24 26  1  0
 19 27  1  0
 27 28  1  6
 27 29  1  0
 29 30  1  0
 30 31  1  0
 31 32  1  6
  7  5  1  0
 31 10  1  0
 31 13  1  0
 27 15  1  0
 24 18  1  0
  1 33  1  0
  1 34  1  0
  1 35  1  0
  2 36  1  6
  3 37  1  0
  3 38  1  0
  4 39  1  0
  4 40  1  0
  5 41  1  6
  8 42  1  0
  8 43  1  0
  8 44  1  0
  9 45  1  0
  9 46  1  0
  9 47  1  0
 10 48  1  1
 11 49  1  0
 11 50  1  0
 12 51  1  0
 12 52  1  0
 14 53  1  0
 14 54  1  0
 14 55  1  0
 15 56  1  6
 16 57  1  0
 16 58  1  0
 17 59  1  0
 19 60  1  1
 20 61  1  0
 20 62  1  0
 21 63  1  0
 21 64  1  0
 22 65  1  1
 23 66  1  0
 25 67  1  0
 25 68  1  0
 25 69  1  0
 26 70  1  0
 26 71  1  0
 26 72  1  0
 28 73  1  0
 28 74  1  0
 28 75  1  0
 29 76  1  0
 29 77  1  0
 30 78  1  0
 30 79  1  0
 32 80  1  0
 32 81  1  0
 32 82  1  0
M  END
>  <meeko>  (6) 
{"is_sidechain": [false], "intermolecular_energy": 2.731, "internal_energy": -0.839}

$$$$
EPH_relaxed_0001_pdb2pqr_Repair_358_r2_0001_out
     RDKit          3D

 82 86  0  0  0  0  0  0  0  0999 V2000
   -0.4670    7.8040   -1.9010 C   0  0  0  0  0  0  0  0  0  0  0  0
   -1.2220    8.6140   -0.8440 C   0  0  2  0  0  0  0  0  0  0  0  0
   -2.6430    8.9920   -1.3080 C   0  0  0  0  0  0  0  0  0  0  0  0
   -3.6480    9.1330   -0.1610 C   0  0  0  0  0  0  0  0  0  0  0  0
   -3.0360    9.8020    1.0330 C   0  0  2  0  0  0  0  0  0  0  0  0
   -3.9290   10.6520    1.7650 O   0  0  0  0  0  0  0  0  0  0  0  0
   -2.8140   11.3000    1.1300 C   0  0  0  0  0  0  0  0  0  0  0  0
   -3.2000   12.2200    0.0140 C   0  0  0  0  0  0  0  0  0  0  0  0
   -1.7860   11.8100    2.0910 C   0  0  0  0  0  0  0  0  0  0  0  0
   -0.4360    9.8720   -0.4940 C   0  0  1  0  0  0  0  0  0  0  0  0
    0.7440    9.5890    0.4730 C   0  0  0  0  0  0  0  0  0  0  0  0
    1.8890   10.5560    0.0770 C   0  0  0  0  0  0  0  0  0  0  0  0
    1.2240   11.5790   -0.8720 C   0  0  1  0  0  0  0  0  0  0  0  0
    0.5170   12.6020    0.0720 C   0  0  0  0  0  0  0  0  0  0  0  0
    2.1700   12.2940   -1.8920 C   0  0  2  0  0  0  0  0  0  0  0  0
    3.2730   13.1610   -1.2600 C   0  0  0  0  0  0  0  0  0  0  0  0
    2.9070   14.5900   -1.0290 C   0  0  0  0  0  0  0  0  0  0  0  0
    1.8500   15.2240   -1.5700 C   0  0  0  0  0  0  0  0  0  0  0  0
    0.9480   14.5200   -2.5920 C   0  0  1  0  0  0  0  0  0  0  0  0
    0.6920   15.4650   -3.7950 C   0  0  0  0  0  0  0  0  0  0  0  0
    0.1400   16.8210   -3.3660 C   0  0  0  0  0  0  0  0  0  0  0  0
    1.0920   17.5160   -2.3950 C   0  0  2  0  0  0  0  0  0  0  0  0
    2.2970   17.8500   -3.0920 O   0  0  0  0  0  0  0  0  0  0  0  0
    1.4310   16.6530   -1.1480 C   0  0  0  0  0  0  0  0  0  0  0  0
    0.1850   16.5450   -0.2350 C   0  0  0  0  0  0  0  0  0  0  0  0
    2.5080   17.4100   -0.3230 C   0  0  0  0  0  0  0  0  0  0  0  0
    1.4140   13.0690   -3.0450 C   0  0  1  0  0  0  0  0  0  0  0  0
    2.4130   13.1790   -4.2370 C   0  0  0  0  0  0  0  0  0  0  0  0
    0.1670   12.2730   -3.5830 C   0  0  0  0  0  0  0  0  0  0  0  0
   -0.6590   11.4910   -2.5440 C   0  0  0  0  0  0  0  0  0  0  0  0
    0.2470   10.6310   -1.6590 C   0  0  2  0  0  0  0  0  0  0  0  0
    0.9550    9.5780   -2.5780 C   0  0  0  0  0  0  0  0  0  0  0  0
    0.2021    7.0862   -1.4040 H   0  0  0  0  0  0  0  0  0  0  0  0
   -1.1873    7.2595   -2.5293 H   0  0  0  0  0  0  0  0  0  0  0  0
    0.1267    8.4843   -2.5293 H   0  0  0  0  0  0  0  0  0  0  0  0
   -1.3243    7.9795    0.0487 H   0  0  0  0  0  0  0  0  0  0  0  0
   -2.5898    9.9516   -1.8431 H   0  0  0  0  0  0  0  0  0  0  0  0
   -3.0002    8.1730   -1.9496 H   0  0  0  0  0  0  0  0  0  0  0  0
   -4.5022    9.7334   -0.5072 H   0  0  0  0  0  0  0  0  0  0  0  0
   -3.9705    8.1249    0.1384 H   0  0  0  0  0  0  0  0  0  0  0  0
   -2.3672    8.9449    1.2008 H   0  0  0  0  0  0  0  0  0  0  0  0
   -3.5937   13.1583    0.4319 H   0  0  0  0  0  0  0  0  0  0  0  0
   -2.3168   12.4364   -0.6050 H   0  0  0  0  0  0  0  0  0  0  0  0
   -3.9732   11.7414   -0.6050 H   0  0  0  0  0  0  0  0  0  0  0  0
   -2.1307   11.6390    3.1215 H   0  0  0  0  0  0  0  0  0  0  0  0
   -0.8368   11.2783    1.9289 H   0  0  0  0  0  0  0  0  0  0  0  0
   -1.6351   12.8875    1.9289 H   0  0  0  0  0  0  0  0  0  0  0  0
   -1.2461   10.4838   -0.0705 H   0  0  0  0  0  0  0  0  0  0  0  0
    0.4346    9.7738    1.5123 H   0  0  0  0  0  0  0  0  0  0  0  0
    1.0701    8.5409    0.4018 H   0  0  0  0  0  0  0  0  0  0  0  0
    2.2973   11.0591    0.9659 H   0  0  0  0  0  0  0  0  0  0  0  0
    2.7318   10.0325   -0.3981 H   0  0  0  0  0  0  0  0  0  0  0  0
    0.7075   12.3264    1.1197 H   0  0  0  0  0  0  0  0  0  0  0  0
    0.9116   13.6108   -0.1193 H   0  0  0  0  0  0  0  0  0  0  0  0
   -0.5662   12.5896   -0.1193 H   0  0  0  0  0  0  0  0  0  0  0  0
    2.6893   11.4479   -2.3657 H   0  0  0  0  0  0  0  0  0  0  0  0
    3.5399   12.7173   -0.2895 H   0  0  0  0  0  0  0  0  0  0  0  0
    4.1026   13.1722   -1.9823 H   0  0  0  0  0  0  0  0  0  0  0  0
    3.5561   15.1741   -0.3601 H   0  0  0  0  0  0  0  0  0  0  0  0
    0.0015   14.3144   -2.0706 H   0  0  0  0  0  0  0  0  0  0  0  0
    1.6414   15.6232   -4.3275 H   0  0  0  0  0  0  0  0  0  0  0  0
   -0.0595   14.9875   -4.4409 H   0  0  0  0  0  0  0  0  0  0  0  0
    0.0084   17.4539   -4.2560 H   0  0  0  0  0  0  0  0  0  0  0  0
   -0.8239   16.6633   -2.8599 H   0  0  0  0  0  0  0  0  0  0  0  0
    0.5850   18.4186   -2.0231 H   0  0  0  0  0  0  0  0  0  0  0  0
    3.0220   17.3480   -2.6820 H   0  0  0  0  0  0  0  0  0  0  0  0
    0.4992   16.5722    0.8188 H   0  0  0  0  0  0  0  0  0  0  0  0
   -0.4922   17.3878   -0.4376 H   0  0  0  0  0  0  0  0  0  0  0  0
   -0.3371   15.5982   -0.4376 H   0  0  0  0  0  0  0  0  0  0  0  0
    2.3116   17.2720    0.7505 H   0  0  0  0  0  0  0  0  0  0  0  0
    3.5039   17.0122   -0.5677 H   0  0  0  0  0  0  0  0  0  0  0  0
    2.4710   18.4818   -0.5677 H   0  0  0  0  0  0  0  0  0  0  0  0
    3.4360   13.2916   -3.8488 H   0  0  0  0  0  0  0  0  0  0  0  0
    2.3522   12.2687   -4.8516 H   0  0  0  0  0  0  0  0  0  0  0  0
    2.1556   14.0542   -4.8516 H   0  0  0  0  0  0  0  0  0  0  0  0
   -0.5059   12.9962   -4.0670 H   0  0  0  0  0  0  0  0  0  0  0  0
    0.5822   11.5079   -4.2555 H   0  0  0  0  0  0  0  0  0  0  0  0
   -1.2089   12.2033   -1.9114 H   0  0  0  0  0  0  0  0  0  0  0  0
   -1.3584   10.8302   -3.0771 H   0  0  0  0  0  0  0  0  0  0  0  0
    1.4601    8.8267   -1.9531 H   0  0  0  0  0  0  0  0  0  0  0  0
    0.2056    9.0828   -3.2130 H   0  0  0  0  0  0  0  0  0  0  0  0
    1.6963   10.0851   -3.2130 H   0  0  0  0  0  0  0  0  0  0  0  0
  1  2  1  0
  2  3  1  0
  3  4  1  0
  4  5  1  0
  5  6  1  0
  6  7  1  0
  7  8  1  0
  7  9  1  0
  2 10  1  0
 10 11  1  0
 11 12  1  0
 12 13  1  0
 13 14  1  1
 13 15  1  0
 15 16  1  0
 16 17  1  0
 17 18  2  0
 18 19  1  0
 19 20  1  0
 20 21  1  0
 21 22  1  0
 22 23  1  0
 22 24  1  0
 24 25  1  0
 24 26  1  0
 19 27  1  0
 27 28  1  6
 27 29  1  0
 29 30  1  0
 30 31  1  0
 31 32  1  6
  7  5  1  0
 31 10  1  0
 31 13  1  0
 27 15  1  0
 24 18  1  0
  1 33  1  0
  1 34  1  0
  1 35  1  0
  2 36  1  1
  3 37  1  0
  3 38  1  0
  4 39  1  0
  4 40  1  0
  5 41  1  1
  8 42  1  0
  8 43  1  0
  8 44  1  0
  9 45  1  0
  9 46  1  0
  9 47  1  0
 10 48  1  1
 11 49  1  0
 11 50  1  0
 12 51  1  0
 12 52  1  0
 14 53  1  0
 14 54  1  0
 14 55  1  0
 15 56  1  6
 16 57  1  0
 16 58  1  0
 17 59  1  0
 19 60  1  1
 20 61  1  0
 20 62  1  0
 21 63  1  0
 21 64  1  0
 22 65  1  1
 23 66  1  0
 25 67  1  0
 25 68  1  0
 25 69  1  0
 26 70  1  0
 26 71  1  0
 26 72  1  0
 28 73  1  0
 28 74  1  0
 28 75  1  0
 29 76  1  0
 29 77  1  0
 30 78  1  0
 30 79  1  0
 32 80  1  0
 32 81  1  0
 32 82  1  0
M  END
>  <meeko>  (7) 
{"is_sidechain": [false], "intermolecular_energy": 2.731, "internal_energy": -0.839}

$$$$
EPH_relaxed_0001_pdb2pqr_Repair_358_r2_0001_out
     RDKit          3D

 82 86  0  0  0  0  0  0  0  0999 V2000
   -0.4600   10.4010   -3.3640 C   0  0  0  0  0  0  0  0  0  0  0  0
    0.3130   10.0870   -2.0800 C   0  0  2  0  0  0  0  0  0  0  0  0
   -0.4230    9.0620   -1.1950 C   0  0  0  0  0  0  0  0  0  0  0  0
   -1.7930    9.5410   -0.7070 C   0  0  0  0  0  0  0  0  0  0  0  0
   -1.7320   10.0590    0.6980 C   0  0  2  0  0  0  0  0  0  0  0  0
   -3.0070   10.3360    1.2900 O   0  0  0  0  0  0  0  0  0  0  0  0
   -2.1430   11.4660    1.0890 C   0  0  0  0  0  0  0  0  0  0  0  0
   -2.6440   12.4430    0.0730 C   0  0  0  0  0  0  0  0  0  0  0  0
   -1.6000   12.0430    2.3590 C   0  0  0  0  0  0  0  0  0  0  0  0
    0.5600   11.3700   -1.2960 C   0  0  1  0  0  0  0  0  0  0  0  0
    1.6620   11.2070   -0.2150 C   0  0  0  0  0  0  0  0  0  0  0  0
    2.4200   12.5570   -0.1410 C   0  0  0  0  0  0  0  0  0  0  0  0
    1.5310   13.5470   -0.9290 C   0  0  1  0  0  0  0  0  0  0  0  0
    0.4160   13.9740    0.0770 C   0  0  0  0  0  0  0  0  0  0  0  0
    2.2570   14.7870   -1.5470 C   0  0  2  0  0  0  0  0  0  0  0  0
    2.9090   15.7360   -0.5260 C   0  0  0  0  0  0  0  0  0  0  0  0
    2.0370   16.8440   -0.0360 C   0  0  0  0  0  0  0  0  0  0  0  0
    0.8830   17.2400   -0.6050 C   0  0  0  0  0  0  0  0  0  0  0  0
    0.3970   16.6150   -1.9190 C   0  0  1  0  0  0  0  0  0  0  0  0
   -0.0590   17.7380   -2.8880 C   0  0  0  0  0  0  0  0  0  0  0  0
   -1.0980   18.6640   -2.2630 C   0  0  0  0  0  0  0  0  0  0  0  0
   -0.5570   19.3100   -0.9900 C   0  0  2  0  0  0  0  0  0  0  0  0
    0.5120   20.1940   -1.3410 O   0  0  0  0  0  0  0  0  0  0  0  0
   -0.0580   18.2770    0.0580 C   0  0  0  0  0  0  0  0  0  0  0  0
   -1.2680   17.5200    0.6600 C   0  0  0  0  0  0  0  0  0  0  0  0
    0.5910   19.0610    1.2300 C   0  0  0  0  0  0  0  0  0  0  0  0
    1.3920   15.5840   -2.6060 C   0  0  1  0  0  0  0  0  0  0  0  0
    2.3990   16.3440   -3.5210 C   0  0  0  0  0  0  0  0  0  0  0  0
    0.5700   14.6270   -3.5480 C   0  0  0  0  0  0  0  0  0  0  0  0
   -0.0210   13.3580   -2.9050 C   0  0  0  0  0  0  0  0  0  0  0  0
    1.0400   12.6100   -2.0920 C   0  0  2  0  0  0  0  0  0  0  0  0
    2.1640   12.1490   -3.0810 C   0  0  0  0  0  0  0  0  0  0  0  0
   -1.4508   10.8035   -3.1064 H   0  0  0  0  0  0  0  0  0  0  0  0
    0.0958   11.1447   -3.9540 H   0  0  0  0  0  0  0  0  0  0  0  0
   -0.5803    9.4804   -3.9540 H   0  0  0  0  0  0  0  0  0  0  0  0
    1.2741    9.6394   -2.3732 H   0  0  0  0  0  0  0  0  0  0  0  0
   -0.5648    8.1393   -1.7769 H   0  0  0  0  0  0  0  0  0  0  0  0
    0.1989    8.9036   -0.3016 H   0  0  0  0  0  0  0  0  0  0  0  0
   -2.1454   10.3461   -1.3686 H   0  0  0  0  0  0  0  0  0  0  0  0
   -2.4823    8.6840   -0.7264 H   0  0  0  0  0  0  0  0  0  0  0  0
   -0.8233    9.4728    0.8996 H   0  0  0  0  0  0  0  0  0  0  0  0
   -3.0882   13.3092    0.5852 H   0  0  0  0  0  0  0  0  0  0  0  0
   -1.8069   12.7789   -0.5566 H   0  0  0  0  0  0  0  0  0  0  0  0
   -3.4053   11.9593   -0.5566 H   0  0  0  0  0  0  0  0  0  0  0  0
   -2.0700   11.5436    3.2190 H   0  0  0  0  0  0  0  0  0  0  0  0
   -0.5114   11.8892    2.3956 H   0  0  0  0  0  0  0  0  0  0  0  0
   -1.8195   13.1202    2.3956 H   0  0  0  0  0  0  0  0  0  0  0  0
   -0.4531   11.5435   -0.9041 H   0  0  0  0  0  0  0  0  0  0  0  0
    1.2059   10.9749    0.7587 H   0  0  0  0  0  0  0  0  0  0  0  0
    2.3458   10.3838   -0.4695 H   0  0  0  0  0  0  0  0  0  0  0  0
    2.5322   12.8826    0.9037 H   0  0  0  0  0  0  0  0  0  0  0  0
    3.4365   12.4880   -0.5557 H   0  0  0  0  0  0  0  0  0  0  0  0
    0.7782   13.8353    1.1064 H   0  0  0  0  0  0  0  0  0  0  0  0
    0.1633   15.0325   -0.0833 H   0  0  0  0  0  0  0  0  0  0  0  0
   -0.4791   13.3550   -0.0833 H   0  0  0  0  0  0  0  0  0  0  0  0
    3.0882   14.3233   -2.0985 H   0  0  0  0  0  0  0  0  0  0  0  0
    3.2192   15.1380    0.3436 H   0  0  0  0  0  0  0  0  0  0  0  0
    3.7465   16.2183   -1.0514 H   0  0  0  0  0  0  0  0  0  0  0  0
    2.3648   17.3821    0.8657 H   0  0  0  0  0  0  0  0  0  0  0  0
   -0.4601   15.9782   -1.6546 H   0  0  0  0  0  0  0  0  0  0  0  0
    0.8194   18.3354   -3.1736 H   0  0  0  0  0  0  0  0  0  0  0  0
   -0.5230   17.2570   -3.7617 H   0  0  0  0  0  0  0  0  0  0  0  0
   -1.3579   19.4526   -2.9845 H   0  0  0  0  0  0  0  0  0  0  0  0
   -1.9876   18.0706   -2.0051 H   0  0  0  0  0  0  0  0  0  0  0  0
   -1.3873   19.8569   -0.5193 H   0  0  0  0  0  0  0  0  0  0  0  0
    1.1820   20.1380   -0.6390 H   0  0  0  0  0  0  0  0  0  0  0  0
   -1.2127   17.5546    1.7581 H   0  0  0  0  0  0  0  0  0  0  0  0
   -2.2016   17.9953    0.3247 H   0  0  0  0  0  0  0  0  0  0  0  0
   -1.2489   16.4725    0.3247 H   0  0  0  0  0  0  0  0  0  0  0  0
    0.2450   18.6430    2.1868 H   0  0  0  0  0  0  0  0  0  0  0  0
    1.6858   18.9751    1.1668 H   0  0  0  0  0  0  0  0  0  0  0  0
    0.3021   20.1205    1.1668 H   0  0  0  0  0  0  0  0  0  0  0  0
    3.1219   16.8896   -2.8967 H   0  0  0  0  0  0  0  0  0  0  0  0
    2.9340   15.6225   -4.1560 H   0  0  0  0  0  0  0  0  0  0  0  0
    1.8519   17.0563   -4.1560 H   0  0  0  0  0  0  0  0  0  0  0  0
   -0.2653   15.2083   -3.9656 H   0  0  0  0  0  0  0  0  0  0  0  0
    1.2949   14.2622   -4.2906 H   0  0  0  0  0  0  0  0  0  0  0  0
   -0.8488   13.6440   -2.2394 H   0  0  0  0  0  0  0  0  0  0  0  0
   -0.3816   12.6949   -3.7051 H   0  0  0  0  0  0  0  0  0  0  0  0
    3.0329   11.7926   -2.5082 H   0  0  0  0  0  0  0  0  0  0  0  0
    1.7834   11.3344   -3.7146 H   0  0  0  0  0  0  0  0  0  0  0  0
    2.4650   12.9963   -3.7146 H   0  0  0  0  0  0  0  0  0  0  0  0
  1  2  1  0
  2  3  1  0
  3  4  1  0
  4  5  1  0
  5  6  1  0
  6  7  1  0
  7  8  1  0
  7  9  1  0
  2 10  1  0
 10 11  1  0
 11 12  1  0
 12 13  1  0
 13 14  1  1
 13 15  1  0
 15 16  1  0
 16 17  1  0
 17 18  2  0
 18 19  1  0
 19 20  1  0
 20 21  1  0
 21 22  1  0
 22 23  1  0
 22 24  1  0
 24 25  1  0
 24 26  1  0
 19 27  1  0
 27 28  1  6
 27 29  1  0
 29 30  1  0
 30 31  1  0
 31 32  1  6
  7  5  1  0
 31 10  1  0
 31 13  1  0
 27 15  1  0
 24 18  1  0
  1 33  1  0
  1 34  1  0
  1 35  1  0
  2 36  1  6
  3 37  1  0
  3 38  1  0
  4 39  1  0
  4 40  1  0
  5 41  1  1
  8 42  1  0
  8 43  1  0
  8 44  1  0
  9 45  1  0
  9 46  1  0
  9 47  1  0
 10 48  1  1
 11 49  1  0
 11 50  1  0
 12 51  1  0
 12 52  1  0
 14 53  1  0
 14 54  1  0
 14 55  1  0
 15 56  1  6
 16 57  1  0
 16 58  1  0
 17 59  1  0
 19 60  1  1
 20 61  1  0
 20 62  1  0
 21 63  1  0
 21 64  1  0
 22 65  1  1
 23 66  1  0
 25 67  1  0
 25 68  1  0
 25 69  1  0
 26 70  1  0
 26 71  1  0
 26 72  1  0
 28 73  1  0
 28 74  1  0
 28 75  1  0
 29 76  1  0
 29 77  1  0
 30 78  1  0
 30 79  1  0
 32 80  1  0
 32 81  1  0
 32 82  1  0
M  END
>  <meeko>  (8) 
{"is_sidechain": [false], "intermolecular_energy": 2.731, "internal_energy": -0.839}

$$$$
EPH_relaxed_0001_pdb2pqr_Repair_358_r2_0001_out
     RDKit          3D

 82 86  0  0  0  0  0  0  0  0999 V2000
    2.3280   16.5650   -0.8970 C   0  0  0  0  0  0  0  0  0  0  0  0
    2.0210   16.3000   -2.3740 C   0  0  2  0  0  0  0  0  0  0  0  0
    1.4850   17.5560   -3.0900 C   0  0  0  0  0  0  0  0  0  0  0  0
    1.2940   18.7590   -2.1620 C   0  0  0  0  0  0  0  0  0  0  0  0
   -0.1210   18.8700   -1.6820 C   0  0  2  0  0  0  0  0  0  0  0  0
   -0.5250   20.1940   -1.3100 O   0  0  0  0  0  0  0  0  0  0  0  0
   -0.4950   19.2200   -0.2540 C   0  0  0  0  0  0  0  0  0  0  0  0
    0.5500   19.4810    0.7850 C   0  0  0  0  0  0  0  0  0  0  0  0
   -1.8510   18.8320    0.2460 C   0  0  0  0  0  0  0  0  0  0  0  0
    1.0170   15.1600   -2.5000 C   0  0  1  0  0  0  0  0  0  0  0  0
    1.0790   14.4590   -3.8830 C   0  0  0  0  0  0  0  0  0  0  0  0
    0.7830   12.9580   -3.6370 C   0  0  0  0  0  0  0  0  0  0  0  0
    0.2380   12.8990   -2.1910 C   0  0  1  0  0  0  0  0  0  0  0  0
   -1.2650   13.3050   -2.3110 C   0  0  0  0  0  0  0  0  0  0  0  0
    0.4090   11.5370   -1.4420 C   0  0  2  0  0  0  0  0  0  0  0  0
   -0.3300   10.3460   -2.0760 C   0  0  0  0  0  0  0  0  0  0  0  0
   -1.7200   10.1220   -1.5820 C   0  0  0  0  0  0  0  0  0  0  0  0
   -2.2520   10.6630   -0.4700 C   0  0  0  0  0  0  0  0  0  0  0  0
   -1.3990   11.5200    0.4740 C   0  0  1  0  0  0  0  0  0  0  0  0
   -1.6450   11.0780    1.9400 C   0  0  0  0  0  0  0  0  0  0  0  0
   -3.1240   11.0920    2.3150 C   0  0  0  0  0  0  0  0  0  0  0  0
   -3.9290   10.1820    1.3910 C   0  0  2  0  0  0  0  0  0  0  0  0
   -3.5380    8.8260    1.6230 O   0  0  0  0  0  0  0  0  0  0  0  0
   -3.7530   10.5270   -0.1140 C   0  0  0  0  0  0  0  0  0  0  0  0
   -4.4500   11.8750   -0.4250 C   0  0  0  0  0  0  0  0  0  0  0  0
   -4.5040    9.4490   -0.9420 C   0  0  0  0  0  0  0  0  0  0  0  0
    0.1460   11.6170    0.1170 C   0  0  1  0  0  0  0  0  0  0  0  0
    0.9170   10.4230    0.7590 C   0  0  0  0  0  0  0  0  0  0  0  0
    0.7420   12.9260    0.7580 C   0  0  0  0  0  0  0  0  0  0  0  0
    0.6490   14.2150   -0.0810 C   0  0  0  0  0  0  0  0  0  0  0  0
    1.1550   13.9780   -1.5080 C   0  0  2  0  0  0  0  0  0  0  0  0
    2.6700   13.5900   -1.4200 C   0  0  0  0  0  0  0  0  0  0  0  0
    1.6444   15.9750   -0.2688 H   0  0  0  0  0  0  0  0  0  0  0  0
    3.3669   16.2753   -0.6807 H   0  0  0  0  0  0  0  0  0  0  0  0
    2.1931   17.6351   -0.6807 H   0  0  0  0  0  0  0  0  0  0  0  0
    2.9654   16.0191   -2.8630 H   0  0  0  0  0  0  0  0  0  0  0  0
    2.1976   17.8363   -3.8797 H   0  0  0  0  0  0  0  0  0  0  0  0
    0.4936   17.2989   -3.4913 H   0  0  0  0  0  0  0  0  0  0  0  0
    1.9577   18.6469   -1.2920 H   0  0  0  0  0  0  0  0  0  0  0  0
    1.5363   19.6705   -2.7281 H   0  0  0  0  0  0  0  0  0  0  0  0
   -0.4356   18.0529   -2.3479 H   0  0  0  0  0  0  0  0  0  0  0  0
    0.1075   19.3705    1.7860 H   0  0  0  0  0  0  0  0  0  0  0  0
    1.3729   18.7608    0.6664 H   0  0  0  0  0  0  0  0  0  0  0  0
    0.9377   20.5036    0.6664 H   0  0  0  0  0  0  0  0  0  0  0  0
   -1.8501   18.8323    1.3460 H   0  0  0  0  0  0  0  0  0  0  0  0
   -2.5969   19.5528   -0.1202 H   0  0  0  0  0  0  0  0  0  0  0  0
   -2.1028   17.8258   -0.1202 H   0  0  0  0  0  0  0  0  0  0  0  0
    0.0863   15.7116   -2.3012 H   0  0  0  0  0  0  0  0  0  0  0  0
    0.3249   14.8879   -4.5593 H   0  0  0  0  0  0  0  0  0  0  0  0
    2.0650   14.5956   -4.3512 H   0  0  0  0  0  0  0  0  0  0  0  0
    0.0317   12.5885   -4.3504 H   0  0  0  0  0  0  0  0  0  0  0  0
    1.6756   12.3295   -3.7720 H   0  0  0  0  0  0  0  0  0  0  0  0
   -1.6949   13.4211   -1.3052 H   0  0  0  0  0  0  0  0  0  0  0  0
   -1.3452   14.2570   -2.8562 H   0  0  0  0  0  0  0  0  0  0  0  0
   -1.8137   12.5229   -2.8562 H   0  0  0  0  0  0  0  0  0  0  0  0
    1.4808   11.3281   -1.5749 H   0  0  0  0  0  0  0  0  0  0  0  0
   -0.3783   10.5151   -3.1619 H   0  0  0  0  0  0  0  0  0  0  0  0
    0.2411    9.4490   -1.7947 H   0  0  0  0  0  0  0  0  0  0  0  0
   -2.3648    9.4585   -2.1770 H   0  0  0  0  0  0  0  0  0  0  0  0
   -1.7404   12.5564    0.3347 H   0  0  0  0  0  0  0  0  0  0  0  0
   -1.2579   10.0566    2.0700 H   0  0  0  0  0  0  0  0  0  0  0  0
   -1.1275   11.7936    2.5958 H   0  0  0  0  0  0  0  0  0  0  0  0
   -3.2359   10.7422    3.3519 H   0  0  0  0  0  0  0  0  0  0  0  0
   -3.5026   12.1198    2.2131 H   0  0  0  0  0  0  0  0  0  0  0  0
   -4.9931   10.3333    1.6249 H   0  0  0  0  0  0  0  0  0  0  0  0
   -3.8290    8.3000    0.8590 H   0  0  0  0  0  0  0  0  0  0  0  0
   -4.7106   12.3790    0.5174 H   0  0  0  0  0  0  0  0  0  0  0  0
   -3.7694   12.5141   -1.0066 H   0  0  0  0  0  0  0  0  0  0  0  0
   -5.3650   11.6891   -1.0066 H   0  0  0  0  0  0  0  0  0  0  0  0
   -4.9974    8.7408   -0.2601 H   0  0  0  0  0  0  0  0  0  0  0  0
   -5.2602    9.9347   -1.5762 H   0  0  0  0  0  0  0  0  0  0  0  0
   -3.7863    8.9079   -1.5762 H   0  0  0  0  0  0  0  0  0  0  0  0
    0.8667   10.5009    1.8551 H   0  0  0  0  0  0  0  0  0  0  0  0
    0.4596    9.4757    0.4374 H   0  0  0  0  0  0  0  0  0  0  0  0
    1.9686   10.4502    0.4374 H   0  0  0  0  0  0  0  0  0  0  0  0
    0.2098   13.1055    1.7038 H   0  0  0  0  0  0  0  0  0  0  0  0
    1.8190   12.7294    0.8651 H   0  0  0  0  0  0  0  0  0  0  0  0
   -0.4001   14.5435   -0.1210 H   0  0  0  0  0  0  0  0  0  0  0  0
    1.2761   14.9863    0.3901 H   0  0  0  0  0  0  0  0  0  0  0  0
    2.9682   13.5136   -0.3639 H   0  0  0  0  0  0  0  0  0  0  0  0
    2.8300   12.6219   -1.9171 H   0  0  0  0  0  0  0  0  0  0  0  0
    3.2757   14.3620   -1.9171 H   0  0  0  0  0  0  0  0  0  0  0  0
  1  2  1  0
  2  3  1  0
  3  4  1  0
  4  5  1  0
  5  6  1  0
  6  7  1  0
  7  8  1  0
  7  9  1  0
  2 10  1  0
 10 11  1  0
 11 12  1  0
 12 13  1  0
 13 14  1  6
 13 15  1  0
 15 16  1  0
 16 17  1  0
 17 18  2  0
 18 19  1  0
 19 20  1  0
 20 21  1  0
 21 22  1  0
 22 23  1  0
 22 24  1  0
 24 25  1  0
 24 26  1  0
 19 27  1  0
 27 28  1  1
 27 29  1  0
 29 30  1  0
 30 31  1  0
 31 32  1  1
  7  5  1  0
 31 10  1  0
 31 13  1  0
 27 15  1  0
 24 18  1  0
  1 33  1  0
  1 34  1  0
  1 35  1  0
  2 36  1  6
  3 37  1  0
  3 38  1  0
  4 39  1  0
  4 40  1  0
  5 41  1  6
  8 42  1  0
  8 43  1  0
  8 44  1  0
  9 45  1  0
  9 46  1  0
  9 47  1  0
 10 48  1  1
 11 49  1  0
 11 50  1  0
 12 51  1  0
 12 52  1  0
 14 53  1  0
 14 54  1  0
 14 55  1  0
 15 56  1  1
 16 57  1  0
 16 58  1  0
 17 59  1  0
 19 60  1  1
 20 61  1  0
 20 62  1  0
 21 63  1  0
 21 64  1  0
 22 65  1  1
 23 66  1  0
 25 67  1  0
 25 68  1  0
 25 69  1  0
 26 70  1  0
 26 71  1  0
 26 72  1  0
 28 73  1  0
 28 74  1  0
 28 75  1  0
 29 76  1  0
 29 77  1  0
 30 78  1  0
 30 79  1  0
 32 80  1  0
 32 81  1  0
 32 82  1  0
M  END
>  <meeko>  (9) 
{"is_sidechain": [false], "intermolecular_energy": 2.731, "internal_energy": -0.839}

$$$$
EPH_relaxed_0001_pdb2pqr_Repair_358_r2_0001_out
     RDKit          3D

 82 86  0  0  0  0  0  0  0  0999 V2000
   -4.8940    7.2250   -2.1700 C   0  0  0  0  0  0  0  0  0  0  0  0
   -5.4130    8.0920   -1.0190 C   0  0  2  0  0  0  0  0  0  0  0  0
   -6.8810    8.5140   -1.2260 C   0  0  0  0  0  0  0  0  0  0  0  0
   -7.8430    7.3350   -1.3960 C   0  0  0  0  0  0  0  0  0  0  0  0
   -8.7770    7.2080   -0.2310 C   0  0  2  0  0  0  0  0  0  0  0  0
   -9.6780    6.0950   -0.3040 O   0  0  0  0  0  0  0  0  0  0  0  0
  -10.2780    7.4000   -0.3380 C   0  0  0  0  0  0  0  0  0  0  0  0
  -10.9310    7.7360   -1.6420 C   0  0  0  0  0  0  0  0  0  0  0  0
  -11.0460    7.7430    0.9010 C   0  0  0  0  0  0  0  0  0  0  0  0
   -4.5330    9.3260   -0.8600 C   0  0  1  0  0  0  0  0  0  0  0  0
   -4.9750   10.2270    0.3240 C   0  0  0  0  0  0  0  0  0  0  0  0
   -3.6840   10.8310    0.9330 C   0  0  0  0  0  0  0  0  0  0  0  0
   -2.5820   10.5300   -0.1100 C   0  0  1  0  0  0  0  0  0  0  0  0
   -2.7420   11.6420   -1.1940 C   0  0  0  0  0  0  0  0  0  0  0  0
   -1.1180   10.4580    0.4330 C   0  0  2  0  0  0  0  0  0  0  0  0
   -0.5840   11.7640    1.0460 C   0  0  0  0  0  0  0  0  0  0  0  0
    0.1120   12.6780    0.0930 C   0  0  0  0  0  0  0  0  0  0  0  0
    0.5530   12.3410   -1.1330 C   0  0  0  0  0  0  0  0  0  0  0  0
    0.4530   10.8950   -1.6360 C   0  0  1  0  0  0  0  0  0  0  0  0
    1.8020   10.4750   -2.2770 C   0  0  0  0  0  0  0  0  0  0  0  0
    2.2590   11.4410   -3.3660 C   0  0  0  0  0  0  0  0  0  0  0  0
    2.4020   12.8570   -2.8130 C   0  0  2  0  0  0  0  0  0  0  0  0
    3.4810   12.8780   -1.8730 O   0  0  0  0  0  0  0  0  0  0  0  0
    1.1080   13.3840   -2.1340 C   0  0  0  0  0  0  0  0  0  0  0  0
    0.0260   13.6480   -3.2110 C   0  0  0  0  0  0  0  0  0  0  0  0
    1.4300   14.7630   -1.4970 C   0  0  0  0  0  0  0  0  0  0  0  0
   -0.0800    9.8300   -0.5840 C   0  0  1  0  0  0  0  0  0  0  0  0
    1.1060    9.2850    0.2700 C   0  0  0  0  0  0  0  0  0  0  0  0
   -0.6740    8.5950   -1.3590 C   0  0  0  0  0  0  0  0  0  0  0  0
   -2.1580    8.6760   -1.7630 C   0  0  0  0  0  0  0  0  0  0  0  0
   -3.0280    9.0950   -0.5740 C   0  0  2  0  0  0  0  0  0  0  0  0
   -2.9060    7.9840    0.5240 C   0  0  0  0  0  0  0  0  0  0  0  0
   -4.3695    6.3487   -1.7613 H   0  0  0  0  0  0  0  0  0  0  0  0
   -5.7405    6.8905   -2.7877 H   0  0  0  0  0  0  0  0  0  0  0  0
   -4.1993    7.8131   -2.7877 H   0  0  0  0  0  0  0  0  0  0  0  0
   -5.3707    7.4851   -0.1025 H   0  0  0  0  0  0  0  0  0  0  0  0
   -7.2006    9.0994   -0.3513 H   0  0  0  0  0  0  0  0  0  0  0  0
   -6.9192    9.0967   -2.1582 H   0  0  0  0  0  0  0  0  0  0  0  0
   -8.4338    7.4863   -2.3115 H   0  0  0  0  0  0  0  0  0  0  0  0
   -7.2467    6.4128   -1.4590 H   0  0  0  0  0  0  0  0  0  0  0  0
   -8.0250    7.6352    0.4487 H   0  0  0  0  0  0  0  0  0  0  0  0
  -11.8945    8.2318   -1.4526 H   0  0  0  0  0  0  0  0  0  0  0  0
  -10.2783    8.4102   -2.2159 H   0  0  0  0  0  0  0  0  0  0  0  0
  -11.1002    6.8130   -2.2159 H   0  0  0  0  0  0  0  0  0  0  0  0
  -10.4506    7.4771    1.7869 H   0  0  0  0  0  0  0  0  0  0  0  0
  -11.2595    8.8220    0.9131 H   0  0  0  0  0  0  0  0  0  0  0  0
  -11.9920    7.1819    0.9131 H   0  0  0  0  0  0  0  0  0  0  0  0
   -4.6621    9.7732   -1.8566 H   0  0  0  0  0  0  0  0  0  0  0  0
   -5.6351   11.0296   -0.0367 H   0  0  0  0  0  0  0  0  0  0  0  0
   -5.5319    9.6473    1.0748 H   0  0  0  0  0  0  0  0  0  0  0  0
   -3.7943   11.9156    1.0792 H   0  0  0  0  0  0  0  0  0  0  0  0
   -3.4506   10.4063    1.9205 H   0  0  0  0  0  0  0  0  0  0  0  0
   -2.8821   12.6159   -0.7023 H   0  0  0  0  0  0  0  0  0  0  0  0
   -1.8393   11.6747   -1.8218 H   0  0  0  0  0  0  0  0  0  0  0  0
   -3.6173   11.4189   -1.8218 H   0  0  0  0  0  0  0  0  0  0  0  0
   -1.2119    9.7517    1.2711 H   0  0  0  0  0  0  0  0  0  0  0  0
   -1.4355   12.3091    1.4792 H   0  0  0  0  0  0  0  0  0  0  0  0
    0.1714   11.4653    1.7877 H   0  0  0  0  0  0  0  0  0  0  0  0
    0.2786   13.7148    0.4205 H   0  0  0  0  0  0  0  0  0  0  0  0
   -0.3396   10.8930   -2.3988 H   0  0  0  0  0  0  0  0  0  0  0  0
    2.5705   10.4412   -1.4907 H   0  0  0  0  0  0  0  0  0  0  0  0
    1.6568    9.4899   -2.7444 H   0  0  0  0  0  0  0  0  0  0  0  0
    3.2311   11.1077   -3.7584 H   0  0  0  0  0  0  0  0  0  0  0  0
    1.5046   11.4507   -4.1665 H   0  0  0  0  0  0  0  0  0  0  0  0
    2.6029   13.5241   -3.6642 H   0  0  0  0  0  0  0  0  0  0  0  0
    3.5950   11.9730   -1.5370 H   0  0  0  0  0  0  0  0  0  0  0  0
   -0.9305   13.8814   -2.7204 H   0  0  0  0  0  0  0  0  0  0  0  0
    0.3330   14.4976   -3.8387 H   0  0  0  0  0  0  0  0  0  0  0  0
   -0.0928   12.7525   -3.8387 H   0  0  0  0  0  0  0  0  0  0  0  0
    1.4093   14.6743   -0.4008 H   0  0  0  0  0  0  0  0  0  0  0  0
    2.4290   15.0916   -1.8195 H   0  0  0  0  0  0  0  0  0  0  0  0
    0.6798   15.5000   -1.8195 H   0  0  0  0  0  0  0  0  0  0  0  0
    0.8688    9.3940    1.3386 H   0  0  0  0  0  0  0  0  0  0  0  0
    1.2678    8.2222    0.0368 H   0  0  0  0  0  0  0  0  0  0  0  0
    2.0178    9.8544    0.0368 H   0  0  0  0  0  0  0  0  0  0  0  0
   -0.0854    8.4653   -2.2792 H   0  0  0  0  0  0  0  0  0  0  0  0
   -0.6143    7.7554   -0.6508 H   0  0  0  0  0  0  0  0  0  0  0  0
   -2.2714    9.4149   -2.5699 H   0  0  0  0  0  0  0  0  0  0  0  0
   -2.4837    7.6818   -2.1027 H   0  0  0  0  0  0  0  0  0  0  0  0
   -2.9568    8.4465    1.5208 H   0  0  0  0  0  0  0  0  0  0  0  0
   -3.7306    7.2647    0.4111 H   0  0  0  0  0  0  0  0  0  0  0  0
   -1.9450    7.4608    0.4111 H   0  0  0  0  0  0  0  0  0  0  0  0
  1  2  1  0
  2  3  1  0
  3  4  1  0
  4  5  1  0
  5  6  1  0
  6  7  1  0
  7  8  1  0
  7  9  1  0
  2 10  1  0
 10 11  1  0
 11 12  1  0
 12 13  1  0
 13 14  1  6
 13 15  1  0
 15 16  1  0
 16 17  1  0
 17 18  2  0
 18 19  1  0
 19 20  1  0
 20 21  1  0
 21 22  1  0
 22 23  1  0
 22 24  1  0
 24 25  1  0
 24 26  1  0
 19 27  1  0
 27 28  1  1
 27 29  1  0
 29 30  1  0
 30 31  1  0
 31 32  1  1
  7  5  1  0
 31 10  1  0
 31 13  1  0
 27 15  1  0
 24 18  1  0
  1 33  1  0
  1 34  1  0
  1 35  1  0
  2 36  1  1
  3 37  1  0
  3 38  1  0
  4 39  1  0
  4 40  1  0
  5 41  1  1
  8 42  1  0
  8 43  1  0
  8 44  1  0
  9 45  1  0
  9 46  1  0
  9 47  1  0
 10 48  1  6
 11 49  1  0
 11 50  1  0
 12 51  1  0
 12 52  1  0
 14 53  1  0
 14 54  1  0
 14 55  1  0
 15 56  1  1
 16 57  1  0
 16 58  1  0
 17 59  1  0
 19 60  1  6
 20 61  1  0
 20 62  1  0
 21 63  1  0
 21 64  1  0
 22 65  1  6
 23 66  1  0
 25 67  1  0
 25 68  1  0
 25 69  1  0
 26 70  1  0
 26 71  1  0
 26 72  1  0
 28 73  1  0
 28 74  1  0
 28 75  1  0
 29 76  1  0
 29 77  1  0
 30 78  1  0
 30 79  1  0
 32 80  1  0
 32 81  1  0
 32 82  1  0
M  END
>  <meeko>  (10) 
{"is_sidechain": [false], "intermolecular_energy": 2.731, "internal_energy": -0.839}

$$$$
EPH_relaxed_0001_pdb2pqr_Repair_358_r2_0001_out
     RDKit          3D

 82 86  0  0  0  0  0  0  0  0999 V2000
   -4.1660    7.4450   -2.8240 C   0  0  0  0  0  0  0  0  0  0  0  0
   -4.1390    7.8600   -1.3500 C   0  0  2  0  0  0  0  0  0  0  0  0
   -5.5140    7.6910   -0.6740 C   0  0  0  0  0  0  0  0  0  0  0  0
   -6.4620    6.7570   -1.4310 C   0  0  0  0  0  0  0  0  0  0  0  0
   -7.8980    7.0600   -1.1280 C   0  0  2  0  0  0  0  0  0  0  0  0
   -8.7540    5.9110   -1.0740 O   0  0  0  0  0  0  0  0  0  0  0  0
   -9.0240    6.8540   -2.1240 C   0  0  0  0  0  0  0  0  0  0  0  0
   -8.7630    6.3240   -3.4990 C   0  0  0  0  0  0  0  0  0  0  0  0
  -10.2970    7.6190   -1.9340 C   0  0  0  0  0  0  0  0  0  0  0  0
   -3.6710    9.3050   -1.2260 C   0  0  1  0  0  0  0  0  0  0  0  0
   -4.7500   10.2310   -0.6040 C   0  0  0  0  0  0  0  0  0  0  0  0
   -3.9980   11.2830    0.2520 C   0  0  0  0  0  0  0  0  0  0  0  0
   -2.5160   11.1380   -0.1660 C   0  0  1  0  0  0  0  0  0  0  0  0
   -2.3930   11.9470   -1.4950 C   0  0  0  0  0  0  0  0  0  0  0  0
   -1.4540   11.5930    0.8870 C   0  0  2  0  0  0  0  0  0  0  0  0
   -1.5030   13.0850    1.2610 C   0  0  0  0  0  0  0  0  0  0  0  0
   -0.6480   13.9800    0.4270 C   0  0  0  0  0  0  0  0  0  0  0  0
    0.3410   13.5760   -0.3920 C   0  0  0  0  0  0  0  0  0  0  0  0
    0.7500   12.0990   -0.4650 C   0  0  1  0  0  0  0  0  0  0  0  0
    2.2960   11.9850   -0.4000 C   0  0  0  0  0  0  0  0  0  0  0  0
    2.9900   12.8350   -1.4600 C   0  0  0  0  0  0  0  0  0  0  0  0
    2.6040   14.3060   -1.3180 C   0  0  2  0  0  0  0  0  0  0  0  0
    3.1350   14.8050   -0.0870 O   0  0  0  0  0  0  0  0  0  0  0  0
    1.0680   14.5430   -1.3590 C   0  0  0  0  0  0  0  0  0  0  0  0
    0.5400   14.2850   -2.7920 C   0  0  0  0  0  0  0  0  0  0  0  0
    0.8090   16.0450   -1.0640 C   0  0  0  0  0  0  0  0  0  0  0  0
    0.0230   11.1270    0.5610 C   0  0  1  0  0  0  0  0  0  0  0  0
    0.7940   11.1110    1.9170 C   0  0  0  0  0  0  0  0  0  0  0  0
    0.0770    9.6560    0.0030 C   0  0  0  0  0  0  0  0  0  0  0  0
   -1.0650    9.2280   -0.9380 C   0  0  0  0  0  0  0  0  0  0  0  0
   -2.4310    9.5780   -0.3380 C   0  0  2  0  0  0  0  0  0  0  0  0
   -2.5920    8.7610    0.9900 C   0  0  0  0  0  0  0  0  0  0  0  0
   -4.2373    6.3496   -2.8953 H   0  0  0  0  0  0  0  0  0  0  0  0
   -5.0363    7.9020   -3.3177 H   0  0  0  0  0  0  0  0  0  0  0  0
   -3.2438    7.7853   -3.3177 H   0  0  0  0  0  0  0  0  0  0  0  0
   -3.4329    7.1948   -0.8314 H   0  0  0  0  0  0  0  0  0  0  0  0
   -5.3568    7.2826    0.3352 H   0  0  0  0  0  0  0  0  0  0  0  0
   -5.9874    8.6837   -0.6563 H   0  0  0  0  0  0  0  0  0  0  0  0
   -6.2928    6.8765   -2.5113 H   0  0  0  0  0  0  0  0  0  0  0  0
   -6.2545    5.7252   -1.1111 H   0  0  0  0  0  0  0  0  0  0  0  0
   -7.6101    7.9213   -0.5074 H   0  0  0  0  0  0  0  0  0  0  0  0
   -8.2781    5.3393   -3.4265 H   0  0  0  0  0  0  0  0  0  0  0  0
   -9.7153    6.2248   -4.0406 H   0  0  0  0  0  0  0  0  0  0  0  0
   -8.1038    7.0184   -4.0406 H   0  0  0  0  0  0  0  0  0  0  0  0
  -10.4959    7.7385   -0.8588 H   0  0  0  0  0  0  0  0  0  0  0  0
  -10.2025    8.6101   -2.4018 H   0  0  0  0  0  0  0  0  0  0  0  0
  -11.1278    7.0704   -2.4018 H   0  0  0  0  0  0  0  0  0  0  0  0
   -3.4325    9.5120   -2.2797 H   0  0  0  0  0  0  0  0  0  0  0  0
   -5.3245   10.7298   -1.3984 H   0  0  0  0  0  0  0  0  0  0  0  0
   -5.4578    9.6552    0.0103 H   0  0  0  0  0  0  0  0  0  0  0  0
   -4.3659   12.2964    0.0335 H   0  0  0  0  0  0  0  0  0  0  0  0
   -4.1447   11.1254    1.3307 H   0  0  0  0  0  0  0  0  0  0  0  0
   -2.2314   13.0101   -1.2635 H   0  0  0  0  0  0  0  0  0  0  0  0
   -1.5425   11.5655   -2.0791 H   0  0  0  0  0  0  0  0  0  0  0  0
   -3.3184   11.8355   -2.0791 H   0  0  0  0  0  0  0  0  0  0  0  0
   -1.7688   11.0486    1.7895 H   0  0  0  0  0  0  0  0  0  0  0  0
   -2.5448   13.4251    1.1661 H   0  0  0  0  0  0  0  0  0  0  0  0
   -1.1081   13.1550    2.2853 H   0  0  0  0  0  0  0  0  0  0  0  0
   -0.8424   15.0610    0.4866 H   0  0  0  0  0  0  0  0  0  0  0  0
    0.3896   11.7318   -1.4373 H   0  0  0  0  0  0  0  0  0  0  0  0
    2.6326   12.3161    0.5935 H   0  0  0  0  0  0  0  0  0  0  0  0
    2.5617   10.9342   -0.5878 H   0  0  0  0  0  0  0  0  0  0  0  0
    4.0794   12.7358   -1.3446 H   0  0  0  0  0  0  0  0  0  0  0  0
    2.6752   12.4835   -2.4537 H   0  0  0  0  0  0  0  0  0  0  0  0
    3.0273   14.8429   -2.1797 H   0  0  0  0  0  0  0  0  0  0  0  0
    2.8330   14.2160    0.6250 H   0  0  0  0  0  0  0  0  0  0  0  0
   -0.4471   13.8027   -2.7377 H   0  0  0  0  0  0  0  0  0  0  0  0
    0.4518   15.2415   -3.3280 H   0  0  0  0  0  0  0  0  0  0  0  0
    1.2404   13.6276   -3.3280 H   0  0  0  0  0  0  0  0  0  0  0  0
    0.7813   16.2055    0.0239 H   0  0  0  0  0  0  0  0  0  0  0  0
    1.6162   16.6495   -1.5034 H   0  0  0  0  0  0  0  0  0  0  0  0
   -0.1540   16.3442   -1.5034 H   0  0  0  0  0  0  0  0  0  0  0  0
    0.0739   11.1259    2.7484 H   0  0  0  0  0  0  0  0  0  0  0  0
    1.4072   10.1999    1.9794 H   0  0  0  0  0  0  0  0  0  0  0  0
    1.4445   11.9958    1.9794 H   0  0  0  0  0  0  0  0  0  0  0  0
    1.0223    9.5436   -0.5482 H   0  0  0  0  0  0  0  0  0  0  0  0
   -0.0206    9.0089    0.8872 H   0  0  0  0  0  0  0  0  0  0  0  0
   -0.9513    9.7473   -1.9010 H   0  0  0  0  0  0  0  0  0  0  0  0
   -1.0130    8.1384   -1.0794 H   0  0  0  0  0  0  0  0  0  0  0  0
   -2.4598    9.4320    1.8516 H   0  0  0  0  0  0  0  0  0  0  0  0
   -3.5958    8.3125    1.0252 H   0  0  0  0  0  0  0  0  0  0  0  0
   -1.8334    7.9652    1.0252 H   0  0  0  0  0  0  0  0  0  0  0  0
  1  2  1  0
  2  3  1  0
  3  4  1  0
  4  5  1  0
  5  6  1  0
  6  7  1  0
  7  8  1  0
  7  9  1  0
  2 10  1  0
 10 11  1  0
 11 12  1  0
 12 13  1  0
 13 14  1  6
 13 15  1  0
 15 16  1  0
 16 17  1  0
 17 18  2  0
 18 19  1  0
 19 20  1  0
 20 21  1  0
 21 22  1  0
 22 23  1  0
 22 24  1  0
 24 25  1  0
 24 26  1  0
 19 27  1  0
 27 28  1  1
 27 29  1  0
 29 30  1  0
 30 31  1  0
 31 32  1  1
  7  5  1  0
 31 10  1  0
 31 13  1  0
 27 15  1  0
 24 18  1  0
  1 33  1  0
  1 34  1  0
  1 35  1  0
  2 36  1  1
  3 37  1  0
  3 38  1  0
  4 39  1  0
  4 40  1  0
  5 41  1  1
  8 42  1  0
  8 43  1  0
  8 44  1  0
  9 45  1  0
  9 46  1  0
  9 47  1  0
 10 48  1  6
 11 49  1  0
 11 50  1  0
 12 51  1  0
 12 52  1  0
 14 53  1  0
 14 54  1  0
 14 55  1  0
 15 56  1  1
 16 57  1  0
 16 58  1  0
 17 59  1  0
 19 60  1  6
 20 61  1  0
 20 62  1  0
 21 63  1  0
 21 64  1  0
 22 65  1  6
 23 66  1  0
 25 67  1  0
 25 68  1  0
 25 69  1  0
 26 70  1  0
 26 71  1  0
 26 72  1  0
 28 73  1  0
 28 74  1  0
 28 75  1  0
 29 76  1  0
 29 77  1  0
 30 78  1  0
 30 79  1  0
 32 80  1  0
 32 81  1  0
 32 82  1  0
M  END
>  <meeko>  (11) 
{"is_sidechain": [false], "intermolecular_energy": 2.731, "internal_energy": -0.839}

$$$$
EPH_relaxed_0001_pdb2pqr_Repair_358_r2_0001_out
     RDKit          3D

 82 86  0  0  0  0  0  0  0  0999 V2000
   -4.5790   11.4080    0.0230 C   0  0  0  0  0  0  0  0  0  0  0  0
   -3.2270   10.8380   -0.4150 C   0  0  2  0  0  0  0  0  0  0  0  0
   -2.9740    9.4320    0.1640 C   0  0  0  0  0  0  0  0  0  0  0  0
   -2.8440    8.3410   -0.9020 C   0  0  0  0  0  0  0  0  0  0  0  0
   -1.7120    8.6180   -1.8440 C   0  0  2  0  0  0  0  0  0  0  0  0
   -0.9940    7.4550   -2.2760 O   0  0  0  0  0  0  0  0  0  0  0  0
   -0.2530    8.3990   -1.4860 C   0  0  0  0  0  0  0  0  0  0  0  0
    0.1510    7.8830   -0.1410 C   0  0  0  0  0  0  0  0  0  0  0  0
    0.7920    9.1420   -2.2580 C   0  0  0  0  0  0  0  0  0  0  0  0
   -2.1050   11.7830    0.0000 C   0  0  1  0  0  0  0  0  0  0  0  0
   -1.1930   11.1790    1.1020 C   0  0  0  0  0  0  0  0  0  0  0  0
    0.2440   11.6890    0.8220 C   0  0  0  0  0  0  0  0  0  0  0  0
    0.0600   12.8210   -0.2160 C   0  0  1  0  0  0  0  0  0  0  0  0
   -0.3560   14.0710    0.6230 C   0  0  0  0  0  0  0  0  0  0  0  0
    1.2910   13.1250   -1.1310 C   0  0  2  0  0  0  0  0  0  0  0  0
    2.5500   13.6120   -0.3930 C   0  0  0  0  0  0  0  0  0  0  0  0
    2.6610   15.0920   -0.2310 C   0  0  0  0  0  0  0  0  0  0  0  0
    1.9390   16.0090   -0.9020 C   0  0  0  0  0  0  0  0  0  0  0  0
    0.9630   15.5880   -2.0080 C   0  0  1  0  0  0  0  0  0  0  0  0
    1.1630   16.4970   -3.2490 C   0  0  0  0  0  0  0  0  0  0  0  0
    1.0560   17.9810   -2.9100 C   0  0  0  0  0  0  0  0  0  0  0  0
    2.0810   18.3730   -1.8490 C   0  0  2  0  0  0  0  0  0  0  0  0
    3.3930   18.2510   -2.4080 O   0  0  0  0  0  0  0  0  0  0  0  0
    1.9820   17.5180   -0.5550 C   0  0  0  0  0  0  0  0  0  0  0  0
    0.6850   17.8780    0.2090 C   0  0  0  0  0  0  0  0  0  0  0  0
    3.1600   17.9190    0.3740 C   0  0  0  0  0  0  0  0  0  0  0  0
    0.9600   14.0420   -2.3780 C   0  0  1  0  0  0  0  0  0  0  0  0
    2.0550   13.7490   -3.4490 C   0  0  0  0  0  0  0  0  0  0  0  0
   -0.4200   13.6750   -3.0420 C   0  0  0  0  0  0  0  0  0  0  0  0
   -1.5620   13.2680   -2.0910 C   0  0  0  0  0  0  0  0  0  0  0  0
   -1.0910   12.2070   -1.0920 C   0  0  2  0  0  0  0  0  0  0  0  0
   -0.6870   10.9300   -1.9050 C   0  0  0  0  0  0  0  0  0  0  0  0
   -4.6294   11.4292    1.1216 H   0  0  0  0  0  0  0  0  0  0  0  0
   -4.6905   12.4297   -0.3690 H   0  0  0  0  0  0  0  0  0  0  0  0
   -5.3883   10.7745   -0.3690 H   0  0  0  0  0  0  0  0  0  0  0  0
   -3.2471   10.7441   -1.5108 H   0  0  0  0  0  0  0  0  0  0  0  0
   -2.0422    9.4596    0.7480 H   0  0  0  0  0  0  0  0  0  0  0  0
   -3.8486    9.1763    0.7803 H   0  0  0  0  0  0  0  0  0  0  0  0
   -2.6658    7.3762   -0.4046 H   0  0  0  0  0  0  0  0  0  0  0  0
   -3.7768    8.3181   -1.4845 H   0  0  0  0  0  0  0  0  0  0  0  0
   -2.2462    9.4802   -2.2697 H   0  0  0  0  0  0  0  0  0  0  0  0
   -0.3247    8.4906    0.6429 H   0  0  0  0  0  0  0  0  0  0  0  0
   -0.1698    6.8358   -0.0385 H   0  0  0  0  0  0  0  0  0  0  0  0
    1.2446    7.9432   -0.0385 H   0  0  0  0  0  0  0  0  0  0  0  0
    1.4840    9.6340   -1.5586 H   0  0  0  0  0  0  0  0  0  0  0  0
    1.3505    8.4371   -2.8914 H   0  0  0  0  0  0  0  0  0  0  0  0
    0.3096    9.9010   -2.8914 H   0  0  0  0  0  0  0  0  0  0  0  0
   -2.7023   12.6511    0.3156 H   0  0  0  0  0  0  0  0  0  0  0  0
   -1.5268   11.5134    2.0954 H   0  0  0  0  0  0  0  0  0  0  0  0
   -1.2318   10.0798    1.0883 H   0  0  0  0  0  0  0  0  0  0  0  0
    0.7047   12.0770    1.7424 H   0  0  0  0  0  0  0  0  0  0  0  0
    0.9065   10.8907    0.4561 H   0  0  0  0  0  0  0  0  0  0  0  0
   -0.2777   13.8359    1.6947 H   0  0  0  0  0  0  0  0  0  0  0  0
    0.3106   14.9124    0.3826 H   0  0  0  0  0  0  0  0  0  0  0  0
   -1.3938   14.3451    0.3826 H   0  0  0  0  0  0  0  0  0  0  0  0
    1.5437   12.1293   -1.5243 H   0  0  0  0  0  0  0  0  0  0  0  0
    2.5531   13.1590    0.6094 H   0  0  0  0  0  0  0  0  0  0  0  0
    3.4046   13.3088   -1.0157 H   0  0  0  0  0  0  0  0  0  0  0  0
    3.3950   15.4648    0.4985 H   0  0  0  0  0  0  0  0  0  0  0  0
   -0.0461   15.7362   -1.5959 H   0  0  0  0  0  0  0  0  0  0  0  0
    2.1598   16.3027   -3.6716 H   0  0  0  0  0  0  0  0  0  0  0  0
    0.3654   16.2603   -3.9686 H   0  0  0  0  0  0  0  0  0  0  0  0
    1.2357   18.5721   -3.8201 H   0  0  0  0  0  0  0  0  0  0  0  0
    0.0486   18.1795   -2.5155 H   0  0  0  0  0  0  0  0  0  0  0  0
    1.8698   19.4116   -1.5545 H   0  0  0  0  0  0  0  0  0  0  0  0
    3.9230   18.9970   -2.0810 H   0  0  0  0  0  0  0  0  0  0  0  0
    0.8710   17.8264    1.2919 H   0  0  0  0  0  0  0  0  0  0  0  0
    0.3713   18.8972   -0.0610 H   0  0  0  0  0  0  0  0  0  0  0  0
   -0.1091   17.1663   -0.0610 H   0  0  0  0  0  0  0  0  0  0  0  0
    2.8508   17.8138    1.4244 H   0  0  0  0  0  0  0  0  0  0  0  0
    4.0212   17.2634    0.1778 H   0  0  0  0  0  0  0  0  0  0  0  0
    3.4424   18.9639    0.1778 H   0  0  0  0  0  0  0  0  0  0  0  0
    3.0005   13.4960   -2.9470 H   0  0  0  0  0  0  0  0  0  0  0  0
    1.7363   12.9045   -4.0777 H   0  0  0  0  0  0  0  0  0  0  0  0
    2.2006   14.6398   -4.0777 H   0  0  0  0  0  0  0  0  0  0  0  0
   -0.7587   14.5525   -3.6124 H   0  0  0  0  0  0  0  0  0  0  0  0
   -0.2184   12.7803   -3.6493 H   0  0  0  0  0  0  0  0  0  0  0  0
   -1.9041   14.1557   -1.5387 H   0  0  0  0  0  0  0  0  0  0  0  0
   -2.3834   12.8467   -2.6891 H   0  0  0  0  0  0  0  0  0  0  0  0
   -0.4301   10.1181   -1.2087 H   0  0  0  0  0  0  0  0  0  0  0  0
   -1.5299   10.6168   -2.5385 H   0  0  0  0  0  0  0  0  0  0  0  0
    0.1827   11.1586   -2.5385 H   0  0  0  0  0  0  0  0  0  0  0  0
  1  2  1  0
  2  3  1  0
  3  4  1  0
  4  5  1  0
  5  6  1  0
  6  7  1  0
  7  8  1  0
  7  9  1  0
  2 10  1  0
 10 11  1  0
 11 12  1  0
 12 13  1  0
 13 14  1  1
 13 15  1  0
 15 16  1  0
 16 17  1  0
 17 18  2  0
 18 19  1  0
 19 20  1  0
 20 21  1  0
 21 22  1  0
 22 23  1  0
 22 24  1  0
 24 25  1  0
 24 26  1  0
 19 27  1  0
 27 28  1  6
 27 29  1  0
 29 30  1  0
 30 31  1  0
 31 32  1  6
  7  5  1  0
 31 10  1  0
 31 13  1  0
 27 15  1  0
 24 18  1  0
  1 33  1  0
  1 34  1  0
  1 35  1  0
  2 36  1  6
  3 37  1  0
  3 38  1  0
  4 39  1  0
  4 40  1  0
  5 41  1  6
  8 42  1  0
  8 43  1  0
  8 44  1  0
  9 45  1  0
  9 46  1  0
  9 47  1  0
 10 48  1  1
 11 49  1  0
 11 50  1  0
 12 51  1  0
 12 52  1  0
 14 53  1  0
 14 54  1  0
 14 55  1  0
 15 56  1  6
 16 57  1  0
 16 58  1  0
 17 59  1  0
 19 60  1  1
 20 61  1  0
 20 62  1  0
 21 63  1  0
 21 64  1  0
 22 65  1  1
 23 66  1  0
 25 67  1  0
 25 68  1  0
 25 69  1  0
 26 70  1  0
 26 71  1  0
 26 72  1  0
 28 73  1  0
 28 74  1  0
 28 75  1  0
 29 76  1  0
 29 77  1  0
 30 78  1  0
 30 79  1  0
 32 80  1  0
 32 81  1  0
 32 82  1  0
M  END
>  <meeko>  (12) 
{"is_sidechain": [false], "intermolecular_energy": 2.731, "internal_energy": -0.839}

$$$$
EPH_relaxed_0001_pdb2pqr_Repair_358_r2_0001_out
     RDKit          3D

 82 86  0  0  0  0  0  0  0  0999 V2000
   -5.2130    5.9220   -1.5890 C   0  0  0  0  0  0  0  0  0  0  0  0
   -5.4650    7.4090   -1.8540 C   0  0  2  0  0  0  0  0  0  0  0  0
   -5.1640    8.2790   -0.6180 C   0  0  0  0  0  0  0  0  0  0  0  0
   -3.6760    8.5870   -0.4300 C   0  0  0  0  0  0  0  0  0  0  0  0
   -3.4650    9.8510    0.3480 C   0  0  2  0  0  0  0  0  0  0  0  0
   -3.7500   11.0540   -0.3770 O   0  0  0  0  0  0  0  0  0  0  0  0
   -2.3830   10.8630    0.0230 C   0  0  0  0  0  0  0  0  0  0  0  0
   -1.4380   10.6550   -1.1190 C   0  0  0  0  0  0  0  0  0  0  0  0
   -1.9330   11.8010    1.0990 C   0  0  0  0  0  0  0  0  0  0  0  0
   -6.9060    7.6200   -2.3020 C   0  0  1  0  0  0  0  0  0  0  0  0
   -7.2230    6.9180   -3.6490 C   0  0  0  0  0  0  0  0  0  0  0  0
   -8.6930    6.4310   -3.5650 C   0  0  0  0  0  0  0  0  0  0  0  0
   -9.2720    7.1500   -2.3240 C   0  0  1  0  0  0  0  0  0  0  0  0
   -9.6420    8.5810   -2.8260 C   0  0  0  0  0  0  0  0  0  0  0  0
  -10.4830    6.4530   -1.6230 C   0  0  2  0  0  0  0  0  0  0  0  0
  -11.7460    6.3130   -2.4900 C   0  0  0  0  0  0  0  0  0  0  0  0
  -12.7100    7.4500   -2.4010 C   0  0  0  0  0  0  0  0  0  0  0  0
  -12.7110    8.4010   -1.4490 C   0  0  0  0  0  0  0  0  0  0  0  0
  -11.7320    8.3370   -0.2700 C   0  0  1  0  0  0  0  0  0  0  0  0
  -12.4950    8.6130    1.0520 C   0  0  0  0  0  0  0  0  0  0  0  0
  -13.2770    9.9220    1.0140 C   0  0  0  0  0  0  0  0  0  0  0  0
  -14.2810    9.9250   -0.1360 C   0  0  2  0  0  0  0  0  0  0  0  0
  -15.2860    8.9410    0.1280 O   0  0  0  0  0  0  0  0  0  0  0  0
  -13.6280    9.6470   -1.5190 C   0  0  0  0  0  0  0  0  0  0  0  0
  -12.7660   10.8630   -1.9410 C   0  0  0  0  0  0  0  0  0  0  0  0
  -14.7660    9.5360   -2.5700 C   0  0  0  0  0  0  0  0  0  0  0  0
  -10.8260    7.0340   -0.1920 C   0  0  1  0  0  0  0  0  0  0  0  0
  -11.5810    5.9070    0.5770 C   0  0  0  0  0  0  0  0  0  0  0  0
   -9.5340    7.3560    0.6490 C   0  0  0  0  0  0  0  0  0  0  0  0
   -8.3300    7.9310   -0.1210 C   0  0  0  0  0  0  0  0  0  0  0  0
   -8.0250    7.0940   -1.3670 C   0  0  2  0  0  0  0  0  0  0  0  0
   -7.6280    5.6560   -0.8920 C   0  0  0  0  0  0  0  0  0  0  0  0
   -5.1826    5.7429   -0.5041 H   0  0  0  0  0  0  0  0  0  0  0  0
   -6.0232    5.3274   -2.0363 H   0  0  0  0  0  0  0  0  0  0  0  0
   -4.2521    5.6275   -2.0363 H   0  0  0  0  0  0  0  0  0  0  0  0
   -4.7776    7.7236   -2.6531 H   0  0  0  0  0  0  0  0  0  0  0  0
   -5.7051    9.2309   -0.7232 H   0  0  0  0  0  0  0  0  0  0  0  0
   -5.4880    7.7074    0.2642 H   0  0  0  0  0  0  0  0  0  0  0  0
   -3.2049    7.7529    0.1106 H   0  0  0  0  0  0  0  0  0  0  0  0
   -3.2246    8.7173   -1.4246 H   0  0  0  0  0  0  0  0  0  0  0  0
   -3.7477    9.3492    1.2852 H   0  0  0  0  0  0  0  0  0  0  0  0
   -0.4338   10.4340   -0.7283 H   0  0  0  0  0  0  0  0  0  0  0  0
   -1.7860    9.8119   -1.7340 H   0  0  0  0  0  0  0  0  0  0  0  0
   -1.3998   11.5662   -1.7340 H   0  0  0  0  0  0  0  0  0  0  0  0
   -2.1453   11.3586    2.0835 H   0  0  0  0  0  0  0  0  0  0  0  0
   -0.8517   11.9784    1.0022 H   0  0  0  0  0  0  0  0  0  0  0  0
   -2.4713   12.7554    1.0022 H   0  0  0  0  0  0  0  0  0  0  0  0
   -6.9291    8.7192   -2.3364 H   0  0  0  0  0  0  0  0  0  0  0  0
   -7.1058    7.6266   -4.4822 H   0  0  0  0  0  0  0  0  0  0  0  0
   -6.5377    6.0761   -3.8263 H   0  0  0  0  0  0  0  0  0  0  0  0
   -9.2481    6.7136   -4.4717 H   0  0  0  0  0  0  0  0  0  0  0  0
   -8.7658    5.3364   -3.4846 H   0  0  0  0  0  0  0  0  0  0  0  0
   -9.8124    9.2400   -1.9619 H   0  0  0  0  0  0  0  0  0  0  0  0
   -8.8176    8.9805   -3.4349 H   0  0  0  0  0  0  0  0  0  0  0  0
  -10.5567    8.5309   -3.4349 H   0  0  0  0  0  0  0  0  0  0  0  0
  -10.1100    5.4295   -1.4706 H   0  0  0  0  0  0  0  0  0  0  0  0
  -11.4293    6.2173   -3.5390 H   0  0  0  0  0  0  0  0  0  0  0  0
  -12.2805    5.4303   -2.1089 H   0  0  0  0  0  0  0  0  0  0  0  0
  -13.4846    7.5157   -3.1793 H   0  0  0  0  0  0  0  0  0  0  0  0
  -10.9913    9.1311   -0.4455 H   0  0  0  0  0  0  0  0  0  0  0  0
  -13.1988    7.7870    1.2319 H   0  0  0  0  0  0  0  0  0  0  0  0
  -11.7497    8.6927    1.8571 H   0  0  0  0  0  0  0  0  0  0  0  0
  -13.8175   10.0461    1.9640 H   0  0  0  0  0  0  0  0  0  0  0  0
  -12.5685   10.7498    0.8634 H   0  0  0  0  0  0  0  0  0  0  0  0
  -14.7170   10.9334   -0.1918 H   0  0  0  0  0  0  0  0  0  0  0  0
  -15.0440    8.4870    0.9520 H   0  0  0  0  0  0  0  0  0  0  0  0
  -12.3986   11.3813   -1.0430 H   0  0  0  0  0  0  0  0  0  0  0  0
  -11.9109   10.5162   -2.5398 H   0  0  0  0  0  0  0  0  0  0  0  0
  -13.3764   11.5550   -2.5398 H   0  0  0  0  0  0  0  0  0  0  0  0
  -15.7332    9.4417   -2.0546 H   0  0  0  0  0  0  0  0  0  0  0  0
  -14.7726   10.4378   -3.1999 H   0  0  0  0  0  0  0  0  0  0  0  0
  -14.5982    8.6500   -3.1999 H   0  0  0  0  0  0  0  0  0  0  0  0
  -11.4739    6.0669    1.6600 H   0  0  0  0  0  0  0  0  0  0  0  0
  -12.6470    5.9294    0.3067 H   0  0  0  0  0  0  0  0  0  0  0  0
  -11.1547    4.9297    0.3067 H   0  0  0  0  0  0  0  0  0  0  0  0
   -9.8138    8.0862    1.4227 H   0  0  0  0  0  0  0  0  0  0  0  0
   -9.1918    6.3843    1.0347 H   0  0  0  0  0  0  0  0  0  0  0  0
   -8.5583    8.9625   -0.4275 H   0  0  0  0  0  0  0  0  0  0  0  0
   -7.4500    7.9110    0.5387 H   0  0  0  0  0  0  0  0  0  0  0  0
   -7.6188    5.6225    0.2075 H   0  0  0  0  0  0  0  0  0  0  0  0
   -8.3589    4.9285   -1.2749 H   0  0  0  0  0  0  0  0  0  0  0  0
   -6.6274    5.4066   -1.2749 H   0  0  0  0  0  0  0  0  0  0  0  0
  1  2  1  0
  2  3  1  0
  3  4  1  0
  4  5  1  0
  5  6  1  0
  6  7  1  0
  7  8  1  0
  7  9  1  0
  2 10  1  0
 10 11  1  0
 11 12  1  0
 12 13  1  0
 13 14  1  6
 13 15  1  0
 15 16  1  0
 16 17  1  0
 17 18  2  0
 18 19  1  0
 19 20  1  0
 20 21  1  0
 21 22  1  0
 22 23  1  0
 22 24  1  0
 24 25  1  0
 24 26  1  0
 19 27  1  0
 27 28  1  1
 27 29  1  0
 29 30  1  0
 30 31  1  0
 31 32  1  1
  7  5  1  0
 31 10  1  0
 31 13  1  0
 27 15  1  0
 24 18  1  0
  1 33  1  0
  1 34  1  0
  1 35  1  0
  2 36  1  6
  3 37  1  0
  3 38  1  0
  4 39  1  0
  4 40  1  0
  5 41  1  1
  8 42  1  0
  8 43  1  0
  8 44  1  0
  9 45  1  0
  9 46  1  0
  9 47  1  0
 10 48  1  6
 11 49  1  0
 11 50  1  0
 12 51  1  0
 12 52  1  0
 14 53  1  0
 14 54  1  0
 14 55  1  0
 15 56  1  1
 16 57  1  0
 16 58  1  0
 17 59  1  0
 19 60  1  6
 20 61  1  0
 20 62  1  0
 21 63  1  0
 21 64  1  0
 22 65  1  6
 23 66  1  0
 25 67  1  0
 25 68  1  0
 25 69  1  0
 26 70  1  0
 26 71  1  0
 26 72  1  0
 28 73  1  0
 28 74  1  0
 28 75  1  0
 29 76  1  0
 29 77  1  0
 30 78  1  0
 30 79  1  0
 32 80  1  0
 32 81  1  0
 32 82  1  0
M  END
>  <meeko>  (13) 
{"is_sidechain": [false], "intermolecular_energy": 2.731, "internal_energy": -0.839}

$$$$
EPH_relaxed_0001_pdb2pqr_Repair_358_r2_0001_out
     RDKit          3D

 82 86  0  0  0  0  0  0  0  0999 V2000
   -0.5280    7.7440   -2.2900 C   0  0  0  0  0  0  0  0  0  0  0  0
   -1.9040    8.1840   -1.7830 C   0  0  2  0  0  0  0  0  0  0  0  0
   -3.0380    7.7560   -2.7360 C   0  0  0  0  0  0  0  0  0  0  0  0
   -4.2180    7.0850   -2.0260 C   0  0  0  0  0  0  0  0  0  0  0  0
   -5.4270    7.0120   -2.9090 C   0  0  2  0  0  0  0  0  0  0  0  0
   -6.3680    8.0770   -2.7250 O   0  0  0  0  0  0  0  0  0  0  0  0
   -6.8290    6.7580   -2.3880 C   0  0  0  0  0  0  0  0  0  0  0  0
   -7.0950    6.5610   -0.9290 C   0  0  0  0  0  0  0  0  0  0  0  0
   -7.8570    6.2190   -3.3330 C   0  0  0  0  0  0  0  0  0  0  0  0
   -1.9280    9.6960   -1.5910 C   0  0  1  0  0  0  0  0  0  0  0  0
   -3.3010   10.2120   -1.0840 C   0  0  0  0  0  0  0  0  0  0  0  0
   -3.0090   11.4050   -0.1380 C   0  0  0  0  0  0  0  0  0  0  0  0
   -1.5210   11.7460   -0.3880 C   0  0  1  0  0  0  0  0  0  0  0  0
   -1.5220   12.6130   -1.6870 C   0  0  0  0  0  0  0  0  0  0  0  0
   -0.7690   12.4600    0.7820 C   0  0  2  0  0  0  0  0  0  0  0  0
   -1.3220   13.8440    1.1640 C   0  0  0  0  0  0  0  0  0  0  0  0
   -0.7090   14.9970    0.4410 C   0  0  0  0  0  0  0  0  0  0  0  0
    0.4360   14.9580   -0.2660 C   0  0  0  0  0  0  0  0  0  0  0  0
    1.2920   13.6860   -0.3100 C   0  0  1  0  0  0  0  0  0  0  0  0
    2.7800   14.0540   -0.0740 C   0  0  0  0  0  0  0  0  0  0  0  0
    3.2770   15.1250   -1.0400 C   0  0  0  0  0  0  0  0  0  0  0  0
    2.4380   16.3950   -0.9260 C   0  0  2  0  0  0  0  0  0  0  0  0
    2.6570   16.9780    0.3630 O   0  0  0  0  0  0  0  0  0  0  0  0
    0.9180   16.1460   -1.1350 C   0  0  0  0  0  0  0  0  0  0  0  0
    0.6470   15.8030   -2.6210 C   0  0  0  0  0  0  0  0  0  0  0  0
    0.1720   17.4780   -0.8540 C   0  0  0  0  0  0  0  0  0  0  0  0
    0.8040   12.4910    0.6180 C   0  0  1  0  0  0  0  0  0  0  0  0
    1.3980   12.6530    2.0510 C   0  0  0  0  0  0  0  0  0  0  0  0
    1.3740   11.1360    0.0520 C   0  0  0  0  0  0  0  0  0  0  0  0
    0.5260   10.4180   -1.0150 C   0  0  0  0  0  0  0  0  0  0  0  0
   -0.9340   10.2990   -0.5670 C   0  0  2  0  0  0  0  0  0  0  0  0
   -0.9670    9.4130    0.7250 C   0  0  0  0  0  0  0  0  0  0  0  0
    0.1287    7.5340   -1.4328 H   0  0  0  0  0  0  0  0  0  0  0  0
   -0.6356    6.8355   -2.9007 H   0  0  0  0  0  0  0  0  0  0  0  0
   -0.0885    8.5464   -2.9007 H   0  0  0  0  0  0  0  0  0  0  0  0
   -2.0768    7.6839   -0.8186 H   0  0  0  0  0  0  0  0  0  0  0  0
   -3.4095    8.6504   -3.2577 H   0  0  0  0  0  0  0  0  0  0  0  0
   -2.6139    7.0130   -3.4274 H   0  0  0  0  0  0  0  0  0  0  0  0
   -3.9262    6.0648   -1.7359 H   0  0  0  0  0  0  0  0  0  0  0  0
   -4.4745    7.6878   -1.1423 H   0  0  0  0  0  0  0  0  0  0  0  0
   -4.8414    6.5397   -3.7115 H   0  0  0  0  0  0  0  0  0  0  0  0
   -6.3474    7.1147   -0.3420 H   0  0  0  0  0  0  0  0  0  0  0  0
   -8.1011    6.9335   -0.6861 H   0  0  0  0  0  0  0  0  0  0  0  0
   -7.0320    5.4900   -0.6861 H   0  0  0  0  0  0  0  0  0  0  0  0
   -8.6887    5.7829   -2.7602 H   0  0  0  0  0  0  0  0  0  0  0  0
   -8.2359    7.0344   -3.9666 H   0  0  0  0  0  0  0  0  0  0  0  0
   -7.4018    5.4435   -3.9666 H   0  0  0  0  0  0  0  0  0  0  0  0
   -1.6594   10.0152   -2.6088 H   0  0  0  0  0  0  0  0  0  0  0  0
   -3.9178   10.5434   -1.9323 H   0  0  0  0  0  0  0  0  0  0  0  0
   -3.8522    9.4177   -0.5593 H   0  0  0  0  0  0  0  0  0  0  0  0
   -3.6510   12.2632   -0.3857 H   0  0  0  0  0  0  0  0  0  0  0  0
   -3.2097   11.1608    0.9156 H   0  0  0  0  0  0  0  0  0  0  0  0
   -1.5232   13.6792   -1.4162 H   0  0  0  0  0  0  0  0  0  0  0  0
   -0.6236   12.3863   -2.2798 H   0  0  0  0  0  0  0  0  0  0  0  0
   -2.4199   12.3842   -2.2798 H   0  0  0  0  0  0  0  0  0  0  0  0
   -0.9873   11.8044    1.6379 H   0  0  0  0  0  0  0  0  0  0  0  0
   -2.4021   13.8477    0.9560 H   0  0  0  0  0  0  0  0  0  0  0  0
   -1.0777   13.9866    2.2270 H   0  0  0  0  0  0  0  0  0  0  0  0
   -1.2377   15.9604    0.4900 H   0  0  0  0  0  0  0  0  0  0  0  0
    1.1672   13.2698   -1.3206 H   0  0  0  0  0  0  0  0  0  0  0  0
    2.8923   14.4272    0.9547 H   0  0  0  0  0  0  0  0  0  0  0  0
    3.3795   13.1473   -0.2429 H   0  0  0  0  0  0  0  0  0  0  0  0
    4.3248   15.3635   -0.8048 H   0  0  0  0  0  0  0  0  0  0  0  0
    3.1912   14.7388   -2.0664 H   0  0  0  0  0  0  0  0  0  0  0  0
    2.7579   17.0749   -1.7294 H   0  0  0  0  0  0  0  0  0  0  0  0
    3.4950   16.6250    0.7070 H   0  0  0  0  0  0  0  0  0  0  0  0
   -0.0340   14.9411   -2.6801 H   0  0  0  0  0  0  0  0  0  0  0  0
    0.1865   16.6689   -3.1191 H   0  0  0  0  0  0  0  0  0  0  0  0
    1.5960   15.5553   -3.1191 H   0  0  0  0  0  0  0  0  0  0  0  0
    0.0875   17.6288    0.2323 H   0  0  0  0  0  0  0  0  0  0  0  0
    0.7335   18.3134   -1.2976 H   0  0  0  0  0  0  0  0  0  0  0  0
   -0.8337   17.4357   -1.2976 H   0  0  0  0  0  0  0  0  0  0  0  0
    0.6184   12.4404    2.7973 H   0  0  0  0  0  0  0  0  0  0  0  0
    2.2336   11.9499    2.1832 H   0  0  0  0  0  0  0  0  0  0  0  0
    1.7610   13.6829    2.1832 H   0  0  0  0  0  0  0  0  0  0  0  0
    2.3577   11.3484   -0.3921 H   0  0  0  0  0  0  0  0  0  0  0  0
    1.3951   10.4507    0.9122 H   0  0  0  0  0  0  0  0  0  0  0  0
    0.5688   10.9902   -1.9535 H   0  0  0  0  0  0  0  0  0  0  0  0
    0.9311    9.4059   -1.1620 H   0  0  0  0  0  0  0  0  0  0  0  0
   -0.9429   10.0602    1.6141 H   0  0  0  0  0  0  0  0  0  0  0  0
   -1.8882    8.8118    0.7339 H   0  0  0  0  0  0  0  0  0  0  0  0
   -0.0931    8.7450    0.7339 H   0  0  0  0  0  0  0  0  0  0  0  0
  1  2  1  0
  2  3  1  0
  3  4  1  0
  4  5  1  0
  5  6  1  0
  6  7  1  0
  7  8  1  0
  7  9  1  0
  2 10  1  0
 10 11  1  0
 11 12  1  0
 12 13  1  0
 13 14  1  6
 13 15  1  0
 15 16  1  0
 16 17  1  0
 17 18  2  0
 18 19  1  0
 19 20  1  0
 20 21  1  0
 21 22  1  0
 22 23  1  0
 22 24  1  0
 24 25  1  0
 24 26  1  0
 19 27  1  0
 27 28  1  1
 27 29  1  0
 29 30  1  0
 30 31  1  0
 31 32  1  1
  7  5  1  0
 31 10  1  0
 31 13  1  0
 27 15  1  0
 24 18  1  0
  1 33  1  0
  1 34  1  0
  1 35  1  0
  2 36  1  1
  3 37  1  0
  3 38  1  0
  4 39  1  0
  4 40  1  0
  5 41  1  6
  8 42  1  0
  8 43  1  0
  8 44  1  0
  9 45  1  0
  9 46  1  0
  9 47  1  0
 10 48  1  6
 11 49  1  0
 11 50  1  0
 12 51  1  0
 12 52  1  0
 14 53  1  0
 14 54  1  0
 14 55  1  0
 15 56  1  1
 16 57  1  0
 16 58  1  0
 17 59  1  0
 19 60  1  6
 20 61  1  0
 20 62  1  0
 21 63  1  0
 21 64  1  0
 22 65  1  6
 23 66  1  0
 25 67  1  0
 25 68  1  0
 25 69  1  0
 26 70  1  0
 26 71  1  0
 26 72  1  0
 28 73  1  0
 28 74  1  0
 28 75  1  0
 29 76  1  0
 29 77  1  0
 30 78  1  0
 30 79  1  0
 32 80  1  0
 32 81  1  0
 32 82  1  0
M  END
>  <meeko>  (14) 
{"is_sidechain": [false], "intermolecular_energy": 2.731, "internal_energy": -0.839}

$$$$
EPH_relaxed_0001_pdb2pqr_Repair_358_r2_0001_out
     RDKit          3D

 82 86  0  0  0  0  0  0  0  0999 V2000
    2.8230   18.2480   -1.2290 C   0  0  0  0  0  0  0  0  0  0  0  0
    2.3580   17.1980   -2.2410 C   0  0  2  0  0  0  0  0  0  0  0  0
    0.9170   17.4550   -2.7240 C   0  0  0  0  0  0  0  0  0  0  0  0
    0.4240   18.8800   -2.4580 C   0  0  0  0  0  0  0  0  0  0  0  0
   -0.8710   18.8860   -1.7030 C   0  0  2  0  0  0  0  0  0  0  0  0
   -1.4620   20.1820   -1.5390 O   0  0  0  0  0  0  0  0  0  0  0  0
   -1.0390   19.5210   -0.3350 C   0  0  0  0  0  0  0  0  0  0  0  0
    0.1040   20.1930    0.3590 C   0  0  0  0  0  0  0  0  0  0  0  0
   -2.1710   19.0650    0.5310 C   0  0  0  0  0  0  0  0  0  0  0  0
    2.4630   15.8050   -1.6300 C   0  0  1  0  0  0  0  0  0  0  0  0
    3.3670   15.7720   -0.3700 C   0  0  0  0  0  0  0  0  0  0  0  0
    2.7490   14.7290    0.5970 C   0  0  0  0  0  0  0  0  0  0  0  0
    1.7160   13.9640   -0.2630 C   0  0  1  0  0  0  0  0  0  0  0  0
    2.5540   12.9160   -1.0600 C   0  0  0  0  0  0  0  0  0  0  0  0
    0.5350   13.2920    0.5110 C   0  0  2  0  0  0  0  0  0  0  0  0
    0.9490   12.1950    1.5070 C   0  0  0  0  0  0  0  0  0  0  0  0
    1.0000   10.8120    0.9480 C   0  0  0  0  0  0  0  0  0  0  0  0
    0.4550   10.4190   -0.2190 C   0  0  0  0  0  0  0  0  0  0  0  0
   -0.3830   11.3890   -1.0620 C   0  0  1  0  0  0  0  0  0  0  0  0
   -1.6860   10.6830   -1.5210 C   0  0  0  0  0  0  0  0  0  0  0  0
   -1.4160    9.3660   -2.2420 C   0  0  0  0  0  0  0  0  0  0  0  0
   -0.6310    8.4070   -1.3500 C   0  0  2  0  0  0  0  0  0  0  0  0
   -1.4590    8.0220   -0.2480 O   0  0  0  0  0  0  0  0  0  0  0  0
    0.6980    9.0130   -0.8190 C   0  0  0  0  0  0  0  0  0  0  0  0
    1.7090    9.1500   -1.9840 C   0  0  0  0  0  0  0  0  0  0  0  0
    1.3200    7.9980    0.1780 C   0  0  0  0  0  0  0  0  0  0  0  0
   -0.6570   12.8140   -0.4140 C   0  0  1  0  0  0  0  0  0  0  0  0
   -1.9250   12.7520    0.4910 C   0  0  0  0  0  0  0  0  0  0  0  0
   -0.9780   13.8460   -1.5590 C   0  0  0  0  0  0  0  0  0  0  0  0
    0.2230   14.5660   -2.2020 C   0  0  0  0  0  0  0  0  0  0  0  0
    1.1520   15.1470   -1.1310 C   0  0  2  0  0  0  0  0  0  0  0  0
    0.3420   16.2220   -0.3280 C   0  0  0  0  0  0  0  0  0  0  0  0
    2.6567   17.8726   -0.2085 H   0  0  0  0  0  0  0  0  0  0  0  0
    3.8944   18.4493   -1.3756 H   0  0  0  0  0  0  0  0  0  0  0  0
    2.2520   19.1767   -1.3756 H   0  0  0  0  0  0  0  0  0  0  0  0
    3.0172   17.2694   -3.1187 H   0  0  0  0  0  0  0  0  0  0  0  0
    0.8756   17.2697   -3.8075 H   0  0  0  0  0  0  0  0  0  0  0  0
    0.2620   16.7770   -2.1571 H   0  0  0  0  0  0  0  0  0  0  0  0
    1.1828   19.4157   -1.8688 H   0  0  0  0  0  0  0  0  0  0  0  0
    0.2583   19.3725   -3.4276 H   0  0  0  0  0  0  0  0  0  0  0  0
   -1.1288   17.8892   -2.0903 H   0  0  0  0  0  0  0  0  0  0  0  0
   -0.0305   20.1139    1.4479 H   0  0  0  0  0  0  0  0  0  0  0  0
    1.0465   19.7053    0.0696 H   0  0  0  0  0  0  0  0  0  0  0  0
    0.1361   21.2538    0.0696 H   0  0  0  0  0  0  0  0  0  0  0  0
   -1.8917   19.1775    1.5890 H   0  0  0  0  0  0  0  0  0  0  0  0
   -3.0623   19.6742    0.3203 H   0  0  0  0  0  0  0  0  0  0  0  0
   -2.3911   18.0080    0.3203 H   0  0  0  0  0  0  0  0  0  0  0  0
    2.8554   15.2526   -2.4966 H   0  0  0  0  0  0  0  0  0  0  0  0
    4.3895   15.4742   -0.6452 H   0  0  0  0  0  0  0  0  0  0  0  0
    3.4227   16.7639    0.1022 H   0  0  0  0  0  0  0  0  0  0  0  0
    3.5223   14.0444    0.9756 H   0  0  0  0  0  0  0  0  0  0  0  0
    2.2908   15.1987    1.4799 H   0  0  0  0  0  0  0  0  0  0  0  0
    3.0816   12.2562   -0.3556 H   0  0  0  0  0  0  0  0  0  0  0  0
    1.8840   12.3157   -1.6931 H   0  0  0  0  0  0  0  0  0  0  0  0
    3.2870   13.4375   -1.6931 H   0  0  0  0  0  0  0  0  0  0  0  0
    0.1508   14.1213    1.1230 H   0  0  0  0  0  0  0  0  0  0  0  0
    1.9497   12.4438    1.8900 H   0  0  0  0  0  0  0  0  0  0  0  0
    0.1707   12.1804    2.2842 H   0  0  0  0  0  0  0  0  0  0  0  0
    1.5275   10.0491    1.5394 H   0  0  0  0  0  0  0  0  0  0  0  0
    0.2338   11.6413   -1.9372 H   0  0  0  0  0  0  0  0  0  0  0  0
   -2.3071   10.4795   -0.6362 H   0  0  0  0  0  0  0  0  0  0  0  0
   -2.1963   11.3524   -2.2292 H   0  0  0  0  0  0  0  0  0  0  0  0
   -2.3751    8.9012   -2.5140 H   0  0  0  0  0  0  0  0  0  0  0  0
   -0.8206    9.5745   -3.1431 H   0  0  0  0  0  0  0  0  0  0  0  0
   -0.3549    7.5365   -1.9631 H   0  0  0  0  0  0  0  0  0  0  0  0
   -2.3130    8.4750   -0.3480 H   0  0  0  0  0  0  0  0  0  0  0  0
    2.7215    9.2872   -1.5766 H   0  0  0  0  0  0  0  0  0  0  0  0
    1.6824    8.2400   -2.6015 H   0  0  0  0  0  0  0  0  0  0  0  0
    1.4412   10.0201   -2.6015 H   0  0  0  0  0  0  0  0  0  0  0  0
    1.1189    8.3261    1.2085 H   0  0  0  0  0  0  0  0  0  0  0  0
    0.8751    7.0052    0.0159 H   0  0  0  0  0  0  0  0  0  0  0  0
    2.4066    7.9437    0.0159 H   0  0  0  0  0  0  0  0  0  0  0  0
   -1.6219   12.7668    1.5483 H   0  0  0  0  0  0  0  0  0  0  0  0
   -2.5677   13.6198    0.2816 H   0  0  0  0  0  0  0  0  0  0  0  0
   -2.4800   11.8256    0.2816 H   0  0  0  0  0  0  0  0  0  0  0  0
   -1.5072   13.3041   -2.3567 H   0  0  0  0  0  0  0  0  0  0  0  0
   -1.5642   14.6406   -1.0743 H   0  0  0  0  0  0  0  0  0  0  0  0
    0.7864   13.8479   -2.8159 H   0  0  0  0  0  0  0  0  0  0  0  0
   -0.1547   15.3912   -2.8237 H   0  0  0  0  0  0  0  0  0  0  0  0
    0.4723   16.0491    0.7505 H   0  0  0  0  0  0  0  0  0  0  0  0
    0.7099   17.2262   -0.5855 H   0  0  0  0  0  0  0  0  0  0  0  0
   -0.7247   16.1452   -0.5855 H   0  0  0  0  0  0  0  0  0  0  0  0
  1  2  1  0
  2  3  1  0
  3  4  1  0
  4  5  1  0
  5  6  1  0
  6  7  1  0
  7  8  1  0
  7  9  1  0
  2 10  1  0
 10 11  1  0
 11 12  1  0
 12 13  1  0
 13 14  1  6
 13 15  1  0
 15 16  1  0
 16 17  1  0
 17 18  2  0
 18 19  1  0
 19 20  1  0
 20 21  1  0
 21 22  1  0
 22 23  1  0
 22 24  1  0
 24 25  1  0
 24 26  1  0
 19 27  1  0
 27 28  1  1
 27 29  1  0
 29 30  1  0
 30 31  1  0
 31 32  1  1
  7  5  1  0
 31 10  1  0
 31 13  1  0
 27 15  1  0
 24 18  1  0
  1 33  1  0
  1 34  1  0
  1 35  1  0
  2 36  1  6
  3 37  1  0
  3 38  1  0
  4 39  1  0
  4 40  1  0
  5 41  1  1
  8 42  1  0
  8 43  1  0
  8 44  1  0
  9 45  1  0
  9 46  1  0
  9 47  1  0
 10 48  1  6
 11 49  1  0
 11 50  1  0
 12 51  1  0
 12 52  1  0
 14 53  1  0
 14 54  1  0
 14 55  1  0
 15 56  1  1
 16 57  1  0
 16 58  1  0
 17 59  1  0
 19 60  1  6
 20 61  1  0
 20 62  1  0
 21 63  1  0
 21 64  1  0
 22 65  1  6
 23 66  1  0
 25 67  1  0
 25 68  1  0
 25 69  1  0
 26 70  1  0
 26 71  1  0
 26 72  1  0
 28 73  1  0
 28 74  1  0
 28 75  1  0
 29 76  1  0
 29 77  1  0
 30 78  1  0
 30 79  1  0
 32 80  1  0
 32 81  1  0
 32 82  1  0
M  END
>  <meeko>  (15) 
{"is_sidechain": [false], "intermolecular_energy": 2.731, "internal_energy": -0.839}

$$$$
EPH_relaxed_0001_pdb2pqr_Repair_358_r2_0001_out
     RDKit          3D

 82 86  0  0  0  0  0  0  0  0999 V2000
   -0.3700   15.1820   -7.4890 C   0  0  0  0  0  0  0  0  0  0  0  0
    1.0160   15.0830   -6.8460 C   0  0  2  0  0  0  0  0  0  0  0  0
    2.1430   15.0560   -7.8980 C   0  0  0  0  0  0  0  0  0  0  0  0
    2.2840   16.3630   -8.6830 C   0  0  0  0  0  0  0  0  0  0  0  0
    1.8530   16.2020  -10.1090 C   0  0  2  0  0  0  0  0  0  0  0  0
    1.2040   14.9580  -10.4020 O   0  0  0  0  0  0  0  0  0  0  0  0
    2.4620   15.1870  -11.0580 C   0  0  0  0  0  0  0  0  0  0  0  0
    3.5550   14.2650  -10.6170 C   0  0  0  0  0  0  0  0  0  0  0  0
    2.3390   15.4210  -12.5310 C   0  0  0  0  0  0  0  0  0  0  0  0
    1.0940   13.8410   -5.9670 C   0  0  1  0  0  0  0  0  0  0  0  0
    2.4560   13.1060   -6.0900 C   0  0  0  0  0  0  0  0  0  0  0  0
    2.7790   12.5260   -4.6890 C   0  0  0  0  0  0  0  0  0  0  0  0
    1.4560   12.6550   -3.8990 C   0  0  1  0  0  0  0  0  0  0  0  0
    0.5990   11.4290   -4.3480 C   0  0  0  0  0  0  0  0  0  0  0  0
    1.5850   12.7290   -2.3420 C   0  0  2  0  0  0  0  0  0  0  0  0
    2.1970   11.4840   -1.6780 C   0  0  0  0  0  0  0  0  0  0  0  0
    1.2180   10.4350   -1.2650 C   0  0  0  0  0  0  0  0  0  0  0  0
   -0.1130   10.6050   -1.1600 C   0  0  0  0  0  0  0  0  0  0  0  0
   -0.7500   11.9840   -1.3760 C   0  0  1  0  0  0  0  0  0  0  0  0
   -1.7670   12.2680   -0.2390 C   0  0  0  0  0  0  0  0  0  0  0  0
   -2.8070   11.1610   -0.0950 C   0  0  0  0  0  0  0  0  0  0  0  0
   -2.1380    9.8160    0.1770 C   0  0  2  0  0  0  0  0  0  0  0  0
   -1.5160    9.8630    1.4650 O   0  0  0  0  0  0  0  0  0  0  0  0
   -1.0840    9.4280   -0.8980 C   0  0  0  0  0  0  0  0  0  0  0  0
   -1.8000    9.0840   -2.2280 C   0  0  0  0  0  0  0  0  0  0  0  0
   -0.3850    8.1230   -0.4320 C   0  0  0  0  0  0  0  0  0  0  0  0
    0.2630   13.1880   -1.6030 C   0  0  1  0  0  0  0  0  0  0  0  0
    0.7030   13.7800   -0.2300 C   0  0  0  0  0  0  0  0  0  0  0  0
   -0.4800   14.3460   -2.3690 C   0  0  0  0  0  0  0  0  0  0  0  0
   -0.4700   14.2800   -3.9080 C   0  0  0  0  0  0  0  0  0  0  0  0
    0.9470   14.0410   -4.4380 C   0  0  2  0  0  0  0  0  0  0  0  0
    1.8270   15.2690   -4.0200 C   0  0  0  0  0  0  0  0  0  0  0  0
   -1.1363   15.2367   -6.7018 H   0  0  0  0  0  0  0  0  0  0  0  0
   -0.4207   16.0861   -8.1136 H   0  0  0  0  0  0  0  0  0  0  0  0
   -0.5487   14.2943   -8.1136 H   0  0  0  0  0  0  0  0  0  0  0  0
    1.1603   15.9831   -6.2304 H   0  0  0  0  0  0  0  0  0  0  0  0
    3.0941   14.8560   -7.3829 H   0  0  0  0  0  0  0  0  0  0  0  0
    1.8858   14.2710   -8.6244 H   0  0  0  0  0  0  0  0  0  0  0  0
    1.6603   17.1339   -8.2069 H   0  0  0  0  0  0  0  0  0  0  0  0
    3.3446   16.6546   -8.6761 H   0  0  0  0  0  0  0  0  0  0  0  0
    1.6742   17.2835  -10.2011 H   0  0  0  0  0  0  0  0  0  0  0  0
    3.5892   14.2362   -9.5179 H   0  0  0  0  0  0  0  0  0  0  0  0
    3.3605   13.2540  -11.0045 H   0  0  0  0  0  0  0  0  0  0  0  0
    4.5187   14.6271  -11.0045 H   0  0  0  0  0  0  0  0  0  0  0  0
    1.8339   16.3819  -12.7087 H   0  0  0  0  0  0  0  0  0  0  0  0
    3.3413   15.4444  -12.9835 H   0  0  0  0  0  0  0  0  0  0  0  0
    1.7513   14.6087  -12.9835 H   0  0  0  0  0  0  0  0  0  0  0  0
    0.2296   13.2843   -6.3582 H   0  0  0  0  0  0  0  0  0  0  0  0
    2.3830   12.2941   -6.8285 H   0  0  0  0  0  0  0  0  0  0  0  0
    3.2469   13.7931   -6.4251 H   0  0  0  0  0  0  0  0  0  0  0  0
    3.0841   11.4720   -4.7660 H   0  0  0  0  0  0  0  0  0  0  0  0
    3.6102   13.0551   -4.2000 H   0  0  0  0  0  0  0  0  0  0  0  0
    0.2270   10.8968   -3.4601 H   0  0  0  0  0  0  0  0  0  0  0  0
   -0.2529   11.7779   -4.9501 H   0  0  0  0  0  0  0  0  0  0  0  0
    1.2193   10.7488   -4.9501 H   0  0  0  0  0  0  0  0  0  0  0  0
    2.3228   13.5333   -2.2047 H   0  0  0  0  0  0  0  0  0  0  0  0
    2.9010   11.0300   -2.3909 H   0  0  0  0  0  0  0  0  0  0  0  0
    2.6740   11.8367   -0.7516 H   0  0  0  0  0  0  0  0  0  0  0  0
    1.6186    9.4387   -1.0263 H   0  0  0  0  0  0  0  0  0  0  0  0
   -1.2744   11.9291   -2.3414 H   0  0  0  0  0  0  0  0  0  0  0  0
   -1.2183   12.3620    0.7097 H   0  0  0  0  0  0  0  0  0  0  0  0
   -2.3001   13.1964   -0.4917 H   0  0  0  0  0  0  0  0  0  0  0  0
   -3.4787   11.4047    0.7413 H   0  0  0  0  0  0  0  0  0  0  0  0
   -3.3740   11.0875   -1.0348 H   0  0  0  0  0  0  0  0  0  0  0  0
   -2.9212    9.0444    0.1417 H   0  0  0  0  0  0  0  0  0  0  0  0
   -1.3820   10.7980    1.6930 H   0  0  0  0  0  0  0  0  0  0  0  0
   -2.7720    8.6170   -2.0110 H   0  0  0  0  0  0  0  0  0  0  0  0
   -1.9571   10.0049   -2.8087 H   0  0  0  0  0  0  0  0  0  0  0  0
   -1.1792    8.3858   -2.8087 H   0  0  0  0  0  0  0  0  0  0  0  0
   -0.3669    8.0892    0.6673 H   0  0  0  0  0  0  0  0  0  0  0  0
   -0.9381    7.2534   -0.8165 H   0  0  0  0  0  0  0  0  0  0  0  0
    0.6454    8.1015   -0.8165 H   0  0  0  0  0  0  0  0  0  0  0  0
    0.2615   13.1860    0.5838 H   0  0  0  0  0  0  0  0  0  0  0  0
    1.7999   13.7501   -0.1524 H   0  0  0  0  0  0  0  0  0  0  0  0
    0.3582   14.8217   -0.1524 H   0  0  0  0  0  0  0  0  0  0  0  0
   -1.5305   14.3402   -2.0426 H   0  0  0  0  0  0  0  0  0  0  0  0
    0.0765   15.2607   -2.1169 H   0  0  0  0  0  0  0  0  0  0  0  0
   -1.1208   13.4564   -4.2370 H   0  0  0  0  0  0  0  0  0  0  0  0
   -0.8343   15.2401   -4.3023 H   0  0  0  0  0  0  0  0  0  0  0  0
    1.8718   15.3315   -2.9227 H   0  0  0  0  0  0  0  0  0  0  0  0
    2.8434   15.1455   -4.4220 H   0  0  0  0  0  0  0  0  0  0  0  0
    1.3833   16.1918   -4.4220 H   0  0  0  0  0  0  0  0  0  0  0  0
  1  2  1  0
  2  3  1  0
  3  4  1  0
  4  5  1  0
  5  6  1  0
  6  7  1  0
  7  8  1  0
  7  9  1  0
  2 10  1  0
 10 11  1  0
 11 12  1  0
 12 13  1  0
 13 14  1  1
 13 15  1  0
 15 16  1  0
 16 17  1  0
 17 18  2  0
 18 19  1  0
 19 20  1  0
 20 21  1  0
 21 22  1  0
 22 23  1  0
 22 24  1  0
 24 25  1  0
 24 26  1  0
 19 27  1  0
 27 28  1  1
 27 29  1  0
 29 30  1  0
 30 31  1  0
 31 32  1  1
  7  5  1  0
 31 10  1  0
 31 13  1  0
 27 15  1  0
 24 18  1  0
  1 33  1  0
  1 34  1  0
  1 35  1  0
  2 36  1  1
  3 37  1  0
  3 38  1  0
  4 39  1  0
  4 40  1  0
  5 41  1  6
  8 42  1  0
  8 43  1  0
  8 44  1  0
  9 45  1  0
  9 46  1  0
  9 47  1  0
 10 48  1  6
 11 49  1  0
 11 50  1  0
 12 51  1  0
 12 52  1  0
 14 53  1  0
 14 54  1  0
 14 55  1  0
 15 56  1  6
 16 57  1  0
 16 58  1  0
 17 59  1  0
 19 60  1  6
 20 61  1  0
 20 62  1  0
 21 63  1  0
 21 64  1  0
 22 65  1  1
 23 66  1  0
 25 67  1  0
 25 68  1  0
 25 69  1  0
 26 70  1  0
 26 71  1  0
 26 72  1  0
 28 73  1  0
 28 74  1  0
 28 75  1  0
 29 76  1  0
 29 77  1  0
 30 78  1  0
 30 79  1  0
 32 80  1  0
 32 81  1  0
 32 82  1  0
M  END
>  <meeko>  (16) 
{"is_sidechain": [false], "intermolecular_energy": 2.731, "internal_energy": -0.839}

$$$$
EPH_relaxed_0001_pdb2pqr_Repair_358_r2_0001_out
     RDKit          3D

 82 86  0  0  0  0  0  0  0  0999 V2000
   -3.6730   10.4430    2.3160 C   0  0  0  0  0  0  0  0  0  0  0  0
   -4.1040   10.1040    0.8870 C   0  0  2  0  0  0  0  0  0  0  0  0
   -4.0160    8.5920    0.5970 C   0  0  0  0  0  0  0  0  0  0  0  0
   -4.2260    8.2350   -0.8770 C   0  0  0  0  0  0  0  0  0  0  0  0
   -5.5880    7.6590   -1.1200 C   0  0  2  0  0  0  0  0  0  0  0  0
   -5.6440    6.2270   -1.1050 O   0  0  0  0  0  0  0  0  0  0  0  0
   -5.9510    6.8600   -2.3580 C   0  0  0  0  0  0  0  0  0  0  0  0
   -4.9480    6.5950   -3.4360 C   0  0  0  0  0  0  0  0  0  0  0  0
   -7.3930    6.7590   -2.7470 C   0  0  0  0  0  0  0  0  0  0  0  0
   -3.2490   10.8760   -0.1110 C   0  0  1  0  0  0  0  0  0  0  0  0
   -3.7460   12.3310   -0.3240 C   0  0  0  0  0  0  0  0  0  0  0  0
   -2.4860   13.2060   -0.5490 C   0  0  0  0  0  0  0  0  0  0  0  0
   -1.3440   12.1910   -0.7880 C   0  0  1  0  0  0  0  0  0  0  0  0
   -1.4800   11.7800   -2.2880 C   0  0  0  0  0  0  0  0  0  0  0  0
    0.1010   12.6860   -0.4540 C   0  0  2  0  0  0  0  0  0  0  0  0
    0.5930   13.8770   -1.2950 C   0  0  0  0  0  0  0  0  0  0  0  0
    1.3100   13.5160   -2.5540 C   0  0  0  0  0  0  0  0  0  0  0  0
    1.8000   12.2990   -2.8530 C   0  0  0  0  0  0  0  0  0  0  0  0
    1.7390   11.1530   -1.8350 C   0  0  1  0  0  0  0  0  0  0  0  0
    3.1160   10.4410   -1.7730 C   0  0  0  0  0  0  0  0  0  0  0  0
    3.5970    9.9780   -3.1450 C   0  0  0  0  0  0  0  0  0  0  0  0
    3.7010   11.1540   -4.1130 C   0  0  2  0  0  0  0  0  0  0  0  0
    4.7450   12.0260   -3.6680 O   0  0  0  0  0  0  0  0  0  0  0  0
    2.3750   11.9540   -4.2490 C   0  0  0  0  0  0  0  0  0  0  0  0
    1.3280   11.1000   -5.0080 C   0  0  0  0  0  0  0  0  0  0  0  0
    2.6540   13.1930   -5.1420 C   0  0  0  0  0  0  0  0  0  0  0  0
    1.1840   11.5340   -0.3950 C   0  0  1  0  0  0  0  0  0  0  0  0
    2.3460   12.0600    0.5010 C   0  0  0  0  0  0  0  0  0  0  0  0
    0.6360   10.2340    0.3050 C   0  0  0  0  0  0  0  0  0  0  0  0
   -0.8340    9.8630    0.0300 C   0  0  0  0  0  0  0  0  0  0  0  0
   -1.7520   11.0720    0.2380 C   0  0  2  0  0  0  0  0  0  0  0  0
   -1.6530   11.4950    1.7430 C   0  0  0  0  0  0  0  0  0  0  0  0
   -4.3308    9.9256    3.0299 H   0  0  0  0  0  0  0  0  0  0  0  0
   -2.6340   10.1176    2.4726 H   0  0  0  0  0  0  0  0  0  0  0  0
   -3.7445   11.5295    2.4726 H   0  0  0  0  0  0  0  0  0  0  0  0
   -5.1581   10.3999    0.7806 H   0  0  0  0  0  0  0  0  0  0  0  0
   -3.0204    8.2373    0.9018 H   0  0  0  0  0  0  0  0  0  0  0  0
   -4.8254    8.1083    1.1635 H   0  0  0  0  0  0  0  0  0  0  0  0
   -4.1105    9.1451   -1.4840 H   0  0  0  0  0  0  0  0  0  0  0  0
   -3.4789    7.4773   -1.1558 H   0  0  0  0  0  0  0  0  0  0  0  0
   -6.0650    8.5225   -0.6334 H   0  0  0  0  0  0  0  0  0  0  0  0
   -3.9797    6.3392   -2.9811 H   0  0  0  0  0  0  0  0  0  0  0  0
   -5.2928    5.7571   -4.0598 H   0  0  0  0  0  0  0  0  0  0  0  0
   -4.8340    7.4938   -4.0598 H   0  0  0  0  0  0  0  0  0  0  0  0
   -8.0150    6.7154   -1.8408 H   0  0  0  0  0  0  0  0  0  0  0  0
   -7.6745    7.6396   -3.3430 H   0  0  0  0  0  0  0  0  0  0  0  0
   -7.5490    5.8477   -3.3430 H   0  0  0  0  0  0  0  0  0  0  0  0
   -3.3492   10.2186   -0.9872 H   0  0  0  0  0  0  0  0  0  0  0  0
   -4.4042   12.3814   -1.2039 H   0  0  0  0  0  0  0  0  0  0  0  0
   -4.3211   12.6830    0.5451 H   0  0  0  0  0  0  0  0  0  0  0  0
   -2.6168   13.8570   -1.4260 H   0  0  0  0  0  0  0  0  0  0  0  0
   -2.2819   13.8706    0.3035 H   0  0  0  0  0  0  0  0  0  0  0  0
   -1.8250   10.7375   -2.3527 H   0  0  0  0  0  0  0  0  0  0  0  0
   -2.2081   12.4386   -2.7841 H   0  0  0  0  0  0  0  0  0  0  0  0
   -0.5028   11.8743   -2.7841 H   0  0  0  0  0  0  0  0  0  0  0  0
   -0.0124   13.0697    0.5707 H   0  0  0  0  0  0  0  0  0  0  0  0
   -0.2818   14.4868   -1.5650 H   0  0  0  0  0  0  0  0  0  0  0  0
    1.3251   14.4091   -0.6698 H   0  0  0  0  0  0  0  0  0  0  0  0
    1.4494   14.3122   -3.3001 H   0  0  0  0  0  0  0  0  0  0  0  0
    0.9747   10.4554   -2.2081 H   0  0  0  0  0  0  0  0  0  0  0  0
    3.8563   11.1404   -1.3572 H   0  0  0  0  0  0  0  0  0  0  0  0
    3.0025    9.5485   -1.1401 H   0  0  0  0  0  0  0  0  0  0  0  0
    4.5868    9.5096   -3.0401 H   0  0  0  0  0  0  0  0  0  0  0  0
    2.8702    9.2565   -3.5464 H   0  0  0  0  0  0  0  0  0  0  0  0
    3.9235   10.7433   -5.1089 H   0  0  0  0  0  0  0  0  0  0  0  0
    4.5810   12.9030   -4.0560 H   0  0  0  0  0  0  0  0  0  0  0  0
    0.6867   10.5769   -4.2834 H   0  0  0  0  0  0  0  0  0  0  0  0
    0.7094   11.7544   -5.6397 H   0  0  0  0  0  0  0  0  0  0  0  0
    1.8448   10.3625   -5.6397 H   0  0  0  0  0  0  0  0  0  0  0  0
    2.8509   14.0676   -4.5045 H   0  0  0  0  0  0  0  0  0  0  0  0
    3.5306   12.9973   -5.7771 H   0  0  0  0  0  0  0  0  0  0  0  0
    1.7782   13.3919   -5.7771 H   0  0  0  0  0  0  0  0  0  0  0  0
    2.0762   11.9379    1.5604 H   0  0  0  0  0  0  0  0  0  0  0  0
    3.2613   11.4884    0.2874 H   0  0  0  0  0  0  0  0  0  0  0  0
    2.5205   13.1249    0.2874 H   0  0  0  0  0  0  0  0  0  0  0  0
    1.2595    9.3902   -0.0256 H   0  0  0  0  0  0  0  0  0  0  0  0
    0.6819   10.4470    1.3832 H   0  0  0  0  0  0  0  0  0  0  0  0
   -0.9288    9.5135   -1.0087 H   0  0  0  0  0  0  0  0  0  0  0  0
   -1.1332    9.0702    0.7314 H   0  0  0  0  0  0  0  0  0  0  0  0
   -1.8569   10.6238    2.3829 H   0  0  0  0  0  0  0  0  0  0  0  0
   -0.6418   11.8744    1.9515 H   0  0  0  0  0  0  0  0  0  0  0  0
   -2.3908   12.2838    1.9515 H   0  0  0  0  0  0  0  0  0  0  0  0
  1  2  1  0
  2  3  1  0
  3  4  1  0
  4  5  1  0
  5  6  1  0
  6  7  1  0
  7  8  1  0
  7  9  1  0
  2 10  1  0
 10 11  1  0
 11 12  1  0
 12 13  1  0
 13 14  1  6
 13 15  1  0
 15 16  1  0
 16 17  1  0
 17 18  2  0
 18 19  1  0
 19 20  1  0
 20 21  1  0
 21 22  1  0
 22 23  1  0
 22 24  1  0
 24 25  1  0
 24 26  1  0
 19 27  1  0
 27 28  1  1
 27 29  1  0
 29 30  1  0
 30 31  1  0
 31 32  1  1
  7  5  1  0
 31 10  1  0
 31 13  1  0
 27 15  1  0
 24 18  1  0
  1 33  1  0
  1 34  1  0
  1 35  1  0
  2 36  1  1
  3 37  1  0
  3 38  1  0
  4 39  1  0
  4 40  1  0
  5 41  1  1
  8 42  1  0
  8 43  1  0
  8 44  1  0
  9 45  1  0
  9 46  1  0
  9 47  1  0
 10 48  1  6
 11 49  1  0
 11 50  1  0
 12 51  1  0
 12 52  1  0
 14 53  1  0
 14 54  1  0
 14 55  1  0
 15 56  1  1
 16 57  1  0
 16 58  1  0
 17 59  1  0
 19 60  1  6
 20 61  1  0
 20 62  1  0
 21 63  1  0
 21 64  1  0
 22 65  1  6
 23 66  1  0
 25 67  1  0
 25 68  1  0
 25 69  1  0
 26 70  1  0
 26 71  1  0
 26 72  1  0
 28 73  1  0
 28 74  1  0
 28 75  1  0
 29 76  1  0
 29 77  1  0
 30 78  1  0
 30 79  1  0
 32 80  1  0
 32 81  1  0
 32 82  1  0
M  END
>  <meeko>  (17) 
{"is_sidechain": [false], "intermolecular_energy": 2.731, "internal_energy": -0.839}

$$$$
EPH_relaxed_0001_pdb2pqr_Repair_358_r2_0001_out
     RDKit          3D

 82 86  0  0  0  0  0  0  0  0999 V2000
    3.7160   12.3880   -5.4800 C   0  0  0  0  0  0  0  0  0  0  0  0
    2.1900   12.5040   -5.5070 C   0  0  2  0  0  0  0  0  0  0  0  0
    1.7120   13.9460   -5.2400 C   0  0  0  0  0  0  0  0  0  0  0  0
    0.8890   14.5430   -6.3840 C   0  0  0  0  0  0  0  0  0  0  0  0
    1.7380   14.8380   -7.5840 C   0  0  2  0  0  0  0  0  0  0  0  0
    2.1050   16.2160   -7.7330 O   0  0  0  0  0  0  0  0  0  0  0  0
    1.2630   15.6690   -8.7610 C   0  0  0  0  0  0  0  0  0  0  0  0
   -0.1130   16.2560   -8.7970 C   0  0  0  0  0  0  0  0  0  0  0  0
    1.9530   15.5010  -10.0790 C   0  0  0  0  0  0  0  0  0  0  0  0
    1.5770   11.5560   -4.4830 C   0  0  1  0  0  0  0  0  0  0  0  0
    2.5850   10.4860   -3.9820 C   0  0  0  0  0  0  0  0  0  0  0  0
    2.2550   10.2240   -2.4900 C   0  0  0  0  0  0  0  0  0  0  0  0
    0.8770   10.8930   -2.2730 C   0  0  1  0  0  0  0  0  0  0  0  0
   -0.1600    9.8590   -2.8140 C   0  0  0  0  0  0  0  0  0  0  0  0
    0.5450   11.3310   -0.8090 C   0  0  2  0  0  0  0  0  0  0  0  0
    0.4740   10.1850    0.2150 C   0  0  0  0  0  0  0  0  0  0  0  0
   -0.8750    9.5700    0.3920 C   0  0  0  0  0  0  0  0  0  0  0  0
   -2.0380   10.1020   -0.0280 C   0  0  0  0  0  0  0  0  0  0  0  0
   -2.0810   11.4950   -0.6700 C   0  0  1  0  0  0  0  0  0  0  0  0
   -3.2390   12.3170   -0.0460 C   0  0  0  0  0  0  0  0  0  0  0  0
   -4.5800   11.5950   -0.1290 C   0  0  0  0  0  0  0  0  0  0  0  0
   -4.5140   10.2400    0.5710 C   0  0  2  0  0  0  0  0  0  0  0  0
   -4.3350   10.4540    1.9750 O   0  0  0  0  0  0  0  0  0  0  0  0
   -3.3770    9.3270    0.0320 C   0  0  0  0  0  0  0  0  0  0  0  0
   -3.7280    8.8490   -1.3980 C   0  0  0  0  0  0  0  0  0  0  0  0
   -3.3300    8.0520    0.9160 C   0  0  0  0  0  0  0  0  0  0  0  0
   -0.7070   12.2920   -0.6890 C   0  0  1  0  0  0  0  0  0  0  0  0
   -0.5330   13.0840    0.6440 C   0  0  0  0  0  0  0  0  0  0  0  0
   -0.7500   13.3650   -1.8400 C   0  0  0  0  0  0  0  0  0  0  0  0
   -0.2970   12.9030   -3.2380 C   0  0  0  0  0  0  0  0  0  0  0  0
    1.0500   12.1760   -3.1650 C   0  0  2  0  0  0  0  0  0  0  0  0
    2.1180   13.1970   -2.6450 C   0  0  0  0  0  0  0  0  0  0  0  0
    4.0633   12.3616   -4.4366 H   0  0  0  0  0  0  0  0  0  0  0  0
    4.0226   11.4640   -5.9920 H   0  0  0  0  0  0  0  0  0  0  0  0
    4.1588   13.2551   -5.9920 H   0  0  0  0  0  0  0  0  0  0  0  0
    1.8562   12.2262   -6.5176 H   0  0  0  0  0  0  0  0  0  0  0  0
    1.0927   13.9439   -4.3309 H   0  0  0  0  0  0  0  0  0  0  0  0
    2.6125   14.5686   -5.1328 H   0  0  0  0  0  0  0  0  0  0  0  0
    0.1045   13.8270   -6.6699 H   0  0  0  0  0  0  0  0  0  0  0  0
    0.4510   15.4892   -6.0334 H   0  0  0  0  0  0  0  0  0  0  0  0
    2.2094   13.8459   -7.5240 H   0  0  0  0  0  0  0  0  0  0  0  0
   -0.4731   16.4096   -7.7690 H   0  0  0  0  0  0  0  0  0  0  0  0
   -0.0863   17.2211   -9.3242 H   0  0  0  0  0  0  0  0  0  0  0  0
   -0.7911   15.5688   -9.3242 H   0  0  0  0  0  0  0  0  0  0  0  0
    3.0091   15.2439   -9.9099 H   0  0  0  0  0  0  0  0  0  0  0  0
    1.4660   14.6952  -10.6478 H   0  0  0  0  0  0  0  0  0  0  0  0
    1.8909   16.4405  -10.6478 H   0  0  0  0  0  0  0  0  0  0  0  0
    0.7377   11.1626   -5.0752 H   0  0  0  0  0  0  0  0  0  0  0  0
    2.4731    9.5588   -4.5631 H   0  0  0  0  0  0  0  0  0  0  0  0
    3.6218   10.8335   -4.1019 H   0  0  0  0  0  0  0  0  0  0  0  0
    2.1987    9.1441   -2.2884 H   0  0  0  0  0  0  0  0  0  0  0  0
    3.0252   10.6258   -1.8152 H   0  0  0  0  0  0  0  0  0  0  0  0
   -0.6581    9.3624   -1.9682 H   0  0  0  0  0  0  0  0  0  0  0  0
   -0.9105   10.3790   -3.4275 H   0  0  0  0  0  0  0  0  0  0  0  0
    0.3579    9.1070   -3.4275 H   0  0  0  0  0  0  0  0  0  0  0  0
    1.4301   11.9229   -0.5330 H   0  0  0  0  0  0  0  0  0  0  0  0
    1.1674    9.3954   -0.1101 H   0  0  0  0  0  0  0  0  0  0  0  0
    0.7358   10.6289    1.1868 H   0  0  0  0  0  0  0  0  0  0  0  0
   -0.9225    8.6004    0.9093 H   0  0  0  0  0  0  0  0  0  0  0  0
   -2.2748   11.3311   -1.7403 H   0  0  0  0  0  0  0  0  0  0  0  0
   -3.0060   12.5074    1.0120 H   0  0  0  0  0  0  0  0  0  0  0  0
   -3.3283   13.2536   -0.6159 H   0  0  0  0  0  0  0  0  0  0  0  0
   -5.3518   12.2124    0.3538 H   0  0  0  0  0  0  0  0  0  0  0  0
   -4.8258   11.4313   -1.1886 H   0  0  0  0  0  0  0  0  0  0  0  0
   -5.4598    9.7168    0.3668 H   0  0  0  0  0  0  0  0  0  0  0  0
   -3.7290   11.2070    2.0820 H   0  0  0  0  0  0  0  0  0  0  0  0
   -4.3781    7.9636   -1.3394 H   0  0  0  0  0  0  0  0  0  0  0  0
   -4.2516    9.6535   -1.9353 H   0  0  0  0  0  0  0  0  0  0  0  0
   -2.8037    8.5903   -1.9353 H   0  0  0  0  0  0  0  0  0  0  0  0
   -3.3407    8.3411    1.9773 H   0  0  0  0  0  0  0  0  0  0  0  0
   -4.2056    7.4226    0.6986 H   0  0  0  0  0  0  0  0  0  0  0  0
   -2.4105    7.4888    0.6986 H   0  0  0  0  0  0  0  0  0  0  0  0
   -0.6822   12.4047    1.4962 H   0  0  0  0  0  0  0  0  0  0  0  0
    0.4802   13.5101    0.6878 H   0  0  0  0  0  0  0  0  0  0  0  0
   -1.2743   13.8955    0.6878 H   0  0  0  0  0  0  0  0  0  0  0  0
   -1.7880   13.7186   -1.9266 H   0  0  0  0  0  0  0  0  0  0  0  0
   -0.0236   14.1355   -1.5423 H   0  0  0  0  0  0  0  0  0  0  0  0
   -1.0525   12.2201   -3.6538 H   0  0  0  0  0  0  0  0  0  0  0  0
   -0.1835   13.7885   -3.8806 H   0  0  0  0  0  0  0  0  0  0  0  0
    2.1191   13.1981   -1.5450 H   0  0  0  0  0  0  0  0  0  0  0  0
    3.1131   12.9058   -3.0124 H   0  0  0  0  0  0  0  0  0  0  0  0
    1.8718   14.2042   -3.0124 H   0  0  0  0  0  0  0  0  0  0  0  0
  1  2  1  0
  2  3  1  0
  3  4  1  0
  4  5  1  0
  5  6  1  0
  6  7  1  0
  7  8  1  0
  7  9  1  0
  2 10  1  0
 10 11  1  0
 11 12  1  0
 12 13  1  0
 13 14  1  6
 13 15  1  0
 15 16  1  0
 16 17  1  0
 17 18  2  0
 18 19  1  0
 19 20  1  0
 20 21  1  0
 21 22  1  0
 22 23  1  0
 22 24  1  0
 24 25  1  0
 24 26  1  0
 19 27  1  0
 27 28  1  1
 27 29  1  0
 29 30  1  0
 30 31  1  0
 31 32  1  1
  7  5  1  0
 31 10  1  0
 31 13  1  0
 27 15  1  0
 24 18  1  0
  1 33  1  0
  1 34  1  0
  1 35  1  0
  2 36  1  6
  3 37  1  0
  3 38  1  0
  4 39  1  0
  4 40  1  0
  5 41  1  6
  8 42  1  0
  8 43  1  0
  8 44  1  0
  9 45  1  0
  9 46  1  0
  9 47  1  0
 10 48  1  6
 11 49  1  0
 11 50  1  0
 12 51  1  0
 12 52  1  0
 14 53  1  0
 14 54  1  0
 14 55  1  0
 15 56  1  1
 16 57  1  0
 16 58  1  0
 17 59  1  0
 19 60  1  6
 20 61  1  0
 20 62  1  0
 21 63  1  0
 21 64  1  0
 22 65  1  1
 23 66  1  0
 25 67  1  0
 25 68  1  0
 25 69  1  0
 26 70  1  0
 26 71  1  0
 26 72  1  0
 28 73  1  0
 28 74  1  0
 28 75  1  0
 29 76  1  0
 29 77  1  0
 30 78  1  0
 30 79  1  0
 32 80  1  0
 32 81  1  0
 32 82  1  0
M  END
>  <meeko>  (18) 
{"is_sidechain": [false], "intermolecular_energy": 2.731, "internal_energy": -0.839}

$$$$
EPH_relaxed_0001_pdb2pqr_Repair_358_r2_0001_out
     RDKit          3D

 82 86  0  0  0  0  0  0  0  0999 V2000
    1.8550   13.0540   -5.7320 C   0  0  0  0  0  0  0  0  0  0  0  0
    2.8360   12.2550   -4.8700 C   0  0  2  0  0  0  0  0  0  0  0  0
    3.7870   11.3910   -5.7210 C   0  0  0  0  0  0  0  0  0  0  0  0
    5.2310   11.9010   -5.7410 C   0  0  0  0  0  0  0  0  0  0  0  0
    6.1810   10.8970   -5.1610 C   0  0  2  0  0  0  0  0  0  0  0  0
    5.6970   10.2180   -3.9960 O   0  0  0  0  0  0  0  0  0  0  0  0
    6.8460   11.0600   -3.8070 C   0  0  0  0  0  0  0  0  0  0  0  0
    6.5870   12.2600   -2.9500 C   0  0  0  0  0  0  0  0  0  0  0  0
    8.1090   10.3040   -3.5340 C   0  0  0  0  0  0  0  0  0  0  0  0
    2.0690   11.3750   -3.8890 C   0  0  1  0  0  0  0  0  0  0  0  0
    2.9770   10.3270   -3.1910 C   0  0  0  0  0  0  0  0  0  0  0  0
    2.4360   10.1580   -1.7480 C   0  0  0  0  0  0  0  0  0  0  0  0
    1.0540   10.8520   -1.7660 C   0  0  1  0  0  0  0  0  0  0  0  0
    0.0840    9.7980   -2.3870 C   0  0  0  0  0  0  0  0  0  0  0  0
    0.5280   11.3800   -0.3910 C   0  0  2  0  0  0  0  0  0  0  0  0
    0.2940   10.2970    0.6770 C   0  0  0  0  0  0  0  0  0  0  0  0
   -1.0780    9.7080    0.6970 C   0  0  0  0  0  0  0  0  0  0  0  0
   -2.1610   10.2250    0.0880 C   0  0  0  0  0  0  0  0  0  0  0  0
   -2.0880   11.5780   -0.6330 C   0  0  1  0  0  0  0  0  0  0  0  0
   -3.3060   12.4470   -0.2270 C   0  0  0  0  0  0  0  0  0  0  0  0
   -4.6360   11.7350   -0.4560 C   0  0  0  0  0  0  0  0  0  0  0  0
   -4.6930   10.4230    0.3230 C   0  0  2  0  0  0  0  0  0  0  0  0
   -4.7080   10.7190    1.7230 O   0  0  0  0  0  0  0  0  0  0  0  0
   -3.5090    9.4690    0.0030 C   0  0  0  0  0  0  0  0  0  0  0  0
   -3.6640    8.9100   -1.4330 C   0  0  0  0  0  0  0  0  0  0  0  0
   -3.6090    8.2480    0.9570 C   0  0  0  0  0  0  0  0  0  0  0  0
   -0.7100   12.3590   -0.5030 C   0  0  1  0  0  0  0  0  0  0  0  0
   -0.7100   13.2270    0.7920 C   0  0  0  0  0  0  0  0  0  0  0  0
   -0.5720   13.3620   -1.7090 C   0  0  0  0  0  0  0  0  0  0  0  0
    0.0640   12.8130   -3.0000 C   0  0  0  0  0  0  0  0  0  0  0  0
    1.3740   12.0770   -2.6970 C   0  0  2  0  0  0  0  0  0  0  0  0
    2.3770   13.1170   -2.0910 C   0  0  0  0  0  0  0  0  0  0  0  0
    1.1673   13.6141   -5.0814 H   0  0  0  0  0  0  0  0  0  0  0  0
    2.4136   13.7574   -6.3670 H   0  0  0  0  0  0  0  0  0  0  0  0
    1.2792   12.3646   -6.3670 H   0  0  0  0  0  0  0  0  0  0  0  0
    3.4538   12.9774   -4.3165 H   0  0  0  0  0  0  0  0  0  0  0  0
    3.7853   10.3691   -5.3140 H   0  0  0  0  0  0  0  0  0  0  0  0
    3.4177   11.4313   -6.7564 H   0  0  0  0  0  0  0  0  0  0  0  0
    5.5219   12.1075   -6.7816 H   0  0  0  0  0  0  0  0  0  0  0  0
    5.2810   12.8140   -5.1294 H   0  0  0  0  0  0  0  0  0  0  0  0
    6.5844   10.6676   -6.1583 H   0  0  0  0  0  0  0  0  0  0  0  0
    6.6488   11.9736   -1.8897 H   0  0  0  0  0  0  0  0  0  0  0  0
    7.3389   13.0335   -3.1653 H   0  0  0  0  0  0  0  0  0  0  0  0
    5.5830   12.6545   -3.1653 H   0  0  0  0  0  0  0  0  0  0  0  0
    8.2561   10.2160   -2.4474 H   0  0  0  0  0  0  0  0  0  0  0  0
    8.0382    9.2996   -3.9770 H   0  0  0  0  0  0  0  0  0  0  0  0
    8.9608   10.8409   -3.9770 H   0  0  0  0  0  0  0  0  0  0  0  0
    1.3140   10.9550   -4.5698 H   0  0  0  0  0  0  0  0  0  0  0  0
    2.9307    9.3680   -3.7278 H   0  0  0  0  0  0  0  0  0  0  0  0
    4.0267   10.6558   -3.1836 H   0  0  0  0  0  0  0  0  0  0  0  0
    2.3323    9.0927   -1.4944 H   0  0  0  0  0  0  0  0  0  0  0  0
    3.1111   10.5920   -0.9958 H   0  0  0  0  0  0  0  0  0  0  0  0
   -0.4232    9.2469   -1.5813 H   0  0  0  0  0  0  0  0  0  0  0  0
   -0.6650   10.3104   -3.0086 H   0  0  0  0  0  0  0  0  0  0  0  0
    0.6567    9.0940   -3.0086 H   0  0  0  0  0  0  0  0  0  0  0  0
    1.3761   11.9792   -0.0281 H   0  0  0  0  0  0  0  0  0  0  0  0
    1.0112    9.4824    0.4981 H   0  0  0  0  0  0  0  0  0  0  0  0
    0.4263   10.7942    1.6492 H   0  0  0  0  0  0  0  0  0  0  0  0
   -1.2152    8.7715    1.2574 H   0  0  0  0  0  0  0  0  0  0  0  0
   -2.1328   11.3526   -1.7087 H   0  0  0  0  0  0  0  0  0  0  0  0
   -3.2198   12.6980    0.8405 H   0  0  0  0  0  0  0  0  0  0  0  0
   -3.2974   13.3485   -0.8572 H   0  0  0  0  0  0  0  0  0  0  0  0
   -5.4561   12.3878   -0.1224 H   0  0  0  0  0  0  0  0  0  0  0  0
   -4.7348   11.5115   -1.5285 H   0  0  0  0  0  0  0  0  0  0  0  0
   -5.6100    9.8974    0.0182 H   0  0  0  0  0  0  0  0  0  0  0  0
   -3.8180   10.5420    2.0710 H   0  0  0  0  0  0  0  0  0  0  0  0
   -3.9576    7.8510   -1.3845 H   0  0  0  0  0  0  0  0  0  0  0  0
   -4.4377    9.4810   -1.9672 H   0  0  0  0  0  0  0  0  0  0  0  0
   -2.7067    9.0010   -1.9672 H   0  0  0  0  0  0  0  0  0  0  0  0
   -3.5806    8.5947    2.0005 H   0  0  0  0  0  0  0  0  0  0  0  0
   -4.5538    7.7154    0.7732 H   0  0  0  0  0  0  0  0  0  0  0  0
   -2.7635    7.5688    0.7732 H   0  0  0  0  0  0  0  0  0  0  0  0
    0.3271   13.4311    1.0966 H   0  0  0  0  0  0  0  0  0  0  0  0
   -1.2285   14.1772    0.5965 H   0  0  0  0  0  0  0  0  0  0  0  0
   -1.2285   12.6851    1.5966 H   0  0  0  0  0  0  0  0  0  0  0  0
   -1.5811   13.7198   -1.9613 H   0  0  0  0  0  0  0  0  0  0  0  0
    0.1192   14.1419   -1.3569 H   0  0  0  0  0  0  0  0  0  0  0  0
   -0.6386   12.1148   -3.4784 H   0  0  0  0  0  0  0  0  0  0  0  0
    0.2834   13.6579   -3.6694 H   0  0  0  0  0  0  0  0  0  0  0  0
    2.3333   13.0717   -0.9928 H   0  0  0  0  0  0  0  0  0  0  0  0
    3.3974   12.8813   -2.4274 H   0  0  0  0  0  0  0  0  0  0  0  0
    2.1045   14.1282   -2.4274 H   0  0  0  0  0  0  0  0  0  0  0  0
  1  2  1  0
  2  3  1  0
  3  4  1  0
  4  5  1  0
  5  6  1  0
  6  7  1  0
  7  8  1  0
  7  9  1  0
  2 10  1  0
 10 11  1  0
 11 12  1  0
 12 13  1  0
 13 14  1  6
 13 15  1  0
 15 16  1  0
 16 17  1  0
 17 18  2  0
 18 19  1  0
 19 20  1  0
 20 21  1  0
 21 22  1  0
 22 23  1  0
 22 24  1  0
 24 25  1  0
 24 26  1  0
 19 27  1  0
 27 28  1  1
 27 29  1  0
 29 30  1  0
 30 31  1  0
 31 32  1  1
  7  5  1  0
 31 10  1  0
 31 13  1  0
 27 15  1  0
 24 18  1  0
  1 33  1  0
  1 34  1  0
  1 35  1  0
  2 36  1  1
  3 37  1  0
  3 38  1  0
  4 39  1  0
  4 40  1  0
  5 41  1  6
  8 42  1  0
  8 43  1  0
  8 44  1  0
  9 45  1  0
  9 46  1  0
  9 47  1  0
 10 48  1  6
 11 49  1  0
 11 50  1  0
 12 51  1  0
 12 52  1  0
 14 53  1  0
 14 54  1  0
 14 55  1  0
 15 56  1  1
 16 57  1  0
 16 58  1  0
 17 59  1  0
 19 60  1  6
 20 61  1  0
 20 62  1  0
 21 63  1  0
 21 64  1  0
 22 65  1  6
 23 66  1  0
 25 67  1  0
 25 68  1  0
 25 69  1  0
 26 70  1  0
 26 71  1  0
 26 72  1  0
 28 73  1  0
 28 74  1  0
 28 75  1  0
 29 76  1  0
 29 77  1  0
 30 78  1  0
 30 79  1  0
 32 80  1  0
 32 81  1  0
 32 82  1  0
M  END
>  <meeko>  (19) 
{"is_sidechain": [false], "intermolecular_energy": 2.731, "internal_energy": -0.839}

$$$$
EPH_relaxed_0001_pdb2pqr_Repair_358_r2_0001_out
     RDKit          3D

 82 86  0  0  0  0  0  0  0  0999 V2000
    0.2060    8.8350   -2.3070 C   0  0  0  0  0  0  0  0  0  0  0  0
    0.9500    9.9590   -3.0330 C   0  0  2  0  0  0  0  0  0  0  0  0
    2.4610    9.9480   -2.7270 C   0  0  0  0  0  0  0  0  0  0  0  0
    3.3170   10.5790   -3.8290 C   0  0  0  0  0  0  0  0  0  0  0  0
    4.7160   10.8430   -3.3610 C   0  0  2  0  0  0  0  0  0  0  0  0
    5.3150   12.0270   -3.9030 O   0  0  0  0  0  0  0  0  0  0  0  0
    5.9280   10.7810   -4.2720 C   0  0  0  0  0  0  0  0  0  0  0  0
    5.7960   10.4450   -5.7240 C   0  0  0  0  0  0  0  0  0  0  0  0
    7.2760   10.5670   -3.6560 C   0  0  0  0  0  0  0  0  0  0  0  0
    0.3510   11.3080   -2.6540 C   0  0  1  0  0  0  0  0  0  0  0  0
   -1.0160   11.1730   -1.9300 C   0  0  0  0  0  0  0  0  0  0  0  0
   -1.0830   12.3150   -0.8830 C   0  0  0  0  0  0  0  0  0  0  0  0
    0.0830   13.2590   -1.2610 C   0  0  1  0  0  0  0  0  0  0  0  0
   -0.4700   14.1300   -2.4330 C   0  0  0  0  0  0  0  0  0  0  0  0
    0.6580   14.1430   -0.1070 C   0  0  2  0  0  0  0  0  0  0  0  0
   -0.3360   15.1440    0.5060 C   0  0  0  0  0  0  0  0  0  0  0  0
   -0.3610   16.4920   -0.1350 C   0  0  0  0  0  0  0  0  0  0  0  0
    0.5760   16.9780   -0.9700 C   0  0  0  0  0  0  0  0  0  0  0  0
    1.8530   16.1820   -1.2710 C   0  0  1  0  0  0  0  0  0  0  0  0
    3.0850   17.1200   -1.1660 C   0  0  0  0  0  0  0  0  0  0  0  0
    2.9510   18.3610   -2.0430 C   0  0  0  0  0  0  0  0  0  0  0  0
    1.7010   19.1570   -1.6750 C   0  0  2  0  0  0  0  0  0  0  0  0
    1.8670   19.6930   -0.3590 O   0  0  0  0  0  0  0  0  0  0  0  0
    0.3980   18.3130   -1.7350 C   0  0  0  0  0  0  0  0  0  0  0  0
    0.0570   17.9850   -3.2100 C   0  0  0  0  0  0  0  0  0  0  0  0
   -0.7660   19.1930   -1.2060 C   0  0  0  0  0  0  0  0  0  0  0  0
    2.0400   14.8350   -0.4480 C   0  0  1  0  0  0  0  0  0  0  0  0
    2.7350   15.1360    0.9150 C   0  0  0  0  0  0  0  0  0  0  0  0
    3.0090   13.8790   -1.2400 C   0  0  0  0  0  0  0  0  0  0  0  0
    2.3650   12.9450   -2.2820 C   0  0  0  0  0  0  0  0  0  0  0  0
    1.1660   12.2020   -1.6860 C   0  0  2  0  0  0  0  0  0  0  0  0
    1.6950   11.3000   -0.5190 C   0  0  0  0  0  0  0  0  0  0  0  0
    0.2993    8.9759   -1.2201 H   0  0  0  0  0  0  0  0  0  0  0  0
   -0.8568    8.8565   -2.5897 H   0  0  0  0  0  0  0  0  0  0  0  0
    0.6410    7.8650   -2.5897 H   0  0  0  0  0  0  0  0  0  0  0  0
    0.8315    9.7902   -4.1135 H   0  0  0  0  0  0  0  0  0  0  0  0
    2.6304   10.5052   -1.7938 H   0  0  0  0  0  0  0  0  0  0  0  0
    2.7652    8.8939   -2.6476 H   0  0  0  0  0  0  0  0  0  0  0  0
    3.3520    9.8944   -4.6893 H   0  0  0  0  0  0  0  0  0  0  0  0
    2.8617   11.5405   -4.1088 H   0  0  0  0  0  0  0  0  0  0  0  0
    4.5020   10.3826   -2.3852 H   0  0  0  0  0  0  0  0  0  0  0  0
    5.3956    9.4259   -5.8296 H   0  0  0  0  0  0  0  0  0  0  0  0
    5.1117   11.1594   -6.2049 H   0  0  0  0  0  0  0  0  0  0  0  0
    6.7836   10.5026   -6.2049 H   0  0  0  0  0  0  0  0  0  0  0  0
    7.1847   10.5815   -2.5599 H   0  0  0  0  0  0  0  0  0  0  0  0
    7.6759    9.5941   -3.9778 H   0  0  0  0  0  0  0  0  0  0  0  0
    7.9576   11.3682   -3.9778 H   0  0  0  0  0  0  0  0  0  0  0  0
    0.3052   11.7748   -3.6490 H   0  0  0  0  0  0  0  0  0  0  0  0
   -1.8390   11.2733   -2.6530 H   0  0  0  0  0  0  0  0  0  0  0  0
   -1.1118   10.1891   -1.4476 H   0  0  0  0  0  0  0  0  0  0  0  0
   -2.0460   12.8430   -0.9452 H   0  0  0  0  0  0  0  0  0  0  0  0
   -1.0000   11.9413    0.1482 H   0  0  0  0  0  0  0  0  0  0  0  0
   -1.0171   14.9917   -2.0229 H   0  0  0  0  0  0  0  0  0  0  0  0
    0.3670   14.4874   -3.0509 H   0  0  0  0  0  0  0  0  0  0  0  0
   -1.1495   13.5245   -3.0509 H   0  0  0  0  0  0  0  0  0  0  0  0
    0.8579   13.4016    0.6806 H   0  0  0  0  0  0  0  0  0  0  0  0
   -1.3447   14.7121    0.4284 H   0  0  0  0  0  0  0  0  0  0  0  0
   -0.0044   15.3060    1.5422 H   0  0  0  0  0  0  0  0  0  0  0  0
   -1.2175   17.1430    0.0945 H   0  0  0  0  0  0  0  0  0  0  0  0
    1.7482   15.8177   -2.3036 H   0  0  0  0  0  0  0  0  0  0  0  0
    3.1977   17.4384   -0.1191 H   0  0  0  0  0  0  0  0  0  0  0  0
    3.9638   16.5577   -1.5147 H   0  0  0  0  0  0  0  0  0  0  0  0
    3.8372   18.9976   -1.9037 H   0  0  0  0  0  0  0  0  0  0  0  0
    2.8677   18.0419   -3.0924 H   0  0  0  0  0  0  0  0  0  0  0  0
    1.5894   19.9591   -2.4194 H   0  0  0  0  0  0  0  0  0  0  0  0
    0.9950   19.9970   -0.0530 H   0  0  0  0  0  0  0  0  0  0  0  0
   -0.7354   17.2228   -3.2424 H   0  0  0  0  0  0  0  0  0  0  0  0
   -0.2905   18.8970   -3.7175 H   0  0  0  0  0  0  0  0  0  0  0  0
    0.9548   17.6024   -3.7175 H   0  0  0  0  0  0  0  0  0  0  0  0
   -0.7590   19.1877   -0.1060 H   0  0  0  0  0  0  0  0  0  0  0  0
   -0.6403   20.2239   -1.5685 H   0  0  0  0  0  0  0  0  0  0  0  0
   -1.7236   18.7910   -1.5685 H   0  0  0  0  0  0  0  0  0  0  0  0
    2.0666   14.8465    1.7392 H   0  0  0  0  0  0  0  0  0  0  0  0
    3.6713   14.5627    0.9836 H   0  0  0  0  0  0  0  0  0  0  0  0
    2.9574   16.2111    0.9836 H   0  0  0  0  0  0  0  0  0  0  0  0
    3.7417   14.5090   -1.7656 H   0  0  0  0  0  0  0  0  0  0  0  0
    3.4377   13.2096   -0.4796 H   0  0  0  0  0  0  0  0  0  0  0  0
    2.0268   13.5432   -3.1410 H   0  0  0  0  0  0  0  0  0  0  0  0
    3.1139   12.2044   -2.5992 H   0  0  0  0  0  0  0  0  0  0  0  0
    1.4280   11.7552    0.4462 H   0  0  0  0  0  0  0  0  0  0  0  0
    1.2394   10.3014   -0.5920 H   0  0  0  0  0  0  0  0  0  0  0  0
    2.7889   11.2102   -0.5920 H   0  0  0  0  0  0  0  0  0  0  0  0
  1  2  1  0
  2  3  1  0
  3  4  1  0
  4  5  1  0
  5  6  1  0
  6  7  1  0
  7  8  1  0
  7  9  1  0
  2 10  1  0
 10 11  1  0
 11 12  1  0
 12 13  1  0
 13 14  1  6
 13 15  1  0
 15 16  1  0
 16 17  1  0
 17 18  2  0
 18 19  1  0
 19 20  1  0
 20 21  1  0
 21 22  1  0
 22 23  1  0
 22 24  1  0
 24 25  1  0
 24 26  1  0
 19 27  1  0
 27 28  1  1
 27 29  1  0
 29 30  1  0
 30 31  1  0
 31 32  1  1
  7  5  1  0
 31 10  1  0
 31 13  1  0
 27 15  1  0
 24 18  1  0
  1 33  1  0
  1 34  1  0
  1 35  1  0
  2 36  1  6
  3 37  1  0
  3 38  1  0
  4 39  1  0
  4 40  1  0
  5 41  1  1
  8 42  1  0
  8 43  1  0
  8 44  1  0
  9 45  1  0
  9 46  1  0
  9 47  1  0
 10 48  1  6
 11 49  1  0
 11 50  1  0
 12 51  1  0
 12 52  1  0
 14 53  1  0
 14 54  1  0
 14 55  1  0
 15 56  1  1
 16 57  1  0
 16 58  1  0
 17 59  1  0
 19 60  1  6
 20 61  1  0
 20 62  1  0
 21 63  1  0
 21 64  1  0
 22 65  1  6
 23 66  1  0
 25 67  1  0
 25 68  1  0
 25 69  1  0
 26 70  1  0
 26 71  1  0
 26 72  1  0
 28 73  1  0
 28 74  1  0
 28 75  1  0
 29 76  1  0
 29 77  1  0
 30 78  1  0
 30 79  1  0
 32 80  1  0
 32 81  1  0
 32 82  1  0
M  END
>  <meeko>  (20) 
{"is_sidechain": [false], "intermolecular_energy": 2.731, "internal_energy": -0.839}

$$$$
