EPH_relaxed_0001_pdb2pqr_Repair_333_r2_0001_out
     RDKit          3D

 82 86  0  0  0  0  0  0  0  0999 V2000
   -1.7750    8.2000   -1.9370 C   0  0  0  0  0  0  0  0  0  0  0  0
   -2.1630    8.7070   -0.5450 C   0  0  2  0  0  0  0  0  0  0  0  0
   -3.6740    8.9870   -0.4300 C   0  0  0  0  0  0  0  0  0  0  0  0
   -4.5350    7.7210   -0.4020 C   0  0  0  0  0  0  0  0  0  0  0  0
   -5.3220    7.5580   -1.6680 C   0  0  2  0  0  0  0  0  0  0  0  0
   -6.3240    8.5600   -1.8830 O   0  0  0  0  0  0  0  0  0  0  0  0
   -6.8000    7.2180   -1.6950 C   0  0  0  0  0  0  0  0  0  0  0  0
   -7.5790    7.0190   -0.4330 C   0  0  0  0  0  0  0  0  0  0  0  0
   -7.3690    6.6020   -2.9350 C   0  0  0  0  0  0  0  0  0  0  0  0
   -1.3720    9.9660   -0.2110 C   0  0  1  0  0  0  0  0  0  0  0  0
   -0.3920    9.7600    0.9740 C   0  0  0  0  0  0  0  0  0  0  0  0
    0.8600   10.6240    0.6750 C   0  0  0  0  0  0  0  0  0  0  0  0
    0.4280   11.5460   -0.4890 C   0  0  1  0  0  0  0  0  0  0  0  0
   -0.3650   12.7060    0.1910 C   0  0  0  0  0  0  0  0  0  0  0  0
    1.5750   12.0900   -1.4030 C   0  0  2  0  0  0  0  0  0  0  0  0
    2.6060   12.9850   -0.6930 C   0  0  0  0  0  0  0  0  0  0  0  0
    2.2920   14.4450   -0.6970 C   0  0  0  0  0  0  0  0  0  0  0  0
    1.3830   15.0470   -1.4850 C   0  0  0  0  0  0  0  0  0  0  0  0
    0.6260   14.2570   -2.5600 C   0  0  1  0  0  0  0  0  0  0  0  0
    0.6340   15.0550   -3.8910 C   0  0  0  0  0  0  0  0  0  0  0  0
    0.1000   16.4750   -3.7260 C   0  0  0  0  0  0  0  0  0  0  0  0
    0.9150   17.2460   -2.6910 C   0  0  2  0  0  0  0  0  0  0  0  0
    2.2380   17.4430   -3.1990 O   0  0  0  0  0  0  0  0  0  0  0  0
    0.9860   16.5340   -1.3110 C   0  0  0  0  0  0  0  0  0  0  0  0
   -0.4010   16.5900   -0.6250 C   0  0  0  0  0  0  0  0  0  0  0  0
    1.9510   17.3440   -0.4050 C   0  0  0  0  0  0  0  0  0  0  0  0
    1.0730   12.7440   -2.7530 C   0  0  1  0  0  0  0  0  0  0  0  0
    2.2640   12.6650   -3.7560 C   0  0  0  0  0  0  0  0  0  0  0  0
   -0.1120   11.9370   -3.4050 C   0  0  0  0  0  0  0  0  0  0  0  0
   -1.1470   11.3240   -2.4430 C   0  0  0  0  0  0  0  0  0  0  0  0
   -0.4570   10.5460   -1.3180 C   0  0  2  0  0  0  0  0  0  0  0  0
    0.3310    9.3590   -1.9710 C   0  0  0  0  0  0  0  0  0  0  0  0
   -1.1092    7.3300   -1.8379 H   0  0  0  0  0  0  0  0  0  0  0  0
   -2.6818    7.9071   -2.4865 H   0  0  0  0  0  0  0  0  0  0  0  0
   -1.2553    8.9988   -2.4865 H   0  0  0  0  0  0  0  0  0  0  0  0
   -1.9189    7.9133    0.1764 H   0  0  0  0  0  0  0  0  0  0  0  0
   -3.8532    9.5493    0.4983 H   0  0  0  0  0  0  0  0  0  0  0  0
   -3.9648    9.5534   -1.3270 H   0  0  0  0  0  0  0  0  0  0  0  0
   -3.8796    6.8468   -0.2745 H   0  0  0  0  0  0  0  0  0  0  0  0
   -5.2443    7.8069    0.4343 H   0  0  0  0  0  0  0  0  0  0  0  0
   -4.4537    7.1168   -2.1793 H   0  0  0  0  0  0  0  0  0  0  0  0
   -6.9224    7.1867    0.4335 H   0  0  0  0  0  0  0  0  0  0  0  0
   -8.4159    7.7322   -0.4024 H   0  0  0  0  0  0  0  0  0  0  0  0
   -7.9713    5.9918   -0.4024 H   0  0  0  0  0  0  0  0  0  0  0  0
   -8.0913    5.8201   -2.6578 H   0  0  0  0  0  0  0  0  0  0  0  0
   -7.8767    7.3761   -3.5292 H   0  0  0  0  0  0  0  0  0  0  0  0
   -6.5572    6.1572   -3.5292 H   0  0  0  0  0  0  0  0  0  0  0  0
   -2.2038   10.6572   -0.0099 H   0  0  0  0  0  0  0  0  0  0  0  0
   -0.8610   10.0855    1.9143 H   0  0  0  0  0  0  0  0  0  0  0  0
   -0.1226    8.6992    1.0836 H   0  0  0  0  0  0  0  0  0  0  0  0
    1.1417   11.2179    1.5570 H   0  0  0  0  0  0  0  0  0  0  0  0
    1.7378   10.0124    0.4193 H   0  0  0  0  0  0  0  0  0  0  0  0
   -0.2963   12.6055    1.2842 H   0  0  0  0  0  0  0  0  0  0  0  0
    0.0627   13.6718   -0.1160 H   0  0  0  0  0  0  0  0  0  0  0  0
   -1.4202   12.6581   -0.1160 H   0  0  0  0  0  0  0  0  0  0  0  0
    2.1152   11.1714   -1.6758 H   0  0  0  0  0  0  0  0  0  0  0  0
    2.6785   12.6556    0.3540 H   0  0  0  0  0  0  0  0  0  0  0  0
    3.5448   12.8736   -1.2553 H   0  0  0  0  0  0  0  0  0  0  0  0
    2.8514   15.0821    0.0038 H   0  0  0  0  0  0  0  0  0  0  0  0
   -0.4056   14.1547   -2.1920 H   0  0  0  0  0  0  0  0  0  0  0  0
    1.6675   15.1082   -4.2639 H   0  0  0  0  0  0  0  0  0  0  0  0
   -0.0255   14.5307   -4.5982 H   0  0  0  0  0  0  0  0  0  0  0  0
    0.1592   16.9967   -4.6926 H   0  0  0  0  0  0  0  0  0  0  0  0
   -0.9435   16.4206   -3.3824 H   0  0  0  0  0  0  0  0  0  0  0  0
    0.4070   18.2069   -2.5218 H   0  0  0  0  0  0  0  0  0  0  0  0
    2.3270   16.9060   -4.0050 H   0  0  0  0  0  0  0  0  0  0  0  0
   -0.2703   16.5847    0.4672 H   0  0  0  0  0  0  0  0  0  0  0  0
   -0.9228   17.5099   -0.9274 H   0  0  0  0  0  0  0  0  0  0  0  0
   -0.9952   15.7151   -0.9274 H   0  0  0  0  0  0  0  0  0  0  0  0
    1.7152   17.1461    0.6511 H   0  0  0  0  0  0  0  0  0  0  0  0
    2.9883   17.0421   -0.6119 H   0  0  0  0  0  0  0  0  0  0  0  0
    1.8335   18.4179   -0.6119 H   0  0  0  0  0  0  0  0  0  0  0  0
    3.2098   12.6023   -3.1979 H   0  0  0  0  0  0  0  0  0  0  0  0
    2.1518   11.7723   -4.3889 H   0  0  0  0  0  0  0  0  0  0  0  0
    2.2707   13.5647   -4.3889 H   0  0  0  0  0  0  0  0  0  0  0  0
   -0.6486   12.6204   -4.0796 H   0  0  0  0  0  0  0  0  0  0  0  0
    0.3635   11.0782   -3.9014 H   0  0  0  0  0  0  0  0  0  0  0  0
   -1.7521   12.1308   -2.0038 H   0  0  0  0  0  0  0  0  0  0  0  0
   -1.7843   10.6294   -3.0099 H   0  0  0  0  0  0  0  0  0  0  0  0
    0.7543    8.7213   -1.1810 H   0  0  0  0  0  0  0  0  0  0  0  0
   -0.3524    8.7645   -2.5952 H   0  0  0  0  0  0  0  0  0  0  0  0
    1.1441    9.7580   -2.5952 H   0  0  0  0  0  0  0  0  0  0  0  0
  1  2  1  0
  2  3  1  0
  3  4  1  0
  4  5  1  0
  5  6  1  0
  6  7  1  0
  7  8  1  0
  7  9  1  0
  2 10  1  0
 10 11  1  0
 11 12  1  0
 12 13  1  0
 13 14  1  1
 13 15  1  0
 15 16  1  0
 16 17  1  0
 17 18  2  0
 18 19  1  0
 19 20  1  0
 20 21  1  0
 21 22  1  0
 22 23  1  0
 22 24  1  0
 24 25  1  0
 24 26  1  0
 19 27  1  0
 27 28  1  6
 27 29  1  0
 29 30  1  0
 30 31  1  0
 31 32  1  6
  7  5  1  0
 31 10  1  0
 31 13  1  0
 27 15  1  0
 24 18  1  0
  1 33  1  0
  1 34  1  0
  1 35  1  0
  2 36  1  1
  3 37  1  0
  3 38  1  0
  4 39  1  0
  4 40  1  0
  5 41  1  6
  8 42  1  0
  8 43  1  0
  8 44  1  0
  9 45  1  0
  9 46  1  0
  9 47  1  0
 10 48  1  1
 11 49  1  0
 11 50  1  0
 12 51  1  0
 12 52  1  0
 14 53  1  0
 14 54  1  0
 14 55  1  0
 15 56  1  6
 16 57  1  0
 16 58  1  0
 17 59  1  0
 19 60  1  1
 20 61  1  0
 20 62  1  0
 21 63  1  0
 21 64  1  0
 22 65  1  1
 23 66  1  0
 25 67  1  0
 25 68  1  0
 25 69  1  0
 26 70  1  0
 26 71  1  0
 26 72  1  0
 28 73  1  0
 28 74  1  0
 28 75  1  0
 29 76  1  0
 29 77  1  0
 30 78  1  0
 30 79  1  0
 32 80  1  0
 32 81  1  0
 32 82  1  0
M  END
>  <meeko>  (1) 
{"is_sidechain": [false], "intermolecular_energy": 2.731, "internal_energy": -0.839}

$$$$
EPH_relaxed_0001_pdb2pqr_Repair_333_r2_0001_out
     RDKit          3D

 82 86  0  0  0  0  0  0  0  0999 V2000
   -5.1640    5.8480   -1.7300 C   0  0  0  0  0  0  0  0  0  0  0  0
   -5.4630    7.3490   -1.7790 C   0  0  2  0  0  0  0  0  0  0  0  0
   -5.2360    8.0300   -0.4140 C   0  0  0  0  0  0  0  0  0  0  0  0
   -4.1880    9.1460   -0.4500 C   0  0  0  0  0  0  0  0  0  0  0  0
   -2.8260    8.6170   -0.7850 C   0  0  2  0  0  0  0  0  0  0  0  0
   -1.8100    8.9310    0.1770 O   0  0  0  0  0  0  0  0  0  0  0  0
   -1.6460    9.5060   -1.1300 C   0  0  0  0  0  0  0  0  0  0  0  0
   -1.7730   10.9970   -1.1590 C   0  0  0  0  0  0  0  0  0  0  0  0
   -0.5120    8.9170   -1.9100 C   0  0  0  0  0  0  0  0  0  0  0  0
   -6.8960    7.5790   -2.2440 C   0  0  1  0  0  0  0  0  0  0  0  0
   -7.2050    6.8800   -3.5940 C   0  0  0  0  0  0  0  0  0  0  0  0
   -8.6820    6.4120   -3.5290 C   0  0  0  0  0  0  0  0  0  0  0  0
   -9.2670    7.1400   -2.2960 C   0  0  1  0  0  0  0  0  0  0  0  0
   -9.6120    8.5750   -2.8040 C   0  0  0  0  0  0  0  0  0  0  0  0
  -10.4960    6.4590   -1.6100 C   0  0  2  0  0  0  0  0  0  0  0  0
  -11.7500    6.3350   -2.4930 C   0  0  0  0  0  0  0  0  0  0  0  0
  -12.6990    7.4850   -2.4160 C   0  0  0  0  0  0  0  0  0  0  0  0
  -12.7000    8.4370   -1.4650 C   0  0  0  0  0  0  0  0  0  0  0  0
  -11.7370    8.3610   -0.2740 C   0  0  1  0  0  0  0  0  0  0  0  0
  -12.5120    8.6480    1.0390 C   0  0  0  0  0  0  0  0  0  0  0  0
  -13.2770    9.9670    0.9900 C   0  0  0  0  0  0  0  0  0  0  0  0
  -14.2660    9.9820   -0.1730 C   0  0  2  0  0  0  0  0  0  0  0  0
  -15.2870    9.0120    0.0790 O   0  0  0  0  0  0  0  0  0  0  0  0
  -13.6000    9.6950   -1.5480 C   0  0  0  0  0  0  0  0  0  0  0  0
  -12.7170   10.8980   -1.9590 C   0  0  0  0  0  0  0  0  0  0  0  0
  -14.7260    9.5980   -2.6120 C   0  0  0  0  0  0  0  0  0  0  0  0
  -10.8490    7.0460   -0.1830 C   0  0  1  0  0  0  0  0  0  0  0  0
  -11.6280    5.9290    0.5770 C   0  0  0  0  0  0  0  0  0  0  0  0
   -9.5630    7.3520    0.6730 C   0  0  0  0  0  0  0  0  0  0  0  0
   -8.3420    7.9110   -0.0820 C   0  0  0  0  0  0  0  0  0  0  0  0
   -8.0330    7.0690   -1.3240 C   0  0  2  0  0  0  0  0  0  0  0  0
   -7.6600    5.6250   -0.8420 C   0  0  0  0  0  0  0  0  0  0  0  0
   -5.0989    5.5211   -0.6817 H   0  0  0  0  0  0  0  0  0  0  0  0
   -5.9700    5.2968   -2.2365 H   0  0  0  0  0  0  0  0  0  0  0  0
   -4.2083    5.6478   -2.2365 H   0  0  0  0  0  0  0  0  0  0  0  0
   -4.7629    7.8031   -2.4957 H   0  0  0  0  0  0  0  0  0  0  0  0
   -6.1907    8.4607   -0.0777 H   0  0  0  0  0  0  0  0  0  0  0  0
   -4.8595    7.2572    0.2723 H   0  0  0  0  0  0  0  0  0  0  0  0
   -4.4803    9.8851   -1.2104 H   0  0  0  0  0  0  0  0  0  0  0  0
   -4.1415    9.6051    0.5486 H   0  0  0  0  0  0  0  0  0  0  0  0
   -3.2625    7.7421   -1.2890 H   0  0  0  0  0  0  0  0  0  0  0  0
   -1.8058   11.3823   -0.1292 H   0  0  0  0  0  0  0  0  0  0  0  0
   -0.9084   11.4285   -1.6846 H   0  0  0  0  0  0  0  0  0  0  0  0
   -2.6982   11.2760   -1.6846 H   0  0  0  0  0  0  0  0  0  0  0  0
    0.2452    8.5237   -1.2158 H   0  0  0  0  0  0  0  0  0  0  0  0
   -0.8880    8.1002   -2.5436 H   0  0  0  0  0  0  0  0  0  0  0  0
   -0.0600    9.6943   -2.5436 H   0  0  0  0  0  0  0  0  0  0  0  0
   -6.9043    8.6784   -2.2781 H   0  0  0  0  0  0  0  0  0  0  0  0
   -7.0679    7.5862   -4.4261 H   0  0  0  0  0  0  0  0  0  0  0  0
   -6.5285    6.0289   -3.7615 H   0  0  0  0  0  0  0  0  0  0  0  0
   -9.2216    6.7009   -4.4430 H   0  0  0  0  0  0  0  0  0  0  0  0
   -8.7704    5.3185   -3.4491 H   0  0  0  0  0  0  0  0  0  0  0  0
   -9.7719    9.2403   -1.9427 H   0  0  0  0  0  0  0  0  0  0  0  0
   -8.7803    8.9580   -3.4136 H   0  0  0  0  0  0  0  0  0  0  0  0
  -10.5269    8.5381   -3.4136 H   0  0  0  0  0  0  0  0  0  0  0  0
  -10.1389    5.4305   -1.4526 H   0  0  0  0  0  0  0  0  0  0  0  0
  -11.4216    6.2344   -3.5380 H   0  0  0  0  0  0  0  0  0  0  0  0
  -12.3009    5.4595   -2.1188 H   0  0  0  0  0  0  0  0  0  0  0  0
  -13.4627    7.5605   -3.2041 H   0  0  0  0  0  0  0  0  0  0  0  0
  -10.9844    9.1454   -0.4419 H   0  0  0  0  0  0  0  0  0  0  0  0
  -13.2282    7.8311    1.2115 H   0  0  0  0  0  0  0  0  0  0  0  0
  -11.7754    8.7191    1.8529 H   0  0  0  0  0  0  0  0  0  0  0  0
  -13.8282   10.0986    1.9328 H   0  0  0  0  0  0  0  0  0  0  0  0
  -12.5561   10.7856    0.8481 H   0  0  0  0  0  0  0  0  0  0  0  0
  -14.6875   10.9962   -0.2351 H   0  0  0  0  0  0  0  0  0  0  0  0
  -16.1170    9.4930    0.2370 H   0  0  0  0  0  0  0  0  0  0  0  0
  -12.3449   11.4050   -1.0565 H   0  0  0  0  0  0  0  0  0  0  0  0
  -11.8653   10.5405   -2.5563 H   0  0  0  0  0  0  0  0  0  0  0  0
  -13.3133   11.6034   -2.5563 H   0  0  0  0  0  0  0  0  0  0  0  0
  -15.7003    9.5141   -2.1082 H   0  0  0  0  0  0  0  0  0  0  0  0
  -14.7149   10.5004   -3.2409 H   0  0  0  0  0  0  0  0  0  0  0  0
  -14.5608    8.7108   -3.2409 H   0  0  0  0  0  0  0  0  0  0  0  0
  -11.5220    6.0809    1.6613 H   0  0  0  0  0  0  0  0  0  0  0  0
  -12.6924    5.9729    0.3029 H   0  0  0  0  0  0  0  0  0  0  0  0
  -11.2190    4.9453    0.3029 H   0  0  0  0  0  0  0  0  0  0  0  0
   -9.8428    8.0862    1.4429 H   0  0  0  0  0  0  0  0  0  0  0  0
   -9.2380    6.3760    1.0626 H   0  0  0  0  0  0  0  0  0  0  0  0
   -8.5529    8.9452   -0.3917 H   0  0  0  0  0  0  0  0  0  0  0  0
   -7.4705    7.8801    0.5885 H   0  0  0  0  0  0  0  0  0  0  0  0
   -7.6525    5.5960    0.2576 H   0  0  0  0  0  0  0  0  0  0  0  0
   -8.4025    4.9082   -1.2227 H   0  0  0  0  0  0  0  0  0  0  0  0
   -6.6633    5.3574   -1.2227 H   0  0  0  0  0  0  0  0  0  0  0  0
  1  2  1  0
  2  3  1  0
  3  4  1  0
  4  5  1  0
  5  6  1  0
  6  7  1  0
  7  8  1  0
  7  9  1  0
  2 10  1  0
 10 11  1  0
 11 12  1  0
 12 13  1  0
 13 14  1  6
 13 15  1  0
 15 16  1  0
 16 17  1  0
 17 18  2  0
 18 19  1  0
 19 20  1  0
 20 21  1  0
 21 22  1  0
 22 23  1  0
 22 24  1  0
 24 25  1  0
 24 26  1  0
 19 27  1  0
 27 28  1  1
 27 29  1  0
 29 30  1  0
 30 31  1  0
 31 32  1  1
  7  5  1  0
 31 10  1  0
 31 13  1  0
 27 15  1  0
 24 18  1  0
  1 33  1  0
  1 34  1  0
  1 35  1  0
  2 36  1  6
  3 37  1  0
  3 38  1  0
  4 39  1  0
  4 40  1  0
  5 41  1  6
  8 42  1  0
  8 43  1  0
  8 44  1  0
  9 45  1  0
  9 46  1  0
  9 47  1  0
 10 48  1  6
 11 49  1  0
 11 50  1  0
 12 51  1  0
 12 52  1  0
 14 53  1  0
 14 54  1  0
 14 55  1  0
 15 56  1  1
 16 57  1  0
 16 58  1  0
 17 59  1  0
 19 60  1  6
 20 61  1  0
 20 62  1  0
 21 63  1  0
 21 64  1  0
 22 65  1  6
 23 66  1  0
 25 67  1  0
 25 68  1  0
 25 69  1  0
 26 70  1  0
 26 71  1  0
 26 72  1  0
 28 73  1  0
 28 74  1  0
 28 75  1  0
 29 76  1  0
 29 77  1  0
 30 78  1  0
 30 79  1  0
 32 80  1  0
 32 81  1  0
 32 82  1  0
M  END
>  <meeko>  (2) 
{"is_sidechain": [false], "intermolecular_energy": 2.731, "internal_energy": -0.839}

$$$$
EPH_relaxed_0001_pdb2pqr_Repair_333_r2_0001_out
     RDKit          3D

 82 86  0  0  0  0  0  0  0  0999 V2000
    0.8010   17.7540   -0.8140 C   0  0  0  0  0  0  0  0  0  0  0  0
    0.8360   17.5650   -2.3340 C   0  0  2  0  0  0  0  0  0  0  0  0
   -0.0630   18.5820   -3.0660 C   0  0  0  0  0  0  0  0  0  0  0  0
   -0.6070   19.6880   -2.1580 C   0  0  0  0  0  0  0  0  0  0  0  0
   -1.6760   19.1760   -1.2400 C   0  0  2  0  0  0  0  0  0  0  0  0
   -2.4870   20.1940   -0.6390 O   0  0  0  0  0  0  0  0  0  0  0  0
   -1.6780   19.4160    0.2580 C   0  0  0  0  0  0  0  0  0  0  0  0
   -0.5880   20.1940    0.9250 C   0  0  0  0  0  0  0  0  0  0  0  0
   -2.4670   18.4890    1.1300 C   0  0  0  0  0  0  0  0  0  0  0  0
    0.4140   16.1450   -2.6910 C   0  0  1  0  0  0  0  0  0  0  0  0
    0.4610   15.8740   -4.2180 C   0  0  0  0  0  0  0  0  0  0  0  0
    0.8960   14.3970   -4.3970 C   0  0  0  0  0  0  0  0  0  0  0  0
    0.7630   13.7770   -2.9860 C   0  0  1  0  0  0  0  0  0  0  0  0
   -0.7540   13.4430   -2.8360 C   0  0  0  0  0  0  0  0  0  0  0  0
    1.6600   12.5310   -2.6910 C   0  0  2  0  0  0  0  0  0  0  0  0
    1.3790   11.3020   -3.5730 C   0  0  0  0  0  0  0  0  0  0  0  0
    0.3650   10.3480   -3.0340 C   0  0  0  0  0  0  0  0  0  0  0  0
   -0.0860   10.3200   -1.7660 C   0  0  0  0  0  0  0  0  0  0  0  0
    0.5050   11.2510   -0.6990 C   0  0  1  0  0  0  0  0  0  0  0  0
    0.8030   10.4390    0.5890 C   0  0  0  0  0  0  0  0  0  0  0  0
   -0.4170    9.6740    1.0930 C   0  0  0  0  0  0  0  0  0  0  0  0
   -0.9400    8.7170    0.0260 C   0  0  2  0  0  0  0  0  0  0  0  0
    0.0330    7.6910   -0.1900 O   0  0  0  0  0  0  0  0  0  0  0  0
   -1.2650    9.4210   -1.3220 C   0  0  0  0  0  0  0  0  0  0  0  0
   -2.5200   10.3130   -1.1530 C   0  0  0  0  0  0  0  0  0  0  0  0
   -1.6480    8.3250   -2.3530 C   0  0  0  0  0  0  0  0  0  0  0  0
    1.7410   12.1380   -1.1600 C   0  0  1  0  0  0  0  0  0  0  0  0
    3.0670   11.3400   -0.9750 C   0  0  0  0  0  0  0  0  0  0  0  0
    1.8460   13.3990   -0.2240 C   0  0  0  0  0  0  0  0  0  0  0  0
    1.0290   14.6400   -0.6340 C   0  0  0  0  0  0  0  0  0  0  0  0
    1.2580   14.9840   -2.1090 C   0  0  2  0  0  0  0  0  0  0  0  0
    2.7720   15.3460   -2.2860 C   0  0  0  0  0  0  0  0  0  0  0  0
    0.9800   16.7875   -0.3201 H   0  0  0  0  0  0  0  0  0  0  0  0
    1.5821   18.4686   -0.5153 H   0  0  0  0  0  0  0  0  0  0  0  0
   -0.1842   18.1415   -0.5153 H   0  0  0  0  0  0  0  0  0  0  0  0
    1.8701   17.7396   -2.6657 H   0  0  0  0  0  0  0  0  0  0  0  0
    0.5249   19.0500   -3.8693 H   0  0  0  0  0  0  0  0  0  0  0  0
   -0.9307   18.0258   -3.4503 H   0  0  0  0  0  0  0  0  0  0  0  0
    0.2188   20.0914   -1.5536 H   0  0  0  0  0  0  0  0  0  0  0  0
   -1.0473   20.4691   -2.7951 H   0  0  0  0  0  0  0  0  0  0  0  0
   -1.7864   18.2611   -1.8407 H   0  0  0  0  0  0  0  0  0  0  0  0
   -0.6972   20.1161    2.0168 H   0  0  0  0  0  0  0  0  0  0  0  0
    0.3891   19.7880    0.6243 H   0  0  0  0  0  0  0  0  0  0  0  0
   -0.6545   21.2500    0.6243 H   0  0  0  0  0  0  0  0  0  0  0  0
   -2.2688   18.7219    2.1866 H   0  0  0  0  0  0  0  0  0  0  0  0
   -3.5399   18.6142    0.9220 H   0  0  0  0  0  0  0  0  0  0  0  0
   -2.1720   17.4499    0.9220 H   0  0  0  0  0  0  0  0  0  0  0  0
   -0.5932   16.1360   -2.2488 H   0  0  0  0  0  0  0  0  0  0  0  0
   -0.5330   16.0325   -4.6616 H   0  0  0  0  0  0  0  0  0  0  0  0
    1.1639   16.5561   -4.7187 H   0  0  0  0  0  0  0  0  0  0  0  0
    0.2367   13.8819   -5.1112 H   0  0  0  0  0  0  0  0  0  0  0  0
    1.9169   14.3085   -4.7969 H   0  0  0  0  0  0  0  0  0  0  0  0
   -1.0131   13.3860   -1.7685 H   0  0  0  0  0  0  0  0  0  0  0  0
   -1.3522   14.2309   -3.3169 H   0  0  0  0  0  0  0  0  0  0  0  0
   -0.9660   12.4767   -3.3169 H   0  0  0  0  0  0  0  0  0  0  0  0
    2.6598   12.8855   -2.9822 H   0  0  0  0  0  0  0  0  0  0  0  0
    1.0233   11.6595   -4.5506 H   0  0  0  0  0  0  0  0  0  0  0  0
    2.3248   10.7428   -3.6256 H   0  0  0  0  0  0  0  0  0  0  0  0
   -0.0485    9.6052   -3.7320 H   0  0  0  0  0  0  0  0  0  0  0  0
   -0.2673   12.0070   -0.4939 H   0  0  0  0  0  0  0  0  0  0  0  0
    1.6067    9.7193    0.3742 H   0  0  0  0  0  0  0  0  0  0  0  0
    1.0975   11.1522    1.3730 H   0  0  0  0  0  0  0  0  0  0  0  0
   -0.1365    9.0978    1.9870 H   0  0  0  0  0  0  0  0  0  0  0  0
   -1.2097   10.3974    1.3346 H   0  0  0  0  0  0  0  0  0  0  0  0
   -1.8862    8.2955    0.3962 H   0  0  0  0  0  0  0  0  0  0  0  0
    0.7730    7.8540    0.4190 H   0  0  0  0  0  0  0  0  0  0  0  0
   -2.7248   10.4586   -0.0821 H   0  0  0  0  0  0  0  0  0  0  0  0
   -2.3429   11.2890   -1.6284 H   0  0  0  0  0  0  0  0  0  0  0  0
   -3.3835    9.8249   -1.6284 H   0  0  0  0  0  0  0  0  0  0  0  0
   -1.9656    7.4161   -1.8210 H   0  0  0  0  0  0  0  0  0  0  0  0
   -2.4727    8.6875   -2.9842 H   0  0  0  0  0  0  0  0  0  0  0  0
   -0.7770    8.0949   -2.9842 H   0  0  0  0  0  0  0  0  0  0  0  0
    3.2735   11.2157    0.0983 H   0  0  0  0  0  0  0  0  0  0  0  0
    2.9686   10.3510   -1.4464 H   0  0  0  0  0  0  0  0  0  0  0  0
    3.8948   11.8901   -1.4464 H   0  0  0  0  0  0  0  0  0  0  0  0
    1.5114   13.0972    0.7794 H   0  0  0  0  0  0  0  0  0  0  0  0
    2.8980   13.7148   -0.2842 H   0  0  0  0  0  0  0  0  0  0  0  0
   -0.0400   14.4362   -0.4737 H   0  0  0  0  0  0  0  0  0  0  0  0
    1.3544   15.4928   -0.0202 H   0  0  0  0  0  0  0  0  0  0  0  0
    3.2403   15.4580   -1.2970 H   0  0  0  0  0  0  0  0  0  0  0  0
    3.2782   14.5436   -2.8427 H   0  0  0  0  0  0  0  0  0  0  0  0
    2.8605   16.2906   -2.8427 H   0  0  0  0  0  0  0  0  0  0  0  0
  1  2  1  0
  2  3  1  0
  3  4  1  0
  4  5  1  0
  5  6  1  0
  6  7  1  0
  7  8  1  0
  7  9  1  0
  2 10  1  0
 10 11  1  0
 11 12  1  0
 12 13  1  0
 13 14  1  1
 13 15  1  0
 15 16  1  0
 16 17  1  0
 17 18  2  0
 18 19  1  0
 19 20  1  0
 20 21  1  0
 21 22  1  0
 22 23  1  0
 22 24  1  0
 24 25  1  0
 24 26  1  0
 19 27  1  0
 27 28  1  6
 27 29  1  0
 29 30  1  0
 30 31  1  0
 31 32  1  1
  7  5  1  0
 31 10  1  0
 31 13  1  0
 27 15  1  0
 24 18  1  0
  1 33  1  0
  1 34  1  0
  1 35  1  0
  2 36  1  6
  3 37  1  0
  3 38  1  0
  4 39  1  0
  4 40  1  0
  5 41  1  1
  8 42  1  0
  8 43  1  0
  8 44  1  0
  9 45  1  0
  9 46  1  0
  9 47  1  0
 10 48  1  1
 11 49  1  0
 11 50  1  0
 12 51  1  0
 12 52  1  0
 14 53  1  0
 14 54  1  0
 14 55  1  0
 15 56  1  6
 16 57  1  0
 16 58  1  0
 17 59  1  0
 19 60  1  1
 20 61  1  0
 20 62  1  0
 21 63  1  0
 21 64  1  0
 22 65  1  1
 23 66  1  0
 25 67  1  0
 25 68  1  0
 25 69  1  0
 26 70  1  0
 26 71  1  0
 26 72  1  0
 28 73  1  0
 28 74  1  0
 28 75  1  0
 29 76  1  0
 29 77  1  0
 30 78  1  0
 30 79  1  0
 32 80  1  0
 32 81  1  0
 32 82  1  0
M  END
>  <meeko>  (3) 
{"is_sidechain": [false], "intermolecular_energy": 2.731, "internal_energy": -0.839}

$$$$
EPH_relaxed_0001_pdb2pqr_Repair_333_r2_0001_out
     RDKit          3D

 82 86  0  0  0  0  0  0  0  0999 V2000
   -0.2440   10.1080   -2.6960 C   0  0  0  0  0  0  0  0  0  0  0  0
   -0.7440   10.2020   -1.2510 C   0  0  2  0  0  0  0  0  0  0  0  0
   -2.2770   10.0650   -1.1560 C   0  0  0  0  0  0  0  0  0  0  0  0
   -2.7470    8.6550   -0.7870 C   0  0  0  0  0  0  0  0  0  0  0  0
   -4.2300    8.6030   -0.5760 C   0  0  2  0  0  0  0  0  0  0  0  0
   -4.7180    7.3580   -0.0610 O   0  0  0  0  0  0  0  0  0  0  0  0
   -5.1580    7.7140   -1.3820 C   0  0  0  0  0  0  0  0  0  0  0  0
   -4.6380    6.8150   -2.4590 C   0  0  0  0  0  0  0  0  0  0  0  0
   -6.6090    8.0750   -1.4560 C   0  0  0  0  0  0  0  0  0  0  0  0
   -0.3000   11.5230   -0.6330 C   0  0  1  0  0  0  0  0  0  0  0  0
    0.7970   11.3370    0.4490 C   0  0  0  0  0  0  0  0  0  0  0  0
    1.7370   12.5660    0.3480 C   0  0  0  0  0  0  0  0  0  0  0  0
    0.9730   13.5690   -0.5480 C   0  0  1  0  0  0  0  0  0  0  0  0
   -0.0440   14.2670    0.4090 C   0  0  0  0  0  0  0  0  0  0  0  0
    1.8470   14.6100   -1.3200 C   0  0  2  0  0  0  0  0  0  0  0  0
    2.6530   15.5730   -0.4310 C   0  0  0  0  0  0  0  0  0  0  0  0
    1.9560   16.8440   -0.0730 C   0  0  0  0  0  0  0  0  0  0  0  0
    0.8530   17.3280   -0.6750 C   0  0  0  0  0  0  0  0  0  0  0  0
    0.2500   16.6240   -1.8970 C   0  0  1  0  0  0  0  0  0  0  0  0
   -0.0710   17.6740   -2.9930 C   0  0  0  0  0  0  0  0  0  0  0  0
   -0.9540   18.8060   -2.4770 C   0  0  0  0  0  0  0  0  0  0  0  0
   -0.2950   19.5190   -1.2990 C   0  0  2  0  0  0  0  0  0  0  0  0
    0.8770   20.1940   -1.7660 O   0  0  0  0  0  0  0  0  0  0  0  0
    0.0840   18.5590   -0.1360 C   0  0  0  0  0  0  0  0  0  0  0  0
   -1.2030   18.0590    0.5660 C   0  0  0  0  0  0  0  0  0  0  0  0
    0.8670   19.3800    0.9240 C   0  0  0  0  0  0  0  0  0  0  0  0
    1.0730   15.3870   -2.4610 C   0  0  1  0  0  0  0  0  0  0  0  0
    2.1510   15.8810   -3.4730 C   0  0  0  0  0  0  0  0  0  0  0  0
    0.1020   14.4490   -3.2700 C   0  0  0  0  0  0  0  0  0  0  0  0
   -0.6420   13.3630   -2.4700 C   0  0  0  0  0  0  0  0  0  0  0  0
    0.3260   12.5770   -1.5810 C   0  0  2  0  0  0  0  0  0  0  0  0
    1.3480   11.8450   -2.5170 C   0  0  0  0  0  0  0  0  0  0  0  0
    0.8371    9.9048   -2.6974 H   0  0  0  0  0  0  0  0  0  0  0  0
   -0.7710    9.2932   -3.2141 H   0  0  0  0  0  0  0  0  0  0  0  0
   -0.4391   11.0586   -3.2141 H   0  0  0  0  0  0  0  0  0  0  0  0
   -0.3029    9.3629   -0.6931 H   0  0  0  0  0  0  0  0  0  0  0  0
   -2.6414   10.7644   -0.3891 H   0  0  0  0  0  0  0  0  0  0  0  0
   -2.6823   10.2882   -2.1539 H   0  0  0  0  0  0  0  0  0  0  0  0
   -2.4782    7.9652   -1.6006 H   0  0  0  0  0  0  0  0  0  0  0  0
   -2.2562    8.3649    0.1537 H   0  0  0  0  0  0  0  0  0  0  0  0
   -4.2581    9.6769   -0.3395 H   0  0  0  0  0  0  0  0  0  0  0  0
   -4.1368    5.9485   -2.0030 H   0  0  0  0  0  0  0  0  0  0  0  0
   -5.4749    6.4681   -3.0829 H   0  0  0  0  0  0  0  0  0  0  0  0
   -3.9200    7.3675   -3.0829 H   0  0  0  0  0  0  0  0  0  0  0  0
   -7.0141    8.1758   -0.4383 H   0  0  0  0  0  0  0  0  0  0  0  0
   -6.7227    9.0288   -1.9920 H   0  0  0  0  0  0  0  0  0  0  0  0
   -7.1564    7.2857   -1.9920 H   0  0  0  0  0  0  0  0  0  0  0  0
   -1.2677   11.8846   -0.2552 H   0  0  0  0  0  0  0  0  0  0  0  0
    0.3396   11.2909    1.4483 H   0  0  0  0  0  0  0  0  0  0  0  0
    1.3524   10.4006    0.2918 H   0  0  0  0  0  0  0  0  0  0  0  0
    1.9214   12.9967    1.3432 H   0  0  0  0  0  0  0  0  0  0  0  0
    2.7225   12.3046   -0.0648 H   0  0  0  0  0  0  0  0  0  0  0  0
    0.2413   14.0712    1.4532 H   0  0  0  0  0  0  0  0  0  0  0  0
   -0.0367   15.3513    0.2241 H   0  0  0  0  0  0  0  0  0  0  0  0
   -1.0532   13.8703    0.2241 H   0  0  0  0  0  0  0  0  0  0  0  0
    2.5908   13.9703   -1.8175 H   0  0  0  0  0  0  0  0  0  0  0  0
    2.9012   15.0467    0.5025 H   0  0  0  0  0  0  0  0  0  0  0  0
    3.5351   15.8648   -1.0198 H   0  0  0  0  0  0  0  0  0  0  0  0
    2.3794   17.4351    0.7524 H   0  0  0  0  0  0  0  0  0  0  0  0
   -0.6800   16.1519   -1.5474 H   0  0  0  0  0  0  0  0  0  0  0  0
    0.8739   18.1023   -3.3587 H   0  0  0  0  0  0  0  0  0  0  0  0
   -0.6204   17.1613   -3.7963 H   0  0  0  0  0  0  0  0  0  0  0  0
   -1.1214   19.5301   -3.2880 H   0  0  0  0  0  0  0  0  0  0  0  0
   -1.9097   18.3792   -2.1387 H   0  0  0  0  0  0  0  0  0  0  0  0
   -1.0283   20.2309   -0.8922 H   0  0  0  0  0  0  0  0  0  0  0  0
    1.5060   20.2380   -1.0270 H   0  0  0  0  0  0  0  0  0  0  0  0
   -1.0695   18.1109    1.6566 H   0  0  0  0  0  0  0  0  0  0  0  0
   -2.0520   18.6927    0.2699 H   0  0  0  0  0  0  0  0  0  0  0  0
   -1.4015   17.0183    0.2699 H   0  0  0  0  0  0  0  0  0  0  0  0
    0.5633   19.0615    1.9321 H   0  0  0  0  0  0  0  0  0  0  0  0
    1.9462   19.2102    0.7954 H   0  0  0  0  0  0  0  0  0  0  0  0
    0.6463   20.4499    0.7954 H   0  0  0  0  0  0  0  0  0  0  0  0
    3.0166   16.2777   -2.9222 H   0  0  0  0  0  0  0  0  0  0  0  0
    2.4727   15.0405   -4.1055 H   0  0  0  0  0  0  0  0  0  0  0  0
    1.7244   16.6735   -4.1055 H   0  0  0  0  0  0  0  0  0  0  0  0
   -0.6554   15.0874   -3.7484 H   0  0  0  0  0  0  0  0  0  0  0  0
    0.7494   13.8988   -3.9687 H   0  0  0  0  0  0  0  0  0  0  0  0
   -1.4043   13.8410   -1.8372 H   0  0  0  0  0  0  0  0  0  0  0  0
   -1.1121   12.6655   -3.1789 H   0  0  0  0  0  0  0  0  0  0  0  0
    2.0906   11.3131   -1.9041 H   0  0  0  0  0  0  0  0  0  0  0  0
    0.8124   11.1239   -3.1519 H   0  0  0  0  0  0  0  0  0  0  0  0
    1.8583   12.5842   -3.1519 H   0  0  0  0  0  0  0  0  0  0  0  0
  1  2  1  0
  2  3  1  0
  3  4  1  0
  4  5  1  0
  5  6  1  0
  6  7  1  0
  7  8  1  0
  7  9  1  0
  2 10  1  0
 10 11  1  0
 11 12  1  0
 12 13  1  0
 13 14  1  1
 13 15  1  0
 15 16  1  0
 16 17  1  0
 17 18  2  0
 18 19  1  0
 19 20  1  0
 20 21  1  0
 21 22  1  0
 22 23  1  0
 22 24  1  0
 24 25  1  0
 24 26  1  0
 19 27  1  0
 27 28  1  6
 27 29  1  0
 29 30  1  0
 30 31  1  0
 31 32  1  6
  7  5  1  0
 31 10  1  0
 31 13  1  0
 27 15  1  0
 24 18  1  0
  1 33  1  0
  1 34  1  0
  1 35  1  0
  2 36  1  1
  3 37  1  0
  3 38  1  0
  4 39  1  0
  4 40  1  0
  5 41  1  1
  8 42  1  0
  8 43  1  0
  8 44  1  0
  9 45  1  0
  9 46  1  0
  9 47  1  0
 10 48  1  1
 11 49  1  0
 11 50  1  0
 12 51  1  0
 12 52  1  0
 14 53  1  0
 14 54  1  0
 14 55  1  0
 15 56  1  6
 16 57  1  0
 16 58  1  0
 17 59  1  0
 19 60  1  1
 20 61  1  0
 20 62  1  0
 21 63  1  0
 21 64  1  0
 22 65  1  1
 23 66  1  0
 25 67  1  0
 25 68  1  0
 25 69  1  0
 26 70  1  0
 26 71  1  0
 26 72  1  0
 28 73  1  0
 28 74  1  0
 28 75  1  0
 29 76  1  0
 29 77  1  0
 30 78  1  0
 30 79  1  0
 32 80  1  0
 32 81  1  0
 32 82  1  0
M  END
>  <meeko>  (4) 
{"is_sidechain": [false], "intermolecular_energy": 2.731, "internal_energy": -0.839}

$$$$
EPH_relaxed_0001_pdb2pqr_Repair_333_r2_0001_out
     RDKit          3D

 82 86  0  0  0  0  0  0  0  0999 V2000
   -0.9410   16.5270   -5.8540 C   0  0  0  0  0  0  0  0  0  0  0  0
    0.1700   15.8450   -6.6570 C   0  0  2  0  0  0  0  0  0  0  0  0
   -0.2070   15.6750   -8.1430 C   0  0  0  0  0  0  0  0  0  0  0  0
    0.4840   16.6780   -9.0710 C   0  0  0  0  0  0  0  0  0  0  0  0
    1.8730   16.2400   -9.4250 C   0  0  2  0  0  0  0  0  0  0  0  0
    2.3580   16.7390  -10.6780 O   0  0  0  0  0  0  0  0  0  0  0  0
    2.1890   15.3160  -10.5850 C   0  0  0  0  0  0  0  0  0  0  0  0
    1.1090   14.7720  -11.4670 C   0  0  0  0  0  0  0  0  0  0  0  0
    3.4790   14.5560  -10.5640 C   0  0  0  0  0  0  0  0  0  0  0  0
    0.4960   14.4880   -6.0440 C   0  0  1  0  0  0  0  0  0  0  0  0
    1.7100   13.8010   -6.7250 C   0  0  0  0  0  0  0  0  0  0  0  0
    2.4660   13.0270   -5.6150 C   0  0  0  0  0  0  0  0  0  0  0  0
    1.4930   13.0170   -4.4140 C   0  0  1  0  0  0  0  0  0  0  0  0
    0.4930   11.8580   -4.7170 C   0  0  0  0  0  0  0  0  0  0  0  0
    2.1420   12.8650   -3.0000 C   0  0  2  0  0  0  0  0  0  0  0  0
    2.8980   11.5450   -2.7680 C   0  0  0  0  0  0  0  0  0  0  0  0
    2.0800   10.4310   -2.2030 C   0  0  0  0  0  0  0  0  0  0  0  0
    0.8690   10.5640   -1.6300 C   0  0  0  0  0  0  0  0  0  0  0  0
    0.2450   11.9490   -1.4170 C   0  0  1  0  0  0  0  0  0  0  0  0
   -0.3190   12.0470    0.0250 C   0  0  0  0  0  0  0  0  0  0  0  0
   -1.2870   10.9140    0.3530 C   0  0  0  0  0  0  0  0  0  0  0  0
   -0.6130    9.5550    0.1860 C   0  0  2  0  0  0  0  0  0  0  0  0
    0.4080    9.4210    1.1800 O   0  0  0  0  0  0  0  0  0  0  0  0
    0.0020    9.3450   -1.2260 C   0  0  0  0  0  0  0  0  0  0  0  0
   -1.1320    9.1890   -2.2690 C   0  0  0  0  0  0  0  0  0  0  0  0
    0.7720    7.9970   -1.2170 C   0  0  0  0  0  0  0  0  0  0  0  0
    1.1630   13.1890   -1.7990 C   0  0  1  0  0  0  0  0  0  0  0  0
    2.0610   13.5800   -0.5860 C   0  0  0  0  0  0  0  0  0  0  0  0
    0.2470   14.4350   -2.0930 C   0  0  0  0  0  0  0  0  0  0  0  0
   -0.2650   14.5950   -3.5370 C   0  0  0  0  0  0  0  0  0  0  0  0
    0.8810   14.4600   -4.5440 C   0  0  2  0  0  0  0  0  0  0  0  0
    1.8930   15.6270   -4.2780 C   0  0  0  0  0  0  0  0  0  0  0  0
   -0.7435   16.4058   -4.7787 H   0  0  0  0  0  0  0  0  0  0  0  0
   -0.9690   17.5980   -6.1032 H   0  0  0  0  0  0  0  0  0  0  0  0
   -1.9087   16.0672   -6.1032 H   0  0  0  0  0  0  0  0  0  0  0  0
    1.0561   16.4954   -6.6139 H   0  0  0  0  0  0  0  0  0  0  0  0
    0.0735   14.6593   -8.4586 H   0  0  0  0  0  0  0  0  0  0  0  0
   -1.2892   15.8550   -8.2231 H   0  0  0  0  0  0  0  0  0  0  0  0
   -0.1058   16.7740   -9.9946 H   0  0  0  0  0  0  0  0  0  0  0  0
    0.5520   17.6415   -8.5447 H   0  0  0  0  0  0  0  0  0  0  0  0
    2.1605   16.2165   -8.3635 H   0  0  0  0  0  0  0  0  0  0  0  0
    0.2986   14.3638  -10.8452 H   0  0  0  0  0  0  0  0  0  0  0  0
    0.7133   15.5783  -12.1020 H   0  0  0  0  0  0  0  0  0  0  0  0
    1.5214   13.9741  -12.1020 H   0  0  0  0  0  0  0  0  0  0  0  0
    3.7824   14.3773   -9.5219 H   0  0  0  0  0  0  0  0  0  0  0  0
    3.3453   13.5924  -11.0774 H   0  0  0  0  0  0  0  0  0  0  0  0
    4.2571   15.1400  -11.0774 H   0  0  0  0  0  0  0  0  0  0  0  0
   -0.4684   13.9808   -6.1946 H   0  0  0  0  0  0  0  0  0  0  0  0
    1.3639   13.1052   -7.5035 H   0  0  0  0  0  0  0  0  0  0  0  0
    2.3650   14.5424   -7.2059 H   0  0  0  0  0  0  0  0  0  0  0  0
    2.6905   12.0008   -5.9413 H   0  0  0  0  0  0  0  0  0  0  0  0
    3.4312   13.4921   -5.3658 H   0  0  0  0  0  0  0  0  0  0  0  0
    0.1265   11.4332   -3.7708 H   0  0  0  0  0  0  0  0  0  0  0  0
   -0.3562   12.2486   -5.2969 H   0  0  0  0  0  0  0  0  0  0  0  0
    1.0038   11.0752   -5.2969 H   0  0  0  0  0  0  0  0  0  0  0  0
    2.9101   13.6524   -3.0070 H   0  0  0  0  0  0  0  0  0  0  0  0
    3.3042   11.2118   -3.7344 H   0  0  0  0  0  0  0  0  0  0  0  0
    3.6709   11.7655   -2.0170 H   0  0  0  0  0  0  0  0  0  0  0  0
    2.5021    9.4168   -2.2597 H   0  0  0  0  0  0  0  0  0  0  0  0
   -0.5761   12.0278   -2.1447 H   0  0  0  0  0  0  0  0  0  0  0  0
    0.5203   12.0104    0.7351 H   0  0  0  0  0  0  0  0  0  0  0  0
   -0.8742   12.9934    0.1027 H   0  0  0  0  0  0  0  0  0  0  0  0
   -1.6276   11.0214    1.3934 H   0  0  0  0  0  0  0  0  0  0  0  0
   -2.1403   10.9700   -0.3389 H   0  0  0  0  0  0  0  0  0  0  0  0
   -1.3893    8.7852    0.3075 H   0  0  0  0  0  0  0  0  0  0  0  0
    0.8940    8.6000    0.9940 H   0  0  0  0  0  0  0  0  0  0  0  0
   -2.0925    9.0569   -1.7494 H   0  0  0  0  0  0  0  0  0  0  0  0
   -1.1769   10.0894   -2.8993 H   0  0  0  0  0  0  0  0  0  0  0  0
   -0.9321    8.3099   -2.8993 H   0  0  0  0  0  0  0  0  0  0  0  0
    0.9509    7.6838   -0.1778 H   0  0  0  0  0  0  0  0  0  0  0  0
    0.1755    7.2305   -1.7334 H   0  0  0  0  0  0  0  0  0  0  0  0
    1.7352    8.1215   -1.7334 H   0  0  0  0  0  0  0  0  0  0  0  0
    1.5324   13.3498    0.3508 H   0  0  0  0  0  0  0  0  0  0  0  0
    3.0007   13.0095   -0.6265 H   0  0  0  0  0  0  0  0  0  0  0  0
    2.2836   14.6565   -0.6265 H   0  0  0  0  0  0  0  0  0  0  0  0
   -0.6312   14.3653   -1.4343 H   0  0  0  0  0  0  0  0  0  0  0  0
    0.8876   15.3115   -1.9158 H   0  0  0  0  0  0  0  0  0  0  0  0
   -1.0161   13.8176   -3.7405 H   0  0  0  0  0  0  0  0  0  0  0  0
   -0.7082   15.5962   -3.6427 H   0  0  0  0  0  0  0  0  0  0  0  0
    2.0144   15.7670   -3.1937 H   0  0  0  0  0  0  0  0  0  0  0  0
    2.8659   15.3781   -4.7268 H   0  0  0  0  0  0  0  0  0  0  0  0
    1.5088   16.5549   -4.7268 H   0  0  0  0  0  0  0  0  0  0  0  0
  1  2  1  0
  2  3  1  0
  3  4  1  0
  4  5  1  0
  5  6  1  0
  6  7  1  0
  7  8  1  0
  7  9  1  0
  2 10  1  0
 10 11  1  0
 11 12  1  0
 12 13  1  0
 13 14  1  6
 13 15  1  0
 15 16  1  0
 16 17  1  0
 17 18  2  0
 18 19  1  0
 19 20  1  0
 20 21  1  0
 21 22  1  0
 22 23  1  0
 22 24  1  0
 24 25  1  0
 24 26  1  0
 19 27  1  0
 27 28  1  1
 27 29  1  0
 29 30  1  0
 30 31  1  0
 31 32  1  6
  7  5  1  0
 31 10  1  0
 31 13  1  0
 27 15  1  0
 24 18  1  0
  1 33  1  0
  1 34  1  0
  1 35  1  0
  2 36  1  6
  3 37  1  0
  3 38  1  0
  4 39  1  0
  4 40  1  0
  5 41  1  1
  8 42  1  0
  8 43  1  0
  8 44  1  0
  9 45  1  0
  9 46  1  0
  9 47  1  0
 10 48  1  1
 11 49  1  0
 11 50  1  0
 12 51  1  0
 12 52  1  0
 14 53  1  0
 14 54  1  0
 14 55  1  0
 15 56  1  6
 16 57  1  0
 16 58  1  0
 17 59  1  0
 19 60  1  6
 20 61  1  0
 20 62  1  0
 21 63  1  0
 21 64  1  0
 22 65  1  1
 23 66  1  0
 25 67  1  0
 25 68  1  0
 25 69  1  0
 26 70  1  0
 26 71  1  0
 26 72  1  0
 28 73  1  0
 28 74  1  0
 28 75  1  0
 29 76  1  0
 29 77  1  0
 30 78  1  0
 30 79  1  0
 32 80  1  0
 32 81  1  0
 32 82  1  0
M  END
>  <meeko>  (5) 
{"is_sidechain": [false], "intermolecular_energy": 2.731, "internal_energy": -0.839}

$$$$
EPH_relaxed_0001_pdb2pqr_Repair_333_r2_0001_out
     RDKit          3D

 82 86  0  0  0  0  0  0  0  0999 V2000
   -2.2170    7.8390   -2.2240 C   0  0  0  0  0  0  0  0  0  0  0  0
   -2.1400    8.4550   -0.8240 C   0  0  2  0  0  0  0  0  0  0  0  0
   -3.4930    8.3920   -0.0880 C   0  0  0  0  0  0  0  0  0  0  0  0
   -4.7060    8.5020   -1.0170 C   0  0  0  0  0  0  0  0  0  0  0  0
   -5.5180    7.2430   -1.0190 C   0  0  2  0  0  0  0  0  0  0  0  0
   -5.5990    6.5850   -2.2900 O   0  0  0  0  0  0  0  0  0  0  0  0
   -6.8330    7.0970   -1.7620 C   0  0  0  0  0  0  0  0  0  0  0  0
   -7.4110    8.2270   -2.5540 C   0  0  0  0  0  0  0  0  0  0  0  0
   -7.7890    6.0320   -1.3230 C   0  0  0  0  0  0  0  0  0  0  0  0
   -1.6640    9.9000   -0.9170 C   0  0  1  0  0  0  0  0  0  0  0  0
   -1.2790   10.4920    0.4640 C   0  0  0  0  0  0  0  0  0  0  0  0
   -0.0860   11.4530    0.2230 C   0  0  0  0  0  0  0  0  0  0  0  0
   -0.0400   11.6370   -1.3120 C   0  0  1  0  0  0  0  0  0  0  0  0
   -1.1300   12.7110   -1.6210 C   0  0  0  0  0  0  0  0  0  0  0  0
    1.3470   12.0320   -1.9190 C   0  0  2  0  0  0  0  0  0  0  0  0
    1.9030   13.3870   -1.4490 C   0  0  0  0  0  0  0  0  0  0  0  0
    1.5170   14.5600   -2.2870 C   0  0  0  0  0  0  0  0  0  0  0  0
    0.9960   14.4980   -3.5270 C   0  0  0  0  0  0  0  0  0  0  0  0
    0.8360   13.1530   -4.2470 C   0  0  1  0  0  0  0  0  0  0  0  0
    1.3600   13.2790   -5.7020 C   0  0  0  0  0  0  0  0  0  0  0  0
    0.7060   14.4300   -6.4620 C   0  0  0  0  0  0  0  0  0  0  0  0
    0.9370   15.7570   -5.7450 C   0  0  2  0  0  0  0  0  0  0  0  0
    2.3320   16.0720   -5.7950 O   0  0  0  0  0  0  0  0  0  0  0  0
    0.4570   15.7470   -4.2660 C   0  0  0  0  0  0  0  0  0  0  0  0
   -1.0910   15.7080   -4.2220 C   0  0  0  0  0  0  0  0  0  0  0  0
    0.8760   17.0950   -3.6190 C   0  0  0  0  0  0  0  0  0  0  0  0
    1.4300   11.8870   -3.4920 C   0  0  1  0  0  0  0  0  0  0  0  0
    2.9400   11.7180   -3.8440 C   0  0  0  0  0  0  0  0  0  0  0  0
    0.7050   10.5900   -4.0140 C   0  0  0  0  0  0  0  0  0  0  0  0
   -0.5970   10.1860   -3.2950 C   0  0  0  0  0  0  0  0  0  0  0  0
   -0.4060   10.1800   -1.7760 C   0  0  2  0  0  0  0  0  0  0  0  0
    0.6700    9.0940   -1.4330 C   0  0  0  0  0  0  0  0  0  0  0  0
   -2.3530    6.7508   -2.1388 H   0  0  0  0  0  0  0  0  0  0  0  0
   -3.0678    8.2733   -2.7694 H   0  0  0  0  0  0  0  0  0  0  0  0
   -1.2854    8.0505   -2.7694 H   0  0  0  0  0  0  0  0  0  0  0  0
   -1.4188    7.8635   -0.2410 H   0  0  0  0  0  0  0  0  0  0  0  0
   -3.5522    7.4333    0.4481 H   0  0  0  0  0  0  0  0  0  0  0  0
   -3.5295    9.2563    0.5914 H   0  0  0  0  0  0  0  0  0  0  0  0
   -5.3401    9.3347   -0.6784 H   0  0  0  0  0  0  0  0  0  0  0  0
   -4.3402    8.6759   -2.0397 H   0  0  0  0  0  0  0  0  0  0  0  0
   -5.2299    7.0274    0.0205 H   0  0  0  0  0  0  0  0  0  0  0  0
   -7.8027    8.9927   -1.8683 H   0  0  0  0  0  0  0  0  0  0  0  0
   -6.6280    8.6686   -3.1880 H   0  0  0  0  0  0  0  0  0  0  0  0
   -8.2273    7.8505   -3.1880 H   0  0  0  0  0  0  0  0  0  0  0  0
   -7.8200    5.9975   -0.2240 H   0  0  0  0  0  0  0  0  0  0  0  0
   -8.7931    6.2579   -1.7112 H   0  0  0  0  0  0  0  0  0  0  0  0
   -7.4564    5.0580   -1.7112 H   0  0  0  0  0  0  0  0  0  0  0  0
   -2.5484   10.3558   -1.3860 H   0  0  0  0  0  0  0  0  0  0  0  0
   -2.1298   11.0440    0.8898 H   0  0  0  0  0  0  0  0  0  0  0  0
   -1.0074    9.6958    1.1728 H   0  0  0  0  0  0  0  0  0  0  0  0
   -0.2558   12.4169    0.7251 H   0  0  0  0  0  0  0  0  0  0  0  0
    0.8580   11.0564    0.6249 H   0  0  0  0  0  0  0  0  0  0  0  0
   -1.5322   13.1073   -0.6770 H   0  0  0  0  0  0  0  0  0  0  0  0
   -0.6825   13.5310   -2.2019 H   0  0  0  0  0  0  0  0  0  0  0  0
   -1.9433   12.2515   -2.2019 H   0  0  0  0  0  0  0  0  0  0  0  0
    2.0169   11.2710   -1.4924 H   0  0  0  0  0  0  0  0  0  0  0  0
    1.5410   13.5664   -0.4259 H   0  0  0  0  0  0  0  0  0  0  0  0
    2.9978   13.3083   -1.5217 H   0  0  0  0  0  0  0  0  0  0  0  0
    1.6712   15.5598   -1.8551 H   0  0  0  0  0  0  0  0  0  0  0  0
   -0.2430   12.9395   -4.2559 H   0  0  0  0  0  0  0  0  0  0  0  0
    2.4465   13.4484   -5.6721 H   0  0  0  0  0  0  0  0  0  0  0  0
    1.1101   12.3463   -6.2289 H   0  0  0  0  0  0  0  0  0  0  0  0
    1.1383   14.4863   -7.4719 H   0  0  0  0  0  0  0  0  0  0  0  0
   -0.3768   14.2443   -6.5173 H   0  0  0  0  0  0  0  0  0  0  0  0
    0.3383   16.5199   -6.2641 H   0  0  0  0  0  0  0  0  0  0  0  0
    2.5930   16.3960   -4.9160 H   0  0  0  0  0  0  0  0  0  0  0  0
   -1.4280   15.6995   -3.1749 H   0  0  0  0  0  0  0  0  0  0  0  0
   -1.4947   16.5963   -4.7299 H   0  0  0  0  0  0  0  0  0  0  0  0
   -1.4495   14.8005   -4.7299 H   0  0  0  0  0  0  0  0  0  0  0  0
    0.8467   17.0007   -2.5234 H   0  0  0  0  0  0  0  0  0  0  0  0
    1.8967   17.3530   -3.9376 H   0  0  0  0  0  0  0  0  0  0  0  0
    0.1814   17.8862   -3.9376 H   0  0  0  0  0  0  0  0  0  0  0  0
    3.5276   11.6522   -2.9164 H   0  0  0  0  0  0  0  0  0  0  0  0
    3.0788   10.7987   -4.4319 H   0  0  0  0  0  0  0  0  0  0  0  0
    3.2786   12.5839   -4.4319 H   0  0  0  0  0  0  0  0  0  0  0  0
    0.4640   10.7476   -5.0756 H   0  0  0  0  0  0  0  0  0  0  0  0
    1.4092    9.7677   -3.8190 H   0  0  0  0  0  0  0  0  0  0  0  0
   -1.3891   10.9036   -3.5551 H   0  0  0  0  0  0  0  0  0  0  0  0
   -0.8749    9.1716   -3.6172 H   0  0  0  0  0  0  0  0  0  0  0  0
    0.7620    9.0011   -0.3408 H   0  0  0  0  0  0  0  0  0  0  0  0
    0.3637    8.1271   -1.8587 H   0  0  0  0  0  0  0  0  0  0  0  0
    1.6397    9.3913   -1.8587 H   0  0  0  0  0  0  0  0  0  0  0  0
  1  2  1  0
  2  3  1  0
  3  4  1  0
  4  5  1  0
  5  6  1  0
  6  7  1  0
  7  8  1  0
  7  9  1  0
  2 10  1  0
 10 11  1  0
 11 12  1  0
 12 13  1  0
 13 14  1  1
 13 15  1  0
 15 16  1  0
 16 17  1  0
 17 18  2  0
 18 19  1  0
 19 20  1  0
 20 21  1  0
 21 22  1  0
 22 23  1  0
 22 24  1  0
 24 25  1  0
 24 26  1  0
 19 27  1  0
 27 28  1  1
 27 29  1  0
 29 30  1  0
 30 31  1  0
 31 32  1  6
  7  5  1  0
 31 10  1  0
 31 13  1  0
 27 15  1  0
 24 18  1  0
  1 33  1  0
  1 34  1  0
  1 35  1  0
  2 36  1  1
  3 37  1  0
  3 38  1  0
  4 39  1  0
  4 40  1  0
  5 41  1  1
  8 42  1  0
  8 43  1  0
  8 44  1  0
  9 45  1  0
  9 46  1  0
  9 47  1  0
 10 48  1  6
 11 49  1  0
 11 50  1  0
 12 51  1  0
 12 52  1  0
 14 53  1  0
 14 54  1  0
 14 55  1  0
 15 56  1  1
 16 57  1  0
 16 58  1  0
 17 59  1  0
 19 60  1  6
 20 61  1  0
 20 62  1  0
 21 63  1  0
 21 64  1  0
 22 65  1  6
 23 66  1  0
 25 67  1  0
 25 68  1  0
 25 69  1  0
 26 70  1  0
 26 71  1  0
 26 72  1  0
 28 73  1  0
 28 74  1  0
 28 75  1  0
 29 76  1  0
 29 77  1  0
 30 78  1  0
 30 79  1  0
 32 80  1  0
 32 81  1  0
 32 82  1  0
M  END
>  <meeko>  (6) 
{"is_sidechain": [false], "intermolecular_energy": 2.731, "internal_energy": -0.839}

$$$$
EPH_relaxed_0001_pdb2pqr_Repair_333_r2_0001_out
     RDKit          3D

 82 86  0  0  0  0  0  0  0  0999 V2000
    0.5620   18.7160   -0.7330 C   0  0  0  0  0  0  0  0  0  0  0  0
    1.0430   17.4310   -0.0530 C   0  0  2  0  0  0  0  0  0  0  0  0
    2.5730   17.4120    0.1370 C   0  0  0  0  0  0  0  0  0  0  0  0
    3.1330   18.6990    0.7470 C   0  0  0  0  0  0  0  0  0  0  0  0
    3.9210   18.4260    1.9930 C   0  0  2  0  0  0  0  0  0  0  0  0
    3.9510   19.5090    2.9320 O   0  0  0  0  0  0  0  0  0  0  0  0
    5.2100   19.1460    2.3420 C   0  0  0  0  0  0  0  0  0  0  0  0
    5.7860   20.1940    1.4430 C   0  0  0  0  0  0  0  0  0  0  0  0
    6.1580   18.4920    3.2990 C   0  0  0  0  0  0  0  0  0  0  0  0
    0.6030   16.2180   -0.8640 C   0  0  1  0  0  0  0  0  0  0  0  0
    0.5950   16.4920   -2.3920 C   0  0  0  0  0  0  0  0  0  0  0  0
    1.0190   15.1720   -3.0850 C   0  0  0  0  0  0  0  0  0  0  0  0
    0.9350   14.1020   -1.9720 C   0  0  1  0  0  0  0  0  0  0  0  0
   -0.5770   13.7220   -1.8940 C   0  0  0  0  0  0  0  0  0  0  0  0
    1.8380   12.8390   -2.1580 C   0  0  2  0  0  0  0  0  0  0  0  0
    1.5220   11.9880   -3.4000 C   0  0  0  0  0  0  0  0  0  0  0  0
    0.5250   10.8970   -3.1890 C   0  0  0  0  0  0  0  0  0  0  0  0
    0.1200   10.4280   -1.9940 C   0  0  0  0  0  0  0  0  0  0  0  0
    0.7520   10.9380   -0.6920 C   0  0  1  0  0  0  0  0  0  0  0  0
    1.0940    9.7340    0.2240 C   0  0  0  0  0  0  0  0  0  0  0  0
   -0.1090    8.8300    0.4750 C   0  0  0  0  0  0  0  0  0  0  0  0
   -0.6740    8.2960   -0.8390 C   0  0  2  0  0  0  0  0  0  0  0  0
    0.2880    7.4170   -1.4300 O   0  0  0  0  0  0  0  0  0  0  0  0
   -1.0450    9.4190   -1.8470 C   0  0  0  0  0  0  0  0  0  0  0  0
   -2.2900   10.1860   -1.3370 C   0  0  0  0  0  0  0  0  0  0  0  0
   -1.4680    8.7430   -3.1800 C   0  0  0  0  0  0  0  0  0  0  0  0
    1.9730   11.9420   -0.8610 C   0  0  1  0  0  0  0  0  0  0  0  0
    3.3030   11.1420   -1.0090 C   0  0  0  0  0  0  0  0  0  0  0  0
    2.1160   12.8020    0.4500 C   0  0  0  0  0  0  0  0  0  0  0  0
    1.2880   14.1000    0.5230 C   0  0  0  0  0  0  0  0  0  0  0  0
    1.4650   14.9350   -0.7490 C   0  0  2  0  0  0  0  0  0  0  0  0
    2.9730   15.3510   -0.8430 C   0  0  0  0  0  0  0  0  0  0  0  0
    0.2854   19.4550    0.0334 H   0  0  0  0  0  0  0  0  0  0  0  0
    1.3687   19.1229   -1.3604 H   0  0  0  0  0  0  0  0  0  0  0  0
   -0.3136   18.4932   -1.3604 H   0  0  0  0  0  0  0  0  0  0  0  0
    0.5863   17.3948    0.9471 H   0  0  0  0  0  0  0  0  0  0  0  0
    2.8302   16.5728    0.8000 H   0  0  0  0  0  0  0  0  0  0  0  0
    3.0199   17.3091   -0.8628 H   0  0  0  0  0  0  0  0  0  0  0  0
    3.7886   19.1865    0.0104 H   0  0  0  0  0  0  0  0  0  0  0  0
    2.2862   19.3488    1.0128 H   0  0  0  0  0  0  0  0  0  0  0  0
    3.6601   17.3582    1.9522 H   0  0  0  0  0  0  0  0  0  0  0  0
    6.2273   20.9970    2.0516 H   0  0  0  0  0  0  0  0  0  0  0  0
    6.5642   19.7452    0.8082 H   0  0  0  0  0  0  0  0  0  0  0  0
    4.9900   20.6104    0.8082 H   0  0  0  0  0  0  0  0  0  0  0  0
    5.8446   18.7082    4.3310 H   0  0  0  0  0  0  0  0  0  0  0  0
    6.1529   17.4044    3.1345 H   0  0  0  0  0  0  0  0  0  0  0  0
    7.1729   18.8830    3.1345 H   0  0  0  0  0  0  0  0  0  0  0  0
   -0.3879   16.0473   -0.4180 H   0  0  0  0  0  0  0  0  0  0  0  0
   -0.4136   16.7846   -2.7191 H   0  0  0  0  0  0  0  0  0  0  0  0
    1.2816   17.3118   -2.6499 H   0  0  0  0  0  0  0  0  0  0  0  0
    0.3331   14.9289   -3.9098 H   0  0  0  0  0  0  0  0  0  0  0  0
    2.0247   15.2369   -3.5259 H   0  0  0  0  0  0  0  0  0  0  0  0
   -0.8819   13.6454   -0.8399 H   0  0  0  0  0  0  0  0  0  0  0  0
   -1.1762   14.4975   -2.3936 H   0  0  0  0  0  0  0  0  0  0  0  0
   -0.7384   12.7554   -2.3936 H   0  0  0  0  0  0  0  0  0  0  0  0
    2.8276   13.2819   -2.3439 H   0  0  0  0  0  0  0  0  0  0  0  0
    1.1326   12.6578   -4.1808 H   0  0  0  0  0  0  0  0  0  0  0  0
    2.4636   11.4905   -3.6755 H   0  0  0  0  0  0  0  0  0  0  0  0
    0.0841   10.4375   -4.0859 H   0  0  0  0  0  0  0  0  0  0  0  0
   -0.0101   11.5685   -0.2107 H   0  0  0  0  0  0  0  0  0  0  0  0
    1.8871    9.1408   -0.2547 H   0  0  0  0  0  0  0  0  0  0  0  0
    1.4189   10.1350    1.1954 H   0  0  0  0  0  0  0  0  0  0  0  0
    0.2023    7.9828    1.1037 H   0  0  0  0  0  0  0  0  0  0  0  0
   -0.8901    9.4172    0.9801 H   0  0  0  0  0  0  0  0  0  0  0  0
   -1.6078    7.7637   -0.6054 H   0  0  0  0  0  0  0  0  0  0  0  0
    0.7180    6.9240   -0.7110 H   0  0  0  0  0  0  0  0  0  0  0  0
   -2.2940   10.1885   -0.2370 H   0  0  0  0  0  0  0  0  0  0  0  0
   -2.2591   11.2218   -1.7059 H   0  0  0  0  0  0  0  0  0  0  0  0
   -3.2012    9.6925   -1.7059 H   0  0  0  0  0  0  0  0  0  0  0  0
   -2.0399    7.8290   -2.9622 H   0  0  0  0  0  0  0  0  0  0  0  0
   -2.0932    9.4371   -3.7609 H   0  0  0  0  0  0  0  0  0  0  0  0
   -0.5704    8.4842   -3.7609 H   0  0  0  0  0  0  0  0  0  0  0  0
    3.7001   10.9031   -0.0114 H   0  0  0  0  0  0  0  0  0  0  0  0
    3.1107   10.2096   -1.5600 H   0  0  0  0  0  0  0  0  0  0  0  0
    4.0365   11.7489   -1.5600 H   0  0  0  0  0  0  0  0  0  0  0  0
    1.8170   12.1683    1.2980 H   0  0  0  0  0  0  0  0  0  0  0  0
    3.1661   13.1290    0.4668 H   0  0  0  0  0  0  0  0  0  0  0  0
    0.2249   13.8427    0.6396 H   0  0  0  0  0  0  0  0  0  0  0  0
    1.6373   14.6912    1.3823 H   0  0  0  0  0  0  0  0  0  0  0  0
    3.3858   15.4649    0.1702 H   0  0  0  0  0  0  0  0  0  0  0  0
    3.5347   14.5743   -1.3826 H   0  0  0  0  0  0  0  0  0  0  0  0
    3.0570   16.3059   -1.3826 H   0  0  0  0  0  0  0  0  0  0  0  0
  1  2  1  0
  2  3  1  0
  3  4  1  0
  4  5  1  0
  5  6  1  0
  6  7  1  0
  7  8  1  0
  7  9  1  0
  2 10  1  0
 10 11  1  0
 11 12  1  0
 12 13  1  0
 13 14  1  1
 13 15  1  0
 15 16  1  0
 16 17  1  0
 17 18  2  0
 18 19  1  0
 19 20  1  0
 20 21  1  0
 21 22  1  0
 22 23  1  0
 22 24  1  0
 24 25  1  0
 24 26  1  0
 19 27  1  0
 27 28  1  6
 27 29  1  0
 29 30  1  0
 30 31  1  0
 31 32  1  6
  7  5  1  0
 31 10  1  0
 31 13  1  0
 27 15  1  0
 24 18  1  0
  1 33  1  0
  1 34  1  0
  1 35  1  0
  2 36  1  1
  3 37  1  0
  3 38  1  0
  4 39  1  0
  4 40  1  0
  5 41  1  1
  8 42  1  0
  8 43  1  0
  8 44  1  0
  9 45  1  0
  9 46  1  0
  9 47  1  0
 10 48  1  1
 11 49  1  0
 11 50  1  0
 12 51  1  0
 12 52  1  0
 14 53  1  0
 14 54  1  0
 14 55  1  0
 15 56  1  6
 16 57  1  0
 16 58  1  0
 17 59  1  0
 19 60  1  1
 20 61  1  0
 20 62  1  0
 21 63  1  0
 21 64  1  0
 22 65  1  1
 23 66  1  0
 25 67  1  0
 25 68  1  0
 25 69  1  0
 26 70  1  0
 26 71  1  0
 26 72  1  0
 28 73  1  0
 28 74  1  0
 28 75  1  0
 29 76  1  0
 29 77  1  0
 30 78  1  0
 30 79  1  0
 32 80  1  0
 32 81  1  0
 32 82  1  0
M  END
>  <meeko>  (7) 
{"is_sidechain": [false], "intermolecular_energy": 2.731, "internal_energy": -0.839}

$$$$
EPH_relaxed_0001_pdb2pqr_Repair_333_r2_0001_out
     RDKit          3D

 82 86  0  0  0  0  0  0  0  0999 V2000
   -0.0620   10.3850   -3.6870 C   0  0  0  0  0  0  0  0  0  0  0  0
    1.0720   10.2400   -2.6690 C   0  0  2  0  0  0  0  0  0  0  0  0
    0.9250    8.9650   -1.8140 C   0  0  0  0  0  0  0  0  0  0  0  0
    0.1630    9.1870   -0.5040 C   0  0  0  0  0  0  0  0  0  0  0  0
   -1.2180    8.6070   -0.5620 C   0  0  2  0  0  0  0  0  0  0  0  0
   -1.8840    8.7700   -1.8210 O   0  0  0  0  0  0  0  0  0  0  0  0
   -2.4730    9.4480   -0.6990 C   0  0  0  0  0  0  0  0  0  0  0  0
   -2.4070   10.9400   -0.7860 C   0  0  0  0  0  0  0  0  0  0  0  0
   -3.7780    8.8620   -0.2580 C   0  0  0  0  0  0  0  0  0  0  0  0
    1.1210   11.4690   -1.7680 C   0  0  1  0  0  0  0  0  0  0  0  0
    2.1810   11.3410   -0.6410 C   0  0  0  0  0  0  0  0  0  0  0  0
    2.7630   12.7590   -0.4110 C   0  0  0  0  0  0  0  0  0  0  0  0
    1.7980   13.7040   -1.1660 C   0  0  1  0  0  0  0  0  0  0  0  0
    0.5920   13.9040   -0.1960 C   0  0  0  0  0  0  0  0  0  0  0  0
    2.3950   15.0700   -1.6350 C   0  0  2  0  0  0  0  0  0  0  0  0
    2.8760   15.9950   -0.5030 C   0  0  0  0  0  0  0  0  0  0  0  0
    1.8520   16.9440    0.0240 C   0  0  0  0  0  0  0  0  0  0  0  0
    0.6870   17.2500   -0.5770 C   0  0  0  0  0  0  0  0  0  0  0  0
    0.3460   16.6920   -1.9650 C   0  0  1  0  0  0  0  0  0  0  0  0
   -0.1970   17.8340   -2.8630 C   0  0  0  0  0  0  0  0  0  0  0  0
   -1.3710   18.5720   -2.2260 C   0  0  0  0  0  0  0  0  0  0  0  0
   -0.9760   19.1620   -0.8750 C   0  0  2  0  0  0  0  0  0  0  0  0
   -0.0080   20.1940   -1.0880 O   0  0  0  0  0  0  0  0  0  0  0  0
   -0.4050   18.1050    0.1120 C   0  0  0  0  0  0  0  0  0  0  0  0
   -1.5410   17.1600    0.5770 C   0  0  0  0  0  0  0  0  0  0  0  0
    0.0850   18.8530    1.3810 C   0  0  0  0  0  0  0  0  0  0  0  0
    1.4920   15.8500   -2.6740 C   0  0  1  0  0  0  0  0  0  0  0  0
    2.4410   16.8030   -3.4630 C   0  0  0  0  0  0  0  0  0  0  0  0
    0.8400   14.8910   -3.7390 C   0  0  0  0  0  0  0  0  0  0  0  0
    0.3790   13.5080   -3.2390 C   0  0  0  0  0  0  0  0  0  0  0  0
    1.4830   12.8220   -2.4290 C   0  0  2  0  0  0  0  0  0  0  0  0
    2.7020   12.5870   -3.3850 C   0  0  0  0  0  0  0  0  0  0  0  0
   -1.0177   10.5072   -3.1563 H   0  0  0  0  0  0  0  0  0  0  0  0
    0.1223   11.2669   -4.3181 H   0  0  0  0  0  0  0  0  0  0  0  0
   -0.1055    9.4851   -4.3181 H   0  0  0  0  0  0  0  0  0  0  0  0
    2.0134   10.1533   -3.2314 H   0  0  0  0  0  0  0  0  0  0  0  0
    0.3862    8.2103   -2.4056 H   0  0  0  0  0  0  0  0  0  0  0  0
    1.9406    8.6399   -1.5442 H   0  0  0  0  0  0  0  0  0  0  0  0
    0.7170    8.7076    0.3165 H   0  0  0  0  0  0  0  0  0  0  0  0
    0.0736   10.2708   -0.3382 H   0  0  0  0  0  0  0  0  0  0  0  0
   -0.9377    7.8090    0.1413 H   0  0  0  0  0  0  0  0  0  0  0  0
   -2.3882   11.3659    0.2280 H   0  0  0  0  0  0  0  0  0  0  0  0
   -1.4949   11.2359   -1.3250 H   0  0  0  0  0  0  0  0  0  0  0  0
   -3.2894   11.3153   -1.3250 H   0  0  0  0  0  0  0  0  0  0  0  0
   -3.8189    8.8436    0.8411 H   0  0  0  0  0  0  0  0  0  0  0  0
   -4.6049    9.4752   -0.6455 H   0  0  0  0  0  0  0  0  0  0  0  0
   -3.8691    7.8366   -0.6455 H   0  0  0  0  0  0  0  0  0  0  0  0
    0.0765   11.4866   -1.4234 H   0  0  0  0  0  0  0  0  0  0  0  0
    1.7101   10.9706    0.2816 H   0  0  0  0  0  0  0  0  0  0  0  0
    2.9722   10.6303   -0.9219 H   0  0  0  0  0  0  0  0  0  0  0  0
    2.7834   13.0011    0.6618 H   0  0  0  0  0  0  0  0  0  0  0  0
    3.7992   12.8478   -0.7692 H   0  0  0  0  0  0  0  0  0  0  0  0
    0.9446   13.8455    0.8443 H   0  0  0  0  0  0  0  0  0  0  0  0
    0.1376   14.8898   -0.3743 H   0  0  0  0  0  0  0  0  0  0  0  0
   -0.1563   13.1177   -0.3743 H   0  0  0  0  0  0  0  0  0  0  0  0
    3.3027   14.7581   -2.1724 H   0  0  0  0  0  0  0  0  0  0  0  0
    3.2149   15.3632    0.3312 H   0  0  0  0  0  0  0  0  0  0  0  0
    3.6726   16.6173   -0.9367 H   0  0  0  0  0  0  0  0  0  0  0  0
    2.0673   17.4349    0.9846 H   0  0  0  0  0  0  0  0  0  0  0  0
   -0.4388   15.9379   -1.8055 H   0  0  0  0  0  0  0  0  0  0  0  0
    0.6141   18.5540   -3.0467 H   0  0  0  0  0  0  0  0  0  0  0  0
   -0.5560   17.3807   -3.7988 H   0  0  0  0  0  0  0  0  0  0  0  0
   -1.6905   19.3851   -2.8944 H   0  0  0  0  0  0  0  0  0  0  0  0
   -2.1923   17.8570   -2.0703 H   0  0  0  0  0  0  0  0  0  0  0  0
   -1.8888   19.5634   -0.4107 H   0  0  0  0  0  0  0  0  0  0  0  0
   -0.4470   21.0460   -0.9280 H   0  0  0  0  0  0  0  0  0  0  0  0
   -1.5706   17.1354    1.6763 H   0  0  0  0  0  0  0  0  0  0  0  0
   -2.5039   17.5273    0.1924 H   0  0  0  0  0  0  0  0  0  0  0  0
   -1.3552   16.1463    0.1924 H   0  0  0  0  0  0  0  0  0  0  0  0
   -0.2638   18.3205    2.2781 H   0  0  0  0  0  0  0  0  0  0  0  0
    1.1843   18.8921    1.3820 H   0  0  0  0  0  0  0  0  0  0  0  0
   -0.3183   19.8764    1.3820 H   0  0  0  0  0  0  0  0  0  0  0  0
    3.0344   17.3989   -2.7540 H   0  0  0  0  0  0  0  0  0  0  0  0
    3.1154   16.2074   -4.0958 H   0  0  0  0  0  0  0  0  0  0  0  0
    1.8426   17.4749   -4.0958 H   0  0  0  0  0  0  0  0  0  0  0  0
   -0.0393   15.4045   -4.1550 H   0  0  0  0  0  0  0  0  0  0  0  0
    1.6389   14.6826   -4.4658 H   0  0  0  0  0  0  0  0  0  0  0  0
   -0.5094   13.6332   -2.6025 H   0  0  0  0  0  0  0  0  0  0  0  0
    0.1425   12.8807   -4.1111 H   0  0  0  0  0  0  0  0  0  0  0  0
    3.6086   12.4122   -2.7870 H   0  0  0  0  0  0  0  0  0  0  0  0
    2.5066   11.7100   -4.0196 H   0  0  0  0  0  0  0  0  0  0  0  0
    2.8466   13.4738   -4.0196 H   0  0  0  0  0  0  0  0  0  0  0  0
  1  2  1  0
  2  3  1  0
  3  4  1  0
  4  5  1  0
  5  6  1  0
  6  7  1  0
  7  8  1  0
  7  9  1  0
  2 10  1  0
 10 11  1  0
 11 12  1  0
 12 13  1  0
 13 14  1  1
 13 15  1  0
 15 16  1  0
 16 17  1  0
 17 18  2  0
 18 19  1  0
 19 20  1  0
 20 21  1  0
 21 22  1  0
 22 23  1  0
 22 24  1  0
 24 25  1  0
 24 26  1  0
 19 27  1  0
 27 28  1  6
 27 29  1  0
 29 30  1  0
 30 31  1  0
 31 32  1  6
  7  5  1  0
 31 10  1  0
 31 13  1  0
 27 15  1  0
 24 18  1  0
  1 33  1  0
  1 34  1  0
  1 35  1  0
  2 36  1  6
  3 37  1  0
  3 38  1  0
  4 39  1  0
  4 40  1  0
  5 41  1  1
  8 42  1  0
  8 43  1  0
  8 44  1  0
  9 45  1  0
  9 46  1  0
  9 47  1  0
 10 48  1  1
 11 49  1  0
 11 50  1  0
 12 51  1  0
 12 52  1  0
 14 53  1  0
 14 54  1  0
 14 55  1  0
 15 56  1  6
 16 57  1  0
 16 58  1  0
 17 59  1  0
 19 60  1  1
 20 61  1  0
 20 62  1  0
 21 63  1  0
 21 64  1  0
 22 65  1  1
 23 66  1  0
 25 67  1  0
 25 68  1  0
 25 69  1  0
 26 70  1  0
 26 71  1  0
 26 72  1  0
 28 73  1  0
 28 74  1  0
 28 75  1  0
 29 76  1  0
 29 77  1  0
 30 78  1  0
 30 79  1  0
 32 80  1  0
 32 81  1  0
 32 82  1  0
M  END
>  <meeko>  (8) 
{"is_sidechain": [false], "intermolecular_energy": 2.731, "internal_energy": -0.839}

$$$$
EPH_relaxed_0001_pdb2pqr_Repair_333_r2_0001_out
     RDKit          3D

 82 86  0  0  0  0  0  0  0  0999 V2000
   -3.7090    7.1800   -3.4290 C   0  0  0  0  0  0  0  0  0  0  0  0
   -3.7440    7.2630   -1.9000 C   0  0  2  0  0  0  0  0  0  0  0  0
   -5.1630    7.0430   -1.3390 C   0  0  0  0  0  0  0  0  0  0  0  0
   -6.2740    7.2860   -2.3630 C   0  0  0  0  0  0  0  0  0  0  0  0
   -7.6000    7.5090   -1.7010 C   0  0  2  0  0  0  0  0  0  0  0  0
   -8.1840    6.3350   -1.1220 O   0  0  0  0  0  0  0  0  0  0  0  0
   -8.9020    6.9250   -2.2170 C   0  0  0  0  0  0  0  0  0  0  0  0
   -8.9420    6.0740   -3.4480 C   0  0  0  0  0  0  0  0  0  0  0  0
  -10.1880    7.5770   -1.8140 C   0  0  0  0  0  0  0  0  0  0  0  0
   -3.2060    8.6130   -1.4410 C   0  0  1  0  0  0  0  0  0  0  0  0
   -3.8330    9.0820   -0.1010 C   0  0  0  0  0  0  0  0  0  0  0  0
   -2.7240    9.8430    0.6710 C   0  0  0  0  0  0  0  0  0  0  0  0
   -1.6090   10.0750   -0.3770 C   0  0  1  0  0  0  0  0  0  0  0  0
   -2.0760   11.3230   -1.1890 C   0  0  0  0  0  0  0  0  0  0  0  0
   -0.1620   10.2590    0.1840 C   0  0  2  0  0  0  0  0  0  0  0  0
    0.0360   11.4860    1.0910 C   0  0  0  0  0  0  0  0  0  0  0  0
    0.4500   12.7380    0.3890 C   0  0  0  0  0  0  0  0  0  0  0  0
    0.9300   12.8080   -0.8660 C   0  0  0  0  0  0  0  0  0  0  0  0
    1.1900   11.5360   -1.6830 C   0  0  1  0  0  0  0  0  0  0  0  0
    2.5850   11.6290   -2.3560 C   0  0  0  0  0  0  0  0  0  0  0  0
    2.7500   12.8990   -3.1860 C   0  0  0  0  0  0  0  0  0  0  0  0
    2.5400   14.1430   -2.3270 C   0  0  2  0  0  0  0  0  0  0  0  0
    3.6020   14.2270   -1.3710 O   0  0  0  0  0  0  0  0  0  0  0  0
    1.1720   14.1560   -1.5900 C   0  0  0  0  0  0  0  0  0  0  0  0
    0.0310   14.3690   -2.6150 C   0  0  0  0  0  0  0  0  0  0  0  0
    1.1470   15.3910   -0.6500 C   0  0  0  0  0  0  0  0  0  0  0  0
    0.9750   10.1620   -0.9130 C   0  0  1  0  0  0  0  0  0  0  0  0
    2.2830    9.7610   -0.1640 C   0  0  0  0  0  0  0  0  0  0  0  0
    0.6980    9.0230   -1.9630 C   0  0  0  0  0  0  0  0  0  0  0  0
   -0.7680    8.8100   -2.3870 C   0  0  0  0  0  0  0  0  0  0  0  0
   -1.6850    8.7160   -1.1640 C   0  0  2  0  0  0  0  0  0  0  0  0
   -1.2530    7.4560   -0.3390 C   0  0  0  0  0  0  0  0  0  0  0  0
   -3.2984    6.2062   -3.7340 H   0  0  0  0  0  0  0  0  0  0  0  0
   -4.7293    7.2881   -3.8255 H   0  0  0  0  0  0  0  0  0  0  0  0
   -3.0742    7.9861   -3.8255 H   0  0  0  0  0  0  0  0  0  0  0  0
   -3.1062    6.4562   -1.5098 H   0  0  0  0  0  0  0  0  0  0  0  0
   -5.2389    6.0046   -0.9841 H   0  0  0  0  0  0  0  0  0  0  0  0
   -5.3058    7.7746   -0.5301 H   0  0  0  0  0  0  0  0  0  0  0  0
   -6.0201    8.1741   -2.9603 H   0  0  0  0  0  0  0  0  0  0  0  0
   -6.3548    6.3924   -2.9994 H   0  0  0  0  0  0  0  0  0  0  0  0
   -7.3122    8.5315   -1.4154 H   0  0  0  0  0  0  0  0  0  0  0  0
   -8.9918    5.0137   -3.1593 H   0  0  0  0  0  0  0  0  0  0  0  0
   -9.8289    6.3337   -4.0446 H   0  0  0  0  0  0  0  0  0  0  0  0
   -8.0346    6.2493   -4.0446 H   0  0  0  0  0  0  0  0  0  0  0  0
  -10.2540    7.6104   -0.7165 H   0  0  0  0  0  0  0  0  0  0  0  0
  -10.2213    8.6009   -2.2147 H   0  0  0  0  0  0  0  0  0  0  0  0
  -11.0336    6.9987   -2.2147 H   0  0  0  0  0  0  0  0  0  0  0  0
   -3.4714    9.2239   -2.3164 H   0  0  0  0  0  0  0  0  0  0  0  0
   -4.6855    9.7496   -0.2950 H   0  0  0  0  0  0  0  0  0  0  0  0
   -4.2033    8.2260    0.4822 H   0  0  0  0  0  0  0  0  0  0  0  0
   -3.1044   10.8021    1.0523 H   0  0  0  0  0  0  0  0  0  0  0  0
   -2.3643    9.2819    1.5461 H   0  0  0  0  0  0  0  0  0  0  0  0
   -2.3749   12.1217   -0.4942 H   0  0  0  0  0  0  0  0  0  0  0  0
   -1.2500   11.6783   -1.8226 H   0  0  0  0  0  0  0  0  0  0  0  0
   -2.9323   11.0488   -1.8226 H   0  0  0  0  0  0  0  0  0  0  0  0
   -0.0502    9.3827    0.8394 H   0  0  0  0  0  0  0  0  0  0  0  0
   -0.9150   11.6842    1.6071 H   0  0  0  0  0  0  0  0  0  0  0  0
    0.8618   11.2313    1.7716 H   0  0  0  0  0  0  0  0  0  0  0  0
    0.3544   13.6823    0.9450 H   0  0  0  0  0  0  0  0  0  0  0  0
    0.4053   11.5032   -2.4531 H   0  0  0  0  0  0  0  0  0  0  0  0
    3.3564   11.6173   -1.5719 H   0  0  0  0  0  0  0  0  0  0  0  0
    2.6861   10.7700   -3.0357 H   0  0  0  0  0  0  0  0  0  0  0  0
    3.7643   12.9220   -3.6111 H   0  0  0  0  0  0  0  0  0  0  0  0
    1.9970   12.8947   -3.9878 H   0  0  0  0  0  0  0  0  0  0  0  0
    2.5409   15.0127   -3.0006 H   0  0  0  0  0  0  0  0  0  0  0  0
    3.5870   13.4110   -0.8420 H   0  0  0  0  0  0  0  0  0  0  0  0
   -0.9140   14.5454   -2.0803 H   0  0  0  0  0  0  0  0  0  0  0  0
    0.2631   15.2393   -3.2464 H   0  0  0  0  0  0  0  0  0  0  0  0
   -0.0666   13.4736   -3.2464 H   0  0  0  0  0  0  0  0  0  0  0  0
    1.1538   15.0548    0.3973 H   0  0  0  0  0  0  0  0  0  0  0  0
    2.0327   16.0149   -0.8406 H   0  0  0  0  0  0  0  0  0  0  0  0
    0.2368   15.9785   -0.8406 H   0  0  0  0  0  0  0  0  0  0  0  0
    2.1143    9.8127    0.9218 H   0  0  0  0  0  0  0  0  0  0  0  0
    2.5653    8.7350   -0.4428 H   0  0  0  0  0  0  0  0  0  0  0  0
    3.0918   10.4524   -0.4428 H   0  0  0  0  0  0  0  0  0  0  0  0
    1.2756    9.2582   -2.8691 H   0  0  0  0  0  0  0  0  0  0  0  0
    0.9902    8.0899   -1.4590 H   0  0  0  0  0  0  0  0  0  0  0  0
   -1.0882    9.6564   -3.0124 H   0  0  0  0  0  0  0  0  0  0  0  0
   -0.8366    7.8673   -2.9497 H   0  0  0  0  0  0  0  0  0  0  0  0
   -1.3290    7.6777    0.7357 H   0  0  0  0  0  0  0  0  0  0  0  0
   -1.9129    6.6116   -0.5868 H   0  0  0  0  0  0  0  0  0  0  0  0
   -0.2138    7.1941   -0.5868 H   0  0  0  0  0  0  0  0  0  0  0  0
  1  2  1  0
  2  3  1  0
  3  4  1  0
  4  5  1  0
  5  6  1  0
  6  7  1  0
  7  8  1  0
  7  9  1  0
  2 10  1  0
 10 11  1  0
 11 12  1  0
 12 13  1  0
 13 14  1  6
 13 15  1  0
 15 16  1  0
 16 17  1  0
 17 18  2  0
 18 19  1  0
 19 20  1  0
 20 21  1  0
 21 22  1  0
 22 23  1  0
 22 24  1  0
 24 25  1  0
 24 26  1  0
 19 27  1  0
 27 28  1  1
 27 29  1  0
 29 30  1  0
 30 31  1  0
 31 32  1  1
  7  5  1  0
 31 10  1  0
 31 13  1  0
 27 15  1  0
 24 18  1  0
  1 33  1  0
  1 34  1  0
  1 35  1  0
  2 36  1  1
  3 37  1  0
  3 38  1  0
  4 39  1  0
  4 40  1  0
  5 41  1  1
  8 42  1  0
  8 43  1  0
  8 44  1  0
  9 45  1  0
  9 46  1  0
  9 47  1  0
 10 48  1  6
 11 49  1  0
 11 50  1  0
 12 51  1  0
 12 52  1  0
 14 53  1  0
 14 54  1  0
 14 55  1  0
 15 56  1  1
 16 57  1  0
 16 58  1  0
 17 59  1  0
 19 60  1  6
 20 61  1  0
 20 62  1  0
 21 63  1  0
 21 64  1  0
 22 65  1  6
 23 66  1  0
 25 67  1  0
 25 68  1  0
 25 69  1  0
 26 70  1  0
 26 71  1  0
 26 72  1  0
 28 73  1  0
 28 74  1  0
 28 75  1  0
 29 76  1  0
 29 77  1  0
 30 78  1  0
 30 79  1  0
 32 80  1  0
 32 81  1  0
 32 82  1  0
M  END
>  <meeko>  (9) 
{"is_sidechain": [false], "intermolecular_energy": 2.731, "internal_energy": -0.839}

$$$$
EPH_relaxed_0001_pdb2pqr_Repair_333_r2_0001_out
     RDKit          3D

 82 86  0  0  0  0  0  0  0  0999 V2000
    2.4910   16.7200   -7.3190 C   0  0  0  0  0  0  0  0  0  0  0  0
    1.4420   15.6080   -7.2240 C   0  0  2  0  0  0  0  0  0  0  0  0
    0.1790   15.9290   -8.0480 C   0  0  0  0  0  0  0  0  0  0  0  0
    0.4730   16.3180   -9.4990 C   0  0  0  0  0  0  0  0  0  0  0  0
    1.8840   15.9910   -9.8860 C   0  0  2  0  0  0  0  0  0  0  0  0
    2.3020   16.5380  -11.1430 O   0  0  0  0  0  0  0  0  0  0  0  0
    2.2450   15.1040  -11.0630 C   0  0  0  0  0  0  0  0  0  0  0  0
    1.1900   14.4880  -11.9270 C   0  0  0  0  0  0  0  0  0  0  0  0
    3.5890   14.4450  -11.0760 C   0  0  0  0  0  0  0  0  0  0  0  0
    1.0660   15.3720   -5.7660 C   0  0  1  0  0  0  0  0  0  0  0  0
   -0.2590   16.0750   -5.3690 C   0  0  0  0  0  0  0  0  0  0  0  0
   -0.9660   15.1510   -4.3440 C   0  0  0  0  0  0  0  0  0  0  0  0
    0.1140   14.1220   -3.9360 C   0  0  1  0  0  0  0  0  0  0  0  0
    0.9830   14.8550   -2.8660 C   0  0  0  0  0  0  0  0  0  0  0  0
   -0.4060   12.7440   -3.4120 C   0  0  2  0  0  0  0  0  0  0  0  0
   -1.2420   12.8100   -2.1220 C   0  0  0  0  0  0  0  0  0  0  0  0
   -0.4670   12.6830   -0.8530 C   0  0  0  0  0  0  0  0  0  0  0  0
    0.8000   12.2390   -0.7510 C   0  0  0  0  0  0  0  0  0  0  0  0
    1.5520   11.7150   -1.9810 C   0  0  1  0  0  0  0  0  0  0  0  0
    2.2570   10.3800   -1.6270 C   0  0  0  0  0  0  0  0  0  0  0  0
    3.1570   10.5010   -0.4010 C   0  0  0  0  0  0  0  0  0  0  0  0
    2.3610   10.9680    0.8150 C   0  0  2  0  0  0  0  0  0  0  0  0
    1.4330    9.9420    1.1800 O   0  0  0  0  0  0  0  0  0  0  0  0
    1.5990   12.3000    0.5740 C   0  0  0  0  0  0  0  0  0  0  0  0
    2.6110   13.4690    0.4770 C   0  0  0  0  0  0  0  0  0  0  0  0
    0.7260   12.5850    1.8260 C   0  0  0  0  0  0  0  0  0  0  0  0
    0.7060   11.6220   -3.3230 C   0  0  1  0  0  0  0  0  0  0  0  0
   -0.0370   10.2520   -3.3890 C   0  0  0  0  0  0  0  0  0  0  0  0
    1.6880   11.6540   -4.5540 C   0  0  0  0  0  0  0  0  0  0  0  0
    2.0710   13.0420   -5.1010 C   0  0  0  0  0  0  0  0  0  0  0  0
    0.8260   13.9070   -5.3220 C   0  0  2  0  0  0  0  0  0  0  0  0
   -0.0560   13.2060   -6.4100 C   0  0  0  0  0  0  0  0  0  0  0  0
    2.7863   17.0330   -6.3066 H   0  0  0  0  0  0  0  0  0  0  0  0
    3.3734   16.3465   -7.8593 H   0  0  0  0  0  0  0  0  0  0  0  0
    2.0667   17.5791   -7.8593 H   0  0  0  0  0  0  0  0  0  0  0  0
    1.8882   14.6953   -7.6458 H   0  0  0  0  0  0  0  0  0  0  0  0
   -0.4687   15.0399   -8.0513 H   0  0  0  0  0  0  0  0  0  0  0  0
   -0.3020   16.7971   -7.5737 H   0  0  0  0  0  0  0  0  0  0  0  0
   -0.2141   15.7706  -10.1610 H   0  0  0  0  0  0  0  0  0  0  0  0
    0.3336   17.4047   -9.5976 H   0  0  0  0  0  0  0  0  0  0  0  0
    2.1953   15.9795   -8.8310 H   0  0  0  0  0  0  0  0  0  0  0  0
    0.4143   14.0351  -11.2920 H   0  0  0  0  0  0  0  0  0  0  0  0
    0.7372   15.2636  -12.5621 H   0  0  0  0  0  0  0  0  0  0  0  0
    1.6429   13.7124  -12.5621 H   0  0  0  0  0  0  0  0  0  0  0  0
    3.9263   14.2796  -10.0421 H   0  0  0  0  0  0  0  0  0  0  0  0
    3.5188   13.4791  -11.5977 H   0  0  0  0  0  0  0  0  0  0  0  0
    4.3096   15.0920  -11.5977 H   0  0  0  0  0  0  0  0  0  0  0  0
    1.9667   15.7709   -5.2765 H   0  0  0  0  0  0  0  0  0  0  0  0
   -0.0469   17.0536   -4.9136 H   0  0  0  0  0  0  0  0  0  0  0  0
   -0.8946   16.2465   -6.2503 H   0  0  0  0  0  0  0  0  0  0  0  0
   -1.3032   15.7272   -3.4698 H   0  0  0  0  0  0  0  0  0  0  0  0
   -1.8620   14.6707   -4.7641 H   0  0  0  0  0  0  0  0  0  0  0  0
    0.6438   14.5689   -1.8595 H   0  0  0  0  0  0  0  0  0  0  0  0
    2.0378   14.5698   -2.9923 H   0  0  0  0  0  0  0  0  0  0  0  0
    0.8797   15.9428   -2.9923 H   0  0  0  0  0  0  0  0  0  0  0  0
   -1.1040   12.4387   -4.2055 H   0  0  0  0  0  0  0  0  0  0  0  0
   -1.7654   13.7774   -2.1053 H   0  0  0  0  0  0  0  0  0  0  0  0
   -1.9188   11.9434   -2.1533 H   0  0  0  0  0  0  0  0  0  0  0  0
   -0.9738   12.9771    0.0779 H   0  0  0  0  0  0  0  0  0  0  0  0
    2.3036   12.4797   -2.2267 H   0  0  0  0  0  0  0  0  0  0  0  0
    1.4893    9.6180   -1.4271 H   0  0  0  0  0  0  0  0  0  0  0  0
    2.8917   10.1008   -2.4810 H   0  0  0  0  0  0  0  0  0  0  0  0
    3.6037    9.5195   -0.1838 H   0  0  0  0  0  0  0  0  0  0  0  0
    3.9420   11.2419   -0.6129 H   0  0  0  0  0  0  0  0  0  0  0  0
    3.0795   11.1605    1.6253 H   0  0  0  0  0  0  0  0  0  0  0  0
    1.4570    9.8540    2.1480 H   0  0  0  0  0  0  0  0  0  0  0  0
    2.8930   13.7948    1.4891 H   0  0  0  0  0  0  0  0  0  0  0  0
    3.5083   13.1333   -0.0635 H   0  0  0  0  0  0  0  0  0  0  0  0
    2.1502   14.3090   -0.0635 H   0  0  0  0  0  0  0  0  0  0  0  0
    1.3148   12.3928    2.7350 H   0  0  0  0  0  0  0  0  0  0  0  0
    0.4011   13.6359    1.8150 H   0  0  0  0  0  0  0  0  0  0  0  0
   -0.1564   11.9283    1.8150 H   0  0  0  0  0  0  0  0  0  0  0  0
   -0.2326    9.8914   -2.3684 H   0  0  0  0  0  0  0  0  0  0  0  0
   -0.9907   10.3774   -3.9226 H   0  0  0  0  0  0  0  0  0  0  0  0
    0.5883    9.5211   -3.9226 H   0  0  0  0  0  0  0  0  0  0  0  0
    2.6166   11.1474   -4.2522 H   0  0  0  0  0  0  0  0  0  0  0  0
    1.1402   11.1634   -5.3720 H   0  0  0  0  0  0  0  0  0  0  0  0
    2.7336   13.5427   -4.3797 H   0  0  0  0  0  0  0  0  0  0  0  0
    2.5821   12.9099   -6.0661 H   0  0  0  0  0  0  0  0  0  0  0  0
   -0.8265   12.5936   -5.9187 H   0  0  0  0  0  0  0  0  0  0  0  0
   -0.5393   13.9691   -7.0377 H   0  0  0  0  0  0  0  0  0  0  0  0
    0.5783   12.5629   -7.0377 H   0  0  0  0  0  0  0  0  0  0  0  0
  1  2  1  0
  2  3  1  0
  3  4  1  0
  4  5  1  0
  5  6  1  0
  6  7  1  0
  7  8  1  0
  7  9  1  0
  2 10  1  0
 10 11  1  0
 11 12  1  0
 12 13  1  0
 13 14  1  1
 13 15  1  0
 15 16  1  0
 16 17  1  0
 17 18  2  0
 18 19  1  0
 19 20  1  0
 20 21  1  0
 21 22  1  0
 22 23  1  0
 22 24  1  0
 24 25  1  0
 24 26  1  0
 19 27  1  0
 27 28  1  1
 27 29  1  0
 29 30  1  0
 30 31  1  0
 31 32  1  6
  7  5  1  0
 31 10  1  0
 31 13  1  0
 27 15  1  0
 24 18  1  0
  1 33  1  0
  1 34  1  0
  1 35  1  0
  2 36  1  6
  3 37  1  0
  3 38  1  0
  4 39  1  0
  4 40  1  0
  5 41  1  1
  8 42  1  0
  8 43  1  0
  8 44  1  0
  9 45  1  0
  9 46  1  0
  9 47  1  0
 10 48  1  1
 11 49  1  0
 11 50  1  0
 12 51  1  0
 12 52  1  0
 14 53  1  0
 14 54  1  0
 14 55  1  0
 15 56  1  6
 16 57  1  0
 16 58  1  0
 17 59  1  0
 19 60  1  6
 20 61  1  0
 20 62  1  0
 21 63  1  0
 21 64  1  0
 22 65  1  1
 23 66  1  0
 25 67  1  0
 25 68  1  0
 25 69  1  0
 26 70  1  0
 26 71  1  0
 26 72  1  0
 28 73  1  0
 28 74  1  0
 28 75  1  0
 29 76  1  0
 29 77  1  0
 30 78  1  0
 30 79  1  0
 32 80  1  0
 32 81  1  0
 32 82  1  0
M  END
>  <meeko>  (10) 
{"is_sidechain": [false], "intermolecular_energy": 2.731, "internal_energy": -0.839}

$$$$
EPH_relaxed_0001_pdb2pqr_Repair_333_r2_0001_out
     RDKit          3D

 82 86  0  0  0  0  0  0  0  0999 V2000
    1.4520   18.0240   -4.0640 C   0  0  0  0  0  0  0  0  0  0  0  0
    0.0710   17.5920   -3.5630 C   0  0  2  0  0  0  0  0  0  0  0  0
   -0.1910   18.0490   -2.1140 C   0  0  0  0  0  0  0  0  0  0  0  0
   -0.7560   19.4680   -2.0090 C   0  0  0  0  0  0  0  0  0  0  0  0
   -0.2140   20.1940   -0.8160 C   0  0  2  0  0  0  0  0  0  0  0  0
    1.2160   20.1890   -0.7100 O   0  0  0  0  0  0  0  0  0  0  0  0
    0.5010   19.5030    0.3300 C   0  0  0  0  0  0  0  0  0  0  0  0
    0.7110   18.0220    0.3390 C   0  0  0  0  0  0  0  0  0  0  0  0
    0.5590   20.1940    1.6570 C   0  0  0  0  0  0  0  0  0  0  0  0
   -0.0680   16.0770   -3.6640 C   0  0  1  0  0  0  0  0  0  0  0  0
    0.1680   15.5500   -5.1050 C   0  0  0  0  0  0  0  0  0  0  0  0
    0.8640   14.1710   -4.9690 C   0  0  0  0  0  0  0  0  0  0  0  0
    0.7060   13.8010   -3.4750 C   0  0  1  0  0  0  0  0  0  0  0  0
   -0.7390   13.2250   -3.3550 C   0  0  0  0  0  0  0  0  0  0  0  0
    1.7710   12.8160   -2.8920 C   0  0  2  0  0  0  0  0  0  0  0  0
    1.7880   11.4180   -3.5350 C   0  0  0  0  0  0  0  0  0  0  0  0
    0.9050   10.4060   -2.8840 C   0  0  0  0  0  0  0  0  0  0  0  0
    0.3480   10.5220   -1.6640 C   0  0  0  0  0  0  0  0  0  0  0  0
    0.6690   11.7220   -0.7630 C   0  0  1  0  0  0  0  0  0  0  0  0
    0.9780   11.2230    0.6730 C   0  0  0  0  0  0  0  0  0  0  0  0
   -0.1350   10.3490    1.2410 C   0  0  0  0  0  0  0  0  0  0  0  0
   -0.3850    9.1360    0.3480 C   0  0  2  0  0  0  0  0  0  0  0  0
    0.7650    8.2860    0.3940 O   0  0  0  0  0  0  0  0  0  0  0  0
   -0.6980    9.5140   -1.1260 C   0  0  0  0  0  0  0  0  0  0  0  0
   -2.0960   10.1740   -1.2090 C   0  0  0  0  0  0  0  0  0  0  0  0
   -0.7890    8.2000   -1.9480 C   0  0  0  0  0  0  0  0  0  0  0  0
    1.7730   12.7250   -1.3120 C   0  0  1  0  0  0  0  0  0  0  0  0
    3.1930   12.2330   -0.8960 C   0  0  0  0  0  0  0  0  0  0  0  0
    1.5730   14.1310   -0.6320 C   0  0  0  0  0  0  0  0  0  0  0  0
    0.5990   15.1050   -1.3220 C   0  0  0  0  0  0  0  0  0  0  0  0
    0.9040   15.2160   -2.8190 C   0  0  2  0  0  0  0  0  0  0  0  0
    2.3440   15.8140   -2.9710 C   0  0  0  0  0  0  0  0  0  0  0  0
    2.1065   18.2287   -3.2040 H   0  0  0  0  0  0  0  0  0  0  0  0
    1.8889   17.2196   -4.6740 H   0  0  0  0  0  0  0  0  0  0  0  0
    1.3526   18.9340   -4.6740 H   0  0  0  0  0  0  0  0  0  0  0  0
   -0.6798   18.0783   -4.2032 H   0  0  0  0  0  0  0  0  0  0  0  0
   -0.9099   17.3541   -1.6553 H   0  0  0  0  0  0  0  0  0  0  0  0
    0.7798   18.0504   -1.5968 H   0  0  0  0  0  0  0  0  0  0  0  0
   -0.4880   20.0264   -2.9180 H   0  0  0  0  0  0  0  0  0  0  0  0
   -1.8480   19.3947   -1.8985 H   0  0  0  0  0  0  0  0  0  0  0  0
   -1.0509   20.9075   -0.8408 H   0  0  0  0  0  0  0  0  0  0  0  0
    0.7616   17.6652    1.3783 H   0  0  0  0  0  0  0  0  0  0  0  0
   -0.1263   17.5298   -0.1773 H   0  0  0  0  0  0  0  0  0  0  0  0
    1.6522   17.7820   -0.1773 H   0  0  0  0  0  0  0  0  0  0  0  0
    0.4963   19.4473    2.4623 H   0  0  0  0  0  0  0  0  0  0  0  0
    1.5066   20.7461    1.7418 H   0  0  0  0  0  0  0  0  0  0  0  0
   -0.2834   20.8963    1.7418 H   0  0  0  0  0  0  0  0  0  0  0  0
   -1.0960   15.9608   -3.2902 H   0  0  0  0  0  0  0  0  0  0  0  0
   -0.7924   15.4394   -5.6299 H   0  0  0  0  0  0  0  0  0  0  0  0
    0.7880   16.2497   -5.6847 H   0  0  0  0  0  0  0  0  0  0  0  0
    0.3726   13.4230   -5.6086 H   0  0  0  0  0  0  0  0  0  0  0  0
    1.9180   14.2025   -5.2822 H   0  0  0  0  0  0  0  0  0  0  0  0
   -1.0045   13.1192   -2.2928 H   0  0  0  0  0  0  0  0  0  0  0  0
   -1.4482   13.9092   -3.8438 H   0  0  0  0  0  0  0  0  0  0  0  0
   -0.7831   12.2406   -3.8438 H   0  0  0  0  0  0  0  0  0  0  0  0
    2.7182   13.2917   -3.1860 H   0  0  0  0  0  0  0  0  0  0  0  0
    1.4706   11.5221   -4.5830 H   0  0  0  0  0  0  0  0  0  0  0  0
    2.8159   11.0432   -3.4211 H   0  0  0  0  0  0  0  0  0  0  0  0
    0.6911    9.4870   -3.4494 H   0  0  0  0  0  0  0  0  0  0  0  0
   -0.2362   12.3469   -0.7539 H   0  0  0  0  0  0  0  0  0  0  0  0
    1.9090   10.6376    0.6501 H   0  0  0  0  0  0  0  0  0  0  0  0
    1.0713   12.1072    1.3206 H   0  0  0  0  0  0  0  0  0  0  0  0
    0.1548   10.0038    2.2444 H   0  0  0  0  0  0  0  0  0  0  0  0
   -1.0584   10.9446    1.2912 H   0  0  0  0  0  0  0  0  0  0  0  0
   -1.2763    8.6198    0.7341 H   0  0  0  0  0  0  0  0  0  0  0  0
    0.5730    7.5010   -0.1480 H   0  0  0  0  0  0  0  0  0  0  0  0
   -2.4774   10.3540   -0.1931 H   0  0  0  0  0  0  0  0  0  0  0  0
   -2.0185   11.1306   -1.7465 H   0  0  0  0  0  0  0  0  0  0  0  0
   -2.7854    9.5063   -1.7465 H   0  0  0  0  0  0  0  0  0  0  0  0
   -0.8484    7.3419   -1.2623 H   0  0  0  0  0  0  0  0  0  0  0  0
   -1.6875    8.2256   -2.5820 H   0  0  0  0  0  0  0  0  0  0  0  0
    0.1045    8.1015   -2.5820 H   0  0  0  0  0  0  0  0  0  0  0  0
    3.2655   12.2079    0.2013 H   0  0  0  0  0  0  0  0  0  0  0  0
    3.3636   11.2234   -1.2979 H   0  0  0  0  0  0  0  0  0  0  0  0
    3.9517   12.9207   -1.2979 H   0  0  0  0  0  0  0  0  0  0  0  0
    1.2019   13.9570    0.3888 H   0  0  0  0  0  0  0  0  0  0  0  0
    2.5567   14.6201   -0.6883 H   0  0  0  0  0  0  0  0  0  0  0  0
   -0.4298   14.7386   -1.1905 H   0  0  0  0  0  0  0  0  0  0  0  0
    0.7148   16.0991   -0.8656 H   0  0  0  0  0  0  0  0  0  0  0  0
    2.7740   15.9926   -1.9744 H   0  0  0  0  0  0  0  0  0  0  0  0
    2.9790   15.1052   -3.5227 H   0  0  0  0  0  0  0  0  0  0  0  0
    2.2901   16.7641   -3.5227 H   0  0  0  0  0  0  0  0  0  0  0  0
  1  2  1  0
  2  3  1  0
  3  4  1  0
  4  5  1  0
  5  6  1  0
  6  7  1  0
  7  8  1  0
  7  9  1  0
  2 10  1  0
 10 11  1  0
 11 12  1  0
 12 13  1  0
 13 14  1  6
 13 15  1  0
 15 16  1  0
 16 17  1  0
 17 18  2  0
 18 19  1  0
 19 20  1  0
 20 21  1  0
 21 22  1  0
 22 23  1  0
 22 24  1  0
 24 25  1  0
 24 26  1  0
 19 27  1  0
 27 28  1  1
 27 29  1  0
 29 30  1  0
 30 31  1  0
 31 32  1  1
  7  5  1  0
 31 10  1  0
 31 13  1  0
 27 15  1  0
 24 18  1  0
  1 33  1  0
  1 34  1  0
  1 35  1  0
  2 36  1  6
  3 37  1  0
  3 38  1  0
  4 39  1  0
  4 40  1  0
  5 41  1  1
  8 42  1  0
  8 43  1  0
  8 44  1  0
  9 45  1  0
  9 46  1  0
  9 47  1  0
 10 48  1  1
 11 49  1  0
 11 50  1  0
 12 51  1  0
 12 52  1  0
 14 53  1  0
 14 54  1  0
 14 55  1  0
 15 56  1  6
 16 57  1  0
 16 58  1  0
 17 59  1  0
 19 60  1  1
 20 61  1  0
 20 62  1  0
 21 63  1  0
 21 64  1  0
 22 65  1  1
 23 66  1  0
 25 67  1  0
 25 68  1  0
 25 69  1  0
 26 70  1  0
 26 71  1  0
 26 72  1  0
 28 73  1  0
 28 74  1  0
 28 75  1  0
 29 76  1  0
 29 77  1  0
 30 78  1  0
 30 79  1  0
 32 80  1  0
 32 81  1  0
 32 82  1  0
M  END
>  <meeko>  (11) 
{"is_sidechain": [false], "intermolecular_energy": 2.731, "internal_energy": -0.839}

$$$$
EPH_relaxed_0001_pdb2pqr_Repair_333_r2_0001_out
     RDKit          3D

 82 86  0  0  0  0  0  0  0  0999 V2000
   -0.8120    9.2110   -1.2610 C   0  0  0  0  0  0  0  0  0  0  0  0
    0.2030   10.0860   -2.0030 C   0  0  2  0  0  0  0  0  0  0  0  0
    1.5380    9.3510   -2.2410 C   0  0  0  0  0  0  0  0  0  0  0  0
    2.3350    9.8940   -3.4300 C   0  0  0  0  0  0  0  0  0  0  0  0
    3.7850   10.0700   -3.0920 C   0  0  2  0  0  0  0  0  0  0  0  0
    4.1880   11.4270   -2.8710 O   0  0  0  0  0  0  0  0  0  0  0  0
    4.7780   10.7670   -4.0030 C   0  0  0  0  0  0  0  0  0  0  0  0
    4.3610   11.3330   -5.3240 C   0  0  0  0  0  0  0  0  0  0  0  0
    6.2350   10.4680   -3.8340 C   0  0  0  0  0  0  0  0  0  0  0  0
    0.4480   11.3720   -1.2240 C   0  0  1  0  0  0  0  0  0  0  0  0
    1.5760   11.2260   -0.1680 C   0  0  0  0  0  0  0  0  0  0  0  0
    2.3150   12.5880   -0.1100 C   0  0  0  0  0  0  0  0  0  0  0  0
    1.3930   13.5640   -0.8780 C   0  0  1  0  0  0  0  0  0  0  0  0
    0.2950   13.9730    0.1530 C   0  0  0  0  0  0  0  0  0  0  0  0
    2.0860   14.8140   -1.5110 C   0  0  2  0  0  0  0  0  0  0  0  0
    2.7470   15.7730   -0.5060 C   0  0  0  0  0  0  0  0  0  0  0  0
    1.8680   16.8670    0.0040 C   0  0  0  0  0  0  0  0  0  0  0  0
    0.6960   17.2460   -0.5380 C   0  0  0  0  0  0  0  0  0  0  0  0
    0.1900   16.6140   -1.8410 C   0  0  1  0  0  0  0  0  0  0  0  0
   -0.3050   17.7290   -2.7990 C   0  0  0  0  0  0  0  0  0  0  0  0
   -1.3430   18.6390   -2.1510 C   0  0  0  0  0  0  0  0  0  0  0  0
   -0.7840   19.2940   -0.8900 C   0  0  2  0  0  0  0  0  0  0  0  0
    0.2630   20.1940   -1.2650 O   0  0  0  0  0  0  0  0  0  0  0  0
   -0.2450   18.2680    0.1460 C   0  0  0  0  0  0  0  0  0  0  0  0
   -1.4300   17.4930    0.7740 C   0  0  0  0  0  0  0  0  0  0  0  0
    0.4170   19.0620    1.3040 C   0  0  0  0  0  0  0  0  0  0  0  0
    1.1850   15.5980   -2.5500 C   0  0  1  0  0  0  0  0  0  0  0  0
    2.1600   16.3740   -3.4880 C   0  0  0  0  0  0  0  0  0  0  0  0
    0.3570   14.6280   -3.4750 C   0  0  0  0  0  0  0  0  0  0  0  0
   -0.2000   13.3500   -2.8190 C   0  0  0  0  0  0  0  0  0  0  0  0
    0.8910   12.6190   -2.0300 C   0  0  2  0  0  0  0  0  0  0  0  0
    1.9990   12.1750   -3.0440 C   0  0  0  0  0  0  0  0  0  0  0  0
   -0.6745    9.3296   -0.1761 H   0  0  0  0  0  0  0  0  0  0  0  0
   -1.8316    9.5178   -1.5370 H   0  0  0  0  0  0  0  0  0  0  0  0
   -0.6588    8.1573   -1.5370 H   0  0  0  0  0  0  0  0  0  0  0  0
   -0.2231   10.3245   -2.9887 H   0  0  0  0  0  0  0  0  0  0  0  0
    2.1548    9.4489   -1.3355 H   0  0  0  0  0  0  0  0  0  0  0  0
    1.2924    8.3034   -2.4697 H   0  0  0  0  0  0  0  0  0  0  0  0
    2.2478    9.1886   -4.2695 H   0  0  0  0  0  0  0  0  0  0  0  0
    1.9235   10.8784   -3.6977 H   0  0  0  0  0  0  0  0  0  0  0  0
    3.8087    9.0947   -2.5839 H   0  0  0  0  0  0  0  0  0  0  0  0
    3.7158   12.2088   -5.1604 H   0  0  0  0  0  0  0  0  0  0  0  0
    5.2534   11.6359   -5.8913 H   0  0  0  0  0  0  0  0  0  0  0  0
    3.8073   10.5704   -5.8913 H   0  0  0  0  0  0  0  0  0  0  0  0
    6.4772   10.4183   -2.7621 H   0  0  0  0  0  0  0  0  0  0  0  0
    6.4687    9.5032   -4.3078 H   0  0  0  0  0  0  0  0  0  0  0  0
    6.8298   11.2628   -4.3078 H   0  0  0  0  0  0  0  0  0  0  0  0
   -0.5585   11.5297   -0.8091 H   0  0  0  0  0  0  0  0  0  0  0  0
    1.1453   10.9868    0.8155 H   0  0  0  0  0  0  0  0  0  0  0  0
    2.2666   10.4136   -0.4382 H   0  0  0  0  0  0  0  0  0  0  0  0
    2.4452   12.9153    0.9321 H   0  0  0  0  0  0  0  0  0  0  0  0
    3.3232   12.5350   -0.5468 H   0  0  0  0  0  0  0  0  0  0  0  0
    0.6790   13.8299    1.1738 H   0  0  0  0  0  0  0  0  0  0  0  0
    0.0296   15.0303    0.0059 H   0  0  0  0  0  0  0  0  0  0  0  0
   -0.5975   13.3470    0.0059 H   0  0  0  0  0  0  0  0  0  0  0  0
    2.9116   14.3621   -2.0803 H   0  0  0  0  0  0  0  0  0  0  0  0
    3.0872   15.1805    0.3561 H   0  0  0  0  0  0  0  0  0  0  0  0
    3.5647   16.2682   -1.0502 H   0  0  0  0  0  0  0  0  0  0  0  0
    2.2073   17.4093    0.8989 H   0  0  0  0  0  0  0  0  0  0  0  0
   -0.6515   15.9647   -1.5577 H   0  0  0  0  0  0  0  0  0  0  0  0
    0.5574   18.3396   -3.1047 H   0  0  0  0  0  0  0  0  0  0  0  0
   -0.7816   17.2405   -3.6617 H   0  0  0  0  0  0  0  0  0  0  0  0
   -1.6309   19.4233   -2.8666 H   0  0  0  0  0  0  0  0  0  0  0  0
   -2.2172   18.0319   -1.8730 H   0  0  0  0  0  0  0  0  0  0  0  0
   -1.6116   19.8282   -0.4004 H   0  0  0  0  0  0  0  0  0  0  0  0
   -0.0950   20.8010   -1.9350 H   0  0  0  0  0  0  0  0  0  0  0  0
   -1.3586   17.5397    1.8707 H   0  0  0  0  0  0  0  0  0  0  0  0
   -2.3781   17.9461    0.4486 H   0  0  0  0  0  0  0  0  0  0  0  0
   -1.3949   16.4428    0.4486 H   0  0  0  0  0  0  0  0  0  0  0  0
    0.0779   18.6553    2.2682 H   0  0  0  0  0  0  0  0  0  0  0  0
    1.5109   18.9715    1.2322 H   0  0  0  0  0  0  0  0  0  0  0  0
    0.1313   20.1218    1.2322 H   0  0  0  0  0  0  0  0  0  0  0  0
    2.8772   16.9448   -2.8799 H   0  0  0  0  0  0  0  0  0  0  0  0
    2.7045   15.6595   -4.1228 H   0  0  0  0  0  0  0  0  0  0  0  0
    1.5859   17.0650   -4.1228 H   0  0  0  0  0  0  0  0  0  0  0  0
   -0.4961   15.1962   -3.8741 H   0  0  0  0  0  0  0  0  0  0  0  0
    1.0707   14.2746   -4.2337 H   0  0  0  0  0  0  0  0  0  0  0  0
   -1.0170   13.6232   -2.1350 H   0  0  0  0  0  0  0  0  0  0  0  0
   -0.5684   12.6811   -3.6107 H   0  0  0  0  0  0  0  0  0  0  0  0
    2.8817   11.8213   -2.4910 H   0  0  0  0  0  0  0  0  0  0  0  0
    1.6127   11.3622   -3.6766 H   0  0  0  0  0  0  0  0  0  0  0  0
    2.2808   13.0296   -3.6766 H   0  0  0  0  0  0  0  0  0  0  0  0
  1  2  1  0
  2  3  1  0
  3  4  1  0
  4  5  1  0
  5  6  1  0
  6  7  1  0
  7  8  1  0
  7  9  1  0
  2 10  1  0
 10 11  1  0
 11 12  1  0
 12 13  1  0
 13 14  1  1
 13 15  1  0
 15 16  1  0
 16 17  1  0
 17 18  2  0
 18 19  1  0
 19 20  1  0
 20 21  1  0
 21 22  1  0
 22 23  1  0
 22 24  1  0
 24 25  1  0
 24 26  1  0
 19 27  1  0
 27 28  1  6
 27 29  1  0
 29 30  1  0
 30 31  1  0
 31 32  1  6
  7  5  1  0
 31 10  1  0
 31 13  1  0
 27 15  1  0
 24 18  1  0
  1 33  1  0
  1 34  1  0
  1 35  1  0
  2 36  1  6
  3 37  1  0
  3 38  1  0
  4 39  1  0
  4 40  1  0
  5 41  1  1
  8 42  1  0
  8 43  1  0
  8 44  1  0
  9 45  1  0
  9 46  1  0
  9 47  1  0
 10 48  1  1
 11 49  1  0
 11 50  1  0
 12 51  1  0
 12 52  1  0
 14 53  1  0
 14 54  1  0
 14 55  1  0
 15 56  1  6
 16 57  1  0
 16 58  1  0
 17 59  1  0
 19 60  1  1
 20 61  1  0
 20 62  1  0
 21 63  1  0
 21 64  1  0
 22 65  1  1
 23 66  1  0
 25 67  1  0
 25 68  1  0
 25 69  1  0
 26 70  1  0
 26 71  1  0
 26 72  1  0
 28 73  1  0
 28 74  1  0
 28 75  1  0
 29 76  1  0
 29 77  1  0
 30 78  1  0
 30 79  1  0
 32 80  1  0
 32 81  1  0
 32 82  1  0
M  END
>  <meeko>  (12) 
{"is_sidechain": [false], "intermolecular_energy": 2.731, "internal_energy": -0.839}

$$$$
EPH_relaxed_0001_pdb2pqr_Repair_333_r2_0001_out
     RDKit          3D

 82 86  0  0  0  0  0  0  0  0999 V2000
    0.8970   14.9370   -2.6200 C   0  0  0  0  0  0  0  0  0  0  0  0
    1.1640   14.2690   -3.9720 C   0  0  2  0  0  0  0  0  0  0  0  0
    0.4610   15.0020   -5.1320 C   0  0  0  0  0  0  0  0  0  0  0  0
    1.0110   14.6400   -6.5130 C   0  0  0  0  0  0  0  0  0  0  0  0
    0.7950   15.7440   -7.5040 C   0  0  2  0  0  0  0  0  0  0  0  0
    0.3770   15.3080   -8.8040 O   0  0  0  0  0  0  0  0  0  0  0  0
    1.6620   15.9480   -8.7320 C   0  0  0  0  0  0  0  0  0  0  0  0
    2.8120   15.0390   -9.0350 C   0  0  0  0  0  0  0  0  0  0  0  0
    1.6970   17.3040   -9.3660 C   0  0  0  0  0  0  0  0  0  0  0  0
    0.7170   12.8120   -3.9290 C   0  0  1  0  0  0  0  0  0  0  0  0
    1.8460   11.8290   -4.3370 C   0  0  0  0  0  0  0  0  0  0  0  0
    1.6600   10.5530   -3.4750 C   0  0  0  0  0  0  0  0  0  0  0  0
    0.2550   10.7070   -2.8490 C   0  0  1  0  0  0  0  0  0  0  0  0
   -0.7350   10.2490   -3.9660 C   0  0  0  0  0  0  0  0  0  0  0  0
    0.0080    9.9390   -1.5090 C   0  0  2  0  0  0  0  0  0  0  0  0
    0.1140    8.4070   -1.6050 C   0  0  0  0  0  0  0  0  0  0  0  0
   -1.1610    7.6980   -1.9200 C   0  0  0  0  0  0  0  0  0  0  0  0
   -2.3940    8.2320   -1.8380 C   0  0  0  0  0  0  0  0  0  0  0  0
   -2.6030    9.6530   -1.2990 C   0  0  1  0  0  0  0  0  0  0  0  0
   -3.7700    9.6520   -0.2760 C   0  0  0  0  0  0  0  0  0  0  0  0
   -5.0500    9.0520   -0.8500 C   0  0  0  0  0  0  0  0  0  0  0  0
   -4.8160    7.6190   -1.3220 C   0  0  2  0  0  0  0  0  0  0  0  0
   -4.5420    6.7970   -0.1840 O   0  0  0  0  0  0  0  0  0  0  0  0
   -3.6560    7.4940   -2.3490 C   0  0  0  0  0  0  0  0  0  0  0  0
   -4.0810    8.1320   -3.6950 C   0  0  0  0  0  0  0  0  0  0  0  0
   -3.4330    5.9840   -2.6360 C   0  0  0  0  0  0  0  0  0  0  0  0
   -1.3040   10.3810   -0.7420 C   0  0  1  0  0  0  0  0  0  0  0  0
   -1.0890   10.0110    0.7580 C   0  0  0  0  0  0  0  0  0  0  0  0
   -1.5290   11.9380   -0.7880 C   0  0  0  0  0  0  0  0  0  0  0  0
   -1.1540   12.6560   -2.0980 C   0  0  0  0  0  0  0  0  0  0  0  0
    0.2490   12.2520   -2.5620 C   0  0  2  0  0  0  0  0  0  0  0  0
    1.2680   12.7200   -1.4690 C   0  0  0  0  0  0  0  0  0  0  0  0
    1.1729   14.2468   -1.8092 H   0  0  0  0  0  0  0  0  0  0  0  0
    1.4972   15.8554   -2.5399 H   0  0  0  0  0  0  0  0  0  0  0  0
   -0.1708   15.1887   -2.5399 H   0  0  0  0  0  0  0  0  0  0  0  0
    2.2469   14.3206   -4.1580 H   0  0  0  0  0  0  0  0  0  0  0  0
   -0.6086   14.7465   -5.1065 H   0  0  0  0  0  0  0  0  0  0  0  0
    0.6397   16.0777   -4.9872 H   0  0  0  0  0  0  0  0  0  0  0  0
    2.0901   14.4448   -6.4267 H   0  0  0  0  0  0  0  0  0  0  0  0
    0.4759   13.7484   -6.8717 H   0  0  0  0  0  0  0  0  0  0  0  0
    0.4743   16.4294   -6.7057 H   0  0  0  0  0  0  0  0  0  0  0  0
    3.2584   14.6862   -8.0936 H   0  0  0  0  0  0  0  0  0  0  0  0
    2.4544   14.1768   -9.6170 H   0  0  0  0  0  0  0  0  0  0  0  0
    3.5683   15.5860   -9.6170 H   0  0  0  0  0  0  0  0  0  0  0  0
    1.7169   18.0750   -8.5817 H   0  0  0  0  0  0  0  0  0  0  0  0
    2.5978   17.3934   -9.9910 H   0  0  0  0  0  0  0  0  0  0  0  0
    0.8021   17.4397   -9.9910 H   0  0  0  0  0  0  0  0  0  0  0  0
   -0.1319   12.8584   -4.6270 H   0  0  0  0  0  0  0  0  0  0  0  0
    1.7639   11.5800   -5.4053 H   0  0  0  0  0  0  0  0  0  0  0  0
    2.8377   12.2758   -4.1730 H   0  0  0  0  0  0  0  0  0  0  0  0
    1.7091    9.6504   -4.1018 H   0  0  0  0  0  0  0  0  0  0  0  0
    2.4466   10.4455   -2.7136 H   0  0  0  0  0  0  0  0  0  0  0  0
   -1.6409    9.8299   -3.5037 H   0  0  0  0  0  0  0  0  0  0  0  0
   -1.0079   11.1123   -4.5906 H   0  0  0  0  0  0  0  0  0  0  0  0
   -0.2537    9.4821   -4.5906 H   0  0  0  0  0  0  0  0  0  0  0  0
    0.8616   10.2585   -0.8931 H   0  0  0  0  0  0  0  0  0  0  0  0
    0.8411    8.1654   -2.3943 H   0  0  0  0  0  0  0  0  0  0  0  0
    0.4163    8.0598   -0.6060 H   0  0  0  0  0  0  0  0  0  0  0  0
   -1.0869    6.6503   -2.2469 H   0  0  0  0  0  0  0  0  0  0  0  0
   -2.8689   10.2724   -2.1683 H   0  0  0  0  0  0  0  0  0  0  0  0
   -3.4680    9.0637    0.6030 H   0  0  0  0  0  0  0  0  0  0  0  0
   -3.9816   10.6980   -0.0095 H   0  0  0  0  0  0  0  0  0  0  0  0
   -5.8282    9.0526   -0.0726 H   0  0  0  0  0  0  0  0  0  0  0  0
   -5.3669    9.6584   -1.7113 H   0  0  0  0  0  0  0  0  0  0  0  0
   -5.7292    7.2891   -1.8388 H   0  0  0  0  0  0  0  0  0  0  0  0
   -3.7160    7.1160    0.2180 H   0  0  0  0  0  0  0  0  0  0  0  0
   -4.6812    9.0330   -3.5004 H   0  0  0  0  0  0  0  0  0  0  0  0
   -3.1843    8.4059   -4.2702 H   0  0  0  0  0  0  0  0  0  0  0  0
   -4.6793    7.4101   -4.2702 H   0  0  0  0  0  0  0  0  0  0  0  0
   -3.3524    5.4379   -1.6845 H   0  0  0  0  0  0  0  0  0  0  0  0
   -4.2829    5.5911   -3.2134 H   0  0  0  0  0  0  0  0  0  0  0  0
   -2.5058    5.8535   -3.2134 H   0  0  0  0  0  0  0  0  0  0  0  0
   -1.5395   10.7863    1.3951 H   0  0  0  0  0  0  0  0  0  0  0  0
   -1.5645    9.0416    0.9683 H   0  0  0  0  0  0  0  0  0  0  0  0
   -0.0114    9.9441    0.9683 H   0  0  0  0  0  0  0  0  0  0  0  0
   -2.5964   12.1256   -0.5996 H   0  0  0  0  0  0  0  0  0  0  0  0
   -0.8473   12.3496   -0.0291 H   0  0  0  0  0  0  0  0  0  0  0  0
   -1.8822   12.3867   -2.8772 H   0  0  0  0  0  0  0  0  0  0  0  0
   -1.1655   13.7413   -1.9190 H   0  0  0  0  0  0  0  0  0  0  0  0
    0.8488   12.5275   -0.4704 H   0  0  0  0  0  0  0  0  0  0  0  0
    2.2104   12.1645   -1.5844 H   0  0  0  0  0  0  0  0  0  0  0  0
    1.4607   13.7968   -1.5844 H   0  0  0  0  0  0  0  0  0  0  0  0
  1  2  1  0
  2  3  1  0
  3  4  1  0
  4  5  1  0
  5  6  1  0
  6  7  1  0
  7  8  1  0
  7  9  1  0
  2 10  1  0
 10 11  1  0
 11 12  1  0
 12 13  1  0
 13 14  1  6
 13 15  1  0
 15 16  1  0
 16 17  1  0
 17 18  2  0
 18 19  1  0
 19 20  1  0
 20 21  1  0
 21 22  1  0
 22 23  1  0
 22 24  1  0
 24 25  1  0
 24 26  1  0
 19 27  1  0
 27 28  1  1
 27 29  1  0
 29 30  1  0
 30 31  1  0
 31 32  1  1
  7  5  1  0
 31 10  1  0
 31 13  1  0
 27 15  1  0
 24 18  1  0
  1 33  1  0
  1 34  1  0
  1 35  1  0
  2 36  1  6
  3 37  1  0
  3 38  1  0
  4 39  1  0
  4 40  1  0
  5 41  1  1
  8 42  1  0
  8 43  1  0
  8 44  1  0
  9 45  1  0
  9 46  1  0
  9 47  1  0
 10 48  1  6
 11 49  1  0
 11 50  1  0
 12 51  1  0
 12 52  1  0
 14 53  1  0
 14 54  1  0
 14 55  1  0
 15 56  1  1
 16 57  1  0
 16 58  1  0
 17 59  1  0
 19 60  1  6
 20 61  1  0
 20 62  1  0
 21 63  1  0
 21 64  1  0
 22 65  1  6
 23 66  1  0
 25 67  1  0
 25 68  1  0
 25 69  1  0
 26 70  1  0
 26 71  1  0
 26 72  1  0
 28 73  1  0
 28 74  1  0
 28 75  1  0
 29 76  1  0
 29 77  1  0
 30 78  1  0
 30 79  1  0
 32 80  1  0
 32 81  1  0
 32 82  1  0
M  END
>  <meeko>  (13) 
{"is_sidechain": [false], "intermolecular_energy": 2.731, "internal_energy": -0.839}

$$$$
EPH_relaxed_0001_pdb2pqr_Repair_333_r2_0001_out
     RDKit          3D

 82 86  0  0  0  0  0  0  0  0999 V2000
   -2.3860    7.7380    0.0130 C   0  0  0  0  0  0  0  0  0  0  0  0
   -3.0730    9.1050   -0.0450 C   0  0  2  0  0  0  0  0  0  0  0  0
   -4.5480    8.9960   -0.4830 C   0  0  0  0  0  0  0  0  0  0  0  0
   -5.0420    7.5540   -0.6260 C   0  0  0  0  0  0  0  0  0  0  0  0
   -5.8370    7.3630   -1.8830 C   0  0  2  0  0  0  0  0  0  0  0  0
   -6.7720    8.4130   -2.1650 O   0  0  0  0  0  0  0  0  0  0  0  0
   -7.3350    7.1190   -1.8960 C   0  0  0  0  0  0  0  0  0  0  0  0
   -8.1250    7.0500   -0.6270 C   0  0  0  0  0  0  0  0  0  0  0  0
   -7.9420    6.4640   -3.0970 C   0  0  0  0  0  0  0  0  0  0  0  0
   -2.3160   10.0280   -0.9920 C   0  0  1  0  0  0  0  0  0  0  0  0
   -2.9770   11.4260   -1.1210 C   0  0  0  0  0  0  0  0  0  0  0  0
   -1.8270   12.4520   -1.2900 C   0  0  0  0  0  0  0  0  0  0  0  0
   -0.5770   11.5900   -1.5850 C   0  0  1  0  0  0  0  0  0  0  0  0
   -0.6710   11.2550   -3.1060 C   0  0  0  0  0  0  0  0  0  0  0  0
    0.8030   12.2270   -1.2180 C   0  0  2  0  0  0  0  0  0  0  0  0
    1.1530   13.5140   -1.9850 C   0  0  0  0  0  0  0  0  0  0  0  0
    1.9020   13.3130   -3.2610 C   0  0  0  0  0  0  0  0  0  0  0  0
    2.5260   12.1790   -3.6300 C   0  0  0  0  0  0  0  0  0  0  0  0
    2.6010   10.9760   -2.6820 C   0  0  1  0  0  0  0  0  0  0  0  0
    4.0510   10.4240   -2.6580 C   0  0  0  0  0  0  0  0  0  0  0  0
    4.5760   10.1010   -4.0530 C   0  0  0  0  0  0  0  0  0  0  0  0
    4.5410   11.3360   -4.9490 C   0  0  2  0  0  0  0  0  0  0  0  0
    5.4800   12.2940   -4.4510 O   0  0  0  0  0  0  0  0  0  0  0  0
    3.1310   11.9850   -5.0430 C   0  0  0  0  0  0  0  0  0  0  0  0
    2.1870   11.0640   -5.8540 C   0  0  0  0  0  0  0  0  0  0  0  0
    3.2640   13.2990   -5.8590 C   0  0  0  0  0  0  0  0  0  0  0  0
    2.0110   11.2040   -1.2240 C   0  0  1  0  0  0  0  0  0  0  0  0
    3.1090   11.8060   -0.2940 C   0  0  0  0  0  0  0  0  0  0  0  0
    1.6190    9.8110   -0.6040 C   0  0  0  0  0  0  0  0  0  0  0  0
    0.2000    9.2920   -0.9040 C   0  0  0  0  0  0  0  0  0  0  0  0
   -0.8500   10.3730   -0.6280 C   0  0  2  0  0  0  0  0  0  0  0  0
   -0.7940   10.7140    0.9000 C   0  0  0  0  0  0  0  0  0  0  0  0
   -2.2391    7.4457    1.0632 H   0  0  0  0  0  0  0  0  0  0  0  0
   -3.0151    6.9898   -0.4913 H   0  0  0  0  0  0  0  0  0  0  0  0
   -1.4101    7.7964   -0.4913 H   0  0  0  0  0  0  0  0  0  0  0  0
   -3.0605    9.5244    0.9719 H   0  0  0  0  0  0  0  0  0  0  0  0
   -5.1716    9.5040    0.2673 H   0  0  0  0  0  0  0  0  0  0  0  0
   -4.6238    9.4621   -1.4765 H   0  0  0  0  0  0  0  0  0  0  0  0
   -4.1731    6.8798   -0.6477 H   0  0  0  0  0  0  0  0  0  0  0  0
   -5.6944    7.3281    0.2304 H   0  0  0  0  0  0  0  0  0  0  0  0
   -4.9990    6.8349   -2.3614 H   0  0  0  0  0  0  0  0  0  0  0  0
   -7.4424    7.1096    0.2335 H   0  0  0  0  0  0  0  0  0  0  0  0
   -8.8348    7.8896   -0.5909 H   0  0  0  0  0  0  0  0  0  0  0  0
   -8.6785    6.1001   -0.5909 H   0  0  0  0  0  0  0  0  0  0  0  0
   -8.6564    5.6931   -2.7724 H   0  0  0  0  0  0  0  0  0  0  0  0
   -8.4666    7.2192   -3.7007 H   0  0  0  0  0  0  0  0  0  0  0  0
   -7.1491    5.9983   -3.7007 H   0  0  0  0  0  0  0  0  0  0  0  0
   -2.3436    9.4161   -1.9057 H   0  0  0  0  0  0  0  0  0  0  0  0
   -3.6396   11.4520   -1.9987 H   0  0  0  0  0  0  0  0  0  0  0  0
   -3.5855   11.6580   -0.2345 H   0  0  0  0  0  0  0  0  0  0  0  0
   -2.0349   13.1343   -2.1274 H   0  0  0  0  0  0  0  0  0  0  0  0
   -1.6974   13.0846   -0.3995 H   0  0  0  0  0  0  0  0  0  0  0  0
   -0.9662   10.2029   -3.2322 H   0  0  0  0  0  0  0  0  0  0  0  0
   -1.4213   11.9056   -3.5791 H   0  0  0  0  0  0  0  0  0  0  0  0
    0.3082   11.4203   -3.5791 H   0  0  0  0  0  0  0  0  0  0  0  0
    0.6498   12.5348   -0.1731 H   0  0  0  0  0  0  0  0  0  0  0  0
    0.2134   14.0351   -2.2210 H   0  0  0  0  0  0  0  0  0  0  0  0
    1.8221   14.0878   -1.3269 H   0  0  0  0  0  0  0  0  0  0  0  0
    1.9476   14.1629   -3.9578 H   0  0  0  0  0  0  0  0  0  0  0  0
    1.9204   10.2188   -3.0984 H   0  0  0  0  0  0  0  0  0  0  0  0
    4.7079   11.1779   -2.1996 H   0  0  0  0  0  0  0  0  0  0  0  0
    4.0431    9.4888   -2.0790 H   0  0  0  0  0  0  0  0  0  0  0  0
    5.6132    9.7434   -3.9733 H   0  0  0  0  0  0  0  0  0  0  0  0
    3.9349    9.3261   -4.4984 H   0  0  0  0  0  0  0  0  0  0  0  0
    4.8058   11.0130   -5.9666 H   0  0  0  0  0  0  0  0  0  0  0  0
    6.1860   12.3860   -5.1130 H   0  0  0  0  0  0  0  0  0  0  0  0
    1.5746   10.4665   -5.1626 H   0  0  0  0  0  0  0  0  0  0  0  0
    1.5307   11.6784   -6.4878 H   0  0  0  0  0  0  0  0  0  0  0  0
    2.7851   10.3927   -6.4878 H   0  0  0  0  0  0  0  0  0  0  0  0
    3.3503   14.1517   -5.1694 H   0  0  0  0  0  0  0  0  0  0  0  0
    4.1615   13.2477   -6.4929 H   0  0  0  0  0  0  0  0  0  0  0  0
    2.3744   13.4286   -6.4929 H   0  0  0  0  0  0  0  0  0  0  0  0
    2.8249   11.6502    0.7572 H   0  0  0  0  0  0  0  0  0  0  0  0
    4.0700   11.3086   -0.4917 H   0  0  0  0  0  0  0  0  0  0  0  0
    3.2064   12.8837   -0.4917 H   0  0  0  0  0  0  0  0  0  0  0  0
    2.3332    9.0652   -0.9830 H   0  0  0  0  0  0  0  0  0  0  0  0
    1.6457    9.9629    0.4851 H   0  0  0  0  0  0  0  0  0  0  0  0
    0.1416    8.9955   -1.9617 H   0  0  0  0  0  0  0  0  0  0  0  0
   -0.0035    8.4309   -0.2505 H   0  0  0  0  0  0  0  0  0  0  0  0
   -0.9448    9.7956    1.4864 H   0  0  0  0  0  0  0  0  0  0  0  0
    0.1873   11.1474    1.1433 H   0  0  0  0  0  0  0  0  0  0  0  0
   -1.5852   11.4384    1.1433 H   0  0  0  0  0  0  0  0  0  0  0  0
  1  2  1  0
  2  3  1  0
  3  4  1  0
  4  5  1  0
  5  6  1  0
  6  7  1  0
  7  8  1  0
  7  9  1  0
  2 10  1  0
 10 11  1  0
 11 12  1  0
 12 13  1  0
 13 14  1  6
 13 15  1  0
 15 16  1  0
 16 17  1  0
 17 18  2  0
 18 19  1  0
 19 20  1  0
 20 21  1  0
 21 22  1  0
 22 23  1  0
 22 24  1  0
 24 25  1  0
 24 26  1  0
 19 27  1  0
 27 28  1  1
 27 29  1  0
 29 30  1  0
 30 31  1  0
 31 32  1  1
  7  5  1  0
 31 10  1  0
 31 13  1  0
 27 15  1  0
 24 18  1  0
  1 33  1  0
  1 34  1  0
  1 35  1  0
  2 36  1  1
  3 37  1  0
  3 38  1  0
  4 39  1  0
  4 40  1  0
  5 41  1  6
  8 42  1  0
  8 43  1  0
  8 44  1  0
  9 45  1  0
  9 46  1  0
  9 47  1  0
 10 48  1  6
 11 49  1  0
 11 50  1  0
 12 51  1  0
 12 52  1  0
 14 53  1  0
 14 54  1  0
 14 55  1  0
 15 56  1  1
 16 57  1  0
 16 58  1  0
 17 59  1  0
 19 60  1  6
 20 61  1  0
 20 62  1  0
 21 63  1  0
 21 64  1  0
 22 65  1  6
 23 66  1  0
 25 67  1  0
 25 68  1  0
 25 69  1  0
 26 70  1  0
 26 71  1  0
 26 72  1  0
 28 73  1  0
 28 74  1  0
 28 75  1  0
 29 76  1  0
 29 77  1  0
 30 78  1  0
 30 79  1  0
 32 80  1  0
 32 81  1  0
 32 82  1  0
M  END
>  <meeko>  (14) 
{"is_sidechain": [false], "intermolecular_energy": 2.731, "internal_energy": -0.839}

$$$$
EPH_relaxed_0001_pdb2pqr_Repair_333_r2_0001_out
     RDKit          3D

 82 86  0  0  0  0  0  0  0  0999 V2000
   -1.9170   14.3170    0.4890 C   0  0  0  0  0  0  0  0  0  0  0  0
   -0.5920   15.0820    0.4440 C   0  0  2  0  0  0  0  0  0  0  0  0
   -0.6120   16.2180   -0.5980 C   0  0  0  0  0  0  0  0  0  0  0  0
    0.2090   17.4440   -0.1880 C   0  0  0  0  0  0  0  0  0  0  0  0
    0.2270   18.4850   -1.2670 C   0  0  2  0  0  0  0  0  0  0  0  0
    0.4010   19.8290   -0.8000 O   0  0  0  0  0  0  0  0  0  0  0  0
   -0.8550   19.5360   -1.4340 C   0  0  0  0  0  0  0  0  0  0  0  0
   -2.0320   19.5980   -0.5110 C   0  0  0  0  0  0  0  0  0  0  0  0
   -1.0200   20.1860   -2.7720 C   0  0  0  0  0  0  0  0  0  0  0  0
    0.5530   14.1220    0.1460 C   0  0  1  0  0  0  0  0  0  0  0  0
    0.7400   13.0520    1.2550 C   0  0  0  0  0  0  0  0  0  0  0  0
    1.1890   11.7480    0.5480 C   0  0  0  0  0  0  0  0  0  0  0  0
    1.5640   12.1900   -0.8860 C   0  0  1  0  0  0  0  0  0  0  0  0
    3.0080   12.7690   -0.7620 C   0  0  0  0  0  0  0  0  0  0  0  0
    1.4750   11.0910   -1.9940 C   0  0  2  0  0  0  0  0  0  0  0  0
    2.4250    9.8950   -1.8040 C   0  0  0  0  0  0  0  0  0  0  0  0
    3.7650   10.0370   -2.4470 C   0  0  0  0  0  0  0  0  0  0  0  0
    4.0920   10.9480   -3.3810 C   0  0  0  0  0  0  0  0  0  0  0  0
    3.0350   11.9000   -3.9570 C   0  0  1  0  0  0  0  0  0  0  0  0
    3.1610   11.9400   -5.5020 C   0  0  0  0  0  0  0  0  0  0  0  0
    4.5720   12.2860   -5.9660 C   0  0  0  0  0  0  0  0  0  0  0  0
    5.5870   11.2840   -5.4210 C   0  0  2  0  0  0  0  0  0  0  0  0
    5.3410   10.0080   -6.0200 O   0  0  0  0  0  0  0  0  0  0  0  0
    5.5460   11.1510   -3.8730 C   0  0  0  0  0  0  0  0  0  0  0  0
    6.1030   12.4430   -3.2250 C   0  0  0  0  0  0  0  0  0  0  0  0
    6.5160   10.0090   -3.4670 C   0  0  0  0  0  0  0  0  0  0  0  0
    1.5420   11.6530   -3.4720 C   0  0  1  0  0  0  0  0  0  0  0  0
    0.8550   10.5910   -4.3840 C   0  0  0  0  0  0  0  0  0  0  0  0
    0.7190   12.9850   -3.6430 C   0  0  0  0  0  0  0  0  0  0  0  0
    0.7500   13.9770   -2.4650 C   0  0  0  0  0  0  0  0  0  0  0  0
    0.4470   13.2670   -1.1420 C   0  0  2  0  0  0  0  0  0  0  0  0
   -1.0080   12.6940   -1.2280 C   0  0  0  0  0  0  0  0  0  0  0  0
   -2.2080   14.1490    1.5364 H   0  0  0  0  0  0  0  0  0  0  0  0
   -2.6967   14.9039   -0.0185 H   0  0  0  0  0  0  0  0  0  0  0  0
   -1.7985   13.3483   -0.0185 H   0  0  0  0  0  0  0  0  0  0  0  0
   -0.4429   15.5429    1.4316 H   0  0  0  0  0  0  0  0  0  0  0  0
   -0.2066   15.8290   -1.5437 H   0  0  0  0  0  0  0  0  0  0  0  0
   -1.6569   16.5482   -0.6936 H   0  0  0  0  0  0  0  0  0  0  0  0
   -0.2311   17.8801    0.7209 H   0  0  0  0  0  0  0  0  0  0  0  0
    1.2443   17.1189   -0.0076 H   0  0  0  0  0  0  0  0  0  0  0  0
    0.6835   17.7771   -1.9745 H   0  0  0  0  0  0  0  0  0  0  0  0
   -1.6817   19.5795    0.5316 H   0  0  0  0  0  0  0  0  0  0  0  0
   -2.5923   20.5269   -0.6932 H   0  0  0  0  0  0  0  0  0  0  0  0
   -2.6868   18.7331   -0.6932 H   0  0  0  0  0  0  0  0  0  0  0  0
   -1.2885   21.2439   -2.6351 H   0  0  0  0  0  0  0  0  0  0  0  0
   -0.0758   20.1169   -3.3321 H   0  0  0  0  0  0  0  0  0  0  0  0
   -1.8169   19.6749   -3.3321 H   0  0  0  0  0  0  0  0  0  0  0  0
    1.3785   14.8431    0.0530 H   0  0  0  0  0  0  0  0  0  0  0  0
    1.5088   13.3787    1.9707 H   0  0  0  0  0  0  0  0  0  0  0  0
   -0.1941   12.8961    1.8145 H   0  0  0  0  0  0  0  0  0  0  0  0
    2.0587   11.3091    1.0589 H   0  0  0  0  0  0  0  0  0  0  0  0
    0.4032   10.9783    0.5549 H   0  0  0  0  0  0  0  0  0  0  0  0
    3.2708   12.8744    0.3009 H   0  0  0  0  0  0  0  0  0  0  0  0
    3.7198   12.0867   -1.2498 H   0  0  0  0  0  0  0  0  0  0  0  0
    3.0512   13.7540   -1.2498 H   0  0  0  0  0  0  0  0  0  0  0  0
    0.4598   10.6927   -1.8501 H   0  0  0  0  0  0  0  0  0  0  0  0
    2.5794    9.7517   -0.7244 H   0  0  0  0  0  0  0  0  0  0  0  0
    1.9399    9.0395   -2.2968 H   0  0  0  0  0  0  0  0  0  0  0  0
    4.5519    9.3369   -2.1299 H   0  0  0  0  0  0  0  0  0  0  0  0
    3.2594   12.8925   -3.5390 H   0  0  0  0  0  0  0  0  0  0  0  0
    2.8903   10.9522   -5.9033 H   0  0  0  0  0  0  0  0  0  0  0  0
    2.4863   12.7264   -5.8713 H   0  0  0  0  0  0  0  0  0  0  0  0
    4.6038   12.2687   -7.0654 H   0  0  0  0  0  0  0  0  0  0  0  0
    4.8298   13.2868   -5.5894 H   0  0  0  0  0  0  0  0  0  0  0  0
    6.5897   11.6570   -5.6771 H   0  0  0  0  0  0  0  0  0  0  0  0
    4.4010    9.7970   -5.8880 H   0  0  0  0  0  0  0  0  0  0  0  0
    6.0631   12.3504   -2.1296 H   0  0  0  0  0  0  0  0  0  0  0  0
    7.1455   12.5925   -3.5426 H   0  0  0  0  0  0  0  0  0  0  0  0
    5.4960   13.3036   -3.5426 H   0  0  0  0  0  0  0  0  0  0  0  0
    6.5695    9.9460   -2.3701 H   0  0  0  0  0  0  0  0  0  0  0  0
    6.1484    9.0545   -3.8716 H   0  0  0  0  0  0  0  0  0  0  0  0
    7.5174   10.2173   -3.8716 H   0  0  0  0  0  0  0  0  0  0  0  0
    0.3640    9.8320   -3.7572 H   0  0  0  0  0  0  0  0  0  0  0  0
    0.1041   11.0837   -5.0191 H   0  0  0  0  0  0  0  0  0  0  0  0
    1.6123   10.1081   -5.0191 H   0  0  0  0  0  0  0  0  0  0  0  0
    1.1113   13.5072   -4.5281 H   0  0  0  0  0  0  0  0  0  0  0  0
   -0.3308   12.6663   -3.7232 H   0  0  0  0  0  0  0  0  0  0  0  0
    1.7482   14.4355   -2.4069 H   0  0  0  0  0  0  0  0  0  0  0  0
   -0.0179   14.7462   -2.6340 H   0  0  0  0  0  0  0  0  0  0  0  0
   -1.4016   12.5390   -0.2126 H   0  0  0  0  0  0  0  0  0  0  0  0
   -1.6513   13.4060   -1.7659 H   0  0  0  0  0  0  0  0  0  0  0  0
   -0.9931   11.7346   -1.7659 H   0  0  0  0  0  0  0  0  0  0  0  0
  1  2  1  0
  2  3  1  0
  3  4  1  0
  4  5  1  0
  5  6  1  0
  6  7  1  0
  7  8  1  0
  7  9  1  0
  2 10  1  0
 10 11  1  0
 11 12  1  0
 12 13  1  0
 13 14  1  1
 13 15  1  0
 15 16  1  0
 16 17  1  0
 17 18  2  0
 18 19  1  0
 19 20  1  0
 20 21  1  0
 21 22  1  0
 22 23  1  0
 22 24  1  0
 24 25  1  0
 24 26  1  0
 19 27  1  0
 27 28  1  6
 27 29  1  0
 29 30  1  0
 30 31  1  0
 31 32  1  6
  7  5  1  0
 31 10  1  0
 31 13  1  0
 27 15  1  0
 24 18  1  0
  1 33  1  0
  1 34  1  0
  1 35  1  0
  2 36  1  1
  3 37  1  0
  3 38  1  0
  4 39  1  0
  4 40  1  0
  5 41  1  6
  8 42  1  0
  8 43  1  0
  8 44  1  0
  9 45  1  0
  9 46  1  0
  9 47  1  0
 10 48  1  6
 11 49  1  0
 11 50  1  0
 12 51  1  0
 12 52  1  0
 14 53  1  0
 14 54  1  0
 14 55  1  0
 15 56  1  6
 16 57  1  0
 16 58  1  0
 17 59  1  0
 19 60  1  1
 20 61  1  0
 20 62  1  0
 21 63  1  0
 21 64  1  0
 22 65  1  1
 23 66  1  0
 25 67  1  0
 25 68  1  0
 25 69  1  0
 26 70  1  0
 26 71  1  0
 26 72  1  0
 28 73  1  0
 28 74  1  0
 28 75  1  0
 29 76  1  0
 29 77  1  0
 30 78  1  0
 30 79  1  0
 32 80  1  0
 32 81  1  0
 32 82  1  0
M  END
>  <meeko>  (15) 
{"is_sidechain": [false], "intermolecular_energy": 2.731, "internal_energy": -0.839}

$$$$
EPH_relaxed_0001_pdb2pqr_Repair_333_r2_0001_out
     RDKit          3D

 82 86  0  0  0  0  0  0  0  0999 V2000
  -15.0740    9.0270    0.8080 C   0  0  0  0  0  0  0  0  0  0  0  0
  -14.2020    9.1970   -0.4390 C   0  0  2  0  0  0  0  0  0  0  0  0
  -14.5910    8.2120   -1.5590 C   0  0  0  0  0  0  0  0  0  0  0  0
  -14.5810    8.8350   -2.9580 C   0  0  0  0  0  0  0  0  0  0  0  0
  -15.2770   10.1630   -2.9790 C   0  0  2  0  0  0  0  0  0  0  0  0
  -15.0530   10.9370   -4.1640 O   0  0  0  0  0  0  0  0  0  0  0  0
  -14.5440   11.4910   -2.9400 C   0  0  0  0  0  0  0  0  0  0  0  0
  -13.0510   11.5570   -2.8770 C   0  0  0  0  0  0  0  0  0  0  0  0
  -15.2870   12.7040   -2.4730 C   0  0  0  0  0  0  0  0  0  0  0  0
  -12.7330    9.0170   -0.0740 C   0  0  1  0  0  0  0  0  0  0  0  0
  -12.5060    8.9110    1.4570 C   0  0  0  0  0  0  0  0  0  0  0  0
  -11.3340    7.9190    1.6690 C   0  0  0  0  0  0  0  0  0  0  0  0
  -10.7120    7.7450    0.2630 C   0  0  1  0  0  0  0  0  0  0  0  0
   -9.7900    8.9900    0.0750 C   0  0  0  0  0  0  0  0  0  0  0  0
   -9.9390    6.4100    0.0110 C   0  0  2  0  0  0  0  0  0  0  0  0
   -8.7030    6.1940    0.9010 C   0  0  0  0  0  0  0  0  0  0  0  0
   -7.4180    6.7150    0.3470 C   0  0  0  0  0  0  0  0  0  0  0  0
   -7.2080    7.0760   -0.9330 C   0  0  0  0  0  0  0  0  0  0  0  0
   -8.2970    6.8810   -1.9950 C   0  0  1  0  0  0  0  0  0  0  0  0
   -7.6750    6.2390   -3.2630 C   0  0  0  0  0  0  0  0  0  0  0  0
   -6.4790    7.0260   -3.7910 C   0  0  0  0  0  0  0  0  0  0  0  0
   -5.3940    7.1480   -2.7250 C   0  0  2  0  0  0  0  0  0  0  0  0
   -4.8520    5.8490   -2.4670 O   0  0  0  0  0  0  0  0  0  0  0  0
   -5.9060    7.7730   -1.3970 C   0  0  0  0  0  0  0  0  0  0  0  0
   -6.2100    9.2760   -1.6130 C   0  0  0  0  0  0  0  0  0  0  0  0
   -4.7500    7.7090   -0.3620 C   0  0  0  0  0  0  0  0  0  0  0  0
   -9.6110    6.1280   -1.5110 C   0  0  1  0  0  0  0  0  0  0  0  0
   -9.4210    4.5870   -1.6490 C   0  0  0  0  0  0  0  0  0  0  0  0
  -10.8050    6.5150   -2.4620 C   0  0  0  0  0  0  0  0  0  0  0  0
  -11.6060    7.7780   -2.0920 C   0  0  0  0  0  0  0  0  0  0  0  0
  -12.0150    7.7550   -0.6170 C   0  0  2  0  0  0  0  0  0  0  0  0
  -12.9620    6.5260   -0.4020 C   0  0  0  0  0  0  0  0  0  0  0  0
  -14.4538    9.1479    1.7084 H   0  0  0  0  0  0  0  0  0  0  0  0
  -15.8692    9.7870    0.8057 H   0  0  0  0  0  0  0  0  0  0  0  0
  -15.5255    8.0239    0.8057 H   0  0  0  0  0  0  0  0  0  0  0  0
  -14.3682   10.2145   -0.8226 H   0  0  0  0  0  0  0  0  0  0  0  0
  -13.8788    7.3738   -1.5471 H   0  0  0  0  0  0  0  0  0  0  0  0
  -15.6232    7.8888   -1.3585 H   0  0  0  0  0  0  0  0  0  0  0  0
  -13.5380    8.9741   -3.2788 H   0  0  0  0  0  0  0  0  0  0  0  0
  -15.1160    8.1568   -3.6391 H   0  0  0  0  0  0  0  0  0  0  0  0
  -16.1111    9.7627   -2.3840 H   0  0  0  0  0  0  0  0  0  0  0  0
  -12.7287   11.5712   -1.8254 H   0  0  0  0  0  0  0  0  0  0  0  0
  -12.6235   10.6769   -3.3796 H   0  0  0  0  0  0  0  0  0  0  0  0
  -12.7029   12.4714   -3.3796 H   0  0  0  0  0  0  0  0  0  0  0  0
  -15.3000   12.7252   -1.3733 H   0  0  0  0  0  0  0  0  0  0  0  0
  -14.7876   13.6081   -2.8513 H   0  0  0  0  0  0  0  0  0  0  0  0
  -16.3193   12.6699   -2.8513 H   0  0  0  0  0  0  0  0  0  0  0  0
  -12.3147    9.9198   -0.5431 H   0  0  0  0  0  0  0  0  0  0  0  0
  -12.2470    9.8969    1.8705 H   0  0  0  0  0  0  0  0  0  0  0  0
  -13.4157    8.5617    1.9674 H   0  0  0  0  0  0  0  0  0  0  0  0
  -10.5962    8.3338    2.3716 H   0  0  0  0  0  0  0  0  0  0  0  0
  -11.6685    6.9633    2.0988 H   0  0  0  0  0  0  0  0  0  0  0  0
   -9.4990    9.3829    1.0604 H   0  0  0  0  0  0  0  0  0  0  0  0
   -8.8888    8.6978   -0.4839 H   0  0  0  0  0  0  0  0  0  0  0  0
  -10.3323    9.7668   -0.4839 H   0  0  0  0  0  0  0  0  0  0  0  0
  -10.6706    5.6512    0.3258 H   0  0  0  0  0  0  0  0  0  0  0  0
   -8.8857    6.6944    1.8634 H   0  0  0  0  0  0  0  0  0  0  0  0
   -8.5772    5.1046    0.9872 H   0  0  0  0  0  0  0  0  0  0  0  0
   -6.5718    6.8120    1.0431 H   0  0  0  0  0  0  0  0  0  0  0  0
   -8.6735    7.8869   -2.2326 H   0  0  0  0  0  0  0  0  0  0  0  0
   -7.3448    5.2192   -3.0161 H   0  0  0  0  0  0  0  0  0  0  0  0
   -8.4456    6.2362   -4.0480 H   0  0  0  0  0  0  0  0  0  0  0  0
   -6.0653    6.5071   -4.6682 H   0  0  0  0  0  0  0  0  0  0  0  0
   -6.8167    8.0361   -4.0660 H   0  0  0  0  0  0  0  0  0  0  0  0
   -4.6241    7.8295   -3.1160 H   0  0  0  0  0  0  0  0  0  0  0  0
   -5.5990    5.2360   -2.3540 H   0  0  0  0  0  0  0  0  0  0  0  0
   -6.3107    9.7737   -0.6372 H   0  0  0  0  0  0  0  0  0  0  0  0
   -5.3873    9.7390   -2.1776 H   0  0  0  0  0  0  0  0  0  0  0  0
   -7.1480    9.3829   -2.1776 H   0  0  0  0  0  0  0  0  0  0  0  0
   -5.1672    7.7321    0.6556 H   0  0  0  0  0  0  0  0  0  0  0  0
   -4.1816    6.7780   -0.5042 H   0  0  0  0  0  0  0  0  0  0  0  0
   -4.0823    8.5716   -0.5042 H   0  0  0  0  0  0  0  0  0  0  0  0
   -9.3651    4.1334   -0.6484 H   0  0  0  0  0  0  0  0  0  0  0  0
  -10.2733    4.1602   -2.1980 H   0  0  0  0  0  0  0  0  0  0  0  0
   -8.4905    4.3800   -2.1980 H   0  0  0  0  0  0  0  0  0  0  0  0
  -10.3919    6.6663   -3.4702 H   0  0  0  0  0  0  0  0  0  0  0  0
  -11.5214    5.6846   -2.3774 H   0  0  0  0  0  0  0  0  0  0  0  0
  -10.9844    8.6660   -2.2792 H   0  0  0  0  0  0  0  0  0  0  0  0
  -12.5168    7.8086   -2.7080 H   0  0  0  0  0  0  0  0  0  0  0  0
  -13.0968    6.3511    0.6756 H   0  0  0  0  0  0  0  0  0  0  0  0
  -13.9386    6.7301   -0.8653 H   0  0  0  0  0  0  0  0  0  0  0  0
  -12.5157    5.6337   -0.8653 H   0  0  0  0  0  0  0  0  0  0  0  0
  1  2  1  0
  2  3  1  0
  3  4  1  0
  4  5  1  0
  5  6  1  0
  6  7  1  0
  7  8  1  0
  7  9  1  0
  2 10  1  0
 10 11  1  0
 11 12  1  0
 12 13  1  0
 13 14  1  6
 13 15  1  0
 15 16  1  0
 16 17  1  0
 17 18  2  0
 18 19  1  0
 19 20  1  0
 20 21  1  0
 21 22  1  0
 22 23  1  0
 22 24  1  0
 24 25  1  0
 24 26  1  0
 19 27  1  0
 27 28  1  1
 27 29  1  0
 29 30  1  0
 30 31  1  0
 31 32  1  6
  7  5  1  0
 31 10  1  0
 31 13  1  0
 27 15  1  0
 24 18  1  0
  1 33  1  0
  1 34  1  0
  1 35  1  0
  2 36  1  6
  3 37  1  0
  3 38  1  0
  4 39  1  0
  4 40  1  0
  5 41  1  1
  8 42  1  0
  8 43  1  0
  8 44  1  0
  9 45  1  0
  9 46  1  0
  9 47  1  0
 10 48  1  6
 11 49  1  0
 11 50  1  0
 12 51  1  0
 12 52  1  0
 14 53  1  0
 14 54  1  0
 14 55  1  0
 15 56  1  1
 16 57  1  0
 16 58  1  0
 17 59  1  0
 19 60  1  6
 20 61  1  0
 20 62  1  0
 21 63  1  0
 21 64  1  0
 22 65  1  6
 23 66  1  0
 25 67  1  0
 25 68  1  0
 25 69  1  0
 26 70  1  0
 26 71  1  0
 26 72  1  0
 28 73  1  0
 28 74  1  0
 28 75  1  0
 29 76  1  0
 29 77  1  0
 30 78  1  0
 30 79  1  0
 32 80  1  0
 32 81  1  0
 32 82  1  0
M  END
>  <meeko>  (16) 
{"is_sidechain": [false], "intermolecular_energy": 2.731, "internal_energy": -0.839}

$$$$
EPH_relaxed_0001_pdb2pqr_Repair_333_r2_0001_out
     RDKit          3D

 82 86  0  0  0  0  0  0  0  0999 V2000
    0.8150   14.8530   -4.3920 C   0  0  0  0  0  0  0  0  0  0  0  0
    0.5690   14.2320   -3.0150 C   0  0  2  0  0  0  0  0  0  0  0  0
    1.7860   14.3880   -2.0810 C   0  0  0  0  0  0  0  0  0  0  0  0
    1.8660   15.7540   -1.3960 C   0  0  0  0  0  0  0  0  0  0  0  0
    0.5050   16.3460   -1.1810 C   0  0  2  0  0  0  0  0  0  0  0  0
    0.2860   17.5990   -1.8420 O   0  0  0  0  0  0  0  0  0  0  0  0
    0.2640   17.6280   -0.4060 C   0  0  0  0  0  0  0  0  0  0  0  0
    1.3940   18.3960    0.2050 C   0  0  0  0  0  0  0  0  0  0  0  0
   -1.0960   17.8700    0.1710 C   0  0  0  0  0  0  0  0  0  0  0  0
    0.2140   12.7570   -3.1650 C   0  0  1  0  0  0  0  0  0  0  0  0
    1.4530   11.8710   -3.4600 C   0  0  0  0  0  0  0  0  0  0  0  0
    1.2130   10.5150   -2.7490 C   0  0  0  0  0  0  0  0  0  0  0  0
   -0.2820   10.5420   -2.3530 C   0  0  1  0  0  0  0  0  0  0  0  0
   -1.0490   10.1400   -3.6520 C   0  0  0  0  0  0  0  0  0  0  0  0
   -0.6920    9.6450   -1.1400 C   0  0  2  0  0  0  0  0  0  0  0  0
   -0.4750    8.1350   -1.3420 C   0  0  0  0  0  0  0  0  0  0  0  0
   -1.6360    7.3950   -1.9200 C   0  0  0  0  0  0  0  0  0  0  0  0
   -2.8970    7.8590   -2.0000 C   0  0  0  0  0  0  0  0  0  0  0  0
   -3.2790    9.2120   -1.3870 C   0  0  1  0  0  0  0  0  0  0  0  0
   -4.5920    9.0610   -0.5750 C   0  0  0  0  0  0  0  0  0  0  0  0
   -5.7230    8.4540   -1.4000 C   0  0  0  0  0  0  0  0  0  0  0  0
   -5.3270    7.0840   -1.9430 C   0  0  2  0  0  0  0  0  0  0  0  0
   -5.1870    6.1760   -0.8460 O   0  0  0  0  0  0  0  0  0  0  0  0
   -4.0110    7.1090   -2.7710 C   0  0  0  0  0  0  0  0  0  0  0  0
   -4.2540    7.8460   -4.1110 C   0  0  0  0  0  0  0  0  0  0  0  0
   -3.6500    5.6450   -3.1390 C   0  0  0  0  0  0  0  0  0  0  0  0
   -2.1350    9.9490   -0.5660 C   0  0  1  0  0  0  0  0  0  0  0  0
   -2.1400    9.4560    0.9130 C   0  0  0  0  0  0  0  0  0  0  0  0
   -2.4470   11.4920   -0.5200 C   0  0  0  0  0  0  0  0  0  0  0  0
   -1.9130   12.3440   -1.6880 C   0  0  0  0  0  0  0  0  0  0  0  0
   -0.4310   12.0530   -1.9450 C   0  0  2  0  0  0  0  0  0  0  0  0
    0.3680   12.4680   -0.6640 C   0  0  0  0  0  0  0  0  0  0  0  0
    1.2176   15.8693   -4.2693 H   0  0  0  0  0  0  0  0  0  0  0  0
    1.5371   14.2372   -4.9482 H   0  0  0  0  0  0  0  0  0  0  0  0
   -0.1329   14.8988   -4.9482 H   0  0  0  0  0  0  0  0  0  0  0  0
   -0.2717   14.7720   -2.5549 H   0  0  0  0  0  0  0  0  0  0  0  0
    1.7281   13.6125   -1.3030 H   0  0  0  0  0  0  0  0  0  0  0  0
    2.6854   14.2895   -2.7066 H   0  0  0  0  0  0  0  0  0  0  0  0
    2.3616   15.6357   -0.4211 H   0  0  0  0  0  0  0  0  0  0  0  0
    2.4364   16.4321   -2.0478 H   0  0  0  0  0  0  0  0  0  0  0  0
    0.0545   15.3450   -1.1102 H   0  0  0  0  0  0  0  0  0  0  0  0
    1.3207   18.3462    1.3014 H   0  0  0  0  0  0  0  0  0  0  0  0
    2.3508   17.9603   -0.1187 H   0  0  0  0  0  0  0  0  0  0  0  0
    1.3411   19.4460   -0.1187 H   0  0  0  0  0  0  0  0  0  0  0  0
   -1.0356   17.8592    1.2693 H   0  0  0  0  0  0  0  0  0  0  0  0
   -1.4685   18.8485   -0.1662 H   0  0  0  0  0  0  0  0  0  0  0  0
   -1.7832   17.0800   -0.1662 H   0  0  0  0  0  0  0  0  0  0  0  0
   -0.5132   12.8255   -3.9875 H   0  0  0  0  0  0  0  0  0  0  0  0
    1.5589   11.7168   -4.5440 H   0  0  0  0  0  0  0  0  0  0  0  0
    2.3753   12.3488   -3.0979 H   0  0  0  0  0  0  0  0  0  0  0  0
    1.4191    9.6770   -3.4311 H   0  0  0  0  0  0  0  0  0  0  0  0
    1.8726   10.3771   -1.8796 H   0  0  0  0  0  0  0  0  0  0  0  0
   -1.9934    9.6450   -3.3818 H   0  0  0  0  0  0  0  0  0  0  0  0
   -1.2639   11.0414   -4.2447 H   0  0  0  0  0  0  0  0  0  0  0  0
   -0.4300    9.4504   -4.2447 H   0  0  0  0  0  0  0  0  0  0  0  0
    0.0294    9.9505   -0.3678 H   0  0  0  0  0  0  0  0  0  0  0  0
    0.3829    8.0024   -2.0176 H   0  0  0  0  0  0  0  0  0  0  0  0
   -0.3151    7.7138   -0.3385 H   0  0  0  0  0  0  0  0  0  0  0  0
   -1.4447    6.3858   -2.3135 H   0  0  0  0  0  0  0  0  0  0  0  0
   -3.4410    9.8945   -2.2343 H   0  0  0  0  0  0  0  0  0  0  0  0
   -4.3985    8.4105    0.2907 H   0  0  0  0  0  0  0  0  0  0  0  0
   -4.9091   10.0669   -0.2624 H   0  0  0  0  0  0  0  0  0  0  0  0
   -6.6142    8.3455   -0.7644 H   0  0  0  0  0  0  0  0  0  0  0  0
   -5.9352    9.1204   -2.2491 H   0  0  0  0  0  0  0  0  0  0  0  0
   -6.1231    6.7592   -2.6291 H   0  0  0  0  0  0  0  0  0  0  0  0
   -6.0640    5.7980   -0.6630 H   0  0  0  0  0  0  0  0  0  0  0  0
   -4.5926    8.8728   -3.9086 H   0  0  0  0  0  0  0  0  0  0  0  0
   -3.3181    7.8756   -4.6882 H   0  0  0  0  0  0  0  0  0  0  0  0
   -5.0240    7.3131   -4.6882 H   0  0  0  0  0  0  0  0  0  0  0  0
   -3.5058    5.0604   -2.2184 H   0  0  0  0  0  0  0  0  0  0  0  0
   -4.4662    5.2035   -3.7297 H   0  0  0  0  0  0  0  0  0  0  0  0
   -2.7221    5.6335   -3.7297 H   0  0  0  0  0  0  0  0  0  0  0  0
   -2.1312   10.3239    1.5888 H   0  0  0  0  0  0  0  0  0  0  0  0
   -3.0443    8.8573    1.0969 H   0  0  0  0  0  0  0  0  0  0  0  0
   -1.2481    8.8390    1.0969 H   0  0  0  0  0  0  0  0  0  0  0  0
   -3.5404   11.6098   -0.4948 H   0  0  0  0  0  0  0  0  0  0  0  0
   -1.9225   11.8653    0.3719 H   0  0  0  0  0  0  0  0  0  0  0  0
   -2.4884   12.1110   -2.5961 H   0  0  0  0  0  0  0  0  0  0  0  0
   -2.0219   13.4068   -1.4259 H   0  0  0  0  0  0  0  0  0  0  0  0
   -0.1979   12.1741    0.2323 H   0  0  0  0  0  0  0  0  0  0  0  0
    1.3456   11.9637   -0.6622 H   0  0  0  0  0  0  0  0  0  0  0  0
    0.5176   13.5578   -0.6622 H   0  0  0  0  0  0  0  0  0  0  0  0
  1  2  1  0
  2  3  1  0
  3  4  1  0
  4  5  1  0
  5  6  1  0
  6  7  1  0
  7  8  1  0
  7  9  1  0
  2 10  1  0
 10 11  1  0
 11 12  1  0
 12 13  1  0
 13 14  1  6
 13 15  1  0
 15 16  1  0
 16 17  1  0
 17 18  2  0
 18 19  1  0
 19 20  1  0
 20 21  1  0
 21 22  1  0
 22 23  1  0
 22 24  1  0
 24 25  1  0
 24 26  1  0
 19 27  1  0
 27 28  1  1
 27 29  1  0
 29 30  1  0
 30 31  1  0
 31 32  1  1
  7  5  1  0
 31 10  1  0
 31 13  1  0
 27 15  1  0
 24 18  1  0
  1 33  1  0
  1 34  1  0
  1 35  1  0
  2 36  1  1
  3 37  1  0
  3 38  1  0
  4 39  1  0
  4 40  1  0
  5 41  1  6
  8 42  1  0
  8 43  1  0
  8 44  1  0
  9 45  1  0
  9 46  1  0
  9 47  1  0
 10 48  1  6
 11 49  1  0
 11 50  1  0
 12 51  1  0
 12 52  1  0
 14 53  1  0
 14 54  1  0
 14 55  1  0
 15 56  1  1
 16 57  1  0
 16 58  1  0
 17 59  1  0
 19 60  1  6
 20 61  1  0
 20 62  1  0
 21 63  1  0
 21 64  1  0
 22 65  1  6
 23 66  1  0
 25 67  1  0
 25 68  1  0
 25 69  1  0
 26 70  1  0
 26 71  1  0
 26 72  1  0
 28 73  1  0
 28 74  1  0
 28 75  1  0
 29 76  1  0
 29 77  1  0
 30 78  1  0
 30 79  1  0
 32 80  1  0
 32 81  1  0
 32 82  1  0
M  END
>  <meeko>  (17) 
{"is_sidechain": [false], "intermolecular_energy": 2.731, "internal_energy": -0.839}

$$$$
EPH_relaxed_0001_pdb2pqr_Repair_333_r2_0001_out
     RDKit          3D

 82 86  0  0  0  0  0  0  0  0999 V2000
    0.5360   18.0670   -2.7110 C   0  0  0  0  0  0  0  0  0  0  0  0
    1.1670   17.0090   -3.6200 C   0  0  2  0  0  0  0  0  0  0  0  0
    0.2180   16.5770   -4.7550 C   0  0  0  0  0  0  0  0  0  0  0  0
    0.8770   15.6700   -5.7970 C   0  0  0  0  0  0  0  0  0  0  0  0
    0.5370   16.0930   -7.1950 C   0  0  2  0  0  0  0  0  0  0  0  0
    0.2480   15.0140   -8.0930 O   0  0  0  0  0  0  0  0  0  0  0  0
    1.4160   15.7950   -8.3960 C   0  0  0  0  0  0  0  0  0  0  0  0
    2.7030   15.0450   -8.2540 C   0  0  0  0  0  0  0  0  0  0  0  0
    1.2710   16.6480   -9.6170 C   0  0  0  0  0  0  0  0  0  0  0  0
    1.5800   15.7950   -2.7960 C   0  0  1  0  0  0  0  0  0  0  0  0
    2.4410   16.1750   -1.5620 C   0  0  0  0  0  0  0  0  0  0  0  0
    2.0620   15.1850   -0.4300 C   0  0  0  0  0  0  0  0  0  0  0  0
    1.2540   14.0730   -1.1390 C   0  0  1  0  0  0  0  0  0  0  0  0
    2.3300   13.1360   -1.7720 C   0  0  0  0  0  0  0  0  0  0  0  0
    0.2460   13.2770   -0.2480 C   0  0  2  0  0  0  0  0  0  0  0  0
    0.8830   12.4800    0.9040 C   0  0  0  0  0  0  0  0  0  0  0  0
    1.2660   11.0750    0.5720 C   0  0  0  0  0  0  0  0  0  0  0  0
    0.8520   10.3860   -0.5070 C   0  0  0  0  0  0  0  0  0  0  0  0
   -0.1700   10.9860   -1.4810 C   0  0  1  0  0  0  0  0  0  0  0  0
   -1.2630    9.9320   -1.7980 C   0  0  0  0  0  0  0  0  0  0  0  0
   -0.6790    8.6160   -2.3040 C   0  0  0  0  0  0  0  0  0  0  0  0
    0.2890    8.0220   -1.2830 C   0  0  2  0  0  0  0  0  0  0  0  0
   -0.4490    7.6350   -0.1200 O   0  0  0  0  0  0  0  0  0  0  0  0
    1.4290    8.9970   -0.8790 C   0  0  0  0  0  0  0  0  0  0  0  0
    2.4050    9.1790   -2.0670 C   0  0  0  0  0  0  0  0  0  0  0  0
    2.2490    8.3290    0.2580 C   0  0  0  0  0  0  0  0  0  0  0  0
   -0.7820   12.3920   -1.0640 C   0  0  1  0  0  0  0  0  0  0  0  0
   -2.0200   12.1820   -0.1400 C   0  0  0  0  0  0  0  0  0  0  0  0
   -1.3100   13.1250   -2.3540 C   0  0  0  0  0  0  0  0  0  0  0  0
   -0.2970   13.9930   -3.1240 C   0  0  0  0  0  0  0  0  0  0  0  0
    0.4480   14.9380   -2.1760 C   0  0  2  0  0  0  0  0  0  0  0  0
   -0.6060   15.9080   -1.5420 C   0  0  0  0  0  0  0  0  0  0  0  0
    0.7003   17.7915   -1.6588 H   0  0  0  0  0  0  0  0  0  0  0  0
    0.9985   19.0449   -2.9105 H   0  0  0  0  0  0  0  0  0  0  0  0
   -0.5442   18.1248   -2.9105 H   0  0  0  0  0  0  0  0  0  0  0  0
    2.0546   17.4612   -4.0866 H   0  0  0  0  0  0  0  0  0  0  0  0
   -0.6307   16.0361   -4.3110 H   0  0  0  0  0  0  0  0  0  0  0  0
   -0.0949   17.4927   -5.2781 H   0  0  0  0  0  0  0  0  0  0  0  0
    1.9685   15.7124   -5.6672 H   0  0  0  0  0  0  0  0  0  0  0  0
    0.5017   14.6469   -5.6475 H   0  0  0  0  0  0  0  0  0  0  0  0
    0.0802   17.0239   -6.8279 H   0  0  0  0  0  0  0  0  0  0  0  0
    2.9333   14.9108   -7.1868 H   0  0  0  0  0  0  0  0  0  0  0  0
    2.6087   14.0604   -8.7354 H   0  0  0  0  0  0  0  0  0  0  0  0
    3.5131   15.6124   -8.7354 H   0  0  0  0  0  0  0  0  0  0  0  0
    1.0937   17.6912   -9.3165 H   0  0  0  0  0  0  0  0  0  0  0  0
    2.1918   16.5904  -10.2160 H   0  0  0  0  0  0  0  0  0  0  0  0
    0.4209   16.2894  -10.2160 H   0  0  0  0  0  0  0  0  0  0  0  0
    2.1080   15.2182   -3.5696 H   0  0  0  0  0  0  0  0  0  0  0  0
    3.5103   16.0831   -1.8034 H   0  0  0  0  0  0  0  0  0  0  0  0
    2.2550   17.2150   -1.2558 H   0  0  0  0  0  0  0  0  0  0  0  0
    2.9650   14.7690    0.0406 H   0  0  0  0  0  0  0  0  0  0  0  0
    1.4883   15.6698    0.3736 H   0  0  0  0  0  0  0  0  0  0  0  0
    2.8999   12.6397   -0.9727 H   0  0  0  0  0  0  0  0  0  0  0  0
    1.8343   12.3767   -2.3947 H   0  0  0  0  0  0  0  0  0  0  0  0
    3.0140   13.7313   -2.3947 H   0  0  0  0  0  0  0  0  0  0  0  0
   -0.3337   14.0810    0.2290 H   0  0  0  0  0  0  0  0  0  0  0  0
    1.7902   13.0128    1.2251 H   0  0  0  0  0  0  0  0  0  0  0  0
    0.1136   12.4089    1.6869 H   0  0  0  0  0  0  0  0  0  0  0  0
    1.9439   10.5600    1.2686 H   0  0  0  0  0  0  0  0  0  0  0  0
    0.3892   11.2314   -2.3959 H   0  0  0  0  0  0  0  0  0  0  0  0
   -1.8374    9.7333   -0.8812 H   0  0  0  0  0  0  0  0  0  0  0  0
   -1.9007   10.3422   -2.5950 H   0  0  0  0  0  0  0  0  0  0  0  0
   -1.4977    7.9031   -2.4815 H   0  0  0  0  0  0  0  0  0  0  0  0
   -0.1303    8.8104   -3.2373 H   0  0  0  0  0  0  0  0  0  0  0  0
    0.7730    7.1536   -1.7537 H   0  0  0  0  0  0  0  0  0  0  0  0
   -0.6950    6.7000   -0.2240 H   0  0  0  0  0  0  0  0  0  0  0  0
    3.4184    9.3680   -1.6833 H   0  0  0  0  0  0  0  0  0  0  0  0
    2.4096    8.2662   -2.6809 H   0  0  0  0  0  0  0  0  0  0  0  0
    2.0804   10.0321   -2.6809 H   0  0  0  0  0  0  0  0  0  0  0  0
    1.8539    8.6509    1.2328 H   0  0  0  0  0  0  0  0  0  0  0  0
    2.1697    7.2351    0.1733 H   0  0  0  0  0  0  0  0  0  0  0  0
    3.3042    8.6278    0.1733 H   0  0  0  0  0  0  0  0  0  0  0  0
   -1.7052   12.2354    0.9126 H   0  0  0  0  0  0  0  0  0  0  0  0
   -2.7644   12.9667   -0.3403 H   0  0  0  0  0  0  0  0  0  0  0  0
   -2.4640   11.1957   -0.3403 H   0  0  0  0  0  0  0  0  0  0  0  0
   -1.6816   12.3547   -3.0458 H   0  0  0  0  0  0  0  0  0  0  0  0
   -2.0749   13.8281   -1.9925 H   0  0  0  0  0  0  0  0  0  0  0  0
    0.4311   13.3377   -3.6244 H   0  0  0  0  0  0  0  0  0  0  0  0
   -0.8434   14.5970   -3.8633 H   0  0  0  0  0  0  0  0  0  0  0  0
   -0.5439   15.8508   -0.4452 H   0  0  0  0  0  0  0  0  0  0  0  0
   -0.3989   16.9380   -1.8678 H   0  0  0  0  0  0  0  0  0  0  0  0
   -1.6153   15.6163   -1.8678 H   0  0  0  0  0  0  0  0  0  0  0  0
  1  2  1  0
  2  3  1  0
  3  4  1  0
  4  5  1  0
  5  6  1  0
  6  7  1  0
  7  8  1  0
  7  9  1  0
  2 10  1  0
 10 11  1  0
 11 12  1  0
 12 13  1  0
 13 14  1  6
 13 15  1  0
 15 16  1  0
 16 17  1  0
 17 18  2  0
 18 19  1  0
 19 20  1  0
 20 21  1  0
 21 22  1  0
 22 23  1  0
 22 24  1  0
 24 25  1  0
 24 26  1  0
 19 27  1  0
 27 28  1  1
 27 29  1  0
 29 30  1  0
 30 31  1  0
 31 32  1  1
  7  5  1  0
 31 10  1  0
 31 13  1  0
 27 15  1  0
 24 18  1  0
  1 33  1  0
  1 34  1  0
  1 35  1  0
  2 36  1  6
  3 37  1  0
  3 38  1  0
  4 39  1  0
  4 40  1  0
  5 41  1  1
  8 42  1  0
  8 43  1  0
  8 44  1  0
  9 45  1  0
  9 46  1  0
  9 47  1  0
 10 48  1  6
 11 49  1  0
 11 50  1  0
 12 51  1  0
 12 52  1  0
 14 53  1  0
 14 54  1  0
 14 55  1  0
 15 56  1  1
 16 57  1  0
 16 58  1  0
 17 59  1  0
 19 60  1  6
 20 61  1  0
 20 62  1  0
 21 63  1  0
 21 64  1  0
 22 65  1  6
 23 66  1  0
 25 67  1  0
 25 68  1  0
 25 69  1  0
 26 70  1  0
 26 71  1  0
 26 72  1  0
 28 73  1  0
 28 74  1  0
 28 75  1  0
 29 76  1  0
 29 77  1  0
 30 78  1  0
 30 79  1  0
 32 80  1  0
 32 81  1  0
 32 82  1  0
M  END
>  <meeko>  (18) 
{"is_sidechain": [false], "intermolecular_energy": 2.731, "internal_energy": -0.839}

$$$$
EPH_relaxed_0001_pdb2pqr_Repair_333_r2_0001_out
     RDKit          3D

 82 86  0  0  0  0  0  0  0  0999 V2000
   -0.4810   16.5810   -6.1310 C   0  0  0  0  0  0  0  0  0  0  0  0
    0.9820   16.1360   -6.0580 C   0  0  2  0  0  0  0  0  0  0  0  0
    1.3150   15.0590   -7.1110 C   0  0  0  0  0  0  0  0  0  0  0  0
    0.8870   15.4350   -8.5320 C   0  0  0  0  0  0  0  0  0  0  0  0
    2.0690   15.6220   -9.4350 C   0  0  2  0  0  0  0  0  0  0  0  0
    1.8860   16.6000  -10.4660 O   0  0  0  0  0  0  0  0  0  0  0  0
    2.0670   15.2440  -10.9040 C   0  0  0  0  0  0  0  0  0  0  0  0
    0.8580   14.6480  -11.5550 C   0  0  0  0  0  0  0  0  0  0  0  0
    3.3790   15.0000  -11.5820 C   0  0  0  0  0  0  0  0  0  0  0  0
    1.2980   15.6140   -4.6610 C   0  0  1  0  0  0  0  0  0  0  0  0
    1.4010   16.7490   -3.6080 C   0  0  0  0  0  0  0  0  0  0  0  0
    0.8430   16.1790   -2.2790 C   0  0  0  0  0  0  0  0  0  0  0  0
    0.7490   14.6540   -2.5190 C   0  0  1  0  0  0  0  0  0  0  0  0
    2.1970   14.1210   -2.2850 C   0  0  0  0  0  0  0  0  0  0  0  0
   -0.2970   13.8820   -1.6500 C   0  0  2  0  0  0  0  0  0  0  0  0
   -0.0420   13.9200   -0.1340 C   0  0  0  0  0  0  0  0  0  0  0  0
    0.8020   12.8090    0.3990 C   0  0  0  0  0  0  0  0  0  0  0  0
    1.0980   11.6700   -0.2530 C   0  0  0  0  0  0  0  0  0  0  0  0
    0.4840   11.3660   -1.6260 C   0  0  1  0  0  0  0  0  0  0  0  0
   -0.0410    9.9060   -1.6470 C   0  0  0  0  0  0  0  0  0  0  0  0
    1.0290    8.8940   -1.2490 C   0  0  0  0  0  0  0  0  0  0  0  0
    1.5730    9.1950    0.1450 C   0  0  2  0  0  0  0  0  0  0  0  0
    0.5330    8.9770    1.1030 O   0  0  0  0  0  0  0  0  0  0  0  0
    2.1220   10.6420    0.2890 C   0  0  0  0  0  0  0  0  0  0  0  0
    3.4320   10.7860   -0.5240 C   0  0  0  0  0  0  0  0  0  0  0  0
    2.5080   10.8600    1.7770 C   0  0  0  0  0  0  0  0  0  0  0  0
   -0.5940   12.4090   -2.1500 C   0  0  1  0  0  0  0  0  0  0  0  0
   -2.0070   12.0320   -1.6090 C   0  0  0  0  0  0  0  0  0  0  0  0
   -0.6800   12.3160   -3.7190 C   0  0  0  0  0  0  0  0  0  0  0  0
    0.3000   13.1930   -4.5220 C   0  0  0  0  0  0  0  0  0  0  0  0
    0.2790   14.6400   -4.0190 C   0  0  2  0  0  0  0  0  0  0  0  0
   -1.1600   15.2100   -4.2610 C   0  0  0  0  0  0  0  0  0  0  0  0
   -0.8787   16.7020   -5.1126 H   0  0  0  0  0  0  0  0  0  0  0  0
   -0.5464   17.5397   -6.6664 H   0  0  0  0  0  0  0  0  0  0  0  0
   -1.0691   15.8211   -6.6664 H   0  0  0  0  0  0  0  0  0  0  0  0
    1.6062   17.0151   -6.2762 H   0  0  0  0  0  0  0  0  0  0  0  0
    2.4027   14.8947   -7.1079 H   0  0  0  0  0  0  0  0  0  0  0  0
    0.7533   14.1545   -6.8347 H   0  0  0  0  0  0  0  0  0  0  0  0
    0.2520   14.6333   -8.9371 H   0  0  0  0  0  0  0  0  0  0  0  0
    0.3374   16.3866   -8.4845 H   0  0  0  0  0  0  0  0  0  0  0  0
    2.7628   15.3886   -8.6140 H   0  0  0  0  0  0  0  0  0  0  0  0
    0.1573   14.3026  -10.7806 H   0  0  0  0  0  0  0  0  0  0  0  0
    0.3670   15.4073  -12.1814 H   0  0  0  0  0  0  0  0  0  0  0  0
    1.1613   13.7961  -12.1814 H   0  0  0  0  0  0  0  0  0  0  0  0
    4.1622   14.8543  -10.8235 H   0  0  0  0  0  0  0  0  0  0  0  0
    3.3053   14.1002  -12.2104 H   0  0  0  0  0  0  0  0  0  0  0  0
    3.6337   15.8662  -12.2104 H   0  0  0  0  0  0  0  0  0  0  0  0
    2.2414   15.0883   -4.8697 H   0  0  0  0  0  0  0  0  0  0  0  0
    2.4506   17.0518   -3.4791 H   0  0  0  0  0  0  0  0  0  0  0  0
    0.8331   17.6356   -3.9265 H   0  0  0  0  0  0  0  0  0  0  0  0
    1.5252   16.3997   -1.4448 H   0  0  0  0  0  0  0  0  0  0  0  0
   -0.1282   16.6202   -2.0105 H   0  0  0  0  0  0  0  0  0  0  0  0
    2.3913   14.0495   -1.2047 H   0  0  0  0  0  0  0  0  0  0  0  0
    2.2999   13.1261   -2.7427 H   0  0  0  0  0  0  0  0  0  0  0  0
    2.9204   14.8118   -2.7427 H   0  0  0  0  0  0  0  0  0  0  0  0
   -1.2150   14.4660   -1.8123 H   0  0  0  0  0  0  0  0  0  0  0  0
    0.4583   14.8706    0.1028 H   0  0  0  0  0  0  0  0  0  0  0  0
   -1.0270   13.8097    0.3431 H   0  0  0  0  0  0  0  0  0  0  0  0
    1.2167   12.9325    1.4103 H   0  0  0  0  0  0  0  0  0  0  0  0
    1.2995   11.4802   -2.3553 H   0  0  0  0  0  0  0  0  0  0  0  0
   -0.8830    9.8239   -0.9439 H   0  0  0  0  0  0  0  0  0  0  0  0
   -0.3504    9.6771   -2.6775 H   0  0  0  0  0  0  0  0  0  0  0  0
    0.5902    7.8853   -1.2541 H   0  0  0  0  0  0  0  0  0  0  0  0
    1.8572    8.9568   -1.9702 H   0  0  0  0  0  0  0  0  0  0  0  0
    2.4225    8.5186    0.3207 H   0  0  0  0  0  0  0  0  0  0  0  0
    0.8880    8.3950    1.7960 H   0  0  0  0  0  0  0  0  0  0  0  0
    4.2834   10.8796    0.1661 H   0  0  0  0  0  0  0  0  0  0  0  0
    3.5697    9.8976   -1.1578 H   0  0  0  0  0  0  0  0  0  0  0  0
    3.3734   11.6831   -1.1578 H   0  0  0  0  0  0  0  0  0  0  0  0
    1.7337   10.4227    2.4245 H   0  0  0  0  0  0  0  0  0  0  0  0
    3.4735   10.3738    1.9804 H   0  0  0  0  0  0  0  0  0  0  0  0
    2.5902   11.9379    1.9804 H   0  0  0  0  0  0  0  0  0  0  0  0
   -1.9916   12.0361   -0.5091 H   0  0  0  0  0  0  0  0  0  0  0  0
   -2.7446   12.7648   -1.9681 H   0  0  0  0  0  0  0  0  0  0  0  0
   -2.2816   11.0292   -1.9681 H   0  0  0  0  0  0  0  0  0  0  0  0
   -0.4967   11.2686   -4.0008 H   0  0  0  0  0  0  0  0  0  0  0  0
   -1.6807   12.6941   -3.9752 H   0  0  0  0  0  0  0  0  0  0  0  0
    1.3172   12.7887   -4.4128 H   0  0  0  0  0  0  0  0  0  0  0  0
   -0.0062   13.1843   -5.5785 H   0  0  0  0  0  0  0  0  0  0  0  0
   -1.6457   15.4024   -3.2930 H   0  0  0  0  0  0  0  0  0  0  0  0
   -1.0916   16.1489   -4.8300 H   0  0  0  0  0  0  0  0  0  0  0  0
   -1.7531   14.4789   -4.8300 H   0  0  0  0  0  0  0  0  0  0  0  0
  1  2  1  0
  2  3  1  0
  3  4  1  0
  4  5  1  0
  5  6  1  0
  6  7  1  0
  7  8  1  0
  7  9  1  0
  2 10  1  0
 10 11  1  0
 11 12  1  0
 12 13  1  0
 13 14  1  6
 13 15  1  0
 15 16  1  0
 16 17  1  0
 17 18  2  0
 18 19  1  0
 19 20  1  0
 20 21  1  0
 21 22  1  0
 22 23  1  0
 22 24  1  0
 24 25  1  0
 24 26  1  0
 19 27  1  0
 27 28  1  1
 27 29  1  0
 29 30  1  0
 30 31  1  0
 31 32  1  1
  7  5  1  0
 31 10  1  0
 31 13  1  0
 27 15  1  0
 24 18  1  0
  1 33  1  0
  1 34  1  0
  1 35  1  0
  2 36  1  6
  3 37  1  0
  3 38  1  0
  4 39  1  0
  4 40  1  0
  5 41  1  1
  8 42  1  0
  8 43  1  0
  8 44  1  0
  9 45  1  0
  9 46  1  0
  9 47  1  0
 10 48  1  6
 11 49  1  0
 11 50  1  0
 12 51  1  0
 12 52  1  0
 14 53  1  0
 14 54  1  0
 14 55  1  0
 15 56  1  1
 16 57  1  0
 16 58  1  0
 17 59  1  0
 19 60  1  6
 20 61  1  0
 20 62  1  0
 21 63  1  0
 21 64  1  0
 22 65  1  1
 23 66  1  0
 25 67  1  0
 25 68  1  0
 25 69  1  0
 26 70  1  0
 26 71  1  0
 26 72  1  0
 28 73  1  0
 28 74  1  0
 28 75  1  0
 29 76  1  0
 29 77  1  0
 30 78  1  0
 30 79  1  0
 32 80  1  0
 32 81  1  0
 32 82  1  0
M  END
>  <meeko>  (19) 
{"is_sidechain": [false], "intermolecular_energy": 2.731, "internal_energy": -0.839}

$$$$
EPH_relaxed_0001_pdb2pqr_Repair_333_r2_0001_out
     RDKit          3D

 82 86  0  0  0  0  0  0  0  0999 V2000
    2.0680   15.8050   -0.6900 C   0  0  0  0  0  0  0  0  0  0  0  0
    1.8570   15.6760   -2.2010 C   0  0  2  0  0  0  0  0  0  0  0  0
    1.2560   16.9560   -2.8150 C   0  0  0  0  0  0  0  0  0  0  0  0
    0.0480   17.4990   -2.0470 C   0  0  0  0  0  0  0  0  0  0  0  0
    0.4570   18.1600   -0.7660 C   0  0  2  0  0  0  0  0  0  0  0  0
   -0.4180   17.9120    0.3420 O   0  0  0  0  0  0  0  0  0  0  0  0
   -0.3370   19.2740   -0.1080 C   0  0  0  0  0  0  0  0  0  0  0  0
   -1.6050   19.7910   -0.7140 C   0  0  0  0  0  0  0  0  0  0  0  0
    0.3650   20.1850    0.8490 C   0  0  0  0  0  0  0  0  0  0  0  0
    0.9560   14.4830   -2.5000 C   0  0  1  0  0  0  0  0  0  0  0  0
    1.1810   13.9060   -3.9230 C   0  0  0  0  0  0  0  0  0  0  0  0
    0.9830   12.3720   -3.8210 C   0  0  0  0  0  0  0  0  0  0  0  0
    0.3300   12.1550   -2.4350 C   0  0  1  0  0  0  0  0  0  0  0  0
   -1.1840   12.4630   -2.6520 C   0  0  0  0  0  0  0  0  0  0  0  0
    0.5460   10.7510   -1.7820 C   0  0  2  0  0  0  0  0  0  0  0  0
   -0.0470    9.5680   -2.5680 C   0  0  0  0  0  0  0  0  0  0  0  0
   -1.4510    9.2060   -2.2130 C   0  0  0  0  0  0  0  0  0  0  0  0
   -2.1090    9.6140   -1.1120 C   0  0  0  0  0  0  0  0  0  0  0  0
   -1.4030   10.4470   -0.0350 C   0  0  1  0  0  0  0  0  0  0  0  0
   -1.7300    9.8680    1.3660 C   0  0  0  0  0  0  0  0  0  0  0  0
   -3.2310    9.7470    1.6130 C   0  0  0  0  0  0  0  0  0  0  0  0
   -3.8880    8.8640    0.5560 C   0  0  2  0  0  0  0  0  0  0  0  0
   -3.4130    7.5230    0.7150 O   0  0  0  0  0  0  0  0  0  0  0  0
   -3.6190    9.3440   -0.8980 C   0  0  0  0  0  0  0  0  0  0  0  0
   -4.3900   10.6610   -1.1610 C   0  0  0  0  0  0  0  0  0  0  0  0
   -4.2170    8.2900   -1.8680 C   0  0  0  0  0  0  0  0  0  0  0  0
    0.1550   10.6810   -0.2510 C   0  0  1  0  0  0  0  0  0  0  0  0
    0.9600    9.4950    0.3610 C   0  0  0  0  0  0  0  0  0  0  0  0
    0.5950   11.9710    0.5380 C   0  0  0  0  0  0  0  0  0  0  0  0
    0.4700   13.3150   -0.2030 C   0  0  0  0  0  0  0  0  0  0  0  0
    1.1050   13.2350   -1.5950 C   0  0  2  0  0  0  0  0  0  0  0  0
    2.6330   12.9470   -1.4080 C   0  0  0  0  0  0  0  0  0  0  0  0
    1.2453   15.3020   -0.1606 H   0  0  0  0  0  0  0  0  0  0  0  0
    3.0236   15.3365   -0.4119 H   0  0  0  0  0  0  0  0  0  0  0  0
    2.0866   16.8691   -0.4119 H   0  0  0  0  0  0  0  0  0  0  0  0
    2.8443   15.5213   -2.6607 H   0  0  0  0  0  0  0  0  0  0  0  0
    2.0351   17.7324   -2.8307 H   0  0  0  0  0  0  0  0  0  0  0  0
    0.9040   16.6938   -3.8237 H   0  0  0  0  0  0  0  0  0  0  0  0
   -0.4736   18.2346   -2.6770 H   0  0  0  0  0  0  0  0  0  0  0  0
   -0.6106   16.6529   -1.8012 H   0  0  0  0  0  0  0  0  0  0  0  0
    1.5206   18.0695   -1.0318 H   0  0  0  0  0  0  0  0  0  0  0  0
   -2.3041   20.0761    0.0860 H   0  0  0  0  0  0  0  0  0  0  0  0
   -1.3821   20.6700   -1.3366 H   0  0  0  0  0  0  0  0  0  0  0  0
   -2.0603   19.0067   -1.3366 H   0  0  0  0  0  0  0  0  0  0  0  0
    0.1321   19.8828    1.8807 H   0  0  0  0  0  0  0  0  0  0  0  0
    1.4509   20.1228    0.6849 H   0  0  0  0  0  0  0  0  0  0  0  0
    0.0281   21.2192    0.6849 H   0  0  0  0  0  0  0  0  0  0  0  0
   -0.0270   14.9497   -2.3388 H   0  0  0  0  0  0  0  0  0  0  0  0
    0.4520   14.3360   -4.6256 H   0  0  0  0  0  0  0  0  0  0  0  0
    2.1876   14.1502   -4.2932 H   0  0  0  0  0  0  0  0  0  0  0  0
    0.3217   12.0115   -4.6227 H   0  0  0  0  0  0  0  0  0  0  0  0
    1.9290   11.8209   -3.9278 H   0  0  0  0  0  0  0  0  0  0  0  0
   -1.6812   12.5641   -1.6760 H   0  0  0  0  0  0  0  0  0  0  0  0
   -1.2901   13.4011   -3.2165 H   0  0  0  0  0  0  0  0  0  0  0  0
   -1.6482   11.6409   -3.2165 H   0  0  0  0  0  0  0  0  0  0  0  0
    1.6379   10.6303   -1.8381 H   0  0  0  0  0  0  0  0  0  0  0  0
   -0.0221    9.8240   -3.6375 H   0  0  0  0  0  0  0  0  0  0  0  0
    0.5673    8.6928   -2.3099 H   0  0  0  0  0  0  0  0  0  0  0  0
   -1.9936    8.5505   -2.9100 H   0  0  0  0  0  0  0  0  0  0  0  0
   -1.8112   11.4648   -0.1215 H   0  0  0  0  0  0  0  0  0  0  0  0
   -1.2772    8.8690    1.4492 H   0  0  0  0  0  0  0  0  0  0  0  0
   -1.3226   10.5607    2.1171 H   0  0  0  0  0  0  0  0  0  0  0  0
   -3.3979    9.3045    2.6062 H   0  0  0  0  0  0  0  0  0  0  0  0
   -3.6778   10.7507    1.5592 H   0  0  0  0  0  0  0  0  0  0  0  0
   -4.9758    8.9214    0.7090 H   0  0  0  0  0  0  0  0  0  0  0  0
   -3.4060    7.3250    1.6670 H   0  0  0  0  0  0  0  0  0  0  0  0
   -4.6615   11.1248   -0.2012 H   0  0  0  0  0  0  0  0  0  0  0  0
   -3.7530   11.3506   -1.7343 H   0  0  0  0  0  0  0  0  0  0  0  0
   -5.3032   10.4431   -1.7343 H   0  0  0  0  0  0  0  0  0  0  0  0
   -4.6781    7.4773   -1.2875 H   0  0  0  0  0  0  0  0  0  0  0  0
   -4.9795    8.7661   -2.5020 H   0  0  0  0  0  0  0  0  0  0  0  0
   -3.4172    7.8797   -2.5020 H   0  0  0  0  0  0  0  0  0  0  0  0
    0.9207    9.5529    1.4588 H   0  0  0  0  0  0  0  0  0  0  0  0
    0.5206    8.5431    0.0281 H   0  0  0  0  0  0  0  0  0  0  0  0
    2.0069    9.5519    0.0281 H   0  0  0  0  0  0  0  0  0  0  0  0
   -0.0232   12.0328    1.4457 H   0  0  0  0  0  0  0  0  0  0  0  0
    1.6720   11.8427    0.7213 H   0  0  0  0  0  0  0  0  0  0  0  0
   -0.5948   13.5707   -0.3074 H   0  0  0  0  0  0  0  0  0  0  0  0
    0.9960   14.0864    0.3786 H   0  0  0  0  0  0  0  0  0  0  0  0
    2.8690   12.9025   -0.3345 H   0  0  0  0  0  0  0  0  0  0  0  0
    2.8852   11.9855   -1.8791 H   0  0  0  0  0  0  0  0  0  0  0  0
    3.2179   13.7507   -1.8791 H   0  0  0  0  0  0  0  0  0  0  0  0
  1  2  1  0
  2  3  1  0
  3  4  1  0
  4  5  1  0
  5  6  1  0
  6  7  1  0
  7  8  1  0
  7  9  1  0
  2 10  1  0
 10 11  1  0
 11 12  1  0
 12 13  1  0
 13 14  1  6
 13 15  1  0
 15 16  1  0
 16 17  1  0
 17 18  2  0
 18 19  1  0
 19 20  1  0
 20 21  1  0
 21 22  1  0
 22 23  1  0
 22 24  1  0
 24 25  1  0
 24 26  1  0
 19 27  1  0
 27 28  1  1
 27 29  1  0
 29 30  1  0
 30 31  1  0
 31 32  1  1
  7  5  1  0
 31 10  1  0
 31 13  1  0
 27 15  1  0
 24 18  1  0
  1 33  1  0
  1 34  1  0
  1 35  1  0
  2 36  1  6
  3 37  1  0
  3 38  1  0
  4 39  1  0
  4 40  1  0
  5 41  1  1
  8 42  1  0
  8 43  1  0
  8 44  1  0
  9 45  1  0
  9 46  1  0
  9 47  1  0
 10 48  1  6
 11 49  1  0
 11 50  1  0
 12 51  1  0
 12 52  1  0
 14 53  1  0
 14 54  1  0
 14 55  1  0
 15 56  1  1
 16 57  1  0
 16 58  1  0
 17 59  1  0
 19 60  1  1
 20 61  1  0
 20 62  1  0
 21 63  1  0
 21 64  1  0
 22 65  1  1
 23 66  1  0
 25 67  1  0
 25 68  1  0
 25 69  1  0
 26 70  1  0
 26 71  1  0
 26 72  1  0
 28 73  1  0
 28 74  1  0
 28 75  1  0
 29 76  1  0
 29 77  1  0
 30 78  1  0
 30 79  1  0
 32 80  1  0
 32 81  1  0
 32 82  1  0
M  END
>  <meeko>  (20) 
{"is_sidechain": [false], "intermolecular_energy": 2.731, "internal_energy": -0.839}

$$$$
