EPH_relaxed_0001_pdb2pqr_Repair_414_r2_0001_out
     RDKit          3D

 82 86  0  0  0  0  0  0  0  0999 V2000
   -1.6520    8.5820   -1.8550 C   0  0  0  0  0  0  0  0  0  0  0  0
   -2.0110    9.1040   -0.4610 C   0  0  2  0  0  0  0  0  0  0  0  0
   -3.5040    9.4730   -0.3460 C   0  0  0  0  0  0  0  0  0  0  0  0
   -4.4320    8.2600   -0.2440 C   0  0  0  0  0  0  0  0  0  0  0  0
   -5.1160    7.9750   -1.5470 C   0  0  2  0  0  0  0  0  0  0  0  0
   -6.3240    8.7150   -1.7630 O   0  0  0  0  0  0  0  0  0  0  0  0
   -6.4670    7.2900   -1.6500 C   0  0  0  0  0  0  0  0  0  0  0  0
   -7.2130    6.8480   -0.4300 C   0  0  0  0  0  0  0  0  0  0  0  0
   -6.8310    6.6170   -2.9360 C   0  0  0  0  0  0  0  0  0  0  0  0
   -1.1480   10.3120   -0.1190 C   0  0  1  0  0  0  0  0  0  0  0  0
   -0.0920   10.0020    0.9750 C   0  0  0  0  0  0  0  0  0  0  0  0
    1.1690   10.8360    0.6290 C   0  0  0  0  0  0  0  0  0  0  0  0
    0.6900   11.8390   -0.4460 C   0  0  1  0  0  0  0  0  0  0  0  0
   -0.0020   12.9860    0.3550 C   0  0  0  0  0  0  0  0  0  0  0  0
    1.7880   12.3910   -1.4130 C   0  0  2  0  0  0  0  0  0  0  0  0
    2.9040   13.2060   -0.7360 C   0  0  0  0  0  0  0  0  0  0  0  0
    2.6510   14.6740   -0.6360 C   0  0  0  0  0  0  0  0  0  0  0  0
    1.7120   15.3540   -1.3190 C   0  0  0  0  0  0  0  0  0  0  0  0
    0.8460   14.6550   -2.3760 C   0  0  1  0  0  0  0  0  0  0  0  0
    0.7890   15.5270   -3.6570 C   0  0  0  0  0  0  0  0  0  0  0  0
    0.3270   16.9540   -3.3750 C   0  0  0  0  0  0  0  0  0  0  0  0
    1.2470   17.6340   -2.3640 C   0  0  2  0  0  0  0  0  0  0  0  0
    2.5360   17.8110   -2.9600 O   0  0  0  0  0  0  0  0  0  0  0  0
    1.3900   16.8420   -1.0350 C   0  0  0  0  0  0  0  0  0  0  0  0
    0.0600   16.9080   -0.2430 C   0  0  0  0  0  0  0  0  0  0  0  0
    2.4520   17.5620   -0.1610 C   0  0  0  0  0  0  0  0  0  0  0  0
    1.2150   13.1410   -2.6840 C   0  0  1  0  0  0  0  0  0  0  0  0
    2.3250   13.0750   -3.7770 C   0  0  0  0  0  0  0  0  0  0  0  0
   -0.0460   12.4170   -3.2870 C   0  0  0  0  0  0  0  0  0  0  0  0
   -1.0320   11.7870   -2.2850 C   0  0  0  0  0  0  0  0  0  0  0  0
   -0.2930   10.9210   -1.2600 C   0  0  2  0  0  0  0  0  0  0  0  0
    0.3950    9.7460   -2.0340 C   0  0  0  0  0  0  0  0  0  0  0  0
   -1.0310    7.6791   -1.7597 H   0  0  0  0  0  0  0  0  0  0  0  0
   -2.5736    8.3370   -2.4034 H   0  0  0  0  0  0  0  0  0  0  0  0
   -1.0935    9.3549   -2.4034 H   0  0  0  0  0  0  0  0  0  0  0  0
   -1.8149    8.2932    0.2560 H   0  0  0  0  0  0  0  0  0  0  0  0
   -3.6406   10.0912    0.5535 H   0  0  0  0  0  0  0  0  0  0  0  0
   -3.7747   10.0079   -1.2683 H   0  0  0  0  0  0  0  0  0  0  0  0
   -3.8388    7.3806    0.0472 H   0  0  0  0  0  0  0  0  0  0  0  0
   -5.2040    8.4808    0.5078 H   0  0  0  0  0  0  0  0  0  0  0  0
   -4.1512    7.7820   -2.0388 H   0  0  0  0  0  0  0  0  0  0  0  0
   -6.6685    7.1706    0.4697 H   0  0  0  0  0  0  0  0  0  0  0  0
   -8.2172    7.2970   -0.4315 H   0  0  0  0  0  0  0  0  0  0  0  0
   -7.3016    5.7516   -0.4315 H   0  0  0  0  0  0  0  0  0  0  0  0
   -7.3442    5.6681   -2.7208 H   0  0  0  0  0  0  0  0  0  0  0  0
   -7.4982    7.2713   -3.5163 H   0  0  0  0  0  0  0  0  0  0  0  0
   -5.9182    6.4168   -3.5163 H   0  0  0  0  0  0  0  0  0  0  0  0
   -1.9337   11.0203    0.1826 H   0  0  0  0  0  0  0  0  0  0  0  0
   -0.4764   10.2894    1.9648 H   0  0  0  0  0  0  0  0  0  0  0  0
    0.1413    8.9275    1.0054 H   0  0  0  0  0  0  0  0  0  0  0  0
    1.5394   11.3672    1.5182 H   0  0  0  0  0  0  0  0  0  0  0  0
    1.9997   10.2086    0.2737 H   0  0  0  0  0  0  0  0  0  0  0  0
    0.1104   12.7997    1.4333 H   0  0  0  0  0  0  0  0  0  0  0  0
    0.4670   13.9473    0.0981 H   0  0  0  0  0  0  0  0  0  0  0  0
   -1.0711   13.0194    0.0981 H   0  0  0  0  0  0  0  0  0  0  0  0
    2.2680   11.4698   -1.7749 H   0  0  0  0  0  0  0  0  0  0  0  0
    3.0404   12.8145    0.2829 H   0  0  0  0  0  0  0  0  0  0  0  0
    3.7929   13.0933   -1.3741 H   0  0  0  0  0  0  0  0  0  0  0  0
    3.2860   15.2484    0.0545 H   0  0  0  0  0  0  0  0  0  0  0  0
   -0.1592   14.5695   -1.9376 H   0  0  0  0  0  0  0  0  0  0  0  0
    1.7937   15.5636   -4.1034 H   0  0  0  0  0  0  0  0  0  0  0  0
    0.0584   15.0689   -4.3399 H   0  0  0  0  0  0  0  0  0  0  0  0
    0.3363   17.5278   -4.3134 H   0  0  0  0  0  0  0  0  0  0  0  0
   -0.6898   16.9184   -2.9569 H   0  0  0  0  0  0  0  0  0  0  0  0
    0.7930   18.6016   -2.1042 H   0  0  0  0  0  0  0  0  0  0  0  0
    2.7760   16.9760   -3.3950 H   0  0  0  0  0  0  0  0  0  0  0  0
    0.2747   16.8973    0.8358 H   0  0  0  0  0  0  0  0  0  0  0  0
   -0.4750   17.8338   -0.5012 H   0  0  0  0  0  0  0  0  0  0  0  0
   -0.5640   16.0397   -0.5012 H   0  0  0  0  0  0  0  0  0  0  0  0
    2.2196   17.4044    0.9025 H   0  0  0  0  0  0  0  0  0  0  0  0
    3.4485   17.1525   -0.3831 H   0  0  0  0  0  0  0  0  0  0  0  0
    2.4405   18.6393   -0.3831 H   0  0  0  0  0  0  0  0  0  0  0  0
    3.3117   13.0163   -3.2944 H   0  0  0  0  0  0  0  0  0  0  0  0
    2.1699   12.1845   -4.4038 H   0  0  0  0  0  0  0  0  0  0  0  0
    2.2765   13.9776   -4.4038 H   0  0  0  0  0  0  0  0  0  0  0  0
   -0.6025   13.1574   -3.8803 H   0  0  0  0  0  0  0  0  0  0  0  0
    0.3567   11.5715   -3.8640 H   0  0  0  0  0  0  0  0  0  0  0  0
   -1.5705   12.5883   -1.7577 H   0  0  0  0  0  0  0  0  0  0  0  0
   -1.7368   11.1500   -2.8395 H   0  0  0  0  0  0  0  0  0  0  0  0
    0.8150    9.0287   -1.3136 H   0  0  0  0  0  0  0  0  0  0  0  0
   -0.3485    9.2382   -2.6660 H   0  0  0  0  0  0  0  0  0  0  0  0
    1.2016   10.1459   -2.6660 H   0  0  0  0  0  0  0  0  0  0  0  0
  1  2  1  0
  2  3  1  0
  3  4  1  0
  4  5  1  0
  5  6  1  0
  6  7  1  0
  7  8  1  0
  7  9  1  0
  2 10  1  0
 10 11  1  0
 11 12  1  0
 12 13  1  0
 13 14  1  1
 13 15  1  0
 15 16  1  0
 16 17  1  0
 17 18  2  0
 18 19  1  0
 19 20  1  0
 20 21  1  0
 21 22  1  0
 22 23  1  0
 22 24  1  0
 24 25  1  0
 24 26  1  0
 19 27  1  0
 27 28  1  6
 27 29  1  0
 29 30  1  0
 30 31  1  0
 31 32  1  6
  7  5  1  0
 31 10  1  0
 31 13  1  0
 27 15  1  0
 24 18  1  0
  1 33  1  0
  1 34  1  0
  1 35  1  0
  2 36  1  1
  3 37  1  0
  3 38  1  0
  4 39  1  0
  4 40  1  0
  5 41  1  6
  8 42  1  0
  8 43  1  0
  8 44  1  0
  9 45  1  0
  9 46  1  0
  9 47  1  0
 10 48  1  1
 11 49  1  0
 11 50  1  0
 12 51  1  0
 12 52  1  0
 14 53  1  0
 14 54  1  0
 14 55  1  0
 15 56  1  6
 16 57  1  0
 16 58  1  0
 17 59  1  0
 19 60  1  1
 20 61  1  0
 20 62  1  0
 21 63  1  0
 21 64  1  0
 22 65  1  1
 23 66  1  0
 25 67  1  0
 25 68  1  0
 25 69  1  0
 26 70  1  0
 26 71  1  0
 26 72  1  0
 28 73  1  0
 28 74  1  0
 28 75  1  0
 29 76  1  0
 29 77  1  0
 30 78  1  0
 30 79  1  0
 32 80  1  0
 32 81  1  0
 32 82  1  0
M  END
>  <meeko>  (1) 
{"is_sidechain": [false], "intermolecular_energy": 2.731, "internal_energy": -0.839}

$$$$
EPH_relaxed_0001_pdb2pqr_Repair_414_r2_0001_out
     RDKit          3D

 82 86  0  0  0  0  0  0  0  0999 V2000
    2.3770   19.6880   -0.9930 C   0  0  0  0  0  0  0  0  0  0  0  0
    2.1540   18.8410    0.2630 C   0  0  2  0  0  0  0  0  0  0  0  0
    3.4830   18.3850    0.9000 C   0  0  0  0  0  0  0  0  0  0  0  0
    3.7590   19.0180    2.2660 C   0  0  0  0  0  0  0  0  0  0  0  0
    5.2210   19.0040    2.5980 C   0  0  2  0  0  0  0  0  0  0  0  0
    5.6380   17.9080    3.4220 O   0  0  0  0  0  0  0  0  0  0  0  0
    5.7630   19.2180    3.9980 C   0  0  0  0  0  0  0  0  0  0  0  0
    4.8510   19.4620    5.1600 C   0  0  0  0  0  0  0  0  0  0  0  0
    7.1800   19.6750    4.1550 C   0  0  0  0  0  0  0  0  0  0  0  0
    1.2950   17.6280   -0.0730 C   0  0  1  0  0  0  0  0  0  0  0  0
    0.1220   17.9740   -1.0290 C   0  0  0  0  0  0  0  0  0  0  0  0
   -0.0830   16.7440   -1.9490 C   0  0  0  0  0  0  0  0  0  0  0  0
    0.7430   15.6180   -1.2850 C   0  0  1  0  0  0  0  0  0  0  0  0
   -0.1690   15.0720   -0.1410 C   0  0  0  0  0  0  0  0  0  0  0  0
    1.2330   14.4720   -2.2280 C   0  0  2  0  0  0  0  0  0  0  0  0
    0.1150   13.6530   -2.8960 C   0  0  0  0  0  0  0  0  0  0  0  0
   -0.3370   12.4510   -2.1340 C   0  0  0  0  0  0  0  0  0  0  0  0
    0.3220   11.8830   -1.1070 C   0  0  0  0  0  0  0  0  0  0  0  0
    1.7020   12.3940   -0.6770 C   0  0  1  0  0  0  0  0  0  0  0  0
    2.6610   11.1920   -0.4750 C   0  0  0  0  0  0  0  0  0  0  0  0
    2.0990   10.1510    0.4880 C   0  0  0  0  0  0  0  0  0  0  0  0
    0.7530    9.6230   -0.0030 C   0  0  2  0  0  0  0  0  0  0  0  0
    0.9610    8.8840   -1.2110 O   0  0  0  0  0  0  0  0  0  0  0  0
   -0.2920   10.7470   -0.2520 C   0  0  0  0  0  0  0  0  0  0  0  0
   -0.7420   11.3470    1.1030 C   0  0  0  0  0  0  0  0  0  0  0  0
   -1.5540   10.0950   -0.8780 C   0  0  0  0  0  0  0  0  0  0  0  0
    2.3350   13.5320   -1.5890 C   0  0  1  0  0  0  0  0  0  0  0  0
    3.1160   12.8900   -2.7760 C   0  0  0  0  0  0  0  0  0  0  0  0
    3.3920   14.3380   -0.7450 C   0  0  0  0  0  0  0  0  0  0  0  0
    2.8650   15.5330    0.0720 C   0  0  0  0  0  0  0  0  0  0  0  0
    1.9870   16.4430   -0.7920 C   0  0  2  0  0  0  0  0  0  0  0  0
    2.8830   17.0250   -1.9380 C   0  0  0  0  0  0  0  0  0  0  0  0
    2.6470   20.7135   -0.7005 H   0  0  0  0  0  0  0  0  0  0  0  0
    3.1907   19.2508   -1.5904 H   0  0  0  0  0  0  0  0  0  0  0  0
    1.4536   19.7082   -1.5904 H   0  0  0  0  0  0  0  0  0  0  0  0
    1.6343   19.4721    0.9989 H   0  0  0  0  0  0  0  0  0  0  0  0
    3.4523   17.2924    1.0233 H   0  0  0  0  0  0  0  0  0  0  0  0
    4.2903   18.7085    0.2265 H   0  0  0  0  0  0  0  0  0  0  0  0
    3.4060   20.0598    2.2541 H   0  0  0  0  0  0  0  0  0  0  0  0
    3.2281   18.4308    3.0298 H   0  0  0  0  0  0  0  0  0  0  0  0
    5.4682   19.4687    1.6321 H   0  0  0  0  0  0  0  0  0  0  0  0
    5.4052   19.3137    6.0985 H   0  0  0  0  0  0  0  0  0  0  0  0
    4.4710   20.4934    5.1176 H   0  0  0  0  0  0  0  0  0  0  0  0
    4.0067   18.7581    5.1176 H   0  0  0  0  0  0  0  0  0  0  0  0
    7.4235   19.7535    5.2248 H   0  0  0  0  0  0  0  0  0  0  0  0
    7.8545   18.9488    3.6778 H   0  0  0  0  0  0  0  0  0  0  0  0
    7.3031   20.6584    3.6778 H   0  0  0  0  0  0  0  0  0  0  0  0
    0.9943   17.3281    0.9417 H   0  0  0  0  0  0  0  0  0  0  0  0
   -0.7926   18.1709   -0.4505 H   0  0  0  0  0  0  0  0  0  0  0  0
    0.3459   18.8752   -1.6187 H   0  0  0  0  0  0  0  0  0  0  0  0
   -1.1468   16.4683   -1.9974 H   0  0  0  0  0  0  0  0  0  0  0  0
    0.2347   16.9396   -2.9838 H   0  0  0  0  0  0  0  0  0  0  0  0
    0.2687   15.3341    0.8335 H   0  0  0  0  0  0  0  0  0  0  0  0
   -1.1704   15.5193   -0.2253 H   0  0  0  0  0  0  0  0  0  0  0  0
   -0.2477   13.9781   -0.2253 H   0  0  0  0  0  0  0  0  0  0  0  0
    1.7213   15.0295   -3.0408 H   0  0  0  0  0  0  0  0  0  0  0  0
   -0.7535   14.3136   -3.0353 H   0  0  0  0  0  0  0  0  0  0  0  0
    0.5365   13.2749   -3.8391 H   0  0  0  0  0  0  0  0  0  0  0  0
   -1.2889   11.9909   -2.4376 H   0  0  0  0  0  0  0  0  0  0  0  0
    1.5481   12.9132    0.2805 H   0  0  0  0  0  0  0  0  0  0  0  0
    2.8359   10.7128   -1.4495 H   0  0  0  0  0  0  0  0  0  0  0  0
    3.5947   11.5790   -0.0408 H   0  0  0  0  0  0  0  0  0  0  0  0
    2.8075    9.3132    0.5659 H   0  0  0  0  0  0  0  0  0  0  0  0
    1.9531   10.6243    1.4702 H   0  0  0  0  0  0  0  0  0  0  0  0
    0.3410    8.9814    0.7898 H   0  0  0  0  0  0  0  0  0  0  0  0
    0.1230    8.8850   -1.7040 H   0  0  0  0  0  0  0  0  0  0  0  0
   -0.3041   10.7632    1.9260 H   0  0  0  0  0  0  0  0  0  0  0  0
   -0.4022   12.3909    1.1727 H   0  0  0  0  0  0  0  0  0  0  0  0
   -1.8393   11.3131    1.1727 H   0  0  0  0  0  0  0  0  0  0  0  0
   -2.2237    9.7490   -0.0768 H   0  0  0  0  0  0  0  0  0  0  0  0
   -2.0786   10.8349   -1.5004 H   0  0  0  0  0  0  0  0  0  0  0  0
   -1.2541    9.2390   -1.5004 H   0  0  0  0  0  0  0  0  0  0  0  0
    3.9096   12.2377   -2.3827 H   0  0  0  0  0  0  0  0  0  0  0  0
    2.4244   12.2959   -3.3914 H   0  0  0  0  0  0  0  0  0  0  0  0
    3.5650   13.6835   -3.3914 H   0  0  0  0  0  0  0  0  0  0  0  0
    3.8613   13.6350   -0.0410 H   0  0  0  0  0  0  0  0  0  0  0  0
    4.0771   14.7762   -1.4856 H   0  0  0  0  0  0  0  0  0  0  0  0
    2.2706   15.1567    0.9176 H   0  0  0  0  0  0  0  0  0  0  0  0
    3.7243   16.1161    0.4348 H   0  0  0  0  0  0  0  0  0  0  0  0
    3.7288   17.5744   -1.4990 H   0  0  0  0  0  0  0  0  0  0  0  0
    3.2639   16.2014   -2.5598 H   0  0  0  0  0  0  0  0  0  0  0  0
    2.2854   17.7078   -2.5598 H   0  0  0  0  0  0  0  0  0  0  0  0
  1  2  1  0
  2  3  1  0
  3  4  1  0
  4  5  1  0
  5  6  1  0
  6  7  1  0
  7  8  1  0
  7  9  1  0
  2 10  1  0
 10 11  1  0
 11 12  1  0
 12 13  1  0
 13 14  1  1
 13 15  1  0
 15 16  1  0
 16 17  1  0
 17 18  2  0
 18 19  1  0
 19 20  1  0
 20 21  1  0
 21 22  1  0
 22 23  1  0
 22 24  1  0
 24 25  1  0
 24 26  1  0
 19 27  1  0
 27 28  1  6
 27 29  1  0
 29 30  1  0
 30 31  1  0
 31 32  1  6
  7  5  1  0
 31 10  1  0
 31 13  1  0
 27 15  1  0
 24 18  1  0
  1 33  1  0
  1 34  1  0
  1 35  1  0
  2 36  1  1
  3 37  1  0
  3 38  1  0
  4 39  1  0
  4 40  1  0
  5 41  1  6
  8 42  1  0
  8 43  1  0
  8 44  1  0
  9 45  1  0
  9 46  1  0
  9 47  1  0
 10 48  1  1
 11 49  1  0
 11 50  1  0
 12 51  1  0
 12 52  1  0
 14 53  1  0
 14 54  1  0
 14 55  1  0
 15 56  1  6
 16 57  1  0
 16 58  1  0
 17 59  1  0
 19 60  1  1
 20 61  1  0
 20 62  1  0
 21 63  1  0
 21 64  1  0
 22 65  1  1
 23 66  1  0
 25 67  1  0
 25 68  1  0
 25 69  1  0
 26 70  1  0
 26 71  1  0
 26 72  1  0
 28 73  1  0
 28 74  1  0
 28 75  1  0
 29 76  1  0
 29 77  1  0
 30 78  1  0
 30 79  1  0
 32 80  1  0
 32 81  1  0
 32 82  1  0
M  END
>  <meeko>  (2) 
{"is_sidechain": [false], "intermolecular_energy": 2.731, "internal_energy": -0.839}

$$$$
EPH_relaxed_0001_pdb2pqr_Repair_414_r2_0001_out
     RDKit          3D

 82 86  0  0  0  0  0  0  0  0999 V2000
    1.6940   12.6760   -5.7770 C   0  0  0  0  0  0  0  0  0  0  0  0
    0.8500   13.4960   -4.7980 C   0  0  2  0  0  0  0  0  0  0  0  0
    0.8830   15.0030   -5.1230 C   0  0  0  0  0  0  0  0  0  0  0  0
    0.5460   15.3250   -6.5810 C   0  0  0  0  0  0  0  0  0  0  0  0
    1.7530   15.2220   -7.4640 C   0  0  2  0  0  0  0  0  0  0  0  0
    2.2300   16.4740   -7.9750 O   0  0  0  0  0  0  0  0  0  0  0  0
    1.7330   15.5410   -8.9480 C   0  0  0  0  0  0  0  0  0  0  0  0
    0.4800   15.9860   -9.6340 C   0  0  0  0  0  0  0  0  0  0  0  0
    2.7990   14.9540   -9.8200 C   0  0  0  0  0  0  0  0  0  0  0  0
    1.3340   13.2610   -3.3720 C   0  0  1  0  0  0  0  0  0  0  0  0
    1.3400   14.5580   -2.5200 C   0  0  0  0  0  0  0  0  0  0  0  0
    0.9640   14.1460   -1.0740 C   0  0  0  0  0  0  0  0  0  0  0  0
    1.0800   12.6040   -1.0650 C   0  0  1  0  0  0  0  0  0  0  0  0
    2.6040   12.3170   -0.8850 C   0  0  0  0  0  0  0  0  0  0  0  0
    0.2210   11.8520    0.0030 C   0  0  2  0  0  0  0  0  0  0  0  0
    0.5710   12.1750    1.4670 C   0  0  0  0  0  0  0  0  0  0  0  0
    1.6040   11.2930    2.0850 C   0  0  0  0  0  0  0  0  0  0  0  0
    2.0200   10.1110    1.5930 C   0  0  0  0  0  0  0  0  0  0  0  0
    1.3650    9.5040    0.3450 C   0  0  1  0  0  0  0  0  0  0  0  0
    1.0620    8.0040    0.5980 C   0  0  0  0  0  0  0  0  0  0  0  0
    2.2940    7.2250    1.0480 C   0  0  0  0  0  0  0  0  0  0  0  0
    2.8820    7.8240    2.3230 C   0  0  2  0  0  0  0  0  0  0  0  0
    1.9530    7.6290    3.3940 O   0  0  0  0  0  0  0  0  0  0  0  0
    3.2190    9.3350    2.1920 C   0  0  0  0  0  0  0  0  0  0  0  0
    4.4350    9.5180    1.2500 C   0  0  0  0  0  0  0  0  0  0  0  0
    3.6690    9.8470    3.5870 C   0  0  0  0  0  0  0  0  0  0  0  0
    0.1120   10.2910   -0.2340 C   0  0  1  0  0  0  0  0  0  0  0  0
   -1.1900    9.8220    0.4850 C   0  0  0  0  0  0  0  0  0  0  0  0
   -0.0660    9.9280   -1.7550 C   0  0  0  0  0  0  0  0  0  0  0  0
    0.7170   10.7840   -2.7700 C   0  0  0  0  0  0  0  0  0  0  0  0
    0.5170   12.2780   -2.4960 C   0  0  2  0  0  0  0  0  0  0  0  0
   -1.0040   12.6000   -2.6920 C   0  0  0  0  0  0  0  0  0  0  0  0
    2.3719   12.0174   -5.2142 H   0  0  0  0  0  0  0  0  0  0  0  0
    1.0324   12.0665   -6.4101 H   0  0  0  0  0  0  0  0  0  0  0  0
    2.2842   13.3549   -6.4101 H   0  0  0  0  0  0  0  0  0  0  0  0
   -0.1925   13.1595   -4.8979 H   0  0  0  0  0  0  0  0  0  0  0  0
    0.1538   15.5137   -4.4770 H   0  0  0  0  0  0  0  0  0  0  0  0
    1.9127   15.3475   -4.9472 H   0  0  0  0  0  0  0  0  0  0  0  0
   -0.2168   14.6162   -6.9356 H   0  0  0  0  0  0  0  0  0  0  0  0
    0.1743   16.3593   -6.6270 H   0  0  0  0  0  0  0  0  0  0  0  0
    2.1201   14.3513   -6.9009 H   0  0  0  0  0  0  0  0  0  0  0  0
   -0.2751   16.2542   -8.8805 H   0  0  0  0  0  0  0  0  0  0  0  0
    0.6976   16.8618  -10.2629 H   0  0  0  0  0  0  0  0  0  0  0  0
    0.0964   15.1691  -10.2629 H   0  0  0  0  0  0  0  0  0  0  0  0
    3.5892   14.5189   -9.1906 H   0  0  0  0  0  0  0  0  0  0  0  0
    2.3623   14.1692  -10.4551 H   0  0  0  0  0  0  0  0  0  0  0  0
    3.2287   15.7427  -10.4551 H   0  0  0  0  0  0  0  0  0  0  0  0
    2.3283   12.8406   -3.5833 H   0  0  0  0  0  0  0  0  0  0  0  0
    2.3398   15.0164   -2.5352 H   0  0  0  0  0  0  0  0  0  0  0  0
    0.6271   15.2950   -2.9183 H   0  0  0  0  0  0  0  0  0  0  0  0
    1.6611   14.5921   -0.3494 H   0  0  0  0  0  0  0  0  0  0  0  0
   -0.0415   14.4903   -0.7903 H   0  0  0  0  0  0  0  0  0  0  0  0
    2.8444   12.2717    0.1874 H   0  0  0  0  0  0  0  0  0  0  0  0
    2.8545   11.3559   -1.3578 H   0  0  0  0  0  0  0  0  0  0  0  0
    3.1869   13.1212   -1.3578 H   0  0  0  0  0  0  0  0  0  0  0  0
   -0.7823   12.2708   -0.1643 H   0  0  0  0  0  0  0  0  0  0  0  0
    0.9398   13.2105    1.5078 H   0  0  0  0  0  0  0  0  0  0  0  0
   -0.3518   12.0129    2.0434 H   0  0  0  0  0  0  0  0  0  0  0  0
    2.0647   11.6381    3.0224 H   0  0  0  0  0  0  0  0  0  0  0  0
    2.1024    9.6049   -0.4650 H   0  0  0  0  0  0  0  0  0  0  0  0
    0.2916    7.9270    1.3793 H   0  0  0  0  0  0  0  0  0  0  0  0
    0.7206    7.5679   -0.3524 H   0  0  0  0  0  0  0  0  0  0  0  0
    2.0092    6.1799    1.2393 H   0  0  0  0  0  0  0  0  0  0  0  0
    3.0525    7.2774    0.2530 H   0  0  0  0  0  0  0  0  0  0  0  0
    3.8327    7.3077    2.5221 H   0  0  0  0  0  0  0  0  0  0  0  0
    2.3140    6.9380    3.9750 H   0  0  0  0  0  0  0  0  0  0  0  0
    5.3465    9.6552    1.8503 H   0  0  0  0  0  0  0  0  0  0  0  0
    4.5447    8.6262    0.6154 H   0  0  0  0  0  0  0  0  0  0  0  0
    4.2774   10.4025    0.6154 H   0  0  0  0  0  0  0  0  0  0  0  0
    3.1601    9.2680    4.3717 H   0  0  0  0  0  0  0  0  0  0  0  0
    4.7575    9.7249    3.6888 H   0  0  0  0  0  0  0  0  0  0  0  0
    3.4082   10.9108    3.6888 H   0  0  0  0  0  0  0  0  0  0  0  0
   -1.0463    9.8738    1.5743 H   0  0  0  0  0  0  0  0  0  0  0  0
   -2.0254   10.4757    0.1939 H   0  0  0  0  0  0  0  0  0  0  0  0
   -1.4167    8.7857    0.1939 H   0  0  0  0  0  0  0  0  0  0  0  0
    0.2505    8.8828   -1.8869 H   0  0  0  0  0  0  0  0  0  0  0  0
   -1.1267   10.1197   -1.9745 H   0  0  0  0  0  0  0  0  0  0  0  0
    1.7878   10.5441   -2.6930 H   0  0  0  0  0  0  0  0  0  0  0  0
    0.3441   10.5594   -3.7802 H   0  0  0  0  0  0  0  0  0  0  0  0
   -1.4868   12.7022   -1.7089 H   0  0  0  0  0  0  0  0  0  0  0  0
   -1.1104   13.5406   -3.2523 H   0  0  0  0  0  0  0  0  0  0  0  0
   -1.4825   11.7832   -3.2523 H   0  0  0  0  0  0  0  0  0  0  0  0
  1  2  1  0
  2  3  1  0
  3  4  1  0
  4  5  1  0
  5  6  1  0
  6  7  1  0
  7  8  1  0
  7  9  1  0
  2 10  1  0
 10 11  1  0
 11 12  1  0
 12 13  1  0
 13 14  1  6
 13 15  1  0
 15 16  1  0
 16 17  1  0
 17 18  2  0
 18 19  1  0
 19 20  1  0
 20 21  1  0
 21 22  1  0
 22 23  1  0
 22 24  1  0
 24 25  1  0
 24 26  1  0
 19 27  1  0
 27 28  1  1
 27 29  1  0
 29 30  1  0
 30 31  1  0
 31 32  1  1
  7  5  1  0
 31 10  1  0
 31 13  1  0
 27 15  1  0
 24 18  1  0
  1 33  1  0
  1 34  1  0
  1 35  1  0
  2 36  1  1
  3 37  1  0
  3 38  1  0
  4 39  1  0
  4 40  1  0
  5 41  1  6
  8 42  1  0
  8 43  1  0
  8 44  1  0
  9 45  1  0
  9 46  1  0
  9 47  1  0
 10 48  1  6
 11 49  1  0
 11 50  1  0
 12 51  1  0
 12 52  1  0
 14 53  1  0
 14 54  1  0
 14 55  1  0
 15 56  1  6
 16 57  1  0
 16 58  1  0
 17 59  1  0
 19 60  1  6
 20 61  1  0
 20 62  1  0
 21 63  1  0
 21 64  1  0
 22 65  1  1
 23 66  1  0
 25 67  1  0
 25 68  1  0
 25 69  1  0
 26 70  1  0
 26 71  1  0
 26 72  1  0
 28 73  1  0
 28 74  1  0
 28 75  1  0
 29 76  1  0
 29 77  1  0
 30 78  1  0
 30 79  1  0
 32 80  1  0
 32 81  1  0
 32 82  1  0
M  END
>  <meeko>  (3) 
{"is_sidechain": [false], "intermolecular_energy": 2.731, "internal_energy": -0.839}

$$$$
EPH_relaxed_0001_pdb2pqr_Repair_414_r2_0001_out
     RDKit          3D

 82 86  0  0  0  0  0  0  0  0999 V2000
    2.3630   17.9590   -2.6640 C   0  0  0  0  0  0  0  0  0  0  0  0
    1.0540   17.5870   -1.9620 C   0  0  2  0  0  0  0  0  0  0  0  0
    1.1830   17.6420   -0.4260 C   0  0  0  0  0  0  0  0  0  0  0  0
    0.8660   19.0160    0.1690 C   0  0  0  0  0  0  0  0  0  0  0  0
   -0.5810   19.1400    0.5390 C   0  0  2  0  0  0  0  0  0  0  0  0
   -1.4560   18.2450   -0.1600 O   0  0  0  0  0  0  0  0  0  0  0  0
   -1.6480   19.6460   -0.4140 C   0  0  0  0  0  0  0  0  0  0  0  0
   -1.3120   20.0620   -1.8120 C   0  0  0  0  0  0  0  0  0  0  0  0
   -2.9180   20.1940    0.1580 C   0  0  0  0  0  0  0  0  0  0  0  0
    0.6070   16.1970   -2.3980 C   0  0  1  0  0  0  0  0  0  0  0  0
    0.6890   15.9970   -3.9350 C   0  0  0  0  0  0  0  0  0  0  0  0
    1.0930   14.5190   -4.1730 C   0  0  0  0  0  0  0  0  0  0  0  0
    0.9070   13.8370   -2.7970 C   0  0  1  0  0  0  0  0  0  0  0  0
   -0.6220   13.5360   -2.7020 C   0  0  0  0  0  0  0  0  0  0  0  0
    1.7650   12.5560   -2.5390 C   0  0  2  0  0  0  0  0  0  0  0  0
    1.4790   11.3780   -3.4860 C   0  0  0  0  0  0  0  0  0  0  0  0
    0.4270   10.4260   -3.0200 C   0  0  0  0  0  0  0  0  0  0  0  0
   -0.0580   10.3490   -1.7660 C   0  0  0  0  0  0  0  0  0  0  0  0
    0.5260   11.2130   -0.6410 C   0  0  1  0  0  0  0  0  0  0  0  0
    0.7690   10.3340    0.6140 C   0  0  0  0  0  0  0  0  0  0  0  0
   -0.4820    9.5770    1.0490 C   0  0  0  0  0  0  0  0  0  0  0  0
   -0.9990    8.6850   -0.0770 C   0  0  2  0  0  0  0  0  0  0  0  0
   -0.0450    7.6460   -0.3170 O   0  0  0  0  0  0  0  0  0  0  0  0
   -1.2710    9.4600   -1.3970 C   0  0  0  0  0  0  0  0  0  0  0  0
   -2.5080   10.3750   -1.2180 C   0  0  0  0  0  0  0  0  0  0  0  0
   -1.6510    8.4240   -2.4890 C   0  0  0  0  0  0  0  0  0  0  0  0
    1.7950   12.0890   -1.0280 C   0  0  1  0  0  0  0  0  0  0  0  0
    3.0960   11.2500   -0.8460 C   0  0  0  0  0  0  0  0  0  0  0  0
    1.9060   13.3020   -0.0290 C   0  0  0  0  0  0  0  0  0  0  0  0
    1.1300   14.5800   -0.4000 C   0  0  0  0  0  0  0  0  0  0  0  0
    1.4070   14.9880   -1.8500 C   0  0  2  0  0  0  0  0  0  0  0  0
    2.9340   15.3190   -1.9710 C   0  0  0  0  0  0  0  0  0  0  0  0
    3.1338   18.1780   -1.9104 H   0  0  0  0  0  0  0  0  0  0  0  0
    2.6933   17.1192   -3.2929 H   0  0  0  0  0  0  0  0  0  0  0  0
    2.2023   18.8470   -3.2929 H   0  0  0  0  0  0  0  0  0  0  0  0
    0.2978   18.3296   -2.2565 H   0  0  0  0  0  0  0  0  0  0  0  0
    0.4885   16.9072    0.0074 H   0  0  0  0  0  0  0  0  0  0  0  0
    2.2329   17.4210   -0.1834 H   0  0  0  0  0  0  0  0  0  0  0  0
    1.4784   19.1637    1.0708 H   0  0  0  0  0  0  0  0  0  0  0  0
    1.0920   19.7788   -0.5907 H   0  0  0  0  0  0  0  0  0  0  0  0
   -0.3179   19.4224    1.5691 H   0  0  0  0  0  0  0  0  0  0  0  0
   -0.6211   20.9175   -1.7839 H   0  0  0  0  0  0  0  0  0  0  0  0
   -0.8353   19.2228   -2.3397 H   0  0  0  0  0  0  0  0  0  0  0  0
   -2.2327   20.3515   -2.3397 H   0  0  0  0  0  0  0  0  0  0  0  0
   -2.8652   20.1712    1.2565 H   0  0  0  0  0  0  0  0  0  0  0  0
   -3.0552   21.2314   -0.1811 H   0  0  0  0  0  0  0  0  0  0  0  0
   -3.7669   19.5821   -0.1811 H   0  0  0  0  0  0  0  0  0  0  0  0
   -0.4120   16.1932   -1.9838 H   0  0  0  0  0  0  0  0  0  0  0  0
   -0.2885   16.2015   -4.3963 H   0  0  0  0  0  0  0  0  0  0  0  0
    1.4215   16.6838   -4.3841 H   0  0  0  0  0  0  0  0  0  0  0  0
    0.4410   14.0549   -4.9277 H   0  0  0  0  0  0  0  0  0  0  0  0
    2.1219   14.4234   -4.5502 H   0  0  0  0  0  0  0  0  0  0  0  0
   -0.9192   13.4775   -1.6445 H   0  0  0  0  0  0  0  0  0  0  0  0
   -1.1855   14.3404   -3.1973 H   0  0  0  0  0  0  0  0  0  0  0  0
   -0.8386   12.5780   -3.1973 H   0  0  0  0  0  0  0  0  0  0  0  0
    2.7805   12.8987   -2.7867 H   0  0  0  0  0  0  0  0  0  0  0  0
    1.1595   11.7903   -4.4545 H   0  0  0  0  0  0  0  0  0  0  0  0
    2.4120   10.7978   -3.5405 H   0  0  0  0  0  0  0  0  0  0  0  0
    0.0134    9.7289   -3.7637 H   0  0  0  0  0  0  0  0  0  0  0  0
   -0.2327   11.9779   -0.4192 H   0  0  0  0  0  0  0  0  0  0  0  0
    1.5608    9.6052    0.3862 H   0  0  0  0  0  0  0  0  0  0  0  0
    1.0587   11.0020    1.4385 H   0  0  0  0  0  0  0  0  0  0  0  0
   -0.2395    8.9519    1.9210 H   0  0  0  0  0  0  0  0  0  0  0  0
   -1.2634   10.3077    1.3050 H   0  0  0  0  0  0  0  0  0  0  0  0
   -1.9647    8.2703    0.2477 H   0  0  0  0  0  0  0  0  0  0  0  0
   -0.2950    7.2030   -1.1450 H   0  0  0  0  0  0  0  0  0  0  0  0
   -2.7045   10.5203   -0.1455 H   0  0  0  0  0  0  0  0  0  0  0  0
   -2.3149   11.3493   -1.6907 H   0  0  0  0  0  0  0  0  0  0  0  0
   -3.3831    9.9052   -1.6907 H   0  0  0  0  0  0  0  0  0  0  0  0
   -1.9920    7.4944   -2.0097 H   0  0  0  0  0  0  0  0  0  0  0  0
   -2.4584    8.8310   -3.1155 H   0  0  0  0  0  0  0  0  0  0  0  0
   -0.7719    8.2125   -3.1155 H   0  0  0  0  0  0  0  0  0  0  0  0
    3.3003   11.1183    0.2268 H   0  0  0  0  0  0  0  0  0  0  0  0
    2.9662   10.2650   -1.3182 H   0  0  0  0  0  0  0  0  0  0  0  0
    3.9397   11.7746   -1.3182 H   0  0  0  0  0  0  0  0  0  0  0  0
    1.5380   12.9616    0.9501 H   0  0  0  0  0  0  0  0  0  0  0  0
    2.9665   13.5936   -0.0467 H   0  0  0  0  0  0  0  0  0  0  0  0
    0.0526   14.3950   -0.2778 H   0  0  0  0  0  0  0  0  0  0  0  0
    1.4584   15.3945    0.2624 H   0  0  0  0  0  0  0  0  0  0  0  0
    3.3695   15.4134   -0.9653 H   0  0  0  0  0  0  0  0  0  0  0  0
    3.4424   14.5102   -2.5163 H   0  0  0  0  0  0  0  0  0  0  0  0
    3.0619   16.2657   -2.5163 H   0  0  0  0  0  0  0  0  0  0  0  0
  1  2  1  0
  2  3  1  0
  3  4  1  0
  4  5  1  0
  5  6  1  0
  6  7  1  0
  7  8  1  0
  7  9  1  0
  2 10  1  0
 10 11  1  0
 11 12  1  0
 12 13  1  0
 13 14  1  1
 13 15  1  0
 15 16  1  0
 16 17  1  0
 17 18  2  0
 18 19  1  0
 19 20  1  0
 20 21  1  0
 21 22  1  0
 22 23  1  0
 22 24  1  0
 24 25  1  0
 24 26  1  0
 19 27  1  0
 27 28  1  6
 27 29  1  0
 29 30  1  0
 30 31  1  0
 31 32  1  1
  7  5  1  0
 31 10  1  0
 31 13  1  0
 27 15  1  0
 24 18  1  0
  1 33  1  0
  1 34  1  0
  1 35  1  0
  2 36  1  6
  3 37  1  0
  3 38  1  0
  4 39  1  0
  4 40  1  0
  5 41  1  1
  8 42  1  0
  8 43  1  0
  8 44  1  0
  9 45  1  0
  9 46  1  0
  9 47  1  0
 10 48  1  1
 11 49  1  0
 11 50  1  0
 12 51  1  0
 12 52  1  0
 14 53  1  0
 14 54  1  0
 14 55  1  0
 15 56  1  6
 16 57  1  0
 16 58  1  0
 17 59  1  0
 19 60  1  1
 20 61  1  0
 20 62  1  0
 21 63  1  0
 21 64  1  0
 22 65  1  1
 23 66  1  0
 25 67  1  0
 25 68  1  0
 25 69  1  0
 26 70  1  0
 26 71  1  0
 26 72  1  0
 28 73  1  0
 28 74  1  0
 28 75  1  0
 29 76  1  0
 29 77  1  0
 30 78  1  0
 30 79  1  0
 32 80  1  0
 32 81  1  0
 32 82  1  0
M  END
>  <meeko>  (4) 
{"is_sidechain": [false], "intermolecular_energy": 2.731, "internal_energy": -0.839}

$$$$
EPH_relaxed_0001_pdb2pqr_Repair_414_r2_0001_out
     RDKit          3D

 82 86  0  0  0  0  0  0  0  0999 V2000
    0.4570   18.3970    0.0070 C   0  0  0  0  0  0  0  0  0  0  0  0
    1.5390   17.3390   -0.2230 C   0  0  2  0  0  0  0  0  0  0  0  0
    2.7490   17.9030   -0.9940 C   0  0  0  0  0  0  0  0  0  0  0  0
    3.9820   18.1390   -0.1180 C   0  0  0  0  0  0  0  0  0  0  0  0
    3.6050   18.6090    1.2540 C   0  0  2  0  0  0  0  0  0  0  0  0
    3.8340   20.0040    1.4930 O   0  0  0  0  0  0  0  0  0  0  0  0
    4.6150   19.0890    2.2800 C   0  0  0  0  0  0  0  0  0  0  0  0
    6.0800   19.1230    1.9770 C   0  0  0  0  0  0  0  0  0  0  0  0
    4.2320   19.0620    3.7270 C   0  0  0  0  0  0  0  0  0  0  0  0
    0.9510   16.1500   -0.9740 C   0  0  1  0  0  0  0  0  0  0  0  0
    0.8060   16.4170   -2.4960 C   0  0  0  0  0  0  0  0  0  0  0  0
    1.0810   15.0710   -3.2150 C   0  0  0  0  0  0  0  0  0  0  0  0
    1.0480   14.0130   -2.0870 C   0  0  1  0  0  0  0  0  0  0  0  0
   -0.4680   13.7230   -1.8550 C   0  0  0  0  0  0  0  0  0  0  0  0
    1.8530   12.6990   -2.3490 C   0  0  2  0  0  0  0  0  0  0  0  0
    1.3660   11.8620   -3.5450 C   0  0  0  0  0  0  0  0  0  0  0  0
    0.3340   10.8320   -3.2240 C   0  0  0  0  0  0  0  0  0  0  0  0
    0.0240   10.3930   -1.9900 C   0  0  0  0  0  0  0  0  0  0  0  0
    0.8120   10.8710   -0.7630 C   0  0  1  0  0  0  0  0  0  0  0  0
    1.1730    9.6540    0.1280 C   0  0  0  0  0  0  0  0  0  0  0  0
   -0.0490    8.8230    0.5060 C   0  0  0  0  0  0  0  0  0  0  0  0
   -0.7720    8.3170   -0.7390 C   0  0  2  0  0  0  0  0  0  0  0  0
    0.0730    7.3800   -1.4140 O   0  0  0  0  0  0  0  0  0  0  0  0
   -1.1770    9.4550   -1.7170 C   0  0  0  0  0  0  0  0  0  0  0  0
   -2.3190   10.2950   -1.0940 C   0  0  0  0  0  0  0  0  0  0  0  0
   -1.7690    8.7990   -2.9940 C   0  0  0  0  0  0  0  0  0  0  0  0
    2.0650   11.8010   -1.0630 C   0  0  1  0  0  0  0  0  0  0  0  0
    3.3250   10.9240   -1.3340 C   0  0  0  0  0  0  0  0  0  0  0  0
    2.3880   12.6580    0.2180 C   0  0  0  0  0  0  0  0  0  0  0  0
    1.6480   14.0020    0.3600 C   0  0  0  0  0  0  0  0  0  0  0  0
    1.7450   14.8200   -0.9320 C   0  0  2  0  0  0  0  0  0  0  0  0
    3.2570   15.1460   -1.1800 C   0  0  0  0  0  0  0  0  0  0  0  0
    0.3092   18.5415    1.0874 H   0  0  0  0  0  0  0  0  0  0  0  0
    0.7700   19.3471   -0.4506 H   0  0  0  0  0  0  0  0  0  0  0  0
   -0.4858   18.0627   -0.4506 H   0  0  0  0  0  0  0  0  0  0  0  0
    1.8996   17.0144    0.7642 H   0  0  0  0  0  0  0  0  0  0  0  0
    3.0181   17.1901   -1.7873 H   0  0  0  0  0  0  0  0  0  0  0  0
    2.4470   18.8822   -1.3939 H   0  0  0  0  0  0  0  0  0  0  0  0
    4.5428   17.1968   -0.0305 H   0  0  0  0  0  0  0  0  0  0  0  0
    4.5950   18.9199   -0.5917 H   0  0  0  0  0  0  0  0  0  0  0  0
    2.7908   17.8714    1.3091 H   0  0  0  0  0  0  0  0  0  0  0  0
    6.6489   19.1362    2.9184 H   0  0  0  0  0  0  0  0  0  0  0  0
    6.3548   18.2310    1.3950 H   0  0  0  0  0  0  0  0  0  0  0  0
    6.3132   20.0268    1.3950 H   0  0  0  0  0  0  0  0  0  0  0  0
    5.1381   19.1259    4.3474 H   0  0  0  0  0  0  0  0  0  0  0  0
    3.5751   19.9161    3.9484 H   0  0  0  0  0  0  0  0  0  0  0  0
    3.7014   18.1242    3.9484 H   0  0  0  0  0  0  0  0  0  0  0  0
    0.0013   16.0394   -0.4301 H   0  0  0  0  0  0  0  0  0  0  0  0
   -0.2116   16.7671   -2.7238 H   0  0  0  0  0  0  0  0  0  0  0  0
    1.5100   17.1937   -2.8294 H   0  0  0  0  0  0  0  0  0  0  0  0
    0.3024   14.8646   -3.9641 H   0  0  0  0  0  0  0  0  0  0  0  0
    2.0388   15.0748   -3.7559 H   0  0  0  0  0  0  0  0  0  0  0  0
   -0.6727   13.6838   -0.7749 H   0  0  0  0  0  0  0  0  0  0  0  0
   -1.0686   14.5225   -2.3133 H   0  0  0  0  0  0  0  0  0  0  0  0
   -0.7311   12.7582   -2.3133 H   0  0  0  0  0  0  0  0  0  0  0  0
    2.8428   13.0830   -2.6369 H   0  0  0  0  0  0  0  0  0  0  0  0
    0.9396   12.5497   -4.2901 H   0  0  0  0  0  0  0  0  0  0  0  0
    2.2451   11.3094   -3.9080 H   0  0  0  0  0  0  0  0  0  0  0  0
   -0.2201   10.3947   -4.0677 H   0  0  0  0  0  0  0  0  0  0  0  0
    0.1396   11.5475   -0.2150 H   0  0  0  0  0  0  0  0  0  0  0  0
    1.8795    9.0131   -0.4198 H   0  0  0  0  0  0  0  0  0  0  0  0
    1.6147   10.0406    1.0583 H   0  0  0  0  0  0  0  0  0  0  0  0
    0.2741    7.9619    1.1094 H   0  0  0  0  0  0  0  0  0  0  0  0
   -0.7407    9.4574    1.0797 H   0  0  0  0  0  0  0  0  0  0  0  0
   -1.7068    7.8413   -0.4074 H   0  0  0  0  0  0  0  0  0  0  0  0
    0.9520    7.7870   -1.5000 H   0  0  0  0  0  0  0  0  0  0  0  0
   -2.2533   10.2467    0.0030 H   0  0  0  0  0  0  0  0  0  0  0  0
   -2.2253   11.3410   -1.4212 H   0  0  0  0  0  0  0  0  0  0  0  0
   -3.2896    9.8940   -1.4212 H   0  0  0  0  0  0  0  0  0  0  0  0
   -2.4801    8.0110   -2.7054 H   0  0  0  0  0  0  0  0  0  0  0  0
   -2.2899    9.5624   -3.5906 H   0  0  0  0  0  0  0  0  0  0  0  0
   -0.9563    8.3589   -3.5906 H   0  0  0  0  0  0  0  0  0  0  0  0
    3.7693   10.6147   -0.3764 H   0  0  0  0  0  0  0  0  0  0  0  0
    3.0343   10.0321   -1.9084 H   0  0  0  0  0  0  0  0  0  0  0  0
    4.0605   11.5064   -1.9084 H   0  0  0  0  0  0  0  0  0  0  0  0
    2.1398   12.0469    1.0984 H   0  0  0  0  0  0  0  0  0  0  0  0
    3.4515   12.9235    0.1258 H   0  0  0  0  0  0  0  0  0  0  0  0
    0.5888   13.8078    0.5844 H   0  0  0  0  0  0  0  0  0  0  0  0
    2.1149   14.5754    1.1744 H   0  0  0  0  0  0  0  0  0  0  0  0
    3.7714   15.2569   -0.2140 H   0  0  0  0  0  0  0  0  0  0  0  0
    3.7200   14.3270   -1.7501 H   0  0  0  0  0  0  0  0  0  0  0  0
    3.3414   16.0830   -1.7501 H   0  0  0  0  0  0  0  0  0  0  0  0
  1  2  1  0
  2  3  1  0
  3  4  1  0
  4  5  1  0
  5  6  1  0
  6  7  1  0
  7  8  1  0
  7  9  1  0
  2 10  1  0
 10 11  1  0
 11 12  1  0
 12 13  1  0
 13 14  1  1
 13 15  1  0
 15 16  1  0
 16 17  1  0
 17 18  2  0
 18 19  1  0
 19 20  1  0
 20 21  1  0
 21 22  1  0
 22 23  1  0
 22 24  1  0
 24 25  1  0
 24 26  1  0
 19 27  1  0
 27 28  1  6
 27 29  1  0
 29 30  1  0
 30 31  1  0
 31 32  1  6
  7  5  1  0
 31 10  1  0
 31 13  1  0
 27 15  1  0
 24 18  1  0
  1 33  1  0
  1 34  1  0
  1 35  1  0
  2 36  1  1
  3 37  1  0
  3 38  1  0
  4 39  1  0
  4 40  1  0
  5 41  1  1
  8 42  1  0
  8 43  1  0
  8 44  1  0
  9 45  1  0
  9 46  1  0
  9 47  1  0
 10 48  1  1
 11 49  1  0
 11 50  1  0
 12 51  1  0
 12 52  1  0
 14 53  1  0
 14 54  1  0
 14 55  1  0
 15 56  1  6
 16 57  1  0
 16 58  1  0
 17 59  1  0
 19 60  1  1
 20 61  1  0
 20 62  1  0
 21 63  1  0
 21 64  1  0
 22 65  1  1
 23 66  1  0
 25 67  1  0
 25 68  1  0
 25 69  1  0
 26 70  1  0
 26 71  1  0
 26 72  1  0
 28 73  1  0
 28 74  1  0
 28 75  1  0
 29 76  1  0
 29 77  1  0
 30 78  1  0
 30 79  1  0
 32 80  1  0
 32 81  1  0
 32 82  1  0
M  END
>  <meeko>  (5) 
{"is_sidechain": [false], "intermolecular_energy": 2.731, "internal_energy": -0.839}

$$$$
EPH_relaxed_0001_pdb2pqr_Repair_414_r2_0001_out
     RDKit          3D

 82 86  0  0  0  0  0  0  0  0999 V2000
    2.7510   12.4160   -5.3490 C   0  0  0  0  0  0  0  0  0  0  0  0
    1.2910   12.8480   -5.1880 C   0  0  2  0  0  0  0  0  0  0  0  0
    1.0150   14.2150   -5.8460 C   0  0  0  0  0  0  0  0  0  0  0  0
    1.6990   14.3950   -7.2030 C   0  0  0  0  0  0  0  0  0  0  0  0
    1.3420   15.7060   -7.8350 C   0  0  2  0  0  0  0  0  0  0  0  0
    0.3980   15.6150   -8.9110 O   0  0  0  0  0  0  0  0  0  0  0  0
    1.7130   16.0780   -9.2590 C   0  0  0  0  0  0  0  0  0  0  0  0
    2.4770   15.1370  -10.1370 C   0  0  0  0  0  0  0  0  0  0  0  0
    1.7640   17.5270   -9.6300 C   0  0  0  0  0  0  0  0  0  0  0  0
    0.9230   12.8970   -3.7100 C   0  0  1  0  0  0  0  0  0  0  0  0
   -0.4990   13.4680   -3.4670 C   0  0  0  0  0  0  0  0  0  0  0  0
   -1.0850   12.7080   -2.2490 C   0  0  0  0  0  0  0  0  0  0  0  0
    0.1260   11.9700   -1.6310 C   0  0  1  0  0  0  0  0  0  0  0  0
    0.8540   13.0480   -0.7680 C   0  0  0  0  0  0  0  0  0  0  0  0
   -0.1970   10.6870   -0.8000 C   0  0  2  0  0  0  0  0  0  0  0  0
   -1.0610   10.9210    0.4520 C   0  0  0  0  0  0  0  0  0  0  0  0
   -0.3030   11.2020    1.7070 C   0  0  0  0  0  0  0  0  0  0  0  0
    1.0130   10.9860    1.8910 C   0  0  0  0  0  0  0  0  0  0  0  0
    1.8600   10.3130    0.8030 C   0  0  1  0  0  0  0  0  0  0  0  0
    2.7460    9.2130    1.4440 C   0  0  0  0  0  0  0  0  0  0  0  0
    3.5920    9.7410    2.5980 C   0  0  0  0  0  0  0  0  0  0  0  0
    2.7100   10.3500    3.6860 C   0  0  2  0  0  0  0  0  0  0  0  0
    1.9350    9.3080    4.2870 O   0  0  0  0  0  0  0  0  0  0  0  0
    1.7660   11.4650    3.1560 C   0  0  0  0  0  0  0  0  0  0  0  0
    2.5970   12.7170    2.7820 C   0  0  0  0  0  0  0  0  0  0  0  0
    0.8340   11.8950    4.3210 C   0  0  0  0  0  0  0  0  0  0  0  0
    1.0660    9.7920   -0.4710 C   0  0  1  0  0  0  0  0  0  0  0  0
    0.5340    8.3490   -0.2130 C   0  0  0  0  0  0  0  0  0  0  0  0
    2.0580    9.6880   -1.6890 C   0  0  0  0  0  0  0  0  0  0  0  0
    2.2450   10.9560   -2.5440 C   0  0  0  0  0  0  0  0  0  0  0  0
    0.8910   11.5530   -2.9400 C   0  0  2  0  0  0  0  0  0  0  0  0
    0.1450   10.5000   -3.8280 C   0  0  0  0  0  0  0  0  0  0  0  0
    3.2052   12.2816   -4.3562 H   0  0  0  0  0  0  0  0  0  0  0  0
    2.7935   11.4668   -5.9032 H   0  0  0  0  0  0  0  0  0  0  0  0
    3.3032   13.1892   -5.9032 H   0  0  0  0  0  0  0  0  0  0  0  0
    0.6663   12.1021   -5.7013 H   0  0  0  0  0  0  0  0  0  0  0  0
   -0.0708   14.3189   -5.9881 H   0  0  0  0  0  0  0  0  0  0  0  0
    1.4264   14.9833   -5.1748 H   0  0  0  0  0  0  0  0  0  0  0  0
    2.7890   14.3530   -7.0610 H   0  0  0  0  0  0  0  0  0  0  0  0
    1.3564   13.5892   -7.8688 H   0  0  0  0  0  0  0  0  0  0  0  0
    1.4747   16.2302   -6.8771 H   0  0  0  0  0  0  0  0  0  0  0  0
    3.0476   14.4342   -9.5122 H   0  0  0  0  0  0  0  0  0  0  0  0
    1.7752   14.5765  -10.7720 H   0  0  0  0  0  0  0  0  0  0  0  0
    3.1697   15.7087  -10.7720 H   0  0  0  0  0  0  0  0  0  0  0  0
    1.7855   18.1389   -8.7162 H   0  0  0  0  0  0  0  0  0  0  0  0
    2.6696   17.7219  -10.2233 H   0  0  0  0  0  0  0  0  0  0  0  0
    0.8744   17.7851  -10.2233 H   0  0  0  0  0  0  0  0  0  0  0  0
    1.7450   13.5252   -3.3363 H   0  0  0  0  0  0  0  0  0  0  0  0
   -0.4426   14.5449   -3.2500 H   0  0  0  0  0  0  0  0  0  0  0  0
   -1.1337   13.3379   -4.3559 H   0  0  0  0  0  0  0  0  0  0  0  0
   -1.5216   13.4120   -1.5252 H   0  0  0  0  0  0  0  0  0  0  0  0
   -1.8921   12.0180   -2.5364 H   0  0  0  0  0  0  0  0  0  0  0  0
    0.7041   12.8261    0.2989 H   0  0  0  0  0  0  0  0  0  0  0  0
    1.9298   13.0361   -0.9974 H   0  0  0  0  0  0  0  0  0  0  0  0
    0.4411   14.0414   -0.9974 H   0  0  0  0  0  0  0  0  0  0  0  0
   -0.8255   10.1092   -1.4937 H   0  0  0  0  0  0  0  0  0  0  0  0
   -1.7207   11.7787    0.2542 H   0  0  0  0  0  0  0  0  0  0  0  0
   -1.6025    9.9798    0.6281 H   0  0  0  0  0  0  0  0  0  0  0  0
   -0.8675   11.6210    2.5530 H   0  0  0  0  0  0  0  0  0  0  0  0
    2.4955   11.1044    0.3790 H   0  0  0  0  0  0  0  0  0  0  0  0
    2.0943    8.4117    1.8225 H   0  0  0  0  0  0  0  0  0  0  0  0
    3.4331    8.8441    0.6683 H   0  0  0  0  0  0  0  0  0  0  0  0
    4.1730    8.9116    3.0276 H   0  0  0  0  0  0  0  0  0  0  0  0
    4.2643   10.5217    2.2126 H   0  0  0  0  0  0  0  0  0  0  0  0
    3.3743   10.8260    4.4223 H   0  0  0  0  0  0  0  0  0  0  0  0
    0.9990    9.4950    4.1050 H   0  0  0  0  0  0  0  0  0  0  0  0
    2.9323   13.2221    3.6998 H   0  0  0  0  0  0  0  0  0  0  0  0
    3.4728   12.4124    2.1902 H   0  0  0  0  0  0  0  0  0  0  0  0
    1.9762   13.4058    2.1902 H   0  0  0  0  0  0  0  0  0  0  0  0
    1.3205   11.6705    5.2817 H   0  0  0  0  0  0  0  0  0  0  0  0
    0.6369   12.9751    4.2533 H   0  0  0  0  0  0  0  0  0  0  0  0
   -0.1157   11.3440    4.2533 H   0  0  0  0  0  0  0  0  0  0  0  0
    0.4683    8.1707    0.8705 H   0  0  0  0  0  0  0  0  0  0  0  0
   -0.4635    8.2399   -0.6637 H   0  0  0  0  0  0  0  0  0  0  0  0
    1.2219    7.6185   -0.6637 H   0  0  0  0  0  0  0  0  0  0  0  0
    3.0443    9.4064   -1.2916 H   0  0  0  0  0  0  0  0  0  0  0  0
    1.6051    8.9489   -2.3662 H   0  0  0  0  0  0  0  0  0  0  0  0
    2.8113   11.7004   -1.9651 H   0  0  0  0  0  0  0  0  0  0  0  0
    2.7909   10.6850   -3.4597 H   0  0  0  0  0  0  0  0  0  0  0  0
   -0.3695    9.7738   -3.1815 H   0  0  0  0  0  0  0  0  0  0  0  0
   -0.5926   11.0126   -4.4630 H   0  0  0  0  0  0  0  0  0  0  0  0
    0.8732    9.9742   -4.4630 H   0  0  0  0  0  0  0  0  0  0  0  0
  1  2  1  0
  2  3  1  0
  3  4  1  0
  4  5  1  0
  5  6  1  0
  6  7  1  0
  7  8  1  0
  7  9  1  0
  2 10  1  0
 10 11  1  0
 11 12  1  0
 12 13  1  0
 13 14  1  1
 13 15  1  0
 15 16  1  0
 16 17  1  0
 17 18  2  0
 18 19  1  0
 19 20  1  0
 20 21  1  0
 21 22  1  0
 22 23  1  0
 22 24  1  0
 24 25  1  0
 24 26  1  0
 19 27  1  0
 27 28  1  1
 27 29  1  0
 29 30  1  0
 30 31  1  0
 31 32  1  6
  7  5  1  0
 31 10  1  0
 31 13  1  0
 27 15  1  0
 24 18  1  0
  1 33  1  0
  1 34  1  0
  1 35  1  0
  2 36  1  6
  3 37  1  0
  3 38  1  0
  4 39  1  0
  4 40  1  0
  5 41  1  1
  8 42  1  0
  8 43  1  0
  8 44  1  0
  9 45  1  0
  9 46  1  0
  9 47  1  0
 10 48  1  1
 11 49  1  0
 11 50  1  0
 12 51  1  0
 12 52  1  0
 14 53  1  0
 14 54  1  0
 14 55  1  0
 15 56  1  6
 16 57  1  0
 16 58  1  0
 17 59  1  0
 19 60  1  6
 20 61  1  0
 20 62  1  0
 21 63  1  0
 21 64  1  0
 22 65  1  1
 23 66  1  0
 25 67  1  0
 25 68  1  0
 25 69  1  0
 26 70  1  0
 26 71  1  0
 26 72  1  0
 28 73  1  0
 28 74  1  0
 28 75  1  0
 29 76  1  0
 29 77  1  0
 30 78  1  0
 30 79  1  0
 32 80  1  0
 32 81  1  0
 32 82  1  0
M  END
>  <meeko>  (6) 
{"is_sidechain": [false], "intermolecular_energy": 2.731, "internal_energy": -0.839}

$$$$
EPH_relaxed_0001_pdb2pqr_Repair_414_r2_0001_out
     RDKit          3D

 82 86  0  0  0  0  0  0  0  0999 V2000
    3.6630   18.0580    0.6600 C   0  0  0  0  0  0  0  0  0  0  0  0
    2.6540   18.4020   -0.4390 C   0  0  2  0  0  0  0  0  0  0  0  0
    1.9030   19.7170   -0.1480 C   0  0  0  0  0  0  0  0  0  0  0  0
    0.8050   19.5770    0.9100 C   0  0  0  0  0  0  0  0  0  0  0  0
   -0.4950   20.1570    0.4380 C   0  0  2  0  0  0  0  0  0  0  0  0
   -1.5290   20.1930    1.4310 O   0  0  0  0  0  0  0  0  0  0  0  0
   -1.7690   19.3460    0.2960 C   0  0  0  0  0  0  0  0  0  0  0  0
   -1.8060   17.8860    0.6230 C   0  0  0  0  0  0  0  0  0  0  0  0
   -2.8410   19.8520   -0.6180 C   0  0  0  0  0  0  0  0  0  0  0  0
    1.6580   17.2600   -0.6070 C   0  0  1  0  0  0  0  0  0  0  0  0
    0.4470   17.6500   -1.4950 C   0  0  0  0  0  0  0  0  0  0  0  0
    0.0500   16.3800   -2.2920 C   0  0  0  0  0  0  0  0  0  0  0  0
    0.8190   15.2300   -1.6010 C   0  0  1  0  0  0  0  0  0  0  0  0
   -0.0410   14.8670   -0.3500 C   0  0  0  0  0  0  0  0  0  0  0  0
    1.1180   13.9730   -2.4810 C   0  0  2  0  0  0  0  0  0  0  0  0
   -0.1240   13.2220   -2.9910 C   0  0  0  0  0  0  0  0  0  0  0  0
   -0.6220   12.1330   -2.1000 C   0  0  0  0  0  0  0  0  0  0  0  0
    0.0640   11.5800   -1.0820 C   0  0  0  0  0  0  0  0  0  0  0  0
    1.5180   11.9810   -0.8030 C   0  0  1  0  0  0  0  0  0  0  0  0
    2.3720   10.7070   -0.5750 C   0  0  0  0  0  0  0  0  0  0  0  0
    1.7970    9.8030    0.5110 C   0  0  0  0  0  0  0  0  0  0  0  0
    0.3710    9.3790    0.1690 C   0  0  2  0  0  0  0  0  0  0  0  0
    0.4060    8.5340   -0.9850 O   0  0  0  0  0  0  0  0  0  0  0  0
   -0.5800   10.5800   -0.0910 C   0  0  0  0  0  0  0  0  0  0  0  0
   -0.8560   11.3230    1.2390 C   0  0  0  0  0  0  0  0  0  0  0  0
   -1.9460   10.0130   -0.5630 C   0  0  0  0  0  0  0  0  0  0  0  0
    2.1760   12.9780   -1.8510 C   0  0  1  0  0  0  0  0  0  0  0  0
    2.7910   12.1730   -3.0370 C   0  0  0  0  0  0  0  0  0  0  0  0
    3.3720   13.7340   -1.1610 C   0  0  0  0  0  0  0  0  0  0  0  0
    3.0300   15.0340   -0.4080 C   0  0  0  0  0  0  0  0  0  0  0  0
    2.1730   15.9610   -1.2760 C   0  0  2  0  0  0  0  0  0  0  0  0
    3.0200   16.3610   -2.5310 C   0  0  0  0  0  0  0  0  0  0  0  0
    3.2000   18.2158    1.6453 H   0  0  0  0  0  0  0  0  0  0  0  0
    3.9671   17.0054    0.5622 H   0  0  0  0  0  0  0  0  0  0  0  0
    4.5468   18.7056    0.5622 H   0  0  0  0  0  0  0  0  0  0  0  0
    3.2182   18.5438   -1.3726 H   0  0  0  0  0  0  0  0  0  0  0  0
    2.6314   20.4625    0.2038 H   0  0  0  0  0  0  0  0  0  0  0  0
    1.4111   20.0204   -1.0839 H   0  0  0  0  0  0  0  0  0  0  0  0
    0.6592   18.5099    1.1339 H   0  0  0  0  0  0  0  0  0  0  0  0
    1.1210   20.1278    1.8082 H   0  0  0  0  0  0  0  0  0  0  0  0
    0.0294   20.8342   -0.2522 H   0  0  0  0  0  0  0  0  0  0  0  0
   -1.8093   17.7548    1.7151 H   0  0  0  0  0  0  0  0  0  0  0  0
   -2.7158   17.4378    0.1971 H   0  0  0  0  0  0  0  0  0  0  0  0
   -0.9201   17.3923    0.1971 H   0  0  0  0  0  0  0  0  0  0  0  0
   -3.6763   20.2463   -0.0206 H   0  0  0  0  0  0  0  0  0  0  0  0
   -2.4339   20.6530   -1.2525 H   0  0  0  0  0  0  0  0  0  0  0  0
   -3.2006   19.0286   -1.2525 H   0  0  0  0  0  0  0  0  0  0  0  0
    1.4157   17.0687    0.4488 H   0  0  0  0  0  0  0  0  0  0  0  0
   -0.3929   17.9808   -0.8664 H   0  0  0  0  0  0  0  0  0  0  0  0
    0.7040   18.4776   -2.1726 H   0  0  0  0  0  0  0  0  0  0  0  0
   -1.0354   16.2100   -2.2363 H   0  0  0  0  0  0  0  0  0  0  0  0
    0.2967   16.4639   -3.3607 H   0  0  0  0  0  0  0  0  0  0  0  0
    0.5228   15.1050    0.5641 H   0  0  0  0  0  0  0  0  0  0  0  0
   -0.9752   15.4476   -0.3662 H   0  0  0  0  0  0  0  0  0  0  0  0
   -0.2766   13.7927   -0.3662 H   0  0  0  0  0  0  0  0  0  0  0  0
    1.5859   14.4158   -3.3726 H   0  0  0  0  0  0  0  0  0  0  0  0
   -0.9350   13.9541   -3.1187 H   0  0  0  0  0  0  0  0  0  0  0  0
    0.1801   12.7328   -3.9281 H   0  0  0  0  0  0  0  0  0  0  0  0
   -1.6352   11.7498   -2.2912 H   0  0  0  0  0  0  0  0  0  0  0  0
    1.4956   12.5844    0.1165 H   0  0  0  0  0  0  0  0  0  0  0  0
    2.4186   10.1407   -1.5169 H   0  0  0  0  0  0  0  0  0  0  0  0
    3.3709   11.0295   -0.2462 H   0  0  0  0  0  0  0  0  0  0  0  0
    2.4269    8.9060    0.6036 H   0  0  0  0  0  0  0  0  0  0  0  0
    1.7798   10.3603    1.4592 H   0  0  0  0  0  0  0  0  0  0  0  0
   -0.0322    8.8438    1.0413 H   0  0  0  0  0  0  0  0  0  0  0  0
    0.8900    7.7250   -0.7430 H   0  0  0  0  0  0  0  0  0  0  0  0
   -0.6111   10.6638    2.0849 H   0  0  0  0  0  0  0  0  0  0  0  0
   -0.2345   12.2293    1.2885 H   0  0  0  0  0  0  0  0  0  0  0  0
   -1.9184   11.6038    1.2885 H   0  0  0  0  0  0  0  0  0  0  0  0
   -2.5598    9.7582    0.3135 H   0  0  0  0  0  0  0  0  0  0  0  0
   -2.4673   10.7690   -1.1685 H   0  0  0  0  0  0  0  0  0  0  0  0
   -1.7787    9.1100   -1.1685 H   0  0  0  0  0  0  0  0  0  0  0  0
    3.4143   11.3571   -2.6422 H   0  0  0  0  0  0  0  0  0  0  0  0
    1.9825   11.7518   -3.6526 H   0  0  0  0  0  0  0  0  0  0  0  0
    3.4099   12.8423   -3.6526 H   0  0  0  0  0  0  0  0  0  0  0  0
    3.8309   13.0423   -0.4393 H   0  0  0  0  0  0  0  0  0  0  0  0
    4.0309   14.0437   -1.9856 H   0  0  0  0  0  0  0  0  0  0  0  0
    2.4749   14.7838    0.5081 H   0  0  0  0  0  0  0  0  0  0  0  0
    3.9677   15.5530   -0.1603 H   0  0  0  0  0  0  0  0  0  0  0  0
    3.9698   16.8096   -2.2045 H   0  0  0  0  0  0  0  0  0  0  0  0
    3.2261   15.4651   -3.1350 H   0  0  0  0  0  0  0  0  0  0  0  0
    2.4590   17.0893   -3.1350 H   0  0  0  0  0  0  0  0  0  0  0  0
  1  2  1  0
  2  3  1  0
  3  4  1  0
  4  5  1  0
  5  6  1  0
  6  7  1  0
  7  8  1  0
  7  9  1  0
  2 10  1  0
 10 11  1  0
 11 12  1  0
 12 13  1  0
 13 14  1  1
 13 15  1  0
 15 16  1  0
 16 17  1  0
 17 18  2  0
 18 19  1  0
 19 20  1  0
 20 21  1  0
 21 22  1  0
 22 23  1  0
 22 24  1  0
 24 25  1  0
 24 26  1  0
 19 27  1  0
 27 28  1  6
 27 29  1  0
 29 30  1  0
 30 31  1  0
 31 32  1  6
  7  5  1  0
 31 10  1  0
 31 13  1  0
 27 15  1  0
 24 18  1  0
  1 33  1  0
  1 34  1  0
  1 35  1  0
  2 36  1  6
  3 37  1  0
  3 38  1  0
  4 39  1  0
  4 40  1  0
  5 41  1  6
  8 42  1  0
  8 43  1  0
  8 44  1  0
  9 45  1  0
  9 46  1  0
  9 47  1  0
 10 48  1  1
 11 49  1  0
 11 50  1  0
 12 51  1  0
 12 52  1  0
 14 53  1  0
 14 54  1  0
 14 55  1  0
 15 56  1  6
 16 57  1  0
 16 58  1  0
 17 59  1  0
 19 60  1  1
 20 61  1  0
 20 62  1  0
 21 63  1  0
 21 64  1  0
 22 65  1  1
 23 66  1  0
 25 67  1  0
 25 68  1  0
 25 69  1  0
 26 70  1  0
 26 71  1  0
 26 72  1  0
 28 73  1  0
 28 74  1  0
 28 75  1  0
 29 76  1  0
 29 77  1  0
 30 78  1  0
 30 79  1  0
 32 80  1  0
 32 81  1  0
 32 82  1  0
M  END
>  <meeko>  (7) 
{"is_sidechain": [false], "intermolecular_energy": 2.731, "internal_energy": -0.839}

$$$$
EPH_relaxed_0001_pdb2pqr_Repair_414_r2_0001_out
     RDKit          3D

 82 86  0  0  0  0  0  0  0  0999 V2000
    1.2200   13.5730   -5.2100 C   0  0  0  0  0  0  0  0  0  0  0  0
    0.3770   14.1970   -4.0940 C   0  0  2  0  0  0  0  0  0  0  0  0
    0.3150   15.7330   -4.2010 C   0  0  0  0  0  0  0  0  0  0  0  0
    1.4400   16.4490   -3.4480 C   0  0  0  0  0  0  0  0  0  0  0  0
    0.9270   17.6180   -2.6640 C   0  0  2  0  0  0  0  0  0  0  0  0
    1.6970   18.8180   -2.8050 O   0  0  0  0  0  0  0  0  0  0  0  0
    1.6720   18.2320   -1.4940 C   0  0  0  0  0  0  0  0  0  0  0  0
    2.9930   17.6950   -1.0410 C   0  0  0  0  0  0  0  0  0  0  0  0
    0.8970   19.0300   -0.4920 C   0  0  0  0  0  0  0  0  0  0  0  0
    0.9340   13.7910   -2.7340 C   0  0  1  0  0  0  0  0  0  0  0  0
    0.9260   14.9600   -1.7130 C   0  0  0  0  0  0  0  0  0  0  0  0
    0.6330   14.3380   -0.3230 C   0  0  0  0  0  0  0  0  0  0  0  0
    0.8110   12.8160   -0.5320 C   0  0  1  0  0  0  0  0  0  0  0  0
    2.3520   12.5780   -0.4540 C   0  0  0  0  0  0  0  0  0  0  0  0
    0.0330   11.8870    0.4550 C   0  0  2  0  0  0  0  0  0  0  0  0
    0.4360   12.0230    1.9340 C   0  0  0  0  0  0  0  0  0  0  0  0
    1.5310   11.1130    2.3840 C   0  0  0  0  0  0  0  0  0  0  0  0
    1.9710   10.0300    1.7170 C   0  0  0  0  0  0  0  0  0  0  0  0
    1.2850    9.5690    0.4240 C   0  0  1  0  0  0  0  0  0  0  0  0
    1.0540    8.0360    0.4790 C   0  0  0  0  0  0  0  0  0  0  0  0
    2.3360    7.2610    0.7680 C   0  0  0  0  0  0  0  0  0  0  0  0
    2.9560    7.7070    2.0900 C   0  0  2  0  0  0  0  0  0  0  0  0
    2.0860    7.3260    3.1600 O   0  0  0  0  0  0  0  0  0  0  0  0
    3.2260    9.2360    2.1550 C   0  0  0  0  0  0  0  0  0  0  0  0
    4.3900    9.6010    1.2000 C   0  0  0  0  0  0  0  0  0  0  0  0
    3.7190    9.5740    3.5880 C   0  0  0  0  0  0  0  0  0  0  0  0
   -0.0240   10.3690    0.0100 C   0  0  1  0  0  0  0  0  0  0  0  0
   -1.2710    9.7470    0.7080 C   0  0  0  0  0  0  0  0  0  0  0  0
   -0.2560   10.2090   -1.5390 C   0  0  0  0  0  0  0  0  0  0  0  0
    0.4450   11.2300   -2.4560 C   0  0  0  0  0  0  0  0  0  0  0  0
    0.1970   12.6620   -1.9710 C   0  0  2  0  0  0  0  0  0  0  0  0
   -1.3420   12.9380   -2.0600 C   0  0  0  0  0  0  0  0  0  0  0  0
    2.0293   12.9740   -4.7670 H   0  0  0  0  0  0  0  0  0  0  0  0
    0.5838   12.9265   -5.8323 H   0  0  0  0  0  0  0  0  0  0  0  0
    1.6525   14.3703   -5.8323 H   0  0  0  0  0  0  0  0  0  0  0  0
   -0.6498   13.8181   -4.2041 H   0  0  0  0  0  0  0  0  0  0  0  0
    0.3776   16.0098   -5.2638 H   0  0  0  0  0  0  0  0  0  0  0  0
   -0.6322   16.0492   -3.7397 H   0  0  0  0  0  0  0  0  0  0  0  0
    1.9152   15.7374   -2.7568 H   0  0  0  0  0  0  0  0  0  0  0  0
    2.1629   16.8235   -4.1877 H   0  0  0  0  0  0  0  0  0  0  0  0
   -0.1099   17.2686   -2.7771 H   0  0  0  0  0  0  0  0  0  0  0  0
    3.0258   17.6816    0.0584 H   0  0  0  0  0  0  0  0  0  0  0  0
    3.1239   16.6723   -1.4242 H   0  0  0  0  0  0  0  0  0  0  0  0
    3.8004   18.3363   -1.4242 H   0  0  0  0  0  0  0  0  0  0  0  0
    1.1908   18.7275    0.5240 H   0  0  0  0  0  0  0  0  0  0  0  0
    1.1097   20.1001   -0.6319 H   0  0  0  0  0  0  0  0  0  0  0  0
   -0.1789   18.8487   -0.6319 H   0  0  0  0  0  0  0  0  0  0  0  0
    1.9335   13.4477   -3.0391 H   0  0  0  0  0  0  0  0  0  0  0  0
    1.9046   15.4623   -1.7046 H   0  0  0  0  0  0  0  0  0  0  0  0
    0.1667   15.7105   -1.9778 H   0  0  0  0  0  0  0  0  0  0  0  0
    1.3441   14.7127    0.4279 H   0  0  0  0  0  0  0  0  0  0  0  0
   -0.3713   14.5941    0.0456 H   0  0  0  0  0  0  0  0  0  0  0  0
    2.6627   12.5300    0.6001 H   0  0  0  0  0  0  0  0  0  0  0  0
    2.6024   11.6305   -0.9536 H   0  0  0  0  0  0  0  0  0  0  0  0
    2.8766   13.4058   -0.9536 H   0  0  0  0  0  0  0  0  0  0  0  0
   -0.9927   12.2785    0.3864 H   0  0  0  0  0  0  0  0  0  0  0  0
    0.7646   13.0591    2.1027 H   0  0  0  0  0  0  0  0  0  0  0  0
   -0.4525   11.7413    2.5182 H   0  0  0  0  0  0  0  0  0  0  0  0
    2.0192   11.3476    3.3414 H   0  0  0  0  0  0  0  0  0  0  0  0
    1.9803    9.8128   -0.3927 H   0  0  0  0  0  0  0  0  0  0  0  0
    0.3237    7.8177    1.2721 H   0  0  0  0  0  0  0  0  0  0  0  0
    0.6871    7.7181   -0.5081 H   0  0  0  0  0  0  0  0  0  0  0  0
    2.1030    6.1874    0.8235 H   0  0  0  0  0  0  0  0  0  0  0  0
    3.0550    7.4568   -0.0411 H   0  0  0  0  0  0  0  0  0  0  0  0
    3.9342    7.2118    2.1787 H   0  0  0  0  0  0  0  0  0  0  0  0
    2.4510    7.6940    3.9820 H   0  0  0  0  0  0  0  0  0  0  0  0
    5.2755    9.8787    1.7906 H   0  0  0  0  0  0  0  0  0  0  0  0
    4.6292    8.7347    0.5657 H   0  0  0  0  0  0  0  0  0  0  0  0
    4.0918   10.4487    0.5657 H   0  0  0  0  0  0  0  0  0  0  0  0
    3.0460    9.1126    4.3257 H   0  0  0  0  0  0  0  0  0  0  0  0
    4.7380    9.1837    3.7268 H   0  0  0  0  0  0  0  0  0  0  0  0
    3.7223   10.6652    3.7268 H   0  0  0  0  0  0  0  0  0  0  0  0
   -1.1487    9.8080    1.7995 H   0  0  0  0  0  0  0  0  0  0  0  0
   -2.1731   10.3007    0.4086 H   0  0  0  0  0  0  0  0  0  0  0  0
   -1.3713    8.6933    0.4086 H   0  0  0  0  0  0  0  0  0  0  0  0
    0.0958    9.2072   -1.8264 H   0  0  0  0  0  0  0  0  0  0  0  0
   -1.3324   10.3801   -1.6879 H   0  0  0  0  0  0  0  0  0  0  0  0
    1.5270   11.0317   -2.4547 H   0  0  0  0  0  0  0  0  0  0  0  0
    0.0366   11.1277   -3.4722 H   0  0  0  0  0  0  0  0  0  0  0  0
   -1.7603   13.0130   -1.0454 H   0  0  0  0  0  0  0  0  0  0  0  0
   -1.5148   13.8815   -2.5985 H   0  0  0  0  0  0  0  0  0  0  0  0
   -1.8319   12.1134   -2.5985 H   0  0  0  0  0  0  0  0  0  0  0  0
  1  2  1  0
  2  3  1  0
  3  4  1  0
  4  5  1  0
  5  6  1  0
  6  7  1  0
  7  8  1  0
  7  9  1  0
  2 10  1  0
 10 11  1  0
 11 12  1  0
 12 13  1  0
 13 14  1  6
 13 15  1  0
 15 16  1  0
 16 17  1  0
 17 18  2  0
 18 19  1  0
 19 20  1  0
 20 21  1  0
 21 22  1  0
 22 23  1  0
 22 24  1  0
 24 25  1  0
 24 26  1  0
 19 27  1  0
 27 28  1  1
 27 29  1  0
 29 30  1  0
 30 31  1  0
 31 32  1  1
  7  5  1  0
 31 10  1  0
 31 13  1  0
 27 15  1  0
 24 18  1  0
  1 33  1  0
  1 34  1  0
  1 35  1  0
  2 36  1  1
  3 37  1  0
  3 38  1  0
  4 39  1  0
  4 40  1  0
  5 41  1  1
  8 42  1  0
  8 43  1  0
  8 44  1  0
  9 45  1  0
  9 46  1  0
  9 47  1  0
 10 48  1  6
 11 49  1  0
 11 50  1  0
 12 51  1  0
 12 52  1  0
 14 53  1  0
 14 54  1  0
 14 55  1  0
 15 56  1  1
 16 57  1  0
 16 58  1  0
 17 59  1  0
 19 60  1  6
 20 61  1  0
 20 62  1  0
 21 63  1  0
 21 64  1  0
 22 65  1  1
 23 66  1  0
 25 67  1  0
 25 68  1  0
 25 69  1  0
 26 70  1  0
 26 71  1  0
 26 72  1  0
 28 73  1  0
 28 74  1  0
 28 75  1  0
 29 76  1  0
 29 77  1  0
 30 78  1  0
 30 79  1  0
 32 80  1  0
 32 81  1  0
 32 82  1  0
M  END
>  <meeko>  (8) 
{"is_sidechain": [false], "intermolecular_energy": 2.731, "internal_energy": -0.839}

$$$$
EPH_relaxed_0001_pdb2pqr_Repair_414_r2_0001_out
     RDKit          3D

 82 86  0  0  0  0  0  0  0  0999 V2000
   -0.7110    9.3570   -2.3470 C   0  0  0  0  0  0  0  0  0  0  0  0
   -1.0140    9.5790   -0.8620 C   0  0  2  0  0  0  0  0  0  0  0  0
   -2.5290    9.5910   -0.5740 C   0  0  0  0  0  0  0  0  0  0  0  0
   -3.2700    8.3710   -1.1280 C   0  0  0  0  0  0  0  0  0  0  0  0
   -4.7350    8.4230   -0.8150 C   0  0  2  0  0  0  0  0  0  0  0  0
   -5.2720    7.2140   -0.2640 O   0  0  0  0  0  0  0  0  0  0  0  0
   -5.7770    7.6030   -1.5510 C   0  0  0  0  0  0  0  0  0  0  0  0
   -5.3980    6.6730   -2.6610 C   0  0  0  0  0  0  0  0  0  0  0  0
   -7.2010    8.0660   -1.5260 C   0  0  0  0  0  0  0  0  0  0  0  0
   -0.3840   10.8850   -0.3930 C   0  0  1  0  0  0  0  0  0  0  0  0
    0.7810   10.6610    0.6070 C   0  0  0  0  0  0  0  0  0  0  0  0
    1.8280   11.7700    0.3300 C   0  0  0  0  0  0  0  0  0  0  0  0
    1.0920   12.7820   -0.5790 C   0  0  1  0  0  0  0  0  0  0  0  0
    0.2420   13.6540    0.3980 C   0  0  0  0  0  0  0  0  0  0  0  0
    1.9940   13.6640   -1.5030 C   0  0  2  0  0  0  0  0  0  0  0  0
    2.9700   14.5970   -0.7640 C   0  0  0  0  0  0  0  0  0  0  0  0
    2.4410   15.9580   -0.4550 C   0  0  0  0  0  0  0  0  0  0  0  0
    1.3440   16.5130   -1.0020 C   0  0  0  0  0  0  0  0  0  0  0  0
    0.5650   15.7920   -2.1090 C   0  0  1  0  0  0  0  0  0  0  0  0
    0.2530   16.7890   -3.2570 C   0  0  0  0  0  0  0  0  0  0  0  0
   -0.4600   18.0440   -2.7640 C   0  0  0  0  0  0  0  0  0  0  0  0
    0.3720   18.7640   -1.7060 C   0  0  2  0  0  0  0  0  0  0  0  0
    1.5590   19.2740   -2.3220 O   0  0  0  0  0  0  0  0  0  0  0  0
    0.7550   17.8560   -0.5040 C   0  0  0  0  0  0  0  0  0  0  0  0
   -0.5070   17.5510    0.3400 C   0  0  0  0  0  0  0  0  0  0  0  0
    1.7090   18.6620    0.4180 C   0  0  0  0  0  0  0  0  0  0  0  0
    1.2030   14.4350   -2.6360 C   0  0  1  0  0  0  0  0  0  0  0  0
    2.2300   14.7360   -3.7700 C   0  0  0  0  0  0  0  0  0  0  0  0
    0.0720   13.5520   -3.2830 C   0  0  0  0  0  0  0  0  0  0  0  0
   -0.7030   12.6140   -2.3390 C   0  0  0  0  0  0  0  0  0  0  0  0
    0.2570   11.7940   -1.4710 C   0  0  2  0  0  0  0  0  0  0  0  0
    1.1110   10.8900   -2.4250 C   0  0  0  0  0  0  0  0  0  0  0  0
    0.1726    8.7096   -2.4481 H   0  0  0  0  0  0  0  0  0  0  0  0
   -1.5748    8.8765   -2.8296 H   0  0  0  0  0  0  0  0  0  0  0  0
   -0.5132   10.3255   -2.8296 H   0  0  0  0  0  0  0  0  0  0  0  0
   -0.5791    8.7357   -0.3055 H   0  0  0  0  0  0  0  0  0  0  0  0
   -2.6752    9.6209    0.5158 H   0  0  0  0  0  0  0  0  0  0  0  0
   -2.9451   10.4761   -1.0774 H   0  0  0  0  0  0  0  0  0  0  0  0
   -3.1396    8.3402   -2.2198 H   0  0  0  0  0  0  0  0  0  0  0  0
   -2.8501    7.4709   -0.6553 H   0  0  0  0  0  0  0  0  0  0  0  0
   -4.6711    9.4959   -0.5809 H   0  0  0  0  0  0  0  0  0  0  0  0
   -5.0149    5.7330   -2.2371 H   0  0  0  0  0  0  0  0  0  0  0  0
   -6.2820    6.4623   -3.2808 H   0  0  0  0  0  0  0  0  0  0  0  0
   -4.6185    7.1402   -3.2808 H   0  0  0  0  0  0  0  0  0  0  0  0
   -7.5332    8.1740   -0.4829 H   0  0  0  0  0  0  0  0  0  0  0  0
   -7.2802    9.0362   -2.0384 H   0  0  0  0  0  0  0  0  0  0  0  0
   -7.8356    7.3279   -2.0384 H   0  0  0  0  0  0  0  0  0  0  0  0
   -1.2724   11.3752    0.0318 H   0  0  0  0  0  0  0  0  0  0  0  0
    0.4128   10.7374    1.6407 H   0  0  0  0  0  0  0  0  0  0  0  0
    1.2223    9.6612    0.4816 H   0  0  0  0  0  0  0  0  0  0  0  0
    2.1440   12.2490    1.2684 H   0  0  0  0  0  0  0  0  0  0  0  0
    2.7409   11.3745   -0.1392 H   0  0  0  0  0  0  0  0  0  0  0  0
    0.4954   13.3941    1.4364 H   0  0  0  0  0  0  0  0  0  0  0  0
    0.4590   14.7181    0.2230 H   0  0  0  0  0  0  0  0  0  0  0  0
   -0.8273   13.4642    0.2230 H   0  0  0  0  0  0  0  0  0  0  0  0
    2.6214   12.9136   -2.0062 H   0  0  0  0  0  0  0  0  0  0  0  0
    3.2464   14.1161    0.1859 H   0  0  0  0  0  0  0  0  0  0  0  0
    3.8204   14.7486   -1.4451 H   0  0  0  0  0  0  0  0  0  0  0  0
    2.9947   16.5580    0.2822 H   0  0  0  0  0  0  0  0  0  0  0  0
   -0.3725   15.4496   -1.6466 H   0  0  0  0  0  0  0  0  0  0  0  0
    1.1991   17.0852   -3.7337 H   0  0  0  0  0  0  0  0  0  0  0  0
   -0.4166   16.2817   -3.9671 H   0  0  0  0  0  0  0  0  0  0  0  0
   -0.6254   18.7217   -3.6145 H   0  0  0  0  0  0  0  0  0  0  0  0
   -1.4199   17.7490   -2.3150 H   0  0  0  0  0  0  0  0  0  0  0  0
   -0.2455   19.5780   -1.2985 H   0  0  0  0  0  0  0  0  0  0  0  0
    1.3390   19.5040   -3.2400 H   0  0  0  0  0  0  0  0  0  0  0  0
   -0.2564   17.6116    1.4094 H   0  0  0  0  0  0  0  0  0  0  0  0
   -1.2915   18.2854    0.1051 H   0  0  0  0  0  0  0  0  0  0  0  0
   -0.8695   16.5394    0.1051 H   0  0  0  0  0  0  0  0  0  0  0  0
    1.4638   18.4549    1.4701 H   0  0  0  0  0  0  0  0  0  0  0  0
    2.7492   18.3651    0.2186 H   0  0  0  0  0  0  0  0  0  0  0  0
    1.5900   19.7372    0.2186 H   0  0  0  0  0  0  0  0  0  0  0  0
    3.1953   15.0189   -3.3249 H   0  0  0  0  0  0  0  0  0  0  0  0
    2.3622   13.8388   -4.3926 H   0  0  0  0  0  0  0  0  0  0  0  0
    1.8570   15.5626   -4.3926 H   0  0  0  0  0  0  0  0  0  0  0  0
   -0.6566   14.2327   -3.7475 H   0  0  0  0  0  0  0  0  0  0  0  0
    0.5940   12.8857   -3.9856 H   0  0  0  0  0  0  0  0  0  0  0  0
   -1.3525   13.2163   -1.6868 H   0  0  0  0  0  0  0  0  0  0  0  0
   -1.3036   11.9220   -2.9476 H   0  0  0  0  0  0  0  0  0  0  0  0
    1.7443   10.2197   -1.8253 H   0  0  0  0  0  0  0  0  0  0  0  0
    0.4412   10.2912   -3.0596 H   0  0  0  0  0  0  0  0  0  0  0  0
    1.7469   11.5247   -3.0596 H   0  0  0  0  0  0  0  0  0  0  0  0
  1  2  1  0
  2  3  1  0
  3  4  1  0
  4  5  1  0
  5  6  1  0
  6  7  1  0
  7  8  1  0
  7  9  1  0
  2 10  1  0
 10 11  1  0
 11 12  1  0
 12 13  1  0
 13 14  1  1
 13 15  1  0
 15 16  1  0
 16 17  1  0
 17 18  2  0
 18 19  1  0
 19 20  1  0
 20 21  1  0
 21 22  1  0
 22 23  1  0
 22 24  1  0
 24 25  1  0
 24 26  1  0
 19 27  1  0
 27 28  1  6
 27 29  1  0
 29 30  1  0
 30 31  1  0
 31 32  1  6
  7  5  1  0
 31 10  1  0
 31 13  1  0
 27 15  1  0
 24 18  1  0
  1 33  1  0
  1 34  1  0
  1 35  1  0
  2 36  1  1
  3 37  1  0
  3 38  1  0
  4 39  1  0
  4 40  1  0
  5 41  1  1
  8 42  1  0
  8 43  1  0
  8 44  1  0
  9 45  1  0
  9 46  1  0
  9 47  1  0
 10 48  1  1
 11 49  1  0
 11 50  1  0
 12 51  1  0
 12 52  1  0
 14 53  1  0
 14 54  1  0
 14 55  1  0
 15 56  1  6
 16 57  1  0
 16 58  1  0
 17 59  1  0
 19 60  1  1
 20 61  1  0
 20 62  1  0
 21 63  1  0
 21 64  1  0
 22 65  1  1
 23 66  1  0
 25 67  1  0
 25 68  1  0
 25 69  1  0
 26 70  1  0
 26 71  1  0
 26 72  1  0
 28 73  1  0
 28 74  1  0
 28 75  1  0
 29 76  1  0
 29 77  1  0
 30 78  1  0
 30 79  1  0
 32 80  1  0
 32 81  1  0
 32 82  1  0
M  END
>  <meeko>  (9) 
{"is_sidechain": [false], "intermolecular_energy": 2.731, "internal_energy": -0.839}

$$$$
EPH_relaxed_0001_pdb2pqr_Repair_414_r2_0001_out
     RDKit          3D

 82 86  0  0  0  0  0  0  0  0999 V2000
   -2.1930   10.2440   -0.8250 C   0  0  0  0  0  0  0  0  0  0  0  0
   -0.6620   10.2730   -0.8420 C   0  0  2  0  0  0  0  0  0  0  0  0
   -0.0500    9.1180   -0.0230 C   0  0  0  0  0  0  0  0  0  0  0  0
    1.4790    9.1560    0.0460 C   0  0  0  0  0  0  0  0  0  0  0  0
    2.0080    8.2360    1.1050 C   0  0  2  0  0  0  0  0  0  0  0  0
    2.2700    8.8630    2.3670 O   0  0  0  0  0  0  0  0  0  0  0  0
    3.4120    8.3340    1.6730 C   0  0  0  0  0  0  0  0  0  0  0  0
    4.3740    9.3780    1.1990 C   0  0  0  0  0  0  0  0  0  0  0  0
    4.0060    7.1250    2.3240 C   0  0  0  0  0  0  0  0  0  0  0  0
   -0.1620   11.6110   -0.3090 C   0  0  1  0  0  0  0  0  0  0  0  0
    0.9850   11.4520    0.7240 C   0  0  0  0  0  0  0  0  0  0  0  0
    1.9420   12.6540    0.5190 C   0  0  0  0  0  0  0  0  0  0  0  0
    1.1530   13.6310   -0.3840 C   0  0  1  0  0  0  0  0  0  0  0  0
    0.2000   14.3940    0.5880 C   0  0  0  0  0  0  0  0  0  0  0  0
    2.0070   14.6160   -1.2470 C   0  0  2  0  0  0  0  0  0  0  0  0
    2.8750   15.6020   -0.4460 C   0  0  0  0  0  0  0  0  0  0  0  0
    2.2220   16.9020   -0.1140 C   0  0  0  0  0  0  0  0  0  0  0  0
    1.1000   17.3820   -0.6820 C   0  0  0  0  0  0  0  0  0  0  0  0
    0.4220   16.6350   -1.8390 C   0  0  1  0  0  0  0  0  0  0  0  0
    0.0650   17.6410   -2.9650 C   0  0  0  0  0  0  0  0  0  0  0  0
   -0.7680   18.8140   -2.4600 C   0  0  0  0  0  0  0  0  0  0  0  0
   -0.0360   19.5660   -1.3510 C   0  0  2  0  0  0  0  0  0  0  0  0
    1.1230   20.1940   -1.9070 O   0  0  0  0  0  0  0  0  0  0  0  0
    0.3820   18.6530   -0.1650 C   0  0  0  0  0  0  0  0  0  0  0  0
   -0.8760   18.2140    0.6240 C   0  0  0  0  0  0  0  0  0  0  0  0
    1.2340   19.5040    0.8160 C   0  0  0  0  0  0  0  0  0  0  0  0
    1.1910   15.3560   -2.3830 C   0  0  1  0  0  0  0  0  0  0  0  0
    2.2260   15.7800   -3.4700 C   0  0  0  0  0  0  0  0  0  0  0  0
    0.1620   14.4030   -3.0980 C   0  0  0  0  0  0  0  0  0  0  0  0
   -0.5620   13.3710   -2.2110 C   0  0  0  0  0  0  0  0  0  0  0  0
    0.4350   12.6060   -1.3360 C   0  0  2  0  0  0  0  0  0  0  0  0
    1.3940   11.8110   -2.2860 C   0  0  0  0  0  0  0  0  0  0  0  0
   -2.5481   10.2373    0.2161 H   0  0  0  0  0  0  0  0  0  0  0  0
   -2.5823   11.1349   -1.3394 H   0  0  0  0  0  0  0  0  0  0  0  0
   -2.5483    9.3390   -1.3394 H   0  0  0  0  0  0  0  0  0  0  0  0
   -0.3400   10.1443   -1.8859 H   0  0  0  0  0  0  0  0  0  0  0  0
   -0.4454    9.1714    1.0021 H   0  0  0  0  0  0  0  0  0  0  0  0
   -0.3260    8.1820   -0.5307 H   0  0  0  0  0  0  0  0  0  0  0  0
    1.8878    8.8506   -0.9285 H   0  0  0  0  0  0  0  0  0  0  0  0
    1.7861   10.1819    0.2975 H   0  0  0  0  0  0  0  0  0  0  0  0
    1.4370    7.3922    0.6903 H   0  0  0  0  0  0  0  0  0  0  0  0
    4.8322    9.8753    2.0666 H   0  0  0  0  0  0  0  0  0  0  0  0
    5.1589    8.9044    0.5910 H   0  0  0  0  0  0  0  0  0  0  0  0
    3.8379   10.1216    0.5910 H   0  0  0  0  0  0  0  0  0  0  0  0
    3.9526    7.2337    3.4173 H   0  0  0  0  0  0  0  0  0  0  0  0
    3.4450    6.2301    2.0167 H   0  0  0  0  0  0  0  0  0  0  0  0
    5.0572    7.0222    2.0167 H   0  0  0  0  0  0  0  0  0  0  0  0
   -1.1020   12.0099    0.1001 H   0  0  0  0  0  0  0  0  0  0  0  0
    0.5783   11.4618    1.7460 H   0  0  0  0  0  0  0  0  0  0  0  0
    1.5138   10.4978    0.5829 H   0  0  0  0  0  0  0  0  0  0  0  0
    2.1848   13.1258    1.4825 H   0  0  0  0  0  0  0  0  0  0  0  0
    2.9002   12.3527    0.0705 H   0  0  0  0  0  0  0  0  0  0  0  0
    0.4803   14.1695    1.6277 H   0  0  0  0  0  0  0  0  0  0  0  0
    0.2853   15.4763    0.4107 H   0  0  0  0  0  0  0  0  0  0  0  0
   -0.8374   14.0740    0.4107 H   0  0  0  0  0  0  0  0  0  0  0  0
    2.7124   13.9379   -1.7497 H   0  0  0  0  0  0  0  0  0  0  0  0
    3.1605   15.1143    0.4977 H   0  0  0  0  0  0  0  0  0  0  0  0
    3.7310   15.8477   -1.0917 H   0  0  0  0  0  0  0  0  0  0  0  0
    2.6981   17.5208    0.6609 H   0  0  0  0  0  0  0  0  0  0  0  0
   -0.4982   16.1988   -1.4231 H   0  0  0  0  0  0  0  0  0  0  0  0
    0.9980   18.0316   -3.3974 H   0  0  0  0  0  0  0  0  0  0  0  0
   -0.5353   17.1038   -3.7141 H   0  0  0  0  0  0  0  0  0  0  0  0
   -0.9622   19.5034   -3.2949 H   0  0  0  0  0  0  0  0  0  0  0  0
   -1.7135   18.4243   -2.0549 H   0  0  0  0  0  0  0  0  0  0  0  0
   -0.7335   20.3117   -0.9418 H   0  0  0  0  0  0  0  0  0  0  0  0
    1.7710   19.4950   -2.1020 H   0  0  0  0  0  0  0  0  0  0  0  0
   -0.6750   18.2842    1.7032 H   0  0  0  0  0  0  0  0  0  0  0  0
   -1.7193   18.8710    0.3646 H   0  0  0  0  0  0  0  0  0  0  0  0
   -1.1274   17.1750    0.3646 H   0  0  0  0  0  0  0  0  0  0  0  0
    0.9717   19.2420    1.8516 H   0  0  0  0  0  0  0  0  0  0  0  0
    2.3016   19.3009    0.6456 H   0  0  0  0  0  0  0  0  0  0  0  0
    1.0321   20.5718    0.6456 H   0  0  0  0  0  0  0  0  0  0  0  0
    3.1382   16.1537   -2.9818 H   0  0  0  0  0  0  0  0  0  0  0  0
    2.4754   14.9116   -4.0974 H   0  0  0  0  0  0  0  0  0  0  0  0
    1.7944   16.5738   -4.0974 H   0  0  0  0  0  0  0  0  0  0  0  0
   -0.6060   15.0350   -3.5678 H   0  0  0  0  0  0  0  0  0  0  0  0
    0.7623   13.8072   -3.8013 H   0  0  0  0  0  0  0  0  0  0  0  0
   -1.2814   13.8942   -1.5639 H   0  0  0  0  0  0  0  0  0  0  0  0
   -1.0818   12.6522   -2.8615 H   0  0  0  0  0  0  0  0  0  0  0  0
    2.1026   11.2236   -1.6837 H   0  0  0  0  0  0  0  0  0  0  0  0
    0.8032   11.1342   -2.9207 H   0  0  0  0  0  0  0  0  0  0  0  0
    1.9496   12.5171   -2.9207 H   0  0  0  0  0  0  0  0  0  0  0  0
  1  2  1  0
  2  3  1  0
  3  4  1  0
  4  5  1  0
  5  6  1  0
  6  7  1  0
  7  8  1  0
  7  9  1  0
  2 10  1  0
 10 11  1  0
 11 12  1  0
 12 13  1  0
 13 14  1  1
 13 15  1  0
 15 16  1  0
 16 17  1  0
 17 18  2  0
 18 19  1  0
 19 20  1  0
 20 21  1  0
 21 22  1  0
 22 23  1  0
 22 24  1  0
 24 25  1  0
 24 26  1  0
 19 27  1  0
 27 28  1  6
 27 29  1  0
 29 30  1  0
 30 31  1  0
 31 32  1  6
  7  5  1  0
 31 10  1  0
 31 13  1  0
 27 15  1  0
 24 18  1  0
  1 33  1  0
  1 34  1  0
  1 35  1  0
  2 36  1  6
  3 37  1  0
  3 38  1  0
  4 39  1  0
  4 40  1  0
  5 41  1  1
  8 42  1  0
  8 43  1  0
  8 44  1  0
  9 45  1  0
  9 46  1  0
  9 47  1  0
 10 48  1  1
 11 49  1  0
 11 50  1  0
 12 51  1  0
 12 52  1  0
 14 53  1  0
 14 54  1  0
 14 55  1  0
 15 56  1  6
 16 57  1  0
 16 58  1  0
 17 59  1  0
 19 60  1  1
 20 61  1  0
 20 62  1  0
 21 63  1  0
 21 64  1  0
 22 65  1  1
 23 66  1  0
 25 67  1  0
 25 68  1  0
 25 69  1  0
 26 70  1  0
 26 71  1  0
 26 72  1  0
 28 73  1  0
 28 74  1  0
 28 75  1  0
 29 76  1  0
 29 77  1  0
 30 78  1  0
 30 79  1  0
 32 80  1  0
 32 81  1  0
 32 82  1  0
M  END
>  <meeko>  (10) 
{"is_sidechain": [false], "intermolecular_energy": 2.731, "internal_energy": -0.839}

$$$$
EPH_relaxed_0001_pdb2pqr_Repair_414_r2_0001_out
     RDKit          3D

 82 86  0  0  0  0  0  0  0  0999 V2000
   -0.3580   14.6860   -4.3420 C   0  0  0  0  0  0  0  0  0  0  0  0
    1.0660   14.1230   -4.3340 C   0  0  2  0  0  0  0  0  0  0  0  0
    1.2100   12.8960   -5.2570 C   0  0  0  0  0  0  0  0  0  0  0  0
    2.6470   12.6420   -5.7210 C   0  0  0  0  0  0  0  0  0  0  0  0
    3.2180   11.4020   -5.1020 C   0  0  2  0  0  0  0  0  0  0  0  0
    3.7130   11.5720   -3.7680 O   0  0  0  0  0  0  0  0  0  0  0  0
    4.6880   11.2350   -4.7670 C   0  0  0  0  0  0  0  0  0  0  0  0
    5.6790   12.3220   -5.0410 C   0  0  0  0  0  0  0  0  0  0  0  0
    5.2380    9.8490   -4.6300 C   0  0  0  0  0  0  0  0  0  0  0  0
    1.4710   13.7550   -2.9110 C   0  0  1  0  0  0  0  0  0  0  0  0
    1.3850   14.9580   -1.9350 C   0  0  0  0  0  0  0  0  0  0  0  0
    0.9370   14.3910   -0.5640 C   0  0  0  0  0  0  0  0  0  0  0  0
    1.1000   12.8590   -0.7030 C   0  0  1  0  0  0  0  0  0  0  0  0
    2.6190   12.5940   -0.4580 C   0  0  0  0  0  0  0  0  0  0  0  0
    0.2030   11.9810    0.2290 C   0  0  2  0  0  0  0  0  0  0  0  0
    0.4550   12.1610    1.7360 C   0  0  0  0  0  0  0  0  0  0  0  0
    1.4760   11.2460    2.3260 C   0  0  0  0  0  0  0  0  0  0  0  0
    1.9570   10.1320    1.7440 C   0  0  0  0  0  0  0  0  0  0  0  0
    1.3980    9.6390    0.4030 C   0  0  1  0  0  0  0  0  0  0  0  0
    1.1270    8.1140    0.4840 C   0  0  0  0  0  0  0  0  0  0  0  0
    2.3540    7.3250    0.9300 C   0  0  0  0  0  0  0  0  0  0  0  0
    2.8450    7.8040    2.2940 C   0  0  2  0  0  0  0  0  0  0  0  0
    1.8610    7.4780    3.2790 O   0  0  0  0  0  0  0  0  0  0  0  0
    3.1420    9.3300    2.3360 C   0  0  0  0  0  0  0  0  0  0  0  0
    4.4060    9.6370    1.4950 C   0  0  0  0  0  0  0  0  0  0  0  0
    3.4920    9.7070    3.8010 C   0  0  0  0  0  0  0  0  0  0  0  0
    0.1570   10.4500   -0.1700 C   0  0  1  0  0  0  0  0  0  0  0  0
   -1.1700    9.8770    0.4150 C   0  0  0  0  0  0  0  0  0  0  0  0
    0.0820   10.2400   -1.7290 C   0  0  0  0  0  0  0  0  0  0  0  0
    0.8960   11.2150   -2.6010 C   0  0  0  0  0  0  0  0  0  0  0  0
    0.6340   12.6670   -2.1920 C   0  0  2  0  0  0  0  0  0  0  0  0
   -0.8820   12.9700   -2.4480 C   0  0  0  0  0  0  0  0  0  0  0  0
   -0.7040   14.8228   -3.3068 H   0  0  0  0  0  0  0  0  0  0  0  0
   -0.3662   15.6551   -4.8625 H   0  0  0  0  0  0  0  0  0  0  0  0
   -1.0267   13.9846   -4.8625 H   0  0  0  0  0  0  0  0  0  0  0  0
    1.7345   14.9067   -4.7199 H   0  0  0  0  0  0  0  0  0  0  0  0
    0.8587   12.0077   -4.7116 H   0  0  0  0  0  0  0  0  0  0  0  0
    0.6117   13.0984   -6.1576 H   0  0  0  0  0  0  0  0  0  0  0  0
    2.6538   12.5299   -6.8153 H   0  0  0  0  0  0  0  0  0  0  0  0
    3.2646   13.4970   -5.4087 H   0  0  0  0  0  0  0  0  0  0  0  0
    2.5120   10.7700   -5.6607 H   0  0  0  0  0  0  0  0  0  0  0  0
    6.0498   12.7287   -4.0886 H   0  0  0  0  0  0  0  0  0  0  0  0
    6.5216   11.9131   -5.6179 H   0  0  0  0  0  0  0  0  0  0  0  0
    5.1942   13.1233   -5.6179 H   0  0  0  0  0  0  0  0  0  0  0  0
    5.3377    9.5978   -3.5637 H   0  0  0  0  0  0  0  0  0  0  0  0
    4.5554    9.1342   -5.1128 H   0  0  0  0  0  0  0  0  0  0  0  0
    6.2250    9.7968   -5.1128 H   0  0  0  0  0  0  0  0  0  0  0  0
    2.4889   13.3831   -3.0997 H   0  0  0  0  0  0  0  0  0  0  0  0
    2.3688   15.4411   -1.8418 H   0  0  0  0  0  0  0  0  0  0  0  0
    0.6741   15.7133   -2.3011 H   0  0  0  0  0  0  0  0  0  0  0  0
    1.5759   14.7778    0.2436 H   0  0  0  0  0  0  0  0  0  0  0  0
   -0.0937   14.6794   -0.3101 H   0  0  0  0  0  0  0  0  0  0  0  0
    2.8154   12.5597    0.6238 H   0  0  0  0  0  0  0  0  0  0  0  0
    2.9015   11.6330   -0.9126 H   0  0  0  0  0  0  0  0  0  0  0  0
    3.2103   13.4026   -0.9126 H   0  0  0  0  0  0  0  0  0  0  0  0
   -0.8010   12.3901    0.0429 H   0  0  0  0  0  0  0  0  0  0  0  0
    0.7888   13.1957    1.9035 H   0  0  0  0  0  0  0  0  0  0  0  0
   -0.4951   11.9181    2.2343 H   0  0  0  0  0  0  0  0  0  0  0  0
    1.8685   11.5040    3.3207 H   0  0  0  0  0  0  0  0  0  0  0  0
    2.1794    9.8394   -0.3448 H   0  0  0  0  0  0  0  0  0  0  0  0
    0.3138    7.9380    1.2036 H   0  0  0  0  0  0  0  0  0  0  0  0
    0.8565    7.7688   -0.5248 H   0  0  0  0  0  0  0  0  0  0  0  0
    2.0919    6.2587    0.9959 H   0  0  0  0  0  0  0  0  0  0  0  0
    3.1569    7.4791    0.1940 H   0  0  0  0  0  0  0  0  0  0  0  0
    3.7970    7.2930    2.5004 H   0  0  0  0  0  0  0  0  0  0  0  0
    2.1040    7.9360    4.1010 H   0  0  0  0  0  0  0  0  0  0  0  0
    5.2524    9.8426    2.1668 H   0  0  0  0  0  0  0  0  0  0  0  0
    4.6436    8.7705    0.8605 H   0  0  0  0  0  0  0  0  0  0  0  0
    4.2196   10.5160    0.8605 H   0  0  0  0  0  0  0  0  0  0  0  0
    2.9089    9.0789    4.4906 H   0  0  0  0  0  0  0  0  0  0  0  0
    4.5658    9.5435    3.9752 H   0  0  0  0  0  0  0  0  0  0  0  0
    3.2493   10.7657    3.9752 H   0  0  0  0  0  0  0  0  0  0  0  0
   -1.1248    9.8965    1.5139 H   0  0  0  0  0  0  0  0  0  0  0  0
   -2.0167   10.4897    0.0719 H   0  0  0  0  0  0  0  0  0  0  0  0
   -1.3046    8.8406    0.0719 H   0  0  0  0  0  0  0  0  0  0  0  0
    0.4393    9.2224   -1.9453 H   0  0  0  0  0  0  0  0  0  0  0  0
   -0.9693   10.4255   -1.9943 H   0  0  0  0  0  0  0  0  0  0  0  0
    1.9673   10.9955   -2.4819 H   0  0  0  0  0  0  0  0  0  0  0  0
    0.5903   11.0858   -3.6497 H   0  0  0  0  0  0  0  0  0  0  0  0
   -1.4029   13.0741   -1.4847 H   0  0  0  0  0  0  0  0  0  0  0  0
   -0.9776   13.9050   -3.0195 H   0  0  0  0  0  0  0  0  0  0  0  0
   -1.3297   12.1436   -3.0195 H   0  0  0  0  0  0  0  0  0  0  0  0
  1  2  1  0
  2  3  1  0
  3  4  1  0
  4  5  1  0
  5  6  1  0
  6  7  1  0
  7  8  1  0
  7  9  1  0
  2 10  1  0
 10 11  1  0
 11 12  1  0
 12 13  1  0
 13 14  1  6
 13 15  1  0
 15 16  1  0
 16 17  1  0
 17 18  2  0
 18 19  1  0
 19 20  1  0
 20 21  1  0
 21 22  1  0
 22 23  1  0
 22 24  1  0
 24 25  1  0
 24 26  1  0
 19 27  1  0
 27 28  1  1
 27 29  1  0
 29 30  1  0
 30 31  1  0
 31 32  1  1
  7  5  1  0
 31 10  1  0
 31 13  1  0
 27 15  1  0
 24 18  1  0
  1 33  1  0
  1 34  1  0
  1 35  1  0
  2 36  1  6
  3 37  1  0
  3 38  1  0
  4 39  1  0
  4 40  1  0
  5 41  1  1
  8 42  1  0
  8 43  1  0
  8 44  1  0
  9 45  1  0
  9 46  1  0
  9 47  1  0
 10 48  1  6
 11 49  1  0
 11 50  1  0
 12 51  1  0
 12 52  1  0
 14 53  1  0
 14 54  1  0
 14 55  1  0
 15 56  1  1
 16 57  1  0
 16 58  1  0
 17 59  1  0
 19 60  1  6
 20 61  1  0
 20 62  1  0
 21 63  1  0
 21 64  1  0
 22 65  1  1
 23 66  1  0
 25 67  1  0
 25 68  1  0
 25 69  1  0
 26 70  1  0
 26 71  1  0
 26 72  1  0
 28 73  1  0
 28 74  1  0
 28 75  1  0
 29 76  1  0
 29 77  1  0
 30 78  1  0
 30 79  1  0
 32 80  1  0
 32 81  1  0
 32 82  1  0
M  END
>  <meeko>  (11) 
{"is_sidechain": [false], "intermolecular_energy": 2.731, "internal_energy": -0.839}

$$$$
EPH_relaxed_0001_pdb2pqr_Repair_414_r2_0001_out
     RDKit          3D

 82 86  0  0  0  0  0  0  0  0999 V2000
   -5.1990    5.9040   -1.3770 C   0  0  0  0  0  0  0  0  0  0  0  0
   -5.4170    7.3880   -1.6850 C   0  0  2  0  0  0  0  0  0  0  0  0
   -5.1330    8.2820   -0.4610 C   0  0  0  0  0  0  0  0  0  0  0  0
   -4.0990    9.3790   -0.7290 C   0  0  0  0  0  0  0  0  0  0  0  0
   -2.7100    8.9260   -0.3920 C   0  0  2  0  0  0  0  0  0  0  0  0
   -2.0960    9.6360    0.6920 O   0  0  0  0  0  0  0  0  0  0  0  0
   -1.4770    9.7860   -0.5960 C   0  0  0  0  0  0  0  0  0  0  0  0
   -1.5750   11.1690   -1.1610 C   0  0  0  0  0  0  0  0  0  0  0  0
   -0.1450    9.1120   -0.7080 C   0  0  0  0  0  0  0  0  0  0  0  0
   -6.8430    7.6130   -2.1740 C   0  0  1  0  0  0  0  0  0  0  0  0
   -7.1220    6.9280   -3.5390 C   0  0  0  0  0  0  0  0  0  0  0  0
   -8.5960    6.4490   -3.5060 C   0  0  0  0  0  0  0  0  0  0  0  0
   -9.2090    7.1580   -2.2760 C   0  0  1  0  0  0  0  0  0  0  0  0
   -9.5550    8.5970   -2.7740 C   0  0  0  0  0  0  0  0  0  0  0  0
  -10.4460    6.4610   -1.6220 C   0  0  2  0  0  0  0  0  0  0  0  0
  -11.6820    6.3380   -2.5300 C   0  0  0  0  0  0  0  0  0  0  0  0
  -12.6420    7.4800   -2.4580 C   0  0  0  0  0  0  0  0  0  0  0  0
  -12.6670    8.4210   -1.4960 C   0  0  0  0  0  0  0  0  0  0  0  0
  -11.7260    8.3380   -0.2870 C   0  0  1  0  0  0  0  0  0  0  0  0
  -12.5280    8.6040    1.0130 C   0  0  0  0  0  0  0  0  0  0  0  0
  -13.3010    9.9180    0.9650 C   0  0  0  0  0  0  0  0  0  0  0  0
  -14.2680    9.9390   -0.2160 C   0  0  2  0  0  0  0  0  0  0  0  0
  -15.2870    8.9590    0.0050 O   0  0  0  0  0  0  0  0  0  0  0  0
  -13.5750    9.6730   -1.5810 C   0  0  0  0  0  0  0  0  0  0  0  0
  -12.6930   10.8880   -1.9620 C   0  0  0  0  0  0  0  0  0  0  0  0
  -14.6790    9.5810   -2.6680 C   0  0  0  0  0  0  0  0  0  0  0  0
  -10.8300    7.0280   -0.1950 C   0  0  1  0  0  0  0  0  0  0  0  0
  -11.6160    5.8970    0.5370 C   0  0  0  0  0  0  0  0  0  0  0  0
   -9.5630    7.3330    0.6890 C   0  0  0  0  0  0  0  0  0  0  0  0
   -8.3330    7.9090   -0.0360 C   0  0  0  0  0  0  0  0  0  0  0  0
   -7.9940    7.0840   -1.2820 C   0  0  2  0  0  0  0  0  0  0  0  0
   -7.6200    5.6380   -0.8100 C   0  0  0  0  0  0  0  0  0  0  0  0
   -5.1771    5.7550   -0.2874 H   0  0  0  0  0  0  0  0  0  0  0  0
   -6.0202    5.3149   -1.8112 H   0  0  0  0  0  0  0  0  0  0  0  0
   -4.2430    5.5760   -1.8112 H   0  0  0  0  0  0  0  0  0  0  0  0
   -4.7044    7.6710   -2.4737 H   0  0  0  0  0  0  0  0  0  0  0  0
   -6.0749    8.7597   -0.1534 H   0  0  0  0  0  0  0  0  0  0  0  0
   -4.7175    7.6322    0.3233 H   0  0  0  0  0  0  0  0  0  0  0  0
   -4.1365    9.6517   -1.7940 H   0  0  0  0  0  0  0  0  0  0  0  0
   -4.3421   10.2424   -0.0922 H   0  0  0  0  0  0  0  0  0  0  0  0
   -2.9478    7.8947   -0.6919 H   0  0  0  0  0  0  0  0  0  0  0  0
   -1.6267   11.8981   -0.3390 H   0  0  0  0  0  0  0  0  0  0  0  0
   -0.6893   11.3760   -1.7796 H   0  0  0  0  0  0  0  0  0  0  0  0
   -2.4811   11.2490   -1.7796 H   0  0  0  0  0  0  0  0  0  0  0  0
    0.2505    8.9119    0.2988 H   0  0  0  0  0  0  0  0  0  0  0  0
   -0.2589    8.1630   -1.2525 H   0  0  0  0  0  0  0  0  0  0  0  0
    0.5521    9.7658   -1.2525 H   0  0  0  0  0  0  0  0  0  0  0  0
   -6.8583    8.7127   -2.1945 H   0  0  0  0  0  0  0  0  0  0  0  0
   -6.9751    7.6454   -4.3599 H   0  0  0  0  0  0  0  0  0  0  0  0
   -6.4361    6.0842   -3.7050 H   0  0  0  0  0  0  0  0  0  0  0  0
   -9.1211    6.7446   -4.4263 H   0  0  0  0  0  0  0  0  0  0  0  0
   -8.6775    5.3540   -3.4399 H   0  0  0  0  0  0  0  0  0  0  0  0
   -9.7136    9.2565   -1.9080 H   0  0  0  0  0  0  0  0  0  0  0  0
   -8.7243    8.9841   -3.3824 H   0  0  0  0  0  0  0  0  0  0  0  0
  -10.4708    8.5641   -3.3824 H   0  0  0  0  0  0  0  0  0  0  0  0
  -10.0846    5.4332   -1.4702 H   0  0  0  0  0  0  0  0  0  0  0  0
  -11.3330    6.2522   -3.5696 H   0  0  0  0  0  0  0  0  0  0  0  0
  -12.2330    5.4541   -2.1763 H   0  0  0  0  0  0  0  0  0  0  0  0
  -13.3919    7.5586   -3.2589 H   0  0  0  0  0  0  0  0  0  0  0  0
  -10.9759    9.1297   -0.4303 H   0  0  0  0  0  0  0  0  0  0  0  0
  -13.2417    7.7803    1.1618 H   0  0  0  0  0  0  0  0  0  0  0  0
  -11.8078    8.6704    1.8418 H   0  0  0  0  0  0  0  0  0  0  0  0
  -13.8705   10.0350    1.8988 H   0  0  0  0  0  0  0  0  0  0  0  0
  -12.5836   10.7434    0.8462 H   0  0  0  0  0  0  0  0  0  0  0  0
  -14.6954   10.9509   -0.2737 H   0  0  0  0  0  0  0  0  0  0  0  0
  -15.9210    9.0230   -0.7290 H   0  0  0  0  0  0  0  0  0  0  0  0
  -12.3344   11.3820   -1.0470 H   0  0  0  0  0  0  0  0  0  0  0  0
  -11.8323   10.5448   -2.5548 H   0  0  0  0  0  0  0  0  0  0  0  0
  -13.2860   11.6000   -2.5548 H   0  0  0  0  0  0  0  0  0  0  0  0
  -15.6636    9.4989   -2.1845 H   0  0  0  0  0  0  0  0  0  0  0  0
  -14.6525   10.4845   -3.2949 H   0  0  0  0  0  0  0  0  0  0  0  0
  -14.5033    8.6944   -3.2949 H   0  0  0  0  0  0  0  0  0  0  0  0
  -11.5230    6.0308    1.6249 H   0  0  0  0  0  0  0  0  0  0  0  0
  -12.6772    5.9438    0.2512 H   0  0  0  0  0  0  0  0  0  0  0  0
  -11.2021    4.9187    0.2512 H   0  0  0  0  0  0  0  0  0  0  0  0
   -9.8627    8.0562    1.4618 H   0  0  0  0  0  0  0  0  0  0  0  0
   -9.2384    6.3550    1.0739 H   0  0  0  0  0  0  0  0  0  0  0  0
   -8.5457    8.9452   -0.3376 H   0  0  0  0  0  0  0  0  0  0  0  0
   -7.4742    7.8761    0.6505 H   0  0  0  0  0  0  0  0  0  0  0  0
   -7.6107    5.6021    0.2894 H   0  0  0  0  0  0  0  0  0  0  0  0
   -8.3629    4.9233   -1.1940 H   0  0  0  0  0  0  0  0  0  0  0  0
   -6.6238    5.3731   -1.1940 H   0  0  0  0  0  0  0  0  0  0  0  0
  1  2  1  0
  2  3  1  0
  3  4  1  0
  4  5  1  0
  5  6  1  0
  6  7  1  0
  7  8  1  0
  7  9  1  0
  2 10  1  0
 10 11  1  0
 11 12  1  0
 12 13  1  0
 13 14  1  6
 13 15  1  0
 15 16  1  0
 16 17  1  0
 17 18  2  0
 18 19  1  0
 19 20  1  0
 20 21  1  0
 21 22  1  0
 22 23  1  0
 22 24  1  0
 24 25  1  0
 24 26  1  0
 19 27  1  0
 27 28  1  1
 27 29  1  0
 29 30  1  0
 30 31  1  0
 31 32  1  1
  7  5  1  0
 31 10  1  0
 31 13  1  0
 27 15  1  0
 24 18  1  0
  1 33  1  0
  1 34  1  0
  1 35  1  0
  2 36  1  6
  3 37  1  0
  3 38  1  0
  4 39  1  0
  4 40  1  0
  5 41  1  1
  8 42  1  0
  8 43  1  0
  8 44  1  0
  9 45  1  0
  9 46  1  0
  9 47  1  0
 10 48  1  6
 11 49  1  0
 11 50  1  0
 12 51  1  0
 12 52  1  0
 14 53  1  0
 14 54  1  0
 14 55  1  0
 15 56  1  1
 16 57  1  0
 16 58  1  0
 17 59  1  0
 19 60  1  6
 20 61  1  0
 20 62  1  0
 21 63  1  0
 21 64  1  0
 22 65  1  6
 23 66  1  0
 25 67  1  0
 25 68  1  0
 25 69  1  0
 26 70  1  0
 26 71  1  0
 26 72  1  0
 28 73  1  0
 28 74  1  0
 28 75  1  0
 29 76  1  0
 29 77  1  0
 30 78  1  0
 30 79  1  0
 32 80  1  0
 32 81  1  0
 32 82  1  0
M  END
>  <meeko>  (12) 
{"is_sidechain": [false], "intermolecular_energy": 2.731, "internal_energy": -0.839}

$$$$
EPH_relaxed_0001_pdb2pqr_Repair_414_r2_0001_out
     RDKit          3D

 82 86  0  0  0  0  0  0  0  0999 V2000
    2.3590   12.4970   -5.2170 C   0  0  0  0  0  0  0  0  0  0  0  0
    1.0000   13.1560   -4.9690 C   0  0  2  0  0  0  0  0  0  0  0  0
    0.9680   14.6210   -5.4490 C   0  0  0  0  0  0  0  0  0  0  0  0
    0.4360   15.6010   -4.4000 C   0  0  0  0  0  0  0  0  0  0  0  0
    1.5340   16.1350   -3.5320 C   0  0  2  0  0  0  0  0  0  0  0  0
    1.3070   15.9930   -2.1230 O   0  0  0  0  0  0  0  0  0  0  0  0
    1.3720   17.3390   -2.6220 C   0  0  0  0  0  0  0  0  0  0  0  0
    0.0760   18.0820   -2.5360 C   0  0  0  0  0  0  0  0  0  0  0  0
    2.5980   18.0830   -2.1930 C   0  0  0  0  0  0  0  0  0  0  0  0
    0.6520   13.0860   -3.4860 C   0  0  1  0  0  0  0  0  0  0  0  0
   -0.8190   13.4910   -3.1980 C   0  0  0  0  0  0  0  0  0  0  0  0
   -1.3020   12.6080   -2.0190 C   0  0  0  0  0  0  0  0  0  0  0  0
   -0.0120   11.9690   -1.4550 C   0  0  1  0  0  0  0  0  0  0  0  0
    0.6130   13.0690   -0.5400 C   0  0  0  0  0  0  0  0  0  0  0  0
   -0.1870   10.6160   -0.6930 C   0  0  2  0  0  0  0  0  0  0  0  0
   -1.0510   10.6900    0.5780 C   0  0  0  0  0  0  0  0  0  0  0  0
   -0.3070   10.9800    1.8390 C   0  0  0  0  0  0  0  0  0  0  0  0
    1.0260   10.8930    1.9980 C   0  0  0  0  0  0  0  0  0  0  0  0
    1.9220   10.3730    0.8670 C   0  0  1  0  0  0  0  0  0  0  0  0
    2.9280    9.3390    1.4370 C   0  0  0  0  0  0  0  0  0  0  0  0
    3.7320    9.8890    2.6110 C   0  0  0  0  0  0  0  0  0  0  0  0
    2.8090   10.3430    3.7390 C   0  0  2  0  0  0  0  0  0  0  0  0
    2.1560    9.1940    4.2890 O   0  0  0  0  0  0  0  0  0  0  0  0
    1.7450   11.3790    3.2810 C   0  0  0  0  0  0  0  0  0  0  0  0
    2.4360   12.7300    2.9690 C   0  0  0  0  0  0  0  0  0  0  0  0
    0.7920   11.6450    4.4770 C   0  0  0  0  0  0  0  0  0  0  0  0
    1.1670    9.8410   -0.4270 C   0  0  1  0  0  0  0  0  0  0  0  0
    0.7920    8.3390   -0.2440 C   0  0  0  0  0  0  0  0  0  0  0  0
    2.1460    9.9080   -1.6580 C   0  0  0  0  0  0  0  0  0  0  0  0
    2.1860   11.2330   -2.4420 C   0  0  0  0  0  0  0  0  0  0  0  0
    0.7720   11.7070   -2.7920 C   0  0  2  0  0  0  0  0  0  0  0  0
    0.1260   10.6310   -3.7300 C   0  0  0  0  0  0  0  0  0  0  0  0
    2.8358   12.2658   -4.2530 H   0  0  0  0  0  0  0  0  0  0  0  0
    2.2171   11.5676   -5.7881 H   0  0  0  0  0  0  0  0  0  0  0  0
    3.0008   13.1839   -5.7881 H   0  0  0  0  0  0  0  0  0  0  0  0
    0.2515   12.6012   -5.5538 H   0  0  0  0  0  0  0  0  0  0  0  0
    1.9918   14.9211   -5.7169 H   0  0  0  0  0  0  0  0  0  0  0  0
    0.2802   14.6633   -6.3064 H   0  0  0  0  0  0  0  0  0  0  0  0
   -0.0531   16.4419   -4.9136 H   0  0  0  0  0  0  0  0  0  0  0  0
   -0.2766   15.0622   -3.7582 H   0  0  0  0  0  0  0  0  0  0  0  0
    2.2888   15.8795   -4.2903 H   0  0  0  0  0  0  0  0  0  0  0  0
   -0.1899   18.2344   -1.4795 H   0  0  0  0  0  0  0  0  0  0  0  0
    0.1793   19.0581   -3.0326 H   0  0  0  0  0  0  0  0  0  0  0  0
   -0.7141   17.4997   -3.0326 H   0  0  0  0  0  0  0  0  0  0  0  0
    2.6442   18.1110   -1.0943 H   0  0  0  0  0  0  0  0  0  0  0  0
    3.4913   17.5745   -2.5847 H   0  0  0  0  0  0  0  0  0  0  0  0
    2.5594   19.1102   -2.5847 H   0  0  0  0  0  0  0  0  0  0  0  0
    1.4099   13.7755   -3.0858 H   0  0  0  0  0  0  0  0  0  0  0  0
   -0.8722   14.5544   -2.9217 H   0  0  0  0  0  0  0  0  0  0  0  0
   -1.4507   13.3445   -4.0865 H   0  0  0  0  0  0  0  0  0  0  0  0
   -1.7985   13.2214   -1.2526 H   0  0  0  0  0  0  0  0  0  0  0  0
   -2.0363   11.8533   -2.3371 H   0  0  0  0  0  0  0  0  0  0  0  0
    0.4595   12.7989    0.5152 H   0  0  0  0  0  0  0  0  0  0  0  0
    1.6908   13.1478   -0.7453 H   0  0  0  0  0  0  0  0  0  0  0  0
    0.1290   14.0352   -0.7453 H   0  0  0  0  0  0  0  0  0  0  0  0
   -0.7629   10.0142   -1.4115 H   0  0  0  0  0  0  0  0  0  0  0  0
   -1.7991   11.4836    0.4346 H   0  0  0  0  0  0  0  0  0  0  0  0
   -1.4892    9.6893    0.7066 H   0  0  0  0  0  0  0  0  0  0  0  0
   -0.8988   11.2913    2.7124 H   0  0  0  0  0  0  0  0  0  0  0  0
    2.4650   11.2488    0.4822 H   0  0  0  0  0  0  0  0  0  0  0  0
    2.3696    8.4540    1.7761 H   0  0  0  0  0  0  0  0  0  0  0  0
    3.6380    9.0878    0.6353 H   0  0  0  0  0  0  0  0  0  0  0  0
    4.4020    9.1025    2.9885 H   0  0  0  0  0  0  0  0  0  0  0  0
    4.3138   10.7553    2.2631 H   0  0  0  0  0  0  0  0  0  0  0  0
    3.4317   10.8464    4.4932 H   0  0  0  0  0  0  0  0  0  0  0  0
    2.2490    8.4680    3.6500 H   0  0  0  0  0  0  0  0  0  0  0  0
    2.6947   13.2357    3.9110 H   0  0  0  0  0  0  0  0  0  0  0  0
    3.3516   12.5478    2.3872 H   0  0  0  0  0  0  0  0  0  0  0  0
    1.7524   13.3658    2.3872 H   0  0  0  0  0  0  0  0  0  0  0  0
    1.3366   11.4930    5.4206 H   0  0  0  0  0  0  0  0  0  0  0  0
    0.4235   12.6803    4.4290 H   0  0  0  0  0  0  0  0  0  0  0  0
   -0.0594   10.9502    4.4290 H   0  0  0  0  0  0  0  0  0  0  0  0
    0.7333    8.1038    0.8290 H   0  0  0  0  0  0  0  0  0  0  0  0
   -0.1823    8.1442   -0.7159 H   0  0  0  0  0  0  0  0  0  0  0  0
    1.5604    7.7091   -0.7159 H   0  0  0  0  0  0  0  0  0  0  0  0
    3.1622    9.7105   -1.2861 H   0  0  0  0  0  0  0  0  0  0  0  0
    1.7632    9.1630   -2.3711 H   0  0  0  0  0  0  0  0  0  0  0  0
    2.6806   11.9997   -1.8275 H   0  0  0  0  0  0  0  0  0  0  0  0
    2.7424   11.0703   -3.3769 H   0  0  0  0  0  0  0  0  0  0  0  0
   -0.3448    9.8469   -3.1188 H   0  0  0  0  0  0  0  0  0  0  0  0
   -0.6354   11.1076   -4.3649 H   0  0  0  0  0  0  0  0  0  0  0  0
    0.9046   10.1830   -4.3649 H   0  0  0  0  0  0  0  0  0  0  0  0
  1  2  1  0
  2  3  1  0
  3  4  1  0
  4  5  1  0
  5  6  1  0
  6  7  1  0
  7  8  1  0
  7  9  1  0
  2 10  1  0
 10 11  1  0
 11 12  1  0
 12 13  1  0
 13 14  1  1
 13 15  1  0
 15 16  1  0
 16 17  1  0
 17 18  2  0
 18 19  1  0
 19 20  1  0
 20 21  1  0
 21 22  1  0
 22 23  1  0
 22 24  1  0
 24 25  1  0
 24 26  1  0
 19 27  1  0
 27 28  1  1
 27 29  1  0
 29 30  1  0
 30 31  1  0
 31 32  1  6
  7  5  1  0
 31 10  1  0
 31 13  1  0
 27 15  1  0
 24 18  1  0
  1 33  1  0
  1 34  1  0
  1 35  1  0
  2 36  1  6
  3 37  1  0
  3 38  1  0
  4 39  1  0
  4 40  1  0
  5 41  1  6
  8 42  1  0
  8 43  1  0
  8 44  1  0
  9 45  1  0
  9 46  1  0
  9 47  1  0
 10 48  1  1
 11 49  1  0
 11 50  1  0
 12 51  1  0
 12 52  1  0
 14 53  1  0
 14 54  1  0
 14 55  1  0
 15 56  1  6
 16 57  1  0
 16 58  1  0
 17 59  1  0
 19 60  1  6
 20 61  1  0
 20 62  1  0
 21 63  1  0
 21 64  1  0
 22 65  1  1
 23 66  1  0
 25 67  1  0
 25 68  1  0
 25 69  1  0
 26 70  1  0
 26 71  1  0
 26 72  1  0
 28 73  1  0
 28 74  1  0
 28 75  1  0
 29 76  1  0
 29 77  1  0
 30 78  1  0
 30 79  1  0
 32 80  1  0
 32 81  1  0
 32 82  1  0
M  END
>  <meeko>  (13) 
{"is_sidechain": [false], "intermolecular_energy": 2.731, "internal_energy": -0.839}

$$$$
EPH_relaxed_0001_pdb2pqr_Repair_414_r2_0001_out
     RDKit          3D

 82 86  0  0  0  0  0  0  0  0999 V2000
    0.4230    8.8520   -2.5160 C   0  0  0  0  0  0  0  0  0  0  0  0
    1.1740   10.0100   -3.1800 C   0  0  2  0  0  0  0  0  0  0  0  0
    2.6710   10.0180   -2.8140 C   0  0  0  0  0  0  0  0  0  0  0  0
    3.5630   10.6550   -3.8830 C   0  0  0  0  0  0  0  0  0  0  0  0
    4.9560   10.8840   -3.3790 C   0  0  2  0  0  0  0  0  0  0  0  0
    5.5820   12.0760   -3.8710 O   0  0  0  0  0  0  0  0  0  0  0  0
    6.1860   10.8340   -4.2660 C   0  0  0  0  0  0  0  0  0  0  0  0
    6.0800   10.5450   -5.7300 C   0  0  0  0  0  0  0  0  0  0  0  0
    7.5170   10.5810   -3.6300 C   0  0  0  0  0  0  0  0  0  0  0  0
    0.5350   11.3370   -2.7870 C   0  0  1  0  0  0  0  0  0  0  0  0
   -0.8440   11.1540   -2.0970 C   0  0  0  0  0  0  0  0  0  0  0  0
   -0.9610   12.2720   -1.0290 C   0  0  0  0  0  0  0  0  0  0  0  0
    0.1900   13.2510   -1.3610 C   0  0  1  0  0  0  0  0  0  0  0  0
   -0.3570   14.1330   -2.5270 C   0  0  0  0  0  0  0  0  0  0  0  0
    0.7190   14.1230   -0.1760 C   0  0  2  0  0  0  0  0  0  0  0  0
   -0.3130   15.0880    0.4350 C   0  0  0  0  0  0  0  0  0  0  0  0
   -0.3550   16.4480   -0.1790 C   0  0  0  0  0  0  0  0  0  0  0  0
    0.5890   16.9730   -0.9820 C   0  0  0  0  0  0  0  0  0  0  0  0
    1.8900   16.2140   -1.2700 C   0  0  1  0  0  0  0  0  0  0  0  0
    3.0970   17.1770   -1.1180 C   0  0  0  0  0  0  0  0  0  0  0  0
    2.9540   18.4330   -1.9720 C   0  0  0  0  0  0  0  0  0  0  0  0
    1.6780   19.1920   -1.6160 C   0  0  2  0  0  0  0  0  0  0  0  0
    1.8010   19.7040   -0.2860 O   0  0  0  0  0  0  0  0  0  0  0  0
    0.3960   18.3190   -1.7240 C   0  0  0  0  0  0  0  0  0  0  0  0
    0.0960   18.0160   -3.2130 C   0  0  0  0  0  0  0  0  0  0  0  0
   -0.8000   19.1620   -1.2030 C   0  0  0  0  0  0  0  0  0  0  0  0
    2.0910   14.8540   -0.4710 C   0  0  1  0  0  0  0  0  0  0  0  0
    2.7480   15.1420    0.9130 C   0  0  0  0  0  0  0  0  0  0  0  0
    3.0990   13.9380   -1.2600 C   0  0  0  0  0  0  0  0  0  0  0  0
    2.5010   13.0120   -2.3360 C   0  0  0  0  0  0  0  0  0  0  0  0
    1.3070   12.2280   -1.7820 C   0  0  2  0  0  0  0  0  0  0  0  0
    1.8310   11.3150   -0.6220 C   0  0  0  0  0  0  0  0  0  0  0  0
    0.4879    8.9520   -1.4225 H   0  0  0  0  0  0  0  0  0  0  0  0
   -0.6327    8.8749   -2.8243 H   0  0  0  0  0  0  0  0  0  0  0  0
    0.8744    7.8975   -2.8243 H   0  0  0  0  0  0  0  0  0  0  0  0
    1.1015    9.8698   -4.2686 H   0  0  0  0  0  0  0  0  0  0  0  0
    2.7963   10.5804   -1.8770 H   0  0  0  0  0  0  0  0  0  0  0  0
    2.9840    8.9678   -2.7185 H   0  0  0  0  0  0  0  0  0  0  0  0
    3.6052    9.9873   -4.7561 H   0  0  0  0  0  0  0  0  0  0  0  0
    3.1315   11.6302   -4.1527 H   0  0  0  0  0  0  0  0  0  0  0  0
    4.7155   10.3956   -2.4231 H   0  0  0  0  0  0  0  0  0  0  0  0
    5.7045    9.5213   -5.8754 H   0  0  0  0  0  0  0  0  0  0  0  0
    5.3855   11.2599   -6.1955 H   0  0  0  0  0  0  0  0  0  0  0  0
    7.0720   10.6413   -6.1955 H   0  0  0  0  0  0  0  0  0  0  0  0
    7.4101   10.6013   -2.5354 H   0  0  0  0  0  0  0  0  0  0  0  0
    7.8918    9.5955   -3.9436 H   0  0  0  0  0  0  0  0  0  0  0  0
    8.2273   11.3602   -3.9436 H   0  0  0  0  0  0  0  0  0  0  0  0
    0.5002   11.8245   -3.7725 H   0  0  0  0  0  0  0  0  0  0  0  0
   -1.6531   11.2498   -2.8360 H   0  0  0  0  0  0  0  0  0  0  0  0
   -0.9268   10.1581   -1.6373 H   0  0  0  0  0  0  0  0  0  0  0  0
   -1.9348   12.7784   -1.1021 H   0  0  0  0  0  0  0  0  0  0  0  0
   -0.8915   11.8787   -0.0041 H   0  0  0  0  0  0  0  0  0  0  0  0
   -0.8938   14.9985   -2.1114 H   0  0  0  0  0  0  0  0  0  0  0  0
    0.4819   14.4844   -3.1457 H   0  0  0  0  0  0  0  0  0  0  0  0
   -1.0446   13.5376   -3.1457 H   0  0  0  0  0  0  0  0  0  0  0  0
    0.9199   13.3699    0.6002 H   0  0  0  0  0  0  0  0  0  0  0  0
   -1.3092   14.6345    0.3253 H   0  0  0  0  0  0  0  0  0  0  0  0
   -0.0094   15.2357    1.4819 H   0  0  0  0  0  0  0  0  0  0  0  0
   -1.2316   17.0741    0.0437 H   0  0  0  0  0  0  0  0  0  0  0  0
    1.8160   15.8698   -2.3122 H   0  0  0  0  0  0  0  0  0  0  0  0
    3.1792   17.4757   -0.0625 H   0  0  0  0  0  0  0  0  0  0  0  0
    3.9960   16.6422   -1.4584 H   0  0  0  0  0  0  0  0  0  0  0  0
    3.8218   19.0866   -1.7993 H   0  0  0  0  0  0  0  0  0  0  0  0
    2.9018   18.1347   -3.0295 H   0  0  0  0  0  0  0  0  0  0  0  0
    1.5649   20.0073   -2.3457 H   0  0  0  0  0  0  0  0  0  0  0  0
    1.5450   20.6410   -0.3060 H   0  0  0  0  0  0  0  0  0  0  0  0
   -0.6765   17.2358   -3.2800 H   0  0  0  0  0  0  0  0  0  0  0  0
   -0.2625   18.9304   -3.7083 H   0  0  0  0  0  0  0  0  0  0  0  0
    1.0140   17.6666   -3.7083 H   0  0  0  0  0  0  0  0  0  0  0  0
   -0.7980   19.1606   -0.1030 H   0  0  0  0  0  0  0  0  0  0  0  0
   -0.7071   20.1953   -1.5685 H   0  0  0  0  0  0  0  0  0  0  0  0
   -1.7419   18.7271   -1.5685 H   0  0  0  0  0  0  0  0  0  0  0  0
    2.0592   14.8401    1.7158 H   0  0  0  0  0  0  0  0  0  0  0  0
    3.6848   14.5720    0.9999 H   0  0  0  0  0  0  0  0  0  0  0  0
    2.9636   16.2172    0.9999 H   0  0  0  0  0  0  0  0  0  0  0  0
    3.8285   14.5957   -1.7552 H   0  0  0  0  0  0  0  0  0  0  0  0
    3.5257   13.2623   -0.5041 H   0  0  0  0  0  0  0  0  0  0  0  0
    2.1673   13.6205   -3.1895 H   0  0  0  0  0  0  0  0  0  0  0  0
    3.2743   12.2965   -2.6525 H   0  0  0  0  0  0  0  0  0  0  0  0
    1.5714   11.7674    0.3465 H   0  0  0  0  0  0  0  0  0  0  0  0
    1.3658   10.3212   -0.6989 H   0  0  0  0  0  0  0  0  0  0  0  0
    2.9238   11.2153   -0.6989 H   0  0  0  0  0  0  0  0  0  0  0  0
  1  2  1  0
  2  3  1  0
  3  4  1  0
  4  5  1  0
  5  6  1  0
  6  7  1  0
  7  8  1  0
  7  9  1  0
  2 10  1  0
 10 11  1  0
 11 12  1  0
 12 13  1  0
 13 14  1  6
 13 15  1  0
 15 16  1  0
 16 17  1  0
 17 18  2  0
 18 19  1  0
 19 20  1  0
 20 21  1  0
 21 22  1  0
 22 23  1  0
 22 24  1  0
 24 25  1  0
 24 26  1  0
 19 27  1  0
 27 28  1  1
 27 29  1  0
 29 30  1  0
 30 31  1  0
 31 32  1  1
  7  5  1  0
 31 10  1  0
 31 13  1  0
 27 15  1  0
 24 18  1  0
  1 33  1  0
  1 34  1  0
  1 35  1  0
  2 36  1  6
  3 37  1  0
  3 38  1  0
  4 39  1  0
  4 40  1  0
  5 41  1  1
  8 42  1  0
  8 43  1  0
  8 44  1  0
  9 45  1  0
  9 46  1  0
  9 47  1  0
 10 48  1  6
 11 49  1  0
 11 50  1  0
 12 51  1  0
 12 52  1  0
 14 53  1  0
 14 54  1  0
 14 55  1  0
 15 56  1  1
 16 57  1  0
 16 58  1  0
 17 59  1  0
 19 60  1  6
 20 61  1  0
 20 62  1  0
 21 63  1  0
 21 64  1  0
 22 65  1  6
 23 66  1  0
 25 67  1  0
 25 68  1  0
 25 69  1  0
 26 70  1  0
 26 71  1  0
 26 72  1  0
 28 73  1  0
 28 74  1  0
 28 75  1  0
 29 76  1  0
 29 77  1  0
 30 78  1  0
 30 79  1  0
 32 80  1  0
 32 81  1  0
 32 82  1  0
M  END
>  <meeko>  (14) 
{"is_sidechain": [false], "intermolecular_energy": 2.731, "internal_energy": -0.839}

$$$$
EPH_relaxed_0001_pdb2pqr_Repair_414_r2_0001_out
     RDKit          3D

 82 86  0  0  0  0  0  0  0  0999 V2000
    0.8370   13.8110   -5.8340 C   0  0  0  0  0  0  0  0  0  0  0  0
    1.8840   13.1740   -4.9160 C   0  0  2  0  0  0  0  0  0  0  0  0
    2.2300   11.7330   -5.3430 C   0  0  0  0  0  0  0  0  0  0  0  0
    3.6920   11.5490   -5.7600 C   0  0  0  0  0  0  0  0  0  0  0  0
    4.5920   11.3950   -4.5710 C   0  0  2  0  0  0  0  0  0  0  0  0
    5.6190   12.3900   -4.4650 O   0  0  0  0  0  0  0  0  0  0  0  0
    6.0630   11.0400   -4.6760 C   0  0  0  0  0  0  0  0  0  0  0  0
    6.7190   10.8150   -6.0020 C   0  0  0  0  0  0  0  0  0  0  0  0
    6.7400   10.4350   -3.4850 C   0  0  0  0  0  0  0  0  0  0  0  0
    1.3880   13.1850   -3.4750 C   0  0  1  0  0  0  0  0  0  0  0  0
   -0.0620   13.7240   -3.3460 C   0  0  0  0  0  0  0  0  0  0  0  0
   -0.7350   12.9280   -2.2000 C   0  0  0  0  0  0  0  0  0  0  0  0
    0.4320   12.2000   -1.4920 C   0  0  1  0  0  0  0  0  0  0  0  0
    1.0600   13.2720   -0.5480 C   0  0  0  0  0  0  0  0  0  0  0  0
    0.0630   10.8930   -0.7170 C   0  0  2  0  0  0  0  0  0  0  0  0
   -0.9120   11.0850    0.4580 C   0  0  0  0  0  0  0  0  0  0  0  0
   -0.2710   11.3530    1.7800 C   0  0  0  0  0  0  0  0  0  0  0  0
    1.0270   11.1570    2.0740 C   0  0  0  0  0  0  0  0  0  0  0  0
    1.9800   10.5230    1.0520 C   0  0  1  0  0  0  0  0  0  0  0  0
    2.8290    9.4260    1.7460 C   0  0  0  0  0  0  0  0  0  0  0  0
    3.5600    9.9460    2.9800 C   0  0  0  0  0  0  0  0  0  0  0  0
    2.5750   10.5150    3.9980 C   0  0  2  0  0  0  0  0  0  0  0  0
    1.7710    9.4470    4.5090 O   0  0  0  0  0  0  0  0  0  0  0  0
    1.6580   11.6230    3.4090 C   0  0  0  0  0  0  0  0  0  0  0  0
    2.4930   12.8980    3.1340 C   0  0  0  0  0  0  0  0  0  0  0  0
    0.6190   12.0110    4.4970 C   0  0  0  0  0  0  0  0  0  0  0  0
    1.3100   10.0150   -0.2970 C   0  0  1  0  0  0  0  0  0  0  0  0
    0.7870    8.5570   -0.1140 C   0  0  0  0  0  0  0  0  0  0  0  0
    2.4070    9.9550   -1.4250 C   0  0  0  0  0  0  0  0  0  0  0  0
    2.6410   11.2440   -2.2350 C   0  0  0  0  0  0  0  0  0  0  0  0
    1.3160   11.8240   -2.7370 C   0  0  2  0  0  0  0  0  0  0  0  0
    0.6710   10.7770   -3.7070 C   0  0  0  0  0  0  0  0  0  0  0  0
    0.0551   14.2867   -5.2238 H   0  0  0  0  0  0  0  0  0  0  0  0
    1.3187   14.5692   -6.4688 H   0  0  0  0  0  0  0  0  0  0  0  0
    0.3850   13.0347   -6.4688 H   0  0  0  0  0  0  0  0  0  0  0  0
    2.8033   13.7727   -4.9970 H   0  0  0  0  0  0  0  0  0  0  0  0
    2.0229   11.0609   -4.4972 H   0  0  0  0  0  0  0  0  0  0  0  0
    1.6129   11.5016   -6.2237 H   0  0  0  0  0  0  0  0  0  0  0  0
    3.7733   10.6493   -6.3876 H   0  0  0  0  0  0  0  0  0  0  0  0
    4.0062   12.4457   -6.3143 H   0  0  0  0  0  0  0  0  0  0  0  0
    3.7712   10.9696   -3.9749 H   0  0  0  0  0  0  0  0  0  0  0  0
    7.7490   10.4617   -5.8463 H   0  0  0  0  0  0  0  0  0  0  0  0
    6.1537   10.0594   -6.5672 H   0  0  0  0  0  0  0  0  0  0  0  0
    6.7365   11.7585   -6.5672 H   0  0  0  0  0  0  0  0  0  0  0  0
    6.2908   10.8365   -2.5647 H   0  0  0  0  0  0  0  0  0  0  0  0
    6.6148    9.3424   -3.5078 H   0  0  0  0  0  0  0  0  0  0  0  0
    7.8117   10.6818   -3.5078 H   0  0  0  0  0  0  0  0  0  0  0  0
    2.1615   13.8204   -3.0189 H   0  0  0  0  0  0  0  0  0  0  0  0
   -0.0471   14.7969   -3.1039 H   0  0  0  0  0  0  0  0  0  0  0  0
   -0.6142   13.6010   -4.2893 H   0  0  0  0  0  0  0  0  0  0  0  0
   -1.2477   13.6081   -1.5039 H   0  0  0  0  0  0  0  0  0  0  0  0
   -1.4989   12.2288   -2.5707 H   0  0  0  0  0  0  0  0  0  0  0  0
    0.8904   12.9825    0.4996 H   0  0  0  0  0  0  0  0  0  0  0  0
    2.1411   13.3406   -0.7391 H   0  0  0  0  0  0  0  0  0  0  0  0
    0.5912   14.2486   -0.7391 H   0  0  0  0  0  0  0  0  0  0  0  0
   -0.4911   10.3178   -1.4734 H   0  0  0  0  0  0  0  0  0  0  0  0
   -1.5685   11.9348    0.2198 H   0  0  0  0  0  0  0  0  0  0  0  0
   -1.4491   10.1313    0.5674 H   0  0  0  0  0  0  0  0  0  0  0  0
   -0.9150   11.7439    2.5815 H   0  0  0  0  0  0  0  0  0  0  0  0
    2.6348   11.3345    0.7018 H   0  0  0  0  0  0  0  0  0  0  0  0
    2.1635    8.6047    2.0503 H   0  0  0  0  0  0  0  0  0  0  0  0
    3.5883    9.0860    1.0264 H   0  0  0  0  0  0  0  0  0  0  0  0
    4.1185    9.1190    3.4428 H   0  0  0  0  0  0  0  0  0  0  0  0
    4.2465   10.7475    2.6697 H   0  0  0  0  0  0  0  0  0  0  0  0
    3.1637   10.9869    4.7985 H   0  0  0  0  0  0  0  0  0  0  0  0
    0.8410    9.7240    4.4500 H   0  0  0  0  0  0  0  0  0  0  0  0
    2.7916   13.3539    4.0895 H   0  0  0  0  0  0  0  0  0  0  0  0
    3.3916   12.6308    2.5586 H   0  0  0  0  0  0  0  0  0  0  0  0
    1.8889   13.6149    2.5586 H   0  0  0  0  0  0  0  0  0  0  0  0
    1.0542   11.8485    5.4941 H   0  0  0  0  0  0  0  0  0  0  0  0
    0.3478   13.0710    4.3836 H   0  0  0  0  0  0  0  0  0  0  0  0
   -0.2806   11.3882    4.3836 H   0  0  0  0  0  0  0  0  0  0  0  0
    0.7051    8.3288    0.9589 H   0  0  0  0  0  0  0  0  0  0  0  0
   -0.2019    8.4602   -0.5859 H   0  0  0  0  0  0  0  0  0  0  0  0
    1.4889    7.8537   -0.5859 H   0  0  0  0  0  0  0  0  0  0  0  0
    3.3604    9.6840   -0.9480 H   0  0  0  0  0  0  0  0  0  0  0  0
    2.0312    9.2214   -2.1534 H   0  0  0  0  0  0  0  0  0  0  0  0
    3.1389   11.9864   -1.5940 H   0  0  0  0  0  0  0  0  0  0  0  0
    3.2699   11.0025   -3.1045 H   0  0  0  0  0  0  0  0  0  0  0  0
    0.1831    9.9850   -3.1198 H   0  0  0  0  0  0  0  0  0  0  0  0
   -0.0762   11.2764   -4.3412 H   0  0  0  0  0  0  0  0  0  0  0  0
    1.4531   10.3342   -4.3412 H   0  0  0  0  0  0  0  0  0  0  0  0
  1  2  1  0
  2  3  1  0
  3  4  1  0
  4  5  1  0
  5  6  1  0
  6  7  1  0
  7  8  1  0
  7  9  1  0
  2 10  1  0
 10 11  1  0
 11 12  1  0
 12 13  1  0
 13 14  1  1
 13 15  1  0
 15 16  1  0
 16 17  1  0
 17 18  2  0
 18 19  1  0
 19 20  1  0
 20 21  1  0
 21 22  1  0
 22 23  1  0
 22 24  1  0
 24 25  1  0
 24 26  1  0
 19 27  1  0
 27 28  1  1
 27 29  1  0
 29 30  1  0
 30 31  1  0
 31 32  1  6
  7  5  1  0
 31 10  1  0
 31 13  1  0
 27 15  1  0
 24 18  1  0
  1 33  1  0
  1 34  1  0
  1 35  1  0
  2 36  1  1
  3 37  1  0
  3 38  1  0
  4 39  1  0
  4 40  1  0
  5 41  1  1
  8 42  1  0
  8 43  1  0
  8 44  1  0
  9 45  1  0
  9 46  1  0
  9 47  1  0
 10 48  1  1
 11 49  1  0
 11 50  1  0
 12 51  1  0
 12 52  1  0
 14 53  1  0
 14 54  1  0
 14 55  1  0
 15 56  1  6
 16 57  1  0
 16 58  1  0
 17 59  1  0
 19 60  1  6
 20 61  1  0
 20 62  1  0
 21 63  1  0
 21 64  1  0
 22 65  1  1
 23 66  1  0
 25 67  1  0
 25 68  1  0
 25 69  1  0
 26 70  1  0
 26 71  1  0
 26 72  1  0
 28 73  1  0
 28 74  1  0
 28 75  1  0
 29 76  1  0
 29 77  1  0
 30 78  1  0
 30 79  1  0
 32 80  1  0
 32 81  1  0
 32 82  1  0
M  END
>  <meeko>  (15) 
{"is_sidechain": [false], "intermolecular_energy": 2.731, "internal_energy": -0.839}

$$$$
EPH_relaxed_0001_pdb2pqr_Repair_414_r2_0001_out
     RDKit          3D

 82 86  0  0  0  0  0  0  0  0999 V2000
    1.5340    8.8220    0.5260 C   0  0  0  0  0  0  0  0  0  0  0  0
    2.9760    9.3150    0.3850 C   0  0  2  0  0  0  0  0  0  0  0  0
    3.6310    9.5940    1.7520 C   0  0  0  0  0  0  0  0  0  0  0  0
    2.6470    9.5590    2.9250 C   0  0  0  0  0  0  0  0  0  0  0  0
    1.8230   10.8090    2.9940 C   0  0  2  0  0  0  0  0  0  0  0  0
    2.5770   12.0140    3.1730 O   0  0  0  0  0  0  0  0  0  0  0  0
    1.6920   11.6560    4.2460 C   0  0  0  0  0  0  0  0  0  0  0  0
    2.3930   11.2860    5.5160 C   0  0  0  0  0  0  0  0  0  0  0  0
    0.5070   12.5600    4.3780 C   0  0  0  0  0  0  0  0  0  0  0  0
    3.0130   10.5720   -0.4770 C   0  0  1  0  0  0  0  0  0  0  0  0
    3.4590   10.2840   -1.9350 C   0  0  0  0  0  0  0  0  0  0  0  0
    2.6670   11.2570   -2.8460 C   0  0  0  0  0  0  0  0  0  0  0  0
    2.0490   12.2870   -1.8720 C   0  0  1  0  0  0  0  0  0  0  0  0
    3.1990   13.3000   -1.5760 C   0  0  0  0  0  0  0  0  0  0  0  0
    0.7530   13.0110   -2.3630 C   0  0  2  0  0  0  0  0  0  0  0  0
    0.9280   13.8760   -3.6230 C   0  0  0  0  0  0  0  0  0  0  0  0
    1.2930   15.3020   -3.3730 C   0  0  0  0  0  0  0  0  0  0  0  0
    1.1970   15.9380   -2.1910 C   0  0  0  0  0  0  0  0  0  0  0  0
    0.5860   15.2400   -0.9690 C   0  0  1  0  0  0  0  0  0  0  0  0
   -0.4220   16.1950   -0.2770 C   0  0  0  0  0  0  0  0  0  0  0  0
    0.1960   17.5460    0.0700 C   0  0  0  0  0  0  0  0  0  0  0  0
    0.7400   18.2350   -1.1790 C   0  0  2  0  0  0  0  0  0  0  0  0
   -0.3580   18.5770   -2.0310 O   0  0  0  0  0  0  0  0  0  0  0  0
    1.7590   17.3630   -1.9650 C   0  0  0  0  0  0  0  0  0  0  0  0
    3.0740   17.2440   -1.1560 C   0  0  0  0  0  0  0  0  0  0  0  0
    2.1210   18.1150   -3.2740 C   0  0  0  0  0  0  0  0  0  0  0  0
   -0.0210   13.7950   -1.2270 C   0  0  1  0  0  0  0  0  0  0  0  0
   -1.5020   13.9170   -1.7000 C   0  0  0  0  0  0  0  0  0  0  0  0
   -0.0540   13.0000    0.1320 C   0  0  0  0  0  0  0  0  0  0  0  0
    1.2140   12.2070    0.5040 C   0  0  0  0  0  0  0  0  0  0  0  0
    1.6830   11.3420   -0.6690 C   0  0  2  0  0  0  0  0  0  0  0  0
    0.5550   10.2980   -0.9750 C   0  0  0  0  0  0  0  0  0  0  0  0
    1.2789    8.7348    1.5925 H   0  0  0  0  0  0  0  0  0  0  0  0
    0.8528    9.5383    0.0434 H   0  0  0  0  0  0  0  0  0  0  0  0
    1.4339    7.8386    0.0434 H   0  0  0  0  0  0  0  0  0  0  0  0
    3.5537    8.5142   -0.0998 H   0  0  0  0  0  0  0  0  0  0  0  0
    4.4069    8.8341    1.9268 H   0  0  0  0  0  0  0  0  0  0  0  0
    4.0434   10.6128    1.7088 H   0  0  0  0  0  0  0  0  0  0  0  0
    1.9761    8.6960    2.8020 H   0  0  0  0  0  0  0  0  0  0  0  0
    3.2263    9.4780    3.8566 H   0  0  0  0  0  0  0  0  0  0  0  0
    1.0746   10.3816    2.3104 H   0  0  0  0  0  0  0  0  0  0  0  0
    1.7866   11.6061    6.3762 H   0  0  0  0  0  0  0  0  0  0  0  0
    2.5345   10.1957    5.5525 H   0  0  0  0  0  0  0  0  0  0  0  0
    3.3730   11.7843    5.5525 H   0  0  0  0  0  0  0  0  0  0  0  0
    0.2894   12.7260    5.4434 H   0  0  0  0  0  0  0  0  0  0  0  0
    0.7250   13.5234    3.8938 H   0  0  0  0  0  0  0  0  0  0  0  0
   -0.3645   12.0952    3.8938 H   0  0  0  0  0  0  0  0  0  0  0  0
    3.7170   11.1783    0.1119 H   0  0  0  0  0  0  0  0  0  0  0  0
    4.5396   10.4597   -2.0422 H   0  0  0  0  0  0  0  0  0  0  0  0
    3.2609    9.2372   -2.2089 H   0  0  0  0  0  0  0  0  0  0  0  0
    3.3393   11.7535   -3.5611 H   0  0  0  0  0  0  0  0  0  0  0  0
    1.9036   10.7393   -3.4454 H   0  0  0  0  0  0  0  0  0  0  0  0
    3.3216   13.4080   -0.4882 H   0  0  0  0  0  0  0  0  0  0  0  0
    4.1366   12.9290   -2.0156 H   0  0  0  0  0  0  0  0  0  0  0  0
    2.9493   14.2769   -2.0156 H   0  0  0  0  0  0  0  0  0  0  0  0
    0.1114   12.1697   -2.6641 H   0  0  0  0  0  0  0  0  0  0  0  0
    1.7213   13.4249   -4.2372 H   0  0  0  0  0  0  0  0  0  0  0  0
   -0.0547   13.8959   -4.1169 H   0  0  0  0  0  0  0  0  0  0  0  0
    1.6725   15.8818   -4.2273 H   0  0  0  0  0  0  0  0  0  0  0  0
    1.4248   15.0271   -0.2900 H   0  0  0  0  0  0  0  0  0  0  0  0
   -1.2732   16.3600   -0.9540 H   0  0  0  0  0  0  0  0  0  0  0  0
   -0.7390   15.7212    0.6638 H   0  0  0  0  0  0  0  0  0  0  0  0
   -0.5723   18.1861    0.5283 H   0  0  0  0  0  0  0  0  0  0  0  0
    1.0281   17.3815    0.7704 H   0  0  0  0  0  0  0  0  0  0  0  0
    1.2835   19.1332   -0.8506 H   0  0  0  0  0  0  0  0  0  0  0  0
   -0.0200   19.1730   -2.7210 H   0  0  0  0  0  0  0  0  0  0  0  0
    2.8458   17.2647   -0.0801 H   0  0  0  0  0  0  0  0  0  0  0  0
    3.5742   16.2969   -1.4066 H   0  0  0  0  0  0  0  0  0  0  0  0
    3.7361   18.0859   -1.4066 H   0  0  0  0  0  0  0  0  0  0  0  0
    2.5858   19.0805   -3.0256 H   0  0  0  0  0  0  0  0  0  0  0  0
    2.8261   17.5091   -3.8619 H   0  0  0  0  0  0  0  0  0  0  0  0
    1.2076   18.2882   -3.8619 H   0  0  0  0  0  0  0  0  0  0  0  0
   -2.1637   13.9715   -0.8230 H   0  0  0  0  0  0  0  0  0  0  0  0
   -1.6197   14.8279   -2.3053 H   0  0  0  0  0  0  0  0  0  0  0  0
   -1.7672   13.0377   -2.3053 H   0  0  0  0  0  0  0  0  0  0  0  0
   -0.2411   13.7254    0.9375 H   0  0  0  0  0  0  0  0  0  0  0  0
   -0.8403   12.2416    0.0029 H   0  0  0  0  0  0  0  0  0  0  0  0
    2.0138   12.9127    0.7731 H   0  0  0  0  0  0  0  0  0  0  0  0
    0.9795   11.5488    1.3535 H   0  0  0  0  0  0  0  0  0  0  0  0
    0.1425    9.9162   -0.0295 H   0  0  0  0  0  0  0  0  0  0  0  0
   -0.2447   10.7817   -1.5552 H   0  0  0  0  0  0  0  0  0  0  0  0
    0.9755    9.4634   -1.5552 H   0  0  0  0  0  0  0  0  0  0  0  0
  1  2  1  0
  2  3  1  0
  3  4  1  0
  4  5  1  0
  5  6  1  0
  6  7  1  0
  7  8  1  0
  7  9  1  0
  2 10  1  0
 10 11  1  0
 11 12  1  0
 12 13  1  0
 13 14  1  1
 13 15  1  0
 15 16  1  0
 16 17  1  0
 17 18  2  0
 18 19  1  0
 19 20  1  0
 20 21  1  0
 21 22  1  0
 22 23  1  0
 22 24  1  0
 24 25  1  0
 24 26  1  0
 19 27  1  0
 27 28  1  6
 27 29  1  0
 29 30  1  0
 30 31  1  0
 31 32  1  6
  7  5  1  0
 31 10  1  0
 31 13  1  0
 27 15  1  0
 24 18  1  0
  1 33  1  0
  1 34  1  0
  1 35  1  0
  2 36  1  6
  3 37  1  0
  3 38  1  0
  4 39  1  0
  4 40  1  0
  5 41  1  6
  8 42  1  0
  8 43  1  0
  8 44  1  0
  9 45  1  0
  9 46  1  0
  9 47  1  0
 10 48  1  1
 11 49  1  0
 11 50  1  0
 12 51  1  0
 12 52  1  0
 14 53  1  0
 14 54  1  0
 14 55  1  0
 15 56  1  6
 16 57  1  0
 16 58  1  0
 17 59  1  0
 19 60  1  1
 20 61  1  0
 20 62  1  0
 21 63  1  0
 21 64  1  0
 22 65  1  1
 23 66  1  0
 25 67  1  0
 25 68  1  0
 25 69  1  0
 26 70  1  0
 26 71  1  0
 26 72  1  0
 28 73  1  0
 28 74  1  0
 28 75  1  0
 29 76  1  0
 29 77  1  0
 30 78  1  0
 30 79  1  0
 32 80  1  0
 32 81  1  0
 32 82  1  0
M  END
>  <meeko>  (16) 
{"is_sidechain": [false], "intermolecular_energy": 2.731, "internal_energy": -0.839}

$$$$
EPH_relaxed_0001_pdb2pqr_Repair_414_r2_0001_out
     RDKit          3D

 82 86  0  0  0  0  0  0  0  0999 V2000
    3.3810   18.3520   -3.0310 C   0  0  0  0  0  0  0  0  0  0  0  0
    2.0810   17.5440   -3.0350 C   0  0  2  0  0  0  0  0  0  0  0  0
    0.8830   18.3670   -2.5200 C   0  0  0  0  0  0  0  0  0  0  0  0
    1.2750   19.7310   -1.9460 C   0  0  0  0  0  0  0  0  0  0  0  0
    1.2000   19.7440   -0.4490 C   0  0  2  0  0  0  0  0  0  0  0  0
    0.7330   18.5230    0.1380 O   0  0  0  0  0  0  0  0  0  0  0  0
   -0.1040   19.6750    0.3240 C   0  0  0  0  0  0  0  0  0  0  0  0
   -1.4230   19.5880   -0.3780 C   0  0  0  0  0  0  0  0  0  0  0  0
   -0.1300   20.1820    1.7320 C   0  0  0  0  0  0  0  0  0  0  0  0
    2.2490   16.2850   -2.1920 C   0  0  1  0  0  0  0  0  0  0  0  0
    2.7540   16.5900   -0.7570 C   0  0  0  0  0  0  0  0  0  0  0  0
    2.0790   15.5580    0.1830 C   0  0  0  0  0  0  0  0  0  0  0  0
    1.4790   14.4970   -0.7690 C   0  0  1  0  0  0  0  0  0  0  0  0
    2.6770   13.5670   -1.1380 C   0  0  0  0  0  0  0  0  0  0  0  0
    0.2640   13.6830   -0.2170 C   0  0  2  0  0  0  0  0  0  0  0  0
    0.5640   12.8210    1.0210 C   0  0  0  0  0  0  0  0  0  0  0  0
    1.0090   11.4250    0.7350 C   0  0  0  0  0  0  0  0  0  0  0  0
    0.8920   10.7940   -0.4490 C   0  0  0  0  0  0  0  0  0  0  0  0
    0.1700   11.4590   -1.6280 C   0  0  1  0  0  0  0  0  0  0  0  0
   -0.8080   10.4440   -2.2760 C   0  0  0  0  0  0  0  0  0  0  0  0
   -0.1210    9.1410   -2.6720 C   0  0  0  0  0  0  0  0  0  0  0  0
    0.5350    8.4800   -1.4620 C   0  0  2  0  0  0  0  0  0  0  0  0
   -0.4890    8.0570   -0.5570 O   0  0  0  0  0  0  0  0  0  0  0  0
    1.5350    9.4120   -0.7220 C   0  0  0  0  0  0  0  0  0  0  0  0
    2.7930    9.6260   -1.5990 C   0  0  0  0  0  0  0  0  0  0  0  0
    2.0170    8.6750    0.5570 C   0  0  0  0  0  0  0  0  0  0  0  0
   -0.5180   12.8580   -1.3190 C   0  0  1  0  0  0  0  0  0  0  0  0
   -1.9590   12.6330   -0.7680 C   0  0  0  0  0  0  0  0  0  0  0  0
   -0.6770   13.6600   -2.6650 C   0  0  0  0  0  0  0  0  0  0  0  0
    0.5120   14.5400   -3.0950 C   0  0  0  0  0  0  0  0  0  0  0  0
    0.9860   15.4250   -1.9380 C   0  0  2  0  0  0  0  0  0  0  0  0
   -0.1910   16.3880   -1.5590 C   0  0  0  0  0  0  0  0  0  0  0  0
    3.6901   18.5441   -1.9930 H   0  0  0  0  0  0  0  0  0  0  0  0
    4.1677   17.7835   -3.5486 H   0  0  0  0  0  0  0  0  0  0  0  0
    3.2195   19.3091   -3.5486 H   0  0  0  0  0  0  0  0  0  0  0  0
    1.8669   17.2676   -4.0780 H   0  0  0  0  0  0  0  0  0  0  0  0
    0.1876   18.5292   -3.3568 H   0  0  0  0  0  0  0  0  0  0  0  0
    0.4266   17.7924   -1.7005 H   0  0  0  0  0  0  0  0  0  0  0  0
    2.3050   19.9647   -2.2535 H   0  0  0  0  0  0  0  0  0  0  0  0
    0.5691   20.4813   -2.3315 H   0  0  0  0  0  0  0  0  0  0  0  0
    2.0584   20.4292   -0.3887 H   0  0  0  0  0  0  0  0  0  0  0  0
   -2.2315   19.5347    0.3660 H   0  0  0  0  0  0  0  0  0  0  0  0
   -1.5626   20.4789   -1.0079 H   0  0  0  0  0  0  0  0  0  0  0  0
   -1.4443   18.6865   -1.0079 H   0  0  0  0  0  0  0  0  0  0  0  0
   -0.0864   19.3319    2.4287 H   0  0  0  0  0  0  0  0  0  0  0  0
    0.7356   20.8394    1.9010 H   0  0  0  0  0  0  0  0  0  0  0  0
   -1.0583   20.7474    1.9010 H   0  0  0  0  0  0  0  0  0  0  0  0
    2.9585   15.7326   -2.8256 H   0  0  0  0  0  0  0  0  0  0  0  0
    3.8481   16.4862   -0.7103 H   0  0  0  0  0  0  0  0  0  0  0  0
    2.5025   17.6188   -0.4599 H   0  0  0  0  0  0  0  0  0  0  0  0
    2.8207   15.1016    0.8551 H   0  0  0  0  0  0  0  0  0  0  0  0
    1.3164   16.0181    0.8285 H   0  0  0  0  0  0  0  0  0  0  0  0
    3.1521   13.1982   -0.2170 H   0  0  0  0  0  0  0  0  0  0  0  0
    2.3108   12.7142   -1.7285 H   0  0  0  0  0  0  0  0  0  0  0  0
    3.4123   14.1332   -1.7285 H   0  0  0  0  0  0  0  0  0  0  0  0
   -0.4136   14.4774    0.1290 H   0  0  0  0  0  0  0  0  0  0  0  0
    1.3575   13.3190    1.5975 H   0  0  0  0  0  0  0  0  0  0  0  0
   -0.3872   12.7309    1.5661 H   0  0  0  0  0  0  0  0  0  0  0  0
    1.4714   10.8646    1.5609 H   0  0  0  0  0  0  0  0  0  0  0  0
    0.9539   11.7335   -2.3492 H   0  0  0  0  0  0  0  0  0  0  0  0
   -1.6079   10.2162   -1.5561 H   0  0  0  0  0  0  0  0  0  0  0  0
   -1.2069   10.9031   -3.1926 H   0  0  0  0  0  0  0  0  0  0  0  0
   -0.8685    8.4544   -3.0960 H   0  0  0  0  0  0  0  0  0  0  0  0
    0.6588    9.3669   -3.4142 H   0  0  0  0  0  0  0  0  0  0  0  0
    1.1188    7.6233   -1.8297 H   0  0  0  0  0  0  0  0  0  0  0  0
   -0.0580    7.7980    0.2750 H   0  0  0  0  0  0  0  0  0  0  0  0
    3.6700    9.7752   -0.9520 H   0  0  0  0  0  0  0  0  0  0  0  0
    2.9520    8.7420   -2.2340 H   0  0  0  0  0  0  0  0  0  0  0  0
    2.6507   10.5128   -2.2340 H   0  0  0  0  0  0  0  0  0  0  0  0
    1.6633    9.2159    1.4471 H   0  0  0  0  0  0  0  0  0  0  0  0
    1.6129    7.6519    0.5649 H   0  0  0  0  0  0  0  0  0  0  0  0
    3.1162    8.6351    0.5649 H   0  0  0  0  0  0  0  0  0  0  0  0
   -1.9358   12.6366    0.3317 H   0  0  0  0  0  0  0  0  0  0  0  0
   -2.6175   13.4392   -1.1235 H   0  0  0  0  0  0  0  0  0  0  0  0
   -2.3404   11.6644   -1.1235 H   0  0  0  0  0  0  0  0  0  0  0  0
   -0.8579   12.9300   -3.4677 H   0  0  0  0  0  0  0  0  0  0  0  0
   -1.5041   14.3625   -2.4849 H   0  0  0  0  0  0  0  0  0  0  0  0
    1.3413   13.8925   -3.4159 H   0  0  0  0  0  0  0  0  0  0  0  0
    0.1873   15.1883   -3.9222 H   0  0  0  0  0  0  0  0  0  0  0  0
   -0.2723   16.4545   -0.4640 H   0  0  0  0  0  0  0  0  0  0  0  0
    0.0053   17.3878   -1.9735 H   0  0  0  0  0  0  0  0  0  0  0  0
   -1.1322   15.9976   -1.9735 H   0  0  0  0  0  0  0  0  0  0  0  0
  1  2  1  0
  2  3  1  0
  3  4  1  0
  4  5  1  0
  5  6  1  0
  6  7  1  0
  7  8  1  0
  7  9  1  0
  2 10  1  0
 10 11  1  0
 11 12  1  0
 12 13  1  0
 13 14  1  6
 13 15  1  0
 15 16  1  0
 16 17  1  0
 17 18  2  0
 18 19  1  0
 19 20  1  0
 20 21  1  0
 21 22  1  0
 22 23  1  0
 22 24  1  0
 24 25  1  0
 24 26  1  0
 19 27  1  0
 27 28  1  1
 27 29  1  0
 29 30  1  0
 30 31  1  0
 31 32  1  1
  7  5  1  0
 31 10  1  0
 31 13  1  0
 27 15  1  0
 24 18  1  0
  1 33  1  0
  1 34  1  0
  1 35  1  0
  2 36  1  6
  3 37  1  0
  3 38  1  0
  4 39  1  0
  4 40  1  0
  5 41  1  1
  8 42  1  0
  8 43  1  0
  8 44  1  0
  9 45  1  0
  9 46  1  0
  9 47  1  0
 10 48  1  6
 11 49  1  0
 11 50  1  0
 12 51  1  0
 12 52  1  0
 14 53  1  0
 14 54  1  0
 14 55  1  0
 15 56  1  1
 16 57  1  0
 16 58  1  0
 17 59  1  0
 19 60  1  6
 20 61  1  0
 20 62  1  0
 21 63  1  0
 21 64  1  0
 22 65  1  6
 23 66  1  0
 25 67  1  0
 25 68  1  0
 25 69  1  0
 26 70  1  0
 26 71  1  0
 26 72  1  0
 28 73  1  0
 28 74  1  0
 28 75  1  0
 29 76  1  0
 29 77  1  0
 30 78  1  0
 30 79  1  0
 32 80  1  0
 32 81  1  0
 32 82  1  0
M  END
>  <meeko>  (17) 
{"is_sidechain": [false], "intermolecular_energy": 2.731, "internal_energy": -0.839}

$$$$
EPH_relaxed_0001_pdb2pqr_Repair_414_r2_0001_out
     RDKit          3D

 82 86  0  0  0  0  0  0  0  0999 V2000
   -3.6620    7.2030   -3.4240 C   0  0  0  0  0  0  0  0  0  0  0  0
   -3.6800    7.2710   -1.8950 C   0  0  2  0  0  0  0  0  0  0  0  0
   -5.0880    7.0230   -1.3180 C   0  0  0  0  0  0  0  0  0  0  0  0
   -6.2100    7.1770   -2.3480 C   0  0  0  0  0  0  0  0  0  0  0  0
   -7.5350    7.4240   -1.6920 C   0  0  2  0  0  0  0  0  0  0  0  0
   -8.1520    6.2570   -1.1320 O   0  0  0  0  0  0  0  0  0  0  0  0
   -8.8470    6.8790   -2.2250 C   0  0  0  0  0  0  0  0  0  0  0  0
   -8.8990    6.0450   -3.4660 C   0  0  0  0  0  0  0  0  0  0  0  0
  -10.1200    7.5570   -1.8220 C   0  0  0  0  0  0  0  0  0  0  0  0
   -3.1560    8.6240   -1.4290 C   0  0  1  0  0  0  0  0  0  0  0  0
   -3.8420    9.1130   -0.1250 C   0  0  0  0  0  0  0  0  0  0  0  0
   -2.7660    9.8790    0.6860 C   0  0  0  0  0  0  0  0  0  0  0  0
   -1.6030   10.0930   -0.3120 C   0  0  1  0  0  0  0  0  0  0  0  0
   -2.0260   11.3320   -1.1600 C   0  0  0  0  0  0  0  0  0  0  0  0
   -0.1820   10.2780    0.3120 C   0  0  2  0  0  0  0  0  0  0  0  0
   -0.0200   11.5160    1.2110 C   0  0  0  0  0  0  0  0  0  0  0  0
    0.4320   12.7560    0.5140 C   0  0  0  0  0  0  0  0  0  0  0  0
    0.9690   12.8080   -0.7190 C   0  0  0  0  0  0  0  0  0  0  0  0
    1.2610   11.5240   -1.5060 C   0  0  1  0  0  0  0  0  0  0  0  0
    2.6850   11.6030   -2.1160 C   0  0  0  0  0  0  0  0  0  0  0  0
    2.8940   12.8610   -2.9540 C   0  0  0  0  0  0  0  0  0  0  0  0
    2.6520   14.1170   -2.1210 C   0  0  2  0  0  0  0  0  0  0  0  0
    3.6690   14.2090   -1.1190 O   0  0  0  0  0  0  0  0  0  0  0  0
    1.2510   14.1450   -1.4480 C   0  0  0  0  0  0  0  0  0  0  0  0
    0.1590   14.3500   -2.5270 C   0  0  0  0  0  0  0  0  0  0  0  0
    1.1890   15.3930   -0.5260 C   0  0  0  0  0  0  0  0  0  0  0  0
    1.0040   10.1620   -0.7300 C   0  0  1  0  0  0  0  0  0  0  0  0
    2.2740    9.7650    0.0840 C   0  0  0  0  0  0  0  0  0  0  0  0
    0.7690    9.0100   -1.7770 C   0  0  0  0  0  0  0  0  0  0  0  0
   -0.6770    8.7980   -2.2650 C   0  0  0  0  0  0  0  0  0  0  0  0
   -1.6490    8.7240   -1.0840 C   0  0  2  0  0  0  0  0  0  0  0  0
   -1.2620    7.4730   -0.2240 C   0  0  0  0  0  0  0  0  0  0  0  0
   -3.3926    6.1852   -3.7426 H   0  0  0  0  0  0  0  0  0  0  0  0
   -4.6585    7.4576   -3.8141 H   0  0  0  0  0  0  0  0  0  0  0  0
   -2.9220    7.9173   -3.8141 H   0  0  0  0  0  0  0  0  0  0  0  0
   -3.0256    6.4700   -1.5208 H   0  0  0  0  0  0  0  0  0  0  0  0
   -5.1235    5.9997   -0.9160 H   0  0  0  0  0  0  0  0  0  0  0  0
   -5.2566    7.7843   -0.5421 H   0  0  0  0  0  0  0  0  0  0  0  0
   -5.9748    8.0257   -3.0071 H   0  0  0  0  0  0  0  0  0  0  0  0
   -6.2804    6.2406   -2.9209 H   0  0  0  0  0  0  0  0  0  0  0  0
   -7.2243    8.4353   -1.3909 H   0  0  0  0  0  0  0  0  0  0  0  0
   -8.9653    4.9820   -3.1909 H   0  0  0  0  0  0  0  0  0  0  0  0
   -9.7814    6.3258   -4.0598 H   0  0  0  0  0  0  0  0  0  0  0  0
   -7.9886    6.2140   -4.0598 H   0  0  0  0  0  0  0  0  0  0  0  0
  -10.1854    7.5918   -0.7245 H   0  0  0  0  0  0  0  0  0  0  0  0
  -10.1327    8.5813   -2.2227 H   0  0  0  0  0  0  0  0  0  0  0  0
  -10.9771    6.9959   -2.2227 H   0  0  0  0  0  0  0  0  0  0  0  0
   -3.3770    9.2248   -2.3235 H   0  0  0  0  0  0  0  0  0  0  0  0
   -4.6816    9.7814   -0.3664 H   0  0  0  0  0  0  0  0  0  0  0  0
   -4.2431    8.2665    0.4517 H   0  0  0  0  0  0  0  0  0  0  0  0
   -3.1589   10.8446    1.0372 H   0  0  0  0  0  0  0  0  0  0  0  0
   -2.4491    9.3274    1.5834 H   0  0  0  0  0  0  0  0  0  0  0  0
   -2.3076   12.1568   -0.4889 H   0  0  0  0  0  0  0  0  0  0  0  0
   -1.1844   11.6466   -1.7946 H   0  0  0  0  0  0  0  0  0  0  0  0
   -2.8843   11.0663   -1.7946 H   0  0  0  0  0  0  0  0  0  0  0  0
   -0.1046    9.4094    0.9825 H   0  0  0  0  0  0  0  0  0  0  0  0
   -0.9929   11.7252    1.6798 H   0  0  0  0  0  0  0  0  0  0  0  0
    0.7723   11.2665    1.9321 H   0  0  0  0  0  0  0  0  0  0  0  0
    0.3165   13.7076    1.0536 H   0  0  0  0  0  0  0  0  0  0  0  0
    0.5123   11.4836   -2.3108 H   0  0  0  0  0  0  0  0  0  0  0  0
    3.4199   11.5985   -1.2975 H   0  0  0  0  0  0  0  0  0  0  0  0
    2.8124   10.7350   -2.7796 H   0  0  0  0  0  0  0  0  0  0  0  0
    3.9265   12.8737   -3.3331 H   0  0  0  0  0  0  0  0  0  0  0  0
    2.1781   12.8499   -3.7891 H   0  0  0  0  0  0  0  0  0  0  0  0
    2.6890   14.9782   -2.8044 H   0  0  0  0  0  0  0  0  0  0  0  0
    3.2590   14.5740   -0.3160 H   0  0  0  0  0  0  0  0  0  0  0  0
   -0.8096   14.5318   -2.0385 H   0  0  0  0  0  0  0  0  0  0  0  0
    0.4212   15.2146   -3.1544 H   0  0  0  0  0  0  0  0  0  0  0  0
    0.0898   13.4492   -3.1544 H   0  0  0  0  0  0  0  0  0  0  0  0
    1.2049   15.0727    0.5262 H   0  0  0  0  0  0  0  0  0  0  0  0
    2.0561   16.0397   -0.7255 H   0  0  0  0  0  0  0  0  0  0  0  0
    0.2620   15.9506   -0.7255 H   0  0  0  0  0  0  0  0  0  0  0  0
    2.0560    9.8332    1.1600 H   0  0  0  0  0  0  0  0  0  0  0  0
    2.5628    8.7337   -0.1670 H   0  0  0  0  0  0  0  0  0  0  0  0
    3.0988   10.4482   -0.1670 H   0  0  0  0  0  0  0  0  0  0  0  0
    1.3887    9.2304   -2.6587 H   0  0  0  0  0  0  0  0  0  0  0  0
    1.0327    8.0824   -1.2478 H   0  0  0  0  0  0  0  0  0  0  0  0
   -0.9640    9.6376   -2.9152 H   0  0  0  0  0  0  0  0  0  0  0  0
   -0.7247    7.8485   -2.8184 H   0  0  0  0  0  0  0  0  0  0  0  0
   -1.3397    7.7241    0.8441 H   0  0  0  0  0  0  0  0  0  0  0  0
   -1.9453    6.6428   -0.4562 H   0  0  0  0  0  0  0  0  0  0  0  0
   -0.2293    7.1737   -0.4562 H   0  0  0  0  0  0  0  0  0  0  0  0
  1  2  1  0
  2  3  1  0
  3  4  1  0
  4  5  1  0
  5  6  1  0
  6  7  1  0
  7  8  1  0
  7  9  1  0
  2 10  1  0
 10 11  1  0
 11 12  1  0
 12 13  1  0
 13 14  1  6
 13 15  1  0
 15 16  1  0
 16 17  1  0
 17 18  2  0
 18 19  1  0
 19 20  1  0
 20 21  1  0
 21 22  1  0
 22 23  1  0
 22 24  1  0
 24 25  1  0
 24 26  1  0
 19 27  1  0
 27 28  1  1
 27 29  1  0
 29 30  1  0
 30 31  1  0
 31 32  1  1
  7  5  1  0
 31 10  1  0
 31 13  1  0
 27 15  1  0
 24 18  1  0
  1 33  1  0
  1 34  1  0
  1 35  1  0
  2 36  1  1
  3 37  1  0
  3 38  1  0
  4 39  1  0
  4 40  1  0
  5 41  1  1
  8 42  1  0
  8 43  1  0
  8 44  1  0
  9 45  1  0
  9 46  1  0
  9 47  1  0
 10 48  1  6
 11 49  1  0
 11 50  1  0
 12 51  1  0
 12 52  1  0
 14 53  1  0
 14 54  1  0
 14 55  1  0
 15 56  1  1
 16 57  1  0
 16 58  1  0
 17 59  1  0
 19 60  1  6
 20 61  1  0
 20 62  1  0
 21 63  1  0
 21 64  1  0
 22 65  1  6
 23 66  1  0
 25 67  1  0
 25 68  1  0
 25 69  1  0
 26 70  1  0
 26 71  1  0
 26 72  1  0
 28 73  1  0
 28 74  1  0
 28 75  1  0
 29 76  1  0
 29 77  1  0
 30 78  1  0
 30 79  1  0
 32 80  1  0
 32 81  1  0
 32 82  1  0
M  END
>  <meeko>  (18) 
{"is_sidechain": [false], "intermolecular_energy": 2.731, "internal_energy": -0.839}

$$$$
EPH_relaxed_0001_pdb2pqr_Repair_414_r2_0001_out
     RDKit          3D

 82 86  0  0  0  0  0  0  0  0999 V2000
   -1.2990   16.2050   -5.6020 C   0  0  0  0  0  0  0  0  0  0  0  0
   -0.0170   15.5800   -6.1590 C   0  0  2  0  0  0  0  0  0  0  0  0
   -0.1400   15.2430   -7.6590 C   0  0  0  0  0  0  0  0  0  0  0  0
    0.3590   16.3570   -8.5830 C   0  0  0  0  0  0  0  0  0  0  0  0
    1.7320   16.0670   -9.1100 C   0  0  2  0  0  0  0  0  0  0  0  0
    2.0640   16.7520  -10.3250 O   0  0  0  0  0  0  0  0  0  0  0  0
    1.9910   15.3190  -10.4040 C   0  0  0  0  0  0  0  0  0  0  0  0
    0.8660   14.8140  -11.2520 C   0  0  0  0  0  0  0  0  0  0  0  0
    3.3200   14.6570  -10.5950 C   0  0  0  0  0  0  0  0  0  0  0  0
    0.3350   14.3250   -5.3700 C   0  0  1  0  0  0  0  0  0  0  0  0
    1.3030   13.3870   -6.1400 C   0  0  0  0  0  0  0  0  0  0  0  0
    2.2320   12.7370   -5.0820 C   0  0  0  0  0  0  0  0  0  0  0  0
    1.5620   13.0580   -3.7250 C   0  0  1  0  0  0  0  0  0  0  0  0
    0.4320   11.9910   -3.5730 C   0  0  0  0  0  0  0  0  0  0  0  0
    2.5040   13.0820   -2.4780 C   0  0  2  0  0  0  0  0  0  0  0  0
    3.1890   11.7440   -2.1510 C   0  0  0  0  0  0  0  0  0  0  0  0
    2.4380   10.8550   -1.2160 C   0  0  0  0  0  0  0  0  0  0  0  0
    1.4050   11.2310   -0.4390 C   0  0  0  0  0  0  0  0  0  0  0  0
    0.9560   12.6960   -0.3810 C   0  0  1  0  0  0  0  0  0  0  0  0
    0.7480   13.1160    1.0980 C   0  0  0  0  0  0  0  0  0  0  0  0
   -0.2040   12.1840    1.8410 C   0  0  0  0  0  0  0  0  0  0  0  0
    0.3060   10.7460    1.8110 C   0  0  2  0  0  0  0  0  0  0  0  0
    1.5140   10.6690    2.5740 O   0  0  0  0  0  0  0  0  0  0  0  0
    0.5620   10.2170    0.3720 C   0  0  0  0  0  0  0  0  0  0  0  0
   -0.7890   10.0150   -0.3560 C   0  0  0  0  0  0  0  0  0  0  0  0
    1.2070    8.8090    0.4890 C   0  0  0  0  0  0  0  0  0  0  0  0
    1.8550   13.7290   -1.1880 C   0  0  1  0  0  0  0  0  0  0  0  0
    3.0350   14.2190   -0.2940 C   0  0  0  0  0  0  0  0  0  0  0  0
    0.9960   15.0050   -1.5260 C   0  0  0  0  0  0  0  0  0  0  0  0
    0.1800   14.9660   -2.8320 C   0  0  0  0  0  0  0  0  0  0  0  0
    1.0510   14.5170   -4.0090 C   0  0  2  0  0  0  0  0  0  0  0  0
    2.1830   15.5830   -4.2010 C   0  0  0  0  0  0  0  0  0  0  0  0
   -1.2669   16.1893   -4.5026 H   0  0  0  0  0  0  0  0  0  0  0  0
   -1.3820   17.2446   -5.9516 H   0  0  0  0  0  0  0  0  0  0  0  0
   -2.1691   15.6300   -5.9516 H   0  0  0  0  0  0  0  0  0  0  0  0
    0.7870   16.3231   -6.0524 H   0  0  0  0  0  0  0  0  0  0  0  0
    0.4479   14.3354   -7.8604 H   0  0  0  0  0  0  0  0  0  0  0  0
   -1.2106   15.1052   -7.8708 H   0  0  0  0  0  0  0  0  0  0  0  0
   -0.3350   16.4545   -9.4309 H   0  0  0  0  0  0  0  0  0  0  0  0
    0.4048   17.2898   -8.0017 H   0  0  0  0  0  0  0  0  0  0  0  0
    2.1205   15.9323   -8.0897 H   0  0  0  0  0  0  0  0  0  0  0  0
    0.0543   14.4496  -10.6052 H   0  0  0  0  0  0  0  0  0  0  0  0
    0.4906   15.6300  -11.8870 H   0  0  0  0  0  0  0  0  0  0  0  0
    1.2262   13.9912  -11.8870 H   0  0  0  0  0  0  0  0  0  0  0  0
    3.7640   14.4359   -9.6132 H   0  0  0  0  0  0  0  0  0  0  0  0
    3.1858   13.7204  -11.1561 H   0  0  0  0  0  0  0  0  0  0  0  0
    3.9868   15.3283  -11.1561 H   0  0  0  0  0  0  0  0  0  0  0  0
   -0.6748   13.9193   -5.2097 H   0  0  0  0  0  0  0  0  0  0  0  0
    0.7344   12.6107   -6.6729 H   0  0  0  0  0  0  0  0  0  0  0  0
    1.8855   13.9471   -6.8864 H   0  0  0  0  0  0  0  0  0  0  0  0
    2.2953   11.6497   -5.2363 H   0  0  0  0  0  0  0  0  0  0  0  0
    3.2618   13.1193   -5.1397 H   0  0  0  0  0  0  0  0  0  0  0  0
    0.2401   11.8098   -2.5051 H   0  0  0  0  0  0  0  0  0  0  0  0
   -0.4867   12.3588   -4.0534 H   0  0  0  0  0  0  0  0  0  0  0  0
    0.7466   11.0528   -4.0534 H   0  0  0  0  0  0  0  0  0  0  0  0
    3.3087   13.7573   -2.8041 H   0  0  0  0  0  0  0  0  0  0  0  0
    3.3363   11.1980   -3.0945 H   0  0  0  0  0  0  0  0  0  0  0  0
    4.1283   12.0001   -1.6390 H   0  0  0  0  0  0  0  0  0  0  0  0
    2.7557    9.8035   -1.1569 H   0  0  0  0  0  0  0  0  0  0  0  0
   -0.0017   12.7420   -0.9201 H   0  0  0  0  0  0  0  0  0  0  0  0
    1.7224   13.1050    1.6083 H   0  0  0  0  0  0  0  0  0  0  0  0
    0.3017   14.1214    1.1006 H   0  0  0  0  0  0  0  0  0  0  0  0
   -0.2880   12.5144    2.8868 H   0  0  0  0  0  0  0  0  0  0  0  0
   -1.1860   12.2185    1.3466 H   0  0  0  0  0  0  0  0  0  0  0  0
   -0.4786   10.1086    2.2446 H   0  0  0  0  0  0  0  0  0  0  0  0
    1.3090   10.2060    3.4040 H   0  0  0  0  0  0  0  0  0  0  0  0
   -1.5914    9.8950    0.3868 H   0  0  0  0  0  0  0  0  0  0  0  0
   -1.0006   10.8915   -0.9861 H   0  0  0  0  0  0  0  0  0  0  0  0
   -0.7350    9.1149   -0.9861 H   0  0  0  0  0  0  0  0  0  0  0  0
    1.3267    8.5476    1.5508 H   0  0  0  0  0  0  0  0  0  0  0  0
    0.5590    8.0670   -0.0005 H   0  0  0  0  0  0  0  0  0  0  0  0
    2.1921    8.8151   -0.0005 H   0  0  0  0  0  0  0  0  0  0  0  0
    2.7634   14.1062    0.7659 H   0  0  0  0  0  0  0  0  0  0  0  0
    3.9315   13.6188   -0.5087 H   0  0  0  0  0  0  0  0  0  0  0  0
    3.2426   15.2777   -0.5087 H   0  0  0  0  0  0  0  0  0  0  0  0
    0.2900   15.1603   -0.6968 H   0  0  0  0  0  0  0  0  0  0  0  0
    1.7266   15.8152   -1.6667 H   0  0  0  0  0  0  0  0  0  0  0  0
   -0.6558   14.2608   -2.7132 H   0  0  0  0  0  0  0  0  0  0  0  0
   -0.1970   15.9781   -3.0405 H   0  0  0  0  0  0  0  0  0  0  0  0
    2.5404   15.9196   -3.2167 H   0  0  0  0  0  0  0  0  0  0  0  0
    3.0174   15.1351   -4.7606 H   0  0  0  0  0  0  0  0  0  0  0  0
    1.7859   16.4428   -4.7606 H   0  0  0  0  0  0  0  0  0  0  0  0
  1  2  1  0
  2  3  1  0
  3  4  1  0
  4  5  1  0
  5  6  1  0
  6  7  1  0
  7  8  1  0
  7  9  1  0
  2 10  1  0
 10 11  1  0
 11 12  1  0
 12 13  1  0
 13 14  1  1
 13 15  1  0
 15 16  1  0
 16 17  1  0
 17 18  2  0
 18 19  1  0
 19 20  1  0
 20 21  1  0
 21 22  1  0
 22 23  1  0
 22 24  1  0
 24 25  1  0
 24 26  1  0
 19 27  1  0
 27 28  1  1
 27 29  1  0
 29 30  1  0
 30 31  1  0
 31 32  1  6
  7  5  1  0
 31 10  1  0
 31 13  1  0
 27 15  1  0
 24 18  1  0
  1 33  1  0
  1 34  1  0
  1 35  1  0
  2 36  1  6
  3 37  1  0
  3 38  1  0
  4 39  1  0
  4 40  1  0
  5 41  1  1
  8 42  1  0
  8 43  1  0
  8 44  1  0
  9 45  1  0
  9 46  1  0
  9 47  1  0
 10 48  1  1
 11 49  1  0
 11 50  1  0
 12 51  1  0
 12 52  1  0
 14 53  1  0
 14 54  1  0
 14 55  1  0
 15 56  1  6
 16 57  1  0
 16 58  1  0
 17 59  1  0
 19 60  1  6
 20 61  1  0
 20 62  1  0
 21 63  1  0
 21 64  1  0
 22 65  1  1
 23 66  1  0
 25 67  1  0
 25 68  1  0
 25 69  1  0
 26 70  1  0
 26 71  1  0
 26 72  1  0
 28 73  1  0
 28 74  1  0
 28 75  1  0
 29 76  1  0
 29 77  1  0
 30 78  1  0
 30 79  1  0
 32 80  1  0
 32 81  1  0
 32 82  1  0
M  END
>  <meeko>  (19) 
{"is_sidechain": [false], "intermolecular_energy": 2.731, "internal_energy": -0.839}

$$$$
EPH_relaxed_0001_pdb2pqr_Repair_414_r2_0001_out
     RDKit          3D

 82 86  0  0  0  0  0  0  0  0999 V2000
    0.8510   15.5130   -3.9950 C   0  0  0  0  0  0  0  0  0  0  0  0
    0.8800   16.1890   -2.6210 C   0  0  2  0  0  0  0  0  0  0  0  0
    2.1820   16.9810   -2.3900 C   0  0  0  0  0  0  0  0  0  0  0  0
    1.9770   18.4960   -2.3200 C   0  0  0  0  0  0  0  0  0  0  0  0
    0.7400   18.8530   -1.5520 C   0  0  2  0  0  0  0  0  0  0  0  0
    0.7150   20.1940   -1.0460 O   0  0  0  0  0  0  0  0  0  0  0  0
    0.7340   19.1460   -0.0640 C   0  0  0  0  0  0  0  0  0  0  0  0
    1.9920   19.0950    0.7460 C   0  0  0  0  0  0  0  0  0  0  0  0
   -0.5510   19.0020    0.6900 C   0  0  0  0  0  0  0  0  0  0  0  0
    0.7040   15.1440   -1.5250 C   0  0  1  0  0  0  0  0  0  0  0  0
   -0.7540   15.0680   -1.0000 C   0  0  0  0  0  0  0  0  0  0  0  0
   -1.0290   13.5820   -0.6560 C   0  0  0  0  0  0  0  0  0  0  0  0
    0.3650   12.9120   -0.6760 C   0  0  1  0  0  0  0  0  0  0  0  0
    0.9920   13.2490    0.7130 C   0  0  0  0  0  0  0  0  0  0  0  0
    0.3900   11.3760   -0.9640 C   0  0  2  0  0  0  0  0  0  0  0  0
   -0.3320   10.5050    0.0790 C   0  0  0  0  0  0  0  0  0  0  0  0
    0.5190   10.0230    1.2070 C   0  0  0  0  0  0  0  0  0  0  0  0
    1.8650   10.0370    1.2320 C   0  0  0  0  0  0  0  0  0  0  0  0
    2.6710   10.4840    0.0060 C   0  0  1  0  0  0  0  0  0  0  0  0
    3.8180    9.4730   -0.2570 C   0  0  0  0  0  0  0  0  0  0  0  0
    4.6960    9.2520    0.9700 C   0  0  0  0  0  0  0  0  0  0  0  0
    3.8680    8.7520    2.1510 C   0  0  2  0  0  0  0  0  0  0  0  0
    3.3790    7.4420    1.8490 O   0  0  0  0  0  0  0  0  0  0  0  0
    2.6770    9.6860    2.5030 C   0  0  0  0  0  0  0  0  0  0  0  0
    3.2120   11.0030    3.1170 C   0  0  0  0  0  0  0  0  0  0  0  0
    1.8420    8.9970    3.6160 C   0  0  0  0  0  0  0  0  0  0  0  0
    1.8260   10.8020   -1.3010 C   0  0  1  0  0  0  0  0  0  0  0  0
    1.6020    9.4950   -2.1210 C   0  0  0  0  0  0  0  0  0  0  0  0
    2.6540   11.7700   -2.2270 C   0  0  0  0  0  0  0  0  0  0  0  0
    2.4950   13.2810   -1.9710 C   0  0  0  0  0  0  0  0  0  0  0  0
    1.0160   13.6710   -1.8900 C   0  0  2  0  0  0  0  0  0  0  0  0
    0.3640   13.3650   -3.2810 C   0  0  0  0  0  0  0  0  0  0  0  0
    0.8042   14.4216   -3.8658 H   0  0  0  0  0  0  0  0  0  0  0  0
   -0.0333   15.8544   -4.5530 H   0  0  0  0  0  0  0  0  0  0  0  0
    1.7613   15.7774   -4.5530 H   0  0  0  0  0  0  0  0  0  0  0  0
    0.0476   16.9073   -2.5878 H   0  0  0  0  0  0  0  0  0  0  0  0
    2.6280   16.6468   -1.4416 H   0  0  0  0  0  0  0  0  0  0  0  0
    2.8348   16.7848   -3.2533 H   0  0  0  0  0  0  0  0  0  0  0  0
    2.8476   18.9511   -1.8252 H   0  0  0  0  0  0  0  0  0  0  0  0
    1.8646   18.8747   -3.3466 H   0  0  0  0  0  0  0  0  0  0  0  0
    0.1320   18.1793   -2.1737 H   0  0  0  0  0  0  0  0  0  0  0  0
    1.7394   19.1052    1.8166 H   0  0  0  0  0  0  0  0  0  0  0  0
    2.5441   18.1737    0.5083 H   0  0  0  0  0  0  0  0  0  0  0  0
    2.6168   19.9686    0.5083 H   0  0  0  0  0  0  0  0  0  0  0  0
   -0.3466   19.0249    1.7706 H   0  0  0  0  0  0  0  0  0  0  0  0
   -1.2254   19.8302    0.4268 H   0  0  0  0  0  0  0  0  0  0  0  0
   -1.0253   18.0451    0.4268 H   0  0  0  0  0  0  0  0  0  0  0  0
    1.4401   15.5154   -0.7969 H   0  0  0  0  0  0  0  0  0  0  0  0
   -0.8658   15.6918   -0.1009 H   0  0  0  0  0  0  0  0  0  0  0  0
   -1.4649   15.4367   -1.7541 H   0  0  0  0  0  0  0  0  0  0  0  0
   -1.4885   13.4925    0.3394 H   0  0  0  0  0  0  0  0  0  0  0  0
   -1.7275   13.1124   -1.3642 H   0  0  0  0  0  0  0  0  0  0  0  0
    0.3263   12.8912    1.5123 H   0  0  0  0  0  0  0  0  0  0  0  0
    1.9710   12.7555    0.8028 H   0  0  0  0  0  0  0  0  0  0  0  0
    1.1206   14.3378    0.8028 H   0  0  0  0  0  0  0  0  0  0  0  0
   -0.2081   11.2994   -1.8840 H   0  0  0  0  0  0  0  0  0  0  0  0
   -1.1562   11.0967    0.5039 H   0  0  0  0  0  0  0  0  0  0  0  0
   -0.6664    9.6040   -0.4562 H   0  0  0  0  0  0  0  0  0  0  0  0
    0.0029    9.6228    2.0921 H   0  0  0  0  0  0  0  0  0  0  0  0
    3.0922   11.4675    0.2615 H   0  0  0  0  0  0  0  0  0  0  0  0
    3.3777    8.5096   -0.5536 H   0  0  0  0  0  0  0  0  0  0  0  0
    4.4541    9.8894   -1.0519 H   0  0  0  0  0  0  0  0  0  0  0  0
    5.4682    8.5061    0.7304 H   0  0  0  0  0  0  0  0  0  0  0  0
    5.1594   10.2104    1.2471 H   0  0  0  0  0  0  0  0  0  0  0  0
    4.5258    8.7371    3.0325 H   0  0  0  0  0  0  0  0  0  0  0  0
    3.2880    7.3770    0.8830 H   0  0  0  0  0  0  0  0  0  0  0  0
    3.1839   10.9339    4.2145 H   0  0  0  0  0  0  0  0  0  0  0  0
    4.2482   11.1673    2.7864 H   0  0  0  0  0  0  0  0  0  0  0  0
    2.5840   11.8434    2.7864 H   0  0  0  0  0  0  0  0  0  0  0  0
    2.2182    9.3074    4.6019 H   0  0  0  0  0  0  0  0  0  0  0  0
    0.7865    9.2905    3.5173 H   0  0  0  0  0  0  0  0  0  0  0  0
    1.9297    7.9050    3.5173 H   0  0  0  0  0  0  0  0  0  0  0  0
    1.4572    8.6500   -1.4318 H   0  0  0  0  0  0  0  0  0  0  0  0
    0.7102    9.6081   -2.7549 H   0  0  0  0  0  0  0  0  0  0  0  0
    2.4806    9.3047   -2.7549 H   0  0  0  0  0  0  0  0  0  0  0  0
    3.7181   11.5214   -2.1014 H   0  0  0  0  0  0  0  0  0  0  0  0
    2.2590   11.6066   -3.2405 H   0  0  0  0  0  0  0  0  0  0  0  0
    2.9876   13.5389   -1.0219 H   0  0  0  0  0  0  0  0  0  0  0  0
    2.9568   13.8285   -2.8059 H   0  0  0  0  0  0  0  0  0  0  0  0
   -0.6223   12.9021   -3.1297 H   0  0  0  0  0  0  0  0  0  0  0  0
    0.2466   14.3021   -3.8450 H   0  0  0  0  0  0  0  0  0  0  0  0
    1.0098   12.6760   -3.8450 H   0  0  0  0  0  0  0  0  0  0  0  0
  1  2  1  0
  2  3  1  0
  3  4  1  0
  4  5  1  0
  5  6  1  0
  6  7  1  0
  7  8  1  0
  7  9  1  0
  2 10  1  0
 10 11  1  0
 11 12  1  0
 12 13  1  0
 13 14  1  1
 13 15  1  0
 15 16  1  0
 16 17  1  0
 17 18  2  0
 18 19  1  0
 19 20  1  0
 20 21  1  0
 21 22  1  0
 22 23  1  0
 22 24  1  0
 24 25  1  0
 24 26  1  0
 19 27  1  0
 27 28  1  6
 27 29  1  0
 29 30  1  0
 30 31  1  0
 31 32  1  6
  7  5  1  0
 31 10  1  0
 31 13  1  0
 27 15  1  0
 24 18  1  0
  1 33  1  0
  1 34  1  0
  1 35  1  0
  2 36  1  6
  3 37  1  0
  3 38  1  0
  4 39  1  0
  4 40  1  0
  5 41  1  6
  8 42  1  0
  8 43  1  0
  8 44  1  0
  9 45  1  0
  9 46  1  0
  9 47  1  0
 10 48  1  1
 11 49  1  0
 11 50  1  0
 12 51  1  0
 12 52  1  0
 14 53  1  0
 14 54  1  0
 14 55  1  0
 15 56  1  6
 16 57  1  0
 16 58  1  0
 17 59  1  0
 19 60  1  1
 20 61  1  0
 20 62  1  0
 21 63  1  0
 21 64  1  0
 22 65  1  1
 23 66  1  0
 25 67  1  0
 25 68  1  0
 25 69  1  0
 26 70  1  0
 26 71  1  0
 26 72  1  0
 28 73  1  0
 28 74  1  0
 28 75  1  0
 29 76  1  0
 29 77  1  0
 30 78  1  0
 30 79  1  0
 32 80  1  0
 32 81  1  0
 32 82  1  0
M  END
>  <meeko>  (20) 
{"is_sidechain": [false], "intermolecular_energy": 2.731, "internal_energy": -0.839}

$$$$
