EPH_relaxed_0001_pdb2pqr_Repair_1_r2_0001_out
     RDKit          3D

 82 86  0  0  0  0  0  0  0  0999 V2000
   -1.6030    8.5790   -1.8410 C   0  0  0  0  0  0  0  0  0  0  0  0
   -2.0190    9.1570   -0.4860 C   0  0  2  0  0  0  0  0  0  0  0  0
   -3.5080    9.5590   -0.4590 C   0  0  0  0  0  0  0  0  0  0  0  0
   -4.4640    8.3700   -0.3320 C   0  0  0  0  0  0  0  0  0  0  0  0
   -5.0950    8.0230   -1.6460 C   0  0  2  0  0  0  0  0  0  0  0  0
   -6.3670    8.6410   -1.8810 O   0  0  0  0  0  0  0  0  0  0  0  0
   -6.3680    7.2080   -1.7740 C   0  0  0  0  0  0  0  0  0  0  0  0
   -7.0870    6.6890   -0.5680 C   0  0  0  0  0  0  0  0  0  0  0  0
   -6.6420    6.5070   -3.0680 C   0  0  0  0  0  0  0  0  0  0  0  0
   -1.1490   10.3610   -0.1450 C   0  0  1  0  0  0  0  0  0  0  0  0
   -0.0820   10.0400    0.9360 C   0  0  0  0  0  0  0  0  0  0  0  0
    1.1770   10.8730    0.5830 C   0  0  0  0  0  0  0  0  0  0  0  0
    0.6900   11.8850   -0.4800 C   0  0  1  0  0  0  0  0  0  0  0  0
    0.0090   13.0280    0.3370 C   0  0  0  0  0  0  0  0  0  0  0  0
    1.7780   12.4420   -1.4550 C   0  0  2  0  0  0  0  0  0  0  0  0
    2.9040   13.2480   -0.7830 C   0  0  0  0  0  0  0  0  0  0  0  0
    2.6560   14.7160   -0.6700 C   0  0  0  0  0  0  0  0  0  0  0  0
    1.7110   15.4040   -1.3380 C   0  0  0  0  0  0  0  0  0  0  0  0
    0.8320   14.7160   -2.3900 C   0  0  1  0  0  0  0  0  0  0  0  0
    0.7630   15.5980   -3.6640 C   0  0  0  0  0  0  0  0  0  0  0  0
    0.3090   17.0230   -3.3660 C   0  0  0  0  0  0  0  0  0  0  0  0
    1.2410   17.6930   -2.3600 C   0  0  2  0  0  0  0  0  0  0  0  0
    2.5240   17.8710   -2.9690 O   0  0  0  0  0  0  0  0  0  0  0  0
    1.3960   16.8900   -1.0380 C   0  0  0  0  0  0  0  0  0  0  0  0
    0.0760   16.9550   -0.2320 C   0  0  0  0  0  0  0  0  0  0  0  0
    2.4700   17.6020   -0.1710 C   0  0  0  0  0  0  0  0  0  0  0  0
    1.1940   13.2020   -2.7130 C   0  0  1  0  0  0  0  0  0  0  0  0
    2.2910   13.1430   -3.8190 C   0  0  0  0  0  0  0  0  0  0  0  0
   -0.0760   12.4860   -3.3090 C   0  0  0  0  0  0  0  0  0  0  0  0
   -1.0530   11.8520   -2.3000 C   0  0  0  0  0  0  0  0  0  0  0  0
   -0.3050   10.9760   -1.2900 C   0  0  2  0  0  0  0  0  0  0  0  0
    0.3710    9.8050   -2.0800 C   0  0  0  0  0  0  0  0  0  0  0  0
   -0.9671    7.6954   -1.6831 H   0  0  0  0  0  0  0  0  0  0  0  0
   -2.5005    8.2884   -2.4068 H   0  0  0  0  0  0  0  0  0  0  0  0
   -1.0425    9.3378   -2.4068 H   0  0  0  0  0  0  0  0  0  0  0  0
   -1.8754    8.3690    0.2680 H   0  0  0  0  0  0  0  0  0  0  0  0
   -3.6714   10.2291    0.3979 H   0  0  0  0  0  0  0  0  0  0  0  0
   -3.7270   10.0464   -1.4205 H   0  0  0  0  0  0  0  0  0  0  0  0
   -3.9020    7.4984    0.0347 H   0  0  0  0  0  0  0  0  0  0  0  0
   -5.2643    8.6471    0.3700 H   0  0  0  0  0  0  0  0  0  0  0  0
   -4.1076    7.9281   -2.1215 H   0  0  0  0  0  0  0  0  0  0  0  0
   -6.5856    7.0509    0.3418 H   0  0  0  0  0  0  0  0  0  0  0  0
   -8.1275    7.0456   -0.5798 H   0  0  0  0  0  0  0  0  0  0  0  0
   -7.0762    5.5891   -0.5798 H   0  0  0  0  0  0  0  0  0  0  0  0
   -7.0355    5.5003   -2.8635 H   0  0  0  0  0  0  0  0  0  0  0  0
   -7.3824    7.0797   -3.6457 H   0  0  0  0  0  0  0  0  0  0  0  0
   -5.7094    6.4258   -3.6457 H   0  0  0  0  0  0  0  0  0  0  0  0
   -1.9296   11.0694    0.1694 H   0  0  0  0  0  0  0  0  0  0  0  0
   -0.4552   10.3211    1.9318 H   0  0  0  0  0  0  0  0  0  0  0  0
    0.1488    8.9647    0.9561 H   0  0  0  0  0  0  0  0  0  0  0  0
    1.5578   11.3969    1.4721 H   0  0  0  0  0  0  0  0  0  0  0  0
    2.0022   10.2459    0.2146 H   0  0  0  0  0  0  0  0  0  0  0  0
    0.1268   12.8302    1.4126 H   0  0  0  0  0  0  0  0  0  0  0  0
    0.4818   13.9892    0.0870 H   0  0  0  0  0  0  0  0  0  0  0  0
   -1.0614   13.0698    0.0870 H   0  0  0  0  0  0  0  0  0  0  0  0
    2.2512   11.5228   -1.8306 H   0  0  0  0  0  0  0  0  0  0  0  0
    3.0494   12.8485    0.2315 H   0  0  0  0  0  0  0  0  0  0  0  0
    3.7865   13.1369   -1.4302 H   0  0  0  0  0  0  0  0  0  0  0  0
    3.3002   15.2837    0.0175 H   0  0  0  0  0  0  0  0  0  0  0  0
   -0.1689   14.6301   -1.9418 H   0  0  0  0  0  0  0  0  0  0  0  0
    1.7626   15.6350   -4.1216 H   0  0  0  0  0  0  0  0  0  0  0  0
    0.0233   15.1473   -4.3420 H   0  0  0  0  0  0  0  0  0  0  0  0
    0.3100   17.6040   -4.3001 H   0  0  0  0  0  0  0  0  0  0  0  0
   -0.7032   16.9866   -2.9369 H   0  0  0  0  0  0  0  0  0  0  0  0
    0.7926   18.6598   -2.0876 H   0  0  0  0  0  0  0  0  0  0  0  0
    2.5310   18.7480   -3.3890 H   0  0  0  0  0  0  0  0  0  0  0  0
    0.3027   16.9438    0.8443 H   0  0  0  0  0  0  0  0  0  0  0  0
   -0.4622   17.8807   -0.4838 H   0  0  0  0  0  0  0  0  0  0  0  0
   -0.5505   16.0866   -0.4838 H   0  0  0  0  0  0  0  0  0  0  0  0
    2.2410   17.4502    0.8941 H   0  0  0  0  0  0  0  0  0  0  0  0
    3.4611   17.1815   -0.3965 H   0  0  0  0  0  0  0  0  0  0  0  0
    2.4686   18.6786   -0.3965 H   0  0  0  0  0  0  0  0  0  0  0  0
    3.2838   13.0896   -3.3483 H   0  0  0  0  0  0  0  0  0  0  0  0
    2.1334   12.2520   -4.4446 H   0  0  0  0  0  0  0  0  0  0  0  0
    2.2299   14.0457   -4.4446 H   0  0  0  0  0  0  0  0  0  0  0  0
   -0.6365   13.2324   -3.8911 H   0  0  0  0  0  0  0  0  0  0  0  0
    0.3175   11.6438   -3.8972 H   0  0  0  0  0  0  0  0  0  0  0  0
   -1.5825   12.6512   -1.7607 H   0  0  0  0  0  0  0  0  0  0  0  0
   -1.7666   11.2216   -2.8508 H   0  0  0  0  0  0  0  0  0  0  0  0
    0.7909    9.0777   -1.3695 H   0  0  0  0  0  0  0  0  0  0  0  0
   -0.3793    9.3083   -2.7127 H   0  0  0  0  0  0  0  0  0  0  0  0
    1.1763   10.2064   -2.7127 H   0  0  0  0  0  0  0  0  0  0  0  0
  1  2  1  0
  2  3  1  0
  3  4  1  0
  4  5  1  0
  5  6  1  0
  6  7  1  0
  7  8  1  0
  7  9  1  0
  2 10  1  0
 10 11  1  0
 11 12  1  0
 12 13  1  0
 13 14  1  1
 13 15  1  0
 15 16  1  0
 16 17  1  0
 17 18  2  0
 18 19  1  0
 19 20  1  0
 20 21  1  0
 21 22  1  0
 22 23  1  0
 22 24  1  0
 24 25  1  0
 24 26  1  0
 19 27  1  0
 27 28  1  6
 27 29  1  0
 29 30  1  0
 30 31  1  0
 31 32  1  6
  7  5  1  0
 31 10  1  0
 31 13  1  0
 27 15  1  0
 24 18  1  0
  1 33  1  0
  1 34  1  0
  1 35  1  0
  2 36  1  1
  3 37  1  0
  3 38  1  0
  4 39  1  0
  4 40  1  0
  5 41  1  6
  8 42  1  0
  8 43  1  0
  8 44  1  0
  9 45  1  0
  9 46  1  0
  9 47  1  0
 10 48  1  1
 11 49  1  0
 11 50  1  0
 12 51  1  0
 12 52  1  0
 14 53  1  0
 14 54  1  0
 14 55  1  0
 15 56  1  6
 16 57  1  0
 16 58  1  0
 17 59  1  0
 19 60  1  1
 20 61  1  0
 20 62  1  0
 21 63  1  0
 21 64  1  0
 22 65  1  1
 23 66  1  0
 25 67  1  0
 25 68  1  0
 25 69  1  0
 26 70  1  0
 26 71  1  0
 26 72  1  0
 28 73  1  0
 28 74  1  0
 28 75  1  0
 29 76  1  0
 29 77  1  0
 30 78  1  0
 30 79  1  0
 32 80  1  0
 32 81  1  0
 32 82  1  0
M  END
>  <meeko>  (1) 
{"is_sidechain": [false], "intermolecular_energy": 2.731, "internal_energy": -0.839}

$$$$
EPH_relaxed_0001_pdb2pqr_Repair_1_r2_0001_out
     RDKit          3D

 82 86  0  0  0  0  0  0  0  0999 V2000
    4.2380   17.5520   -0.5530 C   0  0  0  0  0  0  0  0  0  0  0  0
    2.8700   18.1190   -0.1630 C   0  0  2  0  0  0  0  0  0  0  0  0
    2.9000   18.8100    1.2160 C   0  0  0  0  0  0  0  0  0  0  0  0
    4.2500   18.7030    1.9290 C   0  0  0  0  0  0  0  0  0  0  0  0
    4.1800   19.2290    3.3310 C   0  0  2  0  0  0  0  0  0  0  0  0
    5.1880   20.1940    3.6590 O   0  0  0  0  0  0  0  0  0  0  0  0
    5.2390   18.9530    4.3820 C   0  0  0  0  0  0  0  0  0  0  0  0
    6.4440   18.1200    4.0750 C   0  0  0  0  0  0  0  0  0  0  0  0
    4.8650   19.0800    5.8250 C   0  0  0  0  0  0  0  0  0  0  0  0
    1.8270   17.0080   -0.1670 C   0  0  1  0  0  0  0  0  0  0  0  0
    0.3970   17.5320   -0.4680 C   0  0  0  0  0  0  0  0  0  0  0  0
   -0.3200   16.4290   -1.2870 C   0  0  0  0  0  0  0  0  0  0  0  0
    0.5890   15.1860   -1.1470 C   0  0  1  0  0  0  0  0  0  0  0  0
    0.2190   14.5730    0.2400 C   0  0  0  0  0  0  0  0  0  0  0  0
    0.4900   14.1250   -2.2910 C   0  0  2  0  0  0  0  0  0  0  0  0
   -0.8880   13.4580   -2.4460 C   0  0  0  0  0  0  0  0  0  0  0  0
   -1.0840   12.2090   -1.6530 C   0  0  0  0  0  0  0  0  0  0  0  0
   -0.1060   11.4880   -1.0740 C   0  0  0  0  0  0  0  0  0  0  0  0
    1.3690   11.8610   -1.2710 C   0  0  1  0  0  0  0  0  0  0  0  0
    2.1850   10.5850   -1.6080 C   0  0  0  0  0  0  0  0  0  0  0  0
    1.9960    9.4790   -0.5740 C   0  0  0  0  0  0  0  0  0  0  0  0
    0.5240    9.0960   -0.4490 C   0  0  2  0  0  0  0  0  0  0  0  0
    0.1010    8.4870   -1.6720 O   0  0  0  0  0  0  0  0  0  0  0  0
   -0.3980   10.3030   -0.1200 C   0  0  0  0  0  0  0  0  0  0  0  0
   -0.1410   10.7740    1.3330 C   0  0  0  0  0  0  0  0  0  0  0  0
   -1.8680    9.8070   -0.1610 C   0  0  0  0  0  0  0  0  0  0  0  0
    1.6540   13.0530   -2.2830 C   0  0  1  0  0  0  0  0  0  0  0  0
    1.7610   12.5010   -3.7380 C   0  0  0  0  0  0  0  0  0  0  0  0
    3.0530   13.6910   -1.9460 C   0  0  0  0  0  0  0  0  0  0  0  0
    3.0680   14.8160   -0.8930 C   0  0  0  0  0  0  0  0  0  0  0  0
    2.0020   15.8710   -1.2040 C   0  0  2  0  0  0  0  0  0  0  0  0
    2.3610   16.5210   -2.5840 C   0  0  0  0  0  0  0  0  0  0  0  0
    4.8095   17.3151    0.3565 H   0  0  0  0  0  0  0  0  0  0  0  0
    4.0997   16.6371   -1.1478 H   0  0  0  0  0  0  0  0  0  0  0  0
    4.7874   18.2965   -1.1478 H   0  0  0  0  0  0  0  0  0  0  0  0
    2.6025   18.8821   -0.9087 H   0  0  0  0  0  0  0  0  0  0  0  0
    2.6649   19.8754    1.0757 H   0  0  0  0  0  0  0  0  0  0  0  0
    2.1609   18.2967    1.8487 H   0  0  0  0  0  0  0  0  0  0  0  0
    4.5542   17.6463    1.9595 H   0  0  0  0  0  0  0  0  0  0  0  0
    4.9808   19.3078    1.3720 H   0  0  0  0  0  0  0  0  0  0  0  0
    3.0852   19.1228    3.3414 H   0  0  0  0  0  0  0  0  0  0  0  0
    6.9142   17.7950    5.0148 H   0  0  0  0  0  0  0  0  0  0  0  0
    6.1410   17.2376    3.4923 H   0  0  0  0  0  0  0  0  0  0  0  0
    7.1624   18.7152    3.4923 H   0  0  0  0  0  0  0  0  0  0  0  0
    5.7205   18.7895    6.4525 H   0  0  0  0  0  0  0  0  0  0  0  0
    4.5885   20.1224    6.0418 H   0  0  0  0  0  0  0  0  0  0  0  0
    4.0110   18.4215    6.0418 H   0  0  0  0  0  0  0  0  0  0  0  0
    1.9731   16.6152    0.8500 H   0  0  0  0  0  0  0  0  0  0  0  0
   -0.1438   17.7181    0.4716 H   0  0  0  0  0  0  0  0  0  0  0  0
    0.4327   18.4787   -1.0269 H   0  0  0  0  0  0  0  0  0  0  0  0
   -1.3198   16.2273   -0.8749 H   0  0  0  0  0  0  0  0  0  0  0  0
   -0.4697   16.7201   -2.3372 H   0  0  0  0  0  0  0  0  0  0  0  0
    0.6083   15.2180    1.0415 H   0  0  0  0  0  0  0  0  0  0  0  0
   -0.8750   14.4986    0.3280 H   0  0  0  0  0  0  0  0  0  0  0  0
    0.6629   13.5704    0.3280 H   0  0  0  0  0  0  0  0  0  0  0  0
    0.6271   14.7385   -3.1937 H   0  0  0  0  0  0  0  0  0  0  0  0
   -1.6538   14.1830   -2.1331 H   0  0  0  0  0  0  0  0  0  0  0  0
   -0.9664   13.1632   -3.5028 H   0  0  0  0  0  0  0  0  0  0  0  0
   -2.1155   11.8468   -1.5314 H   0  0  0  0  0  0  0  0  0  0  0  0
    1.7080   12.2784   -0.3114 H   0  0  0  0  0  0  0  0  0  0  0  0
    1.8616   10.2088   -2.5898 H   0  0  0  0  0  0  0  0  0  0  0  0
    3.2498   10.8609   -1.6107 H   0  0  0  0  0  0  0  0  0  0  0  0
    2.5732    8.5949   -0.8827 H   0  0  0  0  0  0  0  0  0  0  0  0
    2.3477    9.8461    0.4015 H   0  0  0  0  0  0  0  0  0  0  0  0
    0.4362    8.3958    0.3948 H   0  0  0  0  0  0  0  0  0  0  0  0
    0.5410    7.6220   -1.7380 H   0  0  0  0  0  0  0  0  0  0  0  0
   -0.5462   10.0315    2.0362 H   0  0  0  0  0  0  0  0  0  0  0  0
    0.9412   10.8823    1.4973 H   0  0  0  0  0  0  0  0  0  0  0  0
   -0.6356   11.7427    1.4973 H   0  0  0  0  0  0  0  0  0  0  0  0
   -2.2413    9.6811    0.8660 H   0  0  0  0  0  0  0  0  0  0  0  0
   -2.4895   10.5452   -0.6891 H   0  0  0  0  0  0  0  0  0  0  0  0
   -1.9152    8.8432   -0.6891 H   0  0  0  0  0  0  0  0  0  0  0  0
    1.9702   11.4216   -3.7062 H   0  0  0  0  0  0  0  0  0  0  0  0
    0.8124   12.6752   -4.2669 H   0  0  0  0  0  0  0  0  0  0  0  0
    2.5758   13.0170   -4.2669 H   0  0  0  0  0  0  0  0  0  0  0  0
    3.7071   12.8852   -1.5815 H   0  0  0  0  0  0  0  0  0  0  0  0
    3.3849   14.1670   -2.8805 H   0  0  0  0  0  0  0  0  0  0  0  0
    2.8682   14.3837    0.0986 H   0  0  0  0  0  0  0  0  0  0  0  0
    4.0559   15.2995   -0.9098 H   0  0  0  0  0  0  0  0  0  0  0  0
    2.8865   17.4725   -2.4155 H   0  0  0  0  0  0  0  0  0  0  0  0
    3.0104   15.8391   -3.1526 H   0  0  0  0  0  0  0  0  0  0  0  0
    1.4380   16.7076   -3.1526 H   0  0  0  0  0  0  0  0  0  0  0  0
  1  2  1  0
  2  3  1  0
  3  4  1  0
  4  5  1  0
  5  6  1  0
  6  7  1  0
  7  8  1  0
  7  9  1  0
  2 10  1  0
 10 11  1  0
 11 12  1  0
 12 13  1  0
 13 14  1  1
 13 15  1  0
 15 16  1  0
 16 17  1  0
 17 18  2  0
 18 19  1  0
 19 20  1  0
 20 21  1  0
 21 22  1  0
 22 23  1  0
 22 24  1  0
 24 25  1  0
 24 26  1  0
 19 27  1  0
 27 28  1  6
 27 29  1  0
 29 30  1  0
 30 31  1  0
 31 32  1  6
  7  5  1  0
 31 10  1  0
 31 13  1  0
 27 15  1  0
 24 18  1  0
  1 33  1  0
  1 34  1  0
  1 35  1  0
  2 36  1  6
  3 37  1  0
  3 38  1  0
  4 39  1  0
  4 40  1  0
  5 41  1  1
  8 42  1  0
  8 43  1  0
  8 44  1  0
  9 45  1  0
  9 46  1  0
  9 47  1  0
 10 48  1  1
 11 49  1  0
 11 50  1  0
 12 51  1  0
 12 52  1  0
 14 53  1  0
 14 54  1  0
 14 55  1  0
 15 56  1  6
 16 57  1  0
 16 58  1  0
 17 59  1  0
 19 60  1  1
 20 61  1  0
 20 62  1  0
 21 63  1  0
 21 64  1  0
 22 65  1  1
 23 66  1  0
 25 67  1  0
 25 68  1  0
 25 69  1  0
 26 70  1  0
 26 71  1  0
 26 72  1  0
 28 73  1  0
 28 74  1  0
 28 75  1  0
 29 76  1  0
 29 77  1  0
 30 78  1  0
 30 79  1  0
 32 80  1  0
 32 81  1  0
 32 82  1  0
M  END
>  <meeko>  (2) 
{"is_sidechain": [false], "intermolecular_energy": 2.731, "internal_energy": -0.839}

$$$$
EPH_relaxed_0001_pdb2pqr_Repair_1_r2_0001_out
     RDKit          3D

 82 86  0  0  0  0  0  0  0  0999 V2000
    0.4550   18.4080    0.0290 C   0  0  0  0  0  0  0  0  0  0  0  0
    1.5310   17.3390   -0.1850 C   0  0  2  0  0  0  0  0  0  0  0  0
    2.7550   17.8920   -0.9420 C   0  0  0  0  0  0  0  0  0  0  0  0
    3.9860   18.0990   -0.0540 C   0  0  0  0  0  0  0  0  0  0  0  0
    3.6080   18.5910    1.3100 C   0  0  2  0  0  0  0  0  0  0  0  0
    3.8510   19.9870    1.5310 O   0  0  0  0  0  0  0  0  0  0  0  0
    4.6180   19.0750    2.3340 C   0  0  0  0  0  0  0  0  0  0  0  0
    6.0850   19.0880    2.0370 C   0  0  0  0  0  0  0  0  0  0  0  0
    4.2290   19.0710    3.7790 C   0  0  0  0  0  0  0  0  0  0  0  0
    0.9420   16.1540   -0.9420 C   0  0  1  0  0  0  0  0  0  0  0  0
    0.7820   16.4340   -2.4600 C   0  0  0  0  0  0  0  0  0  0  0  0
    1.0580   15.0960   -3.1930 C   0  0  0  0  0  0  0  0  0  0  0  0
    1.0390   14.0270   -2.0740 C   0  0  1  0  0  0  0  0  0  0  0  0
   -0.4730   13.7280   -1.8310 C   0  0  0  0  0  0  0  0  0  0  0  0
    1.8490   12.7190   -2.3550 C   0  0  2  0  0  0  0  0  0  0  0  0
    1.3550   11.8900   -3.5530 C   0  0  0  0  0  0  0  0  0  0  0  0
    0.3310   10.8530   -3.2320 C   0  0  0  0  0  0  0  0  0  0  0  0
    0.0340   10.4020   -2.0000 C   0  0  0  0  0  0  0  0  0  0  0  0
    0.8300   10.8730   -0.7760 C   0  0  1  0  0  0  0  0  0  0  0  0
    1.2050    9.6490    0.1010 C   0  0  0  0  0  0  0  0  0  0  0  0
   -0.0100    8.8090    0.4830 C   0  0  0  0  0  0  0  0  0  0  0  0
   -0.7410    8.3110   -0.7610 C   0  0  2  0  0  0  0  0  0  0  0  0
    0.1030    7.3840   -1.4510 O   0  0  0  0  0  0  0  0  0  0  0  0
   -1.1600    9.4550   -1.7250 C   0  0  0  0  0  0  0  0  0  0  0  0
   -2.3000   10.2850   -1.0840 C   0  0  0  0  0  0  0  0  0  0  0  0
   -1.7600    8.8080   -3.0020 C   0  0  0  0  0  0  0  0  0  0  0  0
    2.0760   11.8120   -1.0780 C   0  0  1  0  0  0  0  0  0  0  0  0
    3.3380   10.9430   -1.3690 C   0  0  0  0  0  0  0  0  0  0  0  0
    2.4060   12.6590    0.2070 C   0  0  0  0  0  0  0  0  0  0  0  0
    1.6610   13.9980    0.3670 C   0  0  0  0  0  0  0  0  0  0  0  0
    1.7430   14.8270   -0.9180 C   0  0  2  0  0  0  0  0  0  0  0  0
    3.2510   15.1630   -1.1770 C   0  0  0  0  0  0  0  0  0  0  0  0
    0.3002   18.5618    1.1071 H   0  0  0  0  0  0  0  0  0  0  0  0
    0.7790   19.3521   -0.4332 H   0  0  0  0  0  0  0  0  0  0  0  0
   -0.4870   18.0778   -0.4332 H   0  0  0  0  0  0  0  0  0  0  0  0
    1.8761   17.0122    0.8070 H   0  0  0  0  0  0  0  0  0  0  0  0
    3.0184   17.1835   -1.7411 H   0  0  0  0  0  0  0  0  0  0  0  0
    2.4714   18.8799   -1.3339 H   0  0  0  0  0  0  0  0  0  0  0  0
    4.5180   17.1415    0.0470 H   0  0  0  0  0  0  0  0  0  0  0  0
    4.6269   18.8576   -0.5271 H   0  0  0  0  0  0  0  0  0  0  0  0
    2.7862   17.8624    1.3715 H   0  0  0  0  0  0  0  0  0  0  0  0
    6.6501   19.0930    2.9807 H   0  0  0  0  0  0  0  0  0  0  0  0
    6.3494   18.1922    1.4560 H   0  0  0  0  0  0  0  0  0  0  0  0
    6.3335   19.9884    1.4560 H   0  0  0  0  0  0  0  0  0  0  0  0
    5.1351   19.0803    4.4027 H   0  0  0  0  0  0  0  0  0  0  0  0
    3.6238   19.9630    3.9983 H   0  0  0  0  0  0  0  0  0  0  0  0
    3.6422   18.1668    3.9983 H   0  0  0  0  0  0  0  0  0  0  0  0
   -0.0027   16.0339   -0.3915 H   0  0  0  0  0  0  0  0  0  0  0  0
   -0.2395   16.7804   -2.6757 H   0  0  0  0  0  0  0  0  0  0  0  0
    1.4785   17.2177   -2.7927 H   0  0  0  0  0  0  0  0  0  0  0  0
    0.2746   14.8925   -3.9379 H   0  0  0  0  0  0  0  0  0  0  0  0
    2.0117   15.1095   -3.7410 H   0  0  0  0  0  0  0  0  0  0  0  0
   -0.6699   13.6891   -0.7495 H   0  0  0  0  0  0  0  0  0  0  0  0
   -1.0818   14.5232   -2.2861 H   0  0  0  0  0  0  0  0  0  0  0  0
   -0.7333   12.7610   -2.2861 H   0  0  0  0  0  0  0  0  0  0  0  0
    2.8344   13.1094   -2.6493 H   0  0  0  0  0  0  0  0  0  0  0  0
    0.9189   12.5820   -4.2884 H   0  0  0  0  0  0  0  0  0  0  0  0
    2.2333   11.3443   -3.9282 H   0  0  0  0  0  0  0  0  0  0  0  0
   -0.2286   10.4206   -4.0746 H   0  0  0  0  0  0  0  0  0  0  0  0
    0.1590   11.5414   -0.2165 H   0  0  0  0  0  0  0  0  0  0  0  0
    1.9091    9.0163   -0.4592 H   0  0  0  0  0  0  0  0  0  0  0  0
    1.6538   10.0291    1.0305 H   0  0  0  0  0  0  0  0  0  0  0  0
    0.3222    7.9441    1.0759 H   0  0  0  0  0  0  0  0  0  0  0  0
   -0.6995    9.4346    1.0689 H   0  0  0  0  0  0  0  0  0  0  0  0
   -1.6709    7.8282   -0.4262 H   0  0  0  0  0  0  0  0  0  0  0  0
    0.2680    7.7430   -2.3400 H   0  0  0  0  0  0  0  0  0  0  0  0
   -2.2229   10.2289    0.0119 H   0  0  0  0  0  0  0  0  0  0  0  0
   -2.2147   11.3339   -1.4043 H   0  0  0  0  0  0  0  0  0  0  0  0
   -3.2720    9.8817   -1.4043 H   0  0  0  0  0  0  0  0  0  0  0  0
   -2.4819    8.0296   -2.7141 H   0  0  0  0  0  0  0  0  0  0  0  0
   -2.2702    9.5787   -3.5984 H   0  0  0  0  0  0  0  0  0  0  0  0
   -0.9531    8.3573   -3.5984 H   0  0  0  0  0  0  0  0  0  0  0  0
    3.7941   10.6290   -0.4185 H   0  0  0  0  0  0  0  0  0  0  0  0
    3.0456   10.0538   -1.9469 H   0  0  0  0  0  0  0  0  0  0  0  0
    4.0644   11.5333   -1.9469 H   0  0  0  0  0  0  0  0  0  0  0  0
    2.1684   12.0392    1.0841 H   0  0  0  0  0  0  0  0  0  0  0  0
    3.4674   12.9304    0.1079 H   0  0  0  0  0  0  0  0  0  0  0  0
    0.6047   13.7968    0.5988 H   0  0  0  0  0  0  0  0  0  0  0  0
    2.1321   14.5666    1.1823 H   0  0  0  0  0  0  0  0  0  0  0  0
    3.7713   15.2789   -0.2148 H   0  0  0  0  0  0  0  0  0  0  0  0
    3.7156   14.3464   -1.7490 H   0  0  0  0  0  0  0  0  0  0  0  0
    3.3250   16.0996   -1.7490 H   0  0  0  0  0  0  0  0  0  0  0  0
  1  2  1  0
  2  3  1  0
  3  4  1  0
  4  5  1  0
  5  6  1  0
  6  7  1  0
  7  8  1  0
  7  9  1  0
  2 10  1  0
 10 11  1  0
 11 12  1  0
 12 13  1  0
 13 14  1  1
 13 15  1  0
 15 16  1  0
 16 17  1  0
 17 18  2  0
 18 19  1  0
 19 20  1  0
 20 21  1  0
 21 22  1  0
 22 23  1  0
 22 24  1  0
 24 25  1  0
 24 26  1  0
 19 27  1  0
 27 28  1  6
 27 29  1  0
 29 30  1  0
 30 31  1  0
 31 32  1  6
  7  5  1  0
 31 10  1  0
 31 13  1  0
 27 15  1  0
 24 18  1  0
  1 33  1  0
  1 34  1  0
  1 35  1  0
  2 36  1  1
  3 37  1  0
  3 38  1  0
  4 39  1  0
  4 40  1  0
  5 41  1  1
  8 42  1  0
  8 43  1  0
  8 44  1  0
  9 45  1  0
  9 46  1  0
  9 47  1  0
 10 48  1  1
 11 49  1  0
 11 50  1  0
 12 51  1  0
 12 52  1  0
 14 53  1  0
 14 54  1  0
 14 55  1  0
 15 56  1  6
 16 57  1  0
 16 58  1  0
 17 59  1  0
 19 60  1  1
 20 61  1  0
 20 62  1  0
 21 63  1  0
 21 64  1  0
 22 65  1  1
 23 66  1  0
 25 67  1  0
 25 68  1  0
 25 69  1  0
 26 70  1  0
 26 71  1  0
 26 72  1  0
 28 73  1  0
 28 74  1  0
 28 75  1  0
 29 76  1  0
 29 77  1  0
 30 78  1  0
 30 79  1  0
 32 80  1  0
 32 81  1  0
 32 82  1  0
M  END
>  <meeko>  (3) 
{"is_sidechain": [false], "intermolecular_energy": 2.731, "internal_energy": -0.839}

$$$$
EPH_relaxed_0001_pdb2pqr_Repair_1_r2_0001_out
     RDKit          3D

 82 86  0  0  0  0  0  0  0  0999 V2000
    2.1810   18.0550   -2.5100 C   0  0  0  0  0  0  0  0  0  0  0  0
    0.6610   17.9060   -2.6190 C   0  0  2  0  0  0  0  0  0  0  0  0
   -0.0620   18.3870   -1.3450 C   0  0  0  0  0  0  0  0  0  0  0  0
    0.6340   17.9680   -0.0470 C   0  0  0  0  0  0  0  0  0  0  0  0
    1.2120   19.1470    0.6770 C   0  0  2  0  0  0  0  0  0  0  0  0
    2.1180   19.9410   -0.1000 O   0  0  0  0  0  0  0  0  0  0  0  0
    2.6800   19.2680    1.0380 C   0  0  0  0  0  0  0  0  0  0  0  0
    3.6620   18.1950    0.6870 C   0  0  0  0  0  0  0  0  0  0  0  0
    3.0690   20.1900    2.1520 C   0  0  0  0  0  0  0  0  0  0  0  0
    0.3000   16.4540   -2.9070 C   0  0  1  0  0  0  0  0  0  0  0  0
    0.3420   16.1160   -4.4210 C   0  0  0  0  0  0  0  0  0  0  0  0
    0.8420   14.6530   -4.5390 C   0  0  0  0  0  0  0  0  0  0  0  0
    0.7540   14.0930   -3.1000 C   0  0  1  0  0  0  0  0  0  0  0  0
   -0.7450   13.6990   -2.9150 C   0  0  0  0  0  0  0  0  0  0  0  0
    1.7100   12.9040   -2.7620 C   0  0  2  0  0  0  0  0  0  0  0  0
    1.4760   11.6240   -3.5840 C   0  0  0  0  0  0  0  0  0  0  0  0
    0.5130   10.6510   -2.9890 C   0  0  0  0  0  0  0  0  0  0  0  0
    0.0780   10.6600   -1.7150 C   0  0  0  0  0  0  0  0  0  0  0  0
    0.6380   11.6640   -0.6990 C   0  0  1  0  0  0  0  0  0  0  0  0
    0.9870   10.9260    0.6200 C   0  0  0  0  0  0  0  0  0  0  0  0
   -0.1910   10.1310    1.1740 C   0  0  0  0  0  0  0  0  0  0  0  0
   -0.6820    9.1030    0.1580 C   0  0  2  0  0  0  0  0  0  0  0  0
    0.3350    8.1130   -0.0250 O   0  0  0  0  0  0  0  0  0  0  0  0
   -1.0540    9.7300   -1.2150 C   0  0  0  0  0  0  0  0  0  0  0  0
   -2.3460   10.5710   -1.0700 C   0  0  0  0  0  0  0  0  0  0  0  0
   -1.3980    8.5720   -2.1910 C   0  0  0  0  0  0  0  0  0  0  0  0
    1.8260   12.5850   -1.2160 C   0  0  1  0  0  0  0  0  0  0  0  0
    3.1900   11.8570   -1.0130 C   0  0  0  0  0  0  0  0  0  0  0  0
    1.8850   13.8900   -0.3390 C   0  0  0  0  0  0  0  0  0  0  0  0
    1.0070   15.0730   -0.7930 C   0  0  0  0  0  0  0  0  0  0  0  0
    1.2040   15.3600   -2.2840 C   0  0  2  0  0  0  0  0  0  0  0  0
    2.6970   15.7810   -2.4980 C   0  0  0  0  0  0  0  0  0  0  0  0
    2.4715   18.0835   -1.4494 H   0  0  0  0  0  0  0  0  0  0  0  0
    2.6694   17.2004   -3.0011 H   0  0  0  0  0  0  0  0  0  0  0  0
    2.4941   18.9881   -3.0011 H   0  0  0  0  0  0  0  0  0  0  0  0
    0.3246   18.5436   -3.4499 H   0  0  0  0  0  0  0  0  0  0  0  0
   -0.1171   19.4853   -1.3706 H   0  0  0  0  0  0  0  0  0  0  0  0
   -1.0565   17.9169   -1.3428 H   0  0  0  0  0  0  0  0  0  0  0  0
   -0.0988   17.4723    0.6067 H   0  0  0  0  0  0  0  0  0  0  0  0
    1.4575   17.2855   -0.3040 H   0  0  0  0  0  0  0  0  0  0  0  0
    0.2939   19.2624    1.2718 H   0  0  0  0  0  0  0  0  0  0  0  0
    4.0669   17.7526    1.6091 H   0  0  0  0  0  0  0  0  0  0  0  0
    3.1580   17.4154    0.0969 H   0  0  0  0  0  0  0  0  0  0  0  0
    4.4831   18.6282    0.0969 H   0  0  0  0  0  0  0  0  0  0  0  0
    2.8643   19.7049    3.1178 H   0  0  0  0  0  0  0  0  0  0  0  0
    4.1417   20.4220    2.0782 H   0  0  0  0  0  0  0  0  0  0  0  0
    2.4867   21.1203    2.0782 H   0  0  0  0  0  0  0  0  0  0  0  0
   -0.7011   16.4194   -2.4525 H   0  0  0  0  0  0  0  0  0  0  0  0
   -0.6632   16.2092   -4.8580 H   0  0  0  0  0  0  0  0  0  0  0  0
    1.0072   16.8056   -4.9613 H   0  0  0  0  0  0  0  0  0  0  0  0
    0.1986   14.0765   -5.2200 H   0  0  0  0  0  0  0  0  0  0  0  0
    1.8611   14.5924   -4.9485 H   0  0  0  0  0  0  0  0  0  0  0  0
   -0.9782   13.6377   -1.8418 H   0  0  0  0  0  0  0  0  0  0  0  0
   -1.3849   14.4595   -3.3864 H   0  0  0  0  0  0  0  0  0  0  0  0
   -0.9282   12.7222   -3.3864 H   0  0  0  0  0  0  0  0  0  0  0  0
    2.6888   13.2900   -3.0829 H   0  0  0  0  0  0  0  0  0  0  0  0
    1.0935   11.9198   -4.5720 H   0  0  0  0  0  0  0  0  0  0  0  0
    2.4458   11.1065   -3.6238 H   0  0  0  0  0  0  0  0  0  0  0  0
    0.1259    9.8594   -3.6474 H   0  0  0  0  0  0  0  0  0  0  0  0
   -0.1657   12.3928   -0.5175 H   0  0  0  0  0  0  0  0  0  0  0  0
    1.8201   10.2340    0.4272 H   0  0  0  0  0  0  0  0  0  0  0  0
    1.2576   11.6867    1.3670 H   0  0  0  0  0  0  0  0  0  0  0  0
    0.1254    9.6096    2.0894 H   0  0  0  0  0  0  0  0  0  0  0  0
   -1.0131   10.8284    1.3929 H   0  0  0  0  0  0  0  0  0  0  0  0
   -1.6033    8.6557    0.5594 H   0  0  0  0  0  0  0  0  0  0  0  0
   -0.1080    7.2660   -0.2010 H   0  0  0  0  0  0  0  0  0  0  0  0
   -2.5706   10.7172   -0.0031 H   0  0  0  0  0  0  0  0  0  0  0  0
   -2.2027   11.5494   -1.5519 H   0  0  0  0  0  0  0  0  0  0  0  0
   -3.1826   10.0439   -1.5519 H   0  0  0  0  0  0  0  0  0  0  0  0
   -1.6648    7.6738   -1.6147 H   0  0  0  0  0  0  0  0  0  0  0  0
   -2.2474    8.8667   -2.8248 H   0  0  0  0  0  0  0  0  0  0  0  0
   -0.5255    8.3552   -2.8248 H   0  0  0  0  0  0  0  0  0  0  0  0
    3.3916   11.7494    0.0630 H   0  0  0  0  0  0  0  0  0  0  0  0
    3.1474   10.8617   -1.4794 H   0  0  0  0  0  0  0  0  0  0  0  0
    3.9932   12.4464   -1.4794 H   0  0  0  0  0  0  0  0  0  0  0  0
    1.5767   13.6192    0.6816 H   0  0  0  0  0  0  0  0  0  0  0  0
    2.9207   14.2497   -0.4276 H   0  0  0  0  0  0  0  0  0  0  0  0
   -0.0497   14.8281   -0.6101 H   0  0  0  0  0  0  0  0  0  0  0  0
    1.2991   15.9666   -0.2218 H   0  0  0  0  0  0  0  0  0  0  0  0
    3.1830   15.9180   -1.5207 H   0  0  0  0  0  0  0  0  0  0  0  0
    3.2221   14.9959   -3.0618 H   0  0  0  0  0  0  0  0  0  0  0  0
    2.7346   16.7248   -3.0618 H   0  0  0  0  0  0  0  0  0  0  0  0
  1  2  1  0
  2  3  1  0
  3  4  1  0
  4  5  1  0
  5  6  1  0
  6  7  1  0
  7  8  1  0
  7  9  1  0
  2 10  1  0
 10 11  1  0
 11 12  1  0
 12 13  1  0
 13 14  1  1
 13 15  1  0
 15 16  1  0
 16 17  1  0
 17 18  2  0
 18 19  1  0
 19 20  1  0
 20 21  1  0
 21 22  1  0
 22 23  1  0
 22 24  1  0
 24 25  1  0
 24 26  1  0
 19 27  1  0
 27 28  1  6
 27 29  1  0
 29 30  1  0
 30 31  1  0
 31 32  1  1
  7  5  1  0
 31 10  1  0
 31 13  1  0
 27 15  1  0
 24 18  1  0
  1 33  1  0
  1 34  1  0
  1 35  1  0
  2 36  1  6
  3 37  1  0
  3 38  1  0
  4 39  1  0
  4 40  1  0
  5 41  1  1
  8 42  1  0
  8 43  1  0
  8 44  1  0
  9 45  1  0
  9 46  1  0
  9 47  1  0
 10 48  1  1
 11 49  1  0
 11 50  1  0
 12 51  1  0
 12 52  1  0
 14 53  1  0
 14 54  1  0
 14 55  1  0
 15 56  1  6
 16 57  1  0
 16 58  1  0
 17 59  1  0
 19 60  1  1
 20 61  1  0
 20 62  1  0
 21 63  1  0
 21 64  1  0
 22 65  1  1
 23 66  1  0
 25 67  1  0
 25 68  1  0
 25 69  1  0
 26 70  1  0
 26 71  1  0
 26 72  1  0
 28 73  1  0
 28 74  1  0
 28 75  1  0
 29 76  1  0
 29 77  1  0
 30 78  1  0
 30 79  1  0
 32 80  1  0
 32 81  1  0
 32 82  1  0
M  END
>  <meeko>  (4) 
{"is_sidechain": [false], "intermolecular_energy": 2.731, "internal_energy": -0.839}

$$$$
EPH_relaxed_0001_pdb2pqr_Repair_1_r2_0001_out
     RDKit          3D

 82 86  0  0  0  0  0  0  0  0999 V2000
    2.3080   18.0360   -2.6690 C   0  0  0  0  0  0  0  0  0  0  0  0
    1.0210   17.6490   -1.9350 C   0  0  2  0  0  0  0  0  0  0  0  0
    1.1920   17.6880   -0.4030 C   0  0  0  0  0  0  0  0  0  0  0  0
    0.8500   19.0440    0.2200 C   0  0  0  0  0  0  0  0  0  0  0  0
   -0.6080   19.1490    0.5530 C   0  0  2  0  0  0  0  0  0  0  0  0
   -1.4570   18.2620   -0.1880 O   0  0  0  0  0  0  0  0  0  0  0  0
   -1.6530   19.6660   -0.4190 C   0  0  0  0  0  0  0  0  0  0  0  0
   -1.2820   20.1140   -1.7980 C   0  0  0  0  0  0  0  0  0  0  0  0
   -2.9420   20.1930    0.1310 C   0  0  0  0  0  0  0  0  0  0  0  0
    0.5700   16.2610   -2.3740 C   0  0  1  0  0  0  0  0  0  0  0  0
    0.5890   16.0860   -3.9160 C   0  0  0  0  0  0  0  0  0  0  0  0
    0.9970   14.6160   -4.1940 C   0  0  0  0  0  0  0  0  0  0  0  0
    0.8760   13.9110   -2.8230 C   0  0  1  0  0  0  0  0  0  0  0  0
   -0.6440   13.5920   -2.6690 C   0  0  0  0  0  0  0  0  0  0  0  0
    1.7570   12.6360   -2.6220 C   0  0  2  0  0  0  0  0  0  0  0  0
    1.4430   11.4690   -3.5740 C   0  0  0  0  0  0  0  0  0  0  0  0
    0.4220   10.4990   -3.0790 C   0  0  0  0  0  0  0  0  0  0  0  0
   -0.0100   10.3980   -1.8080 C   0  0  0  0  0  0  0  0  0  0  0  0
    0.6130   11.2500   -0.6950 C   0  0  1  0  0  0  0  0  0  0  0  0
    0.9170   10.3540    0.5340 C   0  0  0  0  0  0  0  0  0  0  0  0
   -0.3070    9.5780    1.0100 C   0  0  0  0  0  0  0  0  0  0  0  0
   -0.8620    8.6980   -0.1070 C   0  0  2  0  0  0  0  0  0  0  0  0
    0.0910    7.6730   -0.4030 O   0  0  0  0  0  0  0  0  0  0  0  0
   -1.1970    9.4900   -1.4020 C   0  0  0  0  0  0  0  0  0  0  0  0
   -2.4340   10.3890   -1.1570 C   0  0  0  0  0  0  0  0  0  0  0  0
   -1.6130    8.4670   -2.4930 C   0  0  0  0  0  0  0  0  0  0  0  0
    1.8550   12.1460   -1.1200 C   0  0  1  0  0  0  0  0  0  0  0  0
    3.1720   11.3170   -1.0070 C   0  0  0  0  0  0  0  0  0  0  0  0
    1.9960   13.3440   -0.1080 C   0  0  0  0  0  0  0  0  0  0  0  0
    1.1930   14.6190   -0.4260 C   0  0  0  0  0  0  0  0  0  0  0  0
    1.4050   15.0530   -1.8800 C   0  0  2  0  0  0  0  0  0  0  0  0
    2.9210   15.4020   -2.0590 C   0  0  0  0  0  0  0  0  0  0  0  0
    3.0922   18.2718   -1.9346 H   0  0  0  0  0  0  0  0  0  0  0  0
    2.6368   17.1970   -3.2998 H   0  0  0  0  0  0  0  0  0  0  0  0
    2.1195   18.9172   -3.2998 H   0  0  0  0  0  0  0  0  0  0  0  0
    0.2529   18.3905   -2.2000 H   0  0  0  0  0  0  0  0  0  0  0  0
    0.5331   16.9264    0.0395 H   0  0  0  0  0  0  0  0  0  0  0  0
    2.2547   17.4966   -0.1931 H   0  0  0  0  0  0  0  0  0  0  0  0
    1.4363   19.1708    1.1420 H   0  0  0  0  0  0  0  0  0  0  0  0
    1.0921   19.8286   -0.5120 H   0  0  0  0  0  0  0  0  0  0  0  0
   -0.3752   19.4120    1.5954 H   0  0  0  0  0  0  0  0  0  0  0  0
   -0.5816   20.9597   -1.7328 H   0  0  0  0  0  0  0  0  0  0  0  0
   -0.8041   19.2829   -2.3374 H   0  0  0  0  0  0  0  0  0  0  0  0
   -2.1876   20.4286   -2.3374 H   0  0  0  0  0  0  0  0  0  0  0  0
   -2.9050   20.1779    1.2303 H   0  0  0  0  0  0  0  0  0  0  0  0
   -3.0941   21.2255   -0.2166 H   0  0  0  0  0  0  0  0  0  0  0  0
   -3.7739   19.5628   -0.2166 H   0  0  0  0  0  0  0  0  0  0  0  0
   -0.4305   16.2394   -1.9173 H   0  0  0  0  0  0  0  0  0  0  0  0
   -0.4090   16.2874   -4.3325 H   0  0  0  0  0  0  0  0  0  0  0  0
    1.2950   16.7874   -4.3846 H   0  0  0  0  0  0  0  0  0  0  0  0
    0.3183   14.1569   -4.9279 H   0  0  0  0  0  0  0  0  0  0  0  0
    2.0100   14.5371   -4.6154 H   0  0  0  0  0  0  0  0  0  0  0  0
   -0.9009   13.5381   -1.6008 H   0  0  0  0  0  0  0  0  0  0  0  0
   -1.2356   14.3855   -3.1488 H   0  0  0  0  0  0  0  0  0  0  0  0
   -0.8667   12.6276   -3.1488 H   0  0  0  0  0  0  0  0  0  0  0  0
    2.7574   12.9934   -2.9075 H   0  0  0  0  0  0  0  0  0  0  0  0
    1.0784   11.8921   -4.5216 H   0  0  0  0  0  0  0  0  0  0  0  0
    2.3787   10.8999   -3.6765 H   0  0  0  0  0  0  0  0  0  0  0  0
   -0.0144    9.8081   -3.8153 H   0  0  0  0  0  0  0  0  0  0  0  0
   -0.1431   12.0035   -0.4295 H   0  0  0  0  0  0  0  0  0  0  0  0
    1.7049    9.6366    0.2610 H   0  0  0  0  0  0  0  0  0  0  0  0
    1.2353   11.0120    1.3560 H   0  0  0  0  0  0  0  0  0  0  0  0
   -0.0219    8.9424    1.8613 H   0  0  0  0  0  0  0  0  0  0  0  0
   -1.0839   10.2965    1.3104 H   0  0  0  0  0  0  0  0  0  0  0  0
   -1.8090    8.2683    0.2515 H   0  0  0  0  0  0  0  0  0  0  0  0
    0.5950    7.9570   -1.1850 H   0  0  0  0  0  0  0  0  0  0  0  0
   -2.5942   10.5054   -0.0750 H   0  0  0  0  0  0  0  0  0  0  0  0
   -2.2652   11.3766   -1.6110 H   0  0  0  0  0  0  0  0  0  0  0  0
   -3.3213    9.9235   -1.6110 H   0  0  0  0  0  0  0  0  0  0  0  0
   -1.9858    7.5502   -2.0129 H   0  0  0  0  0  0  0  0  0  0  0  0
   -2.4060    8.9013   -3.1196 H   0  0  0  0  0  0  0  0  0  0  0  0
   -0.7420    8.2246   -3.1196 H   0  0  0  0  0  0  0  0  0  0  0  0
    3.4179   11.1622    0.0539 H   0  0  0  0  0  0  0  0  0  0  0  0
    3.0348   10.3421   -1.4976 H   0  0  0  0  0  0  0  0  0  0  0  0
    3.9917   11.8623   -1.4976 H   0  0  0  0  0  0  0  0  0  0  0  0
    1.6728   12.9848    0.8802 H   0  0  0  0  0  0  0  0  0  0  0  0
    3.0520   13.6468   -0.1653 H   0  0  0  0  0  0  0  0  0  0  0  0
    0.1235   14.4208   -0.2620 H   0  0  0  0  0  0  0  0  0  0  0  0
    1.5411   15.4264    0.2350 H   0  0  0  0  0  0  0  0  0  0  0  0
    3.3915   15.5103   -1.0706 H   0  0  0  0  0  0  0  0  0  0  0  0
    3.4197   14.5952   -2.6161 H   0  0  0  0  0  0  0  0  0  0  0  0
    3.0167   16.3457   -2.6161 H   0  0  0  0  0  0  0  0  0  0  0  0
  1  2  1  0
  2  3  1  0
  3  4  1  0
  4  5  1  0
  5  6  1  0
  6  7  1  0
  7  8  1  0
  7  9  1  0
  2 10  1  0
 10 11  1  0
 11 12  1  0
 12 13  1  0
 13 14  1  1
 13 15  1  0
 15 16  1  0
 16 17  1  0
 17 18  2  0
 18 19  1  0
 19 20  1  0
 20 21  1  0
 21 22  1  0
 22 23  1  0
 22 24  1  0
 24 25  1  0
 24 26  1  0
 19 27  1  0
 27 28  1  6
 27 29  1  0
 29 30  1  0
 30 31  1  0
 31 32  1  1
  7  5  1  0
 31 10  1  0
 31 13  1  0
 27 15  1  0
 24 18  1  0
  1 33  1  0
  1 34  1  0
  1 35  1  0
  2 36  1  1
  3 37  1  0
  3 38  1  0
  4 39  1  0
  4 40  1  0
  5 41  1  1
  8 42  1  0
  8 43  1  0
  8 44  1  0
  9 45  1  0
  9 46  1  0
  9 47  1  0
 10 48  1  1
 11 49  1  0
 11 50  1  0
 12 51  1  0
 12 52  1  0
 14 53  1  0
 14 54  1  0
 14 55  1  0
 15 56  1  6
 16 57  1  0
 16 58  1  0
 17 59  1  0
 19 60  1  1
 20 61  1  0
 20 62  1  0
 21 63  1  0
 21 64  1  0
 22 65  1  1
 23 66  1  0
 25 67  1  0
 25 68  1  0
 25 69  1  0
 26 70  1  0
 26 71  1  0
 26 72  1  0
 28 73  1  0
 28 74  1  0
 28 75  1  0
 29 76  1  0
 29 77  1  0
 30 78  1  0
 30 79  1  0
 32 80  1  0
 32 81  1  0
 32 82  1  0
M  END
>  <meeko>  (5) 
{"is_sidechain": [false], "intermolecular_energy": 2.731, "internal_energy": -0.839}

$$$$
EPH_relaxed_0001_pdb2pqr_Repair_1_r2_0001_out
     RDKit          3D

 82 86  0  0  0  0  0  0  0  0999 V2000
    3.7650   17.9310    0.7100 C   0  0  0  0  0  0  0  0  0  0  0  0
    2.7180   18.3650   -0.3200 C   0  0  2  0  0  0  0  0  0  0  0  0
    1.9870   19.6560    0.1030 C   0  0  0  0  0  0  0  0  0  0  0  0
    0.7790   19.4100    1.0100 C   0  0  0  0  0  0  0  0  0  0  0  0
   -0.4590   20.0630    0.4730 C   0  0  2  0  0  0  0  0  0  0  0  0
   -1.5310   20.1820    1.4180 O   0  0  0  0  0  0  0  0  0  0  0  0
   -1.7760   19.3340    0.2850 C   0  0  0  0  0  0  0  0  0  0  0  0
   -1.9210   17.8850    0.6300 C   0  0  0  0  0  0  0  0  0  0  0  0
   -2.7710   19.8930   -0.6830 C   0  0  0  0  0  0  0  0  0  0  0  0
    1.7090   17.2440   -0.5390 C   0  0  1  0  0  0  0  0  0  0  0  0
    0.5020   17.6870   -1.4090 C   0  0  0  0  0  0  0  0  0  0  0  0
    0.0910   16.4600   -2.2630 C   0  0  0  0  0  0  0  0  0  0  0  0
    0.8460   15.2710   -1.6240 C   0  0  1  0  0  0  0  0  0  0  0  0
   -0.0190   14.8610   -0.3910 C   0  0  0  0  0  0  0  0  0  0  0  0
    1.1310   14.0510   -2.5600 C   0  0  2  0  0  0  0  0  0  0  0  0
   -0.1200   13.3390   -3.1040 C   0  0  0  0  0  0  0  0  0  0  0  0
   -0.6310   12.2170   -2.2630 C   0  0  0  0  0  0  0  0  0  0  0  0
    0.0470   11.6100   -1.2710 C   0  0  0  0  0  0  0  0  0  0  0  0
    1.5060   11.9810   -0.9740 C   0  0  1  0  0  0  0  0  0  0  0  0
    2.3450   10.6870   -0.8040 C   0  0  0  0  0  0  0  0  0  0  0  0
    1.7590    9.7430    0.2410 C   0  0  0  0  0  0  0  0  0  0  0  0
    0.3280    9.3510   -0.1200 C   0  0  2  0  0  0  0  0  0  0  0  0
    0.3540    8.5590   -1.3120 O   0  0  0  0  0  0  0  0  0  0  0  0
   -0.6090   10.5740   -0.3260 C   0  0  0  0  0  0  0  0  0  0  0  0
   -0.8770   11.2590    1.0360 C   0  0  0  0  0  0  0  0  0  0  0  0
   -1.9810   10.0450   -0.8230 C   0  0  0  0  0  0  0  0  0  0  0  0
    2.1760   13.0160   -1.9760 C   0  0  1  0  0  0  0  0  0  0  0  0
    2.7820   12.2580   -3.1970 C   0  0  0  0  0  0  0  0  0  0  0  0
    3.3810   13.7270   -1.2520 C   0  0  0  0  0  0  0  0  0  0  0  0
    3.0540   14.9950   -0.4410 C   0  0  0  0  0  0  0  0  0  0  0  0
    2.2080   15.9700   -1.2660 C   0  0  2  0  0  0  0  0  0  0  0  0
    3.0610   16.4160   -2.5020 C   0  0  0  0  0  0  0  0  0  0  0  0
    3.3713   18.0942    1.7241 H   0  0  0  0  0  0  0  0  0  0  0  0
    3.9939   16.8639    0.5728 H   0  0  0  0  0  0  0  0  0  0  0  0
    4.6818   18.5232    0.5728 H   0  0  0  0  0  0  0  0  0  0  0  0
    3.2475   18.5782   -1.2603 H   0  0  0  0  0  0  0  0  0  0  0  0
    2.6999   20.2985    0.6407 H   0  0  0  0  0  0  0  0  0  0  0  0
    1.6083   20.1269   -0.8162 H   0  0  0  0  0  0  0  0  0  0  0  0
    0.6058   18.3265    1.0872 H   0  0  0  0  0  0  0  0  0  0  0  0
    0.9963   19.8454    1.9965 H   0  0  0  0  0  0  0  0  0  0  0  0
    0.1383   20.6930   -0.2025 H   0  0  0  0  0  0  0  0  0  0  0  0
   -1.9327   17.7679    1.7237 H   0  0  0  0  0  0  0  0  0  0  0  0
   -2.8621   17.5005    0.2099 H   0  0  0  0  0  0  0  0  0  0  0  0
   -1.0747   17.3216    0.2099 H   0  0  0  0  0  0  0  0  0  0  0  0
   -3.5996   20.3585   -0.1293 H   0  0  0  0  0  0  0  0  0  0  0  0
   -2.2824   20.6487   -1.3156 H   0  0  0  0  0  0  0  0  0  0  0  0
   -3.1623   19.0826   -1.3156 H   0  0  0  0  0  0  0  0  0  0  0  0
    1.4649   17.0093    0.5076 H   0  0  0  0  0  0  0  0  0  0  0  0
   -0.3344   17.9980   -0.7659 H   0  0  0  0  0  0  0  0  0  0  0  0
    0.7688   18.5414   -2.0484 H   0  0  0  0  0  0  0  0  0  0  0  0
   -0.9963   16.3004   -2.2157 H   0  0  0  0  0  0  0  0  0  0  0  0
    0.3395   16.5894   -3.3267 H   0  0  0  0  0  0  0  0  0  0  0  0
    0.5181   15.1156    0.5346 H   0  0  0  0  0  0  0  0  0  0  0  0
   -0.9770   15.4008   -0.4194 H   0  0  0  0  0  0  0  0  0  0  0  0
   -0.2076   13.7777   -0.4194 H   0  0  0  0  0  0  0  0  0  0  0  0
    1.6056   14.5280   -3.4302 H   0  0  0  0  0  0  0  0  0  0  0  0
   -0.9221   14.0858   -3.1983 H   0  0  0  0  0  0  0  0  0  0  0  0
    0.1783   12.8895   -4.0626 H   0  0  0  0  0  0  0  0  0  0  0  0
   -1.6486   11.8551   -2.4715 H   0  0  0  0  0  0  0  0  0  0  0  0
    1.4906   12.5425   -0.0283 H   0  0  0  0  0  0  0  0  0  0  0  0
    2.3843   10.1627   -1.7702 H   0  0  0  0  0  0  0  0  0  0  0  0
    3.3481   10.9820   -0.4624 H   0  0  0  0  0  0  0  0  0  0  0  0
    2.3784    8.8355    0.2942 H   0  0  0  0  0  0  0  0  0  0  0  0
    1.7477   10.2581    1.2129 H   0  0  0  0  0  0  0  0  0  0  0  0
   -0.0817    8.7813    0.7271 H   0  0  0  0  0  0  0  0  0  0  0  0
    1.2240    8.1270   -1.3590 H   0  0  0  0  0  0  0  0  0  0  0  0
   -0.6080   10.5715    1.8514 H   0  0  0  0  0  0  0  0  0  0  0  0
   -0.2703   12.1734    1.1122 H   0  0  0  0  0  0  0  0  0  0  0  0
   -1.9431   11.5189    1.1122 H   0  0  0  0  0  0  0  0  0  0  0  0
   -2.6149    9.8006    0.0421 H   0  0  0  0  0  0  0  0  0  0  0  0
   -2.4733   10.8178   -1.4317 H   0  0  0  0  0  0  0  0  0  0  0  0
   -1.8271    9.1418   -1.4317 H   0  0  0  0  0  0  0  0  0  0  0  0
    3.4314   11.4457   -2.8387 H   0  0  0  0  0  0  0  0  0  0  0  0
    1.9695   11.8360   -3.8067 H   0  0  0  0  0  0  0  0  0  0  0  0
    3.3725   12.9577   -3.8067 H   0  0  0  0  0  0  0  0  0  0  0  0
    3.8317   12.9981   -0.5624 H   0  0  0  0  0  0  0  0  0  0  0  0
    4.0434   14.0664   -2.0619 H   0  0  0  0  0  0  0  0  0  0  0  0
    2.4958   14.7101    0.4630 H   0  0  0  0  0  0  0  0  0  0  0  0
    3.9975   15.4914   -0.1702 H   0  0  0  0  0  0  0  0  0  0  0  0
    3.9857   16.8995   -2.1541 H   0  0  0  0  0  0  0  0  0  0  0  0
    3.3143   15.5349   -3.1099 H   0  0  0  0  0  0  0  0  0  0  0  0
    2.4819   17.1267   -3.1099 H   0  0  0  0  0  0  0  0  0  0  0  0
  1  2  1  0
  2  3  1  0
  3  4  1  0
  4  5  1  0
  5  6  1  0
  6  7  1  0
  7  8  1  0
  7  9  1  0
  2 10  1  0
 10 11  1  0
 11 12  1  0
 12 13  1  0
 13 14  1  1
 13 15  1  0
 15 16  1  0
 16 17  1  0
 17 18  2  0
 18 19  1  0
 19 20  1  0
 20 21  1  0
 21 22  1  0
 22 23  1  0
 22 24  1  0
 24 25  1  0
 24 26  1  0
 19 27  1  0
 27 28  1  6
 27 29  1  0
 29 30  1  0
 30 31  1  0
 31 32  1  6
  7  5  1  0
 31 10  1  0
 31 13  1  0
 27 15  1  0
 24 18  1  0
  1 33  1  0
  1 34  1  0
  1 35  1  0
  2 36  1  6
  3 37  1  0
  3 38  1  0
  4 39  1  0
  4 40  1  0
  5 41  1  6
  8 42  1  0
  8 43  1  0
  8 44  1  0
  9 45  1  0
  9 46  1  0
  9 47  1  0
 10 48  1  1
 11 49  1  0
 11 50  1  0
 12 51  1  0
 12 52  1  0
 14 53  1  0
 14 54  1  0
 14 55  1  0
 15 56  1  6
 16 57  1  0
 16 58  1  0
 17 59  1  0
 19 60  1  1
 20 61  1  0
 20 62  1  0
 21 63  1  0
 21 64  1  0
 22 65  1  1
 23 66  1  0
 25 67  1  0
 25 68  1  0
 25 69  1  0
 26 70  1  0
 26 71  1  0
 26 72  1  0
 28 73  1  0
 28 74  1  0
 28 75  1  0
 29 76  1  0
 29 77  1  0
 30 78  1  0
 30 79  1  0
 32 80  1  0
 32 81  1  0
 32 82  1  0
M  END
>  <meeko>  (6) 
{"is_sidechain": [false], "intermolecular_energy": 2.731, "internal_energy": -0.839}

$$$$
EPH_relaxed_0001_pdb2pqr_Repair_1_r2_0001_out
     RDKit          3D

 82 86  0  0  0  0  0  0  0  0999 V2000
   -5.0960    5.9340   -1.7640 C   0  0  0  0  0  0  0  0  0  0  0  0
   -5.4260    7.4290   -1.8000 C   0  0  2  0  0  0  0  0  0  0  0  0
   -5.2230    8.1010   -0.4270 C   0  0  0  0  0  0  0  0  0  0  0  0
   -4.1270    9.1710   -0.4230 C   0  0  0  0  0  0  0  0  0  0  0  0
   -2.8230    8.6310   -0.9270 C   0  0  2  0  0  0  0  0  0  0  0  0
   -1.7150    8.8130   -0.0360 O   0  0  0  0  0  0  0  0  0  0  0  0
   -1.6400    9.5080   -1.2910 C   0  0  0  0  0  0  0  0  0  0  0  0
   -1.7050   10.9980   -1.1660 C   0  0  0  0  0  0  0  0  0  0  0  0
   -0.6030    8.9610   -2.2220 C   0  0  0  0  0  0  0  0  0  0  0  0
   -6.8610    7.6330   -2.2720 C   0  0  1  0  0  0  0  0  0  0  0  0
   -7.1510    6.9260   -3.6230 C   0  0  0  0  0  0  0  0  0  0  0  0
   -8.6200    6.4330   -3.5630 C   0  0  0  0  0  0  0  0  0  0  0  0
   -9.2230    7.1520   -2.3350 C   0  0  1  0  0  0  0  0  0  0  0  0
   -9.5910    8.5800   -2.8460 C   0  0  0  0  0  0  0  0  0  0  0  0
  -10.4430    6.4510   -1.6530 C   0  0  2  0  0  0  0  0  0  0  0  0
  -11.6910    6.3040   -2.5420 C   0  0  0  0  0  0  0  0  0  0  0  0
  -12.6610    7.4360   -2.4720 C   0  0  0  0  0  0  0  0  0  0  0  0
  -12.6830    8.3900   -1.5220 C   0  0  0  0  0  0  0  0  0  0  0  0
  -11.7240    8.3330   -0.3260 C   0  0  1  0  0  0  0  0  0  0  0  0
  -12.5110    8.6080    0.9820 C   0  0  0  0  0  0  0  0  0  0  0  0
  -13.2980    9.9130    0.9270 C   0  0  0  0  0  0  0  0  0  0  0  0
  -14.2820    9.9090   -0.2400 C   0  0  2  0  0  0  0  0  0  0  0  0
  -15.2870    8.9210    0.0090 O   0  0  0  0  0  0  0  0  0  0  0  0
  -13.6040    9.6310   -1.6110 C   0  0  0  0  0  0  0  0  0  0  0  0
  -12.7400   10.8500   -2.0200 C   0  0  0  0  0  0  0  0  0  0  0  0
  -14.7230    9.5130   -2.6810 C   0  0  0  0  0  0  0  0  0  0  0  0
  -10.8140    7.0330   -0.2290 C   0  0  1  0  0  0  0  0  0  0  0  0
  -11.5770    5.9040    0.5290 C   0  0  0  0  0  0  0  0  0  0  0  0
   -9.5380    7.3630    0.6330 C   0  0  0  0  0  0  0  0  0  0  0  0
   -8.3230    7.9420   -0.1180 C   0  0  0  0  0  0  0  0  0  0  0  0
   -7.9930    7.1040   -1.3570 C   0  0  2  0  0  0  0  0  0  0  0  0
   -7.5970    5.6680   -0.8710 C   0  0  0  0  0  0  0  0  0  0  0  0
   -5.0222    5.5999   -0.7186 H   0  0  0  0  0  0  0  0  0  0  0  0
   -5.8914    5.3706   -2.2738 H   0  0  0  0  0  0  0  0  0  0  0  0
   -4.1373    5.7577   -2.2738 H   0  0  0  0  0  0  0  0  0  0  0  0
   -4.7306    7.9048   -2.5071 H   0  0  0  0  0  0  0  0  0  0  0  0
   -6.1705    8.5728   -0.1275 H   0  0  0  0  0  0  0  0  0  0  0  0
   -4.9073    7.3138    0.2734 H   0  0  0  0  0  0  0  0  0  0  0  0
   -4.4407   10.0049   -1.0681 H   0  0  0  0  0  0  0  0  0  0  0  0
   -3.9807    9.5080    0.6138 H   0  0  0  0  0  0  0  0  0  0  0  0
   -3.3392    7.8255   -1.4698 H   0  0  0  0  0  0  0  0  0  0  0  0
   -1.7171   11.2765   -0.1019 H   0  0  0  0  0  0  0  0  0  0  0  0
   -0.8255   11.4455   -1.6521 H   0  0  0  0  0  0  0  0  0  0  0  0
   -2.6201   11.3672   -1.6521 H   0  0  0  0  0  0  0  0  0  0  0  0
    0.2214    8.5261   -1.6378 H   0  0  0  0  0  0  0  0  0  0  0  0
   -1.0533    8.1831   -2.8561 H   0  0  0  0  0  0  0  0  0  0  0  0
   -0.2152    9.7719   -2.8561 H   0  0  0  0  0  0  0  0  0  0  0  0
   -6.8889    8.7321   -2.3075 H   0  0  0  0  0  0  0  0  0  0  0  0
   -7.0223    7.6329   -4.4559 H   0  0  0  0  0  0  0  0  0  0  0  0
   -6.4589    6.0868   -3.7864 H   0  0  0  0  0  0  0  0  0  0  0  0
   -9.1606    6.7109   -4.4798 H   0  0  0  0  0  0  0  0  0  0  0  0
   -8.6895    5.3383   -3.4810 H   0  0  0  0  0  0  0  0  0  0  0  0
   -9.7622    9.2443   -1.9861 H   0  0  0  0  0  0  0  0  0  0  0  0
   -8.7654    8.9752   -3.4560 H   0  0  0  0  0  0  0  0  0  0  0  0
  -10.5048    8.5270   -3.4560 H   0  0  0  0  0  0  0  0  0  0  0  0
  -10.0675    5.4297   -1.4917 H   0  0  0  0  0  0  0  0  0  0  0  0
  -11.3557    6.2079   -3.5852 H   0  0  0  0  0  0  0  0  0  0  0  0
  -12.2281    5.4197   -2.1683 H   0  0  0  0  0  0  0  0  0  0  0  0
  -13.4225    7.4961   -3.2635 H   0  0  0  0  0  0  0  0  0  0  0  0
  -10.9840    9.1300   -0.4907 H   0  0  0  0  0  0  0  0  0  0  0  0
  -13.2140    7.7791    1.1516 H   0  0  0  0  0  0  0  0  0  0  0  0
  -11.7804    8.6927    1.8000 H   0  0  0  0  0  0  0  0  0  0  0  0
  -13.8554   10.0370    1.8672 H   0  0  0  0  0  0  0  0  0  0  0  0
  -12.5905   10.7435    0.7863 H   0  0  0  0  0  0  0  0  0  0  0  0
  -14.7215   10.9152   -0.3057 H   0  0  0  0  0  0  0  0  0  0  0  0
  -15.8270    8.8420   -0.7960 H   0  0  0  0  0  0  0  0  0  0  0  0
  -12.3772   11.3619   -1.1165 H   0  0  0  0  0  0  0  0  0  0  0  0
  -11.8819   10.5075   -2.6170 H   0  0  0  0  0  0  0  0  0  0  0  0
  -13.3474   11.5462   -2.6170 H   0  0  0  0  0  0  0  0  0  0  0  0
  -15.6980    9.4102   -2.1821 H   0  0  0  0  0  0  0  0  0  0  0  0
  -14.7261   10.4158   -3.3094 H   0  0  0  0  0  0  0  0  0  0  0  0
  -14.5377    8.6294   -3.3094 H   0  0  0  0  0  0  0  0  0  0  0  0
  -11.4741    6.0562    1.6135 H   0  0  0  0  0  0  0  0  0  0  0  0
  -12.6417    5.9326    0.2541 H   0  0  0  0  0  0  0  0  0  0  0  0
  -11.1534    4.9268    0.2541 H   0  0  0  0  0  0  0  0  0  0  0  0
   -9.8343    8.0937    1.4000 H   0  0  0  0  0  0  0  0  0  0  0  0
   -9.1980    6.3938    1.0268 H   0  0  0  0  0  0  0  0  0  0  0  0
   -8.5506    8.9718   -0.4305 H   0  0  0  0  0  0  0  0  0  0  0  0
   -7.4543    7.9270    0.5567 H   0  0  0  0  0  0  0  0  0  0  0  0
   -7.5898    5.6421    0.2287 H   0  0  0  0  0  0  0  0  0  0  0  0
   -8.3274    4.9381   -1.2502 H   0  0  0  0  0  0  0  0  0  0  0  0
   -6.5957    5.4157   -1.2502 H   0  0  0  0  0  0  0  0  0  0  0  0
  1  2  1  0
  2  3  1  0
  3  4  1  0
  4  5  1  0
  5  6  1  0
  6  7  1  0
  7  8  1  0
  7  9  1  0
  2 10  1  0
 10 11  1  0
 11 12  1  0
 12 13  1  0
 13 14  1  6
 13 15  1  0
 15 16  1  0
 16 17  1  0
 17 18  2  0
 18 19  1  0
 19 20  1  0
 20 21  1  0
 21 22  1  0
 22 23  1  0
 22 24  1  0
 24 25  1  0
 24 26  1  0
 19 27  1  0
 27 28  1  1
 27 29  1  0
 29 30  1  0
 30 31  1  0
 31 32  1  1
  7  5  1  0
 31 10  1  0
 31 13  1  0
 27 15  1  0
 24 18  1  0
  1 33  1  0
  1 34  1  0
  1 35  1  0
  2 36  1  6
  3 37  1  0
  3 38  1  0
  4 39  1  0
  4 40  1  0
  5 41  1  6
  8 42  1  0
  8 43  1  0
  8 44  1  0
  9 45  1  0
  9 46  1  0
  9 47  1  0
 10 48  1  6
 11 49  1  0
 11 50  1  0
 12 51  1  0
 12 52  1  0
 14 53  1  0
 14 54  1  0
 14 55  1  0
 15 56  1  1
 16 57  1  0
 16 58  1  0
 17 59  1  0
 19 60  1  6
 20 61  1  0
 20 62  1  0
 21 63  1  0
 21 64  1  0
 22 65  1  6
 23 66  1  0
 25 67  1  0
 25 68  1  0
 25 69  1  0
 26 70  1  0
 26 71  1  0
 26 72  1  0
 28 73  1  0
 28 74  1  0
 28 75  1  0
 29 76  1  0
 29 77  1  0
 30 78  1  0
 30 79  1  0
 32 80  1  0
 32 81  1  0
 32 82  1  0
M  END
>  <meeko>  (7) 
{"is_sidechain": [false], "intermolecular_energy": 2.731, "internal_energy": -0.839}

$$$$
EPH_relaxed_0001_pdb2pqr_Repair_1_r2_0001_out
     RDKit          3D

 82 86  0  0  0  0  0  0  0  0999 V2000
    0.3890    8.8750   -2.5760 C   0  0  0  0  0  0  0  0  0  0  0  0
    1.1580   10.0390   -3.2060 C   0  0  2  0  0  0  0  0  0  0  0  0
    2.6490   10.0310   -2.8130 C   0  0  0  0  0  0  0  0  0  0  0  0
    3.5690   10.6400   -3.8740 C   0  0  0  0  0  0  0  0  0  0  0  0
    4.9590   10.8440   -3.3520 C   0  0  2  0  0  0  0  0  0  0  0  0
    5.5920   12.0530   -3.7920 O   0  0  0  0  0  0  0  0  0  0  0  0
    6.1940   10.8260   -4.2330 C   0  0  0  0  0  0  0  0  0  0  0  0
    6.0970   10.5960   -5.7090 C   0  0  0  0  0  0  0  0  0  0  0  0
    7.5210   10.5430   -3.5990 C   0  0  0  0  0  0  0  0  0  0  0  0
    0.5200   11.3630   -2.8010 C   0  0  1  0  0  0  0  0  0  0  0  0
   -0.8490   11.1750   -2.0940 C   0  0  0  0  0  0  0  0  0  0  0  0
   -0.9560   12.2890   -1.0220 C   0  0  0  0  0  0  0  0  0  0  0  0
    0.1880   13.2720   -1.3660 C   0  0  1  0  0  0  0  0  0  0  0  0
   -0.3770   14.1560   -2.5220 C   0  0  0  0  0  0  0  0  0  0  0  0
    0.7290   14.1430   -0.1860 C   0  0  2  0  0  0  0  0  0  0  0  0
   -0.2970   15.1030    0.4410 C   0  0  0  0  0  0  0  0  0  0  0  0
   -0.3510   16.4650   -0.1690 C   0  0  0  0  0  0  0  0  0  0  0  0
    0.5800   16.9950   -0.9830 C   0  0  0  0  0  0  0  0  0  0  0  0
    1.8800   16.2400   -1.2890 C   0  0  1  0  0  0  0  0  0  0  0  0
    3.0860   17.2070   -1.1500 C   0  0  0  0  0  0  0  0  0  0  0  0
    2.9270   18.4650   -1.9990 C   0  0  0  0  0  0  0  0  0  0  0  0
    1.6540   19.2190   -1.6250 C   0  0  2  0  0  0  0  0  0  0  0  0
    1.7930   19.7280   -0.2950 O   0  0  0  0  0  0  0  0  0  0  0  0
    0.3730   18.3420   -1.7180 C   0  0  0  0  0  0  0  0  0  0  0  0
    0.0560   18.0420   -3.2040 C   0  0  0  0  0  0  0  0  0  0  0  0
   -0.8180   19.1800   -1.1800 C   0  0  0  0  0  0  0  0  0  0  0  0
    2.0950   14.8800   -0.4960 C   0  0  1  0  0  0  0  0  0  0  0  0
    2.7700   15.1660    0.8800 C   0  0  0  0  0  0  0  0  0  0  0  0
    3.0960   13.9690   -1.3010 C   0  0  0  0  0  0  0  0  0  0  0  0
    2.4870   13.0430   -2.3710 C   0  0  0  0  0  0  0  0  0  0  0  0
    1.3030   12.2540   -1.8040 C   0  0  2  0  0  0  0  0  0  0  0  0
    1.8440   11.3390   -0.6530 C   0  0  0  0  0  0  0  0  0  0  0  0
    0.4401    8.9523   -1.4799 H   0  0  0  0  0  0  0  0  0  0  0  0
   -0.6622    8.9132   -2.8977 H   0  0  0  0  0  0  0  0  0  0  0  0
    0.8365    7.9230   -2.8977 H   0  0  0  0  0  0  0  0  0  0  0  0
    1.1040    9.9185   -4.2980 H   0  0  0  0  0  0  0  0  0  0  0  0
    2.7656   10.6047   -1.8817 H   0  0  0  0  0  0  0  0  0  0  0  0
    2.9450    8.9779   -2.6975 H   0  0  0  0  0  0  0  0  0  0  0  0
    3.6095    9.9642   -4.7410 H   0  0  0  0  0  0  0  0  0  0  0  0
    3.1620   11.6217   -4.1578 H   0  0  0  0  0  0  0  0  0  0  0  0
    4.7111   10.3186   -2.4179 H   0  0  0  0  0  0  0  0  0  0  0  0
    5.6759    9.5975   -5.8976 H   0  0  0  0  0  0  0  0  0  0  0  0
    5.4444   11.3598   -6.1570 H   0  0  0  0  0  0  0  0  0  0  0  0
    7.0995   10.6618   -6.1570 H   0  0  0  0  0  0  0  0  0  0  0  0
    7.4165   10.5653   -2.5042 H   0  0  0  0  0  0  0  0  0  0  0  0
    7.8732    9.5495   -3.9136 H   0  0  0  0  0  0  0  0  0  0  0  0
    8.2479   11.3063   -3.9136 H   0  0  0  0  0  0  0  0  0  0  0  0
    0.4706   11.8525   -3.7848 H   0  0  0  0  0  0  0  0  0  0  0  0
   -1.6677   11.2705   -2.8224 H   0  0  0  0  0  0  0  0  0  0  0  0
   -0.9229   10.1778   -1.6357 H   0  0  0  0  0  0  0  0  0  0  0  0
   -1.9320   12.7928   -1.0814 H   0  0  0  0  0  0  0  0  0  0  0  0
   -0.8727   11.8932    0.0010 H   0  0  0  0  0  0  0  0  0  0  0  0
   -0.9233   15.0107   -2.0965 H   0  0  0  0  0  0  0  0  0  0  0  0
    0.4539   14.5238   -3.1420 H   0  0  0  0  0  0  0  0  0  0  0  0
   -1.0597   13.5564   -3.1420 H   0  0  0  0  0  0  0  0  0  0  0  0
    0.9417   13.3876    0.5848 H   0  0  0  0  0  0  0  0  0  0  0  0
   -1.2933   14.6470    0.3434 H   0  0  0  0  0  0  0  0  0  0  0  0
    0.0201   15.2488    1.4842 H   0  0  0  0  0  0  0  0  0  0  0  0
   -1.2263   17.0879    0.0672 H   0  0  0  0  0  0  0  0  0  0  0  0
    1.7941   15.8973   -2.3307 H   0  0  0  0  0  0  0  0  0  0  0  0
    3.1810   17.5031   -0.0949 H   0  0  0  0  0  0  0  0  0  0  0  0
    3.9824   16.6764   -1.5033 H   0  0  0  0  0  0  0  0  0  0  0  0
    3.7948   19.1211   -1.8362 H   0  0  0  0  0  0  0  0  0  0  0  0
    2.8614   18.1687   -3.0563 H   0  0  0  0  0  0  0  0  0  0  0  0
    1.5288   20.0356   -2.3513 H   0  0  0  0  0  0  0  0  0  0  0  0
    1.4200   20.6250   -0.2830 H   0  0  0  0  0  0  0  0  0  0  0  0
   -0.7418   17.2870   -3.2635 H   0  0  0  0  0  0  0  0  0  0  0  0
   -0.2750   18.9653   -3.7019 H   0  0  0  0  0  0  0  0  0  0  0  0
    0.9597   17.6606   -3.7019 H   0  0  0  0  0  0  0  0  0  0  0  0
   -0.8054   19.1711   -0.0801 H   0  0  0  0  0  0  0  0  0  0  0  0
   -0.7294   20.2159   -1.5393 H   0  0  0  0  0  0  0  0  0  0  0  0
   -1.7631   18.7468   -1.5393 H   0  0  0  0  0  0  0  0  0  0  0  0
    2.0860   14.8762    1.6912 H   0  0  0  0  0  0  0  0  0  0  0  0
    3.7005   14.5848    0.9598 H   0  0  0  0  0  0  0  0  0  0  0  0
    2.9997   16.2388    0.9598 H   0  0  0  0  0  0  0  0  0  0  0  0
    3.8163   14.6305   -1.8046 H   0  0  0  0  0  0  0  0  0  0  0  0
    3.5352   13.2932   -0.5524 H   0  0  0  0  0  0  0  0  0  0  0  0
    2.1405   13.6521   -3.2189 H   0  0  0  0  0  0  0  0  0  0  0  0
    3.2585   12.3306   -2.6984 H   0  0  0  0  0  0  0  0  0  0  0  0
    1.5828   11.7807    0.3200 H   0  0  0  0  0  0  0  0  0  0  0  0
    1.3914   10.3398   -0.7354 H   0  0  0  0  0  0  0  0  0  0  0  0
    2.9376   11.2541   -0.7354 H   0  0  0  0  0  0  0  0  0  0  0  0
  1  2  1  0
  2  3  1  0
  3  4  1  0
  4  5  1  0
  5  6  1  0
  6  7  1  0
  7  8  1  0
  7  9  1  0
  2 10  1  0
 10 11  1  0
 11 12  1  0
 12 13  1  0
 13 14  1  6
 13 15  1  0
 15 16  1  0
 16 17  1  0
 17 18  2  0
 18 19  1  0
 19 20  1  0
 20 21  1  0
 21 22  1  0
 22 23  1  0
 22 24  1  0
 24 25  1  0
 24 26  1  0
 19 27  1  0
 27 28  1  1
 27 29  1  0
 29 30  1  0
 30 31  1  0
 31 32  1  1
  7  5  1  0
 31 10  1  0
 31 13  1  0
 27 15  1  0
 24 18  1  0
  1 33  1  0
  1 34  1  0
  1 35  1  0
  2 36  1  6
  3 37  1  0
  3 38  1  0
  4 39  1  0
  4 40  1  0
  5 41  1  1
  8 42  1  0
  8 43  1  0
  8 44  1  0
  9 45  1  0
  9 46  1  0
  9 47  1  0
 10 48  1  6
 11 49  1  0
 11 50  1  0
 12 51  1  0
 12 52  1  0
 14 53  1  0
 14 54  1  0
 14 55  1  0
 15 56  1  1
 16 57  1  0
 16 58  1  0
 17 59  1  0
 19 60  1  6
 20 61  1  0
 20 62  1  0
 21 63  1  0
 21 64  1  0
 22 65  1  6
 23 66  1  0
 25 67  1  0
 25 68  1  0
 25 69  1  0
 26 70  1  0
 26 71  1  0
 26 72  1  0
 28 73  1  0
 28 74  1  0
 28 75  1  0
 29 76  1  0
 29 77  1  0
 30 78  1  0
 30 79  1  0
 32 80  1  0
 32 81  1  0
 32 82  1  0
M  END
>  <meeko>  (8) 
{"is_sidechain": [false], "intermolecular_energy": 2.731, "internal_energy": -0.839}

$$$$
EPH_relaxed_0001_pdb2pqr_Repair_1_r2_0001_out
     RDKit          3D

 82 86  0  0  0  0  0  0  0  0999 V2000
    1.2540   19.6280   -1.9390 C   0  0  0  0  0  0  0  0  0  0  0  0
    1.3900   19.3070   -0.4470 C   0  0  2  0  0  0  0  0  0  0  0  0
    2.8130   19.5820    0.0790 C   0  0  0  0  0  0  0  0  0  0  0  0
    2.8640   19.9050    1.5750 C   0  0  0  0  0  0  0  0  0  0  0  0
    4.2500   19.7570    2.1270 C   0  0  2  0  0  0  0  0  0  0  0  0
    4.4590   18.5740    2.9090 O   0  0  0  0  0  0  0  0  0  0  0  0
    4.5720   19.8240    3.6080 C   0  0  0  0  0  0  0  0  0  0  0  0
    3.5010   20.0490    4.6290 C   0  0  0  0  0  0  0  0  0  0  0  0
    5.9710   20.1590    4.0210 C   0  0  0  0  0  0  0  0  0  0  0  0
    1.0130   17.8520   -0.1930 C   0  0  1  0  0  0  0  0  0  0  0  0
   -0.3680   17.7060    0.5010 C   0  0  0  0  0  0  0  0  0  0  0  0
   -1.0170   16.4160   -0.0620 C   0  0  0  0  0  0  0  0  0  0  0  0
    0.1320   15.6910   -0.8010 C   0  0  1  0  0  0  0  0  0  0  0  0
    0.9270   14.9520    0.3200 C   0  0  0  0  0  0  0  0  0  0  0  0
   -0.2900   14.7160   -1.9480 C   0  0  2  0  0  0  0  0  0  0  0  0
   -1.1470   13.5180   -1.5040 C   0  0  0  0  0  0  0  0  0  0  0  0
   -0.3820   12.2930   -1.1250 C   0  0  0  0  0  0  0  0  0  0  0  0
    0.9130   12.0600   -1.4080 C   0  0  0  0  0  0  0  0  0  0  0  0
    1.7200   13.0430   -2.2660 C   0  0  1  0  0  0  0  0  0  0  0  0
    2.5200   12.2580   -3.3390 C   0  0  0  0  0  0  0  0  0  0  0  0
    3.3900   11.1610   -2.7330 C   0  0  0  0  0  0  0  0  0  0  0  0
    2.5440   10.1710   -1.9370 C   0  0  2  0  0  0  0  0  0  0  0  0
    1.6910    9.4620   -2.8400 O   0  0  0  0  0  0  0  0  0  0  0  0
    1.6860   10.8490   -0.8320 C   0  0  0  0  0  0  0  0  0  0  0  0
    2.6080   11.3570    0.3050 C   0  0  0  0  0  0  0  0  0  0  0  0
    0.7770    9.7610   -0.1990 C   0  0  0  0  0  0  0  0  0  0  0  0
    0.9030   14.2590   -2.8820 C   0  0  1  0  0  0  0  0  0  0  0  0
    0.2670   13.8370   -4.2420 C   0  0  0  0  0  0  0  0  0  0  0  0
    1.8970   15.4370   -3.2030 C   0  0  0  0  0  0  0  0  0  0  0  0
    2.1810   16.4350   -2.0650 C   0  0  0  0  0  0  0  0  0  0  0  0
    0.8780   16.9260   -1.4270 C   0  0  2  0  0  0  0  0  0  0  0  0
    0.0670   17.6930   -2.5260 C   0  0  0  0  0  0  0  0  0  0  0  0
    0.8275   20.6347   -2.0601 H   0  0  0  0  0  0  0  0  0  0  0  0
    2.2454   19.5903   -2.4140 H   0  0  0  0  0  0  0  0  0  0  0  0
    0.5915   18.8895   -2.4140 H   0  0  0  0  0  0  0  0  0  0  0  0
    0.7029   19.9705    0.0986 H   0  0  0  0  0  0  0  0  0  0  0  0
    3.4298   18.6900   -0.1050 H   0  0  0  0  0  0  0  0  0  0  0  0
    3.1875   20.4682   -0.4544 H   0  0  0  0  0  0  0  0  0  0  0  0
    2.5282   20.9413    1.7277 H   0  0  0  0  0  0  0  0  0  0  0  0
    2.2076   19.1965    2.1015 H   0  0  0  0  0  0  0  0  0  0  0  0
    4.6782   20.2729    1.2549 H   0  0  0  0  0  0  0  0  0  0  0  0
    3.9310   19.9587    5.6374 H   0  0  0  0  0  0  0  0  0  0  0  0
    3.0771   21.0558    4.5000 H   0  0  0  0  0  0  0  0  0  0  0  0
    2.7078   19.2979    4.5000 H   0  0  0  0  0  0  0  0  0  0  0  0
    6.0354   20.1744    5.1190 H   0  0  0  0  0  0  0  0  0  0  0  0
    6.6621   19.4009    3.6238 H   0  0  0  0  0  0  0  0  0  0  0  0
    6.2437   21.1478    3.6238 H   0  0  0  0  0  0  0  0  0  0  0  0
    1.8744   17.5420    0.4168 H   0  0  0  0  0  0  0  0  0  0  0  0
   -0.2376   17.6203    1.5899 H   0  0  0  0  0  0  0  0  0  0  0  0
   -1.0020   18.5839    0.3078 H   0  0  0  0  0  0  0  0  0  0  0  0
   -1.4093   15.7909    0.7537 H   0  0  0  0  0  0  0  0  0  0  0  0
   -1.8679   16.6324   -0.7247 H   0  0  0  0  0  0  0  0  0  0  0  0
    0.5681   15.2856    1.3048 H   0  0  0  0  0  0  0  0  0  0  0  0
    0.7752   13.8669    0.2227 H   0  0  0  0  0  0  0  0  0  0  0  0
    1.9982   15.1825    0.2227 H   0  0  0  0  0  0  0  0  0  0  0  0
   -0.9519   15.3455   -2.5608 H   0  0  0  0  0  0  0  0  0  0  0  0
   -1.7424   13.8300   -0.6333 H   0  0  0  0  0  0  0  0  0  0  0  0
   -1.7559   13.2390   -2.3766 H   0  0  0  0  0  0  0  0  0  0  0  0
   -0.9230   11.5146   -0.5669 H   0  0  0  0  0  0  0  0  0  0  0  0
    2.4141   13.5478   -1.5780 H   0  0  0  0  0  0  0  0  0  0  0  0
    1.8099   11.7973   -4.0415 H   0  0  0  0  0  0  0  0  0  0  0  0
    3.1865   12.9708   -3.8467 H   0  0  0  0  0  0  0  0  0  0  0  0
    3.9072   10.6238   -3.5417 H   0  0  0  0  0  0  0  0  0  0  0  0
    4.1186   11.6264   -2.0529 H   0  0  0  0  0  0  0  0  0  0  0  0
    3.2345    9.4862   -1.4230 H   0  0  0  0  0  0  0  0  0  0  0  0
    1.3710   10.0970   -3.5030 H   0  0  0  0  0  0  0  0  0  0  0  0
    2.1596   11.1100    1.2786 H   0  0  0  0  0  0  0  0  0  0  0  0
    3.5929   10.8742    0.2218 H   0  0  0  0  0  0  0  0  0  0  0  0
    2.7260   12.4475    0.2218 H   0  0  0  0  0  0  0  0  0  0  0  0
    0.8334    9.8285    0.8975 H   0  0  0  0  0  0  0  0  0  0  0  0
   -0.2625    9.9177   -0.5230 H   0  0  0  0  0  0  0  0  0  0  0  0
    1.1160    8.7660   -0.5230 H   0  0  0  0  0  0  0  0  0  0  0  0
   -0.6361   13.2378   -4.0542 H   0  0  0  0  0  0  0  0  0  0  0  0
   -0.0023   14.7362   -4.8155 H   0  0  0  0  0  0  0  0  0  0  0  0
    0.9908   13.2394   -4.8155 H   0  0  0  0  0  0  0  0  0  0  0  0
    2.8570   14.9905   -3.5014 H   0  0  0  0  0  0  0  0  0  0  0  0
    1.4001   16.0276   -3.9867 H   0  0  0  0  0  0  0  0  0  0  0  0
    2.7933   15.9399   -1.2969 H   0  0  0  0  0  0  0  0  0  0  0  0
    2.7141   17.3013   -2.4838 H   0  0  0  0  0  0  0  0  0  0  0  0
   -0.6515   18.3725   -2.0442 H   0  0  0  0  0  0  0  0  0  0  0  0
    0.7586   18.2751   -3.1528 H   0  0  0  0  0  0  0  0  0  0  0  0
   -0.4757   16.9700   -3.1528 H   0  0  0  0  0  0  0  0  0  0  0  0
  1  2  1  0
  2  3  1  0
  3  4  1  0
  4  5  1  0
  5  6  1  0
  6  7  1  0
  7  8  1  0
  7  9  1  0
  2 10  1  0
 10 11  1  0
 11 12  1  0
 12 13  1  0
 13 14  1  1
 13 15  1  0
 15 16  1  0
 16 17  1  0
 17 18  2  0
 18 19  1  0
 19 20  1  0
 20 21  1  0
 21 22  1  0
 22 23  1  0
 22 24  1  0
 24 25  1  0
 24 26  1  0
 19 27  1  0
 27 28  1  6
 27 29  1  0
 29 30  1  0
 30 31  1  0
 31 32  1  6
  7  5  1  0
 31 10  1  0
 31 13  1  0
 27 15  1  0
 24 18  1  0
  1 33  1  0
  1 34  1  0
  1 35  1  0
  2 36  1  1
  3 37  1  0
  3 38  1  0
  4 39  1  0
  4 40  1  0
  5 41  1  6
  8 42  1  0
  8 43  1  0
  8 44  1  0
  9 45  1  0
  9 46  1  0
  9 47  1  0
 10 48  1  1
 11 49  1  0
 11 50  1  0
 12 51  1  0
 12 52  1  0
 14 53  1  0
 14 54  1  0
 14 55  1  0
 15 56  1  6
 16 57  1  0
 16 58  1  0
 17 59  1  0
 19 60  1  1
 20 61  1  0
 20 62  1  0
 21 63  1  0
 21 64  1  0
 22 65  1  1
 23 66  1  0
 25 67  1  0
 25 68  1  0
 25 69  1  0
 26 70  1  0
 26 71  1  0
 26 72  1  0
 28 73  1  0
 28 74  1  0
 28 75  1  0
 29 76  1  0
 29 77  1  0
 30 78  1  0
 30 79  1  0
 32 80  1  0
 32 81  1  0
 32 82  1  0
M  END
>  <meeko>  (9) 
{"is_sidechain": [false], "intermolecular_energy": 2.731, "internal_energy": -0.839}

$$$$
EPH_relaxed_0001_pdb2pqr_Repair_1_r2_0001_out
     RDKit          3D

 82 86  0  0  0  0  0  0  0  0999 V2000
    2.7400   19.2310   -0.9450 C   0  0  0  0  0  0  0  0  0  0  0  0
    2.5250   18.2230   -2.0770 C   0  0  2  0  0  0  0  0  0  0  0  0
    1.1200   18.3410   -2.7010 C   0  0  0  0  0  0  0  0  0  0  0  0
    0.3180   19.5390   -2.1880 C   0  0  0  0  0  0  0  0  0  0  0  0
   -0.9960   19.1160   -1.6030 C   0  0  2  0  0  0  0  0  0  0  0  0
   -1.8910   20.1940   -1.2990 O   0  0  0  0  0  0  0  0  0  0  0  0
   -1.4180   19.4290   -0.1790 C   0  0  0  0  0  0  0  0  0  0  0  0
   -0.5270   20.1940    0.7480 C   0  0  0  0  0  0  0  0  0  0  0  0
   -2.4720   18.5780    0.4580 C   0  0  0  0  0  0  0  0  0  0  0  0
    2.7480   16.8060   -1.5600 C   0  0  1  0  0  0  0  0  0  0  0  0
    3.4540   16.7790   -0.1780 C   0  0  0  0  0  0  0  0  0  0  0  0
    2.8660   15.5740    0.6000 C   0  0  0  0  0  0  0  0  0  0  0  0
    2.0970   14.7590   -0.4650 C   0  0  1  0  0  0  0  0  0  0  0  0
    3.1910   13.9160   -1.1930 C   0  0  0  0  0  0  0  0  0  0  0  0
    0.9310   13.8590    0.0610 C   0  0  2  0  0  0  0  0  0  0  0  0
    1.3550   12.7410    1.0280 C   0  0  0  0  0  0  0  0  0  0  0  0
    1.6950   11.4370    0.3850 C   0  0  0  0  0  0  0  0  0  0  0  0
    1.3920   11.0850   -0.8790 C   0  0  0  0  0  0  0  0  0  0  0  0
    0.5500   12.0050   -1.7720 C   0  0  1  0  0  0  0  0  0  0  0  0
   -0.5510   11.1730   -2.4810 C   0  0  0  0  0  0  0  0  0  0  0  0
    0.0180    9.9800   -3.2430 C   0  0  0  0  0  0  0  0  0  0  0  0
    0.7990    9.0590   -2.3100 C   0  0  2  0  0  0  0  0  0  0  0  0
   -0.1120    8.4600   -1.3840 O   0  0  0  0  0  0  0  0  0  0  0  0
    1.9300    9.7890   -1.5330 C   0  0  0  0  0  0  0  0  0  0  0  0
    3.0680   10.1750   -2.5110 C   0  0  0  0  0  0  0  0  0  0  0  0
    2.5460    8.7810   -0.5260 C   0  0  0  0  0  0  0  0  0  0  0  0
   -0.0270   13.3110   -1.0730 C   0  0  1  0  0  0  0  0  0  0  0  0
   -1.3900   12.9890   -0.3870 C   0  0  0  0  0  0  0  0  0  0  0  0
   -0.3300   14.3930   -2.1760 C   0  0  0  0  0  0  0  0  0  0  0  0
    0.8290   15.3300   -2.5670 C   0  0  0  0  0  0  0  0  0  0  0  0
    1.4930   15.9290   -1.3240 C   0  0  2  0  0  0  0  0  0  0  0  0
    0.4220   16.8010   -0.5830 C   0  0  0  0  0  0  0  0  0  0  0  0
    2.6315   18.7224    0.0243 H   0  0  0  0  0  0  0  0  0  0  0  0
    3.7499   19.6601   -1.0230 H   0  0  0  0  0  0  0  0  0  0  0  0
    1.9931   20.0348   -1.0230 H   0  0  0  0  0  0  0  0  0  0  0  0
    3.2566   18.4507   -2.8663 H   0  0  0  0  0  0  0  0  0  0  0  0
    1.2311   18.4385   -3.7910 H   0  0  0  0  0  0  0  0  0  0  0  0
    0.5642   17.4358   -2.4152 H   0  0  0  0  0  0  0  0  0  0  0  0
    0.9039   20.0549   -1.4130 H   0  0  0  0  0  0  0  0  0  0  0  0
    0.1161   20.2066   -3.0386 H   0  0  0  0  0  0  0  0  0  0  0  0
   -0.9765   18.1782   -2.1777 H   0  0  0  0  0  0  0  0  0  0  0  0
   -0.7962   19.9629    1.7892 H   0  0  0  0  0  0  0  0  0  0  0  0
    0.5202   19.9093    0.5682 H   0  0  0  0  0  0  0  0  0  0  0  0
   -0.6499   21.2722    0.5682 H   0  0  0  0  0  0  0  0  0  0  0  0
   -2.3868   18.6468    1.5525 H   0  0  0  0  0  0  0  0  0  0  0  0
   -3.4661   18.9297    0.1448 H   0  0  0  0  0  0  0  0  0  0  0  0
   -2.3376   17.5321    0.1448 H   0  0  0  0  0  0  0  0  0  0  0  0
    3.3407   16.3973   -2.3916 H   0  0  0  0  0  0  0  0  0  0  0  0
    4.5388   16.6526   -0.3090 H   0  0  0  0  0  0  0  0  0  0  0  0
    3.2905   17.7199    0.3679 H   0  0  0  0  0  0  0  0  0  0  0  0
    3.6701   14.9697    1.0453 H   0  0  0  0  0  0  0  0  0  0  0  0
    2.2182   15.8903    1.4308 H   0  0  0  0  0  0  0  0  0  0  0  0
    3.8310   13.4228   -0.4465 H   0  0  0  0  0  0  0  0  0  0  0  0
    2.7082   13.1542   -1.8227 H   0  0  0  0  0  0  0  0  0  0  0  0
    3.8046   14.5770   -1.8227 H   0  0  0  0  0  0  0  0  0  0  0  0
    0.3408   14.5657    0.6629 H   0  0  0  0  0  0  0  0  0  0  0  0
    2.2399   13.0879    1.5817 H   0  0  0  0  0  0  0  0  0  0  0  0
    0.4827   12.5460    1.6692 H   0  0  0  0  0  0  0  0  0  0  0  0
    2.2392   10.7015    0.9956 H   0  0  0  0  0  0  0  0  0  0  0  0
    1.2423   12.4208   -2.5188 H   0  0  0  0  0  0  0  0  0  0  0  0
   -1.2569   10.8032   -1.7228 H   0  0  0  0  0  0  0  0  0  0  0  0
   -1.0482   11.8293   -3.2105 H   0  0  0  0  0  0  0  0  0  0  0  0
   -0.8094    9.4149   -3.6969 H   0  0  0  0  0  0  0  0  0  0  0  0
    0.7009   10.3533   -4.0204 H   0  0  0  0  0  0  0  0  0  0  0  0
    1.2891    8.2971   -2.9339 H   0  0  0  0  0  0  0  0  0  0  0  0
   -0.1530    7.5100   -1.5840 H   0  0  0  0  0  0  0  0  0  0  0  0
    3.9573   10.4766   -1.9381 H   0  0  0  0  0  0  0  0  0  0  0  0
    3.3158    9.3107   -3.1446 H   0  0  0  0  0  0  0  0  0  0  0  0
    2.7388   11.0118   -3.1446 H   0  0  0  0  0  0  0  0  0  0  0  0
    2.3407    9.1170    0.5011 H   0  0  0  0  0  0  0  0  0  0  0  0
    2.1005    7.7875   -0.6828 H   0  0  0  0  0  0  0  0  0  0  0  0
    3.6333    8.7242   -0.6828 H   0  0  0  0  0  0  0  0  0  0  0  0
   -1.2665   13.0182    0.7057 H   0  0  0  0  0  0  0  0  0  0  0  0
   -2.1390   13.7349   -0.6914 H   0  0  0  0  0  0  0  0  0  0  0  0
   -1.7260   11.9868   -0.6914 H   0  0  0  0  0  0  0  0  0  0  0  0
   -0.6493   13.8616   -3.0846 H   0  0  0  0  0  0  0  0  0  0  0  0
   -1.0938   15.0492   -1.7333 H   0  0  0  0  0  0  0  0  0  0  0  0
    1.5779   14.7584   -3.1348 H   0  0  0  0  0  0  0  0  0  0  0  0
    0.4256   16.1503   -3.1788 H   0  0  0  0  0  0  0  0  0  0  0  0
    0.5517   16.6954    0.5042 H   0  0  0  0  0  0  0  0  0  0  0  0
    0.5484   17.8563   -0.8666 H   0  0  0  0  0  0  0  0  0  0  0  0
   -0.5857   16.4633   -0.8666 H   0  0  0  0  0  0  0  0  0  0  0  0
  1  2  1  0
  2  3  1  0
  3  4  1  0
  4  5  1  0
  5  6  1  0
  6  7  1  0
  7  8  1  0
  7  9  1  0
  2 10  1  0
 10 11  1  0
 11 12  1  0
 12 13  1  0
 13 14  1  6
 13 15  1  0
 15 16  1  0
 16 17  1  0
 17 18  2  0
 18 19  1  0
 19 20  1  0
 20 21  1  0
 21 22  1  0
 22 23  1  0
 22 24  1  0
 24 25  1  0
 24 26  1  0
 19 27  1  0
 27 28  1  1
 27 29  1  0
 29 30  1  0
 30 31  1  0
 31 32  1  1
  7  5  1  0
 31 10  1  0
 31 13  1  0
 27 15  1  0
 24 18  1  0
  1 33  1  0
  1 34  1  0
  1 35  1  0
  2 36  1  6
  3 37  1  0
  3 38  1  0
  4 39  1  0
  4 40  1  0
  5 41  1  6
  8 42  1  0
  8 43  1  0
  8 44  1  0
  9 45  1  0
  9 46  1  0
  9 47  1  0
 10 48  1  6
 11 49  1  0
 11 50  1  0
 12 51  1  0
 12 52  1  0
 14 53  1  0
 14 54  1  0
 14 55  1  0
 15 56  1  1
 16 57  1  0
 16 58  1  0
 17 59  1  0
 19 60  1  6
 20 61  1  0
 20 62  1  0
 21 63  1  0
 21 64  1  0
 22 65  1  6
 23 66  1  0
 25 67  1  0
 25 68  1  0
 25 69  1  0
 26 70  1  0
 26 71  1  0
 26 72  1  0
 28 73  1  0
 28 74  1  0
 28 75  1  0
 29 76  1  0
 29 77  1  0
 30 78  1  0
 30 79  1  0
 32 80  1  0
 32 81  1  0
 32 82  1  0
M  END
>  <meeko>  (10) 
{"is_sidechain": [false], "intermolecular_energy": 2.731, "internal_energy": -0.839}

$$$$
EPH_relaxed_0001_pdb2pqr_Repair_1_r2_0001_out
     RDKit          3D

 82 86  0  0  0  0  0  0  0  0999 V2000
   -0.9420   16.3920   -5.8930 C   0  0  0  0  0  0  0  0  0  0  0  0
    0.1670   15.6980   -6.6890 C   0  0  2  0  0  0  0  0  0  0  0  0
   -0.2180   15.4960   -8.1680 C   0  0  0  0  0  0  0  0  0  0  0  0
    0.4320   16.5060   -9.1170 C   0  0  0  0  0  0  0  0  0  0  0  0
    1.8400   16.1210   -9.4570 C   0  0  2  0  0  0  0  0  0  0  0  0
    2.3340   16.6780  -10.6820 O   0  0  0  0  0  0  0  0  0  0  0  0
    2.2050   15.2470  -10.6420 C   0  0  0  0  0  0  0  0  0  0  0  0
    1.1580   14.7050  -11.5640 C   0  0  0  0  0  0  0  0  0  0  0  0
    3.5160   14.5240  -10.6220 C   0  0  0  0  0  0  0  0  0  0  0  0
    0.5040   14.3560   -6.0500 C   0  0  1  0  0  0  0  0  0  0  0  0
    1.7220   13.6650   -6.7180 C   0  0  0  0  0  0  0  0  0  0  0  0
    2.4840   12.9170   -5.5940 C   0  0  0  0  0  0  0  0  0  0  0  0
    1.5110   12.9240   -4.3920 C   0  0  1  0  0  0  0  0  0  0  0  0
    0.5190   11.7510   -4.6720 C   0  0  0  0  0  0  0  0  0  0  0  0
    2.1620   12.8030   -2.9750 C   0  0  2  0  0  0  0  0  0  0  0  0
    2.9280   11.4940   -2.7180 C   0  0  0  0  0  0  0  0  0  0  0  0
    2.1180   10.3850   -2.1320 C   0  0  0  0  0  0  0  0  0  0  0  0
    0.9070   10.5200   -1.5600 C   0  0  0  0  0  0  0  0  0  0  0  0
    0.2730   11.9040   -1.3740 C   0  0  1  0  0  0  0  0  0  0  0  0
   -0.2910   12.0260    0.0660 C   0  0  0  0  0  0  0  0  0  0  0  0
   -1.2510   10.8930    0.4170 C   0  0  0  0  0  0  0  0  0  0  0  0
   -0.5670    9.5360    0.2750 C   0  0  2  0  0  0  0  0  0  0  0  0
    0.4550    9.4290    1.2710 O   0  0  0  0  0  0  0  0  0  0  0  0
    0.0480    9.3040   -1.1330 C   0  0  0  0  0  0  0  0  0  0  0  0
   -1.0850    9.1190   -2.1720 C   0  0  0  0  0  0  0  0  0  0  0  0
    0.8280    7.9610   -1.0980 C   0  0  0  0  0  0  0  0  0  0  0  0
    1.1820   13.1430   -1.7800 C   0  0  1  0  0  0  0  0  0  0  0  0
    2.0780   13.5640   -0.5760 C   0  0  0  0  0  0  0  0  0  0  0  0
    0.2570   14.3770   -2.0980 C   0  0  0  0  0  0  0  0  0  0  0  0
   -0.2570   14.5060   -3.5450 C   0  0  0  0  0  0  0  0  0  0  0  0
    0.8900   14.3590   -4.5490 C   0  0  2  0  0  0  0  0  0  0  0  0
    1.8920   15.5380   -4.3060 C   0  0  0  0  0  0  0  0  0  0  0  0
   -0.7506   16.2722   -4.8164 H   0  0  0  0  0  0  0  0  0  0  0  0
   -0.9596   17.4625   -6.1454 H   0  0  0  0  0  0  0  0  0  0  0  0
   -1.9125   15.9398   -6.1454 H   0  0  0  0  0  0  0  0  0  0  0  0
    1.0503   16.3532   -6.6651 H   0  0  0  0  0  0  0  0  0  0  0  0
    0.0910   14.4851   -8.4722 H   0  0  0  0  0  0  0  0  0  0  0  0
   -1.3059   15.6420   -8.2396 H   0  0  0  0  0  0  0  0  0  0  0  0
   -0.1580   16.5547  -10.0441 H   0  0  0  0  0  0  0  0  0  0  0  0
    0.4561   17.4835   -8.6131 H   0  0  0  0  0  0  0  0  0  0  0  0
    2.1079   16.0686   -8.3914 H   0  0  0  0  0  0  0  0  0  0  0  0
    0.3341   14.2785  -10.9729 H   0  0  0  0  0  0  0  0  0  0  0  0
    0.7723   15.5167  -12.1983 H   0  0  0  0  0  0  0  0  0  0  0  0
    1.5981   13.9215  -12.1983 H   0  0  0  0  0  0  0  0  0  0  0  0
    3.8249   14.3536   -9.5801 H   0  0  0  0  0  0  0  0  0  0  0  0
    3.4094   13.5571  -11.1356 H   0  0  0  0  0  0  0  0  0  0  0  0
    4.2768   15.1301  -11.1356 H   0  0  0  0  0  0  0  0  0  0  0  0
   -0.4569   13.8394   -6.1903 H   0  0  0  0  0  0  0  0  0  0  0  0
    1.3805   12.9524   -7.4832 H   0  0  0  0  0  0  0  0  0  0  0  0
    2.3717   14.4019   -7.2128 H   0  0  0  0  0  0  0  0  0  0  0  0
    2.7148   11.8862   -5.9008 H   0  0  0  0  0  0  0  0  0  0  0  0
    3.4465   13.3926   -5.3545 H   0  0  0  0  0  0  0  0  0  0  0  0
    0.1660   11.3336   -3.7175 H   0  0  0  0  0  0  0  0  0  0  0  0
   -0.3397   12.1265   -5.2479 H   0  0  0  0  0  0  0  0  0  0  0  0
    1.0319   10.9666   -5.2479 H   0  0  0  0  0  0  0  0  0  0  0  0
    2.9245   13.5955   -2.9981 H   0  0  0  0  0  0  0  0  0  0  0  0
    3.3370   11.1456   -3.6779 H   0  0  0  0  0  0  0  0  0  0  0  0
    3.6993   11.7346   -1.9715 H   0  0  0  0  0  0  0  0  0  0  0  0
    2.5468    9.3728   -2.1710 H   0  0  0  0  0  0  0  0  0  0  0  0
   -0.5487   11.9625   -2.1029 H   0  0  0  0  0  0  0  0  0  0  0  0
    0.5489   12.0091    0.7761 H   0  0  0  0  0  0  0  0  0  0  0  0
   -0.8529   12.9698    0.1254 H   0  0  0  0  0  0  0  0  0  0  0  0
   -1.5912   11.0179    1.4556 H   0  0  0  0  0  0  0  0  0  0  0  0
   -2.1058   10.9298   -0.2743 H   0  0  0  0  0  0  0  0  0  0  0  0
   -1.3369    8.7623    0.4112 H   0  0  0  0  0  0  0  0  0  0  0  0
    0.3140    8.5940    1.7490 H   0  0  0  0  0  0  0  0  0  0  0  0
   -2.0401    8.9630   -1.6491 H   0  0  0  0  0  0  0  0  0  0  0  0
   -1.1546   10.0177   -2.8025 H   0  0  0  0  0  0  0  0  0  0  0  0
   -0.8652    8.2449   -2.8025 H   0  0  0  0  0  0  0  0  0  0  0  0
    1.0004    7.6642   -0.0529 H   0  0  0  0  0  0  0  0  0  0  0  0
    0.2413    7.1828   -1.6082 H   0  0  0  0  0  0  0  0  0  0  0  0
    1.7946    8.0850   -1.6082 H   0  0  0  0  0  0  0  0  0  0  0  0
    1.5637   13.3224    0.3659 H   0  0  0  0  0  0  0  0  0  0  0  0
    3.0332   13.0205   -0.6221 H   0  0  0  0  0  0  0  0  0  0  0  0
    2.2693   14.6463   -0.6221 H   0  0  0  0  0  0  0  0  0  0  0  0
   -0.6205   14.3140   -1.4376 H   0  0  0  0  0  0  0  0  0  0  0  0
    0.8918   15.2610   -1.9384 H   0  0  0  0  0  0  0  0  0  0  0  0
   -1.0031   13.7199   -3.7333 H   0  0  0  0  0  0  0  0  0  0  0  0
   -0.7072   15.5019   -3.6699 H   0  0  0  0  0  0  0  0  0  0  0  0
    2.0224   15.6914   -3.2246 H   0  0  0  0  0  0  0  0  0  0  0  0
    2.8631   15.2937   -4.7614 H   0  0  0  0  0  0  0  0  0  0  0  0
    1.4943   16.4569   -4.7614 H   0  0  0  0  0  0  0  0  0  0  0  0
  1  2  1  0
  2  3  1  0
  3  4  1  0
  4  5  1  0
  5  6  1  0
  6  7  1  0
  7  8  1  0
  7  9  1  0
  2 10  1  0
 10 11  1  0
 11 12  1  0
 12 13  1  0
 13 14  1  6
 13 15  1  0
 15 16  1  0
 16 17  1  0
 17 18  2  0
 18 19  1  0
 19 20  1  0
 20 21  1  0
 21 22  1  0
 22 23  1  0
 22 24  1  0
 24 25  1  0
 24 26  1  0
 19 27  1  0
 27 28  1  1
 27 29  1  0
 29 30  1  0
 30 31  1  0
 31 32  1  6
  7  5  1  0
 31 10  1  0
 31 13  1  0
 27 15  1  0
 24 18  1  0
  1 33  1  0
  1 34  1  0
  1 35  1  0
  2 36  1  6
  3 37  1  0
  3 38  1  0
  4 39  1  0
  4 40  1  0
  5 41  1  1
  8 42  1  0
  8 43  1  0
  8 44  1  0
  9 45  1  0
  9 46  1  0
  9 47  1  0
 10 48  1  1
 11 49  1  0
 11 50  1  0
 12 51  1  0
 12 52  1  0
 14 53  1  0
 14 54  1  0
 14 55  1  0
 15 56  1  6
 16 57  1  0
 16 58  1  0
 17 59  1  0
 19 60  1  6
 20 61  1  0
 20 62  1  0
 21 63  1  0
 21 64  1  0
 22 65  1  1
 23 66  1  0
 25 67  1  0
 25 68  1  0
 25 69  1  0
 26 70  1  0
 26 71  1  0
 26 72  1  0
 28 73  1  0
 28 74  1  0
 28 75  1  0
 29 76  1  0
 29 77  1  0
 30 78  1  0
 30 79  1  0
 32 80  1  0
 32 81  1  0
 32 82  1  0
M  END
>  <meeko>  (11) 
{"is_sidechain": [false], "intermolecular_energy": 2.731, "internal_energy": -0.839}

$$$$
EPH_relaxed_0001_pdb2pqr_Repair_1_r2_0001_out
     RDKit          3D

 82 86  0  0  0  0  0  0  0  0999 V2000
    0.2080    9.3240   -2.2960 C   0  0  0  0  0  0  0  0  0  0  0  0
    1.2380   10.3560   -2.7650 C   0  0  2  0  0  0  0  0  0  0  0  0
    2.6550    9.7580   -2.8630 C   0  0  0  0  0  0  0  0  0  0  0  0
    3.5620   10.4840   -3.8610 C   0  0  0  0  0  0  0  0  0  0  0  0
    4.9470   10.6690   -3.3180 C   0  0  2  0  0  0  0  0  0  0  0  0
    5.5560   11.9240   -3.6500 O   0  0  0  0  0  0  0  0  0  0  0  0
    6.1840   10.7510   -4.1930 C   0  0  0  0  0  0  0  0  0  0  0  0
    6.0940   10.6480   -5.6830 C   0  0  0  0  0  0  0  0  0  0  0  0
    7.5140   10.4410   -3.5810 C   0  0  0  0  0  0  0  0  0  0  0  0
    1.2410   11.5530   -1.8210 C   0  0  1  0  0  0  0  0  0  0  0  0
    2.3110   11.4290   -0.7040 C   0  0  0  0  0  0  0  0  0  0  0  0
    2.8360   12.8620   -0.4270 C   0  0  0  0  0  0  0  0  0  0  0  0
    1.8290   13.7910   -1.1440 C   0  0  1  0  0  0  0  0  0  0  0  0
    0.6210   13.9080   -0.1630 C   0  0  0  0  0  0  0  0  0  0  0  0
    2.3660   15.1970   -1.5670 C   0  0  2  0  0  0  0  0  0  0  0  0
    2.8150   16.1010   -0.4050 C   0  0  0  0  0  0  0  0  0  0  0  0
    1.7550   16.9870    0.1600 C   0  0  0  0  0  0  0  0  0  0  0  0
    0.5750   17.2660   -0.4250 C   0  0  0  0  0  0  0  0  0  0  0  0
    0.2500   16.7430   -1.8300 C   0  0  1  0  0  0  0  0  0  0  0  0
   -0.3450   17.8930   -2.6860 C   0  0  0  0  0  0  0  0  0  0  0  0
   -1.5450   18.5580   -2.0180 C   0  0  0  0  0  0  0  0  0  0  0  0
   -1.1670   19.1160   -0.6480 C   0  0  2  0  0  0  0  0  0  0  0  0
   -0.2430   20.1940   -0.8290 O   0  0  0  0  0  0  0  0  0  0  0  0
   -0.5480   18.0500    0.2980 C   0  0  0  0  0  0  0  0  0  0  0  0
   -1.6410   17.0430    0.7340 C   0  0  0  0  0  0  0  0  0  0  0  0
   -0.0820   18.7720    1.5910 C   0  0  0  0  0  0  0  0  0  0  0  0
    1.4260   15.9750   -2.5740 C   0  0  1  0  0  0  0  0  0  0  0  0
    2.3310   16.9940   -3.3320 C   0  0  0  0  0  0  0  0  0  0  0  0
    0.8090   15.0280   -3.6700 C   0  0  0  0  0  0  0  0  0  0  0  0
    0.4080   13.6110   -3.2170 C   0  0  0  0  0  0  0  0  0  0  0  0
    1.5430   12.9420   -2.4360 C   0  0  2  0  0  0  0  0  0  0  0  0
    2.7660   12.7920   -3.4050 C   0  0  0  0  0  0  0  0  0  0  0  0
    0.1858    9.3017   -1.1965 H   0  0  0  0  0  0  0  0  0  0  0  0
   -0.7864    9.5990   -2.6774 H   0  0  0  0  0  0  0  0  0  0  0  0
    0.4850    8.3301   -2.6774 H   0  0  0  0  0  0  0  0  0  0  0  0
    0.9463   10.6801   -3.7749 H   0  0  0  0  0  0  0  0  0  0  0  0
    3.1226    9.8081   -1.8686 H   0  0  0  0  0  0  0  0  0  0  0  0
    2.5436    8.7245   -3.2228 H   0  0  0  0  0  0  0  0  0  0  0  0
    3.6181    9.8931   -4.7871 H   0  0  0  0  0  0  0  0  0  0  0  0
    3.1333   11.4786   -4.0536 H   0  0  0  0  0  0  0  0  0  0  0  0
    4.7082   10.0601   -2.4336 H   0  0  0  0  0  0  0  0  0  0  0  0
    5.3924    9.8451   -5.9533 H   0  0  0  0  0  0  0  0  0  0  0  0
    5.7354   11.6026   -6.0955 H   0  0  0  0  0  0  0  0  0  0  0  0
    7.0880   10.4206   -6.0955 H   0  0  0  0  0  0  0  0  0  0  0  0
    7.4268   10.4613   -2.4846 H   0  0  0  0  0  0  0  0  0  0  0  0
    7.8425    9.4422   -3.9043 H   0  0  0  0  0  0  0  0  0  0  0  0
    8.2503   11.1916   -3.9043 H   0  0  0  0  0  0  0  0  0  0  0  0
    0.1989   11.5155   -1.4709 H   0  0  0  0  0  0  0  0  0  0  0  0
    1.8607   11.0078    0.2069 H   0  0  0  0  0  0  0  0  0  0  0  0
    3.1289   10.7613   -1.0126 H   0  0  0  0  0  0  0  0  0  0  0  0
    2.8527   13.0675    0.6535 H   0  0  0  0  0  0  0  0  0  0  0  0
    3.8657   13.0060   -0.7863 H   0  0  0  0  0  0  0  0  0  0  0  0
    0.9861   13.8726    0.8740 H   0  0  0  0  0  0  0  0  0  0  0  0
    0.0993   14.8609   -0.3358 H   0  0  0  0  0  0  0  0  0  0  0  0
   -0.0739   13.0730   -0.3358 H   0  0  0  0  0  0  0  0  0  0  0  0
    3.2826   14.9419   -2.1190 H   0  0  0  0  0  0  0  0  0  0  0  0
    3.1852   15.4550    0.4047 H   0  0  0  0  0  0  0  0  0  0  0  0
    3.5824   16.7711   -0.8198 H   0  0  0  0  0  0  0  0  0  0  0  0
    1.9548   17.4513    1.1370 H   0  0  0  0  0  0  0  0  0  0  0  0
   -0.5015   15.9515   -1.6929 H   0  0  0  0  0  0  0  0  0  0  0  0
    0.4344   18.6522   -2.8475 H   0  0  0  0  0  0  0  0  0  0  0  0
   -0.6895   17.4587   -3.6361 H   0  0  0  0  0  0  0  0  0  0  0  0
   -1.9020   19.3802   -2.6556 H   0  0  0  0  0  0  0  0  0  0  0  0
   -2.3348   17.8041   -1.8843 H   0  0  0  0  0  0  0  0  0  0  0  0
   -2.0928   19.4628   -0.1656 H   0  0  0  0  0  0  0  0  0  0  0  0
    0.5300   19.8430   -1.3020 H   0  0  0  0  0  0  0  0  0  0  0  0
   -1.6850   17.0024    1.8324 H   0  0  0  0  0  0  0  0  0  0  0  0
   -2.6157   17.3662    0.3396 H   0  0  0  0  0  0  0  0  0  0  0  0
   -1.3986   16.0452    0.3396 H   0  0  0  0  0  0  0  0  0  0  0  0
   -0.4403   18.2168    2.4704 H   0  0  0  0  0  0  0  0  0  0  0  0
    1.0169   18.8183    1.6094 H   0  0  0  0  0  0  0  0  0  0  0  0
   -0.4924   19.7924    1.6094 H   0  0  0  0  0  0  0  0  0  0  0  0
    2.8785   17.6105   -2.6039 H   0  0  0  0  0  0  0  0  0  0  0  0
    3.0480   16.4487   -3.9634 H   0  0  0  0  0  0  0  0  0  0  0  0
    1.7049   17.6415   -3.9634 H   0  0  0  0  0  0  0  0  0  0  0  0
   -0.0927   15.5189   -4.0648 H   0  0  0  0  0  0  0  0  0  0  0  0
    1.6121   14.8785   -4.4067 H   0  0  0  0  0  0  0  0  0  0  0  0
   -0.4812   13.6775   -2.5729 H   0  0  0  0  0  0  0  0  0  0  0  0
    0.1930   13.0056   -4.1099 H   0  0  0  0  0  0  0  0  0  0  0  0
    3.6884   12.6789   -2.8165 H   0  0  0  0  0  0  0  0  0  0  0  0
    2.6246   11.9045   -4.0393 H   0  0  0  0  0  0  0  0  0  0  0  0
    2.8433   13.6874   -4.0393 H   0  0  0  0  0  0  0  0  0  0  0  0
  1  2  1  0
  2  3  1  0
  3  4  1  0
  4  5  1  0
  5  6  1  0
  6  7  1  0
  7  8  1  0
  7  9  1  0
  2 10  1  0
 10 11  1  0
 11 12  1  0
 12 13  1  0
 13 14  1  1
 13 15  1  0
 15 16  1  0
 16 17  1  0
 17 18  2  0
 18 19  1  0
 19 20  1  0
 20 21  1  0
 21 22  1  0
 22 23  1  0
 22 24  1  0
 24 25  1  0
 24 26  1  0
 19 27  1  0
 27 28  1  6
 27 29  1  0
 29 30  1  0
 30 31  1  0
 31 32  1  6
  7  5  1  0
 31 10  1  0
 31 13  1  0
 27 15  1  0
 24 18  1  0
  1 33  1  0
  1 34  1  0
  1 35  1  0
  2 36  1  6
  3 37  1  0
  3 38  1  0
  4 39  1  0
  4 40  1  0
  5 41  1  1
  8 42  1  0
  8 43  1  0
  8 44  1  0
  9 45  1  0
  9 46  1  0
  9 47  1  0
 10 48  1  1
 11 49  1  0
 11 50  1  0
 12 51  1  0
 12 52  1  0
 14 53  1  0
 14 54  1  0
 14 55  1  0
 15 56  1  6
 16 57  1  0
 16 58  1  0
 17 59  1  0
 19 60  1  1
 20 61  1  0
 20 62  1  0
 21 63  1  0
 21 64  1  0
 22 65  1  1
 23 66  1  0
 25 67  1  0
 25 68  1  0
 25 69  1  0
 26 70  1  0
 26 71  1  0
 26 72  1  0
 28 73  1  0
 28 74  1  0
 28 75  1  0
 29 76  1  0
 29 77  1  0
 30 78  1  0
 30 79  1  0
 32 80  1  0
 32 81  1  0
 32 82  1  0
M  END
>  <meeko>  (12) 
{"is_sidechain": [false], "intermolecular_energy": 2.731, "internal_energy": -0.839}

$$$$
EPH_relaxed_0001_pdb2pqr_Repair_1_r2_0001_out
     RDKit          3D

 82 86  0  0  0  0  0  0  0  0999 V2000
    2.6600   10.0320   -2.9610 C   0  0  0  0  0  0  0  0  0  0  0  0
    1.3080   10.2120   -2.2650 C   0  0  2  0  0  0  0  0  0  0  0  0
    0.1400   10.2590   -3.2710 C   0  0  0  0  0  0  0  0  0  0  0  0
   -1.0560    9.3930   -2.8650 C   0  0  0  0  0  0  0  0  0  0  0  0
   -1.1980    9.3060   -1.3760 C   0  0  2  0  0  0  0  0  0  0  0  0
   -2.5510    9.3160   -0.9020 O   0  0  0  0  0  0  0  0  0  0  0  0
   -1.7380   10.4370   -0.5200 C   0  0  0  0  0  0  0  0  0  0  0  0
   -2.1690   11.7360   -1.1240 C   0  0  0  0  0  0  0  0  0  0  0  0
   -1.3900   10.4600    0.9360 C   0  0  0  0  0  0  0  0  0  0  0  0
    1.3220   11.4820   -1.4230 C   0  0  1  0  0  0  0  0  0  0  0  0
    2.3830   11.4370   -0.2920 C   0  0  0  0  0  0  0  0  0  0  0  0
    2.9250   12.8810   -0.1290 C   0  0  0  0  0  0  0  0  0  0  0  0
    1.9350   13.7610   -0.9270 C   0  0  1  0  0  0  0  0  0  0  0  0
    0.7220   13.9730    0.0330 C   0  0  0  0  0  0  0  0  0  0  0  0
    2.4930   15.1210   -1.4600 C   0  0  2  0  0  0  0  0  0  0  0  0
    2.9470   16.1110   -0.3730 C   0  0  0  0  0  0  0  0  0  0  0  0
    1.8950   17.0540    0.1090 C   0  0  0  0  0  0  0  0  0  0  0  0
    0.7230   17.2990   -0.5050 C   0  0  0  0  0  0  0  0  0  0  0  0
    0.3990   16.6670   -1.8650 C   0  0  1  0  0  0  0  0  0  0  0  0
   -0.1750   17.7500   -2.8160 C   0  0  0  0  0  0  0  0  0  0  0  0
   -1.3700   18.4830   -2.2140 C   0  0  0  0  0  0  0  0  0  0  0  0
   -0.9930   19.1460   -0.8920 C   0  0  2  0  0  0  0  0  0  0  0  0
   -0.0540   20.1940   -1.1530 O   0  0  0  0  0  0  0  0  0  0  0  0
   -0.3940   18.1540    0.1430 C   0  0  0  0  0  0  0  0  0  0  0  0
   -1.5030   17.2000    0.6530 C   0  0  0  0  0  0  0  0  0  0  0  0
    0.0730   18.9740    1.3760 C   0  0  0  0  0  0  0  0  0  0  0  0
    1.5690   15.8250   -2.5340 C   0  0  1  0  0  0  0  0  0  0  0  0
    2.4920   16.7660   -3.3670 C   0  0  0  0  0  0  0  0  0  0  0  0
    0.9460   14.7990   -3.5530 C   0  0  0  0  0  0  0  0  0  0  0  0
    0.5240   13.4290   -2.9880 C   0  0  0  0  0  0  0  0  0  0  0  0
    1.6460   12.8130   -2.1470 C   0  0  2  0  0  0  0  0  0  0  0  0
    2.8720   12.5670   -3.0920 C   0  0  0  0  0  0  0  0  0  0  0  0
    3.4510    9.9267   -2.2039 H   0  0  0  0  0  0  0  0  0  0  0  0
    2.6316    9.1297   -3.5895 H   0  0  0  0  0  0  0  0  0  0  0  0
    2.8686   10.9103   -3.5895 H   0  0  0  0  0  0  0  0  0  0  0  0
    1.1502    9.3380   -1.6159 H   0  0  0  0  0  0  0  0  0  0  0  0
   -0.2001   11.3013   -3.3602 H   0  0  0  0  0  0  0  0  0  0  0  0
    0.5188    9.8588   -4.2230 H   0  0  0  0  0  0  0  0  0  0  0  0
   -1.9728    9.8320   -3.2854 H   0  0  0  0  0  0  0  0  0  0  0  0
   -0.8909    8.3772   -3.2533 H   0  0  0  0  0  0  0  0  0  0  0  0
   -0.2873    8.6936   -1.3010 H   0  0  0  0  0  0  0  0  0  0  0  0
   -2.4065   12.4518   -0.3232 H   0  0  0  0  0  0  0  0  0  0  0  0
   -1.3563   12.1385   -1.7464 H   0  0  0  0  0  0  0  0  0  0  0  0
   -3.0612   11.5728   -1.7464 H   0  0  0  0  0  0  0  0  0  0  0  0
   -2.3111   10.3991    1.5342 H   0  0  0  0  0  0  0  0  0  0  0  0
   -0.7424    9.6027    1.1718 H   0  0  0  0  0  0  0  0  0  0  0  0
   -0.8608   11.3951    1.1718 H   0  0  0  0  0  0  0  0  0  0  0  0
    0.2771   11.4860   -1.0792 H   0  0  0  0  0  0  0  0  0  0  0  0
    1.9215   11.0974    0.6470 H   0  0  0  0  0  0  0  0  0  0  0  0
    3.1941   10.7363   -0.5391 H   0  0  0  0  0  0  0  0  0  0  0  0
    2.9374   13.1739    0.9312 H   0  0  0  0  0  0  0  0  0  0  0  0
    3.9588   12.9822   -0.4911 H   0  0  0  0  0  0  0  0  0  0  0  0
    1.0653   13.9130    1.0763 H   0  0  0  0  0  0  0  0  0  0  0  0
    0.2777   14.9624   -0.1505 H   0  0  0  0  0  0  0  0  0  0  0  0
   -0.0315   13.1929   -0.1505 H   0  0  0  0  0  0  0  0  0  0  0  0
    3.4097   14.8107   -1.9829 H   0  0  0  0  0  0  0  0  0  0  0  0
    3.3031   15.5289    0.4898 H   0  0  0  0  0  0  0  0  0  0  0  0
    3.7265   16.7345   -0.8352 H   0  0  0  0  0  0  0  0  0  0  0  0
    2.0949   17.5946    1.0459 H   0  0  0  0  0  0  0  0  0  0  0  0
   -0.3647   15.8997   -1.6698 H   0  0  0  0  0  0  0  0  0  0  0  0
    0.6156   18.4833   -3.0333 H   0  0  0  0  0  0  0  0  0  0  0  0
   -0.5195   17.2435   -3.7297 H   0  0  0  0  0  0  0  0  0  0  0  0
   -1.7117   19.2548   -2.9194 H   0  0  0  0  0  0  0  0  0  0  0  0
   -2.1711   17.7532   -2.0252 H   0  0  0  0  0  0  0  0  0  0  0  0
   -1.9176   19.5423   -0.4470 H   0  0  0  0  0  0  0  0  0  0  0  0
   -0.5100   21.0410   -1.0080 H   0  0  0  0  0  0  0  0  0  0  0  0
   -1.5067   17.1969    1.7530 H   0  0  0  0  0  0  0  0  0  0  0  0
   -2.4806   17.5438    0.2841 H   0  0  0  0  0  0  0  0  0  0  0  0
   -1.3092   16.1820    0.2841 H   0  0  0  0  0  0  0  0  0  0  0  0
   -0.2243   18.4520    2.2975 H   0  0  0  0  0  0  0  0  0  0  0  0
    1.1675   19.0810    1.3520 H   0  0  0  0  0  0  0  0  0  0  0  0
   -0.3934   19.9699    1.3520 H   0  0  0  0  0  0  0  0  0  0  0  0
    3.0970   17.3828   -2.6862 H   0  0  0  0  0  0  0  0  0  0  0  0
    3.1563   16.1606   -4.0012 H   0  0  0  0  0  0  0  0  0  0  0  0
    1.8739   17.4184   -4.0012 H   0  0  0  0  0  0  0  0  0  0  0  0
    0.0530   15.2671   -3.9928 H   0  0  0  0  0  0  0  0  0  0  0  0
    1.7512   14.5795   -4.2696 H   0  0  0  0  0  0  0  0  0  0  0  0
   -0.3680   13.5591   -2.3577 H   0  0  0  0  0  0  0  0  0  0  0  0
    0.3062   12.7549   -3.8295 H   0  0  0  0  0  0  0  0  0  0  0  0
    3.7719   12.3864   -2.4857 H   0  0  0  0  0  0  0  0  0  0  0  0
    2.6756   11.6904   -3.7268 H   0  0  0  0  0  0  0  0  0  0  0  0
    3.0290   13.4516   -3.7268 H   0  0  0  0  0  0  0  0  0  0  0  0
  1  2  1  0
  2  3  1  0
  3  4  1  0
  4  5  1  0
  5  6  1  0
  6  7  1  0
  7  8  1  0
  7  9  1  0
  2 10  1  0
 10 11  1  0
 11 12  1  0
 12 13  1  0
 13 14  1  1
 13 15  1  0
 15 16  1  0
 16 17  1  0
 17 18  2  0
 18 19  1  0
 19 20  1  0
 20 21  1  0
 21 22  1  0
 22 23  1  0
 22 24  1  0
 24 25  1  0
 24 26  1  0
 19 27  1  0
 27 28  1  6
 27 29  1  0
 29 30  1  0
 30 31  1  0
 31 32  1  6
  7  5  1  0
 31 10  1  0
 31 13  1  0
 27 15  1  0
 24 18  1  0
  1 33  1  0
  1 34  1  0
  1 35  1  0
  2 36  1  1
  3 37  1  0
  3 38  1  0
  4 39  1  0
  4 40  1  0
  5 41  1  1
  8 42  1  0
  8 43  1  0
  8 44  1  0
  9 45  1  0
  9 46  1  0
  9 47  1  0
 10 48  1  1
 11 49  1  0
 11 50  1  0
 12 51  1  0
 12 52  1  0
 14 53  1  0
 14 54  1  0
 14 55  1  0
 15 56  1  6
 16 57  1  0
 16 58  1  0
 17 59  1  0
 19 60  1  1
 20 61  1  0
 20 62  1  0
 21 63  1  0
 21 64  1  0
 22 65  1  1
 23 66  1  0
 25 67  1  0
 25 68  1  0
 25 69  1  0
 26 70  1  0
 26 71  1  0
 26 72  1  0
 28 73  1  0
 28 74  1  0
 28 75  1  0
 29 76  1  0
 29 77  1  0
 30 78  1  0
 30 79  1  0
 32 80  1  0
 32 81  1  0
 32 82  1  0
M  END
>  <meeko>  (13) 
{"is_sidechain": [false], "intermolecular_energy": 2.731, "internal_energy": -0.839}

$$$$
EPH_relaxed_0001_pdb2pqr_Repair_1_r2_0001_out
     RDKit          3D

 82 86  0  0  0  0  0  0  0  0999 V2000
   -2.0580    7.7970   -2.1880 C   0  0  0  0  0  0  0  0  0  0  0  0
   -2.2630    8.4900   -0.8380 C   0  0  2  0  0  0  0  0  0  0  0  0
   -3.7440    8.5050   -0.4120 C   0  0  0  0  0  0  0  0  0  0  0  0
   -4.6830    7.8420   -1.4230 C   0  0  0  0  0  0  0  0  0  0  0  0
   -5.8270    7.1500   -0.7470 C   0  0  2  0  0  0  0  0  0  0  0  0
   -6.3910    6.0610   -1.4900 O   0  0  0  0  0  0  0  0  0  0  0  0
   -7.2530    7.1890   -1.2660 C   0  0  0  0  0  0  0  0  0  0  0  0
   -7.6100    7.9380   -2.5110 C   0  0  0  0  0  0  0  0  0  0  0  0
   -8.3700    6.9140   -0.3090 C   0  0  0  0  0  0  0  0  0  0  0  0
   -1.7230    9.9140   -0.8970 C   0  0  1  0  0  0  0  0  0  0  0  0
   -1.2830   10.4450    0.4930 C   0  0  0  0  0  0  0  0  0  0  0  0
   -0.0530   11.3570    0.2550 C   0  0  0  0  0  0  0  0  0  0  0  0
   -0.0290   11.5880   -1.2740 C   0  0  1  0  0  0  0  0  0  0  0  0
   -1.0750   12.7190   -1.5260 C   0  0  0  0  0  0  0  0  0  0  0  0
    1.3610   11.9380   -1.8990 C   0  0  2  0  0  0  0  0  0  0  0  0
    1.9890   13.2510   -1.4000 C   0  0  0  0  0  0  0  0  0  0  0  0
    1.6400   14.4670   -2.1940 C   0  0  0  0  0  0  0  0  0  0  0  0
    1.0920   14.4670   -3.4230 C   0  0  0  0  0  0  0  0  0  0  0  0
    0.8550   13.1540   -4.1800 C   0  0  1  0  0  0  0  0  0  0  0  0
    1.3550   13.3020   -5.6420 C   0  0  0  0  0  0  0  0  0  0  0  0
    0.7390   14.5040   -6.3510 C   0  0  0  0  0  0  0  0  0  0  0  0
    1.0450   15.7970   -5.6000 C   0  0  2  0  0  0  0  0  0  0  0  0
    2.4520   16.0500   -5.6710 O   0  0  0  0  0  0  0  0  0  0  0  0
    0.5950   15.7620   -4.1120 C   0  0  0  0  0  0  0  0  0  0  0  0
   -0.9510   15.7910   -4.0350 C   0  0  0  0  0  0  0  0  0  0  0  0
    1.0880   17.0680   -3.4330 C   0  0  0  0  0  0  0  0  0  0  0  0
    1.4060   11.8390   -3.4770 C   0  0  1  0  0  0  0  0  0  0  0  0
    2.8990   11.6130   -3.8670 C   0  0  0  0  0  0  0  0  0  0  0  0
    0.6120   10.5940   -4.0220 C   0  0  0  0  0  0  0  0  0  0  0  0
   -0.6920   10.2270   -3.2880 C   0  0  0  0  0  0  0  0  0  0  0  0
   -0.4700   10.1640   -1.7740 C   0  0  2  0  0  0  0  0  0  0  0  0
    0.5610    9.0200   -1.4880 C   0  0  0  0  0  0  0  0  0  0  0  0
   -1.7496    6.7543   -2.0218 H   0  0  0  0  0  0  0  0  0  0  0  0
   -2.9998    7.8147   -2.7560 H   0  0  0  0  0  0  0  0  0  0  0  0
   -1.2773    8.3242   -2.7560 H   0  0  0  0  0  0  0  0  0  0  0  0
   -1.7085    7.9136   -0.0828 H   0  0  0  0  0  0  0  0  0  0  0  0
   -3.8348    7.9732    0.5466 H   0  0  0  0  0  0  0  0  0  0  0  0
   -4.0459    9.5601   -0.3375 H   0  0  0  0  0  0  0  0  0  0  0  0
   -5.0819    8.6135   -2.0980 H   0  0  0  0  0  0  0  0  0  0  0  0
   -4.1083    7.0882   -1.9811 H   0  0  0  0  0  0  0  0  0  0  0  0
   -5.3968    7.3555    0.2443 H   0  0  0  0  0  0  0  0  0  0  0  0
   -8.0688    8.9006   -2.2410 H   0  0  0  0  0  0  0  0  0  0  0  0
   -6.7011    8.1185   -3.1037 H   0  0  0  0  0  0  0  0  0  0  0  0
   -8.3226    7.3456   -3.1037 H   0  0  0  0  0  0  0  0  0  0  0  0
   -7.9997    7.0052    0.7228 H   0  0  0  0  0  0  0  0  0  0  0  0
   -9.1804    7.6394   -0.4731 H   0  0  0  0  0  0  0  0  0  0  0  0
   -8.7510    5.8952   -0.4731 H   0  0  0  0  0  0  0  0  0  0  0  0
   -2.5952   10.4233   -1.3328 H   0  0  0  0  0  0  0  0  0  0  0  0
   -2.0986   11.0218    0.9536 H   0  0  0  0  0  0  0  0  0  0  0  0
   -1.0341    9.6158    1.1716 H   0  0  0  0  0  0  0  0  0  0  0  0
   -0.1676   12.3112    0.7902 H   0  0  0  0  0  0  0  0  0  0  0  0
    0.8795   10.9045    0.6233 H   0  0  0  0  0  0  0  0  0  0  0  0
   -1.4344   13.1076   -0.5617 H   0  0  0  0  0  0  0  0  0  0  0  0
   -0.6045   13.5330   -2.0969 H   0  0  0  0  0  0  0  0  0  0  0  0
   -1.9232   12.3134   -2.0969 H   0  0  0  0  0  0  0  0  0  0  0  0
    2.0028   11.1335   -1.5107 H   0  0  0  0  0  0  0  0  0  0  0  0
    1.6569   13.4145   -0.3641 H   0  0  0  0  0  0  0  0  0  0  0  0
    3.0773   13.1248   -1.4989 H   0  0  0  0  0  0  0  0  0  0  0  0
    1.8485   15.4449   -1.7355 H   0  0  0  0  0  0  0  0  0  0  0  0
   -0.2327   12.9901   -4.1718 H   0  0  0  0  0  0  0  0  0  0  0  0
    2.4484   13.4214   -5.6305 H   0  0  0  0  0  0  0  0  0  0  0  0
    1.0527   12.3985   -6.1918 H   0  0  0  0  0  0  0  0  0  0  0  0
    1.1520   14.5723   -7.3682 H   0  0  0  0  0  0  0  0  0  0  0  0
   -0.3521   14.3689   -6.3867 H   0  0  0  0  0  0  0  0  0  0  0  0
    0.4719   16.6023   -6.0827 H   0  0  0  0  0  0  0  0  0  0  0  0
    2.9110   15.2380   -5.3980 H   0  0  0  0  0  0  0  0  0  0  0  0
   -1.2656   15.7969   -2.9810 H   0  0  0  0  0  0  0  0  0  0  0  0
   -1.3261   16.6963   -4.5347 H   0  0  0  0  0  0  0  0  0  0  0  0
   -1.3598   14.9004   -4.5347 H   0  0  0  0  0  0  0  0  0  0  0  0
    1.0442   16.9521   -2.3400 H   0  0  0  0  0  0  0  0  0  0  0  0
    2.1248   17.2715   -3.7389 H   0  0  0  0  0  0  0  0  0  0  0  0
    0.4443   17.9059   -3.7389 H   0  0  0  0  0  0  0  0  0  0  0  0
    3.5064   11.5211   -2.9546 H   0  0  0  0  0  0  0  0  0  0  0  0
    2.9874   10.6912   -4.4608 H   0  0  0  0  0  0  0  0  0  0  0  0
    3.2562   12.4673   -4.4608 H   0  0  0  0  0  0  0  0  0  0  0  0
    0.3571   10.7957   -5.0729 H   0  0  0  0  0  0  0  0  0  0  0  0
    1.2814    9.7350   -3.8672 H   0  0  0  0  0  0  0  0  0  0  0  0
   -1.4553   10.9878   -3.5084 H   0  0  0  0  0  0  0  0  0  0  0  0
   -1.0232    9.2372   -3.6353 H   0  0  0  0  0  0  0  0  0  0  0  0
    0.6756    8.8929   -0.4014 H   0  0  0  0  0  0  0  0  0  0  0  0
    0.1986    8.0806   -1.9309 H   0  0  0  0  0  0  0  0  0  0  0  0
    1.5329    9.2831   -1.9309 H   0  0  0  0  0  0  0  0  0  0  0  0
  1  2  1  0
  2  3  1  0
  3  4  1  0
  4  5  1  0
  5  6  1  0
  6  7  1  0
  7  8  1  0
  7  9  1  0
  2 10  1  0
 10 11  1  0
 11 12  1  0
 12 13  1  0
 13 14  1  1
 13 15  1  0
 15 16  1  0
 16 17  1  0
 17 18  2  0
 18 19  1  0
 19 20  1  0
 20 21  1  0
 21 22  1  0
 22 23  1  0
 22 24  1  0
 24 25  1  0
 24 26  1  0
 19 27  1  0
 27 28  1  1
 27 29  1  0
 29 30  1  0
 30 31  1  0
 31 32  1  6
  7  5  1  0
 31 10  1  0
 31 13  1  0
 27 15  1  0
 24 18  1  0
  1 33  1  0
  1 34  1  0
  1 35  1  0
  2 36  1  1
  3 37  1  0
  3 38  1  0
  4 39  1  0
  4 40  1  0
  5 41  1  1
  8 42  1  0
  8 43  1  0
  8 44  1  0
  9 45  1  0
  9 46  1  0
  9 47  1  0
 10 48  1  6
 11 49  1  0
 11 50  1  0
 12 51  1  0
 12 52  1  0
 14 53  1  0
 14 54  1  0
 14 55  1  0
 15 56  1  1
 16 57  1  0
 16 58  1  0
 17 59  1  0
 19 60  1  6
 20 61  1  0
 20 62  1  0
 21 63  1  0
 21 64  1  0
 22 65  1  6
 23 66  1  0
 25 67  1  0
 25 68  1  0
 25 69  1  0
 26 70  1  0
 26 71  1  0
 26 72  1  0
 28 73  1  0
 28 74  1  0
 28 75  1  0
 29 76  1  0
 29 77  1  0
 30 78  1  0
 30 79  1  0
 32 80  1  0
 32 81  1  0
 32 82  1  0
M  END
>  <meeko>  (14) 
{"is_sidechain": [false], "intermolecular_energy": 2.731, "internal_energy": -0.839}

$$$$
EPH_relaxed_0001_pdb2pqr_Repair_1_r2_0001_out
     RDKit          3D

 82 86  0  0  0  0  0  0  0  0999 V2000
   -4.1170    7.2690   -3.6530 C   0  0  0  0  0  0  0  0  0  0  0  0
   -3.7390    7.2070   -2.1710 C   0  0  2  0  0  0  0  0  0  0  0  0
   -4.9180    6.7520   -1.2890 C   0  0  0  0  0  0  0  0  0  0  0  0
   -6.1860    6.4190   -2.0800 C   0  0  0  0  0  0  0  0  0  0  0  0
   -7.3800    6.2830   -1.1840 C   0  0  2  0  0  0  0  0  0  0  0  0
   -8.4820    5.5700   -1.7590 O   0  0  0  0  0  0  0  0  0  0  0  0
   -8.7120    6.9560   -1.4570 C   0  0  0  0  0  0  0  0  0  0  0  0
   -8.9190    7.8150   -2.6650 C   0  0  0  0  0  0  0  0  0  0  0  0
   -9.6510    7.1760   -0.3120 C   0  0  0  0  0  0  0  0  0  0  0  0
   -3.2360    8.5690   -1.7060 C   0  0  1  0  0  0  0  0  0  0  0  0
   -3.9600    9.0690   -0.4280 C   0  0  0  0  0  0  0  0  0  0  0  0
   -2.9110    9.8500    0.4040 C   0  0  0  0  0  0  0  0  0  0  0  0
   -1.7220   10.0580   -0.5630 C   0  0  1  0  0  0  0  0  0  0  0  0
   -2.1270   11.2860   -1.4370 C   0  0  0  0  0  0  0  0  0  0  0  0
   -0.3200   10.2580    0.0990 C   0  0  2  0  0  0  0  0  0  0  0  0
   -0.1900   11.5070    0.9880 C   0  0  0  0  0  0  0  0  0  0  0  0
    0.2750   12.7420    0.2890 C   0  0  0  0  0  0  0  0  0  0  0  0
    0.8480   12.7820   -0.9280 C   0  0  0  0  0  0  0  0  0  0  0  0
    1.1670   11.4910   -1.6920 C   0  0  1  0  0  0  0  0  0  0  0  0
    2.6080   11.5700   -2.2620 C   0  0  0  0  0  0  0  0  0  0  0  0
    2.8350   12.8190   -3.1080 C   0  0  0  0  0  0  0  0  0  0  0  0
    2.5630   14.0830   -2.2970 C   0  0  2  0  0  0  0  0  0  0  0  0
    3.5510   14.1920   -1.2670 O   0  0  0  0  0  0  0  0  0  0  0  0
    1.1430   14.1120   -1.6650 C   0  0  0  0  0  0  0  0  0  0  0  0
    0.0820   14.2990   -2.7770 C   0  0  0  0  0  0  0  0  0  0  0  0
    1.0490   15.3700   -0.7600 C   0  0  0  0  0  0  0  0  0  0  0  0
    0.8950   10.1360   -0.9070 C   0  0  1  0  0  0  0  0  0  0  0  0
    2.1430    9.7550   -0.0540 C   0  0  0  0  0  0  0  0  0  0  0  0
    0.6960    8.9710   -1.9470 C   0  0  0  0  0  0  0  0  0  0  0  0
   -0.7340    8.7460   -2.4740 C   0  0  0  0  0  0  0  0  0  0  0  0
   -1.7390    8.6800   -1.3200 C   0  0  2  0  0  0  0  0  0  0  0  0
   -1.3710    7.4410   -0.4340 C   0  0  0  0  0  0  0  0  0  0  0  0
   -5.1984    7.4464   -3.7485 H   0  0  0  0  0  0  0  0  0  0  0  0
   -3.5667    8.0889   -4.1378 H   0  0  0  0  0  0  0  0  0  0  0  0
   -3.8575    6.3163   -4.1378 H   0  0  0  0  0  0  0  0  0  0  0  0
   -2.9398    6.4587   -2.0645 H   0  0  0  0  0  0  0  0  0  0  0  0
   -4.6096    5.8542   -0.7332 H   0  0  0  0  0  0  0  0  0  0  0  0
   -5.1654    7.5929   -0.6244 H   0  0  0  0  0  0  0  0  0  0  0  0
   -6.3749    7.2238   -2.8056 H   0  0  0  0  0  0  0  0  0  0  0  0
   -6.0289    5.4569   -2.5896 H   0  0  0  0  0  0  0  0  0  0  0  0
   -6.7367    6.2552   -0.2922 H   0  0  0  0  0  0  0  0  0  0  0  0
   -9.1658    8.8392   -2.3487 H   0  0  0  0  0  0  0  0  0  0  0  0
   -7.9985    7.8290   -3.2671 H   0  0  0  0  0  0  0  0  0  0  0  0
   -9.7448    7.4082   -3.2671 H   0  0  0  0  0  0  0  0  0  0  0  0
   -9.1087    7.0489    0.6366 H   0  0  0  0  0  0  0  0  0  0  0  0
  -10.0623    8.1948   -0.3656 H   0  0  0  0  0  0  0  0  0  0  0  0
  -10.4720    6.4459   -0.3656 H   0  0  0  0  0  0  0  0  0  0  0  0
   -3.4359    9.1589   -2.6127 H   0  0  0  0  0  0  0  0  0  0  0  0
   -4.7959    9.7302   -0.7004 H   0  0  0  0  0  0  0  0  0  0  0  0
   -4.3726    8.2269    0.1471 H   0  0  0  0  0  0  0  0  0  0  0  0
   -3.3182   10.8176    0.7325 H   0  0  0  0  0  0  0  0  0  0  0  0
   -2.6170    9.3107    1.3165 H   0  0  0  0  0  0  0  0  0  0  0  0
   -2.4040   12.1260   -0.7831 H   0  0  0  0  0  0  0  0  0  0  0  0
   -1.2782   11.5800   -2.0719 H   0  0  0  0  0  0  0  0  0  0  0  0
   -2.9842   11.0174   -2.0719 H   0  0  0  0  0  0  0  0  0  0  0  0
   -0.2571    9.3978    0.7817 H   0  0  0  0  0  0  0  0  0  0  0  0
   -1.1768   11.7160    1.4269 H   0  0  0  0  0  0  0  0  0  0  0  0
    0.5829   11.2703    1.7341 H   0  0  0  0  0  0  0  0  0  0  0  0
    0.1376   13.6994    0.8129 H   0  0  0  0  0  0  0  0  0  0  0  0
    0.4413   11.4380   -2.5169 H   0  0  0  0  0  0  0  0  0  0  0  0
    3.3191   11.5785   -1.4228 H   0  0  0  0  0  0  0  0  0  0  0  0
    2.7585   10.6950   -2.9115 H   0  0  0  0  0  0  0  0  0  0  0  0
    3.8780   12.8327   -3.4573 H   0  0  0  0  0  0  0  0  0  0  0  0
    2.1436   12.7946   -3.9632 H   0  0  0  0  0  0  0  0  0  0  0  0
    2.6154   14.9364   -2.9891 H   0  0  0  0  0  0  0  0  0  0  0  0
    4.4130   14.3140   -1.6990 H   0  0  0  0  0  0  0  0  0  0  0  0
   -0.9028   14.4726   -2.3187 H   0  0  0  0  0  0  0  0  0  0  0  0
    0.3534   15.1632   -3.4012 H   0  0  0  0  0  0  0  0  0  0  0  0
    0.0416   13.3941   -3.4012 H   0  0  0  0  0  0  0  0  0  0  0  0
    1.0718   15.0642    0.2964 H   0  0  0  0  0  0  0  0  0  0  0  0
    1.8999   16.0355   -0.9676 H   0  0  0  0  0  0  0  0  0  0  0  0
    0.1086   15.9016   -0.9676 H   0  0  0  0  0  0  0  0  0  0  0  0
    1.8938    9.8311    1.0147 H   0  0  0  0  0  0  0  0  0  0  0  0
    2.4457    8.7235   -0.2874 H   0  0  0  0  0  0  0  0  0  0  0  0
    2.9701   10.4415   -0.2874 H   0  0  0  0  0  0  0  0  0  0  0  0
    1.3398    9.1846   -2.8129 H   0  0  0  0  0  0  0  0  0  0  0  0
    0.9488    8.0509   -1.3998 H   0  0  0  0  0  0  0  0  0  0  0  0
   -1.0065    9.5768   -3.1415 H   0  0  0  0  0  0  0  0  0  0  0  0
   -0.7612    7.7904   -3.0181 H   0  0  0  0  0  0  0  0  0  0  0  0
   -1.4518    7.7132    0.6287 H   0  0  0  0  0  0  0  0  0  0  0  0
   -2.0624    6.6143   -0.6544 H   0  0  0  0  0  0  0  0  0  0  0  0
   -0.3404    7.1258   -0.6544 H   0  0  0  0  0  0  0  0  0  0  0  0
  1  2  1  0
  2  3  1  0
  3  4  1  0
  4  5  1  0
  5  6  1  0
  6  7  1  0
  7  8  1  0
  7  9  1  0
  2 10  1  0
 10 11  1  0
 11 12  1  0
 12 13  1  0
 13 14  1  6
 13 15  1  0
 15 16  1  0
 16 17  1  0
 17 18  2  0
 18 19  1  0
 19 20  1  0
 20 21  1  0
 21 22  1  0
 22 23  1  0
 22 24  1  0
 24 25  1  0
 24 26  1  0
 19 27  1  0
 27 28  1  1
 27 29  1  0
 29 30  1  0
 30 31  1  0
 31 32  1  1
  7  5  1  0
 31 10  1  0
 31 13  1  0
 27 15  1  0
 24 18  1  0
  1 33  1  0
  1 34  1  0
  1 35  1  0
  2 36  1  6
  3 37  1  0
  3 38  1  0
  4 39  1  0
  4 40  1  0
  5 41  1  1
  8 42  1  0
  8 43  1  0
  8 44  1  0
  9 45  1  0
  9 46  1  0
  9 47  1  0
 10 48  1  6
 11 49  1  0
 11 50  1  0
 12 51  1  0
 12 52  1  0
 14 53  1  0
 14 54  1  0
 14 55  1  0
 15 56  1  1
 16 57  1  0
 16 58  1  0
 17 59  1  0
 19 60  1  6
 20 61  1  0
 20 62  1  0
 21 63  1  0
 21 64  1  0
 22 65  1  6
 23 66  1  0
 25 67  1  0
 25 68  1  0
 25 69  1  0
 26 70  1  0
 26 71  1  0
 26 72  1  0
 28 73  1  0
 28 74  1  0
 28 75  1  0
 29 76  1  0
 29 77  1  0
 30 78  1  0
 30 79  1  0
 32 80  1  0
 32 81  1  0
 32 82  1  0
M  END
>  <meeko>  (15) 
{"is_sidechain": [false], "intermolecular_energy": 2.731, "internal_energy": -0.839}

$$$$
EPH_relaxed_0001_pdb2pqr_Repair_1_r2_0001_out
     RDKit          3D

 82 86  0  0  0  0  0  0  0  0999 V2000
    2.8960   18.3290   -3.4090 C   0  0  0  0  0  0  0  0  0  0  0  0
    2.4160   18.2530   -1.9570 C   0  0  2  0  0  0  0  0  0  0  0  0
    3.1610   19.2480   -1.0460 C   0  0  0  0  0  0  0  0  0  0  0  0
    2.3150   19.7680    0.1200 C   0  0  0  0  0  0  0  0  0  0  0  0
    2.7240   19.1470    1.4210 C   0  0  2  0  0  0  0  0  0  0  0  0
    2.9340   20.0790    2.4900 O   0  0  0  0  0  0  0  0  0  0  0  0
    4.0900   19.3470    2.0510 C   0  0  0  0  0  0  0  0  0  0  0  0
    5.1350   20.1950    1.3960 C   0  0  0  0  0  0  0  0  0  0  0  0
    4.5750   18.3360    3.0430 C   0  0  0  0  0  0  0  0  0  0  0  0
    2.5860   16.8340   -1.4280 C   0  0  1  0  0  0  0  0  0  0  0  0
    3.1210   16.8000    0.0290 C   0  0  0  0  0  0  0  0  0  0  0  0
    2.4530   15.5850    0.7220 C   0  0  0  0  0  0  0  0  0  0  0  0
    1.8240   14.7730   -0.4340 C   0  0  1  0  0  0  0  0  0  0  0  0
    3.0030   13.9440   -1.0310 C   0  0  0  0  0  0  0  0  0  0  0  0
    0.6100   13.8620   -0.0580 C   0  0  2  0  0  0  0  0  0  0  0  0
    0.9240   12.7380    0.9450 C   0  0  0  0  0  0  0  0  0  0  0  0
    1.3490   11.4420    0.3380 C   0  0  0  0  0  0  0  0  0  0  0  0
    1.2020   11.0980   -0.9550 C   0  0  0  0  0  0  0  0  0  0  0  0
    0.4660   12.0200   -1.9360 C   0  0  1  0  0  0  0  0  0  0  0  0
   -0.5360   11.1860   -2.7770 C   0  0  0  0  0  0  0  0  0  0  0  0
    0.1290   10.0040   -3.4750 C   0  0  0  0  0  0  0  0  0  0  0  0
    0.8000    9.0800   -2.4620 C   0  0  2  0  0  0  0  0  0  0  0  0
   -0.2110    8.4680   -1.6560 O   0  0  0  0  0  0  0  0  0  0  0  0
    1.8240    9.8110   -1.5500 C   0  0  0  0  0  0  0  0  0  0  0  0
    3.0680   10.2120   -2.3810 C   0  0  0  0  0  0  0  0  0  0  0  0
    2.3230    8.7990   -0.4840 C   0  0  0  0  0  0  0  0  0  0  0  0
   -0.2010   13.3160   -1.3020 C   0  0  1  0  0  0  0  0  0  0  0  0
   -1.6340   12.9800   -0.7870 C   0  0  0  0  0  0  0  0  0  0  0  0
   -0.3780   14.4050   -2.4250 C   0  0  0  0  0  0  0  0  0  0  0  0
    0.8130   15.3520   -2.6680 C   0  0  0  0  0  0  0  0  0  0  0  0
    1.3180   15.9470   -1.3500 C   0  0  2  0  0  0  0  0  0  0  0  0
    0.1600   16.8050   -0.7360 C   0  0  0  0  0  0  0  0  0  0  0  0
    3.9823   18.5010   -3.4275 H   0  0  0  0  0  0  0  0  0  0  0  0
    2.6657   17.3832   -3.9213 H   0  0  0  0  0  0  0  0  0  0  0  0
    2.3848   19.1574   -3.9213 H   0  0  0  0  0  0  0  0  0  0  0  0
    1.3514   18.5294   -1.9453 H   0  0  0  0  0  0  0  0  0  0  0  0
    4.0479   18.7444   -0.6340 H   0  0  0  0  0  0  0  0  0  0  0  0
    3.4224   20.1180   -1.6664 H   0  0  0  0  0  0  0  0  0  0  0  0
    2.4381   20.8588    0.1912 H   0  0  0  0  0  0  0  0  0  0  0  0
    1.2652   19.5018   -0.0723 H   0  0  0  0  0  0  0  0  0  0  0  0
    2.1388   18.2422    1.1997 H   0  0  0  0  0  0  0  0  0  0  0  0
    5.7434   20.6887    2.1680 H   0  0  0  0  0  0  0  0  0  0  0  0
    5.7807   19.5623    0.7693 H   0  0  0  0  0  0  0  0  0  0  0  0
    4.6489   20.9572    0.7693 H   0  0  0  0  0  0  0  0  0  0  0  0
    4.3966   18.7080    4.0627 H   0  0  0  0  0  0  0  0  0  0  0  0
    4.0326   17.3901    2.8976 H   0  0  0  0  0  0  0  0  0  0  0  0
    5.6522   18.1671    2.8976 H   0  0  0  0  0  0  0  0  0  0  0  0
    3.2772   16.4363   -2.1857 H   0  0  0  0  0  0  0  0  0  0  0  0
    4.2146   16.6817    0.0284 H   0  0  0  0  0  0  0  0  0  0  0  0
    2.8858   17.7352    0.5582 H   0  0  0  0  0  0  0  0  0  0  0  0
    3.2023   14.9827    1.2567 H   0  0  0  0  0  0  0  0  0  0  0  0
    1.7074   15.8902    1.4710 H   0  0  0  0  0  0  0  0  0  0  0  0
    3.6048   13.5209   -0.2132 H   0  0  0  0  0  0  0  0  0  0  0  0
    2.6012   13.1286   -1.6504 H   0  0  0  0  0  0  0  0  0  0  0  0
    3.6344   14.5980   -1.6504 H   0  0  0  0  0  0  0  0  0  0  0  0
   -0.0531   14.5606    0.4733 H   0  0  0  0  0  0  0  0  0  0  0  0
    1.7332   13.0864    1.6036 H   0  0  0  0  0  0  0  0  0  0  0  0
   -0.0174   12.5315    1.4751 H   0  0  0  0  0  0  0  0  0  0  0  0
    1.8225   10.7056    1.0040 H   0  0  0  0  0  0  0  0  0  0  0  0
    1.2397   12.4468   -2.5912 H   0  0  0  0  0  0  0  0  0  0  0  0
   -1.3238   10.8045   -2.1108 H   0  0  0  0  0  0  0  0  0  0  0  0
   -0.9484   11.8448   -3.5554 H   0  0  0  0  0  0  0  0  0  0  0  0
   -0.6338    9.4374   -4.0292 H   0  0  0  0  0  0  0  0  0  0  0  0
    0.8969   10.3886   -4.1623 H   0  0  0  0  0  0  0  0  0  0  0  0
    1.3669    8.3263   -3.0282 H   0  0  0  0  0  0  0  0  0  0  0  0
    0.2340    8.0100   -0.9230 H   0  0  0  0  0  0  0  0  0  0  0  0
    3.8921   10.4776   -1.7025 H   0  0  0  0  0  0  0  0  0  0  0  0
    3.3733    9.3667   -3.0153 H   0  0  0  0  0  0  0  0  0  0  0  0
    2.8222   11.0764   -3.0153 H   0  0  0  0  0  0  0  0  0  0  0  0
    2.1259    9.1987    0.5217 H   0  0  0  0  0  0  0  0  0  0  0  0
    1.7928    7.8434   -0.6091 H   0  0  0  0  0  0  0  0  0  0  0  0
    3.4039    8.6378   -0.6091 H   0  0  0  0  0  0  0  0  0  0  0  0
   -1.6375   12.9792    0.3130 H   0  0  0  0  0  0  0  0  0  0  0  0
   -2.3427   13.7363   -1.1554 H   0  0  0  0  0  0  0  0  0  0  0  0
   -1.9327   11.9875   -1.1554 H   0  0  0  0  0  0  0  0  0  0  0  0
   -0.5831   13.8792   -3.3692 H   0  0  0  0  0  0  0  0  0  0  0  0
   -1.1937   15.0530   -2.0717 H   0  0  0  0  0  0  0  0  0  0  0  0
    1.6290   14.7890   -3.1447 H   0  0  0  0  0  0  0  0  0  0  0  0
    0.4805   16.1738   -3.3193 H   0  0  0  0  0  0  0  0  0  0  0  0
    0.2156   16.7638    0.3618 H   0  0  0  0  0  0  0  0  0  0  0  0
    0.2604   17.8485   -1.0693 H   0  0  0  0  0  0  0  0  0  0  0  0
   -0.8090   16.4052   -1.0693 H   0  0  0  0  0  0  0  0  0  0  0  0
  1  2  1  0
  2  3  1  0
  3  4  1  0
  4  5  1  0
  5  6  1  0
  6  7  1  0
  7  8  1  0
  7  9  1  0
  2 10  1  0
 10 11  1  0
 11 12  1  0
 12 13  1  0
 13 14  1  6
 13 15  1  0
 15 16  1  0
 16 17  1  0
 17 18  2  0
 18 19  1  0
 19 20  1  0
 20 21  1  0
 21 22  1  0
 22 23  1  0
 22 24  1  0
 24 25  1  0
 24 26  1  0
 19 27  1  0
 27 28  1  1
 27 29  1  0
 29 30  1  0
 30 31  1  0
 31 32  1  1
  7  5  1  0
 31 10  1  0
 31 13  1  0
 27 15  1  0
 24 18  1  0
  1 33  1  0
  1 34  1  0
  1 35  1  0
  2 36  1  6
  3 37  1  0
  3 38  1  0
  4 39  1  0
  4 40  1  0
  5 41  1  1
  8 42  1  0
  8 43  1  0
  8 44  1  0
  9 45  1  0
  9 46  1  0
  9 47  1  0
 10 48  1  6
 11 49  1  0
 11 50  1  0
 12 51  1  0
 12 52  1  0
 14 53  1  0
 14 54  1  0
 14 55  1  0
 15 56  1  1
 16 57  1  0
 16 58  1  0
 17 59  1  0
 19 60  1  6
 20 61  1  0
 20 62  1  0
 21 63  1  0
 21 64  1  0
 22 65  1  6
 23 66  1  0
 25 67  1  0
 25 68  1  0
 25 69  1  0
 26 70  1  0
 26 71  1  0
 26 72  1  0
 28 73  1  0
 28 74  1  0
 28 75  1  0
 29 76  1  0
 29 77  1  0
 30 78  1  0
 30 79  1  0
 32 80  1  0
 32 81  1  0
 32 82  1  0
M  END
>  <meeko>  (16) 
{"is_sidechain": [false], "intermolecular_energy": 2.731, "internal_energy": -0.839}

$$$$
EPH_relaxed_0001_pdb2pqr_Repair_1_r2_0001_out
     RDKit          3D

 82 86  0  0  0  0  0  0  0  0999 V2000
    2.8740   11.4090   -5.4140 C   0  0  0  0  0  0  0  0  0  0  0  0
    1.8970   11.0970   -4.2770 C   0  0  2  0  0  0  0  0  0  0  0  0
    0.7850   10.1240   -4.7170 C   0  0  0  0  0  0  0  0  0  0  0  0
   -0.2920    9.8980   -3.6520 C   0  0  0  0  0  0  0  0  0  0  0  0
    0.2180    9.0640   -2.5160 C   0  0  2  0  0  0  0  0  0  0  0  0
   -0.6430    7.9830   -2.1330 O   0  0  0  0  0  0  0  0  0  0  0  0
   -0.4450    9.0140   -1.1520 C   0  0  0  0  0  0  0  0  0  0  0  0
   -1.6740    9.8130   -0.8520 C   0  0  0  0  0  0  0  0  0  0  0  0
    0.3720    8.5770    0.0240 C   0  0  0  0  0  0  0  0  0  0  0  0
    1.2820   12.3880   -3.7510 C   0  0  1  0  0  0  0  0  0  0  0  0
   -0.2600   12.2940   -3.5940 C   0  0  0  0  0  0  0  0  0  0  0  0
   -0.6350   13.1410   -2.3500 C   0  0  0  0  0  0  0  0  0  0  0  0
    0.6420   13.9560   -2.0340 C   0  0  1  0  0  0  0  0  0  0  0  0
    0.6040   15.1620   -3.0240 C   0  0  0  0  0  0  0  0  0  0  0  0
    0.8100   14.4290   -0.5530 C   0  0  2  0  0  0  0  0  0  0  0  0
   -0.2790   15.3920   -0.0480 C   0  0  0  0  0  0  0  0  0  0  0  0
    0.0100   16.8430   -0.2500 C   0  0  0  0  0  0  0  0  0  0  0  0
    1.2130   17.3660   -0.5500 C   0  0  0  0  0  0  0  0  0  0  0  0
    2.4630   16.4790   -0.6220 C   0  0  1  0  0  0  0  0  0  0  0  0
    3.6250   17.1590    0.1490 C   0  0  0  0  0  0  0  0  0  0  0  0
    3.8920   18.5820   -0.3310 C   0  0  0  0  0  0  0  0  0  0  0  0
    2.6430   19.4480   -0.1900 C   0  0  2  0  0  0  0  0  0  0  0  0
    2.3510   19.6130    1.2010 O   0  0  0  0  0  0  0  0  0  0  0  0
    1.4030   18.8590   -0.9180 C   0  0  0  0  0  0  0  0  0  0  0  0
    1.6020   18.9600   -2.4510 C   0  0  0  0  0  0  0  0  0  0  0  0
    0.1800   19.7530   -0.5800 C   0  0  0  0  0  0  0  0  0  0  0  0
    2.2590   14.9600   -0.2030 C   0  0  1  0  0  0  0  0  0  0  0  0
    2.4290   14.8050    1.3390 C   0  0  0  0  0  0  0  0  0  0  0  0
    3.3910   14.0880   -0.8640 C   0  0  0  0  0  0  0  0  0  0  0  0
    3.1160   13.5500   -2.2810 C   0  0  0  0  0  0  0  0  0  0  0  0
    1.7410   12.8790   -2.3550 C   0  0  2  0  0  0  0  0  0  0  0  0
    1.7570   11.6480   -1.3860 C   0  0  0  0  0  0  0  0  0  0  0  0
    3.8415   11.7180   -4.9916 H   0  0  0  0  0  0  0  0  0  0  0  0
    3.0144   10.5110   -6.0336 H   0  0  0  0  0  0  0  0  0  0  0  0
    2.4679   12.2222   -6.0336 H   0  0  0  0  0  0  0  0  0  0  0  0
    2.4681   10.6044   -3.4762 H   0  0  0  0  0  0  0  0  0  0  0  0
    0.3027   10.5321   -5.6175 H   0  0  0  0  0  0  0  0  0  0  0  0
    1.2637    9.1510   -4.9017 H   0  0  0  0  0  0  0  0  0  0  0  0
   -0.6164   10.8734   -3.2605 H   0  0  0  0  0  0  0  0  0  0  0  0
   -1.1308    9.3626   -4.1208 H   0  0  0  0  0  0  0  0  0  0  0  0
    1.2594    9.2381   -2.8244 H   0  0  0  0  0  0  0  0  0  0  0  0
   -1.8008    9.8955    0.2375 H   0  0  0  0  0  0  0  0  0  0  0  0
   -1.5728   10.8185   -1.2865 H   0  0  0  0  0  0  0  0  0  0  0  0
   -2.5519    9.3125   -1.2865 H   0  0  0  0  0  0  0  0  0  0  0  0
   -0.1462    8.8542    0.9538 H   0  0  0  0  0  0  0  0  0  0  0  0
    0.5076    7.4859   -0.0089 H   0  0  0  0  0  0  0  0  0  0  0  0
    1.3549    9.0698   -0.0089 H   0  0  0  0  0  0  0  0  0  0  0  0
    1.6284   13.0862   -4.5272 H   0  0  0  0  0  0  0  0  0  0  0  0
   -0.7572   12.6952   -4.4895 H   0  0  0  0  0  0  0  0  0  0  0  0
   -0.5819   11.2492   -3.4724 H   0  0  0  0  0  0  0  0  0  0  0  0
   -1.4775   13.8112   -2.5760 H   0  0  0  0  0  0  0  0  0  0  0  0
   -0.9531   12.5178   -1.5012 H   0  0  0  0  0  0  0  0  0  0  0  0
    0.5744   16.1028   -2.4548 H   0  0  0  0  0  0  0  0  0  0  0  0
    1.5031   15.1449   -3.6575 H   0  0  0  0  0  0  0  0  0  0  0  0
   -0.2923   15.0883   -3.6575 H   0  0  0  0  0  0  0  0  0  0  0  0
    0.6674   13.4953    0.0107 H   0  0  0  0  0  0  0  0  0  0  0  0
   -1.2142   15.1548   -0.5763 H   0  0  0  0  0  0  0  0  0  0  0  0
   -0.3378   15.2417    1.0401 H   0  0  0  0  0  0  0  0  0  0  0  0
   -0.8315   17.5435   -0.1447 H   0  0  0  0  0  0  0  0  0  0  0  0
    2.7193   16.3993   -1.6887 H   0  0  0  0  0  0  0  0  0  0  0  0
    3.3683   17.1899    1.2182 H   0  0  0  0  0  0  0  0  0  0  0  0
    4.5358   16.5693   -0.0319 H   0  0  0  0  0  0  0  0  0  0  0  0
    4.7028   19.0188    0.2705 H   0  0  0  0  0  0  0  0  0  0  0  0
    4.1772   18.5469   -1.3928 H   0  0  0  0  0  0  0  0  0  0  0  0
    2.8569   20.4151   -0.6685 H   0  0  0  0  0  0  0  0  0  0  0  0
    1.7160   20.3450    1.2840 H   0  0  0  0  0  0  0  0  0  0  0  0
    2.5643   19.4484   -2.6644 H   0  0  0  0  0  0  0  0  0  0  0  0
    1.5980   17.9508   -2.8885 H   0  0  0  0  0  0  0  0  0  0  0  0
    0.7850   19.5526   -2.8885 H   0  0  0  0  0  0  0  0  0  0  0  0
    0.0734   19.8309    0.5120 H   0  0  0  0  0  0  0  0  0  0  0  0
    0.3300   20.7559   -1.0063 H   0  0  0  0  0  0  0  0  0  0  0  0
   -0.7301   19.3057   -1.0063 H   0  0  0  0  0  0  0  0  0  0  0  0
    1.7110   15.4596    1.8547 H   0  0  0  0  0  0  0  0  0  0  0  0
    2.2428   13.7593    1.6251 H   0  0  0  0  0  0  0  0  0  0  0  0
    3.4531   15.0867    1.6251 H   0  0  0  0  0  0  0  0  0  0  0  0
    4.3003   14.7051   -0.9131 H   0  0  0  0  0  0  0  0  0  0  0  0
    3.4738   13.1942   -0.2281 H   0  0  0  0  0  0  0  0  0  0  0  0
    3.1476   14.3856   -2.9957 H   0  0  0  0  0  0  0  0  0  0  0  0
    3.8847   12.8030   -2.5280 H   0  0  0  0  0  0  0  0  0  0  0  0
    1.7524   12.0013   -0.3443 H   0  0  0  0  0  0  0  0  0  0  0  0
    0.8668   11.0275   -1.5667 H   0  0  0  0  0  0  0  0  0  0  0  0
    2.6630   11.0509   -1.5667 H   0  0  0  0  0  0  0  0  0  0  0  0
  1  2  1  0
  2  3  1  0
  3  4  1  0
  4  5  1  0
  5  6  1  0
  6  7  1  0
  7  8  1  0
  7  9  1  0
  2 10  1  0
 10 11  1  0
 11 12  1  0
 12 13  1  0
 13 14  1  6
 13 15  1  0
 15 16  1  0
 16 17  1  0
 17 18  2  0
 18 19  1  0
 19 20  1  0
 20 21  1  0
 21 22  1  0
 22 23  1  0
 22 24  1  0
 24 25  1  0
 24 26  1  0
 19 27  1  0
 27 28  1  1
 27 29  1  0
 29 30  1  0
 30 31  1  0
 31 32  1  1
  7  5  1  0
 31 10  1  0
 31 13  1  0
 27 15  1  0
 24 18  1  0
  1 33  1  0
  1 34  1  0
  1 35  1  0
  2 36  1  1
  3 37  1  0
  3 38  1  0
  4 39  1  0
  4 40  1  0
  5 41  1  1
  8 42  1  0
  8 43  1  0
  8 44  1  0
  9 45  1  0
  9 46  1  0
  9 47  1  0
 10 48  1  6
 11 49  1  0
 11 50  1  0
 12 51  1  0
 12 52  1  0
 14 53  1  0
 14 54  1  0
 14 55  1  0
 15 56  1  1
 16 57  1  0
 16 58  1  0
 17 59  1  0
 19 60  1  6
 20 61  1  0
 20 62  1  0
 21 63  1  0
 21 64  1  0
 22 65  1  6
 23 66  1  0
 25 67  1  0
 25 68  1  0
 25 69  1  0
 26 70  1  0
 26 71  1  0
 26 72  1  0
 28 73  1  0
 28 74  1  0
 28 75  1  0
 29 76  1  0
 29 77  1  0
 30 78  1  0
 30 79  1  0
 32 80  1  0
 32 81  1  0
 32 82  1  0
M  END
>  <meeko>  (17) 
{"is_sidechain": [false], "intermolecular_energy": 2.731, "internal_energy": -0.839}

$$$$
EPH_relaxed_0001_pdb2pqr_Repair_1_r2_0001_out
     RDKit          3D

 82 86  0  0  0  0  0  0  0  0999 V2000
    0.8460    9.4250   -0.1610 C   0  0  0  0  0  0  0  0  0  0  0  0
   -0.3760   10.3450   -0.0920 C   0  0  2  0  0  0  0  0  0  0  0  0
   -1.1310   10.4100   -1.4350 C   0  0  0  0  0  0  0  0  0  0  0  0
   -0.4070    9.7000   -2.5820 C   0  0  0  0  0  0  0  0  0  0  0  0
   -0.2210   10.6040   -3.7630 C   0  0  2  0  0  0  0  0  0  0  0  0
    0.4440    9.9990   -4.8810 O   0  0  0  0  0  0  0  0  0  0  0  0
    1.1360   11.0850   -4.2430 C   0  0  0  0  0  0  0  0  0  0  0  0
    2.3980   10.6780   -3.5490 C   0  0  0  0  0  0  0  0  0  0  0  0
    1.2010   12.3290   -5.0730 C   0  0  0  0  0  0  0  0  0  0  0  0
    0.0510   11.7450    0.3350 C   0  0  1  0  0  0  0  0  0  0  0  0
    1.1570   11.7260    1.4230 C   0  0  0  0  0  0  0  0  0  0  0  0
    2.0770   12.9430    1.1460 C   0  0  0  0  0  0  0  0  0  0  0  0
    1.2920   13.8020    0.1270 C   0  0  1  0  0  0  0  0  0  0  0  0
    0.2700   14.6100    0.9870 C   0  0  0  0  0  0  0  0  0  0  0  0
    2.1440   14.7400   -0.7880 C   0  0  2  0  0  0  0  0  0  0  0  0
    2.9400   15.8280   -0.0470 C   0  0  0  0  0  0  0  0  0  0  0  0
    2.2250   17.1260    0.1390 C   0  0  0  0  0  0  0  0  0  0  0  0
    1.1110   17.5050   -0.5150 C   0  0  0  0  0  0  0  0  0  0  0  0
    0.5110   16.6310   -1.6240 C   0  0  1  0  0  0  0  0  0  0  0  0
    0.1660   17.5150   -2.8500 C   0  0  0  0  0  0  0  0  0  0  0  0
   -0.7320   18.6940   -2.4880 C   0  0  0  0  0  0  0  0  0  0  0  0
   -0.0760   19.5720   -1.4250 C   0  0  2  0  0  0  0  0  0  0  0  0
    1.0810   20.1940   -1.9900 O   0  0  0  0  0  0  0  0  0  0  0  0
    0.3250   18.7870   -0.1440 C   0  0  0  0  0  0  0  0  0  0  0  0
   -0.9490   18.3700    0.6310 C   0  0  0  0  0  0  0  0  0  0  0  0
    1.1020   19.7580    0.7870 C   0  0  0  0  0  0  0  0  0  0  0  0
    1.3500   15.3400   -2.0190 C   0  0  1  0  0  0  0  0  0  0  0  0
    2.4140   15.7070   -3.0980 C   0  0  0  0  0  0  0  0  0  0  0  0
    0.3880   14.2850   -2.6830 C   0  0  0  0  0  0  0  0  0  0  0  0
   -0.3330   13.3090   -1.7340 C   0  0  0  0  0  0  0  0  0  0  0  0
    0.6530   12.6670   -0.7540 C   0  0  2  0  0  0  0  0  0  0  0  0
    1.6810   11.8290   -1.5890 C   0  0  0  0  0  0  0  0  0  0  0  0
    1.1760    9.1766    0.8585 H   0  0  0  0  0  0  0  0  0  0  0  0
    0.5798    8.5012   -0.6955 H   0  0  0  0  0  0  0  0  0  0  0  0
    1.6602    9.9363   -0.6955 H   0  0  0  0  0  0  0  0  0  0  0  0
   -1.0661    9.9234    0.6537 H   0  0  0  0  0  0  0  0  0  0  0  0
   -2.1167    9.9401   -1.3025 H   0  0  0  0  0  0  0  0  0  0  0  0
   -1.2066   11.4722   -1.7106 H   0  0  0  0  0  0  0  0  0  0  0  0
    0.5801    9.3670   -2.2288 H   0  0  0  0  0  0  0  0  0  0  0  0
   -1.0214    8.8441   -2.8982 H   0  0  0  0  0  0  0  0  0  0  0  0
   -1.1535   11.1391   -3.5304 H   0  0  0  0  0  0  0  0  0  0  0  0
    2.2495   10.7259   -2.4601 H   0  0  0  0  0  0  0  0  0  0  0  0
    2.6604    9.6497   -3.8384 H   0  0  0  0  0  0  0  0  0  0  0  0
    3.2117   11.3593   -3.8384 H   0  0  0  0  0  0  0  0  0  0  0  0
    1.2469   13.2080   -4.4132 H   0  0  0  0  0  0  0  0  0  0  0  0
    2.0988   12.2997   -5.7078 H   0  0  0  0  0  0  0  0  0  0  0  0
    0.3050   12.3935   -5.7078 H   0  0  0  0  0  0  0  0  0  0  0  0
   -0.9197   12.1410    0.6682 H   0  0  0  0  0  0  0  0  0  0  0  0
    0.7064   11.8114    2.4229 H   0  0  0  0  0  0  0  0  0  0  0  0
    1.7261   10.7851    1.3917 H   0  0  0  0  0  0  0  0  0  0  0  0
    2.2609   13.5092    2.0710 H   0  0  0  0  0  0  0  0  0  0  0  0
    3.0638   12.6416    0.7647 H   0  0  0  0  0  0  0  0  0  0  0  0
    0.4781   14.4454    2.0545 H   0  0  0  0  0  0  0  0  0  0  0  0
    0.3629   15.6815    0.7562 H   0  0  0  0  0  0  0  0  0  0  0  0
   -0.7512   14.2724    0.7562 H   0  0  0  0  0  0  0  0  0  0  0  0
    2.8954   14.0497   -1.1990 H   0  0  0  0  0  0  0  0  0  0  0  0
    3.2026   15.4390    0.9478 H   0  0  0  0  0  0  0  0  0  0  0  0
    3.8134   16.0492   -0.6780 H   0  0  0  0  0  0  0  0  0  0  0  0
    2.6437   17.8315    0.8718 H   0  0  0  0  0  0  0  0  0  0  0  0
   -0.4095   16.1978   -1.2057 H   0  0  0  0  0  0  0  0  0  0  0  0
    1.1015   17.9032   -3.2790 H   0  0  0  0  0  0  0  0  0  0  0  0
   -0.3806   16.8882   -3.5699 H   0  0  0  0  0  0  0  0  0  0  0  0
   -0.9160   19.2967   -3.3896 H   0  0  0  0  0  0  0  0  0  0  0  0
   -1.6791   18.3043   -2.0866 H   0  0  0  0  0  0  0  0  0  0  0  0
   -0.8176   20.3224   -1.1137 H   0  0  0  0  0  0  0  0  0  0  0  0
    1.8320   19.5900   -1.8630 H   0  0  0  0  0  0  0  0  0  0  0  0
   -0.7574   18.4327    1.7124 H   0  0  0  0  0  0  0  0  0  0  0  0
   -1.7767   19.0441    0.3656 H   0  0  0  0  0  0  0  0  0  0  0  0
   -1.2180   17.3369    0.3656 H   0  0  0  0  0  0  0  0  0  0  0  0
    0.8971   19.5019    1.8370 H   0  0  0  0  0  0  0  0  0  0  0  0
    2.1808   19.6687    0.5916 H   0  0  0  0  0  0  0  0  0  0  0  0
    0.7783   20.7910    0.5916 H   0  0  0  0  0  0  0  0  0  0  0  0
    3.3427   16.0273   -2.6031 H   0  0  0  0  0  0  0  0  0  0  0  0
    2.6178   14.8272   -3.7261 H   0  0  0  0  0  0  0  0  0  0  0  0
    2.0321   16.5254   -3.7261 H   0  0  0  0  0  0  0  0  0  0  0  0
   -0.3827   14.8402   -3.2378 H   0  0  0  0  0  0  0  0  0  0  0  0
    1.0389   13.6534   -3.3055 H   0  0  0  0  0  0  0  0  0  0  0  0
   -1.0981   13.8587   -1.1661 H   0  0  0  0  0  0  0  0  0  0  0  0
   -0.7969   12.5136   -2.3358 H   0  0  0  0  0  0  0  0  0  0  0  0
    2.3498   11.2838   -0.9067 H   0  0  0  0  0  0  0  0  0  0  0  0
    1.1399   11.1114   -2.2232 H   0  0  0  0  0  0  0  0  0  0  0  0
    2.2749   12.5037   -2.2232 H   0  0  0  0  0  0  0  0  0  0  0  0
  1  2  1  0
  2  3  1  0
  3  4  1  0
  4  5  1  0
  5  6  1  0
  6  7  1  0
  7  8  1  0
  7  9  1  0
  2 10  1  0
 10 11  1  0
 11 12  1  0
 12 13  1  0
 13 14  1  1
 13 15  1  0
 15 16  1  0
 16 17  1  0
 17 18  2  0
 18 19  1  0
 19 20  1  0
 20 21  1  0
 21 22  1  0
 22 23  1  0
 22 24  1  0
 24 25  1  0
 24 26  1  0
 19 27  1  0
 27 28  1  6
 27 29  1  0
 29 30  1  0
 30 31  1  0
 31 32  1  6
  7  5  1  0
 31 10  1  0
 31 13  1  0
 27 15  1  0
 24 18  1  0
  1 33  1  0
  1 34  1  0
  1 35  1  0
  2 36  1  1
  3 37  1  0
  3 38  1  0
  4 39  1  0
  4 40  1  0
  5 41  1  6
  8 42  1  0
  8 43  1  0
  8 44  1  0
  9 45  1  0
  9 46  1  0
  9 47  1  0
 10 48  1  1
 11 49  1  0
 11 50  1  0
 12 51  1  0
 12 52  1  0
 14 53  1  0
 14 54  1  0
 14 55  1  0
 15 56  1  6
 16 57  1  0
 16 58  1  0
 17 59  1  0
 19 60  1  1
 20 61  1  0
 20 62  1  0
 21 63  1  0
 21 64  1  0
 22 65  1  1
 23 66  1  0
 25 67  1  0
 25 68  1  0
 25 69  1  0
 26 70  1  0
 26 71  1  0
 26 72  1  0
 28 73  1  0
 28 74  1  0
 28 75  1  0
 29 76  1  0
 29 77  1  0
 30 78  1  0
 30 79  1  0
 32 80  1  0
 32 81  1  0
 32 82  1  0
M  END
>  <meeko>  (18) 
{"is_sidechain": [false], "intermolecular_energy": 2.731, "internal_energy": -0.839}

$$$$
