EPH_relaxed_0001_pdb2pqr_Repair_209_r2_0001_out
     RDKit          3D

 82 86  0  0  0  0  0  0  0  0999 V2000
   -2.5300    7.7750   -2.7230 C   0  0  0  0  0  0  0  0  0  0  0  0
   -2.8430    8.1610   -1.2740 C   0  0  2  0  0  0  0  0  0  0  0  0
   -4.3590    8.2810   -1.0200 C   0  0  0  0  0  0  0  0  0  0  0  0
   -5.1180    6.9630   -1.1960 C   0  0  0  0  0  0  0  0  0  0  0  0
   -6.1390    7.0540   -2.2900 C   0  0  2  0  0  0  0  0  0  0  0  0
   -6.9040    8.2660   -2.2970 O   0  0  0  0  0  0  0  0  0  0  0  0
   -7.6350    7.0560   -2.0410 C   0  0  0  0  0  0  0  0  0  0  0  0
   -8.1950    6.9640   -0.6560 C   0  0  0  0  0  0  0  0  0  0  0  0
   -8.5470    6.6550   -3.1580 C   0  0  0  0  0  0  0  0  0  0  0  0
   -2.1510    9.4740   -0.9260 C   0  0  1  0  0  0  0  0  0  0  0  0
   -2.5280    9.9900    0.4890 C   0  0  0  0  0  0  0  0  0  0  0  0
   -1.2630   10.6780    1.0650 C   0  0  0  0  0  0  0  0  0  0  0  0
   -0.3140   10.8280   -0.1470 C   0  0  1  0  0  0  0  0  0  0  0  0
   -0.8190   12.1020   -0.8950 C   0  0  0  0  0  0  0  0  0  0  0  0
    1.2130   10.9170    0.1780 C   0  0  2  0  0  0  0  0  0  0  0  0
    1.6310   12.1320    1.0240 C   0  0  0  0  0  0  0  0  0  0  0  0
    2.0120   13.3490    0.2470 C   0  0  0  0  0  0  0  0  0  0  0  0
    2.2930   13.3810   -1.0690 C   0  0  0  0  0  0  0  0  0  0  0  0
    2.3370   12.0900   -1.8960 C   0  0  1  0  0  0  0  0  0  0  0  0
    3.6120   12.0850   -2.7800 C   0  0  0  0  0  0  0  0  0  0  0  0
    3.7280   13.3360   -3.6450 C   0  0  0  0  0  0  0  0  0  0  0  0
    3.7400   14.5960   -2.7830 C   0  0  2  0  0  0  0  0  0  0  0  0
    4.9410   14.6120   -2.0060 O   0  0  0  0  0  0  0  0  0  0  0  0
    2.5070   14.7050   -1.8420 C   0  0  0  0  0  0  0  0  0  0  0  0
    1.2360   14.9900   -2.6800 C   0  0  0  0  0  0  0  0  0  0  0  0
    2.7130   15.9440   -0.9290 C   0  0  0  0  0  0  0  0  0  0  0  0
    2.1540   10.7370   -1.0810 C   0  0  1  0  0  0  0  0  0  0  0  0
    3.5340   10.2520   -0.5390 C   0  0  0  0  0  0  0  0  0  0  0  0
    1.6410    9.6140   -2.0570 C   0  0  0  0  0  0  0  0  0  0  0  0
    0.1160    9.5000   -2.2440 C   0  0  0  0  0  0  0  0  0  0  0  0
   -0.6020    9.4740   -0.8910 C   0  0  2  0  0  0  0  0  0  0  0  0
   -0.1310    8.1920   -0.1240 C   0  0  0  0  0  0  0  0  0  0  0  0
   -1.8372    6.9206   -2.7334 H   0  0  0  0  0  0  0  0  0  0  0  0
   -3.4616    7.4979   -3.2381 H   0  0  0  0  0  0  0  0  0  0  0  0
   -2.0664    8.6293   -3.2381 H   0  0  0  0  0  0  0  0  0  0  0  0
   -2.4627    7.3568   -0.6270 H   0  0  0  0  0  0  0  0  0  0  0  0
   -4.5117    8.6349    0.0102 H   0  0  0  0  0  0  0  0  0  0  0  0
   -4.7560    8.9833   -1.7678 H   0  0  0  0  0  0  0  0  0  0  0  0
   -4.3994    6.1680   -1.4440 H   0  0  0  0  0  0  0  0  0  0  0  0
   -5.6421    6.7404   -0.2549 H   0  0  0  0  0  0  0  0  0  0  0  0
   -5.5040    6.4590   -2.9628 H   0  0  0  0  0  0  0  0  0  0  0  0
   -7.3852    7.0970    0.0765 H   0  0  0  0  0  0  0  0  0  0  0  0
   -8.9513    7.7499   -0.5133 H   0  0  0  0  0  0  0  0  0  0  0  0
   -8.6601    5.9774   -0.5133 H   0  0  0  0  0  0  0  0  0  0  0  0
   -9.4789    6.2452   -2.7413 H   0  0  0  0  0  0  0  0  0  0  0  0
   -8.7777    7.5347   -3.7768 H   0  0  0  0  0  0  0  0  0  0  0  0
   -8.0547    5.8903   -3.7768 H   0  0  0  0  0  0  0  0  0  0  0  0
   -2.5084   10.0980   -1.7584 H   0  0  0  0  0  0  0  0  0  0  0  0
   -3.3547   10.7125    0.4211 H   0  0  0  0  0  0  0  0  0  0  0  0
   -2.8581    9.1640    1.1361 H   0  0  0  0  0  0  0  0  0  0  0  0
   -1.5142   11.6629    1.4857 H   0  0  0  0  0  0  0  0  0  0  0  0
   -0.8081   10.0981    1.8816 H   0  0  0  0  0  0  0  0  0  0  0  0
   -1.1207   12.8631   -0.1603 H   0  0  0  0  0  0  0  0  0  0  0  0
   -0.0111   12.5012   -1.5258 H   0  0  0  0  0  0  0  0  0  0  0  0
   -1.6810   11.8393   -1.5258 H   0  0  0  0  0  0  0  0  0  0  0  0
    1.3691   10.0387    0.8216 H   0  0  0  0  0  0  0  0  0  0  0  0
    0.7876   12.3968    1.6786 H   0  0  0  0  0  0  0  0  0  0  0  0
    2.5342   11.8254    1.5719 H   0  0  0  0  0  0  0  0  0  0  0  0
    2.0678   14.3001    0.7968 H   0  0  0  0  0  0  0  0  0  0  0  0
    1.4405   12.1064   -2.5332 H   0  0  0  0  0  0  0  0  0  0  0  0
    4.4945   12.0253   -2.1260 H   0  0  0  0  0  0  0  0  0  0  0  0
    3.5483   11.2177   -3.4536 H   0  0  0  0  0  0  0  0  0  0  0  0
    4.6615   13.2875   -4.2248 H   0  0  0  0  0  0  0  0  0  0  0  0
    2.8591   13.3793   -4.3181 H   0  0  0  0  0  0  0  0  0  0  0  0
    3.6950   15.4607   -3.4614 H   0  0  0  0  0  0  0  0  0  0  0  0
    4.9250   13.8340   -1.4230 H   0  0  0  0  0  0  0  0  0  0  0  0
    0.3876   15.1802   -2.0062 H   0  0  0  0  0  0  0  0  0  0  0  0
    1.4054   15.8725   -3.3145 H   0  0  0  0  0  0  0  0  0  0  0  0
    1.0124   14.1197   -3.3145 H   0  0  0  0  0  0  0  0  0  0  0  0
    2.6616   15.6350    0.1255 H   0  0  0  0  0  0  0  0  0  0  0  0
    3.6976   16.3900   -1.1328 H   0  0  0  0  0  0  0  0  0  0  0  0
    1.9257   16.6846   -1.1328 H   0  0  0  0  0  0  0  0  0  0  0  0
    3.5184   10.2575    0.5609 H   0  0  0  0  0  0  0  0  0  0  0  0
    3.7306    9.2309   -0.8978 H   0  0  0  0  0  0  0  0  0  0  0  0
    4.3261   10.9256   -0.8978 H   0  0  0  0  0  0  0  0  0  0  0  0
    2.0842    9.8043   -3.0456 H   0  0  0  0  0  0  0  0  0  0  0  0
    1.9455    8.6657   -1.5902 H   0  0  0  0  0  0  0  0  0  0  0  0
   -0.2409   10.3637   -2.8242 H   0  0  0  0  0  0  0  0  0  0  0  0
   -0.1030    8.5621   -2.7753 H   0  0  0  0  0  0  0  0  0  0  0  0
   -0.1959    8.3686    0.9598 H   0  0  0  0  0  0  0  0  0  0  0  0
   -0.7762    7.3438   -0.3966 H   0  0  0  0  0  0  0  0  0  0  0  0
    0.9099    7.9633   -0.3966 H   0  0  0  0  0  0  0  0  0  0  0  0
  1  2  1  0
  2  3  1  0
  3  4  1  0
  4  5  1  0
  5  6  1  0
  6  7  1  0
  7  8  1  0
  7  9  1  0
  2 10  1  0
 10 11  1  0
 11 12  1  0
 12 13  1  0
 13 14  1  6
 13 15  1  0
 15 16  1  0
 16 17  1  0
 17 18  2  0
 18 19  1  0
 19 20  1  0
 20 21  1  0
 21 22  1  0
 22 23  1  0
 22 24  1  0
 24 25  1  0
 24 26  1  0
 19 27  1  0
 27 28  1  1
 27 29  1  0
 29 30  1  0
 30 31  1  0
 31 32  1  1
  7  5  1  0
 31 10  1  0
 31 13  1  0
 27 15  1  0
 24 18  1  0
  1 33  1  0
  1 34  1  0
  1 35  1  0
  2 36  1  1
  3 37  1  0
  3 38  1  0
  4 39  1  0
  4 40  1  0
  5 41  1  6
  8 42  1  0
  8 43  1  0
  8 44  1  0
  9 45  1  0
  9 46  1  0
  9 47  1  0
 10 48  1  6
 11 49  1  0
 11 50  1  0
 12 51  1  0
 12 52  1  0
 14 53  1  0
 14 54  1  0
 14 55  1  0
 15 56  1  1
 16 57  1  0
 16 58  1  0
 17 59  1  0
 19 60  1  6
 20 61  1  0
 20 62  1  0
 21 63  1  0
 21 64  1  0
 22 65  1  6
 23 66  1  0
 25 67  1  0
 25 68  1  0
 25 69  1  0
 26 70  1  0
 26 71  1  0
 26 72  1  0
 28 73  1  0
 28 74  1  0
 28 75  1  0
 29 76  1  0
 29 77  1  0
 30 78  1  0
 30 79  1  0
 32 80  1  0
 32 81  1  0
 32 82  1  0
M  END
>  <meeko>  (1) 
{"is_sidechain": [false], "intermolecular_energy": 2.731, "internal_energy": -0.839}

$$$$
EPH_relaxed_0001_pdb2pqr_Repair_209_r2_0001_out
     RDKit          3D

 82 86  0  0  0  0  0  0  0  0999 V2000
   -1.2180    7.8440   -1.4630 C   0  0  0  0  0  0  0  0  0  0  0  0
   -1.1490    8.8780   -0.3360 C   0  0  2  0  0  0  0  0  0  0  0  0
   -2.4390    9.7180   -0.2390 C   0  0  0  0  0  0  0  0  0  0  0  0
   -3.6960    8.8850    0.0280 C   0  0  0  0  0  0  0  0  0  0  0  0
   -4.4600    8.6160   -1.2330 C   0  0  2  0  0  0  0  0  0  0  0  0
   -5.8720    8.8450   -1.1380 O   0  0  0  0  0  0  0  0  0  0  0  0
   -5.4650    7.4890   -1.3780 C   0  0  0  0  0  0  0  0  0  0  0  0
   -5.7590    6.5560   -0.2460 C   0  0  0  0  0  0  0  0  0  0  0  0
   -5.7930    6.9950   -2.7530 C   0  0  0  0  0  0  0  0  0  0  0  0
    0.0530    9.7920   -0.5420 C   0  0  1  0  0  0  0  0  0  0  0  0
    1.3620    9.0050   -0.8160 C   0  0  0  0  0  0  0  0  0  0  0  0
    2.1930    9.8510   -1.8150 C   0  0  0  0  0  0  0  0  0  0  0  0
    1.4990   11.2330   -1.8260 C   0  0  1  0  0  0  0  0  0  0  0  0
    2.0430   11.9650   -0.5590 C   0  0  0  0  0  0  0  0  0  0  0  0
    1.6930   12.0940   -3.1170 C   0  0  2  0  0  0  0  0  0  0  0  0
    3.1460   12.4980   -3.4190 C   0  0  0  0  0  0  0  0  0  0  0  0
    3.5830   13.7970   -2.8270 C   0  0  0  0  0  0  0  0  0  0  0  0
    2.7660   14.7410   -2.3240 C   0  0  0  0  0  0  0  0  0  0  0  0
    1.2420   14.5910   -2.4090 C   0  0  1  0  0  0  0  0  0  0  0  0
    0.6160   15.9230   -2.9000 C   0  0  0  0  0  0  0  0  0  0  0  0
    1.0380   17.1160   -2.0480 C   0  0  0  0  0  0  0  0  0  0  0  0
    2.5570   17.2680   -2.0350 C   0  0  2  0  0  0  0  0  0  0  0  0
    2.9960   17.6230   -3.3500 O   0  0  0  0  0  0  0  0  0  0  0  0
    3.2970   15.9840   -1.5670 C   0  0  0  0  0  0  0  0  0  0  0  0
    3.0580   15.7680   -0.0520 C   0  0  0  0  0  0  0  0  0  0  0  0
    4.8220   16.2230   -1.7350 C   0  0  0  0  0  0  0  0  0  0  0  0
    0.7140   13.3320   -3.2230 C   0  0  1  0  0  0  0  0  0  0  0  0
    0.6060   13.6860   -4.7380 C   0  0  0  0  0  0  0  0  0  0  0  0
   -0.7450   12.9850   -2.7440 C   0  0  0  0  0  0  0  0  0  0  0  0
   -0.8720   12.0350   -1.5370 C   0  0  0  0  0  0  0  0  0  0  0  0
   -0.0050   10.7870   -1.7290 C   0  0  2  0  0  0  0  0  0  0  0  0
   -0.5430   10.0180   -2.9830 C   0  0  0  0  0  0  0  0  0  0  0  0
   -1.2854    6.8347   -1.0309 H   0  0  0  0  0  0  0  0  0  0  0  0
   -2.1053    8.0370   -2.0839 H   0  0  0  0  0  0  0  0  0  0  0  0
   -0.3130    7.9174   -2.0839 H   0  0  0  0  0  0  0  0  0  0  0  0
   -1.0404    8.3287    0.6108 H   0  0  0  0  0  0  0  0  0  0  0  0
   -2.3214   10.4421    0.5807 H   0  0  0  0  0  0  0  0  0  0  0  0
   -2.5784   10.2078   -1.2140 H   0  0  0  0  0  0  0  0  0  0  0  0
   -3.3993    7.9255    0.4768 H   0  0  0  0  0  0  0  0  0  0  0  0
   -4.3465    9.4538    0.7087 H   0  0  0  0  0  0  0  0  0  0  0  0
   -3.5998    8.9212   -1.8470 H   0  0  0  0  0  0  0  0  0  0  0  0
   -5.5952    7.0758    0.7095 H   0  0  0  0  0  0  0  0  0  0  0  0
   -6.8056    6.2231   -0.3076 H   0  0  0  0  0  0  0  0  0  0  0  0
   -5.0923    5.6832   -0.3076 H   0  0  0  0  0  0  0  0  0  0  0  0
   -6.4001    6.0807   -2.6790 H   0  0  0  0  0  0  0  0  0  0  0  0
   -6.3582    7.7675   -3.2950 H   0  0  0  0  0  0  0  0  0  0  0  0
   -4.8617    6.7739   -3.2950 H   0  0  0  0  0  0  0  0  0  0  0  0
    0.0324   10.3409    0.4110 H   0  0  0  0  0  0  0  0  0  0  0  0
    1.9228    8.8654    0.1199 H   0  0  0  0  0  0  0  0  0  0  0  0
    1.1444    8.0087   -1.2283 H   0  0  0  0  0  0  0  0  0  0  0  0
    3.2349    9.9422   -1.4741 H   0  0  0  0  0  0  0  0  0  0  0  0
    2.2327    9.3957   -2.8156 H   0  0  0  0  0  0  0  0  0  0  0  0
    1.6687   11.4614    0.3445 H   0  0  0  0  0  0  0  0  0  0  0  0
    3.1427   11.9390   -0.5643 H   0  0  0  0  0  0  0  0  0  0  0  0
    1.7009   13.0104   -0.5643 H   0  0  0  0  0  0  0  0  0  0  0  0
    1.4068   11.3923   -3.9143 H   0  0  0  0  0  0  0  0  0  0  0  0
    3.8060   11.7084   -3.0307 H   0  0  0  0  0  0  0  0  0  0  0  0
    3.2059   12.6254   -4.5100 H   0  0  0  0  0  0  0  0  0  0  0  0
    4.6638   13.9997   -2.7996 H   0  0  0  0  0  0  0  0  0  0  0  0
    0.9007   14.3737   -1.3861 H   0  0  0  0  0  0  0  0  0  0  0  0
    0.9340   16.1007   -3.9379 H   0  0  0  0  0  0  0  0  0  0  0  0
   -0.4771   15.8271   -2.8226 H   0  0  0  0  0  0  0  0  0  0  0  0
    0.5883   18.0307   -2.4617 H   0  0  0  0  0  0  0  0  0  0  0  0
    0.6932   16.9500   -1.0167 H   0  0  0  0  0  0  0  0  0  0  0  0
    2.8034   18.0553   -1.3074 H   0  0  0  0  0  0  0  0  0  0  0  0
    3.3040   18.5440   -3.3180 H   0  0  0  0  0  0  0  0  0  0  0  0
    3.7540   16.3970    0.5223 H   0  0  0  0  0  0  0  0  0  0  0  0
    2.0229   16.0431    0.1988 H   0  0  0  0  0  0  0  0  0  0  0  0
    3.2273   14.7104    0.1988 H   0  0  0  0  0  0  0  0  0  0  0  0
    5.2930   16.2968   -0.7437 H   0  0  0  0  0  0  0  0  0  0  0  0
    5.2658   15.3834   -2.2902 H   0  0  0  0  0  0  0  0  0  0  0  0
    4.9876   17.1581   -2.2902 H   0  0  0  0  0  0  0  0  0  0  0  0
    0.2866   14.7328   -4.8481 H   0  0  0  0  0  0  0  0  0  0  0  0
    1.5867   13.5495   -5.2173 H   0  0  0  0  0  0  0  0  0  0  0  0
   -0.1315   13.0253   -5.2173 H   0  0  0  0  0  0  0  0  0  0  0  0
   -1.2415   13.9298   -2.4777 H   0  0  0  0  0  0  0  0  0  0  0  0
   -1.2036   12.4448   -3.5853 H   0  0  0  0  0  0  0  0  0  0  0  0
   -0.5473   12.5625   -0.6280 H   0  0  0  0  0  0  0  0  0  0  0  0
   -1.9226   11.7220   -1.4456 H   0  0  0  0  0  0  0  0  0  0  0  0
   -1.1449    9.1576   -2.6551 H   0  0  0  0  0  0  0  0  0  0  0  0
   -1.1669   10.6930   -3.5873 H   0  0  0  0  0  0  0  0  0  0  0  0
    0.3050    9.6633   -3.5873 H   0  0  0  0  0  0  0  0  0  0  0  0
  1  2  1  0
  2  3  1  0
  3  4  1  0
  4  5  1  0
  5  6  1  0
  6  7  1  0
  7  8  1  0
  7  9  1  0
  2 10  1  0
 10 11  1  0
 11 12  1  0
 12 13  1  0
 13 14  1  1
 13 15  1  0
 15 16  1  0
 16 17  1  0
 17 18  2  0
 18 19  1  0
 19 20  1  0
 20 21  1  0
 21 22  1  0
 22 23  1  0
 22 24  1  0
 24 25  1  0
 24 26  1  0
 19 27  1  0
 27 28  1  6
 27 29  1  0
 29 30  1  0
 30 31  1  0
 31 32  1  6
  7  5  1  0
 31 10  1  0
 31 13  1  0
 27 15  1  0
 24 18  1  0
  1 33  1  0
  1 34  1  0
  1 35  1  0
  2 36  1  1
  3 37  1  0
  3 38  1  0
  4 39  1  0
  4 40  1  0
  5 41  1  6
  8 42  1  0
  8 43  1  0
  8 44  1  0
  9 45  1  0
  9 46  1  0
  9 47  1  0
 10 48  1  1
 11 49  1  0
 11 50  1  0
 12 51  1  0
 12 52  1  0
 14 53  1  0
 14 54  1  0
 14 55  1  0
 15 56  1  6
 16 57  1  0
 16 58  1  0
 17 59  1  0
 19 60  1  1
 20 61  1  0
 20 62  1  0
 21 63  1  0
 21 64  1  0
 22 65  1  1
 23 66  1  0
 25 67  1  0
 25 68  1  0
 25 69  1  0
 26 70  1  0
 26 71  1  0
 26 72  1  0
 28 73  1  0
 28 74  1  0
 28 75  1  0
 29 76  1  0
 29 77  1  0
 30 78  1  0
 30 79  1  0
 32 80  1  0
 32 81  1  0
 32 82  1  0
M  END
>  <meeko>  (2) 
{"is_sidechain": [false], "intermolecular_energy": 2.731, "internal_energy": -0.839}

$$$$
EPH_relaxed_0001_pdb2pqr_Repair_209_r2_0001_out
     RDKit          3D

 82 86  0  0  0  0  0  0  0  0999 V2000
    4.9520   17.5550   -2.3720 C   0  0  0  0  0  0  0  0  0  0  0  0
    4.0530   17.8710   -1.1730 C   0  0  2  0  0  0  0  0  0  0  0  0
    4.8090   17.7560    0.1660 C   0  0  0  0  0  0  0  0  0  0  0  0
    5.0020   19.0960    0.8810 C   0  0  0  0  0  0  0  0  0  0  0  0
    6.1310   19.0410    1.8650 C   0  0  2  0  0  0  0  0  0  0  0  0
    5.9090   18.1710    2.9830 O   0  0  0  0  0  0  0  0  0  0  0  0
    6.0300   19.5710    3.2840 C   0  0  0  0  0  0  0  0  0  0  0  0
    4.7700   20.1940    3.7960 C   0  0  0  0  0  0  0  0  0  0  0  0
    7.2920   19.9250    4.0060 C   0  0  0  0  0  0  0  0  0  0  0  0
    2.8440   16.9430   -1.1710 C   0  0  1  0  0  0  0  0  0  0  0  0
    1.5650   17.6260   -1.7230 C   0  0  0  0  0  0  0  0  0  0  0  0
    0.7660   16.5340   -2.4800 C   0  0  0  0  0  0  0  0  0  0  0  0
    1.4320   15.2020   -2.0610 C   0  0  1  0  0  0  0  0  0  0  0  0
    0.8150   14.8660   -0.6670 C   0  0  0  0  0  0  0  0  0  0  0  0
    1.2820   14.0100   -3.0610 C   0  0  2  0  0  0  0  0  0  0  0  0
   -0.1630   13.5440   -3.3080 C   0  0  0  0  0  0  0  0  0  0  0  0
   -0.6530   12.4710   -2.3930 C   0  0  0  0  0  0  0  0  0  0  0  0
    0.1210   11.7050   -1.6010 C   0  0  0  0  0  0  0  0  0  0  0  0
    1.6510   11.8170   -1.6490 C   0  0  1  0  0  0  0  0  0  0  0  0
    2.2720   10.3970   -1.7070 C   0  0  0  0  0  0  0  0  0  0  0  0
    1.7880    9.4990   -0.5730 C   0  0  0  0  0  0  0  0  0  0  0  0
    0.2670    9.3660   -0.5940 C   0  0  2  0  0  0  0  0  0  0  0  0
   -0.1160    8.6520   -1.7730 O   0  0  0  0  0  0  0  0  0  0  0  0
   -0.4690   10.7340   -0.5490 C   0  0  0  0  0  0  0  0  0  0  0  0
   -0.2960   11.3720    0.8520 C   0  0  0  0  0  0  0  0  0  0  0  0
   -1.9880   10.4650   -0.7190 C   0  0  0  0  0  0  0  0  0  0  0  0
    2.2400   12.7880   -2.7610 C   0  0  1  0  0  0  0  0  0  0  0  0
    2.4120   12.0150   -4.1040 C   0  0  0  0  0  0  0  0  0  0  0  0
    3.6820   13.2500   -2.3270 C   0  0  0  0  0  0  0  0  0  0  0  0
    3.7710   14.5040   -1.4370 C   0  0  0  0  0  0  0  0  0  0  0  0
    2.9380   15.6500   -2.0200 C   0  0  2  0  0  0  0  0  0  0  0  0
    3.5490   16.0250   -3.4130 C   0  0  0  0  0  0  0  0  0  0  0  0
    5.9332   17.2101   -2.0138 H   0  0  0  0  0  0  0  0  0  0  0  0
    4.4864   16.7666   -2.9817 H   0  0  0  0  0  0  0  0  0  0  0  0
    5.0821   18.4613   -2.9817 H   0  0  0  0  0  0  0  0  0  0  0  0
    3.7200   18.9144   -1.2748 H   0  0  0  0  0  0  0  0  0  0  0  0
    4.2408   17.0872    0.8292 H   0  0  0  0  0  0  0  0  0  0  0  0
    5.8119   17.3668   -0.0635 H   0  0  0  0  0  0  0  0  0  0  0  0
    5.2192   19.8718    0.1320 H   0  0  0  0  0  0  0  0  0  0  0  0
    4.0781   19.3275    1.4313 H   0  0  0  0  0  0  0  0  0  0  0  0
    6.8678   19.2080    1.0654 H   0  0  0  0  0  0  0  0  0  0  0  0
    4.7794   20.1894    4.8960 H   0  0  0  0  0  0  0  0  0  0  0  0
    4.7002   21.2305    3.4343 H   0  0  0  0  0  0  0  0  0  0  0  0
    3.9040   19.6203    3.4343 H   0  0  0  0  0  0  0  0  0  0  0  0
    7.1194   19.8766    5.0913 H   0  0  0  0  0  0  0  0  0  0  0  0
    8.0847   19.2145    3.7287 H   0  0  0  0  0  0  0  0  0  0  0  0
    7.5996   20.9441    3.7287 H   0  0  0  0  0  0  0  0  0  0  0  0
    2.8091   16.6892   -0.1013 H   0  0  0  0  0  0  0  0  0  0  0  0
    0.9638   18.0298   -0.8950 H   0  0  0  0  0  0  0  0  0  0  0  0
    1.8205   18.4624   -2.3902 H   0  0  0  0  0  0  0  0  0  0  0  0
   -0.2925   16.5498   -2.1810 H   0  0  0  0  0  0  0  0  0  0  0  0
    0.7833   16.6844   -3.5695 H   0  0  0  0  0  0  0  0  0  0  0  0
    1.4834   15.2300    0.1272 H   0  0  0  0  0  0  0  0  0  0  0  0
   -0.1661   15.3544   -0.5729 H   0  0  0  0  0  0  0  0  0  0  0  0
    0.6929   13.7768   -0.5729 H   0  0  0  0  0  0  0  0  0  0  0  0
    1.6190   14.4539   -4.0094 H   0  0  0  0  0  0  0  0  0  0  0  0
   -0.8249   14.4153   -3.1951 H   0  0  0  0  0  0  0  0  0  0  0  0
   -0.1738   13.1100   -4.3187 H   0  0  0  0  0  0  0  0  0  0  0  0
   -1.7378   12.2910   -2.3633 H   0  0  0  0  0  0  0  0  0  0  0  0
    1.9497   12.3165   -0.7156 H   0  0  0  0  0  0  0  0  0  0  0  0
    1.9991    9.9319   -2.6658 H   0  0  0  0  0  0  0  0  0  0  0  0
    3.3619   10.5053   -1.6046 H   0  0  0  0  0  0  0  0  0  0  0  0
    2.2382    8.5018   -0.6862 H   0  0  0  0  0  0  0  0  0  0  0  0
    2.0880    9.9498    0.3845 H   0  0  0  0  0  0  0  0  0  0  0  0
   -0.0293    8.8215    0.3147 H   0  0  0  0  0  0  0  0  0  0  0  0
   -0.6590    9.2490   -2.3160 H   0  0  0  0  0  0  0  0  0  0  0  0
   -0.5005   10.6178    1.6262 H   0  0  0  0  0  0  0  0  0  0  0  0
    0.7345   11.7406    0.9623 H   0  0  0  0  0  0  0  0  0  0  0  0
   -0.9992   12.2107    0.9623 H   0  0  0  0  0  0  0  0  0  0  0  0
   -2.4587   10.3816    0.2717 H   0  0  0  0  0  0  0  0  0  0  0  0
   -2.4476   11.2957   -1.2746 H   0  0  0  0  0  0  0  0  0  0  0  0
   -2.1343    9.5270   -1.2746 H   0  0  0  0  0  0  0  0  0  0  0  0
    2.6465   10.9612   -3.8931 H   0  0  0  0  0  0  0  0  0  0  0  0
    1.4787   12.0741   -4.6832 H   0  0  0  0  0  0  0  0  0  0  0  0
    3.2321   12.4643   -4.6832 H   0  0  0  0  0  0  0  0  0  0  0  0
    4.1466   12.4181   -1.7773 H   0  0  0  0  0  0  0  0  0  0  0  0
    4.1901   13.5248   -3.2631 H   0  0  0  0  0  0  0  0  0  0  0  0
    3.3944   14.2600   -0.4327 H   0  0  0  0  0  0  0  0  0  0  0  0
    4.8220   14.8246   -1.3865 H   0  0  0  0  0  0  0  0  0  0  0  0
    4.4779   16.5951   -3.2644 H   0  0  0  0  0  0  0  0  0  0  0  0
    3.7688   15.1061   -3.9763 H   0  0  0  0  0  0  0  0  0  0  0  0
    2.8292   16.6371   -3.9763 H   0  0  0  0  0  0  0  0  0  0  0  0
  1  2  1  0
  2  3  1  0
  3  4  1  0
  4  5  1  0
  5  6  1  0
  6  7  1  0
  7  8  1  0
  7  9  1  0
  2 10  1  0
 10 11  1  0
 11 12  1  0
 12 13  1  0
 13 14  1  1
 13 15  1  0
 15 16  1  0
 16 17  1  0
 17 18  2  0
 18 19  1  0
 19 20  1  0
 20 21  1  0
 21 22  1  0
 22 23  1  0
 22 24  1  0
 24 25  1  0
 24 26  1  0
 19 27  1  0
 27 28  1  6
 27 29  1  0
 29 30  1  0
 30 31  1  0
 31 32  1  6
  7  5  1  0
 31 10  1  0
 31 13  1  0
 27 15  1  0
 24 18  1  0
  1 33  1  0
  1 34  1  0
  1 35  1  0
  2 36  1  6
  3 37  1  0
  3 38  1  0
  4 39  1  0
  4 40  1  0
  5 41  1  6
  8 42  1  0
  8 43  1  0
  8 44  1  0
  9 45  1  0
  9 46  1  0
  9 47  1  0
 10 48  1  1
 11 49  1  0
 11 50  1  0
 12 51  1  0
 12 52  1  0
 14 53  1  0
 14 54  1  0
 14 55  1  0
 15 56  1  6
 16 57  1  0
 16 58  1  0
 17 59  1  0
 19 60  1  1
 20 61  1  0
 20 62  1  0
 21 63  1  0
 21 64  1  0
 22 65  1  1
 23 66  1  0
 25 67  1  0
 25 68  1  0
 25 69  1  0
 26 70  1  0
 26 71  1  0
 26 72  1  0
 28 73  1  0
 28 74  1  0
 28 75  1  0
 29 76  1  0
 29 77  1  0
 30 78  1  0
 30 79  1  0
 32 80  1  0
 32 81  1  0
 32 82  1  0
M  END
>  <meeko>  (3) 
{"is_sidechain": [false], "intermolecular_energy": 2.731, "internal_energy": -0.839}

$$$$
EPH_relaxed_0001_pdb2pqr_Repair_209_r2_0001_out
     RDKit          3D

 82 86  0  0  0  0  0  0  0  0999 V2000
   -0.2360   18.4180   -2.0290 C   0  0  0  0  0  0  0  0  0  0  0  0
    0.8750   17.3630   -2.0050 C   0  0  2  0  0  0  0  0  0  0  0  0
    2.0400   17.7270   -2.9470 C   0  0  0  0  0  0  0  0  0  0  0  0
    3.3380   18.0760   -2.2130 C   0  0  0  0  0  0  0  0  0  0  0  0
    4.1870   16.8630   -1.9800 C   0  0  2  0  0  0  0  0  0  0  0  0
    5.4600   17.1300   -1.3770 O   0  0  0  0  0  0  0  0  0  0  0  0
    5.4890   16.6000   -2.7120 C   0  0  0  0  0  0  0  0  0  0  0  0
    6.0160   17.5570   -3.7350 C   0  0  0  0  0  0  0  0  0  0  0  0
    5.9940   15.1930   -2.7910 C   0  0  0  0  0  0  0  0  0  0  0  0
    0.3050   16.0010   -2.3830 C   0  0  1  0  0  0  0  0  0  0  0  0
   -0.0510   15.8990   -3.8900 C   0  0  0  0  0  0  0  0  0  0  0  0
    0.2510   14.4410   -4.3230 C   0  0  0  0  0  0  0  0  0  0  0  0
    0.4510   13.6730   -2.9960 C   0  0  1  0  0  0  0  0  0  0  0  0
   -0.9930   13.3580   -2.4930 C   0  0  0  0  0  0  0  0  0  0  0  0
    1.3310   12.3830   -3.0700 C   0  0  2  0  0  0  0  0  0  0  0  0
    0.7750   11.2640   -3.9690 C   0  0  0  0  0  0  0  0  0  0  0  0
   -0.1150   10.2800   -3.2850 C   0  0  0  0  0  0  0  0  0  0  0  0
   -0.2290   10.1220   -1.9530 C   0  0  0  0  0  0  0  0  0  0  0  0
    0.6600   10.9160   -0.9870 C   0  0  1  0  0  0  0  0  0  0  0  0
    1.2350    9.9610    0.0920 C   0  0  0  0  0  0  0  0  0  0  0  0
    0.1480    9.1720    0.8150 C   0  0  0  0  0  0  0  0  0  0  0  0
   -0.6770    8.3500   -0.1730 C   0  0  2  0  0  0  0  0  0  0  0  0
    0.1580    7.3330   -0.7350 O   0  0  0  0  0  0  0  0  0  0  0  0
   -1.2990    9.2050   -1.3120 C   0  0  0  0  0  0  0  0  0  0  0  0
   -2.4240   10.1000   -0.7360 C   0  0  0  0  0  0  0  0  0  0  0  0
   -1.9850    8.2380   -2.3140 C   0  0  0  0  0  0  0  0  0  0  0  0
    1.7790   11.8220   -1.6600 C   0  0  1  0  0  0  0  0  0  0  0  0
    3.0680   10.9800   -1.9050 C   0  0  0  0  0  0  0  0  0  0  0  0
    2.1820   12.9690   -0.6600 C   0  0  0  0  0  0  0  0  0  0  0  0
    1.3500   14.2650   -0.7170 C   0  0  0  0  0  0  0  0  0  0  0  0
    1.2120   14.7650   -2.1590 C   0  0  2  0  0  0  0  0  0  0  0  0
    2.6470   15.1110   -2.6840 C   0  0  0  0  0  0  0  0  0  0  0  0
   -0.5136   18.6816   -0.9978 H   0  0  0  0  0  0  0  0  0  0  0  0
    0.1225   19.3161   -2.5532 H   0  0  0  0  0  0  0  0  0  0  0  0
   -1.1144   18.0136   -2.5532 H   0  0  0  0  0  0  0  0  0  0  0  0
    1.2768   17.3268   -0.9817 H   0  0  0  0  0  0  0  0  0  0  0  0
    2.2341   16.8688   -3.6072 H   0  0  0  0  0  0  0  0  0  0  0  0
    1.7344   18.6244   -3.5049 H   0  0  0  0  0  0  0  0  0  0  0  0
    3.9063   18.7980   -2.8177 H   0  0  0  0  0  0  0  0  0  0  0  0
    3.0740   18.5027   -1.2341 H   0  0  0  0  0  0  0  0  0  0  0  0
    3.2946   16.2412   -1.8155 H   0  0  0  0  0  0  0  0  0  0  0  0
    6.4870   18.4124   -3.2286 H   0  0  0  0  0  0  0  0  0  0  0  0
    6.7609   17.0477   -4.3641 H   0  0  0  0  0  0  0  0  0  0  0  0
    5.1874   17.9142   -4.3641 H   0  0  0  0  0  0  0  0  0  0  0  0
    6.1362   14.7969   -1.7747 H   0  0  0  0  0  0  0  0  0  0  0  0
    5.2631   14.5707   -3.3282 H   0  0  0  0  0  0  0  0  0  0  0  0
    6.9538   15.1775   -3.3282 H   0  0  0  0  0  0  0  0  0  0  0  0
   -0.5567   15.9654   -1.7001 H   0  0  0  0  0  0  0  0  0  0  0  0
   -1.1160   16.1270   -4.0440 H   0  0  0  0  0  0  0  0  0  0  0  0
    0.5342   16.6167   -4.4837 H   0  0  0  0  0  0  0  0  0  0  0  0
   -0.5928   14.0219   -4.8907 H   0  0  0  0  0  0  0  0  0  0  0  0
    1.1310   14.3749   -4.9797 H   0  0  0  0  0  0  0  0  0  0  0  0
   -1.0057   13.3552   -1.3931 H   0  0  0  0  0  0  0  0  0  0  0  0
   -1.6868   14.1259   -2.8658 H   0  0  0  0  0  0  0  0  0  0  0  0
   -1.3039   12.3709   -2.8658 H   0  0  0  0  0  0  0  0  0  0  0  0
    2.2396   12.7464   -3.5724 H   0  0  0  0  0  0  0  0  0  0  0  0
    0.2012   11.7340   -4.7813 H   0  0  0  0  0  0  0  0  0  0  0  0
    1.6476   10.6931   -4.3193 H   0  0  0  0  0  0  0  0  0  0  0  0
   -0.7299    9.6287   -3.9236 H   0  0  0  0  0  0  0  0  0  0  0  0
    0.0042   11.6615   -0.5135 H   0  0  0  0  0  0  0  0  0  0  0  0
    1.9209    9.2518   -0.3944 H   0  0  0  0  0  0  0  0  0  0  0  0
    1.7537   10.5775    0.8409 H   0  0  0  0  0  0  0  0  0  0  0  0
    0.6184    8.4944    1.5427 H   0  0  0  0  0  0  0  0  0  0  0  0
   -0.5199    9.8809    1.3262 H   0  0  0  0  0  0  0  0  0  0  0  0
   -1.5181    7.9110    0.3836 H   0  0  0  0  0  0  0  0  0  0  0  0
    1.0820    7.6030   -0.6020 H   0  0  0  0  0  0  0  0  0  0  0  0
   -2.3885   10.0718    0.3631 H   0  0  0  0  0  0  0  0  0  0  0  0
   -2.2821   11.1348   -1.0810 H   0  0  0  0  0  0  0  0  0  0  0  0
   -3.4004    9.7291   -1.0810 H   0  0  0  0  0  0  0  0  0  0  0  0
   -2.5344    7.4636   -1.7586 H   0  0  0  0  0  0  0  0  0  0  0  0
   -2.6859    8.8023   -2.9467 H   0  0  0  0  0  0  0  0  0  0  0  0
   -1.2208    7.7629   -2.9467 H   0  0  0  0  0  0  0  0  0  0  0  0
    3.5076   10.6928   -0.9384 H   0  0  0  0  0  0  0  0  0  0  0  0
    2.8118   10.0746   -2.4747 H   0  0  0  0  0  0  0  0  0  0  0  0
    3.7941   11.5785   -2.4747 H   0  0  0  0  0  0  0  0  0  0  0  0
    2.0997   12.5653    0.3599 H   0  0  0  0  0  0  0  0  0  0  0  0
    3.1984   13.2663   -0.9576 H   0  0  0  0  0  0  0  0  0  0  0  0
    0.3485   14.0680   -0.3070 H   0  0  0  0  0  0  0  0  0  0  0  0
    1.8630   15.0375   -0.1254 H   0  0  0  0  0  0  0  0  0  0  0  0
    3.3207   15.2734   -1.8297 H   0  0  0  0  0  0  0  0  0  0  0  0
    3.0244   14.2781   -3.2954 H   0  0  0  0  0  0  0  0  0  0  0  0
    2.6034   16.0244   -3.2954 H   0  0  0  0  0  0  0  0  0  0  0  0
  1  2  1  0
  2  3  1  0
  3  4  1  0
  4  5  1  0
  5  6  1  0
  6  7  1  0
  7  8  1  0
  7  9  1  0
  2 10  1  0
 10 11  1  0
 11 12  1  0
 12 13  1  0
 13 14  1  1
 13 15  1  0
 15 16  1  0
 16 17  1  0
 17 18  2  0
 18 19  1  0
 19 20  1  0
 20 21  1  0
 21 22  1  0
 22 23  1  0
 22 24  1  0
 24 25  1  0
 24 26  1  0
 19 27  1  0
 27 28  1  6
 27 29  1  0
 29 30  1  0
 30 31  1  0
 31 32  1  6
  7  5  1  0
 31 10  1  0
 31 13  1  0
 27 15  1  0
 24 18  1  0
  1 33  1  0
  1 34  1  0
  1 35  1  0
  2 36  1  1
  3 37  1  0
  3 38  1  0
  4 39  1  0
  4 40  1  0
  5 41  1  1
  8 42  1  0
  8 43  1  0
  8 44  1  0
  9 45  1  0
  9 46  1  0
  9 47  1  0
 10 48  1  1
 11 49  1  0
 11 50  1  0
 12 51  1  0
 12 52  1  0
 14 53  1  0
 14 54  1  0
 14 55  1  0
 15 56  1  6
 16 57  1  0
 16 58  1  0
 17 59  1  0
 19 60  1  1
 20 61  1  0
 20 62  1  0
 21 63  1  0
 21 64  1  0
 22 65  1  1
 23 66  1  0
 25 67  1  0
 25 68  1  0
 25 69  1  0
 26 70  1  0
 26 71  1  0
 26 72  1  0
 28 73  1  0
 28 74  1  0
 28 75  1  0
 29 76  1  0
 29 77  1  0
 30 78  1  0
 30 79  1  0
 32 80  1  0
 32 81  1  0
 32 82  1  0
M  END
>  <meeko>  (4) 
{"is_sidechain": [false], "intermolecular_energy": 2.731, "internal_energy": -0.839}

$$$$
EPH_relaxed_0001_pdb2pqr_Repair_209_r2_0001_out
     RDKit          3D

 82 86  0  0  0  0  0  0  0  0999 V2000
    4.7380   16.7910   -1.6890 C   0  0  0  0  0  0  0  0  0  0  0  0
    4.7360   15.2610   -1.7250 C   0  0  2  0  0  0  0  0  0  0  0  0
    5.1390   14.7110   -3.1080 C   0  0  0  0  0  0  0  0  0  0  0  0
    6.0450   13.4790   -3.0410 C   0  0  0  0  0  0  0  0  0  0  0  0
    5.6650   12.4550   -4.0680 C   0  0  2  0  0  0  0  0  0  0  0  0
    5.2150   11.2050   -3.5290 O   0  0  0  0  0  0  0  0  0  0  0  0
    6.4350   11.1660   -4.2880 C   0  0  0  0  0  0  0  0  0  0  0  0
    7.6460   10.8320   -3.4760 C   0  0  0  0  0  0  0  0  0  0  0  0
    6.3020   10.4700   -5.6060 C   0  0  0  0  0  0  0  0  0  0  0  0
    3.3600   14.7330   -1.3350 C   0  0  1  0  0  0  0  0  0  0  0  0
    2.3230   15.8680   -1.1260 C   0  0  0  0  0  0  0  0  0  0  0  0
    0.9570   15.3210   -1.6130 C   0  0  0  0  0  0  0  0  0  0  0  0
    1.1810   13.7990   -1.7730 C   0  0  1  0  0  0  0  0  0  0  0  0
    1.0410   13.2190   -0.3310 C   0  0  0  0  0  0  0  0  0  0  0  0
    0.2410   13.0640   -2.7840 C   0  0  2  0  0  0  0  0  0  0  0  0
   -1.2550   13.0990   -2.4280 C   0  0  0  0  0  0  0  0  0  0  0  0
   -1.7370   11.9630   -1.5880 C   0  0  0  0  0  0  0  0  0  0  0  0
   -1.0730   10.8120   -1.3730 C   0  0  0  0  0  0  0  0  0  0  0  0
    0.2550   10.5240   -2.0860 C   0  0  1  0  0  0  0  0  0  0  0  0
    0.2330    9.0830   -2.6580 C   0  0  0  0  0  0  0  0  0  0  0  0
   -0.0990    8.0370   -1.5980 C   0  0  0  0  0  0  0  0  0  0  0  0
   -1.4530    8.3250   -0.9540 C   0  0  2  0  0  0  0  0  0  0  0  0
   -2.4780    8.1440   -1.9350 O   0  0  0  0  0  0  0  0  0  0  0  0
   -1.5530    9.7530   -0.3500 C   0  0  0  0  0  0  0  0  0  0  0  0
   -0.6540    9.8510    0.9080 C   0  0  0  0  0  0  0  0  0  0  0  0
   -3.0110    9.9630    0.1410 C   0  0  0  0  0  0  0  0  0  0  0  0
    0.7120   11.6010   -3.1610 C   0  0  1  0  0  0  0  0  0  0  0  0
    0.0770   11.2720   -4.5470 C   0  0  0  0  0  0  0  0  0  0  0  0
    2.2720   11.5050   -3.3530 C   0  0  0  0  0  0  0  0  0  0  0  0
    3.1420   12.3470   -2.4000 C   0  0  0  0  0  0  0  0  0  0  0  0
    2.6470   13.7950   -2.3410 C   0  0  2  0  0  0  0  0  0  0  0  0
    2.7970   14.4120   -3.7730 C   0  0  0  0  0  0  0  0  0  0  0  0
    4.7384   17.1332   -0.6436 H   0  0  0  0  0  0  0  0  0  0  0  0
    5.6366   17.1686   -2.1988 H   0  0  0  0  0  0  0  0  0  0  0  0
    3.8404   17.1709   -2.1988 H   0  0  0  0  0  0  0  0  0  0  0  0
    5.4868   14.9129   -1.0004 H   0  0  0  0  0  0  0  0  0  0  0  0
    4.2234   14.4393   -3.6538 H   0  0  0  0  0  0  0  0  0  0  0  0
    5.7106   15.5028   -3.6143 H   0  0  0  0  0  0  0  0  0  0  0  0
    7.0850   13.7913   -3.2167 H   0  0  0  0  0  0  0  0  0  0  0  0
    5.9328   13.0245   -2.0456 H   0  0  0  0  0  0  0  0  0  0  0  0
    5.3270   13.2400   -4.7605 H   0  0  0  0  0  0  0  0  0  0  0  0
    7.4001   10.8998   -2.4060 H   0  0  0  0  0  0  0  0  0  0  0  0
    7.9754    9.8095   -3.7124 H   0  0  0  0  0  0  0  0  0  0  0  0
    8.4530   11.5411   -3.7124 H   0  0  0  0  0  0  0  0  0  0  0  0
    6.0980    9.4022   -5.4379 H   0  0  0  0  0  0  0  0  0  0  0  0
    5.4730   10.9166   -6.1745 H   0  0  0  0  0  0  0  0  0  0  0  0
    7.2373   10.5795   -6.1745 H   0  0  0  0  0  0  0  0  0  0  0  0
    3.6269   14.1752   -0.4253 H   0  0  0  0  0  0  0  0  0  0  0  0
    2.2654   16.1370   -0.0610 H   0  0  0  0  0  0  0  0  0  0  0  0
    2.6085   16.7715   -1.6847 H   0  0  0  0  0  0  0  0  0  0  0  0
    0.1710   15.5219   -0.8701 H   0  0  0  0  0  0  0  0  0  0  0  0
    0.6277   15.7950   -2.5494 H   0  0  0  0  0  0  0  0  0  0  0  0
    1.2330   14.0143    0.4043 H   0  0  0  0  0  0  0  0  0  0  0  0
    0.0226   12.8277   -0.1904 H   0  0  0  0  0  0  0  0  0  0  0  0
    1.7687   12.4062   -0.1904 H   0  0  0  0  0  0  0  0  0  0  0  0
    0.3459   13.6766   -3.6916 H   0  0  0  0  0  0  0  0  0  0  0  0
   -1.4528   14.0333   -1.8821 H   0  0  0  0  0  0  0  0  0  0  0  0
   -1.7969   13.0233   -3.3823 H   0  0  0  0  0  0  0  0  0  0  0  0
   -2.7181   12.0761   -1.1036 H   0  0  0  0  0  0  0  0  0  0  0  0
    1.0378   10.6084   -1.3178 H   0  0  0  0  0  0  0  0  0  0  0  0
   -0.5246    9.0312   -3.4538 H   0  0  0  0  0  0  0  0  0  0  0  0
    1.2397    8.8611   -3.0419 H   0  0  0  0  0  0  0  0  0  0  0  0
   -0.1283    7.0434   -2.0692 H   0  0  0  0  0  0  0  0  0  0  0  0
    0.6755    8.0693   -0.8175 H   0  0  0  0  0  0  0  0  0  0  0  0
   -1.5762    7.6219   -0.1170 H   0  0  0  0  0  0  0  0  0  0  0  0
   -2.0520    7.8400   -2.7540 H   0  0  0  0  0  0  0  0  0  0  0  0
   -1.2784    9.7829    1.8111 H   0  0  0  0  0  0  0  0  0  0  0  0
    0.0747    9.0270    0.9031 H   0  0  0  0  0  0  0  0  0  0  0  0
   -0.1200   10.8127    0.9031 H   0  0  0  0  0  0  0  0  0  0  0  0
   -3.0307    9.9658    1.2408 H   0  0  0  0  0  0  0  0  0  0  0  0
   -3.3896   10.9249   -0.2350 H   0  0  0  0  0  0  0  0  0  0  0  0
   -3.6456    9.1470   -0.2350 H   0  0  0  0  0  0  0  0  0  0  0  0
   -0.8906   10.7707   -4.3973 H   0  0  0  0  0  0  0  0  0  0  0  0
   -0.0763   12.2041   -5.1106 H   0  0  0  0  0  0  0  0  0  0  0  0
    0.7500   10.6092   -5.1106 H   0  0  0  0  0  0  0  0  0  0  0  0
    2.5592   10.4512   -3.2223 H   0  0  0  0  0  0  0  0  0  0  0  0
    2.4645   11.9141   -4.3558 H   0  0  0  0  0  0  0  0  0  0  0  0
    3.0973   11.9101   -1.3915 H   0  0  0  0  0  0  0  0  0  0  0  0
    4.1760   12.3449   -2.7752 H   0  0  0  0  0  0  0  0  0  0  0  0
    3.0561   15.4777   -3.6878 H   0  0  0  0  0  0  0  0  0  0  0  0
    3.5929   13.8836   -4.3184 H   0  0  0  0  0  0  0  0  0  0  0  0
    1.8474   14.3080   -4.3184 H   0  0  0  0  0  0  0  0  0  0  0  0
  1  2  1  0
  2  3  1  0
  3  4  1  0
  4  5  1  0
  5  6  1  0
  6  7  1  0
  7  8  1  0
  7  9  1  0
  2 10  1  0
 10 11  1  0
 11 12  1  0
 12 13  1  0
 13 14  1  1
 13 15  1  0
 15 16  1  0
 16 17  1  0
 17 18  2  0
 18 19  1  0
 19 20  1  0
 20 21  1  0
 21 22  1  0
 22 23  1  0
 22 24  1  0
 24 25  1  0
 24 26  1  0
 19 27  1  0
 27 28  1  6
 27 29  1  0
 29 30  1  0
 30 31  1  0
 31 32  1  6
  7  5  1  0
 31 10  1  0
 31 13  1  0
 27 15  1  0
 24 18  1  0
  1 33  1  0
  1 34  1  0
  1 35  1  0
  2 36  1  1
  3 37  1  0
  3 38  1  0
  4 39  1  0
  4 40  1  0
  5 41  1  6
  8 42  1  0
  8 43  1  0
  8 44  1  0
  9 45  1  0
  9 46  1  0
  9 47  1  0
 10 48  1  1
 11 49  1  0
 11 50  1  0
 12 51  1  0
 12 52  1  0
 14 53  1  0
 14 54  1  0
 14 55  1  0
 15 56  1  6
 16 57  1  0
 16 58  1  0
 17 59  1  0
 19 60  1  1
 20 61  1  0
 20 62  1  0
 21 63  1  0
 21 64  1  0
 22 65  1  1
 23 66  1  0
 25 67  1  0
 25 68  1  0
 25 69  1  0
 26 70  1  0
 26 71  1  0
 26 72  1  0
 28 73  1  0
 28 74  1  0
 28 75  1  0
 29 76  1  0
 29 77  1  0
 30 78  1  0
 30 79  1  0
 32 80  1  0
 32 81  1  0
 32 82  1  0
M  END
>  <meeko>  (5) 
{"is_sidechain": [false], "intermolecular_energy": 2.731, "internal_energy": -0.839}

$$$$
EPH_relaxed_0001_pdb2pqr_Repair_209_r2_0001_out
     RDKit          3D

 82 86  0  0  0  0  0  0  0  0999 V2000
   -1.2880   10.4430    1.6290 C   0  0  0  0  0  0  0  0  0  0  0  0
   -1.9210   10.1480    0.2670 C   0  0  2  0  0  0  0  0  0  0  0  0
   -2.7210    8.8300    0.2720 C   0  0  0  0  0  0  0  0  0  0  0  0
   -4.0760    8.9290   -0.4340 C   0  0  0  0  0  0  0  0  0  0  0  0
   -4.5880    7.5820   -0.8450 C   0  0  2  0  0  0  0  0  0  0  0  0
   -4.7840    7.4210   -2.2560 O   0  0  0  0  0  0  0  0  0  0  0  0
   -5.9650    7.3550   -1.4400 C   0  0  0  0  0  0  0  0  0  0  0  0
   -6.9180    8.4890   -1.6560 C   0  0  0  0  0  0  0  0  0  0  0  0
   -6.5640    5.9860   -1.3560 C   0  0  0  0  0  0  0  0  0  0  0  0
   -0.8420   10.0990   -0.8080 C   0  0  1  0  0  0  0  0  0  0  0  0
   -1.2510    9.2270   -2.0260 C   0  0  0  0  0  0  0  0  0  0  0  0
   -0.6400    9.8990   -3.2820 C   0  0  0  0  0  0  0  0  0  0  0  0
    0.3650   10.9320   -2.7220 C   0  0  1  0  0  0  0  0  0  0  0  0
    1.6460   10.1050   -2.3870 C   0  0  0  0  0  0  0  0  0  0  0  0
    0.6910   12.1510   -3.6460 C   0  0  2  0  0  0  0  0  0  0  0  0
    1.3600   11.7940   -4.9850 C   0  0  0  0  0  0  0  0  0  0  0  0
    2.8530   11.7690   -4.9650 C   0  0  0  0  0  0  0  0  0  0  0  0
    3.6310   12.2960   -4.0010 C   0  0  0  0  0  0  0  0  0  0  0  0
    3.0170   13.0850   -2.8370 C   0  0  1  0  0  0  0  0  0  0  0  0
    3.8180   14.3960   -2.6210 C   0  0  0  0  0  0  0  0  0  0  0  0
    5.3110   14.1460   -2.4330 C   0  0  0  0  0  0  0  0  0  0  0  0
    5.8960   13.4120   -3.6370 C   0  0  2  0  0  0  0  0  0  0  0  0
    5.8420   14.2770   -4.7760 O   0  0  0  0  0  0  0  0  0  0  0  0
    5.1630   12.0790   -3.9570 C   0  0  0  0  0  0  0  0  0  0  0  0
    5.4750   11.0360   -2.8560 C   0  0  0  0  0  0  0  0  0  0  0  0
    5.7590   11.5110   -5.2740 C   0  0  0  0  0  0  0  0  0  0  0  0
    1.4500   13.3330   -2.9180 C   0  0  1  0  0  0  0  0  0  0  0  0
    1.1570   14.6240   -3.7410 C   0  0  0  0  0  0  0  0  0  0  0  0
    0.8950   13.5950   -1.4670 C   0  0  0  0  0  0  0  0  0  0  0  0
    0.4790   12.3590   -0.6480 C   0  0  0  0  0  0  0  0  0  0  0  0
   -0.4340   11.4410   -1.4670 C   0  0  2  0  0  0  0  0  0  0  0  0
   -1.7400   12.2380   -1.8010 C   0  0  0  0  0  0  0  0  0  0  0  0
   -1.9728   10.1238    2.4285 H   0  0  0  0  0  0  0  0  0  0  0  0
   -0.3387    9.8945    1.7187 H   0  0  0  0  0  0  0  0  0  0  0  0
   -1.0975   11.5227    1.7187 H   0  0  0  0  0  0  0  0  0  0  0  0
   -2.6276   10.9619    0.0470 H   0  0  0  0  0  0  0  0  0  0  0  0
   -2.1218    8.0583   -0.2334 H   0  0  0  0  0  0  0  0  0  0  0  0
   -2.9244    8.5818    1.3241 H   0  0  0  0  0  0  0  0  0  0  0  0
   -4.8016    9.3921    0.2509 H   0  0  0  0  0  0  0  0  0  0  0  0
   -3.9457    9.5371   -1.3413 H   0  0  0  0  0  0  0  0  0  0  0  0
   -4.0564    7.1001   -0.0112 H   0  0  0  0  0  0  0  0  0  0  0  0
   -7.2477    8.8813   -0.6827 H   0  0  0  0  0  0  0  0  0  0  0  0
   -6.4157    9.2873   -2.2220 H   0  0  0  0  0  0  0  0  0  0  0  0
   -7.7909    8.1317   -2.2220 H   0  0  0  0  0  0  0  0  0  0  0  0
   -6.6874    5.7039   -0.3000 H   0  0  0  0  0  0  0  0  0  0  0  0
   -7.5452    5.9840   -1.8531 H   0  0  0  0  0  0  0  0  0  0  0  0
   -5.8996    5.2639   -1.8531 H   0  0  0  0  0  0  0  0  0  0  0  0
   -0.0063    9.7019   -0.2130 H   0  0  0  0  0  0  0  0  0  0  0  0
   -0.8552    8.2070   -1.9117 H   0  0  0  0  0  0  0  0  0  0  0  0
   -2.3454    9.1540   -2.1099 H   0  0  0  0  0  0  0  0  0  0  0  0
   -0.1246    9.1558   -3.9081 H   0  0  0  0  0  0  0  0  0  0  0  0
   -1.4055   10.3652   -3.9197 H   0  0  0  0  0  0  0  0  0  0  0  0
    1.7599   10.0315   -1.2954 H   0  0  0  0  0  0  0  0  0  0  0  0
    1.5532    9.0958   -2.8148 H   0  0  0  0  0  0  0  0  0  0  0  0
    2.5275   10.6050   -2.8148 H   0  0  0  0  0  0  0  0  0  0  0  0
   -0.3108   12.5261   -3.9025 H   0  0  0  0  0  0  0  0  0  0  0  0
    1.0073   10.7965   -5.2860 H   0  0  0  0  0  0  0  0  0  0  0  0
    1.0782   12.5915   -5.6883 H   0  0  0  0  0  0  0  0  0  0  0  0
    3.3598   11.2786   -5.8092 H   0  0  0  0  0  0  0  0  0  0  0  0
    3.1096   12.4408   -1.9502 H   0  0  0  0  0  0  0  0  0  0  0  0
    3.6769   15.0439   -3.4987 H   0  0  0  0  0  0  0  0  0  0  0  0
    3.4409   14.8698   -1.7027 H   0  0  0  0  0  0  0  0  0  0  0  0
    5.8257   15.1109   -2.3145 H   0  0  0  0  0  0  0  0  0  0  0  0
    5.4531   13.5224   -1.5380 H   0  0  0  0  0  0  0  0  0  0  0  0
    6.9345   13.1471   -3.3892 H   0  0  0  0  0  0  0  0  0  0  0  0
    6.2990   15.1020   -4.5400 H   0  0  0  0  0  0  0  0  0  0  0  0
    5.3375   11.4955   -1.8661 H   0  0  0  0  0  0  0  0  0  0  0  0
    4.7941   10.1783   -2.9599 H   0  0  0  0  0  0  0  0  0  0  0  0
    6.5150   10.6931   -2.9599 H   0  0  0  0  0  0  0  0  0  0  0  0
    6.5363   10.7702   -5.0352 H   0  0  0  0  0  0  0  0  0  0  0  0
    4.9618   11.0301   -5.8598 H   0  0  0  0  0  0  0  0  0  0  0  0
    6.2010   12.3304   -5.8598 H   0  0  0  0  0  0  0  0  0  0  0  0
    0.9669   15.4616   -3.0538 H   0  0  0  0  0  0  0  0  0  0  0  0
    2.0245   14.8595   -4.3750 H   0  0  0  0  0  0  0  0  0  0  0  0
    0.2728   14.4619   -4.3750 H   0  0  0  0  0  0  0  0  0  0  0  0
    1.6783   14.1207   -0.9012 H   0  0  0  0  0  0  0  0  0  0  0  0
   -0.0323   14.1683   -1.6132 H   0  0  0  0  0  0  0  0  0  0  0  0
    1.3807   11.8013   -0.3548 H   0  0  0  0  0  0  0  0  0  0  0  0
   -0.0710   12.6970    0.2427 H   0  0  0  0  0  0  0  0  0  0  0  0
   -2.2346   12.5398   -0.8660 H   0  0  0  0  0  0  0  0  0  0  0  0
   -1.4835   13.1337   -2.3858 H   0  0  0  0  0  0  0  0  0  0  0  0
   -2.4192   11.6003   -2.3858 H   0  0  0  0  0  0  0  0  0  0  0  0
  1  2  1  0
  2  3  1  0
  3  4  1  0
  4  5  1  0
  5  6  1  0
  6  7  1  0
  7  8  1  0
  7  9  1  0
  2 10  1  0
 10 11  1  0
 11 12  1  0
 12 13  1  0
 13 14  1  1
 13 15  1  0
 15 16  1  0
 16 17  1  0
 17 18  2  0
 18 19  1  0
 19 20  1  0
 20 21  1  0
 21 22  1  0
 22 23  1  0
 22 24  1  0
 24 25  1  0
 24 26  1  0
 19 27  1  0
 27 28  1  6
 27 29  1  0
 29 30  1  0
 30 31  1  0
 31 32  1  6
  7  5  1  0
 31 10  1  0
 31 13  1  0
 27 15  1  0
 24 18  1  0
  1 33  1  0
  1 34  1  0
  1 35  1  0
  2 36  1  6
  3 37  1  0
  3 38  1  0
  4 39  1  0
  4 40  1  0
  5 41  1  1
  8 42  1  0
  8 43  1  0
  8 44  1  0
  9 45  1  0
  9 46  1  0
  9 47  1  0
 10 48  1  1
 11 49  1  0
 11 50  1  0
 12 51  1  0
 12 52  1  0
 14 53  1  0
 14 54  1  0
 14 55  1  0
 15 56  1  6
 16 57  1  0
 16 58  1  0
 17 59  1  0
 19 60  1  1
 20 61  1  0
 20 62  1  0
 21 63  1  0
 21 64  1  0
 22 65  1  1
 23 66  1  0
 25 67  1  0
 25 68  1  0
 25 69  1  0
 26 70  1  0
 26 71  1  0
 26 72  1  0
 28 73  1  0
 28 74  1  0
 28 75  1  0
 29 76  1  0
 29 77  1  0
 30 78  1  0
 30 79  1  0
 32 80  1  0
 32 81  1  0
 32 82  1  0
M  END
>  <meeko>  (6) 
{"is_sidechain": [false], "intermolecular_energy": 2.731, "internal_energy": -0.839}

$$$$
EPH_relaxed_0001_pdb2pqr_Repair_209_r2_0001_out
     RDKit          3D

 82 86  0  0  0  0  0  0  0  0999 V2000
   -5.0950    5.9390   -1.8010 C   0  0  0  0  0  0  0  0  0  0  0  0
   -5.4330    7.4330   -1.8180 C   0  0  2  0  0  0  0  0  0  0  0  0
   -5.2240    8.0910   -0.4400 C   0  0  0  0  0  0  0  0  0  0  0  0
   -4.1540    9.1860   -0.4360 C   0  0  0  0  0  0  0  0  0  0  0  0
   -2.8050    8.6440   -0.7990 C   0  0  2  0  0  0  0  0  0  0  0  0
   -1.7670    8.9390    0.1450 O   0  0  0  0  0  0  0  0  0  0  0  0
   -1.6210    9.5210   -1.1610 C   0  0  0  0  0  0  0  0  0  0  0  0
   -1.7310   11.0130   -1.1790 C   0  0  0  0  0  0  0  0  0  0  0  0
   -0.5080    8.9240   -1.9650 C   0  0  0  0  0  0  0  0  0  0  0  0
   -6.8710    7.6350   -2.2800 C   0  0  1  0  0  0  0  0  0  0  0  0
   -7.1690    6.9340   -3.6320 C   0  0  0  0  0  0  0  0  0  0  0  0
   -8.6360    6.4370   -3.5640 C   0  0  0  0  0  0  0  0  0  0  0  0
   -9.2330    7.1500   -2.3280 C   0  0  1  0  0  0  0  0  0  0  0  0
   -9.6070    8.5790   -2.8320 C   0  0  0  0  0  0  0  0  0  0  0  0
  -10.4460    6.4430   -1.6420 C   0  0  2  0  0  0  0  0  0  0  0  0
  -11.7000    6.2960   -2.5220 C   0  0  0  0  0  0  0  0  0  0  0  0
  -12.6720    7.4260   -2.4410 C   0  0  0  0  0  0  0  0  0  0  0  0
  -12.6900    8.3760   -1.4870 C   0  0  0  0  0  0  0  0  0  0  0  0
  -11.7220    8.3150   -0.2980 C   0  0  1  0  0  0  0  0  0  0  0  0
  -12.5010    8.5830    1.0170 C   0  0  0  0  0  0  0  0  0  0  0  0
  -13.2920    9.8870    0.9730 C   0  0  0  0  0  0  0  0  0  0  0  0
  -14.2830    9.8850   -0.1870 C   0  0  2  0  0  0  0  0  0  0  0  0
  -15.2850    8.8940    0.0640 O   0  0  0  0  0  0  0  0  0  0  0  0
  -13.6150    9.6150   -1.5640 C   0  0  0  0  0  0  0  0  0  0  0  0
  -12.7560   10.8370   -1.9740 C   0  0  0  0  0  0  0  0  0  0  0  0
  -14.7400    9.4990   -2.6270 C   0  0  0  0  0  0  0  0  0  0  0  0
  -10.8080    7.0180   -0.2130 C   0  0  1  0  0  0  0  0  0  0  0  0
  -11.5630    5.8840    0.5460 C   0  0  0  0  0  0  0  0  0  0  0  0
   -9.5270    7.3470    0.6420 C   0  0  0  0  0  0  0  0  0  0  0  0
   -8.3190    7.9320   -0.1140 C   0  0  0  0  0  0  0  0  0  0  0  0
   -7.9960    7.1000   -1.3590 C   0  0  2  0  0  0  0  0  0  0  0  0
   -7.5930    5.6630   -0.8820 C   0  0  0  0  0  0  0  0  0  0  0  0
   -5.0166    5.5926   -0.7599 H   0  0  0  0  0  0  0  0  0  0  0  0
   -5.8888    5.3776   -2.3154 H   0  0  0  0  0  0  0  0  0  0  0  0
   -4.1368    5.7740   -2.3154 H   0  0  0  0  0  0  0  0  0  0  0  0
   -4.7443    7.9205   -2.5237 H   0  0  0  0  0  0  0  0  0  0  0  0
   -6.1775    8.5362   -0.1197 H   0  0  0  0  0  0  0  0  0  0  0  0
   -4.8783    7.3017    0.2437 H   0  0  0  0  0  0  0  0  0  0  0  0
   -4.4345    9.9612   -1.1643 H   0  0  0  0  0  0  0  0  0  0  0  0
   -4.0939    9.6030    0.5801 H   0  0  0  0  0  0  0  0  0  0  0  0
   -3.2619    7.7777   -1.2997 H   0  0  0  0  0  0  0  0  0  0  0  0
   -1.7589   11.3911   -0.1464 H   0  0  0  0  0  0  0  0  0  0  0  0
   -0.8618   11.4385   -1.7019 H   0  0  0  0  0  0  0  0  0  0  0  0
   -2.6532   11.3064   -1.7019 H   0  0  0  0  0  0  0  0  0  0  0  0
    0.2554    8.5145   -1.2870 H   0  0  0  0  0  0  0  0  0  0  0  0
   -0.9053    8.1179   -2.5993 H   0  0  0  0  0  0  0  0  0  0  0  0
   -0.0563    9.7009   -2.5993 H   0  0  0  0  0  0  0  0  0  0  0  0
   -6.9011    8.7341   -2.3113 H   0  0  0  0  0  0  0  0  0  0  0  0
   -7.0481    7.6453   -4.4623 H   0  0  0  0  0  0  0  0  0  0  0  0
   -6.4760    6.0973   -3.8044 H   0  0  0  0  0  0  0  0  0  0  0  0
   -9.1835    6.7172   -4.4760 H   0  0  0  0  0  0  0  0  0  0  0  0
   -8.7020    5.3418   -3.4860 H   0  0  0  0  0  0  0  0  0  0  0  0
   -9.7797    9.2387   -1.9689 H   0  0  0  0  0  0  0  0  0  0  0  0
   -8.7836    8.9801   -3.4412 H   0  0  0  0  0  0  0  0  0  0  0  0
  -10.5213    8.5253   -3.4412 H   0  0  0  0  0  0  0  0  0  0  0  0
  -10.0670    5.4217   -1.4893 H   0  0  0  0  0  0  0  0  0  0  0  0
  -11.3723    6.2039   -3.5680 H   0  0  0  0  0  0  0  0  0  0  0  0
  -12.2324    5.4093   -2.1473 H   0  0  0  0  0  0  0  0  0  0  0  0
  -13.4386    7.4878   -3.2274 H   0  0  0  0  0  0  0  0  0  0  0  0
  -10.9843    9.1137   -0.4647 H   0  0  0  0  0  0  0  0  0  0  0  0
  -13.2008    7.7517    1.1880 H   0  0  0  0  0  0  0  0  0  0  0  0
  -11.7649    8.6663    1.8301 H   0  0  0  0  0  0  0  0  0  0  0  0
  -13.8435   10.0055    1.9174 H   0  0  0  0  0  0  0  0  0  0  0  0
  -12.5878   10.7201    0.8316 H   0  0  0  0  0  0  0  0  0  0  0  0
  -14.7243   10.8909   -0.2447 H   0  0  0  0  0  0  0  0  0  0  0  0
  -15.1060    8.5110    0.9390 H   0  0  0  0  0  0  0  0  0  0  0  0
  -12.3948   11.3508   -1.0710 H   0  0  0  0  0  0  0  0  0  0  0  0
  -11.8968   10.4975   -2.5711 H   0  0  0  0  0  0  0  0  0  0  0  0
  -13.3664   11.5305   -2.5711 H   0  0  0  0  0  0  0  0  0  0  0  0
  -15.7123    9.3987   -2.1224 H   0  0  0  0  0  0  0  0  0  0  0  0
  -14.7446   10.4014   -3.2560 H   0  0  0  0  0  0  0  0  0  0  0  0
  -14.5604    8.6146   -3.2560 H   0  0  0  0  0  0  0  0  0  0  0  0
  -11.4608    6.0375    1.6304 H   0  0  0  0  0  0  0  0  0  0  0  0
  -12.6280    5.9050    0.2715 H   0  0  0  0  0  0  0  0  0  0  0  0
  -11.1328    4.9096    0.2715 H   0  0  0  0  0  0  0  0  0  0  0  0
   -9.8199    8.0735    1.4143 H   0  0  0  0  0  0  0  0  0  0  0  0
   -9.1821    6.3768    1.0290 H   0  0  0  0  0  0  0  0  0  0  0  0
   -8.5509    8.9627   -0.4202 H   0  0  0  0  0  0  0  0  0  0  0  0
   -7.4457    7.9163    0.5546 H   0  0  0  0  0  0  0  0  0  0  0  0
   -7.5839    5.6307    0.2175 H   0  0  0  0  0  0  0  0  0  0  0  0
   -8.3208    4.9322   -1.2643 H   0  0  0  0  0  0  0  0  0  0  0  0
   -6.5913    5.4172   -1.2643 H   0  0  0  0  0  0  0  0  0  0  0  0
  1  2  1  0
  2  3  1  0
  3  4  1  0
  4  5  1  0
  5  6  1  0
  6  7  1  0
  7  8  1  0
  7  9  1  0
  2 10  1  0
 10 11  1  0
 11 12  1  0
 12 13  1  0
 13 14  1  6
 13 15  1  0
 15 16  1  0
 16 17  1  0
 17 18  2  0
 18 19  1  0
 19 20  1  0
 20 21  1  0
 21 22  1  0
 22 23  1  0
 22 24  1  0
 24 25  1  0
 24 26  1  0
 19 27  1  0
 27 28  1  1
 27 29  1  0
 29 30  1  0
 30 31  1  0
 31 32  1  1
  7  5  1  0
 31 10  1  0
 31 13  1  0
 27 15  1  0
 24 18  1  0
  1 33  1  0
  1 34  1  0
  1 35  1  0
  2 36  1  6
  3 37  1  0
  3 38  1  0
  4 39  1  0
  4 40  1  0
  5 41  1  6
  8 42  1  0
  8 43  1  0
  8 44  1  0
  9 45  1  0
  9 46  1  0
  9 47  1  0
 10 48  1  6
 11 49  1  0
 11 50  1  0
 12 51  1  0
 12 52  1  0
 14 53  1  0
 14 54  1  0
 14 55  1  0
 15 56  1  1
 16 57  1  0
 16 58  1  0
 17 59  1  0
 19 60  1  6
 20 61  1  0
 20 62  1  0
 21 63  1  0
 21 64  1  0
 22 65  1  6
 23 66  1  0
 25 67  1  0
 25 68  1  0
 25 69  1  0
 26 70  1  0
 26 71  1  0
 26 72  1  0
 28 73  1  0
 28 74  1  0
 28 75  1  0
 29 76  1  0
 29 77  1  0
 30 78  1  0
 30 79  1  0
 32 80  1  0
 32 81  1  0
 32 82  1  0
M  END
>  <meeko>  (7) 
{"is_sidechain": [false], "intermolecular_energy": 2.731, "internal_energy": -0.839}

$$$$
EPH_relaxed_0001_pdb2pqr_Repair_209_r2_0001_out
     RDKit          3D

 82 86  0  0  0  0  0  0  0  0999 V2000
    4.5960   17.2370   -2.2320 C   0  0  0  0  0  0  0  0  0  0  0  0
    3.1450   16.8760   -2.5600 C   0  0  2  0  0  0  0  0  0  0  0  0
    2.1550   17.4550   -1.5300 C   0  0  0  0  0  0  0  0  0  0  0  0
    0.6850   17.2870   -1.9270 C   0  0  0  0  0  0  0  0  0  0  0  0
    0.1460   18.5180   -2.5910 C   0  0  2  0  0  0  0  0  0  0  0  0
    0.3380   19.7310   -1.8510 O   0  0  0  0  0  0  0  0  0  0  0  0
   -1.0240   19.3170   -2.0490 C   0  0  0  0  0  0  0  0  0  0  0  0
   -1.7260   18.9150   -0.7900 C   0  0  0  0  0  0  0  0  0  0  0  0
   -1.7890   20.1940   -2.9900 C   0  0  0  0  0  0  0  0  0  0  0  0
    2.9910   15.3620   -2.6360 C   0  0  1  0  0  0  0  0  0  0  0  0
    4.3450   14.6330   -2.8520 C   0  0  0  0  0  0  0  0  0  0  0  0
    4.2620   13.2970   -2.0710 C   0  0  0  0  0  0  0  0  0  0  0  0
    2.7650   13.1460   -1.7130 C   0  0  1  0  0  0  0  0  0  0  0  0
    2.0990   12.5780   -3.0050 C   0  0  0  0  0  0  0  0  0  0  0  0
    2.4400   12.2670   -0.4610 C   0  0  2  0  0  0  0  0  0  0  0  0
    2.8590   10.7910   -0.5730 C   0  0  0  0  0  0  0  0  0  0  0  0
    1.8240    9.8750   -1.1360 C   0  0  0  0  0  0  0  0  0  0  0  0
    0.5160   10.1610   -1.2710 C   0  0  0  0  0  0  0  0  0  0  0  0
   -0.0590   11.4830   -0.7450 C   0  0  1  0  0  0  0  0  0  0  0  0
   -1.3660   11.2020    0.0430 C   0  0  0  0  0  0  0  0  0  0  0  0
   -2.3810   10.4070   -0.7730 C   0  0  0  0  0  0  0  0  0  0  0  0
   -1.7920    9.0750   -1.2290 C   0  0  2  0  0  0  0  0  0  0  0  0
   -1.5680    8.2520   -0.0790 O   0  0  0  0  0  0  0  0  0  0  0  0
   -0.4660    9.2310   -2.0250 C   0  0  0  0  0  0  0  0  0  0  0  0
   -0.7620    9.8570   -3.4100 C   0  0  0  0  0  0  0  0  0  0  0  0
    0.0950    7.8110   -2.3020 C   0  0  0  0  0  0  0  0  0  0  0  0
    0.9520   12.4070    0.0600 C   0  0  1  0  0  0  0  0  0  0  0  0
    0.9670   11.9960    1.5640 C   0  0  0  0  0  0  0  0  0  0  0  0
    0.4390   13.8950    0.0120 C   0  0  0  0  0  0  0  0  0  0  0  0
    0.8930   14.7480   -1.1890 C   0  0  0  0  0  0  0  0  0  0  0  0
    2.4070   14.6430   -1.3950 C   0  0  2  0  0  0  0  0  0  0  0  0
    3.1050   15.2280   -0.1200 C   0  0  0  0  0  0  0  0  0  0  0  0
    4.7279   17.2698   -1.1404 H   0  0  0  0  0  0  0  0  0  0  0  0
    5.2682   16.4787   -2.6599 H   0  0  0  0  0  0  0  0  0  0  0  0
    4.8345   18.2219   -2.6599 H   0  0  0  0  0  0  0  0  0  0  0  0
    2.9053   17.3239   -3.5357 H   0  0  0  0  0  0  0  0  0  0  0  0
    2.3157   16.9446   -0.5689 H   0  0  0  0  0  0  0  0  0  0  0  0
    2.3500   18.5358   -1.4690 H   0  0  0  0  0  0  0  0  0  0  0  0
    0.5983   16.4396   -2.6229 H   0  0  0  0  0  0  0  0  0  0  0  0
    0.1011   17.1072   -1.0123 H   0  0  0  0  0  0  0  0  0  0  0  0
    0.3562   18.1008   -3.5869 H   0  0  0  0  0  0  0  0  0  0  0  0
   -1.1409   19.2501    0.0791 H   0  0  0  0  0  0  0  0  0  0  0  0
   -2.7229   19.3791   -0.7618 H   0  0  0  0  0  0  0  0  0  0  0  0
   -1.8303   17.8203   -0.7618 H   0  0  0  0  0  0  0  0  0  0  0  0
   -2.4051   20.9003   -2.4141 H   0  0  0  0  0  0  0  0  0  0  0  0
   -1.0853   20.7536   -3.6238 H   0  0  0  0  0  0  0  0  0  0  0  0
   -2.4389   19.5728   -3.6238 H   0  0  0  0  0  0  0  0  0  0  0  0
    2.2866   15.2912   -3.4779 H   0  0  0  0  0  0  0  0  0  0  0  0
    4.5032   14.4368   -3.9227 H   0  0  0  0  0  0  0  0  0  0  0  0
    5.1857   15.2470   -2.4967 H   0  0  0  0  0  0  0  0  0  0  0  0
    4.5974   12.4586   -2.6992 H   0  0  0  0  0  0  0  0  0  0  0  0
    4.9062   13.2946   -1.1794 H   0  0  0  0  0  0  0  0  0  0  0  0
    1.2892   11.8874   -2.7269 H   0  0  0  0  0  0  0  0  0  0  0  0
    1.6863   13.4065   -3.5994 H   0  0  0  0  0  0  0  0  0  0  0  0
    2.8520   12.0398   -3.5994 H   0  0  0  0  0  0  0  0  0  0  0  0
    3.0915   12.7046    0.3098 H   0  0  0  0  0  0  0  0  0  0  0  0
    3.7474   10.7381   -1.2194 H   0  0  0  0  0  0  0  0  0  0  0  0
    3.0415   10.4478    0.4560 H   0  0  0  0  0  0  0  0  0  0  0  0
    2.1588    8.8815   -1.4690 H   0  0  0  0  0  0  0  0  0  0  0  0
   -0.2822   12.0924   -1.6331 H   0  0  0  0  0  0  0  0  0  0  0  0
   -1.1158   10.6300    0.9486 H   0  0  0  0  0  0  0  0  0  0  0  0
   -1.8222   12.1719    0.2903 H   0  0  0  0  0  0  0  0  0  0  0  0
   -3.2693   10.2144   -0.1534 H   0  0  0  0  0  0  0  0  0  0  0  0
   -2.6523   10.9937   -1.6631 H   0  0  0  0  0  0  0  0  0  0  0  0
   -2.5168    8.6120   -1.9147 H   0  0  0  0  0  0  0  0  0  0  0  0
   -0.9590    8.7290    0.5100 H   0  0  0  0  0  0  0  0  0  0  0  0
   -1.2286   10.8438   -3.2742 H   0  0  0  0  0  0  0  0  0  0  0  0
    0.1781    9.9699   -3.9699 H   0  0  0  0  0  0  0  0  0  0  0  0
   -1.4458    9.2020   -3.9699 H   0  0  0  0  0  0  0  0  0  0  0  0
    0.2956    7.3033   -1.3470 H   0  0  0  0  0  0  0  0  0  0  0  0
   -0.6418    7.2315   -2.8777 H   0  0  0  0  0  0  0  0  0  0  0  0
    1.0289    7.8916   -2.8777 H   0  0  0  0  0  0  0  0  0  0  0  0
    0.9340   12.8990    2.1912 H   0  0  0  0  0  0  0  0  0  0  0  0
    0.0912   11.3667    1.7809 H   0  0  0  0  0  0  0  0  0  0  0  0
    1.8863   11.4323    1.7809 H   0  0  0  0  0  0  0  0  0  0  0  0
   -0.6606   13.8679    0.0042 H   0  0  0  0  0  0  0  0  0  0  0  0
    0.8818   14.3808    0.8940 H   0  0  0  0  0  0  0  0  0  0  0  0
    0.3811   14.3938   -2.0959 H   0  0  0  0  0  0  0  0  0  0  0  0
    0.6384   15.7992   -0.9887 H   0  0  0  0  0  0  0  0  0  0  0  0
    2.6216   14.8228    0.7812 H   0  0  0  0  0  0  0  0  0  0  0  0
    4.1687   14.9476   -0.1230 H   0  0  0  0  0  0  0  0  0  0  0  0
    3.0148   16.3243   -0.1230 H   0  0  0  0  0  0  0  0  0  0  0  0
  1  2  1  0
  2  3  1  0
  3  4  1  0
  4  5  1  0
  5  6  1  0
  6  7  1  0
  7  8  1  0
  7  9  1  0
  2 10  1  0
 10 11  1  0
 11 12  1  0
 12 13  1  0
 13 14  1  6
 13 15  1  0
 15 16  1  0
 16 17  1  0
 17 18  2  0
 18 19  1  0
 19 20  1  0
 20 21  1  0
 21 22  1  0
 22 23  1  0
 22 24  1  0
 24 25  1  0
 24 26  1  0
 19 27  1  0
 27 28  1  1
 27 29  1  0
 29 30  1  0
 30 31  1  0
 31 32  1  1
  7  5  1  0
 31 10  1  0
 31 13  1  0
 27 15  1  0
 24 18  1  0
  1 33  1  0
  1 34  1  0
  1 35  1  0
  2 36  1  6
  3 37  1  0
  3 38  1  0
  4 39  1  0
  4 40  1  0
  5 41  1  6
  8 42  1  0
  8 43  1  0
  8 44  1  0
  9 45  1  0
  9 46  1  0
  9 47  1  0
 10 48  1  6
 11 49  1  0
 11 50  1  0
 12 51  1  0
 12 52  1  0
 14 53  1  0
 14 54  1  0
 14 55  1  0
 15 56  1  1
 16 57  1  0
 16 58  1  0
 17 59  1  0
 19 60  1  6
 20 61  1  0
 20 62  1  0
 21 63  1  0
 21 64  1  0
 22 65  1  6
 23 66  1  0
 25 67  1  0
 25 68  1  0
 25 69  1  0
 26 70  1  0
 26 71  1  0
 26 72  1  0
 28 73  1  0
 28 74  1  0
 28 75  1  0
 29 76  1  0
 29 77  1  0
 30 78  1  0
 30 79  1  0
 32 80  1  0
 32 81  1  0
 32 82  1  0
M  END
>  <meeko>  (8) 
{"is_sidechain": [false], "intermolecular_energy": 2.731, "internal_energy": -0.839}

$$$$
EPH_relaxed_0001_pdb2pqr_Repair_209_r2_0001_out
     RDKit          3D

 82 86  0  0  0  0  0  0  0  0999 V2000
   -0.9870    8.1950   -1.7050 C   0  0  0  0  0  0  0  0  0  0  0  0
   -0.5930    8.9430   -0.4280 C   0  0  2  0  0  0  0  0  0  0  0  0
   -1.7790    9.7180    0.1800 C   0  0  0  0  0  0  0  0  0  0  0  0
   -1.4190   10.4990    1.4470 C   0  0  0  0  0  0  0  0  0  0  0  0
   -0.0600   11.1240    1.3450 C   0  0  2  0  0  0  0  0  0  0  0  0
    0.8090   10.8490    2.4510 O   0  0  0  0  0  0  0  0  0  0  0  0
    0.4270   12.2220    2.2720 C   0  0  0  0  0  0  0  0  0  0  0  0
   -0.4400   12.7600    3.3670 C   0  0  0  0  0  0  0  0  0  0  0  0
    1.5450   13.1040    1.8110 C   0  0  0  0  0  0  0  0  0  0  0  0
    0.5590    9.8970   -0.7190 C   0  0  1  0  0  0  0  0  0  0  0  0
    1.8460    9.1580   -1.1730 C   0  0  0  0  0  0  0  0  0  0  0  0
    2.5430   10.0730   -2.2140 C   0  0  0  0  0  0  0  0  0  0  0  0
    1.8230   11.4350   -2.0800 C   0  0  1  0  0  0  0  0  0  0  0  0
    2.4890   12.1200   -0.8450 C   0  0  0  0  0  0  0  0  0  0  0  0
    1.8550   12.3600   -3.3400 C   0  0  2  0  0  0  0  0  0  0  0  0
    3.2570   12.8170   -3.7790 C   0  0  0  0  0  0  0  0  0  0  0  0
    3.7290   14.0980   -3.1740 C   0  0  0  0  0  0  0  0  0  0  0  0
    2.9530   14.9950   -2.5380 C   0  0  0  0  0  0  0  0  0  0  0  0
    1.4320   14.8080   -2.4630 C   0  0  1  0  0  0  0  0  0  0  0  0
    0.7280   16.1450   -2.8150 C   0  0  0  0  0  0  0  0  0  0  0  0
    1.2160   17.3080   -1.9560 C   0  0  0  0  0  0  0  0  0  0  0  0
    2.7240   17.4980   -2.1030 C   0  0  2  0  0  0  0  0  0  0  0  0
    3.0070   17.9270   -3.4380 O   0  0  0  0  0  0  0  0  0  0  0  0
    3.5380   16.2140   -1.7830 C   0  0  0  0  0  0  0  0  0  0  0  0
    3.4720   15.9210   -0.2630 C   0  0  0  0  0  0  0  0  0  0  0  0
    5.0290   16.5010   -2.1050 C   0  0  0  0  0  0  0  0  0  0  0  0
    0.8440   13.5760   -3.2770 C   0  0  1  0  0  0  0  0  0  0  0  0
    0.5620   13.9980   -4.7510 C   0  0  0  0  0  0  0  0  0  0  0  0
   -0.5450   13.1680   -2.6580 C   0  0  0  0  0  0  0  0  0  0  0  0
   -0.5180   12.1590   -1.4940 C   0  0  0  0  0  0  0  0  0  0  0  0
    0.3490   10.9450   -1.8410 C   0  0  2  0  0  0  0  0  0  0  0  0
   -0.3080   10.2220   -3.0660 C   0  0  0  0  0  0  0  0  0  0  0  0
   -1.4843    7.2508   -1.4382 H   0  0  0  0  0  0  0  0  0  0  0  0
   -1.6745    8.8170   -2.2970 H   0  0  0  0  0  0  0  0  0  0  0  0
   -0.0852    7.9799   -2.2970 H   0  0  0  0  0  0  0  0  0  0  0  0
   -0.2759    8.1924    0.3110 H   0  0  0  0  0  0  0  0  0  0  0  0
   -2.1515   10.4290   -0.5722 H   0  0  0  0  0  0  0  0  0  0  0  0
   -2.5370    8.9737    0.4655 H   0  0  0  0  0  0  0  0  0  0  0  0
   -2.1655   11.2920    1.6013 H   0  0  0  0  0  0  0  0  0  0  0  0
   -1.4108    9.7958    2.2929 H   0  0  0  0  0  0  0  0  0  0  0  0
   -0.0758   11.0371    0.2485 H   0  0  0  0  0  0  0  0  0  0  0  0
   -0.0077   12.4917    4.3423 H   0  0  0  0  0  0  0  0  0  0  0  0
   -0.5012   13.8550    3.2817 H   0  0  0  0  0  0  0  0  0  0  0  0
   -1.4483   12.3287    3.2817 H   0  0  0  0  0  0  0  0  0  0  0  0
    2.0696   13.5179    2.6847 H   0  0  0  0  0  0  0  0  0  0  0  0
    2.2498   12.5160    1.2047 H   0  0  0  0  0  0  0  0  0  0  0  0
    1.1372   13.9263    1.2047 H   0  0  0  0  0  0  0  0  0  0  0  0
    0.6326   10.4002    0.2564 H   0  0  0  0  0  0  0  0  0  0  0  0
    2.5097    8.9893   -0.3122 H   0  0  0  0  0  0  0  0  0  0  0  0
    1.6057    8.1765   -1.6076 H   0  0  0  0  0  0  0  0  0  0  0  0
    3.6140   10.1758   -1.9853 H   0  0  0  0  0  0  0  0  0  0  0  0
    2.4809    9.6668   -3.2344 H   0  0  0  0  0  0  0  0  0  0  0  0
    2.0736   11.6927    0.0796 H   0  0  0  0  0  0  0  0  0  0  0  0
    3.5753   11.9488   -0.8723 H   0  0  0  0  0  0  0  0  0  0  0  0
    2.2874   13.2010   -0.8723 H   0  0  0  0  0  0  0  0  0  0  0  0
    1.4978   11.6884   -4.1345 H   0  0  0  0  0  0  0  0  0  0  0  0
    3.9729   12.0279   -3.5054 H   0  0  0  0  0  0  0  0  0  0  0  0
    3.1928   12.9976   -4.8622 H   0  0  0  0  0  0  0  0  0  0  0  0
    4.8016   14.3279   -3.2550 H   0  0  0  0  0  0  0  0  0  0  0  0
    1.2104   14.5324   -1.4214 H   0  0  0  0  0  0  0  0  0  0  0  0
    0.9255   16.3799   -3.8713 H   0  0  0  0  0  0  0  0  0  0  0  0
   -0.3474   16.0165   -2.6226 H   0  0  0  0  0  0  0  0  0  0  0  0
    0.7043   18.2290   -2.2723 H   0  0  0  0  0  0  0  0  0  0  0  0
    0.9905   17.0860   -0.9025 H   0  0  0  0  0  0  0  0  0  0  0  0
    3.0334   18.2560   -1.3683 H   0  0  0  0  0  0  0  0  0  0  0  0
    3.8730   17.5630   -3.6870 H   0  0  0  0  0  0  0  0  0  0  0  0
    3.6800   16.8442    0.2977 H   0  0  0  0  0  0  0  0  0  0  0  0
    2.4684   15.5528   -0.0038 H   0  0  0  0  0  0  0  0  0  0  0  0
    4.2208   15.1580   -0.0038 H   0  0  0  0  0  0  0  0  0  0  0  0
    5.5925   16.6095   -1.1665 H   0  0  0  0  0  0  0  0  0  0  0  0
    5.4454   15.6665   -2.6883 H   0  0  0  0  0  0  0  0  0  0  0  0
    5.1058   17.4304   -2.6883 H   0  0  0  0  0  0  0  0  0  0  0  0
   -0.0491   14.9126   -4.7600 H   0  0  0  0  0  0  0  0  0  0  0  0
    1.5148   14.1886   -5.2665 H   0  0  0  0  0  0  0  0  0  0  0  0
    0.0213   13.1906   -5.2665 H   0  0  0  0  0  0  0  0  0  0  0  0
   -1.0284   14.0857   -2.2916 H   0  0  0  0  0  0  0  0  0  0  0  0
   -1.0824   12.6561   -3.4699 H   0  0  0  0  0  0  0  0  0  0  0  0
   -0.1067   12.6513   -0.6004 H   0  0  0  0  0  0  0  0  0  0  0  0
   -1.5452   11.8139   -1.3050 H   0  0  0  0  0  0  0  0  0  0  0  0
   -1.0070    9.4527   -2.7060 H   0  0  0  0  0  0  0  0  0  0  0  0
   -0.8538   10.9569   -3.6760 H   0  0  0  0  0  0  0  0  0  0  0  0
    0.4756    9.7488   -3.6760 H   0  0  0  0  0  0  0  0  0  0  0  0
  1  2  1  0
  2  3  1  0
  3  4  1  0
  4  5  1  0
  5  6  1  0
  6  7  1  0
  7  8  1  0
  7  9  1  0
  2 10  1  0
 10 11  1  0
 11 12  1  0
 12 13  1  0
 13 14  1  1
 13 15  1  0
 15 16  1  0
 16 17  1  0
 17 18  2  0
 18 19  1  0
 19 20  1  0
 20 21  1  0
 21 22  1  0
 22 23  1  0
 22 24  1  0
 24 25  1  0
 24 26  1  0
 19 27  1  0
 27 28  1  6
 27 29  1  0
 29 30  1  0
 30 31  1  0
 31 32  1  6
  7  5  1  0
 31 10  1  0
 31 13  1  0
 27 15  1  0
 24 18  1  0
  1 33  1  0
  1 34  1  0
  1 35  1  0
  2 36  1  1
  3 37  1  0
  3 38  1  0
  4 39  1  0
  4 40  1  0
  5 41  1  6
  8 42  1  0
  8 43  1  0
  8 44  1  0
  9 45  1  0
  9 46  1  0
  9 47  1  0
 10 48  1  1
 11 49  1  0
 11 50  1  0
 12 51  1  0
 12 52  1  0
 14 53  1  0
 14 54  1  0
 14 55  1  0
 15 56  1  6
 16 57  1  0
 16 58  1  0
 17 59  1  0
 19 60  1  1
 20 61  1  0
 20 62  1  0
 21 63  1  0
 21 64  1  0
 22 65  1  1
 23 66  1  0
 25 67  1  0
 25 68  1  0
 25 69  1  0
 26 70  1  0
 26 71  1  0
 26 72  1  0
 28 73  1  0
 28 74  1  0
 28 75  1  0
 29 76  1  0
 29 77  1  0
 30 78  1  0
 30 79  1  0
 32 80  1  0
 32 81  1  0
 32 82  1  0
M  END
>  <meeko>  (9) 
{"is_sidechain": [false], "intermolecular_energy": 2.731, "internal_energy": -0.839}

$$$$
EPH_relaxed_0001_pdb2pqr_Repair_209_r2_0001_out
     RDKit          3D

 82 86  0  0  0  0  0  0  0  0999 V2000
    0.7120   17.7660   -2.2440 C   0  0  0  0  0  0  0  0  0  0  0  0
    2.0390   17.1100   -1.8510 C   0  0  2  0  0  0  0  0  0  0  0  0
    3.2450   17.7850   -2.5360 C   0  0  0  0  0  0  0  0  0  0  0  0
    4.5940   17.4010   -1.9230 C   0  0  0  0  0  0  0  0  0  0  0  0
    5.7400   17.8870   -2.7580 C   0  0  2  0  0  0  0  0  0  0  0  0
    5.5010   17.8710   -4.1710 O   0  0  0  0  0  0  0  0  0  0  0  0
    6.5330   16.9930   -3.6930 C   0  0  0  0  0  0  0  0  0  0  0  0
    6.2120   15.5390   -3.8410 C   0  0  0  0  0  0  0  0  0  0  0  0
    7.9140   17.4150   -4.0870 C   0  0  0  0  0  0  0  0  0  0  0  0
    2.0070   15.6260   -2.1960 C   0  0  1  0  0  0  0  0  0  0  0  0
    3.2970   15.1520   -2.9170 C   0  0  0  0  0  0  0  0  0  0  0  0
    3.5700   13.7030   -2.4390 C   0  0  0  0  0  0  0  0  0  0  0  0
    2.2660   13.2750   -1.7270 C   0  0  1  0  0  0  0  0  0  0  0  0
    1.3020   12.8470   -2.8780 C   0  0  0  0  0  0  0  0  0  0  0  0
    2.4050   12.1550   -0.6450 C   0  0  2  0  0  0  0  0  0  0  0  0
    2.9050   10.7980   -1.1710 C   0  0  0  0  0  0  0  0  0  0  0  0
    1.8370    9.8510   -1.6090 C   0  0  0  0  0  0  0  0  0  0  0  0
    0.5270    9.9630   -1.3210 C   0  0  0  0  0  0  0  0  0  0  0  0
    0.0160   11.0740   -0.3960 C   0  0  1  0  0  0  0  0  0  0  0  0
   -0.9690   10.4730    0.6410 C   0  0  0  0  0  0  0  0  0  0  0  0
   -2.1040    9.6910   -0.0140 C   0  0  0  0  0  0  0  0  0  0  0  0
   -1.5570    8.5590   -0.8790 C   0  0  2  0  0  0  0  0  0  0  0  0
   -0.9310    7.5920   -0.0310 O   0  0  0  0  0  0  0  0  0  0  0  0
   -0.5460    9.0430   -1.9560 C   0  0  0  0  0  0  0  0  0  0  0  0
   -1.2930    9.8490   -3.0470 C   0  0  0  0  0  0  0  0  0  0  0  0
    0.0350    7.7900   -2.6640 C   0  0  0  0  0  0  0  0  0  0  0  0
    1.1320   11.9830    0.2780 C   0  0  1  0  0  0  0  0  0  0  0  0
    1.6270   11.3240    1.6020 C   0  0  0  0  0  0  0  0  0  0  0  0
    0.4940   13.3650    0.6810 C   0  0  0  0  0  0  0  0  0  0  0  0
    0.4940   14.4700   -0.3920 C   0  0  0  0  0  0  0  0  0  0  0  0
    1.8830   14.6250   -1.0190 C   0  0  2  0  0  0  0  0  0  0  0  0
    2.8700   15.0770    0.1110 C   0  0  0  0  0  0  0  0  0  0  0  0
    0.1558   18.0410   -1.3357 H   0  0  0  0  0  0  0  0  0  0  0  0
    0.9116   18.6692   -2.8393 H   0  0  0  0  0  0  0  0  0  0  0  0
    0.1156   17.0589   -2.8393 H   0  0  0  0  0  0  0  0  0  0  0  0
    2.1626   17.2363   -0.7653 H   0  0  0  0  0  0  0  0  0  0  0  0
    3.2499   17.4938   -3.5967 H   0  0  0  0  0  0  0  0  0  0  0  0
    3.1267   18.8701   -2.3997 H   0  0  0  0  0  0  0  0  0  0  0  0
    4.6696   17.8462   -0.9200 H   0  0  0  0  0  0  0  0  0  0  0  0
    4.6478   16.3035   -1.8718 H   0  0  0  0  0  0  0  0  0  0  0  0
    6.0492   18.5865   -1.9674 H   0  0  0  0  0  0  0  0  0  0  0  0
    6.1112   15.0826   -2.8453 H   0  0  0  0  0  0  0  0  0  0  0  0
    5.2674   15.4264   -4.3933 H   0  0  0  0  0  0  0  0  0  0  0  0
    7.0214   15.0392   -4.3933 H   0  0  0  0  0  0  0  0  0  0  0  0
    8.5134   17.5982   -3.1830 H   0  0  0  0  0  0  0  0  0  0  0  0
    8.3842   16.6196   -4.6838 H   0  0  0  0  0  0  0  0  0  0  0  0
    7.8593   18.3374   -4.6838 H   0  0  0  0  0  0  0  0  0  0  0  0
    1.0955   15.5993   -2.8112 H   0  0  0  0  0  0  0  0  0  0  0  0
    3.1500   15.1699   -4.0070 H   0  0  0  0  0  0  0  0  0  0  0  0
    4.1455   15.8116   -2.6825 H   0  0  0  0  0  0  0  0  0  0  0  0
    3.7791   13.0446   -3.2950 H   0  0  0  0  0  0  0  0  0  0  0  0
    4.4465   13.6402   -1.7773 H   0  0  0  0  0  0  0  0  0  0  0  0
    0.3768   12.4362   -2.4477 H   0  0  0  0  0  0  0  0  0  0  0  0
    1.0605   13.7225   -3.4987 H   0  0  0  0  0  0  0  0  0  0  0  0
    1.7895   12.0807   -3.4987 H   0  0  0  0  0  0  0  0  0  0  0  0
    3.2117   12.5439   -0.0063 H   0  0  0  0  0  0  0  0  0  0  0  0
    3.5638   10.9887   -2.0310 H   0  0  0  0  0  0  0  0  0  0  0  0
    3.4139   10.3126   -0.3252 H   0  0  0  0  0  0  0  0  0  0  0  0
    2.1469    8.9892   -2.2184 H   0  0  0  0  0  0  0  0  0  0  0  0
   -0.5138   11.7884   -1.0432 H   0  0  0  0  0  0  0  0  0  0  0  0
   -0.4118    9.7959    1.3052 H   0  0  0  0  0  0  0  0  0  0  0  0
   -1.4177   11.3086    1.1982 H   0  0  0  0  0  0  0  0  0  0  0  0
   -2.7480    9.2662    0.7701 H   0  0  0  0  0  0  0  0  0  0  0  0
   -2.6791   10.3761   -0.6542 H   0  0  0  0  0  0  0  0  0  0  0  0
   -2.4065    8.1199   -1.4226 H   0  0  0  0  0  0  0  0  0  0  0  0
   -1.3700    6.7380   -0.1830 H   0  0  0  0  0  0  0  0  0  0  0  0
   -1.9666   10.5758   -2.5693 H   0  0  0  0  0  0  0  0  0  0  0  0
   -0.5628   10.3824   -3.6733 H   0  0  0  0  0  0  0  0  0  0  0  0
   -1.8803    9.1614   -3.6733 H   0  0  0  0  0  0  0  0  0  0  0  0
    0.3713    7.0648   -1.9084 H   0  0  0  0  0  0  0  0  0  0  0  0
   -0.7421    7.3308   -3.2927 H   0  0  0  0  0  0  0  0  0  0  0  0
    0.8876    8.0864   -3.2927 H   0  0  0  0  0  0  0  0  0  0  0  0
    1.2146   11.8730    2.4614 H   0  0  0  0  0  0  0  0  0  0  0  0
    1.2896   10.2777    1.6392 H   0  0  0  0  0  0  0  0  0  0  0  0
    2.7259   11.3565    1.6392 H   0  0  0  0  0  0  0  0  0  0  0  0
   -0.5519   13.1781    0.9660 H   0  0  0  0  0  0  0  0  0  0  0  0
    1.1310   13.7505    1.4907 H   0  0  0  0  0  0  0  0  0  0  0  0
   -0.2287   14.2078   -1.1787 H   0  0  0  0  0  0  0  0  0  0  0  0
    0.2159   15.4217    0.0844 H   0  0  0  0  0  0  0  0  0  0  0  0
    2.4210   14.8714    1.0939 H   0  0  0  0  0  0  0  0  0  0  0  0
    3.8149   14.5219    0.0162 H   0  0  0  0  0  0  0  0  0  0  0  0
    3.0670   16.1551    0.0162 H   0  0  0  0  0  0  0  0  0  0  0  0
  1  2  1  0
  2  3  1  0
  3  4  1  0
  4  5  1  0
  5  6  1  0
  6  7  1  0
  7  8  1  0
  7  9  1  0
  2 10  1  0
 10 11  1  0
 11 12  1  0
 12 13  1  0
 13 14  1  6
 13 15  1  0
 15 16  1  0
 16 17  1  0
 17 18  2  0
 18 19  1  0
 19 20  1  0
 20 21  1  0
 21 22  1  0
 22 23  1  0
 22 24  1  0
 24 25  1  0
 24 26  1  0
 19 27  1  0
 27 28  1  1
 27 29  1  0
 29 30  1  0
 30 31  1  0
 31 32  1  1
  7  5  1  0
 31 10  1  0
 31 13  1  0
 27 15  1  0
 24 18  1  0
  1 33  1  0
  1 34  1  0
  1 35  1  0
  2 36  1  1
  3 37  1  0
  3 38  1  0
  4 39  1  0
  4 40  1  0
  5 41  1  1
  8 42  1  0
  8 43  1  0
  8 44  1  0
  9 45  1  0
  9 46  1  0
  9 47  1  0
 10 48  1  6
 11 49  1  0
 11 50  1  0
 12 51  1  0
 12 52  1  0
 14 53  1  0
 14 54  1  0
 14 55  1  0
 15 56  1  1
 16 57  1  0
 16 58  1  0
 17 59  1  0
 19 60  1  6
 20 61  1  0
 20 62  1  0
 21 63  1  0
 21 64  1  0
 22 65  1  6
 23 66  1  0
 25 67  1  0
 25 68  1  0
 25 69  1  0
 26 70  1  0
 26 71  1  0
 26 72  1  0
 28 73  1  0
 28 74  1  0
 28 75  1  0
 29 76  1  0
 29 77  1  0
 30 78  1  0
 30 79  1  0
 32 80  1  0
 32 81  1  0
 32 82  1  0
M  END
>  <meeko>  (10) 
{"is_sidechain": [false], "intermolecular_energy": 2.731, "internal_energy": -0.839}

$$$$
EPH_relaxed_0001_pdb2pqr_Repair_209_r2_0001_out
     RDKit          3D

 82 86  0  0  0  0  0  0  0  0999 V2000
   -1.1930    8.1940   -1.1720 C   0  0  0  0  0  0  0  0  0  0  0  0
   -1.6850    9.1080   -0.0460 C   0  0  2  0  0  0  0  0  0  0  0  0
   -3.1500    9.5420   -0.2480 C   0  0  0  0  0  0  0  0  0  0  0  0
   -4.1490    8.3830   -0.1930 C   0  0  0  0  0  0  0  0  0  0  0  0
   -4.7930    8.1420   -1.5250 C   0  0  2  0  0  0  0  0  0  0  0  0
   -6.1510    8.5920   -1.6230 O   0  0  0  0  0  0  0  0  0  0  0  0
   -5.9430    7.1750   -1.7350 C   0  0  0  0  0  0  0  0  0  0  0  0
   -6.5150    6.3840   -0.6000 C   0  0  0  0  0  0  0  0  0  0  0  0
   -6.1840    6.6370   -3.1110 C   0  0  0  0  0  0  0  0  0  0  0  0
   -0.7870   10.3360    0.0560 C   0  0  1  0  0  0  0  0  0  0  0  0
    0.4270   10.1120    0.9960 C   0  0  0  0  0  0  0  0  0  0  0  0
    1.6130   10.9070    0.3910 C   0  0  0  0  0  0  0  0  0  0  0  0
    0.9670   11.8190   -0.6780 C   0  0  1  0  0  0  0  0  0  0  0  0
    0.3980   13.0330    0.1220 C   0  0  0  0  0  0  0  0  0  0  0  0
    1.8980   12.2820   -1.8450 C   0  0  2  0  0  0  0  0  0  0  0  0
    3.1000   13.1440   -1.4190 C   0  0  0  0  0  0  0  0  0  0  0  0
    2.8550   14.6170   -1.4050 C   0  0  0  0  0  0  0  0  0  0  0  0
    1.8160   15.2430   -1.9890 C   0  0  0  0  0  0  0  0  0  0  0  0
    0.8020   14.4630   -2.8360 C   0  0  1  0  0  0  0  0  0  0  0  0
    0.5420   15.2250   -4.1620 C   0  0  0  0  0  0  0  0  0  0  0  0
    0.1190   16.6730   -3.9320 C   0  0  0  0  0  0  0  0  0  0  0  0
    1.1790   17.4300   -3.1360 C   0  0  2  0  0  0  0  0  0  0  0  0
    2.3590   17.5490   -3.9360 O   0  0  0  0  0  0  0  0  0  0  0  0
    1.5310   16.7510   -1.7830 C   0  0  0  0  0  0  0  0  0  0  0  0
    0.3400   16.8920   -0.8040 C   0  0  0  0  0  0  0  0  0  0  0  0
    2.7100   17.5360   -1.1470 C   0  0  0  0  0  0  0  0  0  0  0  0
    1.1310   12.9260   -3.0700 C   0  0  1  0  0  0  0  0  0  0  0  0
    2.0590   12.7630   -4.3130 C   0  0  0  0  0  0  0  0  0  0  0  0
   -0.2030   12.1610   -3.4090 C   0  0  0  0  0  0  0  0  0  0  0  0
   -1.0180   11.6240   -2.2170 C   0  0  0  0  0  0  0  0  0  0  0  0
   -0.1240   10.8420   -1.2500 C   0  0  2  0  0  0  0  0  0  0  0  0
    0.4450    9.6020   -2.0200 C   0  0  0  0  0  0  0  0  0  0  0  0
   -0.7138    7.3037   -0.7387 H   0  0  0  0  0  0  0  0  0  0  0  0
   -2.0468    7.8852   -1.7931 H   0  0  0  0  0  0  0  0  0  0  0  0
   -0.4651    8.7366   -1.7931 H   0  0  0  0  0  0  0  0  0  0  0  0
   -1.6377    8.5335    0.8909 H   0  0  0  0  0  0  0  0  0  0  0  0
   -3.4106   10.2627    0.5411 H   0  0  0  0  0  0  0  0  0  0  0  0
   -3.2197    9.9786   -1.2552 H   0  0  0  0  0  0  0  0  0  0  0  0
   -3.6192    7.4702    0.1171 H   0  0  0  0  0  0  0  0  0  0  0  0
   -4.9384    8.6448    0.5270 H   0  0  0  0  0  0  0  0  0  0  0  0
   -3.8290    8.2650   -2.0403 H   0  0  0  0  0  0  0  0  0  0  0  0
   -6.1944    6.8274    0.3542 H   0  0  0  0  0  0  0  0  0  0  0  0
   -7.6133    6.3980   -0.6601 H   0  0  0  0  0  0  0  0  0  0  0  0
   -6.1577    5.3454   -0.6601 H   0  0  0  0  0  0  0  0  0  0  0  0
   -6.6327    5.6352   -3.0396 H   0  0  0  0  0  0  0  0  0  0  0  0
   -6.8678    7.3074   -3.6522 H   0  0  0  0  0  0  0  0  0  0  0  0
   -5.2285    6.5730   -3.6522 H   0  0  0  0  0  0  0  0  0  0  0  0
   -1.5211   11.0723    0.4151 H   0  0  0  0  0  0  0  0  0  0  0  0
    0.1979   10.4832    2.0058 H   0  0  0  0  0  0  0  0  0  0  0  0
    0.6699    9.0424    1.0798 H   0  0  0  0  0  0  0  0  0  0  0  0
    2.1119   11.5090    1.1648 H   0  0  0  0  0  0  0  0  0  0  0  0
    2.3835   10.2472   -0.0343 H   0  0  0  0  0  0  0  0  0  0  0  0
    0.4899   12.8369    1.2005 H   0  0  0  0  0  0  0  0  0  0  0  0
    0.9649   13.9399   -0.1354 H   0  0  0  0  0  0  0  0  0  0  0  0
   -0.6616   13.1775   -0.1354 H   0  0  0  0  0  0  0  0  0  0  0  0
    2.3227   11.3308   -2.1984 H   0  0  0  0  0  0  0  0  0  0  0  0
    3.3946   12.8387   -0.4041 H   0  0  0  0  0  0  0  0  0  0  0  0
    3.8808   12.9724   -2.1746 H   0  0  0  0  0  0  0  0  0  0  0  0
    3.5854   15.2437   -0.8723 H   0  0  0  0  0  0  0  0  0  0  0  0
   -0.1227   14.4202   -2.2418 H   0  0  0  0  0  0  0  0  0  0  0  0
    1.4656   15.2182   -4.7594 H   0  0  0  0  0  0  0  0  0  0  0  0
   -0.2816   14.7156   -4.6837 H   0  0  0  0  0  0  0  0  0  0  0  0
   -0.0211   17.1662   -4.9052 H   0  0  0  0  0  0  0  0  0  0  0  0
   -0.8205   16.6782   -3.3600 H   0  0  0  0  0  0  0  0  0  0  0  0
    0.7636   18.4188   -2.8915 H   0  0  0  0  0  0  0  0  0  0  0  0
    2.3830   16.7870   -4.5400 H   0  0  0  0  0  0  0  0  0  0  0  0
    0.7092   16.8483    0.2313 H   0  0  0  0  0  0  0  0  0  0  0  0
   -0.1621   17.8559   -0.9738 H   0  0  0  0  0  0  0  0  0  0  0  0
   -0.3733   16.0720   -0.9738 H   0  0  0  0  0  0  0  0  0  0  0  0
    2.6348   17.4859   -0.0507 H   0  0  0  0  0  0  0  0  0  0  0  0
    3.6630   17.0915   -1.4699 H   0  0  0  0  0  0  0  0  0  0  0  0
    2.6675   18.5867   -1.4699 H   0  0  0  0  0  0  0  0  0  0  0  0
    3.0912   12.5817   -3.9787 H   0  0  0  0  0  0  0  0  0  0  0  0
    1.7148   11.9116   -4.9184 H   0  0  0  0  0  0  0  0  0  0  0  0
    2.0255   13.6808   -4.9184 H   0  0  0  0  0  0  0  0  0  0  0  0
   -0.8495   12.8520   -3.9698 H   0  0  0  0  0  0  0  0  0  0  0  0
    0.1117   11.2676   -3.9683 H   0  0  0  0  0  0  0  0  0  0  0  0
   -1.4732   12.4704   -1.6818 H   0  0  0  0  0  0  0  0  0  0  0  0
   -1.7962   10.9476   -2.6003 H   0  0  0  0  0  0  0  0  0  0  0  0
    0.7908    8.8485   -1.2970 H   0  0  0  0  0  0  0  0  0  0  0  0
   -0.3444    9.1688   -2.6518 H   0  0  0  0  0  0  0  0  0  0  0  0
    1.2882    9.9180   -2.6518 H   0  0  0  0  0  0  0  0  0  0  0  0
  1  2  1  0
  2  3  1  0
  3  4  1  0
  4  5  1  0
  5  6  1  0
  6  7  1  0
  7  8  1  0
  7  9  1  0
  2 10  1  0
 10 11  1  0
 11 12  1  0
 12 13  1  0
 13 14  1  1
 13 15  1  0
 15 16  1  0
 16 17  1  0
 17 18  2  0
 18 19  1  0
 19 20  1  0
 20 21  1  0
 21 22  1  0
 22 23  1  0
 22 24  1  0
 24 25  1  0
 24 26  1  0
 19 27  1  0
 27 28  1  6
 27 29  1  0
 29 30  1  0
 30 31  1  0
 31 32  1  6
  7  5  1  0
 31 10  1  0
 31 13  1  0
 27 15  1  0
 24 18  1  0
  1 33  1  0
  1 34  1  0
  1 35  1  0
  2 36  1  1
  3 37  1  0
  3 38  1  0
  4 39  1  0
  4 40  1  0
  5 41  1  6
  8 42  1  0
  8 43  1  0
  8 44  1  0
  9 45  1  0
  9 46  1  0
  9 47  1  0
 10 48  1  1
 11 49  1  0
 11 50  1  0
 12 51  1  0
 12 52  1  0
 14 53  1  0
 14 54  1  0
 14 55  1  0
 15 56  1  6
 16 57  1  0
 16 58  1  0
 17 59  1  0
 19 60  1  1
 20 61  1  0
 20 62  1  0
 21 63  1  0
 21 64  1  0
 22 65  1  1
 23 66  1  0
 25 67  1  0
 25 68  1  0
 25 69  1  0
 26 70  1  0
 26 71  1  0
 26 72  1  0
 28 73  1  0
 28 74  1  0
 28 75  1  0
 29 76  1  0
 29 77  1  0
 30 78  1  0
 30 79  1  0
 32 80  1  0
 32 81  1  0
 32 82  1  0
M  END
>  <meeko>  (11) 
{"is_sidechain": [false], "intermolecular_energy": 2.731, "internal_energy": -0.839}

$$$$
EPH_relaxed_0001_pdb2pqr_Repair_209_r2_0001_out
     RDKit          3D

 82 86  0  0  0  0  0  0  0  0999 V2000
    4.4350   17.8620   -0.1160 C   0  0  0  0  0  0  0  0  0  0  0  0
    4.3300   16.8290   -1.2410 C   0  0  2  0  0  0  0  0  0  0  0  0
    4.4210   17.4780   -2.6370 C   0  0  0  0  0  0  0  0  0  0  0  0
    5.8410   17.8950   -3.0290 C   0  0  0  0  0  0  0  0  0  0  0  0
    6.4240   16.9760   -4.0600 C   0  0  2  0  0  0  0  0  0  0  0  0
    7.4070   16.0610   -3.5590 O   0  0  0  0  0  0  0  0  0  0  0  0
    7.8720   17.0330   -4.5090 C   0  0  0  0  0  0  0  0  0  0  0  0
    8.8270   18.0340   -3.9380 C   0  0  0  0  0  0  0  0  0  0  0  0
    8.2320   16.4510   -5.8400 C   0  0  0  0  0  0  0  0  0  0  0  0
    3.0240   16.0520   -1.1130 C   0  0  1  0  0  0  0  0  0  0  0  0
    1.7820   16.9060   -1.4820 C   0  0  0  0  0  0  0  0  0  0  0  0
    0.7680   15.9510   -2.1620 C   0  0  0  0  0  0  0  0  0  0  0  0
    1.3100   14.5330   -1.8670 C   0  0  1  0  0  0  0  0  0  0  0  0
    0.8300   14.2130   -0.4160 C   0  0  0  0  0  0  0  0  0  0  0  0
    0.8940   13.4100   -2.8730 C   0  0  2  0  0  0  0  0  0  0  0  0
   -0.6170   13.1310   -2.9500 C   0  0  0  0  0  0  0  0  0  0  0  0
   -1.1210   12.0860   -2.0100 C   0  0  0  0  0  0  0  0  0  0  0  0
   -0.3580   11.2000   -1.3430 C   0  0  0  0  0  0  0  0  0  0  0  0
    1.1570   11.1310   -1.5790 C   0  0  1  0  0  0  0  0  0  0  0  0
    1.5860    9.6500   -1.7530 C   0  0  0  0  0  0  0  0  0  0  0  0
    1.1350    8.7690   -0.5920 C   0  0  0  0  0  0  0  0  0  0  0  0
   -0.3820    8.8200   -0.4270 C   0  0  2  0  0  0  0  0  0  0  0  0
   -0.9910    8.2070   -1.5680 O   0  0  0  0  0  0  0  0  0  0  0  0
   -0.9320   10.2630   -0.2520 C   0  0  0  0  0  0  0  0  0  0  0  0
   -0.5130   10.8150    1.1330 C   0  0  0  0  0  0  0  0  0  0  0  0
   -2.4820   10.1840   -0.2380 C   0  0  0  0  0  0  0  0  0  0  0  0
    1.7230   12.0700   -2.7280 C   0  0  1  0  0  0  0  0  0  0  0  0
    1.6340   11.3410   -4.1040 C   0  0  0  0  0  0  0  0  0  0  0  0
    3.2530   12.3380   -2.4660 C   0  0  0  0  0  0  0  0  0  0  0  0
    3.6030   13.5340   -1.5600 C   0  0  0  0  0  0  0  0  0  0  0  0
    2.8550   14.7950   -2.0020 C   0  0  2  0  0  0  0  0  0  0  0  0
    3.3340   15.1530   -3.4500 C   0  0  0  0  0  0  0  0  0  0  0  0
    4.3831   17.3512    0.8568 H   0  0  0  0  0  0  0  0  0  0  0  0
    5.3922   18.3977   -0.1982 H   0  0  0  0  0  0  0  0  0  0  0  0
    3.6051   18.5793   -0.1982 H   0  0  0  0  0  0  0  0  0  0  0  0
    5.1836   16.1426   -1.1398 H   0  0  0  0  0  0  0  0  0  0  0  0
    4.0531   16.7558   -3.3807 H   0  0  0  0  0  0  0  0  0  0  0  0
    3.8132   18.3943   -2.6064 H   0  0  0  0  0  0  0  0  0  0  0  0
    5.8129   18.9162   -3.4368 H   0  0  0  0  0  0  0  0  0  0  0  0
    6.4731   17.8468   -2.1300 H   0  0  0  0  0  0  0  0  0  0  0  0
    5.4776   16.9667   -4.6206 H   0  0  0  0  0  0  0  0  0  0  0  0
    8.7878   17.9930   -2.8395 H   0  0  0  0  0  0  0  0  0  0  0  0
    9.8474   17.8024   -4.2774 H   0  0  0  0  0  0  0  0  0  0  0  0
    8.5477   19.0423   -4.2774 H   0  0  0  0  0  0  0  0  0  0  0  0
    8.8054   15.5240   -5.6919 H   0  0  0  0  0  0  0  0  0  0  0  0
    7.3138   16.2281   -6.4032 H   0  0  0  0  0  0  0  0  0  0  0  0
    8.8414   17.1731   -6.4032 H   0  0  0  0  0  0  0  0  0  0  0  0
    3.0868   15.7587   -0.0547 H   0  0  0  0  0  0  0  0  0  0  0  0
    1.3402   17.3437   -0.5747 H   0  0  0  0  0  0  0  0  0  0  0  0
    2.0568   17.7329   -2.1533 H   0  0  0  0  0  0  0  0  0  0  0  0
   -0.2361   16.0803   -1.7317 H   0  0  0  0  0  0  0  0  0  0  0  0
    0.6709   16.1447   -3.2405 H   0  0  0  0  0  0  0  0  0  0  0  0
    1.5191   14.6724    0.3079 H   0  0  0  0  0  0  0  0  0  0  0  0
   -0.1818   14.6179   -0.2669 H   0  0  0  0  0  0  0  0  0  0  0  0
    0.8146   13.1233   -0.2669 H   0  0  0  0  0  0  0  0  0  0  0  0
    1.1666   13.8497   -3.8438 H   0  0  0  0  0  0  0  0  0  0  0  0
   -1.1476   14.0694   -2.7313 H   0  0  0  0  0  0  0  0  0  0  0  0
   -0.8041   12.7451   -3.9630 H   0  0  0  0  0  0  0  0  0  0  0  0
   -2.2080   12.0359   -1.8489 H   0  0  0  0  0  0  0  0  0  0  0  0
    1.6255   11.5519   -0.6772 H   0  0  0  0  0  0  0  0  0  0  0  0
    1.1438    9.2619   -2.6824 H   0  0  0  0  0  0  0  0  0  0  0  0
    2.6852    9.6228   -1.7848 H   0  0  0  0  0  0  0  0  0  0  0  0
    1.4413    7.7308   -0.7875 H   0  0  0  0  0  0  0  0  0  0  0  0
    1.6018    9.1396    0.3325 H   0  0  0  0  0  0  0  0  0  0  0  0
   -0.6315    8.2764    0.4962 H   0  0  0  0  0  0  0  0  0  0  0  0
   -1.3090    8.9190   -2.1490 H   0  0  0  0  0  0  0  0  0  0  0  0
   -0.9746   10.2069    1.9250 H   0  0  0  0  0  0  0  0  0  0  0  0
    0.5820   10.7720    1.2289 H   0  0  0  0  0  0  0  0  0  0  0  0
   -0.8488   11.8581    1.2289 H   0  0  0  0  0  0  0  0  0  0  0  0
   -2.8388   10.1658    0.8024 H   0  0  0  0  0  0  0  0  0  0  0  0
   -2.8986   11.0621   -0.7532 H   0  0  0  0  0  0  0  0  0  0  0  0
   -2.8071    9.2681   -0.7532 H   0  0  0  0  0  0  0  0  0  0  0  0
    1.5022   10.2614   -3.9391 H   0  0  0  0  0  0  0  0  0  0  0  0
    0.7770   11.7326   -4.6716 H   0  0  0  0  0  0  0  0  0  0  0  0
    2.5600   11.5149   -4.6716 H   0  0  0  0  0  0  0  0  0  0  0  0
    3.6746   11.4342   -2.0018 H   0  0  0  0  0  0  0  0  0  0  0  0
    3.6741   12.5895   -3.4506 H   0  0  0  0  0  0  0  0  0  0  0  0
    3.3228   13.2943   -0.5237 H   0  0  0  0  0  0  0  0  0  0  0  0
    4.6840   13.7242   -1.6329 H   0  0  0  0  0  0  0  0  0  0  0  0
    4.2139   15.8106   -3.3930 H   0  0  0  0  0  0  0  0  0  0  0  0
    3.5999   14.2304   -3.9868 H   0  0  0  0  0  0  0  0  0  0  0  0
    2.5245   15.6693   -3.9868 H   0  0  0  0  0  0  0  0  0  0  0  0
  1  2  1  0
  2  3  1  0
  3  4  1  0
  4  5  1  0
  5  6  1  0
  6  7  1  0
  7  8  1  0
  7  9  1  0
  2 10  1  0
 10 11  1  0
 11 12  1  0
 12 13  1  0
 13 14  1  1
 13 15  1  0
 15 16  1  0
 16 17  1  0
 17 18  2  0
 18 19  1  0
 19 20  1  0
 20 21  1  0
 21 22  1  0
 22 23  1  0
 22 24  1  0
 24 25  1  0
 24 26  1  0
 19 27  1  0
 27 28  1  6
 27 29  1  0
 29 30  1  0
 30 31  1  0
 31 32  1  6
  7  5  1  0
 31 10  1  0
 31 13  1  0
 27 15  1  0
 24 18  1  0
  1 33  1  0
  1 34  1  0
  1 35  1  0
  2 36  1  1
  3 37  1  0
  3 38  1  0
  4 39  1  0
  4 40  1  0
  5 41  1  6
  8 42  1  0
  8 43  1  0
  8 44  1  0
  9 45  1  0
  9 46  1  0
  9 47  1  0
 10 48  1  1
 11 49  1  0
 11 50  1  0
 12 51  1  0
 12 52  1  0
 14 53  1  0
 14 54  1  0
 14 55  1  0
 15 56  1  6
 16 57  1  0
 16 58  1  0
 17 59  1  0
 19 60  1  1
 20 61  1  0
 20 62  1  0
 21 63  1  0
 21 64  1  0
 22 65  1  1
 23 66  1  0
 25 67  1  0
 25 68  1  0
 25 69  1  0
 26 70  1  0
 26 71  1  0
 26 72  1  0
 28 73  1  0
 28 74  1  0
 28 75  1  0
 29 76  1  0
 29 77  1  0
 30 78  1  0
 30 79  1  0
 32 80  1  0
 32 81  1  0
 32 82  1  0
M  END
>  <meeko>  (12) 
{"is_sidechain": [false], "intermolecular_energy": 2.731, "internal_energy": -0.839}

$$$$
EPH_relaxed_0001_pdb2pqr_Repair_209_r2_0001_out
     RDKit          3D

 82 86  0  0  0  0  0  0  0  0999 V2000
   -2.7610    9.4870    0.0610 C   0  0  0  0  0  0  0  0  0  0  0  0
   -1.3450    9.7570    0.5790 C   0  0  2  0  0  0  0  0  0  0  0  0
   -1.2560   11.0810    1.3620 C   0  0  0  0  0  0  0  0  0  0  0  0
   -0.0550   11.1570    2.3090 C   0  0  0  0  0  0  0  0  0  0  0  0
    0.2170   12.5640    2.7490 C   0  0  2  0  0  0  0  0  0  0  0  0
    0.8250   12.6800    4.0420 O   0  0  0  0  0  0  0  0  0  0  0  0
   -0.4960   13.2290    3.9110 C   0  0  0  0  0  0  0  0  0  0  0  0
   -1.5380   12.5050    4.7050 C   0  0  0  0  0  0  0  0  0  0  0  0
   -0.5350   14.7250    3.9650 C   0  0  0  0  0  0  0  0  0  0  0  0
   -0.3610    9.7720   -0.5840 C   0  0  1  0  0  0  0  0  0  0  0  0
   -0.8420    8.9160   -1.7860 C   0  0  0  0  0  0  0  0  0  0  0  0
   -0.3630    9.6380   -3.0710 C   0  0  0  0  0  0  0  0  0  0  0  0
    0.6520   10.6930   -2.5700 C   0  0  1  0  0  0  0  0  0  0  0  0
    1.9830    9.9030   -2.3660 C   0  0  0  0  0  0  0  0  0  0  0  0
    0.8570   11.9440   -3.4850 C   0  0  2  0  0  0  0  0  0  0  0  0
    1.4220   11.6430   -4.8840 C   0  0  0  0  0  0  0  0  0  0  0  0
    2.9110   11.6700   -4.9900 C   0  0  0  0  0  0  0  0  0  0  0  0
    3.7500   12.2010   -4.0820 C   0  0  0  0  0  0  0  0  0  0  0  0
    3.2120   12.9390   -2.8490 C   0  0  1  0  0  0  0  0  0  0  0  0
    3.9840   14.2720   -2.6660 C   0  0  0  0  0  0  0  0  0  0  0  0
    5.4950   14.0700   -2.6110 C   0  0  0  0  0  0  0  0  0  0  0  0
    6.0000   13.3860   -3.8790 C   0  0  2  0  0  0  0  0  0  0  0  0
    5.8210   14.2760   -4.9860 O   0  0  0  0  0  0  0  0  0  0  0  0
    5.2870   12.0370   -4.1730 C   0  0  0  0  0  0  0  0  0  0  0  0
    5.7260   10.9790   -3.1300 C   0  0  0  0  0  0  0  0  0  0  0  0
    5.7870   11.5220   -5.5500 C   0  0  0  0  0  0  0  0  0  0  0  0
    1.6360   13.1340   -2.7910 C   0  0  1  0  0  0  0  0  0  0  0  0
    1.2320   14.4340   -3.5510 C   0  0  0  0  0  0  0  0  0  0  0  0
    1.1980   13.3420   -1.2930 C   0  0  0  0  0  0  0  0  0  0  0  0
    0.8940   12.0720   -0.4750 C   0  0  0  0  0  0  0  0  0  0  0  0
   -0.0540   11.1420   -1.2390 C   0  0  2  0  0  0  0  0  0  0  0  0
   -1.4100   11.9010   -1.4390 C   0  0  0  0  0  0  0  0  0  0  0  0
   -3.4445    9.3567    0.9130 H   0  0  0  0  0  0  0  0  0  0  0  0
   -3.0959   10.3375   -0.5510 H   0  0  0  0  0  0  0  0  0  0  0  0
   -2.7595    8.5730   -0.5510 H   0  0  0  0  0  0  0  0  0  0  0  0
   -1.0862    8.9449    1.2744 H   0  0  0  0  0  0  0  0  0  0  0  0
   -1.1814   11.9072    0.6397 H   0  0  0  0  0  0  0  0  0  0  0  0
   -2.1606   11.1477    1.9843 H   0  0  0  0  0  0  0  0  0  0  0  0
   -0.2610   10.5398    3.1959 H   0  0  0  0  0  0  0  0  0  0  0  0
    0.8304   10.7896    1.7695 H   0  0  0  0  0  0  0  0  0  0  0  0
    0.3889   12.8810    1.7098 H   0  0  0  0  0  0  0  0  0  0  0  0
   -1.3415   12.6416    5.7786 H   0  0  0  0  0  0  0  0  0  0  0  0
   -2.5316   12.9083    4.4599 H   0  0  0  0  0  0  0  0  0  0  0  0
   -1.5067   11.4331    4.4599 H   0  0  0  0  0  0  0  0  0  0  0  0
   -0.5436   15.0539    5.0146 H   0  0  0  0  0  0  0  0  0  0  0  0
    0.3528   15.1334    3.4600 H   0  0  0  0  0  0  0  0  0  0  0  0
   -1.4429   15.0866    3.4600 H   0  0  0  0  0  0  0  0  0  0  0  0
    0.5343    9.3904   -0.0713 H   0  0  0  0  0  0  0  0  0  0  0  0
   -0.4042    7.9083   -1.7324 H   0  0  0  0  0  0  0  0  0  0  0  0
   -1.9366    8.8070   -1.7796 H   0  0  0  0  0  0  0  0  0  0  0  0
    0.1215    8.9282   -3.7576 H   0  0  0  0  0  0  0  0  0  0  0  0
   -1.1950   10.0916   -3.6296 H   0  0  0  0  0  0  0  0  0  0  0  0
    2.1791    9.7866   -1.2899 H   0  0  0  0  0  0  0  0  0  0  0  0
    1.8955    8.9105   -2.8322 H   0  0  0  0  0  0  0  0  0  0  0  0
    2.8123   10.4552   -2.8322 H   0  0  0  0  0  0  0  0  0  0  0  0
   -0.1747   12.2895   -3.6471 H   0  0  0  0  0  0  0  0  0  0  0  0
    1.0783   10.6412   -5.1810 H   0  0  0  0  0  0  0  0  0  0  0  0
    1.0557   12.4469   -5.5394 H   0  0  0  0  0  0  0  0  0  0  0  0
    3.3602   11.2174   -5.8863 H   0  0  0  0  0  0  0  0  0  0  0  0
    3.4016   12.2769   -1.9913 H   0  0  0  0  0  0  0  0  0  0  0  0
    3.7474   14.9354   -3.5110 H   0  0  0  0  0  0  0  0  0  0  0  0
    3.6706   14.7104   -1.7071 H   0  0  0  0  0  0  0  0  0  0  0  0
    5.9858   15.0493   -2.5102 H   0  0  0  0  0  0  0  0  0  0  0  0
    5.7328   13.4303   -1.7483 H   0  0  0  0  0  0  0  0  0  0  0  0
    7.0637   13.1516   -3.7256 H   0  0  0  0  0  0  0  0  0  0  0  0
    6.4850   14.0480   -5.6580 H   0  0  0  0  0  0  0  0  0  0  0  0
    5.5623   11.3735   -2.1163 H   0  0  0  0  0  0  0  0  0  0  0  0
    5.1341   10.0619   -3.2666 H   0  0  0  0  0  0  0  0  0  0  0  0
    6.7933   10.7503   -3.2666 H   0  0  0  0  0  0  0  0  0  0  0  0
    6.5457   10.7406   -5.3958 H   0  0  0  0  0  0  0  0  0  0  0  0
    4.9404   11.1047   -6.1148 H   0  0  0  0  0  0  0  0  0  0  0  0
    6.2292   12.3559   -6.1148 H   0  0  0  0  0  0  0  0  0  0  0  0
    0.9870   15.2225   -2.8242 H   0  0  0  0  0  0  0  0  0  0  0  0
    2.0697   14.7649   -4.1825 H   0  0  0  0  0  0  0  0  0  0  0  0
    0.3543   14.2318   -4.1825 H   0  0  0  0  0  0  0  0  0  0  0  0
    2.0086   13.8813   -0.7811 H   0  0  0  0  0  0  0  0  0  0  0  0
    0.2433   13.8859   -1.3453 H   0  0  0  0  0  0  0  0  0  0  0  0
    1.8353   11.5398   -0.2734 H   0  0  0  0  0  0  0  0  0  0  0  0
    0.4104   12.3689    0.4673 H   0  0  0  0  0  0  0  0  0  0  0  0
   -1.8429   12.1433   -0.4572 H   0  0  0  0  0  0  0  0  0  0  0  0
   -1.2309   12.8300   -2.0001 H   0  0  0  0  0  0  0  0  0  0  0  0
   -2.1083   11.2626   -2.0001 H   0  0  0  0  0  0  0  0  0  0  0  0
  1  2  1  0
  2  3  1  0
  3  4  1  0
  4  5  1  0
  5  6  1  0
  6  7  1  0
  7  8  1  0
  7  9  1  0
  2 10  1  0
 10 11  1  0
 11 12  1  0
 12 13  1  0
 13 14  1  1
 13 15  1  0
 15 16  1  0
 16 17  1  0
 17 18  2  0
 18 19  1  0
 19 20  1  0
 20 21  1  0
 21 22  1  0
 22 23  1  0
 22 24  1  0
 24 25  1  0
 24 26  1  0
 19 27  1  0
 27 28  1  6
 27 29  1  0
 29 30  1  0
 30 31  1  0
 31 32  1  6
  7  5  1  0
 31 10  1  0
 31 13  1  0
 27 15  1  0
 24 18  1  0
  1 33  1  0
  1 34  1  0
  1 35  1  0
  2 36  1  1
  3 37  1  0
  3 38  1  0
  4 39  1  0
  4 40  1  0
  5 41  1  6
  8 42  1  0
  8 43  1  0
  8 44  1  0
  9 45  1  0
  9 46  1  0
  9 47  1  0
 10 48  1  1
 11 49  1  0
 11 50  1  0
 12 51  1  0
 12 52  1  0
 14 53  1  0
 14 54  1  0
 14 55  1  0
 15 56  1  6
 16 57  1  0
 16 58  1  0
 17 59  1  0
 19 60  1  1
 20 61  1  0
 20 62  1  0
 21 63  1  0
 21 64  1  0
 22 65  1  1
 23 66  1  0
 25 67  1  0
 25 68  1  0
 25 69  1  0
 26 70  1  0
 26 71  1  0
 26 72  1  0
 28 73  1  0
 28 74  1  0
 28 75  1  0
 29 76  1  0
 29 77  1  0
 30 78  1  0
 30 79  1  0
 32 80  1  0
 32 81  1  0
 32 82  1  0
M  END
>  <meeko>  (13) 
{"is_sidechain": [false], "intermolecular_energy": 2.731, "internal_energy": -0.839}

$$$$
EPH_relaxed_0001_pdb2pqr_Repair_209_r2_0001_out
     RDKit          3D

 82 86  0  0  0  0  0  0  0  0999 V2000
    0.1180    7.7600   -2.4940 C   0  0  0  0  0  0  0  0  0  0  0  0
   -1.2010    8.2150   -1.8630 C   0  0  2  0  0  0  0  0  0  0  0  0
   -2.4270    7.6700   -2.6230 C   0  0  0  0  0  0  0  0  0  0  0  0
   -3.6940    7.5870   -1.7670 C   0  0  0  0  0  0  0  0  0  0  0  0
   -4.7460    6.7380   -2.4140 C   0  0  2  0  0  0  0  0  0  0  0  0
   -5.4740    7.3850   -3.4650 O   0  0  0  0  0  0  0  0  0  0  0  0
   -6.2330    7.0170   -2.3020 C   0  0  0  0  0  0  0  0  0  0  0  0
   -6.7510    8.1830   -1.5190 C   0  0  0  0  0  0  0  0  0  0  0  0
   -7.1920    5.8920   -2.5380 C   0  0  0  0  0  0  0  0  0  0  0  0
   -1.2540    9.7380   -1.8130 C   0  0  1  0  0  0  0  0  0  0  0  0
   -2.5840   10.2700   -1.2150 C   0  0  0  0  0  0  0  0  0  0  0  0
   -2.2350   11.5550   -0.4210 C   0  0  0  0  0  0  0  0  0  0  0  0
   -0.7930   11.9040   -0.8590 C   0  0  1  0  0  0  0  0  0  0  0  0
   -0.9550   12.6400   -2.2260 C   0  0  0  0  0  0  0  0  0  0  0  0
    0.0520   12.7450    0.1530 C   0  0  2  0  0  0  0  0  0  0  0  0
   -0.5030   14.1470    0.4590 C   0  0  0  0  0  0  0  0  0  0  0  0
   -0.0060   15.2380   -0.4300 C   0  0  0  0  0  0  0  0  0  0  0  0
    1.0600   15.1560   -1.2480 C   0  0  0  0  0  0  0  0  0  0  0  0
    1.9480   13.9050   -1.2610 C   0  0  1  0  0  0  0  0  0  0  0  0
    3.4400   14.3280   -1.2200 C   0  0  0  0  0  0  0  0  0  0  0  0
    3.8000   15.3110   -2.3300 C   0  0  0  0  0  0  0  0  0  0  0  0
    2.9360   16.5670   -2.2480 C   0  0  2  0  0  0  0  0  0  0  0  0
    3.2670   17.2770   -1.0510 O   0  0  0  0  0  0  0  0  0  0  0  0
    1.4110   16.2640   -2.2710 C   0  0  0  0  0  0  0  0  0  0  0  0
    1.0000   15.7720   -3.6810 C   0  0  0  0  0  0  0  0  0  0  0  0
    0.6550   17.6000   -2.0400 C   0  0  0  0  0  0  0  0  0  0  0  0
    1.5990   12.7950   -0.1790 C   0  0  1  0  0  0  0  0  0  0  0  0
    2.3310   13.1090    1.1610 C   0  0  0  0  0  0  0  0  0  0  0  0
    2.1500   11.4050   -0.6710 C   0  0  0  0  0  0  0  0  0  0  0  0
    1.2210   10.5680   -1.5710 C   0  0  0  0  0  0  0  0  0  0  0  0
   -0.1800   10.4600   -0.9620 C   0  0  2  0  0  0  0  0  0  0  0  0
   -0.0510    9.7030    0.4040 C   0  0  0  0  0  0  0  0  0  0  0  0
    0.8378    7.5117   -1.7001 H   0  0  0  0  0  0  0  0  0  0  0  0
   -0.0610    6.8717   -3.1176 H   0  0  0  0  0  0  0  0  0  0  0  0
    0.5247    8.5698   -3.1176 H   0  0  0  0  0  0  0  0  0  0  0  0
   -1.2379    7.8073   -0.8420 H   0  0  0  0  0  0  0  0  0  0  0  0
   -2.6282    8.3321   -3.4781 H   0  0  0  0  0  0  0  0  0  0  0  0
   -2.1820    6.6442   -2.9355 H   0  0  0  0  0  0  0  0  0  0  0  0
   -3.4362    7.1522   -0.7900 H   0  0  0  0  0  0  0  0  0  0  0  0
   -4.0972    8.6040   -1.6521 H   0  0  0  0  0  0  0  0  0  0  0  0
   -4.1512    5.8289   -2.2416 H   0  0  0  0  0  0  0  0  0  0  0  0
   -6.6576    7.9729   -0.4433 H   0  0  0  0  0  0  0  0  0  0  0  0
   -6.1672    9.0811   -1.7692 H   0  0  0  0  0  0  0  0  0  0  0  0
   -7.8088    8.3518   -1.7692 H   0  0  0  0  0  0  0  0  0  0  0  0
   -7.5330    5.4920   -1.5717 H   0  0  0  0  0  0  0  0  0  0  0  0
   -8.0574    6.2613   -3.1079 H   0  0  0  0  0  0  0  0  0  0  0  0
   -6.6904    5.0960   -3.1079 H   0  0  0  0  0  0  0  0  0  0  0  0
   -1.1019    9.9626   -2.8790 H   0  0  0  0  0  0  0  0  0  0  0  0
   -3.2949   10.5042   -2.0211 H   0  0  0  0  0  0  0  0  0  0  0  0
   -3.0527    9.5180   -0.5632 H   0  0  0  0  0  0  0  0  0  0  0  0
   -2.9271   12.3704   -0.6780 H   0  0  0  0  0  0  0  0  0  0  0  0
   -2.3173   11.4092    0.6662 H   0  0  0  0  0  0  0  0  0  0  0  0
   -1.1883   13.6999   -2.0464 H   0  0  0  0  0  0  0  0  0  0  0  0
   -0.0183   12.5625   -2.7975 H   0  0  0  0  0  0  0  0  0  0  0  0
   -1.7726   12.1763   -2.7975 H   0  0  0  0  0  0  0  0  0  0  0  0
   -0.0559   12.1712    1.0852 H   0  0  0  0  0  0  0  0  0  0  0  0
   -1.5984   14.1063    0.3671 H   0  0  0  0  0  0  0  0  0  0  0  0
   -0.1545   14.3976    1.4718 H   0  0  0  0  0  0  0  0  0  0  0  0
   -0.5575   16.1897   -0.4156 H   0  0  0  0  0  0  0  0  0  0  0  0
    1.7319   13.3895   -2.2084 H   0  0  0  0  0  0  0  0  0  0  0  0
    3.6456   14.8019   -0.2489 H   0  0  0  0  0  0  0  0  0  0  0  0
    4.0479   13.4228   -1.3654 H   0  0  0  0  0  0  0  0  0  0  0  0
    4.8581   15.5948   -2.2303 H   0  0  0  0  0  0  0  0  0  0  0  0
    3.6218   14.8251   -3.3006 H   0  0  0  0  0  0  0  0  0  0  0  0
    3.1492   17.1729   -3.1410 H   0  0  0  0  0  0  0  0  0  0  0  0
    3.5590   18.1680   -1.3080 H   0  0  0  0  0  0  0  0  0  0  0  0
    0.2974   14.9310   -3.5855 H   0  0  0  0  0  0  0  0  0  0  0  0
    0.5161   16.5936   -4.2294 H   0  0  0  0  0  0  0  0  0  0  0  0
    1.8946   15.4420   -4.2294 H   0  0  0  0  0  0  0  0  0  0  0  0
    0.5524   17.7812   -0.9599 H   0  0  0  0  0  0  0  0  0  0  0  0
    1.2201   18.4250   -2.4982 H   0  0  0  0  0  0  0  0  0  0  0  0
   -0.3432   17.5404   -2.4982 H   0  0  0  0  0  0  0  0  0  0  0  0
    1.6839   12.8314    2.0061 H   0  0  0  0  0  0  0  0  0  0  0  0
    3.2669   12.5332    1.2112 H   0  0  0  0  0  0  0  0  0  0  0  0
    2.5588   14.1840    1.2112 H   0  0  0  0  0  0  0  0  0  0  0  0
    3.0760   11.5945   -1.2336 H   0  0  0  0  0  0  0  0  0  0  0  0
    2.2798   10.8072    0.2432 H   0  0  0  0  0  0  0  0  0  0  0  0
    1.1483   11.0477   -2.5582 H   0  0  0  0  0  0  0  0  0  0  0  0
    1.6418    9.5560   -1.6649 H   0  0  0  0  0  0  0  0  0  0  0  0
   -0.1727   10.4171    1.2318 H   0  0  0  0  0  0  0  0  0  0  0  0
   -0.8303    8.9294    0.4695 H   0  0  0  0  0  0  0  0  0  0  0  0
    0.9405    9.2312    0.4695 H   0  0  0  0  0  0  0  0  0  0  0  0
  1  2  1  0
  2  3  1  0
  3  4  1  0
  4  5  1  0
  5  6  1  0
  6  7  1  0
  7  8  1  0
  7  9  1  0
  2 10  1  0
 10 11  1  0
 11 12  1  0
 12 13  1  0
 13 14  1  6
 13 15  1  0
 15 16  1  0
 16 17  1  0
 17 18  2  0
 18 19  1  0
 19 20  1  0
 20 21  1  0
 21 22  1  0
 22 23  1  0
 22 24  1  0
 24 25  1  0
 24 26  1  0
 19 27  1  0
 27 28  1  1
 27 29  1  0
 29 30  1  0
 30 31  1  0
 31 32  1  1
  7  5  1  0
 31 10  1  0
 31 13  1  0
 27 15  1  0
 24 18  1  0
  1 33  1  0
  1 34  1  0
  1 35  1  0
  2 36  1  1
  3 37  1  0
  3 38  1  0
  4 39  1  0
  4 40  1  0
  5 41  1  6
  8 42  1  0
  8 43  1  0
  8 44  1  0
  9 45  1  0
  9 46  1  0
  9 47  1  0
 10 48  1  6
 11 49  1  0
 11 50  1  0
 12 51  1  0
 12 52  1  0
 14 53  1  0
 14 54  1  0
 14 55  1  0
 15 56  1  1
 16 57  1  0
 16 58  1  0
 17 59  1  0
 19 60  1  6
 20 61  1  0
 20 62  1  0
 21 63  1  0
 21 64  1  0
 22 65  1  6
 23 66  1  0
 25 67  1  0
 25 68  1  0
 25 69  1  0
 26 70  1  0
 26 71  1  0
 26 72  1  0
 28 73  1  0
 28 74  1  0
 28 75  1  0
 29 76  1  0
 29 77  1  0
 30 78  1  0
 30 79  1  0
 32 80  1  0
 32 81  1  0
 32 82  1  0
M  END
>  <meeko>  (14) 
{"is_sidechain": [false], "intermolecular_energy": 2.731, "internal_energy": -0.839}

$$$$
EPH_relaxed_0001_pdb2pqr_Repair_209_r2_0001_out
     RDKit          3D

 82 86  0  0  0  0  0  0  0  0999 V2000
   -0.9630    9.8000    0.2920 C   0  0  0  0  0  0  0  0  0  0  0  0
    0.0030   10.3400    1.3500 C   0  0  2  0  0  0  0  0  0  0  0  0
   -0.7200   11.1770    2.4230 C   0  0  0  0  0  0  0  0  0  0  0  0
    0.2170   12.0660    3.2460 C   0  0  0  0  0  0  0  0  0  0  0  0
   -0.3720   12.4060    4.5810 C   0  0  2  0  0  0  0  0  0  0  0  0
   -1.8030   12.4900    4.6010 O   0  0  0  0  0  0  0  0  0  0  0  0
   -1.0930   13.7100    4.8700 C   0  0  0  0  0  0  0  0  0  0  0  0
   -1.2620   14.7580    3.8160 C   0  0  0  0  0  0  0  0  0  0  0  0
   -1.2000   14.1690    6.2910 C   0  0  0  0  0  0  0  0  0  0  0  0
    1.0910   11.1740    0.6830 C   0  0  1  0  0  0  0  0  0  0  0  0
    2.2670   10.3110    0.1550 C   0  0  0  0  0  0  0  0  0  0  0  0
    2.7690   10.9880   -1.1470 C   0  0  0  0  0  0  0  0  0  0  0  0
    2.0980   12.3810   -1.1460 C   0  0  1  0  0  0  0  0  0  0  0  0
    2.9830   13.2530   -0.2010 C   0  0  0  0  0  0  0  0  0  0  0  0
    1.9060   13.0560   -2.5430 C   0  0  2  0  0  0  0  0  0  0  0  0
    3.2070   13.3640   -3.3030 C   0  0  0  0  0  0  0  0  0  0  0  0
    3.7930   14.7130   -3.0450 C   0  0  0  0  0  0  0  0  0  0  0  0
    3.1530   15.7440   -2.4620 C   0  0  0  0  0  0  0  0  0  0  0  0
    1.6710   15.6390   -2.0830 C   0  0  1  0  0  0  0  0  0  0  0  0
    0.9250   16.9170   -2.5500 C   0  0  0  0  0  0  0  0  0  0  0  0
    1.5720   18.1960   -2.0270 C   0  0  0  0  0  0  0  0  0  0  0  0
    3.0290   18.2920   -2.4730 C   0  0  2  0  0  0  0  0  0  0  0  0
    3.0660   18.4560   -3.8940 O   0  0  0  0  0  0  0  0  0  0  0  0
    3.8770   17.0550   -2.0670 C   0  0  0  0  0  0  0  0  0  0  0  0
    4.0880   17.0500   -0.5320 C   0  0  0  0  0  0  0  0  0  0  0  0
    5.2860   17.2140   -2.6980 C   0  0  0  0  0  0  0  0  0  0  0  0
    0.9330   14.3050   -2.5310 C   0  0  1  0  0  0  0  0  0  0  0  0
    0.3900   14.4590   -3.9850 C   0  0  0  0  0  0  0  0  0  0  0  0
   -0.3220   14.0770   -1.6090 C   0  0  0  0  0  0  0  0  0  0  0  0
   -0.0910   13.2990   -0.3000 C   0  0  0  0  0  0  0  0  0  0  0  0
    0.6880   12.0060   -0.5600 C   0  0  2  0  0  0  0  0  0  0  0  0
   -0.1880   11.0990   -1.4900 C   0  0  0  0  0  0  0  0  0  0  0  0
   -1.8199    9.3210    0.7883 H   0  0  0  0  0  0  0  0  0  0  0  0
   -1.3198   10.6295   -0.3362 H   0  0  0  0  0  0  0  0  0  0  0  0
   -0.4433    9.0616   -0.3362 H   0  0  0  0  0  0  0  0  0  0  0  0
    0.4561    9.4752    1.8568 H   0  0  0  0  0  0  0  0  0  0  0  0
   -1.4581   11.8206    1.9221 H   0  0  0  0  0  0  0  0  0  0  0  0
   -1.1869   10.4681    3.1226 H   0  0  0  0  0  0  0  0  0  0  0  0
    1.1677   11.5348    3.4007 H   0  0  0  0  0  0  0  0  0  0  0  0
    0.3746   13.0032    2.6921 H   0  0  0  0  0  0  0  0  0  0  0  0
    0.4449   11.8835    5.1004 H   0  0  0  0  0  0  0  0  0  0  0  0
   -1.4198   15.7363    4.2936 H   0  0  0  0  0  0  0  0  0  0  0  0
   -0.3586   14.7972    3.1897 H   0  0  0  0  0  0  0  0  0  0  0  0
   -2.1319   14.5112    3.1897 H   0  0  0  0  0  0  0  0  0  0  0  0
   -1.0027   13.3228    6.9655 H   0  0  0  0  0  0  0  0  0  0  0  0
   -0.4633   14.9646    6.4758 H   0  0  0  0  0  0  0  0  0  0  0  0
   -2.2126   14.5568    6.4758 H   0  0  0  0  0  0  0  0  0  0  0  0
    1.3462   11.8439    1.5173 H   0  0  0  0  0  0  0  0  0  0  0  0
    3.0756   10.2761    0.8999 H   0  0  0  0  0  0  0  0  0  0  0  0
    1.9436    9.2772   -0.0366 H   0  0  0  0  0  0  0  0  0  0  0  0
    3.8647   11.0847   -1.1368 H   0  0  0  0  0  0  0  0  0  0  0  0
    2.5170   10.4042   -2.0446 H   0  0  0  0  0  0  0  0  0  0  0  0
    2.7437   13.0172    0.8464 H   0  0  0  0  0  0  0  0  0  0  0  0
    4.0449   13.0384   -0.3917 H   0  0  0  0  0  0  0  0  0  0  0  0
    2.7841   14.3179   -0.3917 H   0  0  0  0  0  0  0  0  0  0  0  0
    1.4037   12.2657   -3.1201 H   0  0  0  0  0  0  0  0  0  0  0  0
    3.9541   12.6088   -3.0176 H   0  0  0  0  0  0  0  0  0  0  0  0
    2.9467   13.3449   -4.3716 H   0  0  0  0  0  0  0  0  0  0  0  0
    4.8347   14.8782   -3.3574 H   0  0  0  0  0  0  0  0  0  0  0  0
    1.6428   15.5695   -0.9856 H   0  0  0  0  0  0  0  0  0  0  0  0
    0.9274   16.9448   -3.6496 H   0  0  0  0  0  0  0  0  0  0  0  0
   -0.0981   16.8720   -2.1485 H   0  0  0  0  0  0  0  0  0  0  0  0
    1.0188   19.0640   -2.4150 H   0  0  0  0  0  0  0  0  0  0  0  0
    1.5416   18.1807   -0.9275 H   0  0  0  0  0  0  0  0  0  0  0  0
    3.4742   19.1581   -1.9615 H   0  0  0  0  0  0  0  0  0  0  0  0
    2.1950   18.2010   -4.2420 H   0  0  0  0  0  0  0  0  0  0  0  0
    3.1108   17.0732   -0.0275 H   0  0  0  0  0  0  0  0  0  0  0  0
    4.6302   16.1388   -0.2394 H   0  0  0  0  0  0  0  0  0  0  0  0
    4.6728   17.9345   -0.2394 H   0  0  0  0  0  0  0  0  0  0  0  0
    6.0379   17.2988   -1.8996 H   0  0  0  0  0  0  0  0  0  0  0  0
    5.5101   16.3354   -3.3208 H   0  0  0  0  0  0  0  0  0  0  0  0
    5.3087   18.1204   -3.3208 H   0  0  0  0  0  0  0  0  0  0  0  0
   -0.6678   14.7590   -3.9515 H   0  0  0  0  0  0  0  0  0  0  0  0
    0.9725   15.2274   -4.5145 H   0  0  0  0  0  0  0  0  0  0  0  0
    0.4824   13.4992   -4.5145 H   0  0  0  0  0  0  0  0  0  0  0  0
   -0.7225   15.0660   -1.3418 H   0  0  0  0  0  0  0  0  0  0  0  0
   -1.0030   13.4478   -2.2009 H   0  0  0  0  0  0  0  0  0  0  0  0
    0.4807   13.9294    0.3970 H   0  0  0  0  0  0  0  0  0  0  0  0
   -1.0693   13.0382    0.1300 H   0  0  0  0  0  0  0  0  0  0  0  0
   -0.8206   10.4440   -0.8730 H   0  0  0  0  0  0  0  0  0  0  0  0
   -0.8252   11.7321   -2.1250 H   0  0  0  0  0  0  0  0  0  0  0  0
    0.4668   10.4842   -2.1250 H   0  0  0  0  0  0  0  0  0  0  0  0
  1  2  1  0
  2  3  1  0
  3  4  1  0
  4  5  1  0
  5  6  1  0
  6  7  1  0
  7  8  1  0
  7  9  1  0
  2 10  1  0
 10 11  1  0
 11 12  1  0
 12 13  1  0
 13 14  1  1
 13 15  1  0
 15 16  1  0
 16 17  1  0
 17 18  2  0
 18 19  1  0
 19 20  1  0
 20 21  1  0
 21 22  1  0
 22 23  1  0
 22 24  1  0
 24 25  1  0
 24 26  1  0
 19 27  1  0
 27 28  1  6
 27 29  1  0
 29 30  1  0
 30 31  1  0
 31 32  1  6
  7  5  1  0
 31 10  1  0
 31 13  1  0
 27 15  1  0
 24 18  1  0
  1 33  1  0
  1 34  1  0
  1 35  1  0
  2 36  1  1
  3 37  1  0
  3 38  1  0
  4 39  1  0
  4 40  1  0
  5 41  1  1
  8 42  1  0
  8 43  1  0
  8 44  1  0
  9 45  1  0
  9 46  1  0
  9 47  1  0
 10 48  1  1
 11 49  1  0
 11 50  1  0
 12 51  1  0
 12 52  1  0
 14 53  1  0
 14 54  1  0
 14 55  1  0
 15 56  1  6
 16 57  1  0
 16 58  1  0
 17 59  1  0
 19 60  1  1
 20 61  1  0
 20 62  1  0
 21 63  1  0
 21 64  1  0
 22 65  1  1
 23 66  1  0
 25 67  1  0
 25 68  1  0
 25 69  1  0
 26 70  1  0
 26 71  1  0
 26 72  1  0
 28 73  1  0
 28 74  1  0
 28 75  1  0
 29 76  1  0
 29 77  1  0
 30 78  1  0
 30 79  1  0
 32 80  1  0
 32 81  1  0
 32 82  1  0
M  END
>  <meeko>  (15) 
{"is_sidechain": [false], "intermolecular_energy": 2.731, "internal_energy": -0.839}

$$$$
EPH_relaxed_0001_pdb2pqr_Repair_209_r2_0001_out
     RDKit          3D

 82 86  0  0  0  0  0  0  0  0999 V2000
    4.4840   17.1660   -0.0750 C   0  0  0  0  0  0  0  0  0  0  0  0
    4.3530   15.9930   -1.0510 C   0  0  2  0  0  0  0  0  0  0  0  0
    4.5020   16.4400   -2.5190 C   0  0  0  0  0  0  0  0  0  0  0  0
    4.0750   17.8900   -2.7680 C   0  0  0  0  0  0  0  0  0  0  0  0
    2.6050   17.9960   -3.0420 C   0  0  2  0  0  0  0  0  0  0  0  0
    2.2050   19.2050   -3.7000 O   0  0  0  0  0  0  0  0  0  0  0  0
    1.7000   19.0100   -2.3690 C   0  0  0  0  0  0  0  0  0  0  0  0
    2.2320   19.9880   -1.3680 C   0  0  0  0  0  0  0  0  0  0  0  0
    0.2300   18.7340   -2.3160 C   0  0  0  0  0  0  0  0  0  0  0  0
    3.0110   15.2990   -0.8510 C   0  0  1  0  0  0  0  0  0  0  0  0
    1.8160   16.2900   -0.8720 C   0  0  0  0  0  0  0  0  0  0  0  0
    0.6290   15.5460   -1.5350 C   0  0  0  0  0  0  0  0  0  0  0  0
    1.0690   14.0640   -1.5710 C   0  0  1  0  0  0  0  0  0  0  0  0
    0.7710   13.5220   -0.1370 C   0  0  0  0  0  0  0  0  0  0  0  0
    0.4070   13.1730   -2.6730 C   0  0  2  0  0  0  0  0  0  0  0  0
   -1.1190   13.0180   -2.5570 C   0  0  0  0  0  0  0  0  0  0  0  0
   -1.5820   11.8580   -1.7390 C   0  0  0  0  0  0  0  0  0  0  0  0
   -0.8200   10.8160   -1.3580 C   0  0  0  0  0  0  0  0  0  0  0  0
    0.6310   10.6850   -1.8370 C   0  0  1  0  0  0  0  0  0  0  0  0
    0.8870    9.2340   -2.3230 C   0  0  0  0  0  0  0  0  0  0  0  0
    0.5230    8.1910   -1.2700 C   0  0  0  0  0  0  0  0  0  0  0  0
   -0.9420    8.3160   -0.8630 C   0  0  2  0  0  0  0  0  0  0  0  0
   -1.7630    7.9640   -1.9800 O   0  0  0  0  0  0  0  0  0  0  0  0
   -1.3200    9.7390   -0.3640 C   0  0  0  0  0  0  0  0  0  0  0  0
   -0.6580   10.0020    1.0110 C   0  0  0  0  0  0  0  0  0  0  0  0
   -2.8530    9.7680   -0.1200 C   0  0  0  0  0  0  0  0  0  0  0  0
    1.1160   11.7750   -2.8880 C   0  0  1  0  0  0  0  0  0  0  0  0
    0.7620   11.3140   -4.3350 C   0  0  0  0  0  0  0  0  0  0  0  0
    2.6850   11.8840   -2.8280 C   0  0  0  0  0  0  0  0  0  0  0  0
    3.2750   12.8690   -1.8010 C   0  0  0  0  0  0  0  0  0  0  0  0
    2.5960   14.2380   -1.9010 C   0  0  2  0  0  0  0  0  0  0  0  0
    2.8960   14.8170   -3.3260 C   0  0  0  0  0  0  0  0  0  0  0  0
    4.4420   16.7900    0.9579 H   0  0  0  0  0  0  0  0  0  0  0  0
    5.4446   17.6755   -0.2410 H   0  0  0  0  0  0  0  0  0  0  0  0
    3.6594   17.8749   -0.2410 H   0  0  0  0  0  0  0  0  0  0  0  0
    5.1710   15.2897   -0.8359 H   0  0  0  0  0  0  0  0  0  0  0  0
    5.5579   16.3344   -2.8086 H   0  0  0  0  0  0  0  0  0  0  0  0
    3.8363   15.8016   -3.1184 H   0  0  0  0  0  0  0  0  0  0  0  0
    4.3160   18.4903   -1.8783 H   0  0  0  0  0  0  0  0  0  0  0  0
    4.6160   18.2598   -3.6515 H   0  0  0  0  0  0  0  0  0  0  0  0
    2.5257   16.9062   -3.1686 H   0  0  0  0  0  0  0  0  0  0  0  0
    2.0310   19.6184   -0.3516 H   0  0  0  0  0  0  0  0  0  0  0  0
    3.3169   20.1029   -1.5085 H   0  0  0  0  0  0  0  0  0  0  0  0
    1.7390   20.9612   -1.5085 H   0  0  0  0  0  0  0  0  0  0  0  0
   -0.0940   18.6732   -1.2666 H   0  0  0  0  0  0  0  0  0  0  0  0
   -0.3139   19.5457   -2.8212 H   0  0  0  0  0  0  0  0  0  0  0  0
    0.0175   17.7803   -2.8212 H   0  0  0  0  0  0  0  0  0  0  0  0
    3.1963   14.8163    0.1199 H   0  0  0  0  0  0  0  0  0  0  0  0
    1.5517   16.5864    0.1538 H   0  0  0  0  0  0  0  0  0  0  0  0
    2.0704   17.2034   -1.4297 H   0  0  0  0  0  0  0  0  0  0  0  0
   -0.2866   15.6649   -0.9370 H   0  0  0  0  0  0  0  0  0  0  0  0
    0.3986   15.9373   -2.5369 H   0  0  0  0  0  0  0  0  0  0  0  0
    1.1598   14.2292    0.6104 H   0  0  0  0  0  0  0  0  0  0  0  0
   -0.3154   13.4102   -0.0057 H   0  0  0  0  0  0  0  0  0  0  0  0
    1.2587   12.5448   -0.0057 H   0  0  0  0  0  0  0  0  0  0  0  0
    0.5782   13.7613   -3.5866 H   0  0  0  0  0  0  0  0  0  0  0  0
   -1.5203   13.9359   -2.1027 H   0  0  0  0  0  0  0  0  0  0  0  0
   -1.4848   12.8354   -3.5782 H   0  0  0  0  0  0  0  0  0  0  0  0
   -2.6350   11.8547   -1.4208 H   0  0  0  0  0  0  0  0  0  0  0  0
    1.2606   10.9022   -0.9616 H   0  0  0  0  0  0  0  0  0  0  0  0
    0.2820    9.0519   -3.2235 H   0  0  0  0  0  0  0  0  0  0  0  0
    1.9627    9.1367   -2.5313 H   0  0  0  0  0  0  0  0  0  0  0  0
    0.6976    7.1864   -1.6828 H   0  0  0  0  0  0  0  0  0  0  0  0
    1.1498    8.3556   -0.3812 H   0  0  0  0  0  0  0  0  0  0  0  0
   -1.1085    7.6326   -0.0173 H   0  0  0  0  0  0  0  0  0  0  0  0
   -2.3650    7.2570   -1.6920 H   0  0  0  0  0  0  0  0  0  0  0  0
   -1.3570    9.7243    1.8136 H   0  0  0  0  0  0  0  0  0  0  0  0
    0.2583    9.3996    1.0980 H   0  0  0  0  0  0  0  0  0  0  0  0
   -0.4050   11.0690    1.0980 H   0  0  0  0  0  0  0  0  0  0  0  0
   -3.0521    9.7718    0.9618 H   0  0  0  0  0  0  0  0  0  0  0  0
   -3.2795   10.6744   -0.5745 H   0  0  0  0  0  0  0  0  0  0  0  0
   -3.3135    8.8784   -0.5745 H   0  0  0  0  0  0  0  0  0  0  0  0
    0.0926   10.4423   -4.2887 H   0  0  0  0  0  0  0  0  0  0  0  0
    0.2595   12.1343   -4.8685 H   0  0  0  0  0  0  0  0  0  0  0  0
    1.6842   11.0402   -4.8685 H   0  0  0  0  0  0  0  0  0  0  0  0
    3.0792   10.8840   -2.5942 H   0  0  0  0  0  0  0  0  0  0  0  0
    2.9834   12.2797   -3.8100 H   0  0  0  0  0  0  0  0  0  0  0  0
    3.1248   12.4660   -0.7886 H   0  0  0  0  0  0  0  0  0  0  0  0
    4.3476   12.9935   -2.0109 H   0  0  0  0  0  0  0  0  0  0  0  0
    3.4000   15.7898   -3.2279 H   0  0  0  0  0  0  0  0  0  0  0  0
    3.5467   14.1206   -3.8752 H   0  0  0  0  0  0  0  0  0  0  0  0
    1.9518   14.9470   -3.8752 H   0  0  0  0  0  0  0  0  0  0  0  0
  1  2  1  0
  2  3  1  0
  3  4  1  0
  4  5  1  0
  5  6  1  0
  6  7  1  0
  7  8  1  0
  7  9  1  0
  2 10  1  0
 10 11  1  0
 11 12  1  0
 12 13  1  0
 13 14  1  1
 13 15  1  0
 15 16  1  0
 16 17  1  0
 17 18  2  0
 18 19  1  0
 19 20  1  0
 20 21  1  0
 21 22  1  0
 22 23  1  0
 22 24  1  0
 24 25  1  0
 24 26  1  0
 19 27  1  0
 27 28  1  6
 27 29  1  0
 29 30  1  0
 30 31  1  0
 31 32  1  6
  7  5  1  0
 31 10  1  0
 31 13  1  0
 27 15  1  0
 24 18  1  0
  1 33  1  0
  1 34  1  0
  1 35  1  0
  2 36  1  1
  3 37  1  0
  3 38  1  0
  4 39  1  0
  4 40  1  0
  5 41  1  6
  8 42  1  0
  8 43  1  0
  8 44  1  0
  9 45  1  0
  9 46  1  0
  9 47  1  0
 10 48  1  1
 11 49  1  0
 11 50  1  0
 12 51  1  0
 12 52  1  0
 14 53  1  0
 14 54  1  0
 14 55  1  0
 15 56  1  6
 16 57  1  0
 16 58  1  0
 17 59  1  0
 19 60  1  1
 20 61  1  0
 20 62  1  0
 21 63  1  0
 21 64  1  0
 22 65  1  1
 23 66  1  0
 25 67  1  0
 25 68  1  0
 25 69  1  0
 26 70  1  0
 26 71  1  0
 26 72  1  0
 28 73  1  0
 28 74  1  0
 28 75  1  0
 29 76  1  0
 29 77  1  0
 30 78  1  0
 30 79  1  0
 32 80  1  0
 32 81  1  0
 32 82  1  0
M  END
>  <meeko>  (16) 
{"is_sidechain": [false], "intermolecular_energy": 2.731, "internal_energy": -0.839}

$$$$
EPH_relaxed_0001_pdb2pqr_Repair_209_r2_0001_out
     RDKit          3D

 82 86  0  0  0  0  0  0  0  0999 V2000
   -2.9870    9.6260    0.3830 C   0  0  0  0  0  0  0  0  0  0  0  0
   -2.9080    9.6110   -1.1460 C   0  0  2  0  0  0  0  0  0  0  0  0
   -2.6070    8.2040   -1.6990 C   0  0  0  0  0  0  0  0  0  0  0  0
   -3.8120    7.5310   -2.3600 C   0  0  0  0  0  0  0  0  0  0  0  0
   -5.0130    7.5390   -1.4640 C   0  0  2  0  0  0  0  0  0  0  0  0
   -5.4690    6.2400   -1.0630 O   0  0  0  0  0  0  0  0  0  0  0  0
   -6.3710    7.0050   -1.8800 C   0  0  0  0  0  0  0  0  0  0  0  0
   -6.5990    6.4260   -3.2410 C   0  0  0  0  0  0  0  0  0  0  0  0
   -7.5840    7.4880   -1.1480 C   0  0  0  0  0  0  0  0  0  0  0  0
   -1.8470   10.5960   -1.6210 C   0  0  1  0  0  0  0  0  0  0  0  0
   -2.1490   12.0550   -1.1880 C   0  0  0  0  0  0  0  0  0  0  0  0
   -0.7820   12.7290   -0.9010 C   0  0  0  0  0  0  0  0  0  0  0  0
    0.2640   11.7540   -1.4920 C   0  0  1  0  0  0  0  0  0  0  0  0
    0.2870   12.0690   -3.0210 C   0  0  0  0  0  0  0  0  0  0  0  0
    1.6970   11.8170   -0.8680 C   0  0  2  0  0  0  0  0  0  0  0  0
    2.4250   13.1610   -1.0410 C   0  0  0  0  0  0  0  0  0  0  0  0
    3.2620   13.2800   -2.2710 C   0  0  0  0  0  0  0  0  0  0  0  0
    3.6510   12.2570   -3.0540 C   0  0  0  0  0  0  0  0  0  0  0  0
    3.3280   10.8060   -2.6730 C   0  0  1  0  0  0  0  0  0  0  0  0
    4.5980    9.9310   -2.8430 C   0  0  0  0  0  0  0  0  0  0  0  0
    5.2060   10.0460   -4.2370 C   0  0  0  0  0  0  0  0  0  0  0  0
    5.5670   11.4950   -4.5570 C   0  0  2  0  0  0  0  0  0  0  0  0
    6.6300   11.9060   -3.6920 O   0  0  0  0  0  0  0  0  0  0  0  0
    4.3670   12.4720   -4.4100 C   0  0  0  0  0  0  0  0  0  0  0  0
    3.3450   12.2160   -5.5460 C   0  0  0  0  0  0  0  0  0  0  0  0
    4.8980   13.9150   -4.6220 C   0  0  0  0  0  0  0  0  0  0  0  0
    2.6280   10.6000   -1.2610 C   0  0  1  0  0  0  0  0  0  0  0  0
    3.7100   10.4880   -0.1430 C   0  0  0  0  0  0  0  0  0  0  0  0
    1.8520    9.2300   -1.2670 C   0  0  0  0  0  0  0  0  0  0  0  0
    0.4010    9.2550   -1.7830 C   0  0  0  0  0  0  0  0  0  0  0  0
   -0.3980   10.3790   -1.1170 C   0  0  2  0  0  0  0  0  0  0  0  0
   -0.4570   10.0780    0.4200 C   0  0  0  0  0  0  0  0  0  0  0  0
   -1.9884    9.4364    0.8036 H   0  0  0  0  0  0  0  0  0  0  0  0
   -3.3471   10.6086    0.7219 H   0  0  0  0  0  0  0  0  0  0  0  0
   -3.6822    8.8438    0.7219 H   0  0  0  0  0  0  0  0  0  0  0  0
   -3.8935    9.9119   -1.5310 H   0  0  0  0  0  0  0  0  0  0  0  0
   -1.8040    8.2891   -2.4460 H   0  0  0  0  0  0  0  0  0  0  0  0
   -2.3192    7.5771   -0.8422 H   0  0  0  0  0  0  0  0  0  0  0  0
   -4.0561    8.0691   -3.2878 H   0  0  0  0  0  0  0  0  0  0  0  0
   -3.5475    6.4839   -2.5689 H   0  0  0  0  0  0  0  0  0  0  0  0
   -4.7018    8.4942   -1.0160 H   0  0  0  0  0  0  0  0  0  0  0  0
   -7.0004    5.4065   -3.1432 H   0  0  0  0  0  0  0  0  0  0  0  0
   -7.3178    7.0520   -3.7901 H   0  0  0  0  0  0  0  0  0  0  0  0
   -5.6464    6.3939   -3.7901 H   0  0  0  0  0  0  0  0  0  0  0  0
   -7.4099    7.4187   -0.0641 H   0  0  0  0  0  0  0  0  0  0  0  0
   -7.7845    8.5346   -1.4210 H   0  0  0  0  0  0  0  0  0  0  0  0
   -8.4490    6.8657   -1.4210 H   0  0  0  0  0  0  0  0  0  0  0  0
   -1.8993   10.4141   -2.7046 H   0  0  0  0  0  0  0  0  0  0  0  0
   -2.6725   12.5888   -1.9948 H   0  0  0  0  0  0  0  0  0  0  0  0
   -2.7947   12.0770   -0.2977 H   0  0  0  0  0  0  0  0  0  0  0  0
   -0.7212   13.7101   -1.3947 H   0  0  0  0  0  0  0  0  0  0  0  0
   -0.6234   12.9116    0.1721 H   0  0  0  0  0  0  0  0  0  0  0  0
    0.3664   13.1559   -3.1703 H   0  0  0  0  0  0  0  0  0  0  0  0
    1.1512   11.5711   -3.4850 H   0  0  0  0  0  0  0  0  0  0  0  0
   -0.6403   11.7019   -3.4850 H   0  0  0  0  0  0  0  0  0  0  0  0
    1.4905   11.7262    0.2086 H   0  0  0  0  0  0  0  0  0  0  0  0
    1.6665   13.9572   -1.0679 H   0  0  0  0  0  0  0  0  0  0  0  0
    3.1195   13.2419   -0.1918 H   0  0  0  0  0  0  0  0  0  0  0  0
    3.5885   14.2893   -2.5621 H   0  0  0  0  0  0  0  0  0  0  0  0
    2.5494   10.4726   -3.3749 H   0  0  0  0  0  0  0  0  0  0  0  0
    5.3476   10.2504   -2.1041 H   0  0  0  0  0  0  0  0  0  0  0  0
    4.3028    8.8820   -2.6933 H   0  0  0  0  0  0  0  0  0  0  0  0
    6.1156    9.4293   -4.2850 H   0  0  0  0  0  0  0  0  0  0  0  0
    4.4660    9.6978   -4.9727 H   0  0  0  0  0  0  0  0  0  0  0  0
    5.8752   11.5333   -5.6122 H   0  0  0  0  0  0  0  0  0  0  0  0
    6.4770   12.8370   -3.4590 H   0  0  0  0  0  0  0  0  0  0  0  0
    2.3655   11.9707   -5.1096 H   0  0  0  0  0  0  0  0  0  0  0  0
    3.2537   13.1190   -6.1675 H   0  0  0  0  0  0  0  0  0  0  0  0
    3.6902   11.3766   -6.1675 H   0  0  0  0  0  0  0  0  0  0  0  0
    5.0724   14.3888   -3.6447 H   0  0  0  0  0  0  0  0  0  0  0  0
    5.8419   13.8792   -5.1858 H   0  0  0  0  0  0  0  0  0  0  0  0
    4.1561   14.4996   -5.1858 H   0  0  0  0  0  0  0  0  0  0  0  0
    3.2250   10.5382    0.8430 H   0  0  0  0  0  0  0  0  0  0  0  0
    4.2415    9.5300   -0.2418 H   0  0  0  0  0  0  0  0  0  0  0  0
    4.4265   11.3168   -0.2418 H   0  0  0  0  0  0  0  0  0  0  0  0
    2.4179    8.5300   -1.8993 H   0  0  0  0  0  0  0  0  0  0  0  0
    1.7759    8.9381   -0.2092 H   0  0  0  0  0  0  0  0  0  0  0  0
    0.4087    9.4150   -2.8713 H   0  0  0  0  0  0  0  0  0  0  0  0
   -0.0749    8.2939   -1.5386 H   0  0  0  0  0  0  0  0  0  0  0  0
   -0.2752   11.0056    0.9825 H   0  0  0  0  0  0  0  0  0  0  0  0
   -1.4500    9.6813    0.6781 H   0  0  0  0  0  0  0  0  0  0  0  0
    0.3128    9.3358    0.6781 H   0  0  0  0  0  0  0  0  0  0  0  0
  1  2  1  0
  2  3  1  0
  3  4  1  0
  4  5  1  0
  5  6  1  0
  6  7  1  0
  7  8  1  0
  7  9  1  0
  2 10  1  0
 10 11  1  0
 11 12  1  0
 12 13  1  0
 13 14  1  6
 13 15  1  0
 15 16  1  0
 16 17  1  0
 17 18  2  0
 18 19  1  0
 19 20  1  0
 20 21  1  0
 21 22  1  0
 22 23  1  0
 22 24  1  0
 24 25  1  0
 24 26  1  0
 19 27  1  0
 27 28  1  1
 27 29  1  0
 29 30  1  0
 30 31  1  0
 31 32  1  1
  7  5  1  0
 31 10  1  0
 31 13  1  0
 27 15  1  0
 24 18  1  0
  1 33  1  0
  1 34  1  0
  1 35  1  0
  2 36  1  6
  3 37  1  0
  3 38  1  0
  4 39  1  0
  4 40  1  0
  5 41  1  1
  8 42  1  0
  8 43  1  0
  8 44  1  0
  9 45  1  0
  9 46  1  0
  9 47  1  0
 10 48  1  6
 11 49  1  0
 11 50  1  0
 12 51  1  0
 12 52  1  0
 14 53  1  0
 14 54  1  0
 14 55  1  0
 15 56  1  1
 16 57  1  0
 16 58  1  0
 17 59  1  0
 19 60  1  6
 20 61  1  0
 20 62  1  0
 21 63  1  0
 21 64  1  0
 22 65  1  6
 23 66  1  0
 25 67  1  0
 25 68  1  0
 25 69  1  0
 26 70  1  0
 26 71  1  0
 26 72  1  0
 28 73  1  0
 28 74  1  0
 28 75  1  0
 29 76  1  0
 29 77  1  0
 30 78  1  0
 30 79  1  0
 32 80  1  0
 32 81  1  0
 32 82  1  0
M  END
>  <meeko>  (17) 
{"is_sidechain": [false], "intermolecular_energy": 2.731, "internal_energy": -0.839}

$$$$
EPH_relaxed_0001_pdb2pqr_Repair_209_r2_0001_out
     RDKit          3D

 82 86  0  0  0  0  0  0  0  0999 V2000
    1.8540   18.0730   -2.3040 C   0  0  0  0  0  0  0  0  0  0  0  0
    2.7430   17.2140   -1.4000 C   0  0  2  0  0  0  0  0  0  0  0  0
    4.2180   17.6630   -1.4400 C   0  0  0  0  0  0  0  0  0  0  0  0
    4.9490   17.4920   -0.1050 C   0  0  0  0  0  0  0  0  0  0  0  0
    5.1470   18.8050    0.5900 C   0  0  2  0  0  0  0  0  0  0  0  0
    6.5080   19.1030    0.9290 O   0  0  0  0  0  0  0  0  0  0  0  0
    5.6040   18.9270    2.0320 C   0  0  0  0  0  0  0  0  0  0  0  0
    5.8890   17.7170    2.8650 C   0  0  0  0  0  0  0  0  0  0  0  0
    5.3030   20.1920    2.7730 C   0  0  0  0  0  0  0  0  0  0  0  0
    2.6340   15.7490   -1.8060 C   0  0  1  0  0  0  0  0  0  0  0  0
    3.9610   15.1870   -2.3820 C   0  0  0  0  0  0  0  0  0  0  0  0
    4.0530   13.7060   -1.9330 C   0  0  0  0  0  0  0  0  0  0  0  0
    2.6380   13.3710   -1.4040 C   0  0  1  0  0  0  0  0  0  0  0  0
    1.7950   13.0630   -2.6820 C   0  0  0  0  0  0  0  0  0  0  0  0
    2.5480   12.2110   -0.3600 C   0  0  2  0  0  0  0  0  0  0  0  0
    2.9970   10.8330   -0.8750 C   0  0  0  0  0  0  0  0  0  0  0  0
    1.9190    9.9950   -1.4790 C   0  0  0  0  0  0  0  0  0  0  0  0
    0.5970   10.2100   -1.3500 C   0  0  0  0  0  0  0  0  0  0  0  0
    0.0660   11.3340   -0.4510 C   0  0  1  0  0  0  0  0  0  0  0  0
   -1.0880   10.7890    0.4320 C   0  0  0  0  0  0  0  0  0  0  0  0
   -2.1910   10.1280   -0.3900 C   0  0  0  0  0  0  0  0  0  0  0  0
   -1.6340    8.9790   -1.2260 C   0  0  2  0  0  0  0  0  0  0  0  0
   -1.2010    7.9360   -0.3470 O   0  0  0  0  0  0  0  0  0  0  0  0
   -0.4590    9.4060   -2.1490 C   0  0  0  0  0  0  0  0  0  0  0  0
   -0.9940   10.3060   -3.2900 C   0  0  0  0  0  0  0  0  0  0  0  0
    0.1020    8.1290   -2.8300 C   0  0  0  0  0  0  0  0  0  0  0  0
    1.1580   12.1220    0.3920 C   0  0  1  0  0  0  0  0  0  0  0  0
    1.4270   11.3840    1.7390 C   0  0  0  0  0  0  0  0  0  0  0  0
    0.5900   13.5420    0.7690 C   0  0  0  0  0  0  0  0  0  0  0  0
    0.8160   14.6740   -0.2510 C   0  0  0  0  0  0  0  0  0  0  0  0
    2.2810   14.7280   -0.6950 C   0  0  2  0  0  0  0  0  0  0  0  0
    3.1510   15.0580    0.5650 C   0  0  0  0  0  0  0  0  0  0  0  0
    1.2009   18.7040   -1.6833 H   0  0  0  0  0  0  0  0  0  0  0  0
    2.4854   18.7119   -2.9390 H   0  0  0  0  0  0  0  0  0  0  0  0
    1.2372   17.4201   -2.9390 H   0  0  0  0  0  0  0  0  0  0  0  0
    2.3868   17.3418   -0.3671 H   0  0  0  0  0  0  0  0  0  0  0  0
    4.7420   17.0672   -2.2019 H   0  0  0  0  0  0  0  0  0  0  0  0
    4.2210   18.7380   -1.6733 H   0  0  0  0  0  0  0  0  0  0  0  0
    4.3561   16.8308    0.5441 H   0  0  0  0  0  0  0  0  0  0  0  0
    5.9394   17.0589   -0.3090 H   0  0  0  0  0  0  0  0  0  0  0  0
    4.3019   19.2493    0.0437 H   0  0  0  0  0  0  0  0  0  0  0  0
    5.8265   17.9825    3.9307 H   0  0  0  0  0  0  0  0  0  0  0  0
    5.1508   16.9336    2.6383 H   0  0  0  0  0  0  0  0  0  0  0  0
    6.8992   17.3454    2.6383 H   0  0  0  0  0  0  0  0  0  0  0  0
    5.3481   20.0024    3.8556 H   0  0  0  0  0  0  0  0  0  0  0  0
    6.0436   20.9596    2.5040 H   0  0  0  0  0  0  0  0  0  0  0  0
    4.2961   20.5438    2.5040 H   0  0  0  0  0  0  0  0  0  0  0  0
    1.8083   15.8196   -2.5294 H   0  0  0  0  0  0  0  0  0  0  0  0
    3.9538   15.2499   -3.4802 H   0  0  0  0  0  0  0  0  0  0  0  0
    4.8244   15.7638   -2.0187 H   0  0  0  0  0  0  0  0  0  0  0  0
    4.3136   13.0579   -2.7827 H   0  0  0  0  0  0  0  0  0  0  0  0
    4.8315   13.5479   -1.1721 H   0  0  0  0  0  0  0  0  0  0  0  0
    0.7999   12.6994   -2.3860 H   0  0  0  0  0  0  0  0  0  0  0  0
    1.6874   13.9799   -3.2801 H   0  0  0  0  0  0  0  0  0  0  0  0
    2.3039   12.2927   -3.2801 H   0  0  0  0  0  0  0  0  0  0  0  0
    3.2975   12.5089    0.3880 H   0  0  0  0  0  0  0  0  0  0  0  0
    3.7722   10.9919   -1.6391 H   0  0  0  0  0  0  0  0  0  0  0  0
    3.3537   10.2804    0.0067 H   0  0  0  0  0  0  0  0  0  0  0  0
    2.2319    9.1286   -2.0802 H   0  0  0  0  0  0  0  0  0  0  0  0
   -0.3169   12.1106   -1.1295 H   0  0  0  0  0  0  0  0  0  0  0  0
   -0.6764   10.0466    1.1316 H   0  0  0  0  0  0  0  0  0  0  0  0
   -1.5335   11.6426    0.9639 H   0  0  0  0  0  0  0  0  0  0  0  0
   -2.9621    9.7374    0.2903 H   0  0  0  0  0  0  0  0  0  0  0  0
   -2.6215   10.8793   -1.0684 H   0  0  0  0  0  0  0  0  0  0  0  0
   -2.4414    8.6312   -1.8871 H   0  0  0  0  0  0  0  0  0  0  0  0
   -1.6490    8.0660    0.5060 H   0  0  0  0  0  0  0  0  0  0  0  0
   -1.5111   11.1759   -2.8590 H   0  0  0  0  0  0  0  0  0  0  0  0
   -0.1534   10.6496   -3.9108 H   0  0  0  0  0  0  0  0  0  0  0  0
   -1.6975    9.7317   -3.9108 H   0  0  0  0  0  0  0  0  0  0  0  0
    0.4175    7.4107   -2.0589 H   0  0  0  0  0  0  0  0  0  0  0  0
   -0.6793    7.6744   -3.4568 H   0  0  0  0  0  0  0  0  0  0  0  0
    0.9653    8.3969   -3.4568 H   0  0  0  0  0  0  0  0  0  0  0  0
    1.1834   12.0522    2.5782 H   0  0  0  0  0  0  0  0  0  0  0  0
    0.7998   10.4820    1.7945 H   0  0  0  0  0  0  0  0  0  0  0  0
    2.4875   11.0972    1.7945 H   0  0  0  0  0  0  0  0  0  0  0  0
   -0.4952   13.4380    0.9157 H   0  0  0  0  0  0  0  0  0  0  0  0
    1.1494   13.8468    1.6657 H   0  0  0  0  0  0  0  0  0  0  0  0
    0.1797   14.4979   -1.1308 H   0  0  0  0  0  0  0  0  0  0  0  0
    0.5585   15.6316    0.2252 H   0  0  0  0  0  0  0  0  0  0  0  0
    2.5746   14.8394    1.4760 H   0  0  0  0  0  0  0  0  0  0  0  0
    4.0632   14.4434    0.5519 H   0  0  0  0  0  0  0  0  0  0  0  0
    3.4261   16.1230    0.5519 H   0  0  0  0  0  0  0  0  0  0  0  0
  1  2  1  0
  2  3  1  0
  3  4  1  0
  4  5  1  0
  5  6  1  0
  6  7  1  0
  7  8  1  0
  7  9  1  0
  2 10  1  0
 10 11  1  0
 11 12  1  0
 12 13  1  0
 13 14  1  6
 13 15  1  0
 15 16  1  0
 16 17  1  0
 17 18  2  0
 18 19  1  0
 19 20  1  0
 20 21  1  0
 21 22  1  0
 22 23  1  0
 22 24  1  0
 24 25  1  0
 24 26  1  0
 19 27  1  0
 27 28  1  1
 27 29  1  0
 29 30  1  0
 30 31  1  0
 31 32  1  1
  7  5  1  0
 31 10  1  0
 31 13  1  0
 27 15  1  0
 24 18  1  0
  1 33  1  0
  1 34  1  0
  1 35  1  0
  2 36  1  1
  3 37  1  0
  3 38  1  0
  4 39  1  0
  4 40  1  0
  5 41  1  6
  8 42  1  0
  8 43  1  0
  8 44  1  0
  9 45  1  0
  9 46  1  0
  9 47  1  0
 10 48  1  6
 11 49  1  0
 11 50  1  0
 12 51  1  0
 12 52  1  0
 14 53  1  0
 14 54  1  0
 14 55  1  0
 15 56  1  1
 16 57  1  0
 16 58  1  0
 17 59  1  0
 19 60  1  6
 20 61  1  0
 20 62  1  0
 21 63  1  0
 21 64  1  0
 22 65  1  6
 23 66  1  0
 25 67  1  0
 25 68  1  0
 25 69  1  0
 26 70  1  0
 26 71  1  0
 26 72  1  0
 28 73  1  0
 28 74  1  0
 28 75  1  0
 29 76  1  0
 29 77  1  0
 30 78  1  0
 30 79  1  0
 32 80  1  0
 32 81  1  0
 32 82  1  0
M  END
>  <meeko>  (18) 
{"is_sidechain": [false], "intermolecular_energy": 2.731, "internal_energy": -0.839}

$$$$
