EPH_relaxed_0001_pdb2pqr_Repair_160_r2_0001_out
     RDKit          3D

 82 86  0  0  0  0  0  0  0  0999 V2000
    3.8070   17.9530    0.7090 C   0  0  0  0  0  0  0  0  0  0  0  0
    2.9510   18.3470   -0.4980 C   0  0  2  0  0  0  0  0  0  0  0  0
    2.2070   19.6780   -0.2740 C   0  0  0  0  0  0  0  0  0  0  0  0
    1.1510   19.6140    0.8330 C   0  0  0  0  0  0  0  0  0  0  0  0
   -0.1640   20.1710    0.3770 C   0  0  2  0  0  0  0  0  0  0  0  0
   -1.1860   20.1920    1.3820 O   0  0  0  0  0  0  0  0  0  0  0  0
   -1.4260   19.3380    0.2510 C   0  0  0  0  0  0  0  0  0  0  0  0
   -1.4340   17.8790    0.5810 C   0  0  0  0  0  0  0  0  0  0  0  0
   -2.5170   19.8250   -0.6510 C   0  0  0  0  0  0  0  0  0  0  0  0
    1.9520   17.2380   -0.8110 C   0  0  1  0  0  0  0  0  0  0  0  0
    0.8320   17.7000   -1.7810 C   0  0  0  0  0  0  0  0  0  0  0  0
    0.4830   16.4810   -2.6730 C   0  0  0  0  0  0  0  0  0  0  0  0
    1.1660   15.2800   -1.9770 C   0  0  1  0  0  0  0  0  0  0  0  0
    0.1910   14.8760   -0.8270 C   0  0  0  0  0  0  0  0  0  0  0  0
    1.5170   14.0610   -2.8910 C   0  0  2  0  0  0  0  0  0  0  0  0
    0.3100   13.3660   -3.5450 C   0  0  0  0  0  0  0  0  0  0  0  0
   -0.2850   12.2460   -2.7580 C   0  0  0  0  0  0  0  0  0  0  0  0
    0.2970   11.6280   -1.7140 C   0  0  0  0  0  0  0  0  0  0  0  0
    1.7280   11.9800   -1.2880 C   0  0  1  0  0  0  0  0  0  0  0  0
    2.5340   10.6760   -1.0520 C   0  0  0  0  0  0  0  0  0  0  0  0
    1.8480    9.7340   -0.0680 C   0  0  0  0  0  0  0  0  0  0  0  0
    0.4500    9.3610   -0.5550 C   0  0  2  0  0  0  0  0  0  0  0  0
    0.5710    8.5730   -1.7430 O   0  0  0  0  0  0  0  0  0  0  0  0
   -0.4510   10.5950   -0.8350 C   0  0  0  0  0  0  0  0  0  0  0  0
   -0.8300   11.2790    0.5020 C   0  0  0  0  0  0  0  0  0  0  0  0
   -1.7810   10.0850   -1.4530 C   0  0  0  0  0  0  0  0  0  0  0  0
    2.4960   13.0110   -2.2230 C   0  0  1  0  0  0  0  0  0  0  0  0
    3.1970   12.2510   -3.3900 C   0  0  0  0  0  0  0  0  0  0  0  0
    3.6400   13.7040   -1.3930 C   0  0  0  0  0  0  0  0  0  0  0  0
    3.2580   14.9730   -0.6070 C   0  0  0  0  0  0  0  0  0  0  0  0
    2.4990   15.9620   -1.4970 C   0  0  2  0  0  0  0  0  0  0  0  0
    3.4620   16.4030   -2.6520 C   0  0  0  0  0  0  0  0  0  0  0  0
    3.2694   18.2005    1.6362 H   0  0  0  0  0  0  0  0  0  0  0  0
    4.0077   16.8719    0.6789 H   0  0  0  0  0  0  0  0  0  0  0  0
    4.7588   18.5036    0.6789 H   0  0  0  0  0  0  0  0  0  0  0  0
    3.6297   18.4887   -1.3520 H   0  0  0  0  0  0  0  0  0  0  0  0
    2.9455   20.4477   -0.0054 H   0  0  0  0  0  0  0  0  0  0  0  0
    1.6782   19.9122   -1.2097 H   0  0  0  0  0  0  0  0  0  0  0  0
    1.0097   18.5645    1.1308 H   0  0  0  0  0  0  0  0  0  0  0  0
    1.5049   20.2197    1.6803 H   0  0  0  0  0  0  0  0  0  0  0  0
    0.3407   20.8559   -0.3203 H   0  0  0  0  0  0  0  0  0  0  0  0
   -1.4347   17.7502    1.6734 H   0  0  0  0  0  0  0  0  0  0  0  0
   -2.3347   17.4119    0.1561 H   0  0  0  0  0  0  0  0  0  0  0  0
   -0.5385   17.4021    0.1561 H   0  0  0  0  0  0  0  0  0  0  0  0
   -3.3548   20.1990   -0.0442 H   0  0  0  0  0  0  0  0  0  0  0  0
   -2.1328   20.6371   -1.2858 H   0  0  0  0  0  0  0  0  0  0  0  0
   -2.8650   18.9968   -1.2858 H   0  0  0  0  0  0  0  0  0  0  0  0
    1.6133   17.0007    0.2083 H   0  0  0  0  0  0  0  0  0  0  0  0
   -0.0538   18.0194   -1.2124 H   0  0  0  0  0  0  0  0  0  0  0  0
    1.1641   18.5535   -2.3903 H   0  0  0  0  0  0  0  0  0  0  0  0
   -0.6061   16.3341   -2.7210 H   0  0  0  0  0  0  0  0  0  0  0  0
    0.8248   16.6116   -3.7103 H   0  0  0  0  0  0  0  0  0  0  0  0
    0.6679   15.0736    0.1444 H   0  0  0  0  0  0  0  0  0  0  0  0
   -0.7348   15.4646   -0.9075 H   0  0  0  0  0  0  0  0  0  0  0  0
   -0.0472   13.8051   -0.9075 H   0  0  0  0  0  0  0  0  0  0  0  0
    2.0704   14.5358   -3.7146 H   0  0  0  0  0  0  0  0  0  0  0  0
   -0.4725   14.1226   -3.7043 H   0  0  0  0  0  0  0  0  0  0  0  0
    0.6855   12.9172   -4.4764 H   0  0  0  0  0  0  0  0  0  0  0  0
   -1.2841   11.8961   -3.0568 H   0  0  0  0  0  0  0  0  0  0  0  0
    1.6356   12.5375   -0.3443 H   0  0  0  0  0  0  0  0  0  0  0  0
    2.6524   10.1558   -2.0139 H   0  0  0  0  0  0  0  0  0  0  0  0
    3.5063   10.9579   -0.6216 H   0  0  0  0  0  0  0  0  0  0  0  0
    2.4499    8.8190    0.0338 H   0  0  0  0  0  0  0  0  0  0  0  0
    1.7575   10.2444    0.9022 H   0  0  0  0  0  0  0  0  0  0  0  0
   -0.0392    8.7930    0.2500 H   0  0  0  0  0  0  0  0  0  0  0  0
    0.2020    9.0910   -2.4780 H   0  0  0  0  0  0  0  0  0  0  0  0
   -0.4858   10.6579    1.3421 H   0  0  0  0  0  0  0  0  0  0  0  0
   -0.3511   12.2677    0.5567 H   0  0  0  0  0  0  0  0  0  0  0  0
   -1.9223   11.3971    0.5567 H   0  0  0  0  0  0  0  0  0  0  0  0
   -2.4805    9.8168   -0.6475 H   0  0  0  0  0  0  0  0  0  0  0  0
   -2.2239   10.8771   -2.0746 H   0  0  0  0  0  0  0  0  0  0  0  0
   -1.5808    9.1999   -2.0746 H   0  0  0  0  0  0  0  0  0  0  0  0
    3.8882   11.5017   -2.9767 H   0  0  0  0  0  0  0  0  0  0  0  0
    2.4385   11.7486   -4.0083 H   0  0  0  0  0  0  0  0  0  0  0  0
    3.7589   12.9665   -4.0083 H   0  0  0  0  0  0  0  0  0  0  0  0
    4.0199   12.9669   -0.6703 H   0  0  0  0  0  0  0  0  0  0  0  0
    4.3747   14.0388   -2.1400 H   0  0  0  0  0  0  0  0  0  0  0  0
    2.6196   14.6910    0.2433 H   0  0  0  0  0  0  0  0  0  0  0  0
    4.1802   15.4567   -0.2526 H   0  0  0  0  0  0  0  0  0  0  0  0
    4.3823   16.8244   -2.2213 H   0  0  0  0  0  0  0  0  0  0  0  0
    3.7138   15.5305   -3.2727 H   0  0  0  0  0  0  0  0  0  0  0  0
    2.9659   17.1637   -3.2727 H   0  0  0  0  0  0  0  0  0  0  0  0
  1  2  1  0
  2  3  1  0
  3  4  1  0
  4  5  1  0
  5  6  1  0
  6  7  1  0
  7  8  1  0
  7  9  1  0
  2 10  1  0
 10 11  1  0
 11 12  1  0
 12 13  1  0
 13 14  1  1
 13 15  1  0
 15 16  1  0
 16 17  1  0
 17 18  2  0
 18 19  1  0
 19 20  1  0
 20 21  1  0
 21 22  1  0
 22 23  1  0
 22 24  1  0
 24 25  1  0
 24 26  1  0
 19 27  1  0
 27 28  1  6
 27 29  1  0
 29 30  1  0
 30 31  1  0
 31 32  1  6
  7  5  1  0
 31 10  1  0
 31 13  1  0
 27 15  1  0
 24 18  1  0
  1 33  1  0
  1 34  1  0
  1 35  1  0
  2 36  1  6
  3 37  1  0
  3 38  1  0
  4 39  1  0
  4 40  1  0
  5 41  1  6
  8 42  1  0
  8 43  1  0
  8 44  1  0
  9 45  1  0
  9 46  1  0
  9 47  1  0
 10 48  1  1
 11 49  1  0
 11 50  1  0
 12 51  1  0
 12 52  1  0
 14 53  1  0
 14 54  1  0
 14 55  1  0
 15 56  1  6
 16 57  1  0
 16 58  1  0
 17 59  1  0
 19 60  1  1
 20 61  1  0
 20 62  1  0
 21 63  1  0
 21 64  1  0
 22 65  1  1
 23 66  1  0
 25 67  1  0
 25 68  1  0
 25 69  1  0
 26 70  1  0
 26 71  1  0
 26 72  1  0
 28 73  1  0
 28 74  1  0
 28 75  1  0
 29 76  1  0
 29 77  1  0
 30 78  1  0
 30 79  1  0
 32 80  1  0
 32 81  1  0
 32 82  1  0
M  END
>  <meeko>  (1) 
{"is_sidechain": [false], "intermolecular_energy": 2.731, "internal_energy": -0.839}

$$$$
EPH_relaxed_0001_pdb2pqr_Repair_160_r2_0001_out
     RDKit          3D

 82 86  0  0  0  0  0  0  0  0999 V2000
    4.2360   17.7100    0.6090 C   0  0  0  0  0  0  0  0  0  0  0  0
    2.9490   18.3200    0.0470 C   0  0  2  0  0  0  0  0  0  0  0  0
    2.3540   19.3880    0.9860 C   0  0  0  0  0  0  0  0  0  0  0  0
    3.4080   20.1760    1.7680 C   0  0  0  0  0  0  0  0  0  0  0  0
    3.9340   19.3930    2.9330 C   0  0  2  0  0  0  0  0  0  0  0  0
    4.4040   20.1900    4.0270 O   0  0  0  0  0  0  0  0  0  0  0  0
    5.3920   19.3940    3.3530 C   0  0  0  0  0  0  0  0  0  0  0  0
    6.4160   20.1940    2.6110 C   0  0  0  0  0  0  0  0  0  0  0  0
    5.9020   18.2480    4.1690 C   0  0  0  0  0  0  0  0  0  0  0  0
    1.9230   17.2220   -0.2100 C   0  0  1  0  0  0  0  0  0  0  0  0
    0.6220   17.7610   -0.8630 C   0  0  0  0  0  0  0  0  0  0  0  0
    0.1160   16.6580   -1.8270 C   0  0  0  0  0  0  0  0  0  0  0  0
    0.9420   15.4050   -1.4550 C   0  0  1  0  0  0  0  0  0  0  0  0
    0.2290   14.8120   -0.2000 C   0  0  0  0  0  0  0  0  0  0  0  0
    1.1170   14.3330   -2.5800 C   0  0  2  0  0  0  0  0  0  0  0  0
   -0.1880   13.6820   -3.0700 C   0  0  0  0  0  0  0  0  0  0  0  0
   -0.5950   12.4440   -2.3420 C   0  0  0  0  0  0  0  0  0  0  0  0
    0.1960   11.7170   -1.5320 C   0  0  0  0  0  0  0  0  0  0  0  0
    1.6790   12.0690   -1.3560 C   0  0  1  0  0  0  0  0  0  0  0  0
    2.5340   10.7800   -1.4690 C   0  0  0  0  0  0  0  0  0  0  0  0
    2.0760    9.6880   -0.5080 C   0  0  0  0  0  0  0  0  0  0  0  0
    0.6140    9.3240   -0.7520 C   0  0  2  0  0  0  0  0  0  0  0  0
    0.5010    8.7070   -2.0380 O   0  0  0  0  0  0  0  0  0  0  0  0
   -0.3430   10.5470   -0.6730 C   0  0  0  0  0  0  0  0  0  0  0  0
   -0.4500   11.0300    0.7950 C   0  0  0  0  0  0  0  0  0  0  0  0
   -1.7630   10.0680   -1.0770 C   0  0  0  0  0  0  0  0  0  0  0  0
    2.2260   13.2460   -2.2740 C   0  0  1  0  0  0  0  0  0  0  0  0
    2.6850   12.6780   -3.6510 C   0  0  0  0  0  0  0  0  0  0  0  0
    3.5060   13.8700   -1.6020 C   0  0  0  0  0  0  0  0  0  0  0  0
    3.2740   15.0060   -0.5870 C   0  0  0  0  0  0  0  0  0  0  0  0
    2.3360   16.0720   -1.1620 C   0  0  2  0  0  0  0  0  0  0  0  0
    3.0370   16.7020   -2.4130 C   0  0  0  0  0  0  0  0  0  0  0  0
    4.2002   17.7270    1.7083 H   0  0  0  0  0  0  0  0  0  0  0  0
    4.3315   16.6708    0.2612 H   0  0  0  0  0  0  0  0  0  0  0  0
    5.1009   18.2940    0.2612 H   0  0  0  0  0  0  0  0  0  0  0  0
    3.2049   18.8189   -0.8993 H   0  0  0  0  0  0  0  0  0  0  0  0
    1.7696   20.0962    0.3803 H   0  0  0  0  0  0  0  0  0  0  0  0
    1.7354   18.8576    1.7250 H   0  0  0  0  0  0  0  0  0  0  0  0
    4.2436   20.4187    1.0951 H   0  0  0  0  0  0  0  0  0  0  0  0
    2.9352   21.0907    2.1549 H   0  0  0  0  0  0  0  0  0  0  0  0
    3.2243   18.5765    2.7339 H   0  0  0  0  0  0  0  0  0  0  0  0
    7.0722   20.7066    3.3298 H   0  0  0  0  0  0  0  0  0  0  0  0
    7.0172   19.5240    1.9789 H   0  0  0  0  0  0  0  0  0  0  0  0
    5.9114   20.9395    1.9789 H   0  0  0  0  0  0  0  0  0  0  0  0
    5.7970   18.4839    5.2383 H   0  0  0  0  0  0  0  0  0  0  0  0
    5.3214   17.3437    3.9343 H   0  0  0  0  0  0  0  0  0  0  0  0
    6.9625   18.0740    3.9343 H   0  0  0  0  0  0  0  0  0  0  0  0
    1.8031   16.8381    0.8138 H   0  0  0  0  0  0  0  0  0  0  0  0
   -0.1337   17.9645   -0.0900 H   0  0  0  0  0  0  0  0  0  0  0  0
    0.8106   18.7010   -1.4023 H   0  0  0  0  0  0  0  0  0  0  0  0
   -0.9580   16.4737   -1.6766 H   0  0  0  0  0  0  0  0  0  0  0  0
    0.2382   16.9394   -2.8834 H   0  0  0  0  0  0  0  0  0  0  0  0
    0.7027   15.2060    0.7112 H   0  0  0  0  0  0  0  0  0  0  0  0
   -0.8335   15.0965   -0.2133 H   0  0  0  0  0  0  0  0  0  0  0  0
    0.3151   13.7155   -0.2133 H   0  0  0  0  0  0  0  0  0  0  0  0
    1.4853   14.9354   -3.4235 H   0  0  0  0  0  0  0  0  0  0  0  0
   -0.9967   14.4201   -2.9641 H   0  0  0  0  0  0  0  0  0  0  0  0
   -0.0039   13.3767   -4.1106 H   0  0  0  0  0  0  0  0  0  0  0  0
   -1.6296   12.0965   -2.4794 H   0  0  0  0  0  0  0  0  0  0  0  0
    1.7731   12.4921   -0.3450 H   0  0  0  0  0  0  0  0  0  0  0  0
    2.4610   10.3976   -2.4978 H   0  0  0  0  0  0  0  0  0  0  0  0
    3.5696   11.0424   -1.2070 H   0  0  0  0  0  0  0  0  0  0  0  0
    2.6991    8.7937   -0.6561 H   0  0  0  0  0  0  0  0  0  0  0  0
    2.1775   10.0615    0.5216 H   0  0  0  0  0  0  0  0  0  0  0  0
    0.3078    8.6338    0.0479 H   0  0  0  0  0  0  0  0  0  0  0  0
    0.0820    9.3490   -2.6360 H   0  0  0  0  0  0  0  0  0  0  0  0
   -0.2628   10.1848    1.4737 H   0  0  0  0  0  0  0  0  0  0  0  0
    0.2953   11.8183    0.9769 H   0  0  0  0  0  0  0  0  0  0  0  0
   -1.4585   11.4298    0.9769 H   0  0  0  0  0  0  0  0  0  0  0  0
   -2.3542    9.8686   -0.1711 H   0  0  0  0  0  0  0  0  0  0  0  0
   -2.2576   10.8490   -1.6731 H   0  0  0  0  0  0  0  0  0  0  0  0
   -1.6835    9.1470   -1.6731 H   0  0  0  0  0  0  0  0  0  0  0  0
    3.3688   11.8318   -3.4890 H   0  0  0  0  0  0  0  0  0  0  0  0
    1.8065   12.3362   -4.2179 H   0  0  0  0  0  0  0  0  0  0  0  0
    3.2036   13.4652   -4.2179 H   0  0  0  0  0  0  0  0  0  0  0  0
    4.0359   13.0600   -1.0795 H   0  0  0  0  0  0  0  0  0  0  0  0
    4.0682   14.3316   -2.4271 H   0  0  0  0  0  0  0  0  0  0  0  0
    2.8258   14.5869    0.3259 H   0  0  0  0  0  0  0  0  0  0  0  0
    4.2420   15.4764   -0.3597 H   0  0  0  0  0  0  0  0  0  0  0  0
    3.8172   17.4032   -2.0818 H   0  0  0  0  0  0  0  0  0  0  0  0
    3.4934   15.9046   -3.0179 H   0  0  0  0  0  0  0  0  0  0  0  0
    2.2927   17.2407   -3.0179 H   0  0  0  0  0  0  0  0  0  0  0  0
  1  2  1  0
  2  3  1  0
  3  4  1  0
  4  5  1  0
  5  6  1  0
  6  7  1  0
  7  8  1  0
  7  9  1  0
  2 10  1  0
 10 11  1  0
 11 12  1  0
 12 13  1  0
 13 14  1  1
 13 15  1  0
 15 16  1  0
 16 17  1  0
 17 18  2  0
 18 19  1  0
 19 20  1  0
 20 21  1  0
 21 22  1  0
 22 23  1  0
 22 24  1  0
 24 25  1  0
 24 26  1  0
 19 27  1  0
 27 28  1  6
 27 29  1  0
 29 30  1  0
 30 31  1  0
 31 32  1  6
  7  5  1  0
 31 10  1  0
 31 13  1  0
 27 15  1  0
 24 18  1  0
  1 33  1  0
  1 34  1  0
  1 35  1  0
  2 36  1  6
  3 37  1  0
  3 38  1  0
  4 39  1  0
  4 40  1  0
  5 41  1  1
  8 42  1  0
  8 43  1  0
  8 44  1  0
  9 45  1  0
  9 46  1  0
  9 47  1  0
 10 48  1  1
 11 49  1  0
 11 50  1  0
 12 51  1  0
 12 52  1  0
 14 53  1  0
 14 54  1  0
 14 55  1  0
 15 56  1  6
 16 57  1  0
 16 58  1  0
 17 59  1  0
 19 60  1  1
 20 61  1  0
 20 62  1  0
 21 63  1  0
 21 64  1  0
 22 65  1  1
 23 66  1  0
 25 67  1  0
 25 68  1  0
 25 69  1  0
 26 70  1  0
 26 71  1  0
 26 72  1  0
 28 73  1  0
 28 74  1  0
 28 75  1  0
 29 76  1  0
 29 77  1  0
 30 78  1  0
 30 79  1  0
 32 80  1  0
 32 81  1  0
 32 82  1  0
M  END
>  <meeko>  (2) 
{"is_sidechain": [false], "intermolecular_energy": 2.731, "internal_energy": -0.839}

$$$$
EPH_relaxed_0001_pdb2pqr_Repair_160_r2_0001_out
     RDKit          3D

 82 86  0  0  0  0  0  0  0  0999 V2000
    2.3210   17.2850   -0.0740 C   0  0  0  0  0  0  0  0  0  0  0  0
    1.8840   17.3860   -1.5380 C   0  0  2  0  0  0  0  0  0  0  0  0
    1.0460   18.6520   -1.8080 C   0  0  0  0  0  0  0  0  0  0  0  0
    1.0300   19.6400   -0.6390 C   0  0  0  0  0  0  0  0  0  0  0  0
   -0.3490   20.1640   -0.3740 C   0  0  2  0  0  0  0  0  0  0  0  0
   -0.7230   20.1940    1.0090 O   0  0  0  0  0  0  0  0  0  0  0  0
   -1.4790   19.3090    0.1670 C   0  0  0  0  0  0  0  0  0  0  0  0
   -1.2810   17.8580    0.4760 C   0  0  0  0  0  0  0  0  0  0  0  0
   -2.8890   19.7550   -0.0650 C   0  0  0  0  0  0  0  0  0  0  0  0
    1.0940   16.1440   -1.9320 C   0  0  1  0  0  0  0  0  0  0  0  0
    0.5020   16.2410   -3.3630 C   0  0  0  0  0  0  0  0  0  0  0  0
    0.5440   14.8110   -3.9620 C   0  0  0  0  0  0  0  0  0  0  0  0
    0.8440   13.8910   -2.7560 C   0  0  1  0  0  0  0  0  0  0  0  0
   -0.5350   13.6910   -2.0520 C   0  0  0  0  0  0  0  0  0  0  0  0
    1.5280   12.5240   -3.0820 C   0  0  2  0  0  0  0  0  0  0  0  0
    0.7030   11.5760   -3.9700 C   0  0  0  0  0  0  0  0  0  0  0  0
   -0.1920   10.6330   -3.2350 C   0  0  0  0  0  0  0  0  0  0  0  0
   -0.1210   10.3510   -1.9210 C   0  0  0  0  0  0  0  0  0  0  0  0
    0.9990   10.9340   -1.0500 C   0  0  1  0  0  0  0  0  0  0  0  0
    1.6040    9.8130   -0.1650 C   0  0  0  0  0  0  0  0  0  0  0  0
    0.5470    9.0810    0.6560 C   0  0  0  0  0  0  0  0  0  0  0  0
   -0.5170    8.4660   -0.2490 C   0  0  2  0  0  0  0  0  0  0  0  0
    0.0840    7.4240   -1.0250 O   0  0  0  0  0  0  0  0  0  0  0  0
   -1.1900    9.5000   -1.1940 C   0  0  0  0  0  0  0  0  0  0  0  0
   -2.0900   10.4520   -0.3670 C   0  0  0  0  0  0  0  0  0  0  0  0
   -2.1390    8.7260   -2.1490 C   0  0  0  0  0  0  0  0  0  0  0  0
    2.1100   11.7720   -1.8180 C   0  0  1  0  0  0  0  0  0  0  0  0
    3.2280   10.8190   -2.3410 C   0  0  0  0  0  0  0  0  0  0  0  0
    2.8050   12.7560   -0.8030 C   0  0  0  0  0  0  0  0  0  0  0  0
    2.1470   14.1360   -0.6140 C   0  0  0  0  0  0  0  0  0  0  0  0
    1.8570   14.7960   -1.9650 C   0  0  2  0  0  0  0  0  0  0  0  0
    3.2280   15.0300   -2.6870 C   0  0  0  0  0  0  0  0  0  0  0  0
    1.4595   17.4841    0.5804 H   0  0  0  0  0  0  0  0  0  0  0  0
    2.7065   16.2741    0.1247 H   0  0  0  0  0  0  0  0  0  0  0  0
    3.1110   18.0242    0.1247 H   0  0  0  0  0  0  0  0  0  0  0  0
    2.7948   17.4564   -2.1508 H   0  0  0  0  0  0  0  0  0  0  0  0
    1.4624   19.1628   -2.6888 H   0  0  0  0  0  0  0  0  0  0  0  0
    0.0082   18.3231   -1.9653 H   0  0  0  0  0  0  0  0  0  0  0  0
    1.3969   19.1298    0.2638 H   0  0  0  0  0  0  0  0  0  0  0  0
    1.6755   20.4913   -0.9010 H   0  0  0  0  0  0  0  0  0  0  0  0
   -0.2840   20.8390   -1.2401 H   0  0  0  0  0  0  0  0  0  0  0  0
   -1.2614   17.7147    1.5664 H   0  0  0  0  0  0  0  0  0  0  0  0
   -2.1079   17.2750    0.0443 H   0  0  0  0  0  0  0  0  0  0  0  0
   -0.3281   17.5179    0.0443 H   0  0  0  0  0  0  0  0  0  0  0  0
   -3.3876   19.9127    0.9027 H   0  0  0  0  0  0  0  0  0  0  0  0
   -2.8869   20.6963   -0.6341 H   0  0  0  0  0  0  0  0  0  0  0  0
   -3.4286   18.9837   -0.6341 H   0  0  0  0  0  0  0  0  0  0  0  0
    0.3498   16.1351   -1.1220 H   0  0  0  0  0  0  0  0  0  0  0  0
   -0.5357   16.6034   -3.3200 H   0  0  0  0  0  0  0  0  0  0  0  0
    1.0772   16.9456   -3.9816 H   0  0  0  0  0  0  0  0  0  0  0  0
   -0.4236   14.5520   -4.4167 H   0  0  0  0  0  0  0  0  0  0  0  0
    1.2973   14.7142   -4.7577 H   0  0  0  0  0  0  0  0  0  0  0  0
   -0.3961   13.7112   -0.9610 H   0  0  0  0  0  0  0  0  0  0  0  0
   -1.2192   14.4993   -2.3495 H   0  0  0  0  0  0  0  0  0  0  0  0
   -0.9614   12.7216   -2.3495 H   0  0  0  0  0  0  0  0  0  0  0  0
    2.3887   12.8321   -3.6938 H   0  0  0  0  0  0  0  0  0  0  0  0
    0.0776   12.1904   -4.6344 H   0  0  0  0  0  0  0  0  0  0  0  0
    1.4312   10.9498   -4.5063 H   0  0  0  0  0  0  0  0  0  0  0  0
   -0.9757   10.1260   -3.8170 H   0  0  0  0  0  0  0  0  0  0  0  0
    0.5241   11.6957   -0.4142 H   0  0  0  0  0  0  0  0  0  0  0  0
    2.1114    9.0854   -0.8155 H   0  0  0  0  0  0  0  0  0  0  0  0
    2.3053   10.2852    0.5387 H   0  0  0  0  0  0  0  0  0  0  0  0
    1.0315    8.2820    1.2364 H   0  0  0  0  0  0  0  0  0  0  0  0
    0.0613    9.8040    1.3279 H   0  0  0  0  0  0  0  0  0  0  0  0
   -1.3126    8.0700    0.3992 H   0  0  0  0  0  0  0  0  0  0  0  0
   -0.6130    7.0260   -1.5720 H   0  0  0  0  0  0  0  0  0  0  0  0
   -1.9227   10.2750    0.7057 H   0  0  0  0  0  0  0  0  0  0  0  0
   -1.8405   11.4955   -0.6098 H   0  0  0  0  0  0  0  0  0  0  0  0
   -3.1458   10.2614   -0.6098 H   0  0  0  0  0  0  0  0  0  0  0  0
   -2.8573    8.1402   -1.5567 H   0  0  0  0  0  0  0  0  0  0  0  0
   -2.6836    9.4408   -2.7834 H   0  0  0  0  0  0  0  0  0  0  0  0
   -1.5483    8.0488   -2.7834 H   0  0  0  0  0  0  0  0  0  0  0  0
    3.7556   10.3693   -1.4870 H   0  0  0  0  0  0  0  0  0  0  0  0
    2.7759   10.0242   -2.9525 H   0  0  0  0  0  0  0  0  0  0  0  0
    3.9412   11.3913   -2.9525 H   0  0  0  0  0  0  0  0  0  0  0  0
    2.8274   12.2605    0.1788 H   0  0  0  0  0  0  0  0  0  0  0  0
    3.7944   12.9652   -1.2358 H   0  0  0  0  0  0  0  0  0  0  0  0
    1.2023   14.0117   -0.0643 H   0  0  0  0  0  0  0  0  0  0  0  0
    2.8389   14.7797   -0.0511 H   0  0  0  0  0  0  0  0  0  0  0  0
    4.0198   15.1651   -1.9355 H   0  0  0  0  0  0  0  0  0  0  0  0
    3.4644   14.1592   -3.3162 H   0  0  0  0  0  0  0  0  0  0  0  0
    3.1622   15.9299   -3.3162 H   0  0  0  0  0  0  0  0  0  0  0  0
  1  2  1  0
  2  3  1  0
  3  4  1  0
  4  5  1  0
  5  6  1  0
  6  7  1  0
  7  8  1  0
  7  9  1  0
  2 10  1  0
 10 11  1  0
 11 12  1  0
 12 13  1  0
 13 14  1  1
 13 15  1  0
 15 16  1  0
 16 17  1  0
 17 18  2  0
 18 19  1  0
 19 20  1  0
 20 21  1  0
 21 22  1  0
 22 23  1  0
 22 24  1  0
 24 25  1  0
 24 26  1  0
 19 27  1  0
 27 28  1  6
 27 29  1  0
 29 30  1  0
 30 31  1  0
 31 32  1  6
  7  5  1  0
 31 10  1  0
 31 13  1  0
 27 15  1  0
 24 18  1  0
  1 33  1  0
  1 34  1  0
  1 35  1  0
  2 36  1  6
  3 37  1  0
  3 38  1  0
  4 39  1  0
  4 40  1  0
  5 41  1  6
  8 42  1  0
  8 43  1  0
  8 44  1  0
  9 45  1  0
  9 46  1  0
  9 47  1  0
 10 48  1  1
 11 49  1  0
 11 50  1  0
 12 51  1  0
 12 52  1  0
 14 53  1  0
 14 54  1  0
 14 55  1  0
 15 56  1  6
 16 57  1  0
 16 58  1  0
 17 59  1  0
 19 60  1  1
 20 61  1  0
 20 62  1  0
 21 63  1  0
 21 64  1  0
 22 65  1  1
 23 66  1  0
 25 67  1  0
 25 68  1  0
 25 69  1  0
 26 70  1  0
 26 71  1  0
 26 72  1  0
 28 73  1  0
 28 74  1  0
 28 75  1  0
 29 76  1  0
 29 77  1  0
 30 78  1  0
 30 79  1  0
 32 80  1  0
 32 81  1  0
 32 82  1  0
M  END
>  <meeko>  (3) 
{"is_sidechain": [false], "intermolecular_energy": 2.731, "internal_energy": -0.839}

$$$$
EPH_relaxed_0001_pdb2pqr_Repair_160_r2_0001_out
     RDKit          3D

 82 86  0  0  0  0  0  0  0  0999 V2000
    1.7090   18.5670   -1.5480 C   0  0  0  0  0  0  0  0  0  0  0  0
    1.6670   17.4100   -0.5460 C   0  0  2  0  0  0  0  0  0  0  0  0
    3.0770   16.9950   -0.0790 C   0  0  0  0  0  0  0  0  0  0  0  0
    3.9770   18.1790    0.2860 C   0  0  0  0  0  0  0  0  0  0  0  0
    3.6990   18.6810    1.6700 C   0  0  2  0  0  0  0  0  0  0  0  0
    3.9970   20.0680    1.8750 O   0  0  0  0  0  0  0  0  0  0  0  0
    4.7840   19.1330    2.6300 C   0  0  0  0  0  0  0  0  0  0  0  0
    6.2290   19.1030    2.2440 C   0  0  0  0  0  0  0  0  0  0  0  0
    4.4840   19.1390    4.0970 C   0  0  0  0  0  0  0  0  0  0  0  0
    0.9500   16.2140   -1.1620 C   0  0  1  0  0  0  0  0  0  0  0  0
    0.4610   16.4910   -2.6080 C   0  0  0  0  0  0  0  0  0  0  0  0
    0.5950   15.1580   -3.3890 C   0  0  0  0  0  0  0  0  0  0  0  0
    0.8370   14.0900   -2.2970 C   0  0  1  0  0  0  0  0  0  0  0  0
   -0.5820   13.7630   -1.7340 C   0  0  0  0  0  0  0  0  0  0  0  0
    1.5900   12.7970   -2.7510 C   0  0  2  0  0  0  0  0  0  0  0  0
    0.8630   11.9590   -3.8180 C   0  0  0  0  0  0  0  0  0  0  0  0
   -0.0490   10.9030   -3.2880 C   0  0  0  0  0  0  0  0  0  0  0  0
   -0.0640   10.4470   -2.0220 C   0  0  0  0  0  0  0  0  0  0  0  0
    0.9690   10.9320   -0.9970 C   0  0  1  0  0  0  0  0  0  0  0  0
    1.5460    9.7150   -0.2270 C   0  0  0  0  0  0  0  0  0  0  0  0
    0.4570    8.8530    0.4050 C   0  0  0  0  0  0  0  0  0  0  0  0
   -0.5170    8.3420   -0.6530 C   0  0  2  0  0  0  0  0  0  0  0  0
    0.1740    7.4310   -1.5130 O   0  0  0  0  0  0  0  0  0  0  0  0
   -1.1550    9.4790   -1.4990 C   0  0  0  0  0  0  0  0  0  0  0  0
   -2.1430   10.2880   -0.6240 C   0  0  0  0  0  0  0  0  0  0  0  0
   -2.0050    8.8210   -2.6190 C   0  0  0  0  0  0  0  0  0  0  0  0
    2.1030   11.8930   -1.5580 C   0  0  1  0  0  0  0  0  0  0  0  0
    3.2880   11.0470   -2.1180 C   0  0  0  0  0  0  0  0  0  0  0  0
    2.6890   12.7460   -0.3710 C   0  0  0  0  0  0  0  0  0  0  0  0
    1.9730   14.0710   -0.0480 C   0  0  0  0  0  0  0  0  0  0  0  0
    1.7590   14.9020   -1.3170 C   0  0  2  0  0  0  0  0  0  0  0  0
    3.1700   15.2650   -1.8940 C   0  0  0  0  0  0  0  0  0  0  0  0
    1.7437   19.5223   -1.0038 H   0  0  0  0  0  0  0  0  0  0  0  0
    2.6043   18.4724   -2.1800 H   0  0  0  0  0  0  0  0  0  0  0  0
    0.8092   18.5375   -2.1800 H   0  0  0  0  0  0  0  0  0  0  0  0
    1.1149   17.7590    0.3391 H   0  0  0  0  0  0  0  0  0  0  0  0
    2.9741   16.3508    0.8067 H   0  0  0  0  0  0  0  0  0  0  0  0
    3.5553   16.4752   -0.9222 H   0  0  0  0  0  0  0  0  0  0  0  0
    5.0279   17.8593    0.2272 H   0  0  0  0  0  0  0  0  0  0  0  0
    3.7730   18.9956   -0.4222 H   0  0  0  0  0  0  0  0  0  0  0  0
    2.8609   17.9774    1.7820 H   0  0  0  0  0  0  0  0  0  0  0  0
    6.8507   19.0901    3.1514 H   0  0  0  0  0  0  0  0  0  0  0  0
    6.4308   18.2005    1.6484 H   0  0  0  0  0  0  0  0  0  0  0  0
    6.4680   19.9964    1.6484 H   0  0  0  0  0  0  0  0  0  0  0  0
    5.4264   19.1202    4.6640 H   0  0  0  0  0  0  0  0  0  0  0  0
    3.9206   20.0486    4.3523 H   0  0  0  0  0  0  0  0  0  0  0  0
    3.8847   18.2527    4.3523 H   0  0  0  0  0  0  0  0  0  0  0  0
    0.1497   16.0767   -0.4199 H   0  0  0  0  0  0  0  0  0  0  0  0
   -0.5888   16.8193   -2.5964 H   0  0  0  0  0  0  0  0  0  0  0  0
    1.0557   17.2868   -3.0803 H   0  0  0  0  0  0  0  0  0  0  0  0
   -0.3274   14.9405   -3.9475 H   0  0  0  0  0  0  0  0  0  0  0  0
    1.4068   15.1883   -4.1306 H   0  0  0  0  0  0  0  0  0  0  0  0
   -0.5508   13.7702   -0.6345 H   0  0  0  0  0  0  0  0  0  0  0  0
   -1.2992   14.5194   -2.0854 H   0  0  0  0  0  0  0  0  0  0  0  0
   -0.8958   12.7690   -2.0854 H   0  0  0  0  0  0  0  0  0  0  0  0
    2.4818   13.2061   -3.2483 H   0  0  0  0  0  0  0  0  0  0  0  0
    0.2660   12.6433   -4.4387 H   0  0  0  0  0  0  0  0  0  0  0  0
    1.6491   11.4295   -4.3763 H   0  0  0  0  0  0  0  0  0  0  0  0
   -0.7695   10.4602   -3.9914 H   0  0  0  0  0  0  0  0  0  0  0  0
    0.4236   11.5879   -0.3024 H   0  0  0  0  0  0  0  0  0  0  0  0
    2.1235    9.0952   -0.9287 H   0  0  0  0  0  0  0  0  0  0  0  0
    2.1783   10.1029    0.5852 H   0  0  0  0  0  0  0  0  0  0  0  0
    0.9247    7.9941    0.9085 H   0  0  0  0  0  0  0  0  0  0  0  0
   -0.1004    9.4662    1.1284 H   0  0  0  0  0  0  0  0  0  0  0  0
   -1.3437    7.8422   -0.1270 H   0  0  0  0  0  0  0  0  0  0  0  0
    0.0860    7.7620   -2.4230 H   0  0  0  0  0  0  0  0  0  0  0  0
   -1.9235   10.1082    0.4388 H   0  0  0  0  0  0  0  0  0  0  0  0
   -2.0348   11.3602   -0.8445 H   0  0  0  0  0  0  0  0  0  0  0  0
   -3.1728    9.9704   -0.8445 H   0  0  0  0  0  0  0  0  0  0  0  0
   -2.7974    8.2076   -2.1654 H   0  0  0  0  0  0  0  0  0  0  0  0
   -2.4597    9.6048   -3.2426 H   0  0  0  0  0  0  0  0  0  0  0  0
   -1.3601    8.1844   -3.2426 H   0  0  0  0  0  0  0  0  0  0  0  0
    3.8695   10.6318   -1.2817 H   0  0  0  0  0  0  0  0  0  0  0  0
    2.8932   10.2253   -2.7336 H   0  0  0  0  0  0  0  0  0  0  0  0
    3.9369   11.6873   -2.7336 H   0  0  0  0  0  0  0  0  0  0  0  0
    2.6581   12.1218    0.5342 H   0  0  0  0  0  0  0  0  0  0  0  0
    3.6988   13.0365   -0.6965 H   0  0  0  0  0  0  0  0  0  0  0  0
    0.9960   13.8505    0.4068 H   0  0  0  0  0  0  0  0  0  0  0  0
    2.6000   14.6481    0.6476 H   0  0  0  0  0  0  0  0  0  0  0  0
    3.8700   15.4451   -1.0648 H   0  0  0  0  0  0  0  0  0  0  0  0
    3.5390   14.4325   -2.5111 H   0  0  0  0  0  0  0  0  0  0  0  0
    3.0915   16.1722   -2.5111 H   0  0  0  0  0  0  0  0  0  0  0  0
  1  2  1  0
  2  3  1  0
  3  4  1  0
  4  5  1  0
  5  6  1  0
  6  7  1  0
  7  8  1  0
  7  9  1  0
  2 10  1  0
 10 11  1  0
 11 12  1  0
 12 13  1  0
 13 14  1  1
 13 15  1  0
 15 16  1  0
 16 17  1  0
 17 18  2  0
 18 19  1  0
 19 20  1  0
 20 21  1  0
 21 22  1  0
 22 23  1  0
 22 24  1  0
 24 25  1  0
 24 26  1  0
 19 27  1  0
 27 28  1  6
 27 29  1  0
 29 30  1  0
 30 31  1  0
 31 32  1  6
  7  5  1  0
 31 10  1  0
 31 13  1  0
 27 15  1  0
 24 18  1  0
  1 33  1  0
  1 34  1  0
  1 35  1  0
  2 36  1  1
  3 37  1  0
  3 38  1  0
  4 39  1  0
  4 40  1  0
  5 41  1  1
  8 42  1  0
  8 43  1  0
  8 44  1  0
  9 45  1  0
  9 46  1  0
  9 47  1  0
 10 48  1  1
 11 49  1  0
 11 50  1  0
 12 51  1  0
 12 52  1  0
 14 53  1  0
 14 54  1  0
 14 55  1  0
 15 56  1  6
 16 57  1  0
 16 58  1  0
 17 59  1  0
 19 60  1  1
 20 61  1  0
 20 62  1  0
 21 63  1  0
 21 64  1  0
 22 65  1  1
 23 66  1  0
 25 67  1  0
 25 68  1  0
 25 69  1  0
 26 70  1  0
 26 71  1  0
 26 72  1  0
 28 73  1  0
 28 74  1  0
 28 75  1  0
 29 76  1  0
 29 77  1  0
 30 78  1  0
 30 79  1  0
 32 80  1  0
 32 81  1  0
 32 82  1  0
M  END
>  <meeko>  (4) 
{"is_sidechain": [false], "intermolecular_energy": 2.731, "internal_energy": -0.839}

$$$$
EPH_relaxed_0001_pdb2pqr_Repair_160_r2_0001_out
     RDKit          3D

 82 86  0  0  0  0  0  0  0  0999 V2000
   -1.7070    8.5860   -1.9100 C   0  0  0  0  0  0  0  0  0  0  0  0
   -2.1160    9.0460   -0.5080 C   0  0  2  0  0  0  0  0  0  0  0  0
   -3.6240    9.3550   -0.4140 C   0  0  0  0  0  0  0  0  0  0  0  0
   -4.5020    8.1060   -0.2980 C   0  0  0  0  0  0  0  0  0  0  0  0
   -5.2190    7.8110   -1.5810 C   0  0  2  0  0  0  0  0  0  0  0  0
   -6.3450    8.6580   -1.8460 O   0  0  0  0  0  0  0  0  0  0  0  0
   -6.6330    7.2650   -1.6420 C   0  0  0  0  0  0  0  0  0  0  0  0
   -7.4140    6.9810   -0.3980 C   0  0  0  0  0  0  0  0  0  0  0  0
   -7.0720    6.5530   -2.8840 C   0  0  0  0  0  0  0  0  0  0  0  0
   -1.3070   10.2740   -0.1070 C   0  0  1  0  0  0  0  0  0  0  0  0
   -0.3550    9.9990    1.0870 C   0  0  0  0  0  0  0  0  0  0  0  0
    0.9200   10.8470    0.8480 C   0  0  0  0  0  0  0  0  0  0  0  0
    0.5310   11.8250   -0.2850 C   0  0  1  0  0  0  0  0  0  0  0  0
   -0.2510   12.9730    0.4260 C   0  0  0  0  0  0  0  0  0  0  0  0
    1.7070   12.3800   -1.1530 C   0  0  2  0  0  0  0  0  0  0  0  0
    2.7420   13.2230   -0.3880 C   0  0  0  0  0  0  0  0  0  0  0  0
    2.4590   14.6880   -0.3380 C   0  0  0  0  0  0  0  0  0  0  0  0
    1.5790   15.3420   -1.1190 C   0  0  0  0  0  0  0  0  0  0  0  0
    0.8270   14.6130   -2.2400 C   0  0  1  0  0  0  0  0  0  0  0  0
    0.8790   15.4630   -3.5360 C   0  0  0  0  0  0  0  0  0  0  0  0
    0.3720   16.8860   -3.3240 C   0  0  0  0  0  0  0  0  0  0  0  0
    1.1810   17.5980   -2.2420 C   0  0  2  0  0  0  0  0  0  0  0  0
    2.5180   17.7860   -2.7160 O   0  0  0  0  0  0  0  0  0  0  0  0
    1.2090   16.8290   -0.8920 C   0  0  0  0  0  0  0  0  0  0  0  0
   -0.1910   16.8860   -0.2310 C   0  0  0  0  0  0  0  0  0  0  0  0
    2.1720   17.5800    0.0660 C   0  0  0  0  0  0  0  0  0  0  0  0
    1.2470   13.0990   -2.4850 C   0  0  1  0  0  0  0  0  0  0  0  0
    2.4560   13.0350   -3.4670 C   0  0  0  0  0  0  0  0  0  0  0  0
    0.0590   12.3450   -3.1930 C   0  0  0  0  0  0  0  0  0  0  0  0
   -1.0080   11.7160   -2.2770 C   0  0  0  0  0  0  0  0  0  0  0  0
   -0.3570   10.8780   -1.1720 C   0  0  2  0  0  0  0  0  0  0  0  0
    0.4190    9.7020   -1.8570 C   0  0  0  0  0  0  0  0  0  0  0  0
   -0.9781    7.7662   -1.8288 H   0  0  0  0  0  0  0  0  0  0  0  0
   -2.5957    8.2339   -2.4542 H   0  0  0  0  0  0  0  0  0  0  0  0
   -1.2533    9.4275   -2.4542 H   0  0  0  0  0  0  0  0  0  0  0  0
   -1.9050    8.2187    0.1856 H   0  0  0  0  0  0  0  0  0  0  0  0
   -3.7952    9.9834    0.4725 H   0  0  0  0  0  0  0  0  0  0  0  0
   -3.9073    9.8615   -1.3485 H   0  0  0  0  0  0  0  0  0  0  0  0
   -3.8665    7.2463   -0.0390 H   0  0  0  0  0  0  0  0  0  0  0  0
   -5.2559    8.2881    0.4820 H   0  0  0  0  0  0  0  0  0  0  0  0
   -4.2820    7.4877   -2.0580 H   0  0  0  0  0  0  0  0  0  0  0  0
   -6.7950    7.2061    0.4830 H   0  0  0  0  0  0  0  0  0  0  0  0
   -8.3176    7.6081   -0.3812 H   0  0  0  0  0  0  0  0  0  0  0  0
   -7.7037    5.9200   -0.3812 H   0  0  0  0  0  0  0  0  0  0  0  0
   -7.6310    5.6464   -2.6088 H   0  0  0  0  0  0  0  0  0  0  0  0
   -7.7183    7.2161   -3.4778 H   0  0  0  0  0  0  0  0  0  0  0  0
   -6.1893    6.2734   -3.4778 H   0  0  0  0  0  0  0  0  0  0  0  0
   -2.1282   10.9740    0.1064 H   0  0  0  0  0  0  0  0  0  0  0  0
   -0.8358   10.2959    2.0308 H   0  0  0  0  0  0  0  0  0  0  0  0
   -0.1097    8.9290    1.1578 H   0  0  0  0  0  0  0  0  0  0  0  0
    1.1963   11.3982    1.7590 H   0  0  0  0  0  0  0  0  0  0  0  0
    1.7898   10.2274    0.5841 H   0  0  0  0  0  0  0  0  0  0  0  0
   -0.1687   12.8522    1.5162 H   0  0  0  0  0  0  0  0  0  0  0  0
    0.1745   13.9437    0.1315 H   0  0  0  0  0  0  0  0  0  0  0  0
   -1.3101   12.9324    0.1315 H   0  0  0  0  0  0  0  0  0  0  0  0
    2.2325   11.4610   -1.4517 H   0  0  0  0  0  0  0  0  0  0  0  0
    2.7871   12.8500    0.6458 H   0  0  0  0  0  0  0  0  0  0  0  0
    3.6890   13.1143   -0.9370 H   0  0  0  0  0  0  0  0  0  0  0  0
    3.0169   15.2835    0.3996 H   0  0  0  0  0  0  0  0  0  0  0  0
   -0.2141   14.5189   -1.8976 H   0  0  0  0  0  0  0  0  0  0  0  0
    1.9208   15.5085   -3.8861 H   0  0  0  0  0  0  0  0  0  0  0  0
    0.2232   14.9822   -4.2767 H   0  0  0  0  0  0  0  0  0  0  0  0
    0.4623   17.4446   -4.2673 H   0  0  0  0  0  0  0  0  0  0  0  0
   -0.6792   16.8401   -3.0034 H   0  0  0  0  0  0  0  0  0  0  0  0
    0.6900   18.5621   -2.0433 H   0  0  0  0  0  0  0  0  0  0  0  0
    3.0290   18.1990   -2.0000 H   0  0  0  0  0  0  0  0  0  0  0  0
   -0.0802   16.8815    0.8634 H   0  0  0  0  0  0  0  0  0  0  0  0
   -0.7069   17.8059   -0.5435 H   0  0  0  0  0  0  0  0  0  0  0  0
   -0.7799   16.0111   -0.5435 H   0  0  0  0  0  0  0  0  0  0  0  0
    1.8947   17.3638    1.1083 H   0  0  0  0  0  0  0  0  0  0  0  0
    3.2042   17.2460   -0.1157 H   0  0  0  0  0  0  0  0  0  0  0  0
    2.0996   18.6625   -0.1157 H   0  0  0  0  0  0  0  0  0  0  0  0
    3.3928   12.9854   -2.8925 H   0  0  0  0  0  0  0  0  0  0  0  0
    2.3667   12.1403   -4.1007 H   0  0  0  0  0  0  0  0  0  0  0  0
    2.4617   13.9341   -4.1007 H   0  0  0  0  0  0  0  0  0  0  0  0
   -0.4493   13.0667   -3.8493 H   0  0  0  0  0  0  0  0  0  0  0  0
    0.5264   11.4971   -3.7152 H   0  0  0  0  0  0  0  0  0  0  0  0
   -1.6047   12.5173   -1.8167 H   0  0  0  0  0  0  0  0  0  0  0  0
   -1.6484   11.0592   -2.8841 H   0  0  0  0  0  0  0  0  0  0  0  0
    0.8504    9.0483   -1.0846 H   0  0  0  0  0  0  0  0  0  0  0  0
   -0.2739    9.1213   -2.4837 H   0  0  0  0  0  0  0  0  0  0  0  0
    1.2254   10.1107   -2.4837 H   0  0  0  0  0  0  0  0  0  0  0  0
  1  2  1  0
  2  3  1  0
  3  4  1  0
  4  5  1  0
  5  6  1  0
  6  7  1  0
  7  8  1  0
  7  9  1  0
  2 10  1  0
 10 11  1  0
 11 12  1  0
 12 13  1  0
 13 14  1  1
 13 15  1  0
 15 16  1  0
 16 17  1  0
 17 18  2  0
 18 19  1  0
 19 20  1  0
 20 21  1  0
 21 22  1  0
 22 23  1  0
 22 24  1  0
 24 25  1  0
 24 26  1  0
 19 27  1  0
 27 28  1  6
 27 29  1  0
 29 30  1  0
 30 31  1  0
 31 32  1  6
  7  5  1  0
 31 10  1  0
 31 13  1  0
 27 15  1  0
 24 18  1  0
  1 33  1  0
  1 34  1  0
  1 35  1  0
  2 36  1  1
  3 37  1  0
  3 38  1  0
  4 39  1  0
  4 40  1  0
  5 41  1  6
  8 42  1  0
  8 43  1  0
  8 44  1  0
  9 45  1  0
  9 46  1  0
  9 47  1  0
 10 48  1  1
 11 49  1  0
 11 50  1  0
 12 51  1  0
 12 52  1  0
 14 53  1  0
 14 54  1  0
 14 55  1  0
 15 56  1  6
 16 57  1  0
 16 58  1  0
 17 59  1  0
 19 60  1  1
 20 61  1  0
 20 62  1  0
 21 63  1  0
 21 64  1  0
 22 65  1  1
 23 66  1  0
 25 67  1  0
 25 68  1  0
 25 69  1  0
 26 70  1  0
 26 71  1  0
 26 72  1  0
 28 73  1  0
 28 74  1  0
 28 75  1  0
 29 76  1  0
 29 77  1  0
 30 78  1  0
 30 79  1  0
 32 80  1  0
 32 81  1  0
 32 82  1  0
M  END
>  <meeko>  (5) 
{"is_sidechain": [false], "intermolecular_energy": 2.731, "internal_energy": -0.839}

$$$$
EPH_relaxed_0001_pdb2pqr_Repair_160_r2_0001_out
     RDKit          3D

 82 86  0  0  0  0  0  0  0  0999 V2000
   -2.6090    7.5810   -3.0530 C   0  0  0  0  0  0  0  0  0  0  0  0
   -2.8980    7.8550   -1.5750 C   0  0  2  0  0  0  0  0  0  0  0  0
   -4.4070    7.8130   -1.2610 C   0  0  0  0  0  0  0  0  0  0  0  0
   -5.1290    6.6080   -1.8710 C   0  0  0  0  0  0  0  0  0  0  0  0
   -6.3200    7.0270   -2.6800 C   0  0  2  0  0  0  0  0  0  0  0  0
   -6.8880    8.2870   -2.3010 O   0  0  0  0  0  0  0  0  0  0  0  0
   -7.7220    7.1330   -2.1110 C   0  0  0  0  0  0  0  0  0  0  0  0
   -8.0080    6.8180   -0.6760 C   0  0  0  0  0  0  0  0  0  0  0  0
   -8.8830    7.0670   -3.0530 C   0  0  0  0  0  0  0  0  0  0  0  0
   -2.3200    9.2070   -1.1750 C   0  0  1  0  0  0  0  0  0  0  0  0
   -2.8390    9.6940    0.2050 C   0  0  0  0  0  0  0  0  0  0  0  0
   -1.6700   10.4580    0.8780 C   0  0  0  0  0  0  0  0  0  0  0  0
   -0.6400   10.6730   -0.2560 C   0  0  1  0  0  0  0  0  0  0  0  0
   -1.1640   11.9150   -1.0430 C   0  0  0  0  0  0  0  0  0  0  0  0
    0.8480   10.8560    0.1880 C   0  0  2  0  0  0  0  0  0  0  0  0
    1.1200   12.0930    1.0630 C   0  0  0  0  0  0  0  0  0  0  0  0
    1.4830   13.3340    0.3170 C   0  0  0  0  0  0  0  0  0  0  0  0
    1.8640   13.3880   -0.9730 C   0  0  0  0  0  0  0  0  0  0  0  0
    2.0550   12.1060   -1.7930 C   0  0  1  0  0  0  0  0  0  0  0  0
    3.3930   12.1850   -2.5740 C   0  0  0  0  0  0  0  0  0  0  0  0
    3.4970   13.4450   -3.4290 C   0  0  0  0  0  0  0  0  0  0  0  0
    3.3610   14.6990   -2.5700 C   0  0  2  0  0  0  0  0  0  0  0  0
    4.4950   14.7880   -1.7010 O   0  0  0  0  0  0  0  0  0  0  0  0
    2.0540   14.7270   -1.7280 C   0  0  0  0  0  0  0  0  0  0  0  0
    0.8380   14.9340   -2.6640 C   0  0  0  0  0  0  0  0  0  0  0  0
    2.1080   15.9730   -0.8040 C   0  0  0  0  0  0  0  0  0  0  0  0
    1.8950   10.7420   -0.9930 C   0  0  1  0  0  0  0  0  0  0  0  0
    3.2560   10.3430   -0.3440 C   0  0  0  0  0  0  0  0  0  0  0  0
    1.5320    9.5920   -2.0050 C   0  0  0  0  0  0  0  0  0  0  0  0
    0.0360    9.3820   -2.3110 C   0  0  0  0  0  0  0  0  0  0  0  0
   -0.7820    9.3060   -1.0190 C   0  0  2  0  0  0  0  0  0  0  0  0
   -0.2920    8.0530   -0.2160 C   0  0  0  0  0  0  0  0  0  0  0  0
   -1.8131    6.8264   -3.1372 H   0  0  0  0  0  0  0  0  0  0  0  0
   -3.5211    7.2081   -3.5420 H   0  0  0  0  0  0  0  0  0  0  0  0
   -2.2852    8.5116   -3.5420 H   0  0  0  0  0  0  0  0  0  0  0  0
   -2.4171    7.0572   -0.9900 H   0  0  0  0  0  0  0  0  0  0  0  0
   -4.5337    7.7775   -0.1689 H   0  0  0  0  0  0  0  0  0  0  0  0
   -4.8534    8.7145   -1.7060 H   0  0  0  0  0  0  0  0  0  0  0  0
   -4.4286    6.0649   -2.5225 H   0  0  0  0  0  0  0  0  0  0  0  0
   -5.4807    5.9667   -1.0494 H   0  0  0  0  0  0  0  0  0  0  0  0
   -5.9219    6.5206   -3.5717 H   0  0  0  0  0  0  0  0  0  0  0  0
   -7.4097    7.4770   -0.0297 H   0  0  0  0  0  0  0  0  0  0  0  0
   -9.0772    6.9765   -0.4719 H   0  0  0  0  0  0  0  0  0  0  0  0
   -7.7473    5.7690   -0.4719 H   0  0  0  0  0  0  0  0  0  0  0  0
   -9.8192    7.0138   -2.4779 H   0  0  0  0  0  0  0  0  0  0  0  0
   -8.8926    7.9661   -3.6867 H   0  0  0  0  0  0  0  0  0  0  0  0
   -8.7906    6.1727   -3.6867 H   0  0  0  0  0  0  0  0  0  0  0  0
   -2.6501    9.8094   -2.0342 H   0  0  0  0  0  0  0  0  0  0  0  0
   -3.7015   10.3634    0.0707 H   0  0  0  0  0  0  0  0  0  0  0  0
   -3.1663    8.8467    0.8254 H   0  0  0  0  0  0  0  0  0  0  0  0
   -2.0155   11.4232    1.2769 H   0  0  0  0  0  0  0  0  0  0  0  0
   -1.2448    9.9047    1.7283 H   0  0  0  0  0  0  0  0  0  0  0  0
   -1.4903   12.6885   -0.3322 H   0  0  0  0  0  0  0  0  0  0  0  0
   -0.3580   12.3150   -1.6757 H   0  0  0  0  0  0  0  0  0  0  0  0
   -2.0130   11.6167   -1.6757 H   0  0  0  0  0  0  0  0  0  0  0  0
    1.0084    9.9861    0.8419 H   0  0  0  0  0  0  0  0  0  0  0  0
    0.2124   12.3015    1.6485 H   0  0  0  0  0  0  0  0  0  0  0  0
    1.9948   11.8424    1.6810 H   0  0  0  0  0  0  0  0  0  0  0  0
    1.4351   14.2848    0.8680 H   0  0  0  0  0  0  0  0  0  0  0  0
    1.2127   12.0682   -2.4995 H   0  0  0  0  0  0  0  0  0  0  0  0
    4.2234   12.1786   -1.8527 H   0  0  0  0  0  0  0  0  0  0  0  0
    3.4375   11.3180   -3.2495 H   0  0  0  0  0  0  0  0  0  0  0  0
    4.4745   13.4583   -3.9334 H   0  0  0  0  0  0  0  0  0  0  0  0
    2.6829   13.4358   -4.1687 H   0  0  0  0  0  0  0  0  0  0  0  0
    3.3135   15.5614   -3.2512 H   0  0  0  0  0  0  0  0  0  0  0  0
    4.7670   15.7210   -1.6670 H   0  0  0  0  0  0  0  0  0  0  0  0
   -0.0680   15.0882   -2.0595 H   0  0  0  0  0  0  0  0  0  0  0  0
    1.0098   15.8158   -3.2987 H   0  0  0  0  0  0  0  0  0  0  0  0
    0.7083   14.0450   -3.2987 H   0  0  0  0  0  0  0  0  0  0  0  0
    2.0940   15.6505    0.2476 H   0  0  0  0  0  0  0  0  0  0  0  0
    3.0314   16.5369   -1.0024 H   0  0  0  0  0  0  0  0  0  0  0  0
    1.2368   16.6146   -1.0024 H   0  0  0  0  0  0  0  0  0  0  0  0
    3.1618   10.3706    0.7516 H   0  0  0  0  0  0  0  0  0  0  0  0
    3.5303    9.3266   -0.6630 H   0  0  0  0  0  0  0  0  0  0  0  0
    4.0357   11.0504   -0.6630 H   0  0  0  0  0  0  0  0  0  0  0  0
    2.0383    9.8136   -2.9561 H   0  0  0  0  0  0  0  0  0  0  0  0
    1.8585    8.6632   -1.5144 H   0  0  0  0  0  0  0  0  0  0  0  0
   -0.3286   10.2232   -2.9188 H   0  0  0  0  0  0  0  0  0  0  0  0
   -0.0808    8.4339   -2.8565 H   0  0  0  0  0  0  0  0  0  0  0  0
   -0.3709    8.2548    0.8625 H   0  0  0  0  0  0  0  0  0  0  0  0
   -0.9170    7.1852   -0.4733 H   0  0  0  0  0  0  0  0  0  0  0  0
    0.7559    7.8394   -0.4733 H   0  0  0  0  0  0  0  0  0  0  0  0
  1  2  1  0
  2  3  1  0
  3  4  1  0
  4  5  1  0
  5  6  1  0
  6  7  1  0
  7  8  1  0
  7  9  1  0
  2 10  1  0
 10 11  1  0
 11 12  1  0
 12 13  1  0
 13 14  1  6
 13 15  1  0
 15 16  1  0
 16 17  1  0
 17 18  2  0
 18 19  1  0
 19 20  1  0
 20 21  1  0
 21 22  1  0
 22 23  1  0
 22 24  1  0
 24 25  1  0
 24 26  1  0
 19 27  1  0
 27 28  1  1
 27 29  1  0
 29 30  1  0
 30 31  1  0
 31 32  1  1
  7  5  1  0
 31 10  1  0
 31 13  1  0
 27 15  1  0
 24 18  1  0
  1 33  1  0
  1 34  1  0
  1 35  1  0
  2 36  1  1
  3 37  1  0
  3 38  1  0
  4 39  1  0
  4 40  1  0
  5 41  1  6
  8 42  1  0
  8 43  1  0
  8 44  1  0
  9 45  1  0
  9 46  1  0
  9 47  1  0
 10 48  1  6
 11 49  1  0
 11 50  1  0
 12 51  1  0
 12 52  1  0
 14 53  1  0
 14 54  1  0
 14 55  1  0
 15 56  1  1
 16 57  1  0
 16 58  1  0
 17 59  1  0
 19 60  1  6
 20 61  1  0
 20 62  1  0
 21 63  1  0
 21 64  1  0
 22 65  1  6
 23 66  1  0
 25 67  1  0
 25 68  1  0
 25 69  1  0
 26 70  1  0
 26 71  1  0
 26 72  1  0
 28 73  1  0
 28 74  1  0
 28 75  1  0
 29 76  1  0
 29 77  1  0
 30 78  1  0
 30 79  1  0
 32 80  1  0
 32 81  1  0
 32 82  1  0
M  END
>  <meeko>  (6) 
{"is_sidechain": [false], "intermolecular_energy": 2.731, "internal_energy": -0.839}

$$$$
EPH_relaxed_0001_pdb2pqr_Repair_160_r2_0001_out
     RDKit          3D

 82 86  0  0  0  0  0  0  0  0999 V2000
    3.4830   17.8030   -1.0470 C   0  0  0  0  0  0  0  0  0  0  0  0
    2.4770   17.3950   -2.1270 C   0  0  2  0  0  0  0  0  0  0  0  0
    1.0490   17.8770   -1.8020 C   0  0  0  0  0  0  0  0  0  0  0  0
    0.9680   18.7710   -0.5610 C   0  0  0  0  0  0  0  0  0  0  0  0
   -0.2460   19.6480   -0.5890 C   0  0  2  0  0  0  0  0  0  0  0  0
   -0.6390   20.1670    0.6890 O   0  0  0  0  0  0  0  0  0  0  0  0
   -1.5660   19.2700    0.0560 C   0  0  0  0  0  0  0  0  0  0  0  0
   -1.7400   17.9680    0.7740 C   0  0  0  0  0  0  0  0  0  0  0  0
   -2.8160   19.9380   -0.4270 C   0  0  0  0  0  0  0  0  0  0  0  0
    2.4890   15.8810   -2.3030 C   0  0  1  0  0  0  0  0  0  0  0  0
    3.9090   15.3240   -2.5890 C   0  0  0  0  0  0  0  0  0  0  0  0
    3.9940   13.9380   -1.9000 C   0  0  0  0  0  0  0  0  0  0  0  0
    2.5320   13.5980   -1.5280 C   0  0  1  0  0  0  0  0  0  0  0  0
    1.9010   13.0450   -2.8440 C   0  0  0  0  0  0  0  0  0  0  0  0
    2.3350   12.6090   -0.3330 C   0  0  2  0  0  0  0  0  0  0  0  0
    2.9120   11.1990   -0.5520 C   0  0  0  0  0  0  0  0  0  0  0  0
    1.9700   10.2120   -1.1590 C   0  0  0  0  0  0  0  0  0  0  0  0
    0.6360   10.3590   -1.2520 C   0  0  0  0  0  0  0  0  0  0  0  0
   -0.0680   11.5710   -0.6280 C   0  0  1  0  0  0  0  0  0  0  0  0
   -1.3170   11.0950    0.1600 C   0  0  0  0  0  0  0  0  0  0  0  0
   -2.2580   10.2470   -0.6900 C   0  0  0  0  0  0  0  0  0  0  0  0
   -1.5360    9.0220   -1.2450 C   0  0  2  0  0  0  0  0  0  0  0  0
   -1.1960    8.1560   -0.1580 O   0  0  0  0  0  0  0  0  0  0  0  0
   -0.2560    9.3770   -2.0510 C   0  0  0  0  0  0  0  0  0  0  0  0
   -0.6520   10.0550   -3.3860 C   0  0  0  0  0  0  0  0  0  0  0  0
    0.4520    8.0490   -2.4330 C   0  0  0  0  0  0  0  0  0  0  0  0
    0.8540   12.5470    0.2210 C   0  0  1  0  0  0  0  0  0  0  0  0
    0.9500   12.0430    1.6930 C   0  0  0  0  0  0  0  0  0  0  0  0
    0.1790   13.9690    0.2820 C   0  0  0  0  0  0  0  0  0  0  0  0
    0.5070   14.9430   -0.8650 C   0  0  0  0  0  0  0  0  0  0  0  0
    2.0180   15.0220   -1.1030 C   0  0  2  0  0  0  0  0  0  0  0  0
    2.6780   15.5960    0.1970 C   0  0  0  0  0  0  0  0  0  0  0  0
    3.0461   17.6258   -0.0532 H   0  0  0  0  0  0  0  0  0  0  0  0
    4.4003   17.2058   -1.1560 H   0  0  0  0  0  0  0  0  0  0  0  0
    3.7252   18.8704   -1.1560 H   0  0  0  0  0  0  0  0  0  0  0  0
    2.7833   17.8805   -3.0653 H   0  0  0  0  0  0  0  0  0  0  0  0
    0.6695   18.4448   -2.6643 H   0  0  0  0  0  0  0  0  0  0  0  0
    0.4473   16.9804   -1.5919 H   0  0  0  0  0  0  0  0  0  0  0  0
    0.9274   18.1343    0.3351 H   0  0  0  0  0  0  0  0  0  0  0  0
    1.8580   19.4173   -0.5450 H   0  0  0  0  0  0  0  0  0  0  0  0
    0.0063   20.0055   -1.5982 H   0  0  0  0  0  0  0  0  0  0  0  0
   -1.7167   18.1421    1.8599 H   0  0  0  0  0  0  0  0  0  0  0  0
   -2.7058   17.5215    0.4949 H   0  0  0  0  0  0  0  0  0  0  0  0
   -0.9253   17.2836    0.4949 H   0  0  0  0  0  0  0  0  0  0  0  0
   -3.4171   20.2593    0.4364 H   0  0  0  0  0  0  0  0  0  0  0  0
   -2.5513   20.8149   -1.0361 H   0  0  0  0  0  0  0  0  0  0  0  0
   -3.3979   19.2306   -1.0361 H   0  0  0  0  0  0  0  0  0  0  0  0
    1.7771   15.7867   -3.1362 H   0  0  0  0  0  0  0  0  0  0  0  0
    4.0629   15.2180   -3.6730 H   0  0  0  0  0  0  0  0  0  0  0  0
    4.6841   16.0036   -2.2051 H   0  0  0  0  0  0  0  0  0  0  0  0
    4.4043   13.1858   -2.5898 H   0  0  0  0  0  0  0  0  0  0  0  0
    4.6567   13.9481   -1.0221 H   0  0  0  0  0  0  0  0  0  0  0  0
    1.0951   12.3387   -2.5956 H   0  0  0  0  0  0  0  0  0  0  0  0
    1.4896   13.8787   -3.4319 H   0  0  0  0  0  0  0  0  0  0  0  0
    2.6735   12.5278   -3.4319 H   0  0  0  0  0  0  0  0  0  0  0  0
    2.9512   13.0662    0.4552 H   0  0  0  0  0  0  0  0  0  0  0  0
    3.7850   11.2881   -1.2153 H   0  0  0  0  0  0  0  0  0  0  0  0
    3.1565   10.8114    0.4480 H   0  0  0  0  0  0  0  0  0  0  0  0
    2.4037    9.2860   -1.5646 H   0  0  0  0  0  0  0  0  0  0  0  0
   -0.3779   12.2090   -1.4688 H   0  0  0  0  0  0  0  0  0  0  0  0
   -0.9837   10.4965    1.0207 H   0  0  0  0  0  0  0  0  0  0  0  0
   -1.8712   11.9901    0.4789 H   0  0  0  0  0  0  0  0  0  0  0  0
   -3.1039    9.9161   -0.0696 H   0  0  0  0  0  0  0  0  0  0  0  0
   -2.6151   10.8564   -1.5333 H   0  0  0  0  0  0  0  0  0  0  0  0
   -2.2210    8.5264   -1.9487 H   0  0  0  0  0  0  0  0  0  0  0  0
   -1.6420    8.4930    0.6370 H   0  0  0  0  0  0  0  0  0  0  0  0
   -1.1966   10.9874   -3.1763 H   0  0  0  0  0  0  0  0  0  0  0  0
    0.2552   10.2825   -3.9649 H   0  0  0  0  0  0  0  0  0  0  0  0
   -1.2959    9.3766   -3.9649 H   0  0  0  0  0  0  0  0  0  0  0  0
    0.7392    7.5102   -1.5180 H   0  0  0  0  0  0  0  0  0  0  0  0
   -0.2334    7.4254   -3.0258 H   0  0  0  0  0  0  0  0  0  0  0  0
    1.3517    8.2705   -3.0258 H   0  0  0  0  0  0  0  0  0  0  0  0
    0.7893   12.8865    2.3806 H   0  0  0  0  0  0  0  0  0  0  0  0
    0.1819   11.2754    1.8686 H   0  0  0  0  0  0  0  0  0  0  0  0
    1.9465   11.6115    1.8686 H   0  0  0  0  0  0  0  0  0  0  0  0
   -0.9108   13.8200    0.2907 H   0  0  0  0  0  0  0  0  0  0  0  0
    0.5867   14.4426    1.1873 H   0  0  0  0  0  0  0  0  0  0  0  0
    0.0157   14.5937   -1.7851 H   0  0  0  0  0  0  0  0  0  0  0  0
    0.1428   15.9438   -0.5898 H   0  0  0  0  0  0  0  0  0  0  0  0
    2.1832   15.1657    1.0802 H   0  0  0  0  0  0  0  0  0  0  0  0
    3.7465   15.3350    0.2117 H   0  0  0  0  0  0  0  0  0  0  0  0
    2.5677   16.6904    0.2117 H   0  0  0  0  0  0  0  0  0  0  0  0
  1  2  1  0
  2  3  1  0
  3  4  1  0
  4  5  1  0
  5  6  1  0
  6  7  1  0
  7  8  1  0
  7  9  1  0
  2 10  1  0
 10 11  1  0
 11 12  1  0
 12 13  1  0
 13 14  1  6
 13 15  1  0
 15 16  1  0
 16 17  1  0
 17 18  2  0
 18 19  1  0
 19 20  1  0
 20 21  1  0
 21 22  1  0
 22 23  1  0
 22 24  1  0
 24 25  1  0
 24 26  1  0
 19 27  1  0
 27 28  1  1
 27 29  1  0
 29 30  1  0
 30 31  1  0
 31 32  1  1
  7  5  1  0
 31 10  1  0
 31 13  1  0
 27 15  1  0
 24 18  1  0
  1 33  1  0
  1 34  1  0
  1 35  1  0
  2 36  1  6
  3 37  1  0
  3 38  1  0
  4 39  1  0
  4 40  1  0
  5 41  1  6
  8 42  1  0
  8 43  1  0
  8 44  1  0
  9 45  1  0
  9 46  1  0
  9 47  1  0
 10 48  1  6
 11 49  1  0
 11 50  1  0
 12 51  1  0
 12 52  1  0
 14 53  1  0
 14 54  1  0
 14 55  1  0
 15 56  1  1
 16 57  1  0
 16 58  1  0
 17 59  1  0
 19 60  1  6
 20 61  1  0
 20 62  1  0
 21 63  1  0
 21 64  1  0
 22 65  1  6
 23 66  1  0
 25 67  1  0
 25 68  1  0
 25 69  1  0
 26 70  1  0
 26 71  1  0
 26 72  1  0
 28 73  1  0
 28 74  1  0
 28 75  1  0
 29 76  1  0
 29 77  1  0
 30 78  1  0
 30 79  1  0
 32 80  1  0
 32 81  1  0
 32 82  1  0
M  END
>  <meeko>  (7) 
{"is_sidechain": [false], "intermolecular_energy": 2.731, "internal_energy": -0.839}

$$$$
EPH_relaxed_0001_pdb2pqr_Repair_160_r2_0001_out
     RDKit          3D

 82 86  0  0  0  0  0  0  0  0999 V2000
    0.8990   18.2220   -2.0820 C   0  0  0  0  0  0  0  0  0  0  0  0
    1.7960   17.4080   -1.1460 C   0  0  2  0  0  0  0  0  0  0  0  0
    3.2180   17.9960   -1.0480 C   0  0  0  0  0  0  0  0  0  0  0  0
    3.8410   17.8730    0.3460 C   0  0  0  0  0  0  0  0  0  0  0  0
    3.3250   18.9280    1.2780 C   0  0  2  0  0  0  0  0  0  0  0  0
    3.9900   20.1940    1.1760 O   0  0  0  0  0  0  0  0  0  0  0  0
    4.1370   19.5000    2.4250 C   0  0  0  0  0  0  0  0  0  0  0  0
    5.5330   19.0340    2.7010 C   0  0  0  0  0  0  0  0  0  0  0  0
    3.4110   20.1460    3.5630 C   0  0  0  0  0  0  0  0  0  0  0  0
    1.8630   15.9600   -1.6180 C   0  0  1  0  0  0  0  0  0  0  0  0
    3.2070   15.6210   -2.3150 C   0  0  0  0  0  0  0  0  0  0  0  0
    3.5410   14.1510   -1.9520 C   0  0  0  0  0  0  0  0  0  0  0  0
    2.2330   13.5940   -1.3420 C   0  0  1  0  0  0  0  0  0  0  0  0
    1.3450   13.2200   -2.5700 C   0  0  0  0  0  0  0  0  0  0  0  0
    2.3890   12.3910   -0.3550 C   0  0  2  0  0  0  0  0  0  0  0  0
    2.9860   11.1140   -0.9720 C   0  0  0  0  0  0  0  0  0  0  0  0
    1.9930   10.1550   -1.5400 C   0  0  0  0  0  0  0  0  0  0  0  0
    0.6680   10.1720   -1.3060 C   0  0  0  0  0  0  0  0  0  0  0  0
    0.0550   11.1690   -0.3140 C   0  0  1  0  0  0  0  0  0  0  0  0
   -0.9370   10.4270    0.6190 C   0  0  0  0  0  0  0  0  0  0  0  0
   -1.9970    9.6490   -0.1540 C   0  0  0  0  0  0  0  0  0  0  0  0
   -1.3510    8.6280   -1.0870 C   0  0  2  0  0  0  0  0  0  0  0  0
   -0.7080    7.6230   -0.2960 O   0  0  0  0  0  0  0  0  0  0  0  0
   -0.3230    9.2580   -2.0680 C   0  0  0  0  0  0  0  0  0  0  0  0
   -1.0670   10.1170   -3.1200 C   0  0  0  0  0  0  0  0  0  0  0  0
    0.3570    8.1040   -2.8530 C   0  0  0  0  0  0  0  0  0  0  0  0
    1.0890   12.0720    0.4880 C   0  0  1  0  0  0  0  0  0  0  0  0
    1.5630   11.3250    1.7720 C   0  0  0  0  0  0  0  0  0  0  0  0
    0.3580   13.3780    0.9780 C   0  0  0  0  0  0  0  0  0  0  0  0
    0.3420   14.5720    0.0050 C   0  0  0  0  0  0  0  0  0  0  0  0
    1.7450   14.8540   -0.5390 C   0  0  2  0  0  0  0  0  0  0  0  0
    2.6560   15.2550    0.6710 C   0  0  0  0  0  0  0  0  0  0  0  0
    0.2145   18.8431   -1.4856 H   0  0  0  0  0  0  0  0  0  0  0  0
    1.5225   18.8690   -2.7165 H   0  0  0  0  0  0  0  0  0  0  0  0
    0.3154   17.5388   -2.7165 H   0  0  0  0  0  0  0  0  0  0  0  0
    1.3505   17.4511   -0.1412 H   0  0  0  0  0  0  0  0  0  0  0  0
    3.8629   17.4662   -1.7645 H   0  0  0  0  0  0  0  0  0  0  0  0
    3.1374   19.0703   -1.2702 H   0  0  0  0  0  0  0  0  0  0  0  0
    3.5985   16.8827    0.7589 H   0  0  0  0  0  0  0  0  0  0  0  0
    4.9289   18.0033    0.2486 H   0  0  0  0  0  0  0  0  0  0  0  0
    2.3097   18.5074    1.2302 H   0  0  0  0  0  0  0  0  0  0  0  0
    5.6935   18.9804    3.7879 H   0  0  0  0  0  0  0  0  0  0  0  0
    5.6811   18.0377    2.2589 H   0  0  0  0  0  0  0  0  0  0  0  0
    6.2499   19.7416    2.2589 H   0  0  0  0  0  0  0  0  0  0  0  0
    3.8223   19.7800    4.5153 H   0  0  0  0  0  0  0  0  0  0  0  0
    3.5356   21.2374    3.5051 H   0  0  0  0  0  0  0  0  0  0  0  0
    2.3415   19.8954    3.5051 H   0  0  0  0  0  0  0  0  0  0  0  0
    0.9815   15.9392   -2.2756 H   0  0  0  0  0  0  0  0  0  0  0  0
    3.1060   15.7284   -3.4051 H   0  0  0  0  0  0  0  0  0  0  0  0
    4.0060   16.3008   -1.9841 H   0  0  0  0  0  0  0  0  0  0  0  0
    3.8230   13.5833   -2.8510 H   0  0  0  0  0  0  0  0  0  0  0  0
    4.3909   14.0751   -1.2579 H   0  0  0  0  0  0  0  0  0  0  0  0
    0.3845   12.8155   -2.2183 H   0  0  0  0  0  0  0  0  0  0  0  0
    1.1638   14.1182   -3.1786 H   0  0  0  0  0  0  0  0  0  0  0  0
    1.8610   12.4628   -3.1786 H   0  0  0  0  0  0  0  0  0  0  0  0
    3.1450   12.7627    0.3523 H   0  0  0  0  0  0  0  0  0  0  0  0
    3.6689   11.4144   -1.7803 H   0  0  0  0  0  0  0  0  0  0  0  0
    3.4847   10.5827   -0.1480 H   0  0  0  0  0  0  0  0  0  0  0  0
    2.3768    9.3681   -2.2060 H   0  0  0  0  0  0  0  0  0  0  0  0
   -0.4870   11.9092   -0.9210 H   0  0  0  0  0  0  0  0  0  0  0  0
   -0.3711    9.7232    1.2470 H   0  0  0  0  0  0  0  0  0  0  0  0
   -1.4550   11.1846    1.2254 H   0  0  0  0  0  0  0  0  0  0  0  0
   -2.6493    9.1233    0.5589 H   0  0  0  0  0  0  0  0  0  0  0  0
   -2.5815   10.3576   -0.7591 H   0  0  0  0  0  0  0  0  0  0  0  0
   -2.1504    8.1953   -1.7065 H   0  0  0  0  0  0  0  0  0  0  0  0
   -0.5920    7.9830    0.5990 H   0  0  0  0  0  0  0  0  0  0  0  0
   -1.7044   10.8529   -2.6080 H   0  0  0  0  0  0  0  0  0  0  0  0
   -0.3336   10.6421   -3.7496 H   0  0  0  0  0  0  0  0  0  0  0  0
   -1.6914    9.4661   -3.7496 H   0  0  0  0  0  0  0  0  0  0  0  0
    0.7838    7.3797   -2.1436 H   0  0  0  0  0  0  0  0  0  0  0  0
   -0.3893    7.6014   -3.4858 H   0  0  0  0  0  0  0  0  0  0  0  0
    1.1583    8.5133   -3.4858 H   0  0  0  0  0  0  0  0  0  0  0  0
    1.2169   11.8704    2.6624 H   0  0  0  0  0  0  0  0  0  0  0  0
    1.1449   10.3076    1.7797 H   0  0  0  0  0  0  0  0  0  0  0  0
    2.6616   11.2700    1.7797 H   0  0  0  0  0  0  0  0  0  0  0  0
   -0.6870   13.1125    1.1961 H   0  0  0  0  0  0  0  0  0  0  0  0
    0.9372   13.7230    1.8472 H   0  0  0  0  0  0  0  0  0  0  0  0
   -0.3303   14.3428   -0.8349 H   0  0  0  0  0  0  0  0  0  0  0  0
   -0.0094   15.4620    0.5475 H   0  0  0  0  0  0  0  0  0  0  0  0
    2.1361   15.0262    1.6130 H   0  0  0  0  0  0  0  0  0  0  0  0
    3.5976   14.6881    0.6247 H   0  0  0  0  0  0  0  0  0  0  0  0
    2.8739   16.3322    0.6247 H   0  0  0  0  0  0  0  0  0  0  0  0
  1  2  1  0
  2  3  1  0
  3  4  1  0
  4  5  1  0
  5  6  1  0
  6  7  1  0
  7  8  1  0
  7  9  1  0
  2 10  1  0
 10 11  1  0
 11 12  1  0
 12 13  1  0
 13 14  1  6
 13 15  1  0
 15 16  1  0
 16 17  1  0
 17 18  2  0
 18 19  1  0
 19 20  1  0
 20 21  1  0
 21 22  1  0
 22 23  1  0
 22 24  1  0
 24 25  1  0
 24 26  1  0
 19 27  1  0
 27 28  1  1
 27 29  1  0
 29 30  1  0
 30 31  1  0
 31 32  1  1
  7  5  1  0
 31 10  1  0
 31 13  1  0
 27 15  1  0
 24 18  1  0
  1 33  1  0
  1 34  1  0
  1 35  1  0
  2 36  1  1
  3 37  1  0
  3 38  1  0
  4 39  1  0
  4 40  1  0
  5 41  1  1
  8 42  1  0
  8 43  1  0
  8 44  1  0
  9 45  1  0
  9 46  1  0
  9 47  1  0
 10 48  1  6
 11 49  1  0
 11 50  1  0
 12 51  1  0
 12 52  1  0
 14 53  1  0
 14 54  1  0
 14 55  1  0
 15 56  1  1
 16 57  1  0
 16 58  1  0
 17 59  1  0
 19 60  1  6
 20 61  1  0
 20 62  1  0
 21 63  1  0
 21 64  1  0
 22 65  1  6
 23 66  1  0
 25 67  1  0
 25 68  1  0
 25 69  1  0
 26 70  1  0
 26 71  1  0
 26 72  1  0
 28 73  1  0
 28 74  1  0
 28 75  1  0
 29 76  1  0
 29 77  1  0
 30 78  1  0
 30 79  1  0
 32 80  1  0
 32 81  1  0
 32 82  1  0
M  END
>  <meeko>  (8) 
{"is_sidechain": [false], "intermolecular_energy": 2.731, "internal_energy": -0.839}

$$$$
EPH_relaxed_0001_pdb2pqr_Repair_160_r2_0001_out
     RDKit          3D

 82 86  0  0  0  0  0  0  0  0999 V2000
    4.0460   17.0550    0.9060 C   0  0  0  0  0  0  0  0  0  0  0  0
    3.6600   16.4890   -0.4630 C   0  0  2  0  0  0  0  0  0  0  0  0
    3.4090   17.6010   -1.5010 C   0  0  0  0  0  0  0  0  0  0  0  0
    2.6880   18.8250   -0.9300 C   0  0  0  0  0  0  0  0  0  0  0  0
    1.2550   18.8790   -1.3670 C   0  0  2  0  0  0  0  0  0  0  0  0
    0.7680   20.1940   -1.6600 O   0  0  0  0  0  0  0  0  0  0  0  0
    0.1540   19.5240   -0.5470 C   0  0  0  0  0  0  0  0  0  0  0  0
    0.4380   20.1600    0.7780 C   0  0  0  0  0  0  0  0  0  0  0  0
   -1.2620   19.1100   -0.7990 C   0  0  0  0  0  0  0  0  0  0  0  0
    2.4220   15.6100   -0.3330 C   0  0  1  0  0  0  0  0  0  0  0  0
    1.1150   16.4350   -0.1980 C   0  0  0  0  0  0  0  0  0  0  0  0
    0.0050   15.6380   -0.9310 C   0  0  0  0  0  0  0  0  0  0  0  0
    0.6230   14.2410   -1.1730 C   0  0  1  0  0  0  0  0  0  0  0  0
    0.4460   13.4850    0.1810 C   0  0  0  0  0  0  0  0  0  0  0  0
    0.0380   13.4250   -2.3710 C   0  0  2  0  0  0  0  0  0  0  0  0
   -1.4520   13.0630   -2.2480 C   0  0  0  0  0  0  0  0  0  0  0  0
   -1.7390   11.7570   -1.5830 C   0  0  0  0  0  0  0  0  0  0  0  0
   -0.8410   10.7800   -1.3600 C   0  0  0  0  0  0  0  0  0  0  0  0
    0.5970   10.8970   -1.8790 C   0  0  1  0  0  0  0  0  0  0  0  0
    1.0130    9.5670   -2.5590 C   0  0  0  0  0  0  0  0  0  0  0  0
    0.8190    8.3580   -1.6480 C   0  0  0  0  0  0  0  0  0  0  0  0
   -0.6350    8.2420   -1.1990 C   0  0  2  0  0  0  0  0  0  0  0  0
   -1.4460    7.9360   -2.3380 O   0  0  0  0  0  0  0  0  0  0  0  0
   -1.1690    9.5280   -0.5080 C   0  0  0  0  0  0  0  0  0  0  0  0
   -0.4950    9.6930    0.8770 C   0  0  0  0  0  0  0  0  0  0  0  0
   -2.6840    9.3290   -0.2330 C   0  0  0  0  0  0  0  0  0  0  0  0
    0.9060   12.1670   -2.7840 C   0  0  1  0  0  0  0  0  0  0  0  0
    0.5600   11.8570   -4.2720 C   0  0  0  0  0  0  0  0  0  0  0  0
    2.4510   12.4660   -2.7400 C   0  0  0  0  0  0  0  0  0  0  0  0
    2.9510   13.3770   -1.6020 C   0  0  0  0  0  0  0  0  0  0  0  0
    2.1040   14.6500   -1.5060 C   0  0  2  0  0  0  0  0  0  0  0  0
    2.2800   15.4430   -2.8460 C   0  0  0  0  0  0  0  0  0  0  0  0
    3.6159   16.4243    1.6980 H   0  0  0  0  0  0  0  0  0  0  0  0
    5.1417   17.0676    1.0018 H   0  0  0  0  0  0  0  0  0  0  0  0
    3.6577   18.0797    1.0018 H   0  0  0  0  0  0  0  0  0  0  0  0
    4.5074   15.8864   -0.8220 H   0  0  0  0  0  0  0  0  0  0  0  0
    4.3799   17.9262   -1.9031 H   0  0  0  0  0  0  0  0  0  0  0  0
    2.7548   17.1753   -2.2761 H   0  0  0  0  0  0  0  0  0  0  0  0
    2.7241   18.7796    0.1685 H   0  0  0  0  0  0  0  0  0  0  0  0
    3.1946   19.7267   -1.3044 H   0  0  0  0  0  0  0  0  0  0  0  0
    1.3382   17.8902   -1.8417 H   0  0  0  0  0  0  0  0  0  0  0  0
    0.1333   19.4776    1.5851 H   0  0  0  0  0  0  0  0  0  0  0  0
    1.5148   20.3687    0.8613 H   0  0  0  0  0  0  0  0  0  0  0  0
   -0.1254   21.1011    0.8613 H   0  0  0  0  0  0  0  0  0  0  0  0
   -1.7765   18.9596    0.1615 H   0  0  0  0  0  0  0  0  0  0  0  0
   -1.7771   19.8951   -1.3719 H   0  0  0  0  0  0  0  0  0  0  0  0
   -1.2731   18.1710   -1.3719 H   0  0  0  0  0  0  0  0  0  0  0  0
    2.7003   15.0321    0.5606 H   0  0  0  0  0  0  0  0  0  0  0  0
    0.8538   16.5598    0.8632 H   0  0  0  0  0  0  0  0  0  0  0  0
    1.2343   17.4379   -0.6337 H   0  0  0  0  0  0  0  0  0  0  0  0
   -0.8959   15.5609   -0.3045 H   0  0  0  0  0  0  0  0  0  0  0  0
   -0.3083   16.1235   -1.8671 H   0  0  0  0  0  0  0  0  0  0  0  0
    0.6095   14.1834    1.0150 H   0  0  0  0  0  0  0  0  0  0  0  0
   -0.5726   13.0742    0.2411 H   0  0  0  0  0  0  0  0  0  0  0  0
    1.1764   12.6647    0.2411 H   0  0  0  0  0  0  0  0  0  0  0  0
    0.1033   14.1445   -3.2005 H   0  0  0  0  0  0  0  0  0  0  0  0
   -1.9475   13.8556   -1.6682 H   0  0  0  0  0  0  0  0  0  0  0  0
   -1.8280   12.9691   -3.2775 H   0  0  0  0  0  0  0  0  0  0  0  0
   -2.7712   11.5787   -1.2473 H   0  0  0  0  0  0  0  0  0  0  0  0
    1.2254   11.0758   -0.9940 H   0  0  0  0  0  0  0  0  0  0  0  0
    0.4034    9.4280   -3.4640 H   0  0  0  0  0  0  0  0  0  0  0  0
    2.0843    9.6356   -2.7990 H   0  0  0  0  0  0  0  0  0  0  0  0
    1.1009    7.4461   -2.1948 H   0  0  0  0  0  0  0  0  0  0  0  0
    1.4527    8.4836   -0.7577 H   0  0  0  0  0  0  0  0  0  0  0  0
   -0.6845    7.4398   -0.4480 H   0  0  0  0  0  0  0  0  0  0  0  0
   -2.0310    7.1990   -2.0930 H   0  0  0  0  0  0  0  0  0  0  0  0
   -1.2361    9.5116    1.6694 H   0  0  0  0  0  0  0  0  0  0  0  0
    0.3284    8.9699    0.9725 H   0  0  0  0  0  0  0  0  0  0  0  0
   -0.0987   10.7147    0.9725 H   0  0  0  0  0  0  0  0  0  0  0  0
   -2.8597    9.3059    0.8526 H   0  0  0  0  0  0  0  0  0  0  0  0
   -3.2498   10.1605   -0.6784 H   0  0  0  0  0  0  0  0  0  0  0  0
   -3.0159    8.3795   -0.6784 H   0  0  0  0  0  0  0  0  0  0  0  0
   -0.2587   11.1235   -4.3129 H   0  0  0  0  0  0  0  0  0  0  0  0
    0.2479   12.7833   -4.7765 H   0  0  0  0  0  0  0  0  0  0  0  0
    1.4466   11.4455   -4.7765 H   0  0  0  0  0  0  0  0  0  0  0  0
    2.9738   11.5025   -2.6489 H   0  0  0  0  0  0  0  0  0  0  0  0
    2.6631   13.0202   -3.6662 H   0  0  0  0  0  0  0  0  0  0  0  0
    2.8881   12.8303   -0.6495 H   0  0  0  0  0  0  0  0  0  0  0  0
    3.9917   13.6634   -1.8137 H   0  0  0  0  0  0  0  0  0  0  0  0
    2.5133   16.4944   -2.6219 H   0  0  0  0  0  0  0  0  0  0  0  0
    3.1019   15.0011   -3.4284 H   0  0  0  0  0  0  0  0  0  0  0  0
    1.3483   15.3903   -3.4284 H   0  0  0  0  0  0  0  0  0  0  0  0
  1  2  1  0
  2  3  1  0
  3  4  1  0
  4  5  1  0
  5  6  1  0
  6  7  1  0
  7  8  1  0
  7  9  1  0
  2 10  1  0
 10 11  1  0
 11 12  1  0
 12 13  1  0
 13 14  1  1
 13 15  1  0
 15 16  1  0
 16 17  1  0
 17 18  2  0
 18 19  1  0
 19 20  1  0
 20 21  1  0
 21 22  1  0
 22 23  1  0
 22 24  1  0
 24 25  1  0
 24 26  1  0
 19 27  1  0
 27 28  1  6
 27 29  1  0
 29 30  1  0
 30 31  1  0
 31 32  1  6
  7  5  1  0
 31 10  1  0
 31 13  1  0
 27 15  1  0
 24 18  1  0
  1 33  1  0
  1 34  1  0
  1 35  1  0
  2 36  1  6
  3 37  1  0
  3 38  1  0
  4 39  1  0
  4 40  1  0
  5 41  1  6
  8 42  1  0
  8 43  1  0
  8 44  1  0
  9 45  1  0
  9 46  1  0
  9 47  1  0
 10 48  1  1
 11 49  1  0
 11 50  1  0
 12 51  1  0
 12 52  1  0
 14 53  1  0
 14 54  1  0
 14 55  1  0
 15 56  1  6
 16 57  1  0
 16 58  1  0
 17 59  1  0
 19 60  1  1
 20 61  1  0
 20 62  1  0
 21 63  1  0
 21 64  1  0
 22 65  1  1
 23 66  1  0
 25 67  1  0
 25 68  1  0
 25 69  1  0
 26 70  1  0
 26 71  1  0
 26 72  1  0
 28 73  1  0
 28 74  1  0
 28 75  1  0
 29 76  1  0
 29 77  1  0
 30 78  1  0
 30 79  1  0
 32 80  1  0
 32 81  1  0
 32 82  1  0
M  END
>  <meeko>  (9) 
{"is_sidechain": [false], "intermolecular_energy": 2.731, "internal_energy": -0.839}

$$$$
EPH_relaxed_0001_pdb2pqr_Repair_160_r2_0001_out
     RDKit          3D

 82 86  0  0  0  0  0  0  0  0999 V2000
   -5.1720    5.8710   -1.5350 C   0  0  0  0  0  0  0  0  0  0  0  0
   -5.4320    7.3690   -1.7170 C   0  0  2  0  0  0  0  0  0  0  0  0
   -5.1830    8.1630   -0.4190 C   0  0  0  0  0  0  0  0  0  0  0  0
   -4.1160    9.2520   -0.5600 C   0  0  0  0  0  0  0  0  0  0  0  0
   -2.7570    8.6690   -0.8060 C   0  0  2  0  0  0  0  0  0  0  0  0
   -1.7810    8.9820    0.1970 O   0  0  0  0  0  0  0  0  0  0  0  0
   -1.5310    9.5070   -1.1170 C   0  0  0  0  0  0  0  0  0  0  0  0
   -1.6070   11.0000   -1.2000 C   0  0  0  0  0  0  0  0  0  0  0  0
   -0.3790    8.8570   -1.8170 C   0  0  0  0  0  0  0  0  0  0  0  0
   -6.8610    7.5930   -2.1980 C   0  0  1  0  0  0  0  0  0  0  0  0
   -7.1500    6.8980   -3.5550 C   0  0  0  0  0  0  0  0  0  0  0  0
   -8.6250    6.4220   -3.5080 C   0  0  0  0  0  0  0  0  0  0  0  0
   -9.2290    7.1410   -2.2790 C   0  0  1  0  0  0  0  0  0  0  0  0
   -9.5760    8.5760   -2.7850 C   0  0  0  0  0  0  0  0  0  0  0  0
  -10.4620    6.4510   -1.6110 C   0  0  2  0  0  0  0  0  0  0  0  0
  -11.7050    6.3240   -2.5090 C   0  0  0  0  0  0  0  0  0  0  0  0
  -12.6620    7.4670   -2.4390 C   0  0  0  0  0  0  0  0  0  0  0  0
  -12.6790    8.4150   -1.4840 C   0  0  0  0  0  0  0  0  0  0  0  0
  -11.7290    8.3400   -0.2820 C   0  0  1  0  0  0  0  0  0  0  0  0
  -12.5220    8.6170    1.0230 C   0  0  0  0  0  0  0  0  0  0  0  0
  -13.2930    9.9320    0.9710 C   0  0  0  0  0  0  0  0  0  0  0  0
  -14.2680    9.9460   -0.2040 C   0  0  2  0  0  0  0  0  0  0  0  0
  -15.2870    8.9690    0.0320 O   0  0  0  0  0  0  0  0  0  0  0  0
  -13.5850    9.6680   -1.5720 C   0  0  0  0  0  0  0  0  0  0  0  0
  -12.7030   10.8790   -1.9680 C   0  0  0  0  0  0  0  0  0  0  0  0
  -14.6970    9.5700   -2.6500 C   0  0  0  0  0  0  0  0  0  0  0  0
  -10.8350    7.0290   -0.1860 C   0  0  1  0  0  0  0  0  0  0  0  0
  -11.6170    5.9050    0.5600 C   0  0  0  0  0  0  0  0  0  0  0  0
   -9.5610    7.3380    0.6870 C   0  0  0  0  0  0  0  0  0  0  0  0
   -8.3350    7.9070   -0.0520 C   0  0  0  0  0  0  0  0  0  0  0  0
   -8.0060    7.0720   -1.2930 C   0  0  2  0  0  0  0  0  0  0  0  0
   -7.6310    5.6290   -0.8140 C   0  0  0  0  0  0  0  0  0  0  0  0
   -5.1308    5.6337   -0.4617 H   0  0  0  0  0  0  0  0  0  0  0  0
   -5.9841    5.2980   -2.0063 H   0  0  0  0  0  0  0  0  0  0  0  0
   -4.2143    5.6052   -2.0063 H   0  0  0  0  0  0  0  0  0  0  0  0
   -4.7227    7.7392   -2.4719 H   0  0  0  0  0  0  0  0  0  0  0  0
   -6.1274    8.6389   -0.1162 H   0  0  0  0  0  0  0  0  0  0  0  0
   -4.8152    7.4471    0.3308 H   0  0  0  0  0  0  0  0  0  0  0  0
   -4.3821    9.9044   -1.4047 H   0  0  0  0  0  0  0  0  0  0  0  0
   -4.0798    9.8202    0.3812 H   0  0  0  0  0  0  0  0  0  0  0  0
   -3.1971    7.7924   -1.3039 H   0  0  0  0  0  0  0  0  0  0  0  0
   -1.6285   11.4230   -0.1848 H   0  0  0  0  0  0  0  0  0  0  0  0
   -0.7272   11.3826   -1.7381 H   0  0  0  0  0  0  0  0  0  0  0  0
   -2.5211   11.2913   -1.7381 H   0  0  0  0  0  0  0  0  0  0  0  0
    0.3257    8.4594   -1.0719 H   0  0  0  0  0  0  0  0  0  0  0  0
   -0.7493    8.0347   -2.4468 H   0  0  0  0  0  0  0  0  0  0  0  0
    0.1334    9.5992   -2.4468 H   0  0  0  0  0  0  0  0  0  0  0  0
   -6.8756    8.6925   -2.2276 H   0  0  0  0  0  0  0  0  0  0  0  0
   -7.0073    7.6085   -4.3825 H   0  0  0  0  0  0  0  0  0  0  0  0
   -6.4667    6.0517   -3.7190 H   0  0  0  0  0  0  0  0  0  0  0  0
   -9.1558    6.7117   -4.4269 H   0  0  0  0  0  0  0  0  0  0  0  0
   -8.7076    5.3277   -3.4329 H   0  0  0  0  0  0  0  0  0  0  0  0
   -9.7366    9.2400   -1.9228 H   0  0  0  0  0  0  0  0  0  0  0  0
   -8.7450    8.9608   -3.3944 H   0  0  0  0  0  0  0  0  0  0  0  0
  -10.4910    8.5386   -3.3944 H   0  0  0  0  0  0  0  0  0  0  0  0
  -10.1009    5.4238   -1.4543 H   0  0  0  0  0  0  0  0  0  0  0  0
  -11.3636    6.2299   -3.5505 H   0  0  0  0  0  0  0  0  0  0  0  0
  -12.2551    5.4440   -2.1442 H   0  0  0  0  0  0  0  0  0  0  0  0
  -13.4173    7.5408   -3.2353 H   0  0  0  0  0  0  0  0  0  0  0  0
  -10.9786    9.1292   -0.4374 H   0  0  0  0  0  0  0  0  0  0  0  0
  -13.2361    7.7957    1.1827 H   0  0  0  0  0  0  0  0  0  0  0  0
  -11.7959    8.6881    1.8462 H   0  0  0  0  0  0  0  0  0  0  0  0
  -13.8561   10.0566    1.9077 H   0  0  0  0  0  0  0  0  0  0  0  0
  -12.5751   10.7554    0.8418 H   0  0  0  0  0  0  0  0  0  0  0  0
  -14.6937   10.9583   -0.2670 H   0  0  0  0  0  0  0  0  0  0  0  0
  -15.4710    8.5260   -0.8130 H   0  0  0  0  0  0  0  0  0  0  0  0
  -12.3383   11.3798   -1.0590 H   0  0  0  0  0  0  0  0  0  0  0  0
  -11.8463   10.5297   -2.5630 H   0  0  0  0  0  0  0  0  0  0  0  0
  -13.2983   11.5872   -2.5630 H   0  0  0  0  0  0  0  0  0  0  0  0
  -15.6774    9.4836   -2.1587 H   0  0  0  0  0  0  0  0  0  0  0  0
  -14.6798   10.4731   -3.2777 H   0  0  0  0  0  0  0  0  0  0  0  0
  -14.5221    8.6838   -3.2777 H   0  0  0  0  0  0  0  0  0  0  0  0
  -11.5175    6.0480    1.6461 H   0  0  0  0  0  0  0  0  0  0  0  0
  -12.6798    5.9500    0.2801 H   0  0  0  0  0  0  0  0  0  0  0  0
  -11.2053    4.9241    0.2801 H   0  0  0  0  0  0  0  0  0  0  0  0
   -9.8537    8.0672    1.4568 H   0  0  0  0  0  0  0  0  0  0  0  0
   -9.2353    6.3624    1.0770 H   0  0  0  0  0  0  0  0  0  0  0  0
   -8.5488    8.9410   -0.3605 H   0  0  0  0  0  0  0  0  0  0  0  0
   -7.4713    7.8787    0.6286 H   0  0  0  0  0  0  0  0  0  0  0  0
   -7.6230    5.5982    0.2855 H   0  0  0  0  0  0  0  0  0  0  0  0
   -8.3726    4.9117   -1.1955 H   0  0  0  0  0  0  0  0  0  0  0  0
   -6.6340    5.3635   -1.1955 H   0  0  0  0  0  0  0  0  0  0  0  0
  1  2  1  0
  2  3  1  0
  3  4  1  0
  4  5  1  0
  5  6  1  0
  6  7  1  0
  7  8  1  0
  7  9  1  0
  2 10  1  0
 10 11  1  0
 11 12  1  0
 12 13  1  0
 13 14  1  6
 13 15  1  0
 15 16  1  0
 16 17  1  0
 17 18  2  0
 18 19  1  0
 19 20  1  0
 20 21  1  0
 21 22  1  0
 22 23  1  0
 22 24  1  0
 24 25  1  0
 24 26  1  0
 19 27  1  0
 27 28  1  1
 27 29  1  0
 29 30  1  0
 30 31  1  0
 31 32  1  1
  7  5  1  0
 31 10  1  0
 31 13  1  0
 27 15  1  0
 24 18  1  0
  1 33  1  0
  1 34  1  0
  1 35  1  0
  2 36  1  6
  3 37  1  0
  3 38  1  0
  4 39  1  0
  4 40  1  0
  5 41  1  6
  8 42  1  0
  8 43  1  0
  8 44  1  0
  9 45  1  0
  9 46  1  0
  9 47  1  0
 10 48  1  6
 11 49  1  0
 11 50  1  0
 12 51  1  0
 12 52  1  0
 14 53  1  0
 14 54  1  0
 14 55  1  0
 15 56  1  1
 16 57  1  0
 16 58  1  0
 17 59  1  0
 19 60  1  6
 20 61  1  0
 20 62  1  0
 21 63  1  0
 21 64  1  0
 22 65  1  6
 23 66  1  0
 25 67  1  0
 25 68  1  0
 25 69  1  0
 26 70  1  0
 26 71  1  0
 26 72  1  0
 28 73  1  0
 28 74  1  0
 28 75  1  0
 29 76  1  0
 29 77  1  0
 30 78  1  0
 30 79  1  0
 32 80  1  0
 32 81  1  0
 32 82  1  0
M  END
>  <meeko>  (10) 
{"is_sidechain": [false], "intermolecular_energy": 2.731, "internal_energy": -0.839}

$$$$
EPH_relaxed_0001_pdb2pqr_Repair_160_r2_0001_out
     RDKit          3D

 82 86  0  0  0  0  0  0  0  0999 V2000
   -1.2740   10.4460    1.6300 C   0  0  0  0  0  0  0  0  0  0  0  0
   -1.9140   10.1470    0.2710 C   0  0  2  0  0  0  0  0  0  0  0  0
   -2.7170    8.8310    0.2850 C   0  0  0  0  0  0  0  0  0  0  0  0
   -4.0730    8.9300   -0.4190 C   0  0  0  0  0  0  0  0  0  0  0  0
   -4.5830    7.5820   -0.8320 C   0  0  2  0  0  0  0  0  0  0  0  0
   -4.7740    7.4210   -2.2440 O   0  0  0  0  0  0  0  0  0  0  0  0
   -5.9580    7.3560   -1.4330 C   0  0  0  0  0  0  0  0  0  0  0  0
   -6.9100    8.4900   -1.6530 C   0  0  0  0  0  0  0  0  0  0  0  0
   -6.5580    5.9870   -1.3510 C   0  0  0  0  0  0  0  0  0  0  0  0
   -0.8400   10.0890   -0.8080 C   0  0  1  0  0  0  0  0  0  0  0  0
   -1.2560    9.2140   -2.0200 C   0  0  0  0  0  0  0  0  0  0  0  0
   -0.6480    9.8770   -3.2820 C   0  0  0  0  0  0  0  0  0  0  0  0
    0.3630   10.9100   -2.7310 C   0  0  1  0  0  0  0  0  0  0  0  0
    1.6420   10.0800   -2.3970 C   0  0  0  0  0  0  0  0  0  0  0  0
    0.6890   12.1230   -3.6620 C   0  0  2  0  0  0  0  0  0  0  0  0
    1.3520   11.7580   -5.0010 C   0  0  0  0  0  0  0  0  0  0  0  0
    2.8440   11.7280   -4.9870 C   0  0  0  0  0  0  0  0  0  0  0  0
    3.6280   12.2570   -4.0290 C   0  0  0  0  0  0  0  0  0  0  0  0
    3.0220   13.0530   -2.8660 C   0  0  1  0  0  0  0  0  0  0  0  0
    3.8280   14.3620   -2.6590 C   0  0  0  0  0  0  0  0  0  0  0  0
    5.3210   14.1080   -2.4760 C   0  0  0  0  0  0  0  0  0  0  0  0
    5.8990   13.3660   -3.6790 C   0  0  2  0  0  0  0  0  0  0  0  0
    5.8420   14.2260   -4.8210 O   0  0  0  0  0  0  0  0  0  0  0  0
    5.1600   12.0340   -3.9910 C   0  0  0  0  0  0  0  0  0  0  0  0
    5.4730   10.9950   -2.8860 C   0  0  0  0  0  0  0  0  0  0  0  0
    5.7480   11.4590   -5.3070 C   0  0  0  0  0  0  0  0  0  0  0  0
    1.4550   13.3060   -2.9410 C   0  0  1  0  0  0  0  0  0  0  0  0
    1.1630   14.5950   -3.7690 C   0  0  0  0  0  0  0  0  0  0  0  0
    0.9070   13.5760   -1.4900 C   0  0  0  0  0  0  0  0  0  0  0  0
    0.4900   12.3450   -0.6640 C   0  0  0  0  0  0  0  0  0  0  0  0
   -0.4290   11.4260   -1.4750 C   0  0  2  0  0  0  0  0  0  0  0  0
   -1.7340   12.2270   -1.8060 C   0  0  0  0  0  0  0  0  0  0  0  0
   -1.9545   10.1281    2.4337 H   0  0  0  0  0  0  0  0  0  0  0  0
   -0.3238    9.8986    1.7162 H   0  0  0  0  0  0  0  0  0  0  0  0
   -1.0841   11.5260    1.7162 H   0  0  0  0  0  0  0  0  0  0  0  0
   -2.6187   10.9624    0.0507 H   0  0  0  0  0  0  0  0  0  0  0  0
   -2.1208    8.0550   -0.2173 H   0  0  0  0  0  0  0  0  0  0  0  0
   -2.9188    8.5887    1.3388 H   0  0  0  0  0  0  0  0  0  0  0  0
   -4.7984    9.3906    0.2677 H   0  0  0  0  0  0  0  0  0  0  0  0
   -3.9453    9.5407   -1.3250 H   0  0  0  0  0  0  0  0  0  0  0  0
   -4.0545    7.0998    0.0035 H   0  0  0  0  0  0  0  0  0  0  0  0
   -7.2412    8.8845   -0.6811 H   0  0  0  0  0  0  0  0  0  0  0  0
   -6.4063    9.2869   -2.2198 H   0  0  0  0  0  0  0  0  0  0  0  0
   -7.7821    8.1319   -2.2198 H   0  0  0  0  0  0  0  0  0  0  0  0
   -6.6822    5.7037   -0.2954 H   0  0  0  0  0  0  0  0  0  0  0  0
   -7.5390    5.9862   -1.8487 H   0  0  0  0  0  0  0  0  0  0  0  0
   -5.8938    5.2651   -1.8487 H   0  0  0  0  0  0  0  0  0  0  0  0
   -0.0042    9.6912   -0.2137 H   0  0  0  0  0  0  0  0  0  0  0  0
   -0.8634    8.1932   -1.9023 H   0  0  0  0  0  0  0  0  0  0  0  0
   -2.3510    9.1454   -2.0994 H   0  0  0  0  0  0  0  0  0  0  0  0
   -0.1375    9.1287   -3.9061 H   0  0  0  0  0  0  0  0  0  0  0  0
   -1.4144   10.3422   -3.9193 H   0  0  0  0  0  0  0  0  0  0  0  0
    1.7563   10.0058   -1.3055 H   0  0  0  0  0  0  0  0  0  0  0  0
    1.5466    9.0712   -2.8251 H   0  0  0  0  0  0  0  0  0  0  0  0
    2.5245   10.5780   -2.8251 H   0  0  0  0  0  0  0  0  0  0  0  0
   -0.3123   12.4999   -3.9177 H   0  0  0  0  0  0  0  0  0  0  0  0
    0.9949   10.7603   -5.2962 H   0  0  0  0  0  0  0  0  0  0  0  0
    1.0705   12.5536   -5.7065 H   0  0  0  0  0  0  0  0  0  0  0  0
    3.3455   11.2316   -5.8309 H   0  0  0  0  0  0  0  0  0  0  0  0
    3.1166   12.4122   -1.9769 H   0  0  0  0  0  0  0  0  0  0  0  0
    3.6854   15.0066   -3.5389 H   0  0  0  0  0  0  0  0  0  0  0  0
    3.4562   14.8409   -1.7412 H   0  0  0  0  0  0  0  0  0  0  0  0
    5.8393   15.0718   -2.3643 H   0  0  0  0  0  0  0  0  0  0  0  0
    5.4647   13.4883   -1.5786 H   0  0  0  0  0  0  0  0  0  0  0  0
    6.9374   13.0983   -3.4338 H   0  0  0  0  0  0  0  0  0  0  0  0
    6.6790   14.7190   -4.8600 H   0  0  0  0  0  0  0  0  0  0  0  0
    5.3337   11.4575   -1.8977 H   0  0  0  0  0  0  0  0  0  0  0  0
    4.7939   10.1357   -2.9877 H   0  0  0  0  0  0  0  0  0  0  0  0
    6.5138   10.6538   -2.9877 H   0  0  0  0  0  0  0  0  0  0  0  0
    6.5157   10.7082   -5.0683 H   0  0  0  0  0  0  0  0  0  0  0  0
    4.9446   10.9884   -5.8928 H   0  0  0  0  0  0  0  0  0  0  0  0
    6.2005   12.2727   -5.8928 H   0  0  0  0  0  0  0  0  0  0  0  0
    0.9727   15.4350   -3.0848 H   0  0  0  0  0  0  0  0  0  0  0  0
    2.0311   14.8280   -4.4031 H   0  0  0  0  0  0  0  0  0  0  0  0
    0.2792   14.4311   -4.4031 H   0  0  0  0  0  0  0  0  0  0  0  0
    1.6943   14.1014   -0.9296 H   0  0  0  0  0  0  0  0  0  0  0  0
   -0.0189   14.1519   -1.6350 H   0  0  0  0  0  0  0  0  0  0  0  0
    1.3910   11.7858   -0.3717 H   0  0  0  0  0  0  0  0  0  0  0  0
   -0.0557   12.6890    0.2270 H   0  0  0  0  0  0  0  0  0  0  0  0
   -2.2262   12.5291   -0.8698 H   0  0  0  0  0  0  0  0  0  0  0  0
   -1.4762   13.1226   -2.3903 H   0  0  0  0  0  0  0  0  0  0  0  0
   -2.4159   11.5917   -2.3903 H   0  0  0  0  0  0  0  0  0  0  0  0
  1  2  1  0
  2  3  1  0
  3  4  1  0
  4  5  1  0
  5  6  1  0
  6  7  1  0
  7  8  1  0
  7  9  1  0
  2 10  1  0
 10 11  1  0
 11 12  1  0
 12 13  1  0
 13 14  1  1
 13 15  1  0
 15 16  1  0
 16 17  1  0
 17 18  2  0
 18 19  1  0
 19 20  1  0
 20 21  1  0
 21 22  1  0
 22 23  1  0
 22 24  1  0
 24 25  1  0
 24 26  1  0
 19 27  1  0
 27 28  1  6
 27 29  1  0
 29 30  1  0
 30 31  1  0
 31 32  1  6
  7  5  1  0
 31 10  1  0
 31 13  1  0
 27 15  1  0
 24 18  1  0
  1 33  1  0
  1 34  1  0
  1 35  1  0
  2 36  1  6
  3 37  1  0
  3 38  1  0
  4 39  1  0
  4 40  1  0
  5 41  1  1
  8 42  1  0
  8 43  1  0
  8 44  1  0
  9 45  1  0
  9 46  1  0
  9 47  1  0
 10 48  1  1
 11 49  1  0
 11 50  1  0
 12 51  1  0
 12 52  1  0
 14 53  1  0
 14 54  1  0
 14 55  1  0
 15 56  1  6
 16 57  1  0
 16 58  1  0
 17 59  1  0
 19 60  1  1
 20 61  1  0
 20 62  1  0
 21 63  1  0
 21 64  1  0
 22 65  1  1
 23 66  1  0
 25 67  1  0
 25 68  1  0
 25 69  1  0
 26 70  1  0
 26 71  1  0
 26 72  1  0
 28 73  1  0
 28 74  1  0
 28 75  1  0
 29 76  1  0
 29 77  1  0
 30 78  1  0
 30 79  1  0
 32 80  1  0
 32 81  1  0
 32 82  1  0
M  END
>  <meeko>  (11) 
{"is_sidechain": [false], "intermolecular_energy": 2.731, "internal_energy": -0.839}

$$$$
EPH_relaxed_0001_pdb2pqr_Repair_160_r2_0001_out
     RDKit          3D

 82 86  0  0  0  0  0  0  0  0999 V2000
    2.4220   10.0700   -3.7990 C   0  0  0  0  0  0  0  0  0  0  0  0
    2.3620   11.3410   -4.6510 C   0  0  2  0  0  0  0  0  0  0  0  0
    3.7640   11.9130   -4.9410 C   0  0  0  0  0  0  0  0  0  0  0  0
    4.6660   10.9610   -5.7330 C   0  0  0  0  0  0  0  0  0  0  0  0
    5.7080   10.3300   -4.8600 C   0  0  2  0  0  0  0  0  0  0  0  0
    5.4210   10.3760   -3.4560 O   0  0  0  0  0  0  0  0  0  0  0  0
    6.5750   11.1140   -3.8920 C   0  0  0  0  0  0  0  0  0  0  0  0
    6.4390   12.5970   -3.7480 C   0  0  0  0  0  0  0  0  0  0  0  0
    7.8740   10.5160   -3.4510 C   0  0  0  0  0  0  0  0  0  0  0  0
    1.5040   12.3920   -3.9570 C   0  0  1  0  0  0  0  0  0  0  0  0
    0.1180   11.8420   -3.5270 C   0  0  0  0  0  0  0  0  0  0  0  0
   -0.2480   12.5450   -2.1940 C   0  0  0  0  0  0  0  0  0  0  0  0
    0.7670   13.7060   -2.0740 C   0  0  1  0  0  0  0  0  0  0  0  0
    0.1890   14.8400   -2.9770 C   0  0  0  0  0  0  0  0  0  0  0  0
    1.0650   14.2160   -0.6260 C   0  0  2  0  0  0  0  0  0  0  0  0
   -0.1430   14.8120    0.1170 C   0  0  0  0  0  0  0  0  0  0  0  0
   -0.3380   16.2820   -0.0590 C   0  0  0  0  0  0  0  0  0  0  0  0
    0.5780   17.1390   -0.5460 C   0  0  0  0  0  0  0  0  0  0  0  0
    1.9960   16.6660   -0.8890 C   0  0  1  0  0  0  0  0  0  0  0  0
    3.0300   17.6660   -0.3080 C   0  0  0  0  0  0  0  0  0  0  0  0
    2.7700   19.1020   -0.7550 C   0  0  0  0  0  0  0  0  0  0  0  0
    1.3720   19.5560   -0.3450 C   0  0  2  0  0  0  0  0  0  0  0  0
    1.3120   19.6330    1.0830 O   0  0  0  0  0  0  0  0  0  0  0  0
    0.2460   18.6180   -0.8650 C   0  0  0  0  0  0  0  0  0  0  0  0
    0.1140   18.7660   -2.4010 C   0  0  0  0  0  0  0  0  0  0  0  0
   -1.0990   19.1080   -0.2640 C   0  0  0  0  0  0  0  0  0  0  0  0
    2.3320   15.1570   -0.5180 C   0  0  1  0  0  0  0  0  0  0  0  0
    2.8280   15.0690    0.9570 C   0  0  0  0  0  0  0  0  0  0  0  0
    3.5250   14.6610   -1.4180 C   0  0  0  0  0  0  0  0  0  0  0  0
    3.1580   14.0570   -2.7870 C   0  0  0  0  0  0  0  0  0  0  0  0
    2.0540   13.0050   -2.6450 C   0  0  2  0  0  0  0  0  0  0  0  0
    2.6140   11.8410   -1.7590 C   0  0  0  0  0  0  0  0  0  0  0  0
    2.4092   10.3420   -2.7332 H   0  0  0  0  0  0  0  0  0  0  0  0
    1.5528    9.4351   -4.0259 H   0  0  0  0  0  0  0  0  0  0  0  0
    3.3471    9.5198   -4.0259 H   0  0  0  0  0  0  0  0  0  0  0  0
    1.9100   11.0706   -5.6167 H   0  0  0  0  0  0  0  0  0  0  0  0
    3.6474   12.8419   -5.5186 H   0  0  0  0  0  0  0  0  0  0  0  0
    4.2498   12.0815   -3.9686 H   0  0  0  0  0  0  0  0  0  0  0  0
    4.0454   10.1687   -6.1770 H   0  0  0  0  0  0  0  0  0  0  0  0
    5.1787   11.5435   -6.5126 H   0  0  0  0  0  0  0  0  0  0  0  0
    5.9532    9.5967   -5.6424 H   0  0  0  0  0  0  0  0  0  0  0  0
    6.4148   12.8610   -2.6804 H   0  0  0  0  0  0  0  0  0  0  0  0
    7.2955   13.0922   -4.2288 H   0  0  0  0  0  0  0  0  0  0  0  0
    5.5067   12.9281   -4.2288 H   0  0  0  0  0  0  0  0  0  0  0  0
    7.9147   10.4973   -2.3519 H   0  0  0  0  0  0  0  0  0  0  0  0
    7.9555    9.4897   -3.8385 H   0  0  0  0  0  0  0  0  0  0  0  0
    8.7067   11.1214   -3.8385 H   0  0  0  0  0  0  0  0  0  0  0  0
    1.4745   13.1575   -4.7464 H   0  0  0  0  0  0  0  0  0  0  0  0
   -0.6353   12.0707   -4.2952 H   0  0  0  0  0  0  0  0  0  0  0  0
    0.1478   10.7495   -3.4023 H   0  0  0  0  0  0  0  0  0  0  0  0
   -1.2774   12.9311   -2.2284 H   0  0  0  0  0  0  0  0  0  0  0  0
   -0.2019   11.8599   -1.3346 H   0  0  0  0  0  0  0  0  0  0  0  0
   -0.2193   15.6411   -2.3433 H   0  0  0  0  0  0  0  0  0  0  0  0
    0.9896   15.2470   -3.6121 H   0  0  0  0  0  0  0  0  0  0  0  0
   -0.6107   14.4313   -3.6121 H   0  0  0  0  0  0  0  0  0  0  0  0
    1.3130   13.2854   -0.0946 H   0  0  0  0  0  0  0  0  0  0  0  0
   -1.0490   14.3033   -0.2441 H   0  0  0  0  0  0  0  0  0  0  0  0
    0.0518   14.6569    1.1884 H   0  0  0  0  0  0  0  0  0  0  0  0
   -1.3126   16.6995    0.2342 H   0  0  0  0  0  0  0  0  0  0  0  0
    2.0577   16.6609   -1.9873 H   0  0  0  0  0  0  0  0  0  0  0  0
    2.9823   17.6244    0.7902 H   0  0  0  0  0  0  0  0  0  0  0  0
    4.0228   17.3745   -0.6813 H   0  0  0  0  0  0  0  0  0  0  0  0
    3.5146   19.7644   -0.2894 H   0  0  0  0  0  0  0  0  0  0  0  0
    2.8466   19.1478   -1.8514 H   0  0  0  0  0  0  0  0  0  0  0  0
    1.1975   20.5405   -0.8037 H   0  0  0  0  0  0  0  0  0  0  0  0
    1.8480   18.9040    1.4400 H   0  0  0  0  0  0  0  0  0  0  0  0
   -0.6019   19.5686   -2.6318 H   0  0  0  0  0  0  0  0  0  0  0  0
    1.0953   19.0151   -2.8310 H   0  0  0  0  0  0  0  0  0  0  0  0
   -0.2452   17.8194   -2.8310 H   0  0  0  0  0  0  0  0  0  0  0  0
   -1.0394   19.0863    0.8342 H   0  0  0  0  0  0  0  0  0  0  0  0
   -1.2978   20.1363   -0.6002 H   0  0  0  0  0  0  0  0  0  0  0  0
   -1.9127   18.4486   -0.6002 H   0  0  0  0  0  0  0  0  0  0  0  0
    1.9783   15.2197    1.6392 H   0  0  0  0  0  0  0  0  0  0  0  0
    3.2710   14.0782    1.1364 H   0  0  0  0  0  0  0  0  0  0  0  0
    3.5848   15.8469    1.1364 H   0  0  0  0  0  0  0  0  0  0  0  0
    4.1847   15.5221   -1.6003 H   0  0  0  0  0  0  0  0  0  0  0  0
    3.9874   13.8371   -0.8546 H   0  0  0  0  0  0  0  0  0  0  0  0
    2.8064   14.8598   -3.4517 H   0  0  0  0  0  0  0  0  0  0  0  0
    4.0517   13.5724   -3.2070 H   0  0  0  0  0  0  0  0  0  0  0  0
    2.4908   12.0972   -0.6964 H   0  0  0  0  0  0  0  0  0  0  0  0
    2.0629   10.9148   -1.9792 H   0  0  0  0  0  0  0  0  0  0  0  0
    3.6816   11.6936   -1.9792 H   0  0  0  0  0  0  0  0  0  0  0  0
  1  2  1  0
  2  3  1  0
  3  4  1  0
  4  5  1  0
  5  6  1  0
  6  7  1  0
  7  8  1  0
  7  9  1  0
  2 10  1  0
 10 11  1  0
 11 12  1  0
 12 13  1  0
 13 14  1  6
 13 15  1  0
 15 16  1  0
 16 17  1  0
 17 18  2  0
 18 19  1  0
 19 20  1  0
 20 21  1  0
 21 22  1  0
 22 23  1  0
 22 24  1  0
 24 25  1  0
 24 26  1  0
 19 27  1  0
 27 28  1  1
 27 29  1  0
 29 30  1  0
 30 31  1  0
 31 32  1  1
  7  5  1  0
 31 10  1  0
 31 13  1  0
 27 15  1  0
 24 18  1  0
  1 33  1  0
  1 34  1  0
  1 35  1  0
  2 36  1  6
  3 37  1  0
  3 38  1  0
  4 39  1  0
  4 40  1  0
  5 41  1  6
  8 42  1  0
  8 43  1  0
  8 44  1  0
  9 45  1  0
  9 46  1  0
  9 47  1  0
 10 48  1  6
 11 49  1  0
 11 50  1  0
 12 51  1  0
 12 52  1  0
 14 53  1  0
 14 54  1  0
 14 55  1  0
 15 56  1  1
 16 57  1  0
 16 58  1  0
 17 59  1  0
 19 60  1  6
 20 61  1  0
 20 62  1  0
 21 63  1  0
 21 64  1  0
 22 65  1  6
 23 66  1  0
 25 67  1  0
 25 68  1  0
 25 69  1  0
 26 70  1  0
 26 71  1  0
 26 72  1  0
 28 73  1  0
 28 74  1  0
 28 75  1  0
 29 76  1  0
 29 77  1  0
 30 78  1  0
 30 79  1  0
 32 80  1  0
 32 81  1  0
 32 82  1  0
M  END
>  <meeko>  (12) 
{"is_sidechain": [false], "intermolecular_energy": 2.731, "internal_energy": -0.839}

$$$$
EPH_relaxed_0001_pdb2pqr_Repair_160_r2_0001_out
     RDKit          3D

 82 86  0  0  0  0  0  0  0  0999 V2000
    0.1050    7.8080   -2.4360 C   0  0  0  0  0  0  0  0  0  0  0  0
   -1.2370    8.2650   -1.8570 C   0  0  2  0  0  0  0  0  0  0  0  0
   -2.4320    7.7440   -2.6800 C   0  0  0  0  0  0  0  0  0  0  0  0
   -3.6580    7.3960   -1.8310 C   0  0  0  0  0  0  0  0  0  0  0  0
   -4.7000    6.6760   -2.6320 C   0  0  2  0  0  0  0  0  0  0  0  0
   -5.2910    7.4530   -3.6830 O   0  0  0  0  0  0  0  0  0  0  0  0
   -6.1710    7.0500   -2.6210 C   0  0  0  0  0  0  0  0  0  0  0  0
   -6.6810    8.1850   -1.7900 C   0  0  0  0  0  0  0  0  0  0  0  0
   -7.1750    6.0180   -3.0290 C   0  0  0  0  0  0  0  0  0  0  0  0
   -1.2800    9.7870   -1.7830 C   0  0  1  0  0  0  0  0  0  0  0  0
   -2.5980   10.3180   -1.1600 C   0  0  0  0  0  0  0  0  0  0  0  0
   -2.2320   11.5890   -0.3520 C   0  0  0  0  0  0  0  0  0  0  0  0
   -0.7930   11.9350   -0.8000 C   0  0  1  0  0  0  0  0  0  0  0  0
   -0.9660   12.6930   -2.1540 C   0  0  0  0  0  0  0  0  0  0  0  0
    0.0690   12.7540    0.2140 C   0  0  2  0  0  0  0  0  0  0  0  0
   -0.4730   14.1550    0.5490 C   0  0  0  0  0  0  0  0  0  0  0  0
    0.0210   15.2570   -0.3300 C   0  0  0  0  0  0  0  0  0  0  0  0
    1.0770   15.1800   -1.1610 C   0  0  0  0  0  0  0  0  0  0  0  0
    1.9570   13.9240   -1.2040 C   0  0  1  0  0  0  0  0  0  0  0  0
    3.4520   14.3370   -1.1730 C   0  0  0  0  0  0  0  0  0  0  0  0
    3.8060   15.3350   -2.2720 C   0  0  0  0  0  0  0  0  0  0  0  0
    2.9510   16.5950   -2.1600 C   0  0  2  0  0  0  0  0  0  0  0  0
    3.3000   17.2840   -0.9560 O   0  0  0  0  0  0  0  0  0  0  0  0
    1.4240   16.3020   -2.1700 C   0  0  0  0  0  0  0  0  0  0  0  0
    0.9930   15.8350   -3.5830 C   0  0  0  0  0  0  0  0  0  0  0  0
    0.6800   17.6390   -1.9100 C   0  0  0  0  0  0  0  0  0  0  0  0
    1.6120   12.8000   -0.1340 C   0  0  1  0  0  0  0  0  0  0  0  0
    2.3630   13.0880    1.2020 C   0  0  0  0  0  0  0  0  0  0  0  0
    2.1490   11.4140   -0.6550 C   0  0  0  0  0  0  0  0  0  0  0  0
    1.2040   10.5970   -1.5560 C   0  0  0  0  0  0  0  0  0  0  0  0
   -0.1910   10.4890   -0.9330 C   0  0  2  0  0  0  0  0  0  0  0  0
   -0.0510    9.7100    0.4200 C   0  0  0  0  0  0  0  0  0  0  0  0
    0.7975    7.5722   -1.6145 H   0  0  0  0  0  0  0  0  0  0  0  0
   -0.0488    6.9116   -3.0547 H   0  0  0  0  0  0  0  0  0  0  0  0
    0.5303    8.6120   -3.0547 H   0  0  0  0  0  0  0  0  0  0  0  0
   -1.3225    7.8409   -0.8457 H   0  0  0  0  0  0  0  0  0  0  0  0
   -2.7199    8.5203   -3.4042 H   0  0  0  0  0  0  0  0  0  0  0  0
   -2.1051    6.8147   -3.1693 H   0  0  0  0  0  0  0  0  0  0  0  0
   -3.3427    6.7530   -0.9961 H   0  0  0  0  0  0  0  0  0  0  0  0
   -4.0970    8.3344   -1.4615 H   0  0  0  0  0  0  0  0  0  0  0  0
   -4.1814    5.7167   -2.4876 H   0  0  0  0  0  0  0  0  0  0  0  0
   -6.5699    7.9378   -0.7239 H   0  0  0  0  0  0  0  0  0  0  0  0
   -6.1048    9.0939   -2.0176 H   0  0  0  0  0  0  0  0  0  0  0  0
   -7.7433    8.3577   -2.0176 H   0  0  0  0  0  0  0  0  0  0  0  0
   -7.6182    5.5625   -2.1312 H   0  0  0  0  0  0  0  0  0  0  0  0
   -7.9662    6.4928   -3.6279 H   0  0  0  0  0  0  0  0  0  0  0  0
   -6.6787    5.2402   -3.6279 H   0  0  0  0  0  0  0  0  0  0  0  0
   -1.1401   10.0268   -2.8474 H   0  0  0  0  0  0  0  0  0  0  0  0
   -3.3179   10.5680   -1.9533 H   0  0  0  0  0  0  0  0  0  0  0  0
   -3.0621    9.5592   -0.5128 H   0  0  0  0  0  0  0  0  0  0  0  0
   -2.9214   12.4124   -0.5901 H   0  0  0  0  0  0  0  0  0  0  0  0
   -2.3036   11.4281    0.7338 H   0  0  0  0  0  0  0  0  0  0  0  0
   -1.2067   13.7478   -1.9555 H   0  0  0  0  0  0  0  0  0  0  0  0
   -0.0309   12.6324   -2.7302 H   0  0  0  0  0  0  0  0  0  0  0  0
   -1.7822   12.2328   -2.7302 H   0  0  0  0  0  0  0  0  0  0  0  0
   -0.0321   12.1650    1.1375 H   0  0  0  0  0  0  0  0  0  0  0  0
   -1.5697   14.1230    0.4702 H   0  0  0  0  0  0  0  0  0  0  0  0
   -0.1108   14.3875    1.5613 H   0  0  0  0  0  0  0  0  0  0  0  0
   -0.5241   16.2118   -0.2953 H   0  0  0  0  0  0  0  0  0  0  0  0
    1.7282   13.4246   -2.1570 H   0  0  0  0  0  0  0  0  0  0  0  0
    3.6713   14.7946   -0.1970 H   0  0  0  0  0  0  0  0  0  0  0  0
    4.0525   13.4304   -1.3390 H   0  0  0  0  0  0  0  0  0  0  0  0
    4.8670   15.6104   -2.1802 H   0  0  0  0  0  0  0  0  0  0  0  0
    3.6139   14.8656   -3.2481 H   0  0  0  0  0  0  0  0  0  0  0  0
    3.1580   17.2135   -3.0458 H   0  0  0  0  0  0  0  0  0  0  0  0
    3.9650   16.7470   -0.4920 H   0  0  0  0  0  0  0  0  0  0  0  0
    0.2495   15.0294   -3.4920 H   0  0  0  0  0  0  0  0  0  0  0  0
    0.5517   16.6811   -4.1301 H   0  0  0  0  0  0  0  0  0  0  0  0
    1.8718   15.4629   -4.1301 H   0  0  0  0  0  0  0  0  0  0  0  0
    0.5887   17.8031   -0.8261 H   0  0  0  0  0  0  0  0  0  0  0  0
    1.2468   18.4675   -2.3598 H   0  0  0  0  0  0  0  0  0  0  0  0
   -0.3228   17.5941   -2.3598 H   0  0  0  0  0  0  0  0  0  0  0  0
    1.7100   12.8376    2.0510 H   0  0  0  0  0  0  0  0  0  0  0  0
    3.2760   12.4762    1.2487 H   0  0  0  0  0  0  0  0  0  0  0  0
    2.6328   14.1534    1.2487 H   0  0  0  0  0  0  0  0  0  0  0  0
    3.0690   11.6071   -1.2262 H   0  0  0  0  0  0  0  0  0  0  0  0
    2.2869   10.8011    0.2479 H   0  0  0  0  0  0  0  0  0  0  0  0
    1.1234   11.0918   -2.5351 H   0  0  0  0  0  0  0  0  0  0  0  0
    1.6167    9.5837   -1.6692 H   0  0  0  0  0  0  0  0  0  0  0  0
   -0.1766   10.4088    1.2601 H   0  0  0  0  0  0  0  0  0  0  0  0
   -0.8231    8.9284    0.4747 H   0  0  0  0  0  0  0  0  0  0  0  0
    0.9449    9.2461    0.4747 H   0  0  0  0  0  0  0  0  0  0  0  0
  1  2  1  0
  2  3  1  0
  3  4  1  0
  4  5  1  0
  5  6  1  0
  6  7  1  0
  7  8  1  0
  7  9  1  0
  2 10  1  0
 10 11  1  0
 11 12  1  0
 12 13  1  0
 13 14  1  6
 13 15  1  0
 15 16  1  0
 16 17  1  0
 17 18  2  0
 18 19  1  0
 19 20  1  0
 20 21  1  0
 21 22  1  0
 22 23  1  0
 22 24  1  0
 24 25  1  0
 24 26  1  0
 19 27  1  0
 27 28  1  1
 27 29  1  0
 29 30  1  0
 30 31  1  0
 31 32  1  1
  7  5  1  0
 31 10  1  0
 31 13  1  0
 27 15  1  0
 24 18  1  0
  1 33  1  0
  1 34  1  0
  1 35  1  0
  2 36  1  1
  3 37  1  0
  3 38  1  0
  4 39  1  0
  4 40  1  0
  5 41  1  6
  8 42  1  0
  8 43  1  0
  8 44  1  0
  9 45  1  0
  9 46  1  0
  9 47  1  0
 10 48  1  6
 11 49  1  0
 11 50  1  0
 12 51  1  0
 12 52  1  0
 14 53  1  0
 14 54  1  0
 14 55  1  0
 15 56  1  1
 16 57  1  0
 16 58  1  0
 17 59  1  0
 19 60  1  6
 20 61  1  0
 20 62  1  0
 21 63  1  0
 21 64  1  0
 22 65  1  6
 23 66  1  0
 25 67  1  0
 25 68  1  0
 25 69  1  0
 26 70  1  0
 26 71  1  0
 26 72  1  0
 28 73  1  0
 28 74  1  0
 28 75  1  0
 29 76  1  0
 29 77  1  0
 30 78  1  0
 30 79  1  0
 32 80  1  0
 32 81  1  0
 32 82  1  0
M  END
>  <meeko>  (13) 
{"is_sidechain": [false], "intermolecular_energy": 2.731, "internal_energy": -0.839}

$$$$
EPH_relaxed_0001_pdb2pqr_Repair_160_r2_0001_out
     RDKit          3D

 82 86  0  0  0  0  0  0  0  0999 V2000
    0.5210    9.6750    1.1400 C   0  0  0  0  0  0  0  0  0  0  0  0
    0.5830   10.2130   -0.2920 C   0  0  2  0  0  0  0  0  0  0  0  0
    1.0360    9.1370   -1.2990 C   0  0  0  0  0  0  0  0  0  0  0  0
   -0.0680    8.6880   -2.2590 C   0  0  0  0  0  0  0  0  0  0  0  0
   -1.3000    8.2550   -1.5240 C   0  0  2  0  0  0  0  0  0  0  0  0
   -2.5250    8.4470   -2.2430 O   0  0  0  0  0  0  0  0  0  0  0  0
   -2.3680    9.2180   -1.0410 C   0  0  0  0  0  0  0  0  0  0  0  0
   -2.2530   10.6920   -1.2740 C   0  0  0  0  0  0  0  0  0  0  0  0
   -3.2700    8.7870    0.0740 C   0  0  0  0  0  0  0  0  0  0  0  0
    1.5200   11.4140   -0.3560 C   0  0  1  0  0  0  0  0  0  0  0  0
    2.8630   11.0860   -1.0620 C   0  0  0  0  0  0  0  0  0  0  0  0
    3.2860   12.3630   -1.8330 C   0  0  0  0  0  0  0  0  0  0  0  0
    2.3610   13.4740   -1.2850 C   0  0  1  0  0  0  0  0  0  0  0  0
    3.0180   13.9170    0.0590 C   0  0  0  0  0  0  0  0  0  0  0  0
    2.1080   14.6920   -2.2330 C   0  0  2  0  0  0  0  0  0  0  0  0
    3.3600   15.5110   -2.5910 C   0  0  0  0  0  0  0  0  0  0  0  0
    3.6630   16.6480   -1.6720 C   0  0  0  0  0  0  0  0  0  0  0  0
    2.8120   17.1750   -0.7720 C   0  0  0  0  0  0  0  0  0  0  0  0
    1.3610   16.6860   -0.6810 C   0  0  1  0  0  0  0  0  0  0  0  0
    0.4070   17.9070   -0.6070 C   0  0  0  0  0  0  0  0  0  0  0  0
    0.7710   18.8670    0.5210 C   0  0  0  0  0  0  0  0  0  0  0  0
    2.2020   19.3760    0.3630 C   0  0  2  0  0  0  0  0  0  0  0  0
    2.2730   20.1940   -0.8090 O   0  0  0  0  0  0  0  0  0  0  0  0
    3.2520   18.2340    0.2680 C   0  0  0  0  0  0  0  0  0  0  0  0
    3.3890   17.5370    1.6440 C   0  0  0  0  0  0  0  0  0  0  0  0
    4.6320   18.8790   -0.0310 C   0  0  0  0  0  0  0  0  0  0  0  0
    0.9150   15.6280   -1.7800 C   0  0  1  0  0  0  0  0  0  0  0  0
    0.4200   16.3680   -3.0600 C   0  0  0  0  0  0  0  0  0  0  0  0
   -0.3150   14.8100   -1.2370 C   0  0  0  0  0  0  0  0  0  0  0  0
   -0.0000   13.5500   -0.4080 C   0  0  0  0  0  0  0  0  0  0  0  0
    1.0230   12.6640   -1.1250 C   0  0  2  0  0  0  0  0  0  0  0  0
    0.3810   12.1850   -2.4720 C   0  0  0  0  0  0  0  0  0  0  0  0
    0.6172   10.5098    1.8498 H   0  0  0  0  0  0  0  0  0  0  0  0
   -0.4416    9.1671    1.2995 H   0  0  0  0  0  0  0  0  0  0  0  0
    1.3429    8.9615    1.2995 H   0  0  0  0  0  0  0  0  0  0  0  0
   -0.4351   10.5198   -0.5738 H   0  0  0  0  0  0  0  0  0  0  0  0
    1.8673    9.5451   -1.8926 H   0  0  0  0  0  0  0  0  0  0  0  0
    1.3315    8.2537   -0.7138 H   0  0  0  0  0  0  0  0  0  0  0  0
   -0.3254    9.5262   -2.9232 H   0  0  0  0  0  0  0  0  0  0  0  0
    0.3071    7.8292   -2.8349 H   0  0  0  0  0  0  0  0  0  0  0  0
   -0.7429    7.4550   -1.0144 H   0  0  0  0  0  0  0  0  0  0  0  0
   -2.2123   11.2141   -0.3066 H   0  0  0  0  0  0  0  0  0  0  0  0
   -1.3357   10.9028   -1.8433 H   0  0  0  0  0  0  0  0  0  0  0  0
   -3.1265   11.0425   -1.8433 H   0  0  0  0  0  0  0  0  0  0  0  0
   -2.7941    9.0144    1.0393 H   0  0  0  0  0  0  0  0  0  0  0  0
   -4.2264    9.3254    0.0008 H   0  0  0  0  0  0  0  0  0  0  0  0
   -3.4520    7.7046    0.0008 H   0  0  0  0  0  0  0  0  0  0  0  0
    1.6028   11.6410    0.7171 H   0  0  0  0  0  0  0  0  0  0  0  0
    3.6282   10.8223   -0.3170 H   0  0  0  0  0  0  0  0  0  0  0  0
    2.7519   10.2307   -1.7448 H   0  0  0  0  0  0  0  0  0  0  0  0
    4.3411   12.6039   -1.6360 H   0  0  0  0  0  0  0  0  0  0  0  0
    3.1930   12.2425   -2.9224 H   0  0  0  0  0  0  0  0  0  0  0  0
    2.4317   13.5217    0.9016 H   0  0  0  0  0  0  0  0  0  0  0  0
    4.0449   13.5262    0.1115 H   0  0  0  0  0  0  0  0  0  0  0  0
    3.0406   15.0155    0.1115 H   0  0  0  0  0  0  0  0  0  0  0  0
    1.7939   14.2033   -3.1671 H   0  0  0  0  0  0  0  0  0  0  0  0
    4.2242   14.8304   -2.5860 H   0  0  0  0  0  0  0  0  0  0  0  0
    3.1585   15.9603   -3.5746 H   0  0  0  0  0  0  0  0  0  0  0  0
    4.6670   17.0929   -1.7358 H   0  0  0  0  0  0  0  0  0  0  0  0
    1.2943   16.1033    0.2496 H   0  0  0  0  0  0  0  0  0  0  0  0
    0.4556   18.4507   -1.5620 H   0  0  0  0  0  0  0  0  0  0  0  0
   -0.6060   17.5273   -0.4080 H   0  0  0  0  0  0  0  0  0  0  0  0
    0.0802   19.7229    0.5025 H   0  0  0  0  0  0  0  0  0  0  0  0
    0.6925   18.3305    1.4781 H   0  0  0  0  0  0  0  0  0  0  0  0
    2.4485   19.9534    1.2663 H   0  0  0  0  0  0  0  0  0  0  0  0
    2.0210   19.6420   -1.5680 H   0  0  0  0  0  0  0  0  0  0  0  0
    3.2437   18.2762    2.4455 H   0  0  0  0  0  0  0  0  0  0  0  0
    2.6290   16.7466    1.7320 H   0  0  0  0  0  0  0  0  0  0  0  0
    4.3916   17.0931    1.7320 H   0  0  0  0  0  0  0  0  0  0  0  0
    5.1389   19.1159    0.9160 H   0  0  0  0  0  0  0  0  0  0  0  0
    5.2478   18.1754   -0.6105 H   0  0  0  0  0  0  0  0  0  0  0  0
    4.4872   19.8027   -0.6105 H   0  0  0  0  0  0  0  0  0  0  0  0
   -0.1698   17.2497   -2.7688 H   0  0  0  0  0  0  0  0  0  0  0  0
    1.2868   16.6876   -3.6571 H   0  0  0  0  0  0  0  0  0  0  0  0
   -0.2062   15.6888   -3.6571 H   0  0  0  0  0  0  0  0  0  0  0  0
   -0.9100   15.4847   -0.6039 H   0  0  0  0  0  0  0  0  0  0  0  0
   -0.8345   14.4419   -2.1340 H   0  0  0  0  0  0  0  0  0  0  0  0
    0.4078   13.8536    0.5674 H   0  0  0  0  0  0  0  0  0  0  0  0
   -0.9290   12.9762   -0.2750 H   0  0  0  0  0  0  0  0  0  0  0  0
   -0.4837   11.5399   -2.2571 H   0  0  0  0  0  0  0  0  0  0  0  0
    0.0509   13.0593   -3.0522 H   0  0  0  0  0  0  0  0  0  0  0  0
    1.1251   11.6196   -3.0522 H   0  0  0  0  0  0  0  0  0  0  0  0
  1  2  1  0
  2  3  1  0
  3  4  1  0
  4  5  1  0
  5  6  1  0
  6  7  1  0
  7  8  1  0
  7  9  1  0
  2 10  1  0
 10 11  1  0
 11 12  1  0
 12 13  1  0
 13 14  1  1
 13 15  1  0
 15 16  1  0
 16 17  1  0
 17 18  2  0
 18 19  1  0
 19 20  1  0
 20 21  1  0
 21 22  1  0
 22 23  1  0
 22 24  1  0
 24 25  1  0
 24 26  1  0
 19 27  1  0
 27 28  1  6
 27 29  1  0
 29 30  1  0
 30 31  1  0
 31 32  1  6
  7  5  1  0
 31 10  1  0
 31 13  1  0
 27 15  1  0
 24 18  1  0
  1 33  1  0
  1 34  1  0
  1 35  1  0
  2 36  1  6
  3 37  1  0
  3 38  1  0
  4 39  1  0
  4 40  1  0
  5 41  1  1
  8 42  1  0
  8 43  1  0
  8 44  1  0
  9 45  1  0
  9 46  1  0
  9 47  1  0
 10 48  1  1
 11 49  1  0
 11 50  1  0
 12 51  1  0
 12 52  1  0
 14 53  1  0
 14 54  1  0
 14 55  1  0
 15 56  1  6
 16 57  1  0
 16 58  1  0
 17 59  1  0
 19 60  1  1
 20 61  1  0
 20 62  1  0
 21 63  1  0
 21 64  1  0
 22 65  1  1
 23 66  1  0
 25 67  1  0
 25 68  1  0
 25 69  1  0
 26 70  1  0
 26 71  1  0
 26 72  1  0
 28 73  1  0
 28 74  1  0
 28 75  1  0
 29 76  1  0
 29 77  1  0
 30 78  1  0
 30 79  1  0
 32 80  1  0
 32 81  1  0
 32 82  1  0
M  END
>  <meeko>  (14) 
{"is_sidechain": [false], "intermolecular_energy": 2.731, "internal_energy": -0.839}

$$$$
EPH_relaxed_0001_pdb2pqr_Repair_160_r2_0001_out
     RDKit          3D

 82 86  0  0  0  0  0  0  0  0999 V2000
   -0.0870   10.1830   -2.3310 C   0  0  0  0  0  0  0  0  0  0  0  0
    0.8130   10.1370   -1.0930 C   0  0  2  0  0  0  0  0  0  0  0  0
   -0.0010   10.0140    0.2120 C   0  0  0  0  0  0  0  0  0  0  0  0
    0.7270   10.5590    1.4440 C   0  0  0  0  0  0  0  0  0  0  0  0
   -0.0640   11.6360    2.1230 C   0  0  2  0  0  0  0  0  0  0  0  0
    0.5110   12.9470    2.0320 O   0  0  0  0  0  0  0  0  0  0  0  0
    0.4230   12.3830    3.3510 C   0  0  0  0  0  0  0  0  0  0  0  0
    1.7500   12.0810    3.9730 C   0  0  0  0  0  0  0  0  0  0  0  0
   -0.5890   13.0540    4.2270 C   0  0  0  0  0  0  0  0  0  0  0  0
    1.6920   11.3810   -1.0430 C   0  0  1  0  0  0  0  0  0  0  0  0
    3.0570   11.1770   -1.7510 C   0  0  0  0  0  0  0  0  0  0  0  0
    3.4280   12.5310   -2.4080 C   0  0  0  0  0  0  0  0  0  0  0  0
    2.4440   13.5490   -1.7850 C   0  0  1  0  0  0  0  0  0  0  0  0
    3.0630   13.9080   -0.3980 C   0  0  0  0  0  0  0  0  0  0  0  0
    2.1440   14.8280   -2.6330 C   0  0  2  0  0  0  0  0  0  0  0  0
    3.3600   15.7310   -2.9030 C   0  0  0  0  0  0  0  0  0  0  0  0
    3.5980   16.8010   -1.8890 C   0  0  0  0  0  0  0  0  0  0  0  0
    2.7120   17.2110   -0.9620 C   0  0  0  0  0  0  0  0  0  0  0  0
    1.2840   16.6490   -0.9340 C   0  0  1  0  0  0  0  0  0  0  0  0
    0.2720   17.8140   -0.7750 C   0  0  0  0  0  0  0  0  0  0  0  0
    0.5770   18.6920    0.4350 C   0  0  0  0  0  0  0  0  0  0  0  0
    1.9830   19.2790    0.3410 C   0  0  2  0  0  0  0  0  0  0  0  0
    2.0290   20.1940   -0.7580 O   0  0  0  0  0  0  0  0  0  0  0  0
    3.0880   18.2000    0.1690 C   0  0  0  0  0  0  0  0  0  0  0  0
    3.2410   17.3970    1.4850 C   0  0  0  0  0  0  0  0  0  0  0  0
    4.4390   18.9300   -0.0540 C   0  0  0  0  0  0  0  0  0  0  0  0
    0.9020   15.6670   -2.1240 C   0  0  1  0  0  0  0  0  0  0  0  0
    0.3880   16.4870   -3.3460 C   0  0  0  0  0  0  0  0  0  0  0  0
   -0.2940   14.7490   -1.6690 C   0  0  0  0  0  0  0  0  0  0  0  0
    0.0720   13.4410   -0.9420 C   0  0  0  0  0  0  0  0  0  0  0  0
    1.1450   12.6660   -1.7130 C   0  0  2  0  0  0  0  0  0  0  0  0
    0.5420   12.2710   -3.1050 C   0  0  0  0  0  0  0  0  0  0  0  0
   -1.1399   10.2368   -2.0171 H   0  0  0  0  0  0  0  0  0  0  0  0
    0.1620   11.0696   -2.9326 H   0  0  0  0  0  0  0  0  0  0  0  0
    0.0703    9.2756   -2.9326 H   0  0  0  0  0  0  0  0  0  0  0  0
    1.4436    9.2394   -1.1751 H   0  0  0  0  0  0  0  0  0  0  0  0
   -0.9412   10.5716    0.0890 H   0  0  0  0  0  0  0  0  0  0  0  0
   -0.1698    8.9411    0.3862 H   0  0  0  0  0  0  0  0  0  0  0  0
    0.8914    9.7355    2.1545 H   0  0  0  0  0  0  0  0  0  0  0  0
    1.6832   10.9914    1.1143 H   0  0  0  0  0  0  0  0  0  0  0  0
   -1.0080   11.1165    1.9018 H   0  0  0  0  0  0  0  0  0  0  0  0
    1.6548   12.1027    5.0687 H   0  0  0  0  0  0  0  0  0  0  0  0
    2.0860   11.0834    3.6538 H   0  0  0  0  0  0  0  0  0  0  0  0
    2.4847   12.8349    3.6538 H   0  0  0  0  0  0  0  0  0  0  0  0
   -0.3311   12.8830    5.2826 H   0  0  0  0  0  0  0  0  0  0  0  0
   -0.5934   14.1345    4.0210 H   0  0  0  0  0  0  0  0  0  0  0  0
   -1.5860   12.6374    4.0210 H   0  0  0  0  0  0  0  0  0  0  0  0
    1.7510   11.5207    0.0465 H   0  0  0  0  0  0  0  0  0  0  0  0
    3.8246   10.8891   -1.0176 H   0  0  0  0  0  0  0  0  0  0  0  0
    2.9954   10.3771   -2.5035 H   0  0  0  0  0  0  0  0  0  0  0  0
    4.4680   12.8036   -2.1753 H   0  0  0  0  0  0  0  0  0  0  0  0
    3.3541   12.4967   -3.5050 H   0  0  0  0  0  0  0  0  0  0  0  0
    2.4111   13.5299    0.4034 H   0  0  0  0  0  0  0  0  0  0  0  0
    4.0577   13.4466   -0.3099 H   0  0  0  0  0  0  0  0  0  0  0  0
    3.1565   15.0005   -0.3099 H   0  0  0  0  0  0  0  0  0  0  0  0
    1.8639   14.4042   -3.6087 H   0  0  0  0  0  0  0  0  0  0  0  0
    4.2554   15.0931   -2.9404 H   0  0  0  0  0  0  0  0  0  0  0  0
    3.1490   16.2504   -3.8494 H   0  0  0  0  0  0  0  0  0  0  0  0
    4.5802   17.2960   -1.9004 H   0  0  0  0  0  0  0  0  0  0  0  0
    1.2342   15.9889   -0.0555 H   0  0  0  0  0  0  0  0  0  0  0  0
    0.3065   18.4373   -1.6807 H   0  0  0  0  0  0  0  0  0  0  0  0
   -0.7245   17.3729   -0.6252 H   0  0  0  0  0  0  0  0  0  0  0  0
   -0.1540   19.5129    0.4778 H   0  0  0  0  0  0  0  0  0  0  0  0
    0.5140   18.0739    1.3428 H   0  0  0  0  0  0  0  0  0  0  0  0
    2.1901   19.7906    1.2925 H   0  0  0  0  0  0  0  0  0  0  0  0
    2.4900   20.9950   -0.4550 H   0  0  0  0  0  0  0  0  0  0  0  0
    3.1123   18.0723    2.3437 H   0  0  0  0  0  0  0  0  0  0  0  0
    2.4774   16.6061    1.5229 H   0  0  0  0  0  0  0  0  0  0  0  0
    4.2419   16.9423    1.5229 H   0  0  0  0  0  0  0  0  0  0  0  0
    4.8894   19.1733    0.9196 H   0  0  0  0  0  0  0  0  0  0  0  0
    5.1196   18.2769   -0.6199 H   0  0  0  0  0  0  0  0  0  0  0  0
    4.2657   19.8572   -0.6199 H   0  0  0  0  0  0  0  0  0  0  0  0
   -0.1647   17.3687   -2.9896 H   0  0  0  0  0  0  0  0  0  0  0  0
    1.2440   16.8125   -3.9554 H   0  0  0  0  0  0  0  0  0  0  0  0
   -0.2780   15.8584   -3.9554 H   0  0  0  0  0  0  0  0  0  0  0  0
   -0.9281   15.3399   -0.9918 H   0  0  0  0  0  0  0  0  0  0  0  0
   -0.7848   14.4326   -2.6012 H   0  0  0  0  0  0  0  0  0  0  0  0
    0.4533   13.6817    0.0613 H   0  0  0  0  0  0  0  0  0  0  0  0
   -0.8298   12.8150   -0.8717 H   0  0  0  0  0  0  0  0  0  0  0  0
   -0.3694   11.6740   -2.9537 H   0  0  0  0  0  0  0  0  0  0  0  0
    0.2940   13.1822   -3.6691 H   0  0  0  0  0  0  0  0  0  0  0  0
    1.2783   11.6796   -3.6691 H   0  0  0  0  0  0  0  0  0  0  0  0
  1  2  1  0
  2  3  1  0
  3  4  1  0
  4  5  1  0
  5  6  1  0
  6  7  1  0
  7  8  1  0
  7  9  1  0
  2 10  1  0
 10 11  1  0
 11 12  1  0
 12 13  1  0
 13 14  1  1
 13 15  1  0
 15 16  1  0
 16 17  1  0
 17 18  2  0
 18 19  1  0
 19 20  1  0
 20 21  1  0
 21 22  1  0
 22 23  1  0
 22 24  1  0
 24 25  1  0
 24 26  1  0
 19 27  1  0
 27 28  1  6
 27 29  1  0
 29 30  1  0
 30 31  1  0
 31 32  1  6
  7  5  1  0
 31 10  1  0
 31 13  1  0
 27 15  1  0
 24 18  1  0
  1 33  1  0
  1 34  1  0
  1 35  1  0
  2 36  1  6
  3 37  1  0
  3 38  1  0
  4 39  1  0
  4 40  1  0
  5 41  1  1
  8 42  1  0
  8 43  1  0
  8 44  1  0
  9 45  1  0
  9 46  1  0
  9 47  1  0
 10 48  1  1
 11 49  1  0
 11 50  1  0
 12 51  1  0
 12 52  1  0
 14 53  1  0
 14 54  1  0
 14 55  1  0
 15 56  1  6
 16 57  1  0
 16 58  1  0
 17 59  1  0
 19 60  1  1
 20 61  1  0
 20 62  1  0
 21 63  1  0
 21 64  1  0
 22 65  1  1
 23 66  1  0
 25 67  1  0
 25 68  1  0
 25 69  1  0
 26 70  1  0
 26 71  1  0
 26 72  1  0
 28 73  1  0
 28 74  1  0
 28 75  1  0
 29 76  1  0
 29 77  1  0
 30 78  1  0
 30 79  1  0
 32 80  1  0
 32 81  1  0
 32 82  1  0
M  END
>  <meeko>  (15) 
{"is_sidechain": [false], "intermolecular_energy": 2.731, "internal_energy": -0.839}

$$$$
EPH_relaxed_0001_pdb2pqr_Repair_160_r2_0001_out
     RDKit          3D

 82 86  0  0  0  0  0  0  0  0999 V2000
    4.3860   16.8280   -1.4520 C   0  0  0  0  0  0  0  0  0  0  0  0
    4.4770   15.3010   -1.5300 C   0  0  2  0  0  0  0  0  0  0  0  0
    4.8600   14.8140   -2.9420 C   0  0  0  0  0  0  0  0  0  0  0  0
    5.8150   13.6170   -2.9420 C   0  0  0  0  0  0  0  0  0  0  0  0
    5.4630   12.6270   -4.0110 C   0  0  2  0  0  0  0  0  0  0  0  0
    5.0220   11.3520   -3.5230 O   0  0  0  0  0  0  0  0  0  0  0  0
    6.2520   11.3560   -4.2670 C   0  0  0  0  0  0  0  0  0  0  0  0
    7.4570   11.0090   -3.4500 C   0  0  0  0  0  0  0  0  0  0  0  0
    6.1460   10.7070   -5.6110 C   0  0  0  0  0  0  0  0  0  0  0  0
    3.1520   14.6790   -1.1060 C   0  0  1  0  0  0  0  0  0  0  0  0
    2.1170   15.7380   -0.6400 C   0  0  0  0  0  0  0  0  0  0  0  0
    0.7230   15.2260   -1.0840 C   0  0  0  0  0  0  0  0  0  0  0  0
    0.9590   13.7520   -1.4890 C   0  0  1  0  0  0  0  0  0  0  0  0
    0.9600   12.9620   -0.1430 C   0  0  0  0  0  0  0  0  0  0  0  0
   -0.0550   13.1470   -2.5130 C   0  0  2  0  0  0  0  0  0  0  0  0
   -1.5140   13.0820   -2.0270 C   0  0  0  0  0  0  0  0  0  0  0  0
   -1.8970   11.8200   -1.3280 C   0  0  0  0  0  0  0  0  0  0  0  0
   -1.1960   10.6710   -1.3470 C   0  0  0  0  0  0  0  0  0  0  0  0
    0.0660   10.5330   -2.2070 C   0  0  1  0  0  0  0  0  0  0  0  0
    0.0190    9.1920   -2.9850 C   0  0  0  0  0  0  0  0  0  0  0  0
   -0.1980    7.9910   -2.0690 C   0  0  0  0  0  0  0  0  0  0  0  0
   -1.4920    8.1380   -1.2740 C   0  0  2  0  0  0  0  0  0  0  0  0
   -2.5990    8.0730   -2.1790 O   0  0  0  0  0  0  0  0  0  0  0  0
   -1.5630    9.4580   -0.4560 C   0  0  0  0  0  0  0  0  0  0  0  0
   -0.5560    9.3970    0.7190 C   0  0  0  0  0  0  0  0  0  0  0  0
   -2.9740    9.5480    0.1850 C   0  0  0  0  0  0  0  0  0  0  0  0
    0.4060   11.7710   -3.1440 C   0  0  1  0  0  0  0  0  0  0  0  0
   -0.3460   11.6300   -4.5040 C   0  0  0  0  0  0  0  0  0  0  0  0
    1.9430   11.7530   -3.4830 C   0  0  0  0  0  0  0  0  0  0  0  0
    2.8810   12.4710   -2.4940 C   0  0  0  0  0  0  0  0  0  0  0  0
    2.3670   13.8780   -2.1750 C   0  0  2  0  0  0  0  0  0  0  0  0
    2.3760   14.7040   -3.5070 C   0  0  0  0  0  0  0  0  0  0  0  0
    4.3674   17.1408   -0.3976 H   0  0  0  0  0  0  0  0  0  0  0  0
    5.2592   17.2733   -1.9512 H   0  0  0  0  0  0  0  0  0  0  0  0
    3.4661   17.1665   -1.9512 H   0  0  0  0  0  0  0  0  0  0  0  0
    5.2742   14.9812   -0.8428 H   0  0  0  0  0  0  0  0  0  0  0  0
    3.9400   14.5244   -3.4709 H   0  0  0  0  0  0  0  0  0  0  0  0
    5.3850   15.6442   -3.4371 H   0  0  0  0  0  0  0  0  0  0  0  0
    6.8396   13.9784   -3.1142 H   0  0  0  0  0  0  0  0  0  0  0  0
    5.7333   13.1131   -1.9676 H   0  0  0  0  0  0  0  0  0  0  0  0
    5.1249   13.4324   -4.6796 H   0  0  0  0  0  0  0  0  0  0  0  0
    7.2082   11.0807   -2.3809 H   0  0  0  0  0  0  0  0  0  0  0  0
    7.7757    9.9826   -3.6843 H   0  0  0  0  0  0  0  0  0  0  0  0
    8.2728   11.7087   -3.6843 H   0  0  0  0  0  0  0  0  0  0  0  0
    5.9699    9.6286   -5.4846 H   0  0  0  0  0  0  0  0  0  0  0  0
    5.3087   11.1524   -6.1683 H   0  0  0  0  0  0  0  0  0  0  0  0
    7.0815   10.8629   -6.1683 H   0  0  0  0  0  0  0  0  0  0  0  0
    3.5109   14.0018   -0.3170 H   0  0  0  0  0  0  0  0  0  0  0  0
    2.1505   15.8446    0.4543 H   0  0  0  0  0  0  0  0  0  0  0  0
    2.3344   16.7229   -1.0791 H   0  0  0  0  0  0  0  0  0  0  0  0
    0.0035   15.2903   -0.2544 H   0  0  0  0  0  0  0  0  0  0  0  0
    0.3025   15.8224   -1.9071 H   0  0  0  0  0  0  0  0  0  0  0  0
    0.9591   13.6708    0.6982 H   0  0  0  0  0  0  0  0  0  0  0  0
    0.0627   12.3281   -0.0893 H   0  0  0  0  0  0  0  0  0  0  0  0
    1.8589   12.3303   -0.0893 H   0  0  0  0  0  0  0  0  0  0  0  0
   -0.0439   13.8904   -3.3237 H   0  0  0  0  0  0  0  0  0  0  0  0
   -1.6786   13.9188   -1.3323 H   0  0  0  0  0  0  0  0  0  0  0  0
   -2.1386   13.1310   -2.9311 H   0  0  0  0  0  0  0  0  0  0  0  0
   -2.8316   11.8297   -0.7480 H   0  0  0  0  0  0  0  0  0  0  0  0
    0.9127   10.5273   -1.5048 H   0  0  0  0  0  0  0  0  0  0  0  0
   -0.8057    9.2347   -3.7117 H   0  0  0  0  0  0  0  0  0  0  0  0
    0.9911    9.0607   -3.4828 H   0  0  0  0  0  0  0  0  0  0  0  0
   -0.2525    7.0777   -2.6797 H   0  0  0  0  0  0  0  0  0  0  0  0
    0.6431    7.9318   -1.3626 H   0  0  0  0  0  0  0  0  0  0  0  0
   -1.5257    7.3153   -0.5446 H   0  0  0  0  0  0  0  0  0  0  0  0
   -2.6590    8.9300   -2.6330 H   0  0  0  0  0  0  0  0  0  0  0  0
   -1.1030    9.4301    1.6728 H   0  0  0  0  0  0  0  0  0  0  0  0
    0.0208    8.4623    0.6594 H   0  0  0  0  0  0  0  0  0  0  0  0
    0.1294   10.2553    0.6594 H   0  0  0  0  0  0  0  0  0  0  0  0
   -2.8799    9.5420    1.2810 H   0  0  0  0  0  0  0  0  0  0  0  0
   -3.4638   10.4792   -0.1359 H   0  0  0  0  0  0  0  0  0  0  0  0
   -3.5781    8.6866   -0.1359 H   0  0  0  0  0  0  0  0  0  0  0  0
   -1.4111   11.4303   -4.3151 H   0  0  0  0  0  0  0  0  0  0  0  0
   -0.2440   12.5629   -5.0778 H   0  0  0  0  0  0  0  0  0  0  0  0
    0.0870   10.7974   -5.0778 H   0  0  0  0  0  0  0  0  0  0  0  0
    2.2594   10.7009   -3.5376 H   0  0  0  0  0  0  0  0  0  0  0  0
    2.0364   12.3121   -4.4257 H   0  0  0  0  0  0  0  0  0  0  0  0
    2.9363   11.8882   -1.5627 H   0  0  0  0  0  0  0  0  0  0  0  0
    3.8766   12.5569   -2.9538 H   0  0  0  0  0  0  0  0  0  0  0  0
    2.3877   15.7785   -3.2720 H   0  0  0  0  0  0  0  0  0  0  0  0
    3.2714   14.4468   -4.0919 H   0  0  0  0  0  0  0  0  0  0  0  0
    1.4752   14.4664   -4.0919 H   0  0  0  0  0  0  0  0  0  0  0  0
  1  2  1  0
  2  3  1  0
  3  4  1  0
  4  5  1  0
  5  6  1  0
  6  7  1  0
  7  8  1  0
  7  9  1  0
  2 10  1  0
 10 11  1  0
 11 12  1  0
 12 13  1  0
 13 14  1  1
 13 15  1  0
 15 16  1  0
 16 17  1  0
 17 18  2  0
 18 19  1  0
 19 20  1  0
 20 21  1  0
 21 22  1  0
 22 23  1  0
 22 24  1  0
 24 25  1  0
 24 26  1  0
 19 27  1  0
 27 28  1  6
 27 29  1  0
 29 30  1  0
 30 31  1  0
 31 32  1  6
  7  5  1  0
 31 10  1  0
 31 13  1  0
 27 15  1  0
 24 18  1  0
  1 33  1  0
  1 34  1  0
  1 35  1  0
  2 36  1  1
  3 37  1  0
  3 38  1  0
  4 39  1  0
  4 40  1  0
  5 41  1  6
  8 42  1  0
  8 43  1  0
  8 44  1  0
  9 45  1  0
  9 46  1  0
  9 47  1  0
 10 48  1  1
 11 49  1  0
 11 50  1  0
 12 51  1  0
 12 52  1  0
 14 53  1  0
 14 54  1  0
 14 55  1  0
 15 56  1  6
 16 57  1  0
 16 58  1  0
 17 59  1  0
 19 60  1  1
 20 61  1  0
 20 62  1  0
 21 63  1  0
 21 64  1  0
 22 65  1  1
 23 66  1  0
 25 67  1  0
 25 68  1  0
 25 69  1  0
 26 70  1  0
 26 71  1  0
 26 72  1  0
 28 73  1  0
 28 74  1  0
 28 75  1  0
 29 76  1  0
 29 77  1  0
 30 78  1  0
 30 79  1  0
 32 80  1  0
 32 81  1  0
 32 82  1  0
M  END
>  <meeko>  (16) 
{"is_sidechain": [false], "intermolecular_energy": 2.731, "internal_energy": -0.839}

$$$$
EPH_relaxed_0001_pdb2pqr_Repair_160_r2_0001_out
     RDKit          3D

 82 86  0  0  0  0  0  0  0  0999 V2000
    0.3890   18.3370   -2.3470 C   0  0  0  0  0  0  0  0  0  0  0  0
    0.5990   17.6630   -0.9880 C   0  0  2  0  0  0  0  0  0  0  0  0
    0.9730   18.6760    0.1120 C   0  0  0  0  0  0  0  0  0  0  0  0
    2.4700   18.9930    0.1740 C   0  0  0  0  0  0  0  0  0  0  0  0
    2.8500   19.6220    1.4800 C   0  0  2  0  0  0  0  0  0  0  0  0
    4.1650   20.1940    1.5090 O   0  0  0  0  0  0  0  0  0  0  0  0
    3.9390   19.0780    2.3850 C   0  0  0  0  0  0  0  0  0  0  0  0
    4.7160   17.8510    2.0210 C   0  0  0  0  0  0  0  0  0  0  0  0
    3.9140   19.4460    3.8360 C   0  0  0  0  0  0  0  0  0  0  0  0
    1.6800   16.5940   -1.1010 C   0  0  1  0  0  0  0  0  0  0  0  0
    2.3620   16.2880    0.2590 C   0  0  0  0  0  0  0  0  0  0  0  0
    2.6950   14.7740    0.2620 C   0  0  0  0  0  0  0  0  0  0  0  0
    2.5010   14.3290   -1.2060 C   0  0  1  0  0  0  0  0  0  0  0  0
    3.8200   14.7450   -1.9290 C   0  0  0  0  0  0  0  0  0  0  0  0
    2.1710   12.8170   -1.4320 C   0  0  2  0  0  0  0  0  0  0  0  0
    3.2650   11.8360   -0.9750 C   0  0  0  0  0  0  0  0  0  0  0  0
    4.2770   11.4810   -2.0140 C   0  0  0  0  0  0  0  0  0  0  0  0
    4.1520   11.7020   -3.3360 C   0  0  0  0  0  0  0  0  0  0  0  0
    2.8570   12.2810   -3.9190 C   0  0  1  0  0  0  0  0  0  0  0  0
    2.4400   11.4610   -5.1680 C   0  0  0  0  0  0  0  0  0  0  0  0
    3.5560   11.3680   -6.2050 C   0  0  0  0  0  0  0  0  0  0  0  0
    4.8080   10.7350   -5.6030 C   0  0  2  0  0  0  0  0  0  0  0  0
    4.5270    9.3670   -5.2890 O   0  0  0  0  0  0  0  0  0  0  0  0
    5.3150   11.4700   -4.3310 C   0  0  0  0  0  0  0  0  0  0  0  0
    5.9010   12.8480   -4.7260 C   0  0  0  0  0  0  0  0  0  0  0  0
    6.4960   10.6490   -3.7450 C   0  0  0  0  0  0  0  0  0  0  0  0
    1.6610   12.4760   -2.8900 C   0  0  1  0  0  0  0  0  0  0  0  0
    0.8360   11.1570   -2.7760 C   0  0  0  0  0  0  0  0  0  0  0  0
    0.6750   13.5690   -3.4500 C   0  0  0  0  0  0  0  0  0  0  0  0
    0.9870   15.0340   -3.0930 C   0  0  0  0  0  0  0  0  0  0  0  0
    1.2430   15.1900   -1.5900 C   0  0  2  0  0  0  0  0  0  0  0  0
   -0.0740   14.7990   -0.8380 C   0  0  0  0  0  0  0  0  0  0  0  0
    0.0650   19.3770   -2.1943 H   0  0  0  0  0  0  0  0  0  0  0  0
    1.3331   18.3262   -2.9114 H   0  0  0  0  0  0  0  0  0  0  0  0
   -0.3819   17.7919   -2.9114 H   0  0  0  0  0  0  0  0  0  0  0  0
   -0.3552   17.1991   -0.6976 H   0  0  0  0  0  0  0  0  0  0  0  0
    0.4274   19.6121   -0.0779 H   0  0  0  0  0  0  0  0  0  0  0  0
    0.7010   18.2196    1.0752 H   0  0  0  0  0  0  0  0  0  0  0  0
    3.0376   18.0590    0.0497 H   0  0  0  0  0  0  0  0  0  0  0  0
    2.7030   19.7060   -0.6305 H   0  0  0  0  0  0  0  0  0  0  0  0
    1.8057   19.9090    1.6725 H   0  0  0  0  0  0  0  0  0  0  0  0
    5.0412   17.3375    2.9378 H   0  0  0  0  0  0  0  0  0  0  0  0
    4.0800   17.1765    1.4289 H   0  0  0  0  0  0  0  0  0  0  0  0
    5.5976   18.1375    1.4289 H   0  0  0  0  0  0  0  0  0  0  0  0
    3.9760   18.5333    4.4469 H   0  0  0  0  0  0  0  0  0  0  0  0
    4.7699   20.0984    4.0636 H   0  0  0  0  0  0  0  0  0  0  0  0
    2.9777   19.9767    4.0636 H   0  0  0  0  0  0  0  0  0  0  0  0
    2.3309   17.0684   -1.8502 H   0  0  0  0  0  0  0  0  0  0  0  0
    3.2842   16.8788    0.3617 H   0  0  0  0  0  0  0  0  0  0  0  0
    1.7018   16.5487    1.0993 H   0  0  0  0  0  0  0  0  0  0  0  0
    3.7329   14.6053    0.5850 H   0  0  0  0  0  0  0  0  0  0  0  0
    2.0574   14.2081    0.9571 H   0  0  0  0  0  0  0  0  0  0  0  0
    4.5881   14.9873   -1.1798 H   0  0  0  0  0  0  0  0  0  0  0  0
    4.1709   13.9139   -2.5584 H   0  0  0  0  0  0  0  0  0  0  0  0
    3.6306   15.6270   -2.5584 H   0  0  0  0  0  0  0  0  0  0  0  0
    1.3217   12.6560   -0.7517 H   0  0  0  0  0  0  0  0  0  0  0  0
    3.7953   12.2900   -0.1249 H   0  0  0  0  0  0  0  0  0  0  0  0
    2.7474   10.8991   -0.7213 H   0  0  0  0  0  0  0  0  0  0  0  0
    5.2034   10.9978   -1.6699 H   0  0  0  0  0  0  0  0  0  0  0  0
    3.0903   13.3152   -4.2123 H   0  0  0  0  0  0  0  0  0  0  0  0
    2.1699   10.4438   -4.8482 H   0  0  0  0  0  0  0  0  0  0  0  0
    1.5892   11.9764   -5.6376 H   0  0  0  0  0  0  0  0  0  0  0  0
    3.2122   10.7531   -7.0498 H   0  0  0  0  0  0  0  0  0  0  0  0
    3.8049   12.3840   -6.5454 H   0  0  0  0  0  0  0  0  0  0  0  0
    5.6105   10.8142   -6.3512 H   0  0  0  0  0  0  0  0  0  0  0  0
    3.9970    9.0010   -6.0170 H   0  0  0  0  0  0  0  0  0  0  0  0
    6.1433   13.4177   -3.8167 H   0  0  0  0  0  0  0  0  0  0  0  0
    6.8145   12.7011   -5.3209 H   0  0  0  0  0  0  0  0  0  0  0  0
    5.1615   13.4040   -5.3209 H   0  0  0  0  0  0  0  0  0  0  0  0
    6.4535   10.6785   -2.6462 H   0  0  0  0  0  0  0  0  0  0  0  0
    6.4228    9.6060   -4.0869 H   0  0  0  0  0  0  0  0  0  0  0  0
    7.4481   11.0810   -4.0869 H   0  0  0  0  0  0  0  0  0  0  0  0
    0.6823   10.9112   -1.7149 H   0  0  0  0  0  0  0  0  0  0  0  0
   -0.1395   11.2911   -3.2664 H   0  0  0  0  0  0  0  0  0  0  0  0
    1.3834   10.3386   -3.2664 H   0  0  0  0  0  0  0  0  0  0  0  0
    0.6751   13.4865   -4.5469 H   0  0  0  0  0  0  0  0  0  0  0  0
   -0.2924   13.3560   -2.9717 H   0  0  0  0  0  0  0  0  0  0  0  0
    1.8818   15.3563   -3.6457 H   0  0  0  0  0  0  0  0  0  0  0  0
    0.1207   15.6539   -3.3674 H   0  0  0  0  0  0  0  0  0  0  0  0
    0.0950   14.8492    0.2478 H   0  0  0  0  0  0  0  0  0  0  0  0
   -0.8766   15.4976   -1.1168 H   0  0  0  0  0  0  0  0  0  0  0  0
   -0.3654   13.7756   -1.1168 H   0  0  0  0  0  0  0  0  0  0  0  0
  1  2  1  0
  2  3  1  0
  3  4  1  0
  4  5  1  0
  5  6  1  0
  6  7  1  0
  7  8  1  0
  7  9  1  0
  2 10  1  0
 10 11  1  0
 11 12  1  0
 12 13  1  0
 13 14  1  6
 13 15  1  0
 15 16  1  0
 16 17  1  0
 17 18  2  0
 18 19  1  0
 19 20  1  0
 20 21  1  0
 21 22  1  0
 22 23  1  0
 22 24  1  0
 24 25  1  0
 24 26  1  0
 19 27  1  0
 27 28  1  1
 27 29  1  0
 29 30  1  0
 30 31  1  0
 31 32  1  1
  7  5  1  0
 31 10  1  0
 31 13  1  0
 27 15  1  0
 24 18  1  0
  1 33  1  0
  1 34  1  0
  1 35  1  0
  2 36  1  1
  3 37  1  0
  3 38  1  0
  4 39  1  0
  4 40  1  0
  5 41  1  1
  8 42  1  0
  8 43  1  0
  8 44  1  0
  9 45  1  0
  9 46  1  0
  9 47  1  0
 10 48  1  6
 11 49  1  0
 11 50  1  0
 12 51  1  0
 12 52  1  0
 14 53  1  0
 14 54  1  0
 14 55  1  0
 15 56  1  1
 16 57  1  0
 16 58  1  0
 17 59  1  0
 19 60  1  6
 20 61  1  0
 20 62  1  0
 21 63  1  0
 21 64  1  0
 22 65  1  6
 23 66  1  0
 25 67  1  0
 25 68  1  0
 25 69  1  0
 26 70  1  0
 26 71  1  0
 26 72  1  0
 28 73  1  0
 28 74  1  0
 28 75  1  0
 29 76  1  0
 29 77  1  0
 30 78  1  0
 30 79  1  0
 32 80  1  0
 32 81  1  0
 32 82  1  0
M  END
>  <meeko>  (17) 
{"is_sidechain": [false], "intermolecular_energy": 2.731, "internal_energy": -0.839}

$$$$
EPH_relaxed_0001_pdb2pqr_Repair_160_r2_0001_out
     RDKit          3D

 82 86  0  0  0  0  0  0  0  0999 V2000
   -2.9740    9.6050    0.4290 C   0  0  0  0  0  0  0  0  0  0  0  0
   -2.9440    9.5970   -1.1020 C   0  0  2  0  0  0  0  0  0  0  0  0
   -2.6790    8.1890   -1.6710 C   0  0  0  0  0  0  0  0  0  0  0  0
   -3.8990    7.5570   -2.3450 C   0  0  0  0  0  0  0  0  0  0  0  0
   -5.0940    7.5580   -1.4400 C   0  0  2  0  0  0  0  0  0  0  0  0
   -5.5350    6.2570   -1.0280 O   0  0  0  0  0  0  0  0  0  0  0  0
   -6.4500    7.0070   -1.8430 C   0  0  0  0  0  0  0  0  0  0  0  0
   -6.6800    6.4180   -3.1990 C   0  0  0  0  0  0  0  0  0  0  0  0
   -7.6630    7.4820   -1.1060 C   0  0  0  0  0  0  0  0  0  0  0  0
   -1.8850   10.5710   -1.6060 C   0  0  1  0  0  0  0  0  0  0  0  0
   -2.1800   12.0390   -1.1960 C   0  0  0  0  0  0  0  0  0  0  0  0
   -0.8090   12.7140   -0.9360 C   0  0  0  0  0  0  0  0  0  0  0  0
    0.2290   11.7270   -1.5180 C   0  0  1  0  0  0  0  0  0  0  0  0
    0.2380   12.0130   -3.0530 C   0  0  0  0  0  0  0  0  0  0  0  0
    1.6680   11.7980   -0.9090 C   0  0  2  0  0  0  0  0  0  0  0  0
    2.3970   13.1370   -1.1140 C   0  0  0  0  0  0  0  0  0  0  0  0
    3.2220   13.2310   -2.3550 C   0  0  0  0  0  0  0  0  0  0  0  0
    3.6010   12.1930   -3.1220 C   0  0  0  0  0  0  0  0  0  0  0  0
    3.2790   10.7500   -2.7110 C   0  0  1  0  0  0  0  0  0  0  0  0
    4.5460    9.8690   -2.8760 C   0  0  0  0  0  0  0  0  0  0  0  0
    5.1400    9.9570   -4.2780 C   0  0  0  0  0  0  0  0  0  0  0  0
    5.5010   11.3990   -4.6280 C   0  0  2  0  0  0  0  0  0  0  0  0
    6.5740   11.8240   -3.7820 O   0  0  0  0  0  0  0  0  0  0  0  0
    4.3050   12.3810   -4.4890 C   0  0  0  0  0  0  0  0  0  0  0  0
    3.2720   12.1060   -5.6090 C   0  0  0  0  0  0  0  0  0  0  0  0
    4.8370   13.8190   -4.7330 C   0  0  0  0  0  0  0  0  0  0  0  0
    2.5930   10.5720   -1.2890 C   0  0  1  0  0  0  0  0  0  0  0  0
    3.6850   10.4780   -0.1790 C   0  0  0  0  0  0  0  0  0  0  0  0
    1.8140    9.2030   -1.2620 C   0  0  0  0  0  0  0  0  0  0  0  0
    0.3580    9.2230   -1.7640 C   0  0  0  0  0  0  0  0  0  0  0  0
   -0.4320   10.3600   -1.1110 C   0  0  2  0  0  0  0  0  0  0  0  0
   -0.4770   10.0870    0.4310 C   0  0  0  0  0  0  0  0  0  0  0  0
   -1.9793    9.3398    0.8166 H   0  0  0  0  0  0  0  0  0  0  0  0
   -3.2507   10.6083    0.7851 H   0  0  0  0  0  0  0  0  0  0  0  0
   -3.7135    8.8727    0.7851 H   0  0  0  0  0  0  0  0  0  0  0  0
   -3.9372    9.9127   -1.4539 H   0  0  0  0  0  0  0  0  0  0  0  0
   -1.8708    8.2612   -2.4137 H   0  0  0  0  0  0  0  0  0  0  0  0
   -2.4121    7.5442   -0.8207 H   0  0  0  0  0  0  0  0  0  0  0  0
   -4.1397    8.1276   -3.2541 H   0  0  0  0  0  0  0  0  0  0  0  0
   -3.6539    6.5127   -2.5888 H   0  0  0  0  0  0  0  0  0  0  0  0
   -4.7889    8.5189   -1.0000 H   0  0  0  0  0  0  0  0  0  0  0  0
   -7.0783    5.3981   -3.0930 H   0  0  0  0  0  0  0  0  0  0  0  0
   -7.4020    7.0381   -3.7505 H   0  0  0  0  0  0  0  0  0  0  0  0
   -5.7288    6.3847   -3.7505 H   0  0  0  0  0  0  0  0  0  0  0  0
   -7.4846    7.4122   -0.0228 H   0  0  0  0  0  0  0  0  0  0  0  0
   -7.8704    8.5278   -1.3768 H   0  0  0  0  0  0  0  0  0  0  0  0
   -8.5254    6.8552   -1.3768 H   0  0  0  0  0  0  0  0  0  0  0  0
   -1.9477   10.3696   -2.6856 H   0  0  0  0  0  0  0  0  0  0  0  0
   -2.7109   12.5595   -2.0067 H   0  0  0  0  0  0  0  0  0  0  0  0
   -2.8165   12.0788   -0.2997 H   0  0  0  0  0  0  0  0  0  0  0  0
   -0.7511   13.6854   -1.4488 H   0  0  0  0  0  0  0  0  0  0  0  0
   -0.6394   12.9156    0.1320 H   0  0  0  0  0  0  0  0  0  0  0  0
    0.2722   13.0992   -3.2234 H   0  0  0  0  0  0  0  0  0  0  0  0
    1.1218   11.5424   -3.5085 H   0  0  0  0  0  0  0  0  0  0  0  0
   -0.6736   11.5989   -3.5085 H   0  0  0  0  0  0  0  0  0  0  0  0
    1.4718   11.7270    0.1710 H   0  0  0  0  0  0  0  0  0  0  0  0
    1.6400   13.9343   -1.1480 H   0  0  0  0  0  0  0  0  0  0  0  0
    3.1001   13.2323   -0.2734 H   0  0  0  0  0  0  0  0  0  0  0  0
    3.5474   14.2339   -2.6685 H   0  0  0  0  0  0  0  0  0  0  0  0
    2.4933   10.4055   -3.3995 H   0  0  0  0  0  0  0  0  0  0  0  0
    5.3033   10.2009   -2.1505 H   0  0  0  0  0  0  0  0  0  0  0  0
    4.2510    8.8235   -2.7030 H   0  0  0  0  0  0  0  0  0  0  0  0
    6.0477    9.3373   -4.3240 H   0  0  0  0  0  0  0  0  0  0  0  0
    4.3918    9.5972   -4.9996 H   0  0  0  0  0  0  0  0  0  0  0  0
    5.7992   11.4167   -5.6867 H   0  0  0  0  0  0  0  0  0  0  0  0
    7.1410   11.0520   -3.6150 H   0  0  0  0  0  0  0  0  0  0  0  0
    2.3024   11.8479   -5.1582 H   0  0  0  0  0  0  0  0  0  0  0  0
    3.1588   13.0053   -6.2323 H   0  0  0  0  0  0  0  0  0  0  0  0
    3.6209   11.2695   -6.2323 H   0  0  0  0  0  0  0  0  0  0  0  0
    5.0192   14.3115   -3.7664 H   0  0  0  0  0  0  0  0  0  0  0  0
    5.7767   13.7706   -5.3027 H   0  0  0  0  0  0  0  0  0  0  0  0
    4.0920   14.3938   -5.3027 H   0  0  0  0  0  0  0  0  0  0  0  0
    3.2064   10.5192    0.8106 H   0  0  0  0  0  0  0  0  0  0  0  0
    4.2323    9.5294   -0.2824 H   0  0  0  0  0  0  0  0  0  0  0  0
    4.3863   11.3191   -0.2824 H   0  0  0  0  0  0  0  0  0  0  0  0
    2.3718    8.4902   -1.8871 H   0  0  0  0  0  0  0  0  0  0  0  0
    1.7483    8.9299   -0.1985 H   0  0  0  0  0  0  0  0  0  0  0  0
    0.3556    9.3636   -2.8550 H   0  0  0  0  0  0  0  0  0  0  0  0
   -0.1177    8.2677   -1.4974 H   0  0  0  0  0  0  0  0  0  0  0  0
   -0.3215   11.0303    0.9751 H   0  0  0  0  0  0  0  0  0  0  0  0
   -1.4567    9.6656    0.7003 H   0  0  0  0  0  0  0  0  0  0  0  0
    0.3156    9.3734    0.7003 H   0  0  0  0  0  0  0  0  0  0  0  0
  1  2  1  0
  2  3  1  0
  3  4  1  0
  4  5  1  0
  5  6  1  0
  6  7  1  0
  7  8  1  0
  7  9  1  0
  2 10  1  0
 10 11  1  0
 11 12  1  0
 12 13  1  0
 13 14  1  6
 13 15  1  0
 15 16  1  0
 16 17  1  0
 17 18  2  0
 18 19  1  0
 19 20  1  0
 20 21  1  0
 21 22  1  0
 22 23  1  0
 22 24  1  0
 24 25  1  0
 24 26  1  0
 19 27  1  0
 27 28  1  1
 27 29  1  0
 29 30  1  0
 30 31  1  0
 31 32  1  1
  7  5  1  0
 31 10  1  0
 31 13  1  0
 27 15  1  0
 24 18  1  0
  1 33  1  0
  1 34  1  0
  1 35  1  0
  2 36  1  6
  3 37  1  0
  3 38  1  0
  4 39  1  0
  4 40  1  0
  5 41  1  1
  8 42  1  0
  8 43  1  0
  8 44  1  0
  9 45  1  0
  9 46  1  0
  9 47  1  0
 10 48  1  6
 11 49  1  0
 11 50  1  0
 12 51  1  0
 12 52  1  0
 14 53  1  0
 14 54  1  0
 14 55  1  0
 15 56  1  1
 16 57  1  0
 16 58  1  0
 17 59  1  0
 19 60  1  6
 20 61  1  0
 20 62  1  0
 21 63  1  0
 21 64  1  0
 22 65  1  6
 23 66  1  0
 25 67  1  0
 25 68  1  0
 25 69  1  0
 26 70  1  0
 26 71  1  0
 26 72  1  0
 28 73  1  0
 28 74  1  0
 28 75  1  0
 29 76  1  0
 29 77  1  0
 30 78  1  0
 30 79  1  0
 32 80  1  0
 32 81  1  0
 32 82  1  0
M  END
>  <meeko>  (18) 
{"is_sidechain": [false], "intermolecular_energy": 2.731, "internal_energy": -0.839}

$$$$
EPH_relaxed_0001_pdb2pqr_Repair_160_r2_0001_out
     RDKit          3D

 82 86  0  0  0  0  0  0  0  0999 V2000
   -0.3320    9.0840   -1.2180 C   0  0  0  0  0  0  0  0  0  0  0  0
    0.5380   10.0850   -1.9820 C   0  0  2  0  0  0  0  0  0  0  0  0
    1.9310    9.5120   -2.3100 C   0  0  0  0  0  0  0  0  0  0  0  0
    2.5520   10.0940   -3.5830 C   0  0  0  0  0  0  0  0  0  0  0  0
    4.0480   10.0010   -3.5630 C   0  0  2  0  0  0  0  0  0  0  0  0
    4.7090   11.1130   -2.9470 O   0  0  0  0  0  0  0  0  0  0  0  0
    4.9540   10.9280   -4.3510 C   0  0  0  0  0  0  0  0  0  0  0  0
    4.3970   12.0160   -5.2140 C   0  0  0  0  0  0  0  0  0  0  0  0
    6.3450   10.4730   -4.6640 C   0  0  0  0  0  0  0  0  0  0  0  0
    0.6810   11.3710   -1.1750 C   0  0  1  0  0  0  0  0  0  0  0  0
    1.6250   11.2080    0.0460 C   0  0  0  0  0  0  0  0  0  0  0  0
    2.3700   12.5560    0.2180 C   0  0  0  0  0  0  0  0  0  0  0  0
    1.6010   13.5460   -0.6870 C   0  0  1  0  0  0  0  0  0  0  0  0
    0.3610   13.9800    0.1560 C   0  0  0  0  0  0  0  0  0  0  0  0
    2.4080   14.7810   -1.2040 C   0  0  2  0  0  0  0  0  0  0  0  0
    2.9190   15.7320   -0.1080 C   0  0  0  0  0  0  0  0  0  0  0  0
    1.9920   16.8440    0.2550 C   0  0  0  0  0  0  0  0  0  0  0  0
    0.9280   17.2420   -0.4670 C   0  0  0  0  0  0  0  0  0  0  0  0
    0.6230   16.6140   -1.8330 C   0  0  1  0  0  0  0  0  0  0  0  0
    0.3070   17.7340   -2.8590 C   0  0  0  0  0  0  0  0  0  0  0  0
   -0.8040   18.6650   -2.3840 C   0  0  0  0  0  0  0  0  0  0  0  0
   -0.4390   19.3150   -1.0520 C   0  0  2  0  0  0  0  0  0  0  0  0
    0.6710   20.1940   -1.2560 O   0  0  0  0  0  0  0  0  0  0  0  0
   -0.0910   18.2840    0.0580 C   0  0  0  0  0  0  0  0  0  0  0  0
   -1.3740   17.5330    0.4920 C   0  0  0  0  0  0  0  0  0  0  0  0
    0.3950   19.0700    1.3050 C   0  0  0  0  0  0  0  0  0  0  0  0
    1.6980   15.5760   -2.3740 C   0  0  1  0  0  0  0  0  0  0  0  0
    2.8240   16.3300   -3.1460 C   0  0  0  0  0  0  0  0  0  0  0  0
    1.0090   14.6180   -3.4160 C   0  0  0  0  0  0  0  0  0  0  0  0
    0.3310   13.3530   -2.8560 C   0  0  0  0  0  0  0  0  0  0  0  0
    1.2690   12.6050   -1.9030 C   0  0  2  0  0  0  0  0  0  0  0  0
    2.5160   12.1370   -2.7280 C   0  0  0  0  0  0  0  0  0  0  0  0
   -0.2008    9.2349   -0.1363 H   0  0  0  0  0  0  0  0  0  0  0  0
   -1.3881    9.2380   -1.4843 H   0  0  0  0  0  0  0  0  0  0  0  0
   -0.0323    8.0597   -1.4843 H   0  0  0  0  0  0  0  0  0  0  0  0
    0.0357   10.2986   -2.9370 H   0  0  0  0  0  0  0  0  0  0  0  0
    2.6027    9.7276   -1.4660 H   0  0  0  0  0  0  0  0  0  0  0  0
    1.8028    8.4327   -2.4793 H   0  0  0  0  0  0  0  0  0  0  0  0
    2.1718    9.5368   -4.4519 H   0  0  0  0  0  0  0  0  0  0  0  0
    2.2754   11.1569   -3.6443 H   0  0  0  0  0  0  0  0  0  0  0  0
    4.0022    8.9047   -3.4852 H   0  0  0  0  0  0  0  0  0  0  0  0
    3.9879   12.8151   -4.5783 H   0  0  0  0  0  0  0  0  0  0  0  0
    5.1963   12.4257   -5.8491 H   0  0  0  0  0  0  0  0  0  0  0  0
    3.5973   11.6071   -5.8491 H   0  0  0  0  0  0  0  0  0  0  0  0
    6.8919   10.2941   -3.7265 H   0  0  0  0  0  0  0  0  0  0  0  0
    6.3035    9.5416   -5.2478 H   0  0  0  0  0  0  0  0  0  0  0  0
    6.8619   11.2489   -5.2478 H   0  0  0  0  0  0  0  0  0  0  0  0
   -0.3749   11.5500   -0.9240 H   0  0  0  0  0  0  0  0  0  0  0  0
    1.0401   10.9805    0.9494 H   0  0  0  0  0  0  0  0  0  0  0  0
    2.3342   10.3818   -0.1105 H   0  0  0  0  0  0  0  0  0  0  0  0
    2.3396   12.8852    1.2671 H   0  0  0  0  0  0  0  0  0  0  0  0
    3.4332   12.4822   -0.0542 H   0  0  0  0  0  0  0  0  0  0  0  0
    0.5984   13.8969    1.2269 H   0  0  0  0  0  0  0  0  0  0  0  0
    0.1021   15.0222   -0.0824 H   0  0  0  0  0  0  0  0  0  0  0  0
   -0.4913   13.3267   -0.0824 H   0  0  0  0  0  0  0  0  0  0  0  0
    3.3051   14.3124   -1.6349 H   0  0  0  0  0  0  0  0  0  0  0  0
    3.1068   15.1368    0.7978 H   0  0  0  0  0  0  0  0  0  0  0  0
    3.8216   16.2098   -0.5166 H   0  0  0  0  0  0  0  0  0  0  0  0
    2.1955   17.3838    1.1916 H   0  0  0  0  0  0  0  0  0  0  0  0
   -0.2650   15.9817   -1.6858 H   0  0  0  0  0  0  0  0  0  0  0  0
    1.2180   18.3278   -3.0248 H   0  0  0  0  0  0  0  0  0  0  0  0
   -0.0353   17.2510   -3.7861 H   0  0  0  0  0  0  0  0  0  0  0  0
   -0.9613   19.4512   -3.1371 H   0  0  0  0  0  0  0  0  0  0  0  0
   -1.7219   18.0746   -2.2466 H   0  0  0  0  0  0  0  0  0  0  0  0
   -1.3237   19.8670   -0.7018 H   0  0  0  0  0  0  0  0  0  0  0  0
    0.4770   21.0260   -0.7920 H   0  0  0  0  0  0  0  0  0  0  0  0
   -1.4269   17.5020    1.5903 H   0  0  0  0  0  0  0  0  0  0  0  0
   -2.2569   18.0569    0.0970 H   0  0  0  0  0  0  0  0  0  0  0  0
   -1.3495   16.5067    0.0970 H   0  0  0  0  0  0  0  0  0  0  0  0
    0.0716   18.5470    2.2171 H   0  0  0  0  0  0  0  0  0  0  0  0
    1.4928   19.1377    1.2909 H   0  0  0  0  0  0  0  0  0  0  0  0
   -0.0350   20.0824    1.2909 H   0  0  0  0  0  0  0  0  0  0  0  0
    3.5153   16.7929   -2.4264 H   0  0  0  0  0  0  0  0  0  0  0  0
    3.3752   15.6182   -3.7781 H   0  0  0  0  0  0  0  0  0  0  0  0
    2.3757   17.1107   -3.7781 H   0  0  0  0  0  0  0  0  0  0  0  0
    0.2407   15.2003   -3.9457 H   0  0  0  0  0  0  0  0  0  0  0  0
    1.8274   14.2481   -4.0511 H   0  0  0  0  0  0  0  0  0  0  0  0
   -0.5791   13.6437   -2.3108 H   0  0  0  0  0  0  0  0  0  0  0  0
    0.0805   12.6880   -3.6957 H   0  0  0  0  0  0  0  0  0  0  0  0
    3.3191   11.8356   -2.0394 H   0  0  0  0  0  0  0  0  0  0  0  0
    2.2366   11.2825   -3.3619 H   0  0  0  0  0  0  0  0  0  0  0  0
    2.8678   12.9643   -3.3619 H   0  0  0  0  0  0  0  0  0  0  0  0
  1  2  1  0
  2  3  1  0
  3  4  1  0
  4  5  1  0
  5  6  1  0
  6  7  1  0
  7  8  1  0
  7  9  1  0
  2 10  1  0
 10 11  1  0
 11 12  1  0
 12 13  1  0
 13 14  1  1
 13 15  1  0
 15 16  1  0
 16 17  1  0
 17 18  2  0
 18 19  1  0
 19 20  1  0
 20 21  1  0
 21 22  1  0
 22 23  1  0
 22 24  1  0
 24 25  1  0
 24 26  1  0
 19 27  1  0
 27 28  1  6
 27 29  1  0
 29 30  1  0
 30 31  1  0
 31 32  1  6
  7  5  1  0
 31 10  1  0
 31 13  1  0
 27 15  1  0
 24 18  1  0
  1 33  1  0
  1 34  1  0
  1 35  1  0
  2 36  1  6
  3 37  1  0
  3 38  1  0
  4 39  1  0
  4 40  1  0
  5 41  1  1
  8 42  1  0
  8 43  1  0
  8 44  1  0
  9 45  1  0
  9 46  1  0
  9 47  1  0
 10 48  1  1
 11 49  1  0
 11 50  1  0
 12 51  1  0
 12 52  1  0
 14 53  1  0
 14 54  1  0
 14 55  1  0
 15 56  1  6
 16 57  1  0
 16 58  1  0
 17 59  1  0
 19 60  1  1
 20 61  1  0
 20 62  1  0
 21 63  1  0
 21 64  1  0
 22 65  1  1
 23 66  1  0
 25 67  1  0
 25 68  1  0
 25 69  1  0
 26 70  1  0
 26 71  1  0
 26 72  1  0
 28 73  1  0
 28 74  1  0
 28 75  1  0
 29 76  1  0
 29 77  1  0
 30 78  1  0
 30 79  1  0
 32 80  1  0
 32 81  1  0
 32 82  1  0
M  END
>  <meeko>  (19) 
{"is_sidechain": [false], "intermolecular_energy": 2.731, "internal_energy": -0.839}

$$$$
