EPH_relaxed_0001_pdb2pqr_Repair_146_r2_0001_out
     RDKit          3D

 82 86  0  0  0  0  0  0  0  0999 V2000
   -1.6970    8.5880   -1.8890 C   0  0  0  0  0  0  0  0  0  0  0  0
   -2.0710    9.1070   -0.4980 C   0  0  2  0  0  0  0  0  0  0  0  0
   -3.5650    9.4750   -0.3980 C   0  0  0  0  0  0  0  0  0  0  0  0
   -4.4910    8.2620   -0.2730 C   0  0  0  0  0  0  0  0  0  0  0  0
   -5.1870    7.9600   -1.5660 C   0  0  2  0  0  0  0  0  0  0  0  0
   -6.3660    8.7390   -1.8070 O   0  0  0  0  0  0  0  0  0  0  0  0
   -6.5620    7.3240   -1.6470 C   0  0  0  0  0  0  0  0  0  0  0  0
   -7.3240    6.9520   -0.4140 C   0  0  0  0  0  0  0  0  0  0  0  0
   -6.9530    6.6230   -2.9100 C   0  0  0  0  0  0  0  0  0  0  0  0
   -1.2120   10.3150   -0.1450 C   0  0  1  0  0  0  0  0  0  0  0  0
   -0.1750   10.0070    0.9670 C   0  0  0  0  0  0  0  0  0  0  0  0
    1.0920   10.8380    0.6400 C   0  0  0  0  0  0  0  0  0  0  0  0
    0.6320   11.8400   -0.4460 C   0  0  1  0  0  0  0  0  0  0  0  0
   -0.0720   12.9890    0.3420 C   0  0  0  0  0  0  0  0  0  0  0  0
    1.7460   12.3890   -1.3960 C   0  0  2  0  0  0  0  0  0  0  0  0
    2.8510   13.2040   -0.7020 C   0  0  0  0  0  0  0  0  0  0  0  0
    2.5980   14.6730   -0.6100 C   0  0  0  0  0  0  0  0  0  0  0  0
    1.6710   15.3520   -1.3090 C   0  0  0  0  0  0  0  0  0  0  0  0
    0.8210   14.6520   -2.3780 C   0  0  1  0  0  0  0  0  0  0  0  0
    0.7860   15.5210   -3.6620 C   0  0  0  0  0  0  0  0  0  0  0  0
    0.3210   16.9480   -3.3900 C   0  0  0  0  0  0  0  0  0  0  0  0
    1.2250   17.6300   -2.3660 C   0  0  2  0  0  0  0  0  0  0  0  0
    2.5230   17.8050   -2.9420 O   0  0  0  0  0  0  0  0  0  0  0  0
    1.3450   16.8410   -1.0330 C   0  0  0  0  0  0  0  0  0  0  0  0
    0.0030   16.9100   -0.2640 C   0  0  0  0  0  0  0  0  0  0  0  0
    2.3930   17.5620   -0.1440 C   0  0  0  0  0  0  0  0  0  0  0  0
    1.1940   13.1360   -2.6770 C   0  0  1  0  0  0  0  0  0  0  0  0
    2.3220   13.0680   -3.7520 C   0  0  0  0  0  0  0  0  0  0  0  0
   -0.0580   12.4120   -3.2990 C   0  0  0  0  0  0  0  0  0  0  0  0
   -1.0600   11.7850   -2.3120 C   0  0  0  0  0  0  0  0  0  0  0  0
   -0.3390   10.9210   -1.2730 C   0  0  2  0  0  0  0  0  0  0  0  0
    0.3610    9.7430   -2.0330 C   0  0  0  0  0  0  0  0  0  0  0  0
   -1.0566    7.6993   -1.7888 H   0  0  0  0  0  0  0  0  0  0  0  0
   -2.6115    8.3208   -2.4388 H   0  0  0  0  0  0  0  0  0  0  0  0
   -1.1542    9.3710   -2.4388 H   0  0  0  0  0  0  0  0  0  0  0  0
   -1.8823    8.2950    0.2197 H   0  0  0  0  0  0  0  0  0  0  0  0
   -3.7070   10.1129    0.4868 H   0  0  0  0  0  0  0  0  0  0  0  0
   -3.8327    9.9886   -1.3332 H   0  0  0  0  0  0  0  0  0  0  0  0
   -3.8941    7.3869    0.0234 H   0  0  0  0  0  0  0  0  0  0  0  0
   -5.2564    8.4915    0.4829 H   0  0  0  0  0  0  0  0  0  0  0  0
   -4.2308    7.7137   -2.0507 H   0  0  0  0  0  0  0  0  0  0  0  0
   -6.7428    7.2357    0.4758 H   0  0  0  0  0  0  0  0  0  0  0  0
   -8.2887    7.4805   -0.4057 H   0  0  0  0  0  0  0  0  0  0  0  0
   -7.5006    5.8663   -0.4057 H   0  0  0  0  0  0  0  0  0  0  0  0
   -7.4752    5.6868   -2.6632 H   0  0  0  0  0  0  0  0  0  0  0  0
   -7.6200    7.2710   -3.4976 H   0  0  0  0  0  0  0  0  0  0  0  0
   -6.0512    6.3959   -3.4976 H   0  0  0  0  0  0  0  0  0  0  0  0
   -2.0018   11.0248    0.1420 H   0  0  0  0  0  0  0  0  0  0  0  0
   -0.5755   10.2977    1.9494 H   0  0  0  0  0  0  0  0  0  0  0  0
    0.0565    8.9323    1.0043 H   0  0  0  0  0  0  0  0  0  0  0  0
    1.4484   11.3707    1.5340 H   0  0  0  0  0  0  0  0  0  0  0  0
    1.9275   10.2085    0.2998 H   0  0  0  0  0  0  0  0  0  0  0  0
    0.0361   12.8125    1.4223 H   0  0  0  0  0  0  0  0  0  0  0  0
    0.3917   13.9513    0.0795 H   0  0  0  0  0  0  0  0  0  0  0  0
   -1.1399   13.0129    0.0795 H   0  0  0  0  0  0  0  0  0  0  0  0
    2.2319   11.4673   -1.7488 H   0  0  0  0  0  0  0  0  0  0  0  0
    2.9693   12.8148    0.3200 H   0  0  0  0  0  0  0  0  0  0  0  0
    3.7506   13.0886   -1.3243 H   0  0  0  0  0  0  0  0  0  0  0  0
    3.2229   15.2485    0.0888 H   0  0  0  0  0  0  0  0  0  0  0  0
   -0.1913   14.5691   -1.9557 H   0  0  0  0  0  0  0  0  0  0  0  0
    1.7979   15.5558   -4.0919 H   0  0  0  0  0  0  0  0  0  0  0  0
    0.0667   15.0621   -4.3563 H   0  0  0  0  0  0  0  0  0  0  0  0
    0.3454   17.5199   -4.3293 H   0  0  0  0  0  0  0  0  0  0  0  0
   -0.7022   16.9134   -2.9875 H   0  0  0  0  0  0  0  0  0  0  0  0
    0.7683   18.5988   -2.1154 H   0  0  0  0  0  0  0  0  0  0  0  0
    2.8060   16.9450   -3.2960 H   0  0  0  0  0  0  0  0  0  0  0  0
    0.1996   16.8999    0.8182 H   0  0  0  0  0  0  0  0  0  0  0  0
   -0.5259   17.8365   -0.5319 H   0  0  0  0  0  0  0  0  0  0  0  0
   -0.6182   16.0426   -0.5319 H   0  0  0  0  0  0  0  0  0  0  0  0
    2.1512   17.3956    0.9161 H   0  0  0  0  0  0  0  0  0  0  0  0
    3.3944   17.1608   -0.3590 H   0  0  0  0  0  0  0  0  0  0  0  0
    2.3763   18.6407   -0.3590 H   0  0  0  0  0  0  0  0  0  0  0  0
    3.3007   13.0090   -3.2533 H   0  0  0  0  0  0  0  0  0  0  0  0
    2.1764   12.1770   -4.3804 H   0  0  0  0  0  0  0  0  0  0  0  0
    2.2845   13.9700   -4.3804 H   0  0  0  0  0  0  0  0  0  0  0  0
   -0.6043   13.1519   -3.9025 H   0  0  0  0  0  0  0  0  0  0  0  0
    0.3530   11.5651   -3.8681 H   0  0  0  0  0  0  0  0  0  0  0  0
   -1.6065   12.5878   -1.7955 H   0  0  0  0  0  0  0  0  0  0  0  0
   -1.7557   11.1469   -2.8767 H   0  0  0  0  0  0  0  0  0  0  0  0
    0.7818    9.0349   -1.3039 H   0  0  0  0  0  0  0  0  0  0  0  0
   -0.3758    9.2247   -2.6643 H   0  0  0  0  0  0  0  0  0  0  0  0
    1.1684   10.1424   -2.6643 H   0  0  0  0  0  0  0  0  0  0  0  0
  1  2  1  0
  2  3  1  0
  3  4  1  0
  4  5  1  0
  5  6  1  0
  6  7  1  0
  7  8  1  0
  7  9  1  0
  2 10  1  0
 10 11  1  0
 11 12  1  0
 12 13  1  0
 13 14  1  1
 13 15  1  0
 15 16  1  0
 16 17  1  0
 17 18  2  0
 18 19  1  0
 19 20  1  0
 20 21  1  0
 21 22  1  0
 22 23  1  0
 22 24  1  0
 24 25  1  0
 24 26  1  0
 19 27  1  0
 27 28  1  6
 27 29  1  0
 29 30  1  0
 30 31  1  0
 31 32  1  6
  7  5  1  0
 31 10  1  0
 31 13  1  0
 27 15  1  0
 24 18  1  0
  1 33  1  0
  1 34  1  0
  1 35  1  0
  2 36  1  1
  3 37  1  0
  3 38  1  0
  4 39  1  0
  4 40  1  0
  5 41  1  6
  8 42  1  0
  8 43  1  0
  8 44  1  0
  9 45  1  0
  9 46  1  0
  9 47  1  0
 10 48  1  1
 11 49  1  0
 11 50  1  0
 12 51  1  0
 12 52  1  0
 14 53  1  0
 14 54  1  0
 14 55  1  0
 15 56  1  6
 16 57  1  0
 16 58  1  0
 17 59  1  0
 19 60  1  1
 20 61  1  0
 20 62  1  0
 21 63  1  0
 21 64  1  0
 22 65  1  1
 23 66  1  0
 25 67  1  0
 25 68  1  0
 25 69  1  0
 26 70  1  0
 26 71  1  0
 26 72  1  0
 28 73  1  0
 28 74  1  0
 28 75  1  0
 29 76  1  0
 29 77  1  0
 30 78  1  0
 30 79  1  0
 32 80  1  0
 32 81  1  0
 32 82  1  0
M  END
>  <meeko>  (1) 
{"is_sidechain": [false], "intermolecular_energy": 2.731, "internal_energy": -0.839}

$$$$
EPH_relaxed_0001_pdb2pqr_Repair_146_r2_0001_out
     RDKit          3D

 82 86  0  0  0  0  0  0  0  0999 V2000
    4.2260   17.5710   -0.6200 C   0  0  0  0  0  0  0  0  0  0  0  0
    2.8670   18.1400   -0.2020 C   0  0  2  0  0  0  0  0  0  0  0  0
    2.9260   18.8350    1.1730 C   0  0  0  0  0  0  0  0  0  0  0  0
    4.2810   18.7000    1.8730 C   0  0  0  0  0  0  0  0  0  0  0  0
    4.2600   19.3050    3.2440 C   0  0  2  0  0  0  0  0  0  0  0  0
    5.3520   20.1910    3.5240 O   0  0  0  0  0  0  0  0  0  0  0  0
    5.2900   18.9920    4.3130 C   0  0  0  0  0  0  0  0  0  0  0  0
    6.4140   18.0370    4.0570 C   0  0  0  0  0  0  0  0  0  0  0  0
    4.9300   19.2310    5.7460 C   0  0  0  0  0  0  0  0  0  0  0  0
    1.8230   17.0300   -0.1810 C   0  0  1  0  0  0  0  0  0  0  0  0
    0.3900   17.5510   -0.4740 C   0  0  0  0  0  0  0  0  0  0  0  0
   -0.3360   16.4370   -1.2700 C   0  0  0  0  0  0  0  0  0  0  0  0
    0.5740   15.1950   -1.1240 C   0  0  1  0  0  0  0  0  0  0  0  0
    0.2190   14.6010    0.2750 C   0  0  0  0  0  0  0  0  0  0  0  0
    0.4630   14.1200   -2.2530 C   0  0  2  0  0  0  0  0  0  0  0  0
   -0.9170   13.4520   -2.3840 C   0  0  0  0  0  0  0  0  0  0  0  0
   -1.1060   12.2130   -1.5730 C   0  0  0  0  0  0  0  0  0  0  0  0
   -0.1220   11.4990   -0.9950 C   0  0  0  0  0  0  0  0  0  0  0  0
    1.3510   11.8690   -1.2120 C   0  0  1  0  0  0  0  0  0  0  0  0
    2.1630   10.5880   -1.5410 C   0  0  0  0  0  0  0  0  0  0  0  0
    1.9840    9.4960   -0.4910 C   0  0  0  0  0  0  0  0  0  0  0  0
    0.5130    9.1160   -0.3450 C   0  0  2  0  0  0  0  0  0  0  0  0
    0.0770    8.4900   -1.5560 O   0  0  0  0  0  0  0  0  0  0  0  0
   -0.4040   10.3280   -0.0230 C   0  0  0  0  0  0  0  0  0  0  0  0
   -0.1320   10.8170    1.4210 C   0  0  0  0  0  0  0  0  0  0  0  0
   -1.8750    9.8310   -0.0420 C   0  0  0  0  0  0  0  0  0  0  0  0
    1.6260   13.0470   -2.2430 C   0  0  1  0  0  0  0  0  0  0  0  0
    1.7180   12.4760   -3.6910 C   0  0  0  0  0  0  0  0  0  0  0  0
    3.0290   13.6890   -1.9290 C   0  0  0  0  0  0  0  0  0  0  0  0
    3.0560   14.8280   -0.8920 C   0  0  0  0  0  0  0  0  0  0  0  0
    1.9870   15.8790   -1.2050 C   0  0  2  0  0  0  0  0  0  0  0  0
    2.3310   16.5110   -2.5970 C   0  0  0  0  0  0  0  0  0  0  0  0
    4.8125   17.3254    0.2776 H   0  0  0  0  0  0  0  0  0  0  0  0
    4.0740   16.6610   -1.2189 H   0  0  0  0  0  0  0  0  0  0  0  0
    4.7677   18.3179   -1.2189 H   0  0  0  0  0  0  0  0  0  0  0  0
    2.5848   18.9014   -0.9441 H   0  0  0  0  0  0  0  0  0  0  0  0
    2.7136   19.9049    1.0308 H   0  0  0  0  0  0  0  0  0  0  0  0
    2.1818   18.3412    1.8151 H   0  0  0  0  0  0  0  0  0  0  0  0
    4.5333   17.6327    1.9583 H   0  0  0  0  0  0  0  0  0  0  0  0
    5.0314   19.2361    1.2734 H   0  0  0  0  0  0  0  0  0  0  0  0
    3.1601   19.2990    3.2553 H   0  0  0  0  0  0  0  0  0  0  0  0
    6.8245   17.6883    5.0161 H   0  0  0  0  0  0  0  0  0  0  0  0
    6.0402   17.1760    3.4834 H   0  0  0  0  0  0  0  0  0  0  0  0
    7.2033   18.5450    3.4834 H   0  0  0  0  0  0  0  0  0  0  0  0
    5.6690   18.7404    6.3965 H   0  0  0  0  0  0  0  0  0  0  0  0
    4.9250   20.3124    5.9473 H   0  0  0  0  0  0  0  0  0  0  0  0
    3.9314   18.8159    5.9473 H   0  0  0  0  0  0  0  0  0  0  0  0
    1.9791   16.6506    0.8396 H   0  0  0  0  0  0  0  0  0  0  0  0
   -0.1408   17.7505    0.4686 H   0  0  0  0  0  0  0  0  0  0  0  0
    0.4202   18.4900   -1.0462 H   0  0  0  0  0  0  0  0  0  0  0  0
   -1.3311   16.2412   -0.8440 H   0  0  0  0  0  0  0  0  0  0  0  0
   -0.4969   16.7142   -2.3223 H   0  0  0  0  0  0  0  0  0  0  0  0
    0.6125   15.2594    1.0635 H   0  0  0  0  0  0  0  0  0  0  0  0
   -0.8738   14.5232    0.3738 H   0  0  0  0  0  0  0  0  0  0  0  0
    0.6681   13.6017    0.3738 H   0  0  0  0  0  0  0  0  0  0  0  0
    0.5917   14.7214   -3.1650 H   0  0  0  0  0  0  0  0  0  0  0  0
   -1.6787   14.1817   -2.0721 H   0  0  0  0  0  0  0  0  0  0  0  0
   -1.0067   13.1434   -3.4360 H   0  0  0  0  0  0  0  0  0  0  0  0
   -2.1364   11.8531   -1.4362 H   0  0  0  0  0  0  0  0  0  0  0  0
    1.6997   12.2991   -0.2615 H   0  0  0  0  0  0  0  0  0  0  0  0
    1.8293   10.1993   -2.5144 H   0  0  0  0  0  0  0  0  0  0  0  0
    3.2279   10.8631   -1.5584 H   0  0  0  0  0  0  0  0  0  0  0  0
    2.5570    8.6074   -0.7944 H   0  0  0  0  0  0  0  0  0  0  0  0
    2.3464    9.8755    0.4758 H   0  0  0  0  0  0  0  0  0  0  0  0
    0.4329    8.4277    0.5093 H   0  0  0  0  0  0  0  0  0  0  0  0
    0.1280    7.5280   -1.4260 H   0  0  0  0  0  0  0  0  0  0  0  0
   -0.5377   10.0877    2.1376 H   0  0  0  0  0  0  0  0  0  0  0  0
    0.9523   10.9187    1.5755 H   0  0  0  0  0  0  0  0  0  0  0  0
   -0.6175   11.7919    1.5755 H   0  0  0  0  0  0  0  0  0  0  0  0
   -2.2344    9.7096    0.9905 H   0  0  0  0  0  0  0  0  0  0  0  0
   -2.5038   10.5666   -0.5650 H   0  0  0  0  0  0  0  0  0  0  0  0
   -1.9289    8.8648   -0.5650 H   0  0  0  0  0  0  0  0  0  0  0  0
    1.8928   11.3909   -3.6468 H   0  0  0  0  0  0  0  0  0  0  0  0
    0.7763   12.6743   -4.2239 H   0  0  0  0  0  0  0  0  0  0  0  0
    2.5497   12.9600   -4.2239 H   0  0  0  0  0  0  0  0  0  0  0  0
    3.6864   12.8878   -1.5603 H   0  0  0  0  0  0  0  0  0  0  0  0
    3.3511   14.1522   -2.8733 H   0  0  0  0  0  0  0  0  0  0  0  0
    2.8673   14.4093    0.1075 H   0  0  0  0  0  0  0  0  0  0  0  0
    4.0437   15.3109   -0.9267 H   0  0  0  0  0  0  0  0  0  0  0  0
    2.8519   17.4681   -2.4465 H   0  0  0  0  0  0  0  0  0  0  0  0
    2.9801   15.8249   -3.1608 H   0  0  0  0  0  0  0  0  0  0  0  0
    1.4024   16.6837   -3.1608 H   0  0  0  0  0  0  0  0  0  0  0  0
  1  2  1  0
  2  3  1  0
  3  4  1  0
  4  5  1  0
  5  6  1  0
  6  7  1  0
  7  8  1  0
  7  9  1  0
  2 10  1  0
 10 11  1  0
 11 12  1  0
 12 13  1  0
 13 14  1  1
 13 15  1  0
 15 16  1  0
 16 17  1  0
 17 18  2  0
 18 19  1  0
 19 20  1  0
 20 21  1  0
 21 22  1  0
 22 23  1  0
 22 24  1  0
 24 25  1  0
 24 26  1  0
 19 27  1  0
 27 28  1  6
 27 29  1  0
 29 30  1  0
 30 31  1  0
 31 32  1  6
  7  5  1  0
 31 10  1  0
 31 13  1  0
 27 15  1  0
 24 18  1  0
  1 33  1  0
  1 34  1  0
  1 35  1  0
  2 36  1  6
  3 37  1  0
  3 38  1  0
  4 39  1  0
  4 40  1  0
  5 41  1  1
  8 42  1  0
  8 43  1  0
  8 44  1  0
  9 45  1  0
  9 46  1  0
  9 47  1  0
 10 48  1  1
 11 49  1  0
 11 50  1  0
 12 51  1  0
 12 52  1  0
 14 53  1  0
 14 54  1  0
 14 55  1  0
 15 56  1  6
 16 57  1  0
 16 58  1  0
 17 59  1  0
 19 60  1  1
 20 61  1  0
 20 62  1  0
 21 63  1  0
 21 64  1  0
 22 65  1  1
 23 66  1  0
 25 67  1  0
 25 68  1  0
 25 69  1  0
 26 70  1  0
 26 71  1  0
 26 72  1  0
 28 73  1  0
 28 74  1  0
 28 75  1  0
 29 76  1  0
 29 77  1  0
 30 78  1  0
 30 79  1  0
 32 80  1  0
 32 81  1  0
 32 82  1  0
M  END
>  <meeko>  (2) 
{"is_sidechain": [false], "intermolecular_energy": 2.731, "internal_energy": -0.839}

$$$$
EPH_relaxed_0001_pdb2pqr_Repair_146_r2_0001_out
     RDKit          3D

 82 86  0  0  0  0  0  0  0  0999 V2000
    2.3950   17.9600   -2.6450 C   0  0  0  0  0  0  0  0  0  0  0  0
    1.0600   17.6060   -1.9840 C   0  0  2  0  0  0  0  0  0  0  0  0
    1.1360   17.6830   -0.4450 C   0  0  0  0  0  0  0  0  0  0  0  0
    0.8080   19.0690    0.1180 C   0  0  0  0  0  0  0  0  0  0  0  0
   -0.6330   19.1790    0.5140 C   0  0  2  0  0  0  0  0  0  0  0  0
   -1.5090   18.2590   -0.1510 O   0  0  0  0  0  0  0  0  0  0  0  0
   -1.7250   19.6520   -0.4270 C   0  0  0  0  0  0  0  0  0  0  0  0
   -1.4220   20.0470   -1.8380 C   0  0  0  0  0  0  0  0  0  0  0  0
   -2.9910   20.1930    0.1610 C   0  0  0  0  0  0  0  0  0  0  0  0
    0.6200   16.2120   -2.4140 C   0  0  1  0  0  0  0  0  0  0  0  0
    0.7380   15.9950   -3.9460 C   0  0  0  0  0  0  0  0  0  0  0  0
    1.1430   14.5130   -4.1580 C   0  0  0  0  0  0  0  0  0  0  0  0
    0.9230   13.8480   -2.7800 C   0  0  1  0  0  0  0  0  0  0  0  0
   -0.6080   13.5500   -2.7170 C   0  0  0  0  0  0  0  0  0  0  0  0
    1.7720   12.5670   -2.4870 C   0  0  2  0  0  0  0  0  0  0  0  0
    1.5050   11.3790   -3.4270 C   0  0  0  0  0  0  0  0  0  0  0  0
    0.4410   10.4350   -2.9750 C   0  0  0  0  0  0  0  0  0  0  0  0
   -0.0740   10.3730   -1.7330 C   0  0  0  0  0  0  0  0  0  0  0  0
    0.4860   11.2490   -0.6040 C   0  0  1  0  0  0  0  0  0  0  0  0
    0.6970   10.3830    0.6660 C   0  0  0  0  0  0  0  0  0  0  0  0
   -0.5660    9.6340    1.0800 C   0  0  0  0  0  0  0  0  0  0  0  0
   -1.0590    8.7310   -0.0470 C   0  0  2  0  0  0  0  0  0  0  0  0
   -0.1020    7.6870   -0.2530 O   0  0  0  0  0  0  0  0  0  0  0  0
   -1.2970    9.4910   -1.3820 C   0  0  0  0  0  0  0  0  0  0  0  0
   -2.5360   10.4110   -1.2420 C   0  0  0  0  0  0  0  0  0  0  0  0
   -1.6550    8.4440   -2.4700 C   0  0  0  0  0  0  0  0  0  0  0  0
    1.7650   12.1180   -0.9700 C   0  0  1  0  0  0  0  0  0  0  0  0
    3.0600   11.2770   -0.7490 C   0  0  0  0  0  0  0  0  0  0  0  0
    1.8560   13.3410    0.0170 C   0  0  0  0  0  0  0  0  0  0  0  0
    1.0930   14.6170   -0.3860 C   0  0  0  0  0  0  0  0  0  0  0  0
    1.4040   15.0080   -1.8340 C   0  0  2  0  0  0  0  0  0  0  0  0
    2.9340   15.3340   -1.9230 C   0  0  0  0  0  0  0  0  0  0  0  0
    3.1474   18.1595   -1.8678 H   0  0  0  0  0  0  0  0  0  0  0  0
    2.7285   17.1193   -3.2710 H   0  0  0  0  0  0  0  0  0  0  0  0
    2.2681   18.8555   -3.2710 H   0  0  0  0  0  0  0  0  0  0  0  0
    0.3193   18.3483   -2.3162 H   0  0  0  0  0  0  0  0  0  0  0  0
    0.4217   16.9595   -0.0252 H   0  0  0  0  0  0  0  0  0  0  0  0
    2.1751   17.4584   -0.1624 H   0  0  0  0  0  0  0  0  0  0  0  0
    1.4358   19.2523    1.0024 H   0  0  0  0  0  0  0  0  0  0  0  0
    1.0060   19.8138   -0.6669 H   0  0  0  0  0  0  0  0  0  0  0  0
   -0.3540   19.4839    1.5334 H   0  0  0  0  0  0  0  0  0  0  0  0
   -0.7525   20.9198   -1.8387 H   0  0  0  0  0  0  0  0  0  0  0  0
   -0.9327   19.2092   -2.3563 H   0  0  0  0  0  0  0  0  0  0  0  0
   -2.3580   20.3025   -2.3563 H   0  0  0  0  0  0  0  0  0  0  0  0
   -2.9265   20.1654    1.2588 H   0  0  0  0  0  0  0  0  0  0  0  0
   -3.1354   21.2314   -0.1719 H   0  0  0  0  0  0  0  0  0  0  0  0
   -3.8413   19.5796   -0.1719 H   0  0  0  0  0  0  0  0  0  0  0  0
   -0.4083   16.2144   -2.0235 H   0  0  0  0  0  0  0  0  0  0  0  0
   -0.2275   16.1972   -4.4327 H   0  0  0  0  0  0  0  0  0  0  0  0
    1.4831   16.6748   -4.3850 H   0  0  0  0  0  0  0  0  0  0  0  0
    0.5073   14.0422   -4.9224 H   0  0  0  0  0  0  0  0  0  0  0  0
    2.1800   14.4101   -4.5102 H   0  0  0  0  0  0  0  0  0  0  0  0
   -0.9265   13.4880   -1.6660 H   0  0  0  0  0  0  0  0  0  0  0  0
   -1.1598   14.3576   -3.2203 H   0  0  0  0  0  0  0  0  0  0  0  0
   -0.8166   12.5944   -3.2203 H   0  0  0  0  0  0  0  0  0  0  0  0
    2.7942   12.9036   -2.7147 H   0  0  0  0  0  0  0  0  0  0  0  0
    1.2087   11.7810   -4.4071 H   0  0  0  0  0  0  0  0  0  0  0  0
    2.4376   10.7963   -3.4534 H   0  0  0  0  0  0  0  0  0  0  0  0
    0.0440    9.7300   -3.7202 H   0  0  0  0  0  0  0  0  0  0  0  0
   -0.2755   12.0185   -0.4091 H   0  0  0  0  0  0  0  0  0  0  0  0
    1.4918    9.6497    0.4647 H   0  0  0  0  0  0  0  0  0  0  0  0
    0.9692   11.0593    1.4898 H   0  0  0  0  0  0  0  0  0  0  0  0
   -0.3457    9.0182    1.9644 H   0  0  0  0  0  0  0  0  0  0  0  0
   -1.3511   10.3696    1.3092 H   0  0  0  0  0  0  0  0  0  0  0  0
   -2.0333    8.3230    0.2599 H   0  0  0  0  0  0  0  0  0  0  0  0
   -0.0120    7.2010    0.5850 H   0  0  0  0  0  0  0  0  0  0  0  0
   -2.7539   10.5728   -0.1760 H   0  0  0  0  0  0  0  0  0  0  0  0
   -2.3314   11.3777   -1.7253 H   0  0  0  0  0  0  0  0  0  0  0  0
   -3.4022    9.9355   -1.7253 H   0  0  0  0  0  0  0  0  0  0  0  0
   -1.9748    7.5086   -1.9876 H   0  0  0  0  0  0  0  0  0  0  0  0
   -2.4718    8.8312   -3.0968 H   0  0  0  0  0  0  0  0  0  0  0  0
   -0.7721    8.2500   -3.0968 H   0  0  0  0  0  0  0  0  0  0  0  0
    3.2412   11.1593    0.3296 H   0  0  0  0  0  0  0  0  0  0  0  0
    2.9369   10.2861   -1.2104 H   0  0  0  0  0  0  0  0  0  0  0  0
    3.9152   11.7925   -1.2104 H   0  0  0  0  0  0  0  0  0  0  0  0
    1.4641   13.0125    0.9909 H   0  0  0  0  0  0  0  0  0  0  0  0
    2.9175   13.6295    0.0208 H   0  0  0  0  0  0  0  0  0  0  0  0
    0.0125   14.4367   -0.2862 H   0  0  0  0  0  0  0  0  0  0  0  0
    1.4092   15.4379    0.2744 H   0  0  0  0  0  0  0  0  0  0  0  0
    3.3496   15.4226   -0.9084 H   0  0  0  0  0  0  0  0  0  0  0  0
    3.4504   14.5257   -2.4615 H   0  0  0  0  0  0  0  0  0  0  0  0
    3.0761   16.2826   -2.4615 H   0  0  0  0  0  0  0  0  0  0  0  0
  1  2  1  0
  2  3  1  0
  3  4  1  0
  4  5  1  0
  5  6  1  0
  6  7  1  0
  7  8  1  0
  7  9  1  0
  2 10  1  0
 10 11  1  0
 11 12  1  0
 12 13  1  0
 13 14  1  1
 13 15  1  0
 15 16  1  0
 16 17  1  0
 17 18  2  0
 18 19  1  0
 19 20  1  0
 20 21  1  0
 21 22  1  0
 22 23  1  0
 22 24  1  0
 24 25  1  0
 24 26  1  0
 19 27  1  0
 27 28  1  6
 27 29  1  0
 29 30  1  0
 30 31  1  0
 31 32  1  1
  7  5  1  0
 31 10  1  0
 31 13  1  0
 27 15  1  0
 24 18  1  0
  1 33  1  0
  1 34  1  0
  1 35  1  0
  2 36  1  6
  3 37  1  0
  3 38  1  0
  4 39  1  0
  4 40  1  0
  5 41  1  1
  8 42  1  0
  8 43  1  0
  8 44  1  0
  9 45  1  0
  9 46  1  0
  9 47  1  0
 10 48  1  1
 11 49  1  0
 11 50  1  0
 12 51  1  0
 12 52  1  0
 14 53  1  0
 14 54  1  0
 14 55  1  0
 15 56  1  6
 16 57  1  0
 16 58  1  0
 17 59  1  0
 19 60  1  1
 20 61  1  0
 20 62  1  0
 21 63  1  0
 21 64  1  0
 22 65  1  1
 23 66  1  0
 25 67  1  0
 25 68  1  0
 25 69  1  0
 26 70  1  0
 26 71  1  0
 26 72  1  0
 28 73  1  0
 28 74  1  0
 28 75  1  0
 29 76  1  0
 29 77  1  0
 30 78  1  0
 30 79  1  0
 32 80  1  0
 32 81  1  0
 32 82  1  0
M  END
>  <meeko>  (3) 
{"is_sidechain": [false], "intermolecular_energy": 2.731, "internal_energy": -0.839}

$$$$
EPH_relaxed_0001_pdb2pqr_Repair_146_r2_0001_out
     RDKit          3D

 82 86  0  0  0  0  0  0  0  0999 V2000
    0.3770   18.3780    0.0010 C   0  0  0  0  0  0  0  0  0  0  0  0
    1.4750   17.3390   -0.2470 C   0  0  2  0  0  0  0  0  0  0  0  0
    2.6650   17.9270   -1.0300 C   0  0  0  0  0  0  0  0  0  0  0  0
    3.9000   18.1930   -0.1660 C   0  0  0  0  0  0  0  0  0  0  0  0
    3.5260   18.6650    1.2060 C   0  0  2  0  0  0  0  0  0  0  0  0
    3.7820   20.0540    1.4520 O   0  0  0  0  0  0  0  0  0  0  0  0
    4.5390   19.1200    2.2400 C   0  0  0  0  0  0  0  0  0  0  0  0
    6.0060   19.1240    1.9460 C   0  0  0  0  0  0  0  0  0  0  0  0
    4.1470   19.0940    3.6850 C   0  0  0  0  0  0  0  0  0  0  0  0
    0.8990   16.1430   -0.9950 C   0  0  1  0  0  0  0  0  0  0  0  0
    0.7650   16.3990   -2.5200 C   0  0  0  0  0  0  0  0  0  0  0  0
    1.0520   15.0500   -3.2270 C   0  0  0  0  0  0  0  0  0  0  0  0
    1.0130   13.9990   -2.0930 C   0  0  1  0  0  0  0  0  0  0  0  0
   -0.5030   13.7040   -1.8720 C   0  0  0  0  0  0  0  0  0  0  0  0
    1.8270   12.6870   -2.3390 C   0  0  2  0  0  0  0  0  0  0  0  0
    1.3540   11.8400   -3.5340 C   0  0  0  0  0  0  0  0  0  0  0  0
    0.3230   10.8080   -3.2150 C   0  0  0  0  0  0  0  0  0  0  0  0
    0.0040   10.3760   -1.9810 C   0  0  0  0  0  0  0  0  0  0  0  0
    0.7790   10.8650   -0.7500 C   0  0  1  0  0  0  0  0  0  0  0  0
    1.1380    9.6550    0.1510 C   0  0  0  0  0  0  0  0  0  0  0  0
   -0.0840    8.8210    0.5250 C   0  0  0  0  0  0  0  0  0  0  0  0
   -0.7940    8.3040   -0.7240 C   0  0  2  0  0  0  0  0  0  0  0  0
    0.0610    7.3670   -1.3850 O   0  0  0  0  0  0  0  0  0  0  0  0
   -1.1960    9.4340   -1.7130 C   0  0  0  0  0  0  0  0  0  0  0  0
   -2.3460   10.2740   -1.1040 C   0  0  0  0  0  0  0  0  0  0  0  0
   -1.7730    8.7670   -2.9900 C   0  0  0  0  0  0  0  0  0  0  0  0
    2.0310   11.7990   -1.0460 C   0  0  1  0  0  0  0  0  0  0  0  0
    3.2970   10.9250   -1.3010 C   0  0  0  0  0  0  0  0  0  0  0  0
    2.3390   12.6650    0.2320 C   0  0  0  0  0  0  0  0  0  0  0  0
    1.5930   14.0070    0.3590 C   0  0  0  0  0  0  0  0  0  0  0  0
    1.6970   14.8160   -0.9370 C   0  0  2  0  0  0  0  0  0  0  0  0
    3.2100   15.1470   -1.1740 C   0  0  0  0  0  0  0  0  0  0  0  0
    0.2361   18.5113    1.0838 H   0  0  0  0  0  0  0  0  0  0  0  0
    0.6705   19.3368   -0.4513 H   0  0  0  0  0  0  0  0  0  0  0  0
   -0.5641   18.0320   -0.4513 H   0  0  0  0  0  0  0  0  0  0  0  0
    1.8532   17.0167    0.7344 H   0  0  0  0  0  0  0  0  0  0  0  0
    2.9428   17.2177   -1.8236 H   0  0  0  0  0  0  0  0  0  0  0  0
    2.3378   18.8981   -1.4300 H   0  0  0  0  0  0  0  0  0  0  0  0
    4.4798   17.2625   -0.0770 H   0  0  0  0  0  0  0  0  0  0  0  0
    4.4933   18.9827   -0.6502 H   0  0  0  0  0  0  0  0  0  0  0  0
    2.6970   17.9435    1.2534 H   0  0  0  0  0  0  0  0  0  0  0  0
    6.5693   19.1255    2.8908 H   0  0  0  0  0  0  0  0  0  0  0  0
    6.2661   18.2266    1.3655 H   0  0  0  0  0  0  0  0  0  0  0  0
    6.2612   20.0228    1.3655 H   0  0  0  0  0  0  0  0  0  0  0  0
    5.0496   19.1539    4.3109 H   0  0  0  0  0  0  0  0  0  0  0  0
    3.4923   19.9507    3.9028 H   0  0  0  0  0  0  0  0  0  0  0  0
    3.6112   18.1583    3.9028 H   0  0  0  0  0  0  0  0  0  0  0  0
   -0.0547   16.0325   -0.4581 H   0  0  0  0  0  0  0  0  0  0  0  0
   -0.2524   16.7426   -2.7584 H   0  0  0  0  0  0  0  0  0  0  0  0
    1.4679   17.1768   -2.8531 H   0  0  0  0  0  0  0  0  0  0  0  0
    0.2812   14.8355   -3.9819 H   0  0  0  0  0  0  0  0  0  0  0  0
    2.0149   15.0543   -3.7587 H   0  0  0  0  0  0  0  0  0  0  0  0
   -0.7151   13.6627   -0.7934 H   0  0  0  0  0  0  0  0  0  0  0  0
   -1.1029   14.5022   -2.3334 H   0  0  0  0  0  0  0  0  0  0  0  0
   -0.7598   12.7390   -2.3334 H   0  0  0  0  0  0  0  0  0  0  0  0
    2.8178   13.0733   -2.6202 H   0  0  0  0  0  0  0  0  0  0  0  0
    0.9317   12.5210   -4.2875 H   0  0  0  0  0  0  0  0  0  0  0  0
    2.2384   11.2885   -3.8856 H   0  0  0  0  0  0  0  0  0  0  0  0
   -0.2221   10.3630   -4.0605 H   0  0  0  0  0  0  0  0  0  0  0  0
    0.0991   11.5414   -0.2113 H   0  0  0  0  0  0  0  0  0  0  0  0
    1.8512    9.0137   -0.3875 H   0  0  0  0  0  0  0  0  0  0  0  0
    1.5711   10.0490    1.0822 H   0  0  0  0  0  0  0  0  0  0  0  0
    0.2376    7.9652    1.1367 H   0  0  0  0  0  0  0  0  0  0  0  0
   -0.7832    9.4556    1.0893 H   0  0  0  0  0  0  0  0  0  0  0  0
   -1.7297    7.8264   -0.3978 H   0  0  0  0  0  0  0  0  0  0  0  0
    0.9350    7.4170   -0.9630 H   0  0  0  0  0  0  0  0  0  0  0  0
   -2.2890   10.2323   -0.0063 H   0  0  0  0  0  0  0  0  0  0  0  0
   -2.2531   11.3184   -1.4366 H   0  0  0  0  0  0  0  0  0  0  0  0
   -3.3126    9.8678   -1.4366 H   0  0  0  0  0  0  0  0  0  0  0  0
   -2.4676    7.9640   -2.7023 H   0  0  0  0  0  0  0  0  0  0  0  0
   -2.3094    9.5197   -3.5864 H   0  0  0  0  0  0  0  0  0  0  0  0
   -0.9509    8.3445   -3.5864 H   0  0  0  0  0  0  0  0  0  0  0  0
    3.7342   10.6231   -0.3378 H   0  0  0  0  0  0  0  0  0  0  0  0
    3.0146   10.0285   -1.8725 H   0  0  0  0  0  0  0  0  0  0  0  0
    4.0352   11.5068   -1.8725 H   0  0  0  0  0  0  0  0  0  0  0  0
    2.0851   12.0585    1.1139 H   0  0  0  0  0  0  0  0  0  0  0  0
    3.4023   12.9340    0.1476 H   0  0  0  0  0  0  0  0  0  0  0  0
    0.5328   13.8103    0.5764 H   0  0  0  0  0  0  0  0  0  0  0  0
    2.0514   14.5877    1.1730 H   0  0  0  0  0  0  0  0  0  0  0  0
    3.7173   15.2580   -0.2043 H   0  0  0  0  0  0  0  0  0  0  0  0
    3.6794   14.3303   -1.7420 H   0  0  0  0  0  0  0  0  0  0  0  0
    3.2955   16.0851   -1.7420 H   0  0  0  0  0  0  0  0  0  0  0  0
  1  2  1  0
  2  3  1  0
  3  4  1  0
  4  5  1  0
  5  6  1  0
  6  7  1  0
  7  8  1  0
  7  9  1  0
  2 10  1  0
 10 11  1  0
 11 12  1  0
 12 13  1  0
 13 14  1  1
 13 15  1  0
 15 16  1  0
 16 17  1  0
 17 18  2  0
 18 19  1  0
 19 20  1  0
 20 21  1  0
 21 22  1  0
 22 23  1  0
 22 24  1  0
 24 25  1  0
 24 26  1  0
 19 27  1  0
 27 28  1  6
 27 29  1  0
 29 30  1  0
 30 31  1  0
 31 32  1  6
  7  5  1  0
 31 10  1  0
 31 13  1  0
 27 15  1  0
 24 18  1  0
  1 33  1  0
  1 34  1  0
  1 35  1  0
  2 36  1  1
  3 37  1  0
  3 38  1  0
  4 39  1  0
  4 40  1  0
  5 41  1  1
  8 42  1  0
  8 43  1  0
  8 44  1  0
  9 45  1  0
  9 46  1  0
  9 47  1  0
 10 48  1  1
 11 49  1  0
 11 50  1  0
 12 51  1  0
 12 52  1  0
 14 53  1  0
 14 54  1  0
 14 55  1  0
 15 56  1  6
 16 57  1  0
 16 58  1  0
 17 59  1  0
 19 60  1  1
 20 61  1  0
 20 62  1  0
 21 63  1  0
 21 64  1  0
 22 65  1  1
 23 66  1  0
 25 67  1  0
 25 68  1  0
 25 69  1  0
 26 70  1  0
 26 71  1  0
 26 72  1  0
 28 73  1  0
 28 74  1  0
 28 75  1  0
 29 76  1  0
 29 77  1  0
 30 78  1  0
 30 79  1  0
 32 80  1  0
 32 81  1  0
 32 82  1  0
M  END
>  <meeko>  (4) 
{"is_sidechain": [false], "intermolecular_energy": 2.731, "internal_energy": -0.839}

$$$$
EPH_relaxed_0001_pdb2pqr_Repair_146_r2_0001_out
     RDKit          3D

 82 86  0  0  0  0  0  0  0  0999 V2000
    3.6950   17.5970    0.3520 C   0  0  0  0  0  0  0  0  0  0  0  0
    2.7250   17.8550   -0.8040 C   0  0  2  0  0  0  0  0  0  0  0  0
    2.0580   19.2420   -0.7050 C   0  0  0  0  0  0  0  0  0  0  0  0
    1.2630   19.4520    0.5860 C   0  0  0  0  0  0  0  0  0  0  0  0
   -0.0640   20.0960    0.3220 C   0  0  2  0  0  0  0  0  0  0  0  0
   -0.9210   20.1940    1.4670 O   0  0  0  0  0  0  0  0  0  0  0  0
   -1.3850   19.3530    0.3980 C   0  0  0  0  0  0  0  0  0  0  0  0
   -1.4430   17.8990    0.7500 C   0  0  0  0  0  0  0  0  0  0  0  0
   -2.5630   19.9090   -0.3390 C   0  0  0  0  0  0  0  0  0  0  0  0
    1.6580   16.7670   -0.8410 C   0  0  1  0  0  0  0  0  0  0  0  0
    0.3510   17.2340   -1.5340 C   0  0  0  0  0  0  0  0  0  0  0  0
   -0.2220   16.0040   -2.2840 C   0  0  0  0  0  0  0  0  0  0  0  0
    0.5800   14.8020   -1.7320 C   0  0  1  0  0  0  0  0  0  0  0  0
   -0.1040   14.4520   -0.3740 C   0  0  0  0  0  0  0  0  0  0  0  0
    0.6830   13.5530   -2.6660 C   0  0  2  0  0  0  0  0  0  0  0  0
   -0.6580   12.8750   -2.9980 C   0  0  0  0  0  0  0  0  0  0  0  0
   -1.0740   11.7900   -2.0610 C   0  0  0  0  0  0  0  0  0  0  0  0
   -0.2750   11.1820   -1.1640 C   0  0  0  0  0  0  0  0  0  0  0  0
    1.2220   11.5070   -1.0970 C   0  0  1  0  0  0  0  0  0  0  0  0
    2.0350   10.1870   -1.0180 C   0  0  0  0  0  0  0  0  0  0  0  0
    1.5800    9.2880    0.1280 C   0  0  0  0  0  0  0  0  0  0  0  0
    0.1000    8.9400   -0.0070 C   0  0  2  0  0  0  0  0  0  0  0  0
   -0.0780    8.1210   -1.1670 O   0  0  0  0  0  0  0  0  0  0  0  0
   -0.8170   10.1910   -0.1050 C   0  0  0  0  0  0  0  0  0  0  0  0
   -0.8560   10.9160    1.2630 C   0  0  0  0  0  0  0  0  0  0  0  0
   -2.2650    9.7020   -0.3780 C   0  0  0  0  0  0  0  0  0  0  0  0
    1.7690   12.4940   -2.2150 C   0  0  1  0  0  0  0  0  0  0  0  0
    2.1610   11.6880   -3.4910 C   0  0  0  0  0  0  0  0  0  0  0  0
    3.0900   13.1760   -1.6980 C   0  0  0  0  0  0  0  0  0  0  0  0
    2.9290   14.4730   -0.8820 C   0  0  0  0  0  0  0  0  0  0  0  0
    2.0020   15.4600   -1.5990 C   0  0  2  0  0  0  0  0  0  0  0  0
    2.6750   15.8480   -2.9590 C   0  0  0  0  0  0  0  0  0  0  0  0
    3.1705   17.7365    1.3088 H   0  0  0  0  0  0  0  0  0  0  0  0
    4.0749   16.5666    0.2889 H   0  0  0  0  0  0  0  0  0  0  0  0
    4.5366   18.3025    0.2889 H   0  0  0  0  0  0  0  0  0  0  0  0
    3.3096   17.8350   -1.7356 H   0  0  0  0  0  0  0  0  0  0  0  0
    2.8440   20.0098   -0.7576 H   0  0  0  0  0  0  0  0  0  0  0  0
    1.3433   19.3151   -1.5380 H   0  0  0  0  0  0  0  0  0  0  0  0
    1.0964   18.4757    1.0647 H   0  0  0  0  0  0  0  0  0  0  0  0
    1.8431   20.1187    1.2410 H   0  0  0  0  0  0  0  0  0  0  0  0
    0.3768   20.7398   -0.4534 H   0  0  0  0  0  0  0  0  0  0  0  0
   -1.4475   17.7865    1.8442 H   0  0  0  0  0  0  0  0  0  0  0  0
   -2.3595   17.4569    0.3322 H   0  0  0  0  0  0  0  0  0  0  0  0
   -0.5646   17.3853    0.3322 H   0  0  0  0  0  0  0  0  0  0  0  0
   -3.3134   20.2632    0.3831 H   0  0  0  0  0  0  0  0  0  0  0  0
   -2.2373   20.7484   -0.9709 H   0  0  0  0  0  0  0  0  0  0  0  0
   -3.0040   19.1240   -0.9709 H   0  0  0  0  0  0  0  0  0  0  0  0
    1.5641   16.5646    0.2361 H   0  0  0  0  0  0  0  0  0  0  0  0
   -0.3699   17.5893   -0.7829 H   0  0  0  0  0  0  0  0  0  0  0  0
    0.5472   18.0639   -2.2288 H   0  0  0  0  0  0  0  0  0  0  0  0
   -1.2949   15.8852   -2.0722 H   0  0  0  0  0  0  0  0  0  0  0  0
   -0.1298   16.1010   -3.3758 H   0  0  0  0  0  0  0  0  0  0  0  0
    0.5388   14.7809    0.4558 H   0  0  0  0  0  0  0  0  0  0  0  0
   -1.0756   14.9637   -0.3102 H   0  0  0  0  0  0  0  0  0  0  0  0
   -0.2574   13.3646   -0.3102 H   0  0  0  0  0  0  0  0  0  0  0  0
    1.0383   13.9926   -3.6097 H   0  0  0  0  0  0  0  0  0  0  0  0
   -1.4404   13.6482   -2.9913 H   0  0  0  0  0  0  0  0  0  0  0  0
   -0.5212   12.3944   -3.9780 H   0  0  0  0  0  0  0  0  0  0  0  0
   -2.1221   11.4592   -2.1073 H   0  0  0  0  0  0  0  0  0  0  0  0
    1.3651   12.0903   -0.1755 H   0  0  0  0  0  0  0  0  0  0  0  0
    1.9131    9.6405   -1.9648 H   0  0  0  0  0  0  0  0  0  0  0  0
    3.0869   10.4528   -0.8368 H   0  0  0  0  0  0  0  0  0  0  0  0
    2.1708    8.3602    0.1142 H   0  0  0  0  0  0  0  0  0  0  0  0
    1.7296    9.8249    1.0764 H   0  0  0  0  0  0  0  0  0  0  0  0
   -0.1970    8.4041    0.9065 H   0  0  0  0  0  0  0  0  0  0  0  0
   -0.5980    8.6310   -1.8100 H   0  0  0  0  0  0  0  0  0  0  0  0
   -0.8160   10.1729    2.0731 H   0  0  0  0  0  0  0  0  0  0  0  0
    0.0070   11.5933    1.3438 H   0  0  0  0  0  0  0  0  0  0  0  0
   -1.7867   11.4968    1.3438 H   0  0  0  0  0  0  0  0  0  0  0  0
   -2.7798    9.5282    0.5785 H   0  0  0  0  0  0  0  0  0  0  0  0
   -2.8080   10.4666   -0.9529 H   0  0  0  0  0  0  0  0  0  0  0  0
   -2.2332    8.7648   -0.9529 H   0  0  0  0  0  0  0  0  0  0  0  0
    2.6244   10.7353   -3.1949 H   0  0  0  0  0  0  0  0  0  0  0  0
    1.2599   11.4872   -4.0891 H   0  0  0  0  0  0  0  0  0  0  0  0
    2.8753   12.2729   -4.0891 H   0  0  0  0  0  0  0  0  0  0  0  0
    3.6147   12.4466   -1.0634 H   0  0  0  0  0  0  0  0  0  0  0  0
    3.6349   13.4732   -2.6062 H   0  0  0  0  0  0  0  0  0  0  0  0
    2.5025   14.2285    0.1020 H   0  0  0  0  0  0  0  0  0  0  0  0
    3.9181   14.9405   -0.7673 H   0  0  0  0  0  0  0  0  0  0  0  0
    3.6127   16.3886   -2.7630 H   0  0  0  0  0  0  0  0  0  0  0  0
    2.8911   14.9358   -3.5346 H   0  0  0  0  0  0  0  0  0  0  0  0
    1.9939   16.4920   -3.5346 H   0  0  0  0  0  0  0  0  0  0  0  0
  1  2  1  0
  2  3  1  0
  3  4  1  0
  4  5  1  0
  5  6  1  0
  6  7  1  0
  7  8  1  0
  7  9  1  0
  2 10  1  0
 10 11  1  0
 11 12  1  0
 12 13  1  0
 13 14  1  1
 13 15  1  0
 15 16  1  0
 16 17  1  0
 17 18  2  0
 18 19  1  0
 19 20  1  0
 20 21  1  0
 21 22  1  0
 22 23  1  0
 22 24  1  0
 24 25  1  0
 24 26  1  0
 19 27  1  0
 27 28  1  6
 27 29  1  0
 29 30  1  0
 30 31  1  0
 31 32  1  6
  7  5  1  0
 31 10  1  0
 31 13  1  0
 27 15  1  0
 24 18  1  0
  1 33  1  0
  1 34  1  0
  1 35  1  0
  2 36  1  6
  3 37  1  0
  3 38  1  0
  4 39  1  0
  4 40  1  0
  5 41  1  6
  8 42  1  0
  8 43  1  0
  8 44  1  0
  9 45  1  0
  9 46  1  0
  9 47  1  0
 10 48  1  1
 11 49  1  0
 11 50  1  0
 12 51  1  0
 12 52  1  0
 14 53  1  0
 14 54  1  0
 14 55  1  0
 15 56  1  6
 16 57  1  0
 16 58  1  0
 17 59  1  0
 19 60  1  1
 20 61  1  0
 20 62  1  0
 21 63  1  0
 21 64  1  0
 22 65  1  1
 23 66  1  0
 25 67  1  0
 25 68  1  0
 25 69  1  0
 26 70  1  0
 26 71  1  0
 26 72  1  0
 28 73  1  0
 28 74  1  0
 28 75  1  0
 29 76  1  0
 29 77  1  0
 30 78  1  0
 30 79  1  0
 32 80  1  0
 32 81  1  0
 32 82  1  0
M  END
>  <meeko>  (5) 
{"is_sidechain": [false], "intermolecular_energy": 2.731, "internal_energy": -0.839}

$$$$
EPH_relaxed_0001_pdb2pqr_Repair_146_r2_0001_out
     RDKit          3D

 82 86  0  0  0  0  0  0  0  0999 V2000
   -5.1570    5.9030   -1.7000 C   0  0  0  0  0  0  0  0  0  0  0  0
   -5.4520    7.4010   -1.8150 C   0  0  2  0  0  0  0  0  0  0  0  0
   -5.2080    8.1440   -0.4860 C   0  0  0  0  0  0  0  0  0  0  0  0
   -4.2320    9.3170   -0.6060 C   0  0  0  0  0  0  0  0  0  0  0  0
   -2.8190    8.8910   -0.3470 C   0  0  2  0  0  0  0  0  0  0  0  0
   -2.1580    9.6160    0.6990 O   0  0  0  0  0  0  0  0  0  0  0  0
   -1.6150    9.7730   -0.6230 C   0  0  0  0  0  0  0  0  0  0  0  0
   -1.7700   11.1520   -1.1840 C   0  0  0  0  0  0  0  0  0  0  0  0
   -0.2800    9.1230   -0.8070 C   0  0  0  0  0  0  0  0  0  0  0  0
   -6.8890    7.6140   -2.2750 C   0  0  1  0  0  0  0  0  0  0  0  0
   -7.1960    6.9060   -3.6220 C   0  0  0  0  0  0  0  0  0  0  0  0
   -8.6670    6.4230   -3.5480 C   0  0  0  0  0  0  0  0  0  0  0  0
   -9.2550    7.1490   -2.3150 C   0  0  1  0  0  0  0  0  0  0  0  0
   -9.6180    8.5780   -2.8270 C   0  0  0  0  0  0  0  0  0  0  0  0
  -10.4740    6.4580   -1.6220 C   0  0  2  0  0  0  0  0  0  0  0  0
  -11.7300    6.3170   -2.4990 C   0  0  0  0  0  0  0  0  0  0  0  0
  -12.6920    7.4560   -2.4230 C   0  0  0  0  0  0  0  0  0  0  0  0
  -12.6990    8.4120   -1.4750 C   0  0  0  0  0  0  0  0  0  0  0  0
  -11.7300    8.3500   -0.2880 C   0  0  1  0  0  0  0  0  0  0  0  0
  -12.5030    8.6330    1.0270 C   0  0  0  0  0  0  0  0  0  0  0  0
  -13.2820    9.9440    0.9770 C   0  0  0  0  0  0  0  0  0  0  0  0
  -14.2760    9.9440   -0.1820 C   0  0  2  0  0  0  0  0  0  0  0  0
  -15.2860    8.9640    0.0770 O   0  0  0  0  0  0  0  0  0  0  0  0
  -13.6130    9.6590   -1.5580 C   0  0  0  0  0  0  0  0  0  0  0  0
  -12.7450   10.8710   -1.9780 C   0  0  0  0  0  0  0  0  0  0  0  0
  -14.7420    9.5460   -2.6180 C   0  0  0  0  0  0  0  0  0  0  0  0
  -10.8280    7.0450   -0.1960 C   0  0  1  0  0  0  0  0  0  0  0  0
  -11.5920    5.9230    0.5710 C   0  0  0  0  0  0  0  0  0  0  0  0
   -9.5420    7.3680    0.6540 C   0  0  0  0  0  0  0  0  0  0  0  0
   -8.3300    7.9370   -0.1080 C   0  0  0  0  0  0  0  0  0  0  0  0
   -8.0170    7.0950   -1.3480 C   0  0  2  0  0  0  0  0  0  0  0  0
   -7.6270    5.6570   -0.8630 C   0  0  0  0  0  0  0  0  0  0  0  0
   -5.1014    5.6207   -0.6383 H   0  0  0  0  0  0  0  0  0  0  0  0
   -5.9600    5.3325   -2.1895 H   0  0  0  0  0  0  0  0  0  0  0  0
   -4.1976    5.6796   -2.1895 H   0  0  0  0  0  0  0  0  0  0  0  0
   -4.7581    7.8190   -2.5592 H   0  0  0  0  0  0  0  0  0  0  0  0
   -6.1716    8.5301   -0.1222 H   0  0  0  0  0  0  0  0  0  0  0  0
   -4.7562    7.4202    0.2082 H   0  0  0  0  0  0  0  0  0  0  0  0
   -4.2983    9.7334   -1.6220 H   0  0  0  0  0  0  0  0  0  0  0  0
   -4.5067   10.0700    0.1473 H   0  0  0  0  0  0  0  0  0  0  0  0
   -3.0542    7.8545   -0.6303 H   0  0  0  0  0  0  0  0  0  0  0  0
   -1.8514   11.8761   -0.3599 H   0  0  0  0  0  0  0  0  0  0  0  0
   -0.8937   11.3970   -1.8022 H   0  0  0  0  0  0  0  0  0  0  0  0
   -2.6788   11.1964   -1.8022 H   0  0  0  0  0  0  0  0  0  0  0  0
    0.1618    8.9079    0.1771 H   0  0  0  0  0  0  0  0  0  0  0  0
   -0.4033    8.1841   -1.3667 H   0  0  0  0  0  0  0  0  0  0  0  0
    0.3830    9.7991   -1.3667 H   0  0  0  0  0  0  0  0  0  0  0  0
   -6.9095    8.7131   -2.3133 H   0  0  0  0  0  0  0  0  0  0  0  0
   -7.0701    7.6103   -4.4575 H   0  0  0  0  0  0  0  0  0  0  0  0
   -6.5110    6.0618   -3.7897 H   0  0  0  0  0  0  0  0  0  0  0  0
   -9.2138    6.7026   -4.4606 H   0  0  0  0  0  0  0  0  0  0  0  0
   -8.7429    5.3289   -3.4631 H   0  0  0  0  0  0  0  0  0  0  0  0
   -9.7870    9.2435   -1.9676 H   0  0  0  0  0  0  0  0  0  0  0  0
   -8.7909    8.9700   -3.4371 H   0  0  0  0  0  0  0  0  0  0  0  0
  -10.5319    8.5277   -3.4371 H   0  0  0  0  0  0  0  0  0  0  0  0
  -10.1044    5.4342   -1.4629 H   0  0  0  0  0  0  0  0  0  0  0  0
  -11.4046    6.2161   -3.5449 H   0  0  0  0  0  0  0  0  0  0  0  0
  -12.2695    5.4371   -2.1186 H   0  0  0  0  0  0  0  0  0  0  0  0
  -13.4601    7.5196   -3.2079 H   0  0  0  0  0  0  0  0  0  0  0  0
  -10.9861    9.1414   -0.4619 H   0  0  0  0  0  0  0  0  0  0  0  0
  -13.2100    7.8093    1.2047 H   0  0  0  0  0  0  0  0  0  0  0  0
  -11.7641    8.7143    1.8378 H   0  0  0  0  0  0  0  0  0  0  0  0
  -13.8305   10.0731    1.9217 H   0  0  0  0  0  0  0  0  0  0  0  0
  -12.5705   10.7699    0.8295 H   0  0  0  0  0  0  0  0  0  0  0  0
  -14.7084   10.9535   -0.2453 H   0  0  0  0  0  0  0  0  0  0  0  0
  -15.3710    8.4110   -0.7180 H   0  0  0  0  0  0  0  0  0  0  0  0
  -12.3758   11.3866   -1.0792 H   0  0  0  0  0  0  0  0  0  0  0  0
  -11.8912   10.5207   -2.5765 H   0  0  0  0  0  0  0  0  0  0  0  0
  -13.3516   11.5666   -2.5765 H   0  0  0  0  0  0  0  0  0  0  0  0
  -15.7131    9.4488   -2.1105 H   0  0  0  0  0  0  0  0  0  0  0  0
  -14.7458   10.4482   -3.2472 H   0  0  0  0  0  0  0  0  0  0  0  0
  -14.5669    8.6609   -3.2472 H   0  0  0  0  0  0  0  0  0  0  0  0
  -11.4845    6.0808    1.6543 H   0  0  0  0  0  0  0  0  0  0  0  0
  -12.6576    5.9538    0.2999 H   0  0  0  0  0  0  0  0  0  0  0  0
  -11.1729    4.9428    0.2999 H   0  0  0  0  0  0  0  0  0  0  0  0
   -9.8266    8.1022    1.4221 H   0  0  0  0  0  0  0  0  0  0  0  0
   -9.2052    6.3971    1.0463 H   0  0  0  0  0  0  0  0  0  0  0  0
   -8.5530    8.9680   -0.4201 H   0  0  0  0  0  0  0  0  0  0  0  0
   -7.4556    7.9170    0.5591 H   0  0  0  0  0  0  0  0  0  0  0  0
   -7.6198    5.6303    0.2367 H   0  0  0  0  0  0  0  0  0  0  0  0
   -8.3606    4.9305   -1.2426 H   0  0  0  0  0  0  0  0  0  0  0  0
   -6.6269    5.4007   -1.2426 H   0  0  0  0  0  0  0  0  0  0  0  0
  1  2  1  0
  2  3  1  0
  3  4  1  0
  4  5  1  0
  5  6  1  0
  6  7  1  0
  7  8  1  0
  7  9  1  0
  2 10  1  0
 10 11  1  0
 11 12  1  0
 12 13  1  0
 13 14  1  6
 13 15  1  0
 15 16  1  0
 16 17  1  0
 17 18  2  0
 18 19  1  0
 19 20  1  0
 20 21  1  0
 21 22  1  0
 22 23  1  0
 22 24  1  0
 24 25  1  0
 24 26  1  0
 19 27  1  0
 27 28  1  1
 27 29  1  0
 29 30  1  0
 30 31  1  0
 31 32  1  1
  7  5  1  0
 31 10  1  0
 31 13  1  0
 27 15  1  0
 24 18  1  0
  1 33  1  0
  1 34  1  0
  1 35  1  0
  2 36  1  6
  3 37  1  0
  3 38  1  0
  4 39  1  0
  4 40  1  0
  5 41  1  1
  8 42  1  0
  8 43  1  0
  8 44  1  0
  9 45  1  0
  9 46  1  0
  9 47  1  0
 10 48  1  6
 11 49  1  0
 11 50  1  0
 12 51  1  0
 12 52  1  0
 14 53  1  0
 14 54  1  0
 14 55  1  0
 15 56  1  1
 16 57  1  0
 16 58  1  0
 17 59  1  0
 19 60  1  6
 20 61  1  0
 20 62  1  0
 21 63  1  0
 21 64  1  0
 22 65  1  6
 23 66  1  0
 25 67  1  0
 25 68  1  0
 25 69  1  0
 26 70  1  0
 26 71  1  0
 26 72  1  0
 28 73  1  0
 28 74  1  0
 28 75  1  0
 29 76  1  0
 29 77  1  0
 30 78  1  0
 30 79  1  0
 32 80  1  0
 32 81  1  0
 32 82  1  0
M  END
>  <meeko>  (6) 
{"is_sidechain": [false], "intermolecular_energy": 2.731, "internal_energy": -0.839}

$$$$
EPH_relaxed_0001_pdb2pqr_Repair_146_r2_0001_out
     RDKit          3D

 82 86  0  0  0  0  0  0  0  0999 V2000
   -0.0140   10.5220   -3.9030 C   0  0  0  0  0  0  0  0  0  0  0  0
    1.0670   10.3020   -2.8400 C   0  0  2  0  0  0  0  0  0  0  0  0
    0.8380    9.0050   -2.0380 C   0  0  0  0  0  0  0  0  0  0  0  0
    0.2790    9.2410   -0.6330 C   0  0  0  0  0  0  0  0  0  0  0  0
   -1.1340    8.7580   -0.5100 C   0  0  2  0  0  0  0  0  0  0  0  0
   -1.8970    8.8250   -1.7220 O   0  0  0  0  0  0  0  0  0  0  0  0
   -2.3430    9.6650   -0.6450 C   0  0  0  0  0  0  0  0  0  0  0  0
   -2.1940   11.1300   -0.9150 C   0  0  0  0  0  0  0  0  0  0  0  0
   -3.6380    9.2270   -0.0350 C   0  0  0  0  0  0  0  0  0  0  0  0
    1.1170   11.4970   -1.8950 C   0  0  1  0  0  0  0  0  0  0  0  0
    2.1760   11.3280   -0.7740 C   0  0  0  0  0  0  0  0  0  0  0  0
    2.7590   12.7370   -0.4930 C   0  0  0  0  0  0  0  0  0  0  0  0
    1.7950   13.7080   -1.2130 C   0  0  1  0  0  0  0  0  0  0  0  0
    0.5890   13.8750   -0.2370 C   0  0  0  0  0  0  0  0  0  0  0  0
    2.3940   15.0910   -1.6320 C   0  0  2  0  0  0  0  0  0  0  0  0
    2.8750   15.9730   -0.4680 C   0  0  0  0  0  0  0  0  0  0  0  0
    1.8510   16.9030    0.0930 C   0  0  0  0  0  0  0  0  0  0  0  0
    0.6860   17.2320   -0.4960 C   0  0  0  0  0  0  0  0  0  0  0  0
    0.3450   16.7250   -1.9040 C   0  0  1  0  0  0  0  0  0  0  0  0
   -0.1960   17.8990   -2.7600 C   0  0  0  0  0  0  0  0  0  0  0  0
   -1.3700   18.6140   -2.0970 C   0  0  0  0  0  0  0  0  0  0  0  0
   -0.9750   19.1550   -0.7250 C   0  0  2  0  0  0  0  0  0  0  0  0
   -0.0060   20.1930   -0.9000 O   0  0  0  0  0  0  0  0  0  0  0  0
   -0.4050   18.0630    0.2230 C   0  0  0  0  0  0  0  0  0  0  0  0
   -1.5420   17.1030    0.6530 C   0  0  0  0  0  0  0  0  0  0  0  0
    0.0850   18.7630    1.5180 C   0  0  0  0  0  0  0  0  0  0  0  0
    1.4910   15.9080   -2.6430 C   0  0  1  0  0  0  0  0  0  0  0  0
    2.4420   16.8880   -3.3960 C   0  0  0  0  0  0  0  0  0  0  0  0
    0.8390   14.9880   -3.7420 C   0  0  0  0  0  0  0  0  0  0  0  0
    0.3770   13.5890   -3.2920 C   0  0  0  0  0  0  0  0  0  0  0  0
    1.4800   12.8730   -2.5070 C   0  0  2  0  0  0  0  0  0  0  0  0
    2.6990   12.6720   -3.4710 C   0  0  0  0  0  0  0  0  0  0  0  0
   -0.9779   10.7182   -3.4106 H   0  0  0  0  0  0  0  0  0  0  0  0
    0.2590   11.3830   -4.5308 H   0  0  0  0  0  0  0  0  0  0  0  0
   -0.0993    9.6228   -4.5308 H   0  0  0  0  0  0  0  0  0  0  0  0
    2.0295   10.2007   -3.3628 H   0  0  0  0  0  0  0  0  0  0  0  0
    0.1278    8.3744   -2.5929 H   0  0  0  0  0  0  0  0  0  0  0  0
    1.8200    8.5244   -1.9167 H   0  0  0  0  0  0  0  0  0  0  0  0
    0.9043    8.7026    0.0944 H   0  0  0  0  0  0  0  0  0  0  0  0
    0.2895   10.3234   -0.4373 H   0  0  0  0  0  0  0  0  0  0  0  0
   -0.8423    8.0270    0.2585 H   0  0  0  0  0  0  0  0  0  0  0  0
   -2.1386   11.6749    0.0390 H   0  0  0  0  0  0  0  0  0  0  0  0
   -1.2734   11.3049   -1.4912 H   0  0  0  0  0  0  0  0  0  0  0  0
   -3.0605   11.4866   -1.4912 H   0  0  0  0  0  0  0  0  0  0  0  0
   -3.5549    9.2551    1.0615 H   0  0  0  0  0  0  0  0  0  0  0  0
   -4.4431    9.9028   -0.3591 H   0  0  0  0  0  0  0  0  0  0  0  0
   -3.8676    8.2012   -0.3591 H   0  0  0  0  0  0  0  0  0  0  0  0
    0.0726   11.5025   -1.5496 H   0  0  0  0  0  0  0  0  0  0  0  0
    1.7048   10.9250    0.1346 H   0  0  0  0  0  0  0  0  0  0  0  0
    2.9668   10.6273   -1.0802 H   0  0  0  0  0  0  0  0  0  0  0  0
    2.7796   12.9404    0.5878 H   0  0  0  0  0  0  0  0  0  0  0  0
    3.7953   12.8382   -0.8477 H   0  0  0  0  0  0  0  0  0  0  0  0
    0.9482   13.8253    0.8015 H   0  0  0  0  0  0  0  0  0  0  0  0
    0.1075   14.8484   -0.4123 H   0  0  0  0  0  0  0  0  0  0  0  0
   -0.1389   13.0691   -0.4123 H   0  0  0  0  0  0  0  0  0  0  0  0
    3.3024   14.7993   -2.1795 H   0  0  0  0  0  0  0  0  0  0  0  0
    3.2133   15.3110    0.3427 H   0  0  0  0  0  0  0  0  0  0  0  0
    3.6723   16.6101   -0.8784 H   0  0  0  0  0  0  0  0  0  0  0  0
    2.0667   17.3582    1.0709 H   0  0  0  0  0  0  0  0  0  0  0  0
   -0.4407   15.9665   -1.7722 H   0  0  0  0  0  0  0  0  0  0  0  0
    0.6158   18.6245   -2.9167 H   0  0  0  0  0  0  0  0  0  0  0  0
   -0.5543   17.4807   -3.7121 H   0  0  0  0  0  0  0  0  0  0  0  0
   -1.6890   19.4508   -2.7357 H   0  0  0  0  0  0  0  0  0  0  0  0
   -2.1916   17.8941   -1.9673 H   0  0  0  0  0  0  0  0  0  0  0  0
   -1.8878   19.5402   -0.2472 H   0  0  0  0  0  0  0  0  0  0  0  0
   -0.1300   20.5640   -1.7900 H   0  0  0  0  0  0  0  0  0  0  0  0
   -1.5912   17.0615    1.7511 H   0  0  0  0  0  0  0  0  0  0  0  0
   -2.5006   17.4691    0.2566 H   0  0  0  0  0  0  0  0  0  0  0  0
   -1.3417   16.0966    0.2566 H   0  0  0  0  0  0  0  0  0  0  0  0
   -0.2956   18.2193    2.3952 H   0  0  0  0  0  0  0  0  0  0  0  0
    1.1848   18.7680    1.5385 H   0  0  0  0  0  0  0  0  0  0  0  0
   -0.2868   19.7981    1.5385 H   0  0  0  0  0  0  0  0  0  0  0  0
    3.0144   17.4778   -2.6649 H   0  0  0  0  0  0  0  0  0  0  0  0
    3.1358   16.3133   -4.0271 H   0  0  0  0  0  0  0  0  0  0  0  0
    1.8467   17.5642   -4.0271 H   0  0  0  0  0  0  0  0  0  0  0  0
   -0.0398   15.5166   -4.1400 H   0  0  0  0  0  0  0  0  0  0  0  0
    1.6382   14.8051   -4.4754 H   0  0  0  0  0  0  0  0  0  0  0  0
   -0.5113   13.6923   -2.6515 H   0  0  0  0  0  0  0  0  0  0  0  0
    0.1402   12.9936   -4.1861 H   0  0  0  0  0  0  0  0  0  0  0  0
    3.6137   12.5212   -2.8789 H   0  0  0  0  0  0  0  0  0  0  0  0
    2.5234   11.7907   -4.1054 H   0  0  0  0  0  0  0  0  0  0  0  0
    2.8156   13.5630   -4.1054 H   0  0  0  0  0  0  0  0  0  0  0  0
  1  2  1  0
  2  3  1  0
  3  4  1  0
  4  5  1  0
  5  6  1  0
  6  7  1  0
  7  8  1  0
  7  9  1  0
  2 10  1  0
 10 11  1  0
 11 12  1  0
 12 13  1  0
 13 14  1  1
 13 15  1  0
 15 16  1  0
 16 17  1  0
 17 18  2  0
 18 19  1  0
 19 20  1  0
 20 21  1  0
 21 22  1  0
 22 23  1  0
 22 24  1  0
 24 25  1  0
 24 26  1  0
 19 27  1  0
 27 28  1  6
 27 29  1  0
 29 30  1  0
 30 31  1  0
 31 32  1  6
  7  5  1  0
 31 10  1  0
 31 13  1  0
 27 15  1  0
 24 18  1  0
  1 33  1  0
  1 34  1  0
  1 35  1  0
  2 36  1  6
  3 37  1  0
  3 38  1  0
  4 39  1  0
  4 40  1  0
  5 41  1  1
  8 42  1  0
  8 43  1  0
  8 44  1  0
  9 45  1  0
  9 46  1  0
  9 47  1  0
 10 48  1  1
 11 49  1  0
 11 50  1  0
 12 51  1  0
 12 52  1  0
 14 53  1  0
 14 54  1  0
 14 55  1  0
 15 56  1  6
 16 57  1  0
 16 58  1  0
 17 59  1  0
 19 60  1  1
 20 61  1  0
 20 62  1  0
 21 63  1  0
 21 64  1  0
 22 65  1  1
 23 66  1  0
 25 67  1  0
 25 68  1  0
 25 69  1  0
 26 70  1  0
 26 71  1  0
 26 72  1  0
 28 73  1  0
 28 74  1  0
 28 75  1  0
 29 76  1  0
 29 77  1  0
 30 78  1  0
 30 79  1  0
 32 80  1  0
 32 81  1  0
 32 82  1  0
M  END
>  <meeko>  (7) 
{"is_sidechain": [false], "intermolecular_energy": 2.731, "internal_energy": -0.839}

$$$$
EPH_relaxed_0001_pdb2pqr_Repair_146_r2_0001_out
     RDKit          3D

 82 86  0  0  0  0  0  0  0  0999 V2000
    0.0230    8.8380   -2.2780 C   0  0  0  0  0  0  0  0  0  0  0  0
    0.7890    9.9490   -3.0010 C   0  0  2  0  0  0  0  0  0  0  0  0
    2.2990    9.9110   -2.6920 C   0  0  0  0  0  0  0  0  0  0  0  0
    3.1660   10.5550   -3.7760 C   0  0  0  0  0  0  0  0  0  0  0  0
    4.5680   10.7860   -3.3010 C   0  0  2  0  0  0  0  0  0  0  0  0
    5.2260   11.9110   -3.8980 O   0  0  0  0  0  0  0  0  0  0  0  0
    5.7900   10.6220   -4.1860 C   0  0  0  0  0  0  0  0  0  0  0  0
    5.6650   10.2090   -5.6190 C   0  0  0  0  0  0  0  0  0  0  0  0
    7.1180   10.3860   -3.5360 C   0  0  0  0  0  0  0  0  0  0  0  0
    0.2140   11.3080   -2.6210 C   0  0  1  0  0  0  0  0  0  0  0  0
   -1.1240   11.1950   -1.8430 C   0  0  0  0  0  0  0  0  0  0  0  0
   -1.1430   12.3540   -0.8140 C   0  0  0  0  0  0  0  0  0  0  0  0
    0.0130   13.2840   -1.2520 C   0  0  1  0  0  0  0  0  0  0  0  0
   -0.5800   14.1390   -2.4160 C   0  0  0  0  0  0  0  0  0  0  0  0
    0.6380   14.1820   -0.1360 C   0  0  2  0  0  0  0  0  0  0  0  0
   -0.3250   15.2000    0.4980 C   0  0  0  0  0  0  0  0  0  0  0  0
   -0.3660   16.5380   -0.1640 C   0  0  0  0  0  0  0  0  0  0  0  0
    0.5410   17.0030   -1.0430 C   0  0  0  0  0  0  0  0  0  0  0  0
    1.8000   16.1940   -1.3790 C   0  0  1  0  0  0  0  0  0  0  0  0
    3.0400   17.1240   -1.3380 C   0  0  0  0  0  0  0  0  0  0  0  0
    2.8810   18.3520   -2.2300 C   0  0  0  0  0  0  0  0  0  0  0  0
    1.6510   19.1620   -1.8270 C   0  0  2  0  0  0  0  0  0  0  0  0
    1.8720   19.7190   -0.5270 O   0  0  0  0  0  0  0  0  0  0  0  0
    0.3410   18.3260   -1.8230 C   0  0  0  0  0  0  0  0  0  0  0  0
   -0.0590   17.9780   -3.2780 C   0  0  0  0  0  0  0  0  0  0  0  0
   -0.7960   19.2240   -1.2640 C   0  0  0  0  0  0  0  0  0  0  0  0
    2.0100   14.8590   -0.5420 C   0  0  1  0  0  0  0  0  0  0  0  0
    2.7600   15.1770    0.7870 C   0  0  0  0  0  0  0  0  0  0  0  0
    2.9410   13.8840   -1.3550 C   0  0  0  0  0  0  0  0  0  0  0  0
    2.2510   12.9370   -2.3560 C   0  0  0  0  0  0  0  0  0  0  0  0
    1.0720   12.2120   -1.7010 C   0  0  2  0  0  0  0  0  0  0  0  0
    1.6400   11.3260   -0.5400 C   0  0  0  0  0  0  0  0  0  0  0  0
    0.1176    8.9751   -1.1907 H   0  0  0  0  0  0  0  0  0  0  0  0
   -1.0389    8.8801   -2.5619 H   0  0  0  0  0  0  0  0  0  0  0  0
    0.4400    7.8605   -2.5619 H   0  0  0  0  0  0  0  0  0  0  0  0
    0.6698    9.7831   -4.0819 H   0  0  0  0  0  0  0  0  0  0  0  0
    2.4732   10.4443   -1.7458 H   0  0  0  0  0  0  0  0  0  0  0  0
    2.5888    8.8513   -2.6365 H   0  0  0  0  0  0  0  0  0  0  0  0
    3.1917    9.8912   -4.6528 H   0  0  0  0  0  0  0  0  0  0  0  0
    2.7261   11.5302   -4.0320 H   0  0  0  0  0  0  0  0  0  0  0  0
    4.3196   10.3907   -2.3050 H   0  0  0  0  0  0  0  0  0  0  0  0
    5.3467    9.1573   -5.6711 H   0  0  0  0  0  0  0  0  0  0  0  0
    4.9186   10.8432   -6.1196 H   0  0  0  0  0  0  0  0  0  0  0  0
    6.6378   10.3229   -6.1196 H   0  0  0  0  0  0  0  0  0  0  0  0
    6.9999   10.4070   -2.4426 H   0  0  0  0  0  0  0  0  0  0  0  0
    7.5077    9.4045   -3.8440 H   0  0  0  0  0  0  0  0  0  0  0  0
    7.8220   11.1731   -3.8440 H   0  0  0  0  0  0  0  0  0  0  0  0
    0.1324   11.7586   -3.6211 H   0  0  0  0  0  0  0  0  0  0  0  0
   -1.9737   11.2892   -2.5352 H   0  0  0  0  0  0  0  0  0  0  0  0
   -1.2074   10.2199   -1.3408 H   0  0  0  0  0  0  0  0  0  0  0  0
   -2.1044   12.8874   -0.8476 H   0  0  0  0  0  0  0  0  0  0  0  0
   -1.0220   11.9964    0.2192 H   0  0  0  0  0  0  0  0  0  0  0  0
   -1.1599   14.9751   -1.9982 H   0  0  0  0  0  0  0  0  0  0  0  0
    0.2391   14.5340   -3.0350 H   0  0  0  0  0  0  0  0  0  0  0  0
   -1.2370   13.5103   -3.0350 H   0  0  0  0  0  0  0  0  0  0  0  0
    0.8637   13.4521    0.6554 H   0  0  0  0  0  0  0  0  0  0  0  0
   -1.3387   14.7741    0.4665 H   0  0  0  0  0  0  0  0  0  0  0  0
    0.0474   15.3766    1.5178 H   0  0  0  0  0  0  0  0  0  0  0  0
   -1.2083   17.1991    0.0880 H   0  0  0  0  0  0  0  0  0  0  0  0
    1.6531   15.8137   -2.4007 H   0  0  0  0  0  0  0  0  0  0  0  0
    3.1954   17.4588   -0.3018 H   0  0  0  0  0  0  0  0  0  0  0  0
    3.9004   16.5495   -1.7116 H   0  0  0  0  0  0  0  0  0  0  0  0
    3.7759   18.9846   -2.1350 H   0  0  0  0  0  0  0  0  0  0  0  0
    2.7562   18.0172   -3.2703 H   0  0  0  0  0  0  0  0  0  0  0  0
    1.5149   19.9525   -2.5797 H   0  0  0  0  0  0  0  0  0  0  0  0
    2.8300   19.7150   -0.3640 H   0  0  0  0  0  0  0  0  0  0  0  0
   -0.8888   17.2560   -3.2674 H   0  0  0  0  0  0  0  0  0  0  0  0
   -0.3757   18.8930   -3.8000 H   0  0  0  0  0  0  0  0  0  0  0  0
    0.8034   17.5378   -3.8000 H   0  0  0  0  0  0  0  0  0  0  0  0
   -0.7715   19.2046   -0.1644 H   0  0  0  0  0  0  0  0  0  0  0  0
   -0.6543   20.2565   -1.6158 H   0  0  0  0  0  0  0  0  0  0  0  0
   -1.7676   18.8469   -1.6158 H   0  0  0  0  0  0  0  0  0  0  0  0
    2.1224   14.9066    1.6416 H   0  0  0  0  0  0  0  0  0  0  0  0
    3.6940   14.5975    0.8286 H   0  0  0  0  0  0  0  0  0  0  0  0
    2.9928   16.2513    0.8286 H   0  0  0  0  0  0  0  0  0  0  0  0
    3.6564   14.5004   -1.9191 H   0  0  0  0  0  0  0  0  0  0  0  0
    3.3948   13.2242   -0.6009 H   0  0  0  0  0  0  0  0  0  0  0  0
    1.8829   13.5232   -3.2109 H   0  0  0  0  0  0  0  0  0  0  0  0
    2.9824   12.1865   -2.6902 H   0  0  0  0  0  0  0  0  0  0  0  0
    1.3582   11.7656    0.4282 H   0  0  0  0  0  0  0  0  0  0  0  0
    1.2241   10.3105   -0.6166 H   0  0  0  0  0  0  0  0  0  0  0  0
    2.7364   11.2800   -0.6166 H   0  0  0  0  0  0  0  0  0  0  0  0
  1  2  1  0
  2  3  1  0
  3  4  1  0
  4  5  1  0
  5  6  1  0
  6  7  1  0
  7  8  1  0
  7  9  1  0
  2 10  1  0
 10 11  1  0
 11 12  1  0
 12 13  1  0
 13 14  1  6
 13 15  1  0
 15 16  1  0
 16 17  1  0
 17 18  2  0
 18 19  1  0
 19 20  1  0
 20 21  1  0
 21 22  1  0
 22 23  1  0
 22 24  1  0
 24 25  1  0
 24 26  1  0
 19 27  1  0
 27 28  1  1
 27 29  1  0
 29 30  1  0
 30 31  1  0
 31 32  1  1
  7  5  1  0
 31 10  1  0
 31 13  1  0
 27 15  1  0
 24 18  1  0
  1 33  1  0
  1 34  1  0
  1 35  1  0
  2 36  1  6
  3 37  1  0
  3 38  1  0
  4 39  1  0
  4 40  1  0
  5 41  1  1
  8 42  1  0
  8 43  1  0
  8 44  1  0
  9 45  1  0
  9 46  1  0
  9 47  1  0
 10 48  1  6
 11 49  1  0
 11 50  1  0
 12 51  1  0
 12 52  1  0
 14 53  1  0
 14 54  1  0
 14 55  1  0
 15 56  1  1
 16 57  1  0
 16 58  1  0
 17 59  1  0
 19 60  1  6
 20 61  1  0
 20 62  1  0
 21 63  1  0
 21 64  1  0
 22 65  1  6
 23 66  1  0
 25 67  1  0
 25 68  1  0
 25 69  1  0
 26 70  1  0
 26 71  1  0
 26 72  1  0
 28 73  1  0
 28 74  1  0
 28 75  1  0
 29 76  1  0
 29 77  1  0
 30 78  1  0
 30 79  1  0
 32 80  1  0
 32 81  1  0
 32 82  1  0
M  END
>  <meeko>  (8) 
{"is_sidechain": [false], "intermolecular_energy": 2.731, "internal_energy": -0.839}

$$$$
EPH_relaxed_0001_pdb2pqr_Repair_146_r2_0001_out
     RDKit          3D

 82 86  0  0  0  0  0  0  0  0999 V2000
   -3.7360    7.1970   -3.4170 C   0  0  0  0  0  0  0  0  0  0  0  0
   -3.7700    7.2730   -1.8880 C   0  0  2  0  0  0  0  0  0  0  0  0
   -5.1890    7.0540   -1.3260 C   0  0  0  0  0  0  0  0  0  0  0  0
   -6.3020    7.3450   -2.3370 C   0  0  0  0  0  0  0  0  0  0  0  0
   -7.6300    7.5190   -1.6640 C   0  0  2  0  0  0  0  0  0  0  0  0
   -8.1850    6.3160   -1.1150 O   0  0  0  0  0  0  0  0  0  0  0  0
   -8.9200    6.9200   -2.1920 C   0  0  0  0  0  0  0  0  0  0  0  0
   -8.9450    6.1020   -3.4450 C   0  0  0  0  0  0  0  0  0  0  0  0
  -10.2190    7.5300   -1.7670 C   0  0  0  0  0  0  0  0  0  0  0  0
   -3.2280    8.6190   -1.4220 C   0  0  1  0  0  0  0  0  0  0  0  0
   -3.8380    9.0740   -0.0700 C   0  0  0  0  0  0  0  0  0  0  0  0
   -2.7200    9.8280    0.6950 C   0  0  0  0  0  0  0  0  0  0  0  0
   -1.6200   10.0720   -0.3640 C   0  0  1  0  0  0  0  0  0  0  0  0
   -2.0990   11.3280   -1.1580 C   0  0  0  0  0  0  0  0  0  0  0  0
   -0.1650   10.2530    0.1800 C   0  0  2  0  0  0  0  0  0  0  0  0
    0.0420   11.4720    1.0960 C   0  0  0  0  0  0  0  0  0  0  0  0
    0.4460   12.7300    0.4020 C   0  0  0  0  0  0  0  0  0  0  0  0
    0.9100   12.8140   -0.8590 C   0  0  0  0  0  0  0  0  0  0  0  0
    1.1620   11.5500   -1.6910 C   0  0  1  0  0  0  0  0  0  0  0  0
    2.5470   11.6510   -2.3810 C   0  0  0  0  0  0  0  0  0  0  0  0
    2.7000   12.9290   -3.2000 C   0  0  0  0  0  0  0  0  0  0  0  0
    2.5000   14.1650   -2.3260 C   0  0  2  0  0  0  0  0  0  0  0  0
    3.5740   14.2410   -1.3830 O   0  0  0  0  0  0  0  0  0  0  0  0
    1.1410   14.1680   -1.5720 C   0  0  0  0  0  0  0  0  0  0  0  0
   -0.0130   14.3900   -2.5810 C   0  0  0  0  0  0  0  0  0  0  0  0
    1.1270   15.3950   -0.6200 C   0  0  0  0  0  0  0  0  0  0  0  0
    0.9580   10.1680   -0.9320 C   0  0  1  0  0  0  0  0  0  0  0  0
    2.2750    9.7620   -0.2040 C   0  0  0  0  0  0  0  0  0  0  0  0
    0.6680    9.0380   -1.9900 C   0  0  0  0  0  0  0  0  0  0  0  0
   -0.8020    8.8280   -2.3970 C   0  0  0  0  0  0  0  0  0  0  0  0
   -1.7030    8.7210   -1.1630 C   0  0  2  0  0  0  0  0  0  0  0  0
   -1.2600    7.4530   -0.3560 C   0  0  0  0  0  0  0  0  0  0  0  0
   -3.3050    6.2335   -3.7267 H   0  0  0  0  0  0  0  0  0  0  0  0
   -4.7591    7.2847   -3.8113 H   0  0  0  0  0  0  0  0  0  0  0  0
   -3.1195    8.0182   -3.8113 H   0  0  0  0  0  0  0  0  0  0  0  0
   -3.1340    6.4622   -1.5031 H   0  0  0  0  0  0  0  0  0  0  0  0
   -5.2773    6.0059   -1.0040 H   0  0  0  0  0  0  0  0  0  0  0  0
   -5.3180    7.7606   -0.4929 H   0  0  0  0  0  0  0  0  0  0  0  0
   -6.0554    8.2675   -2.8831 H   0  0  0  0  0  0  0  0  0  0  0  0
   -6.3747    6.4884   -3.0233 H   0  0  0  0  0  0  0  0  0  0  0  0
   -7.3644    8.5395   -1.3509 H   0  0  0  0  0  0  0  0  0  0  0  0
   -8.9776    5.0337   -3.1849 H   0  0  0  0  0  0  0  0  0  0  0  0
   -9.8356    6.3630   -4.0355 H   0  0  0  0  0  0  0  0  0  0  0  0
   -8.0401    6.3081   -4.0355 H   0  0  0  0  0  0  0  0  0  0  0  0
  -10.2707    7.5543   -0.6685 H   0  0  0  0  0  0  0  0  0  0  0  0
  -10.2888    8.5550   -2.1601 H   0  0  0  0  0  0  0  0  0  0  0  0
  -11.0523    6.9291   -2.1601 H   0  0  0  0  0  0  0  0  0  0  0  0
   -3.5056    9.2382   -2.2877 H   0  0  0  0  0  0  0  0  0  0  0  0
   -4.6933    9.7428   -0.2465 H   0  0  0  0  0  0  0  0  0  0  0  0
   -4.2003    8.2120    0.5094 H   0  0  0  0  0  0  0  0  0  0  0  0
   -3.0963   10.7827    1.0913 H   0  0  0  0  0  0  0  0  0  0  0  0
   -2.3483    9.2582    1.5593 H   0  0  0  0  0  0  0  0  0  0  0  0
   -2.3994   12.1158   -0.4515 H   0  0  0  0  0  0  0  0  0  0  0  0
   -1.2783   11.6966   -1.7910 H   0  0  0  0  0  0  0  0  0  0  0  0
   -2.9567   11.0565   -1.7910 H   0  0  0  0  0  0  0  0  0  0  0  0
   -0.0427    9.3704    0.8251 H   0  0  0  0  0  0  0  0  0  0  0  0
   -0.9032   11.6641    1.6248 H   0  0  0  0  0  0  0  0  0  0  0  0
    0.8760   11.2120    1.7644 H   0  0  0  0  0  0  0  0  0  0  0  0
    0.3571   13.6684    0.9690 H   0  0  0  0  0  0  0  0  0  0  0  0
    0.3675   11.5238   -2.4513 H   0  0  0  0  0  0  0  0  0  0  0  0
    3.3287   11.6321   -1.6074 H   0  0  0  0  0  0  0  0  0  0  0  0
    2.6397   10.7990   -3.0706 H   0  0  0  0  0  0  0  0  0  0  0  0
    3.7087   12.9572   -3.6379 H   0  0  0  0  0  0  0  0  0  0  0  0
    1.9365   12.9319   -3.9918 H   0  0  0  0  0  0  0  0  0  0  0  0
    2.4919   15.0417   -2.9903 H   0  0  0  0  0  0  0  0  0  0  0  0
    3.5300   15.1130   -0.9570 H   0  0  0  0  0  0  0  0  0  0  0  0
   -0.9496   14.5702   -2.0330 H   0  0  0  0  0  0  0  0  0  0  0  0
    0.2152   15.2607   -3.2133 H   0  0  0  0  0  0  0  0  0  0  0  0
   -0.1241   13.4968   -3.2133 H   0  0  0  0  0  0  0  0  0  0  0  0
    1.1309   15.0490    0.4242 H   0  0  0  0  0  0  0  0  0  0  0  0
    2.0182   16.0128   -0.8049 H   0  0  0  0  0  0  0  0  0  0  0  0
    0.2220   15.9923   -0.8049 H   0  0  0  0  0  0  0  0  0  0  0  0
    2.1219    9.8092    0.8843 H   0  0  0  0  0  0  0  0  0  0  0  0
    2.5517    8.7368   -0.4912 H   0  0  0  0  0  0  0  0  0  0  0  0
    3.0809   10.4534   -0.4912 H   0  0  0  0  0  0  0  0  0  0  0  0
    1.2338    9.2822   -2.9012 H   0  0  0  0  0  0  0  0  0  0  0  0
    0.9671    8.1004   -1.4987 H   0  0  0  0  0  0  0  0  0  0  0  0
   -1.1309    9.6802   -3.0098 H   0  0  0  0  0  0  0  0  0  0  0  0
   -0.8772    7.8910   -2.9683 H   0  0  0  0  0  0  0  0  0  0  0  0
   -1.3325    7.6605    0.7218 H   0  0  0  0  0  0  0  0  0  0  0  0
   -1.9161    6.6079   -0.6116 H   0  0  0  0  0  0  0  0  0  0  0  0
   -0.2204    7.2004   -0.6116 H   0  0  0  0  0  0  0  0  0  0  0  0
  1  2  1  0
  2  3  1  0
  3  4  1  0
  4  5  1  0
  5  6  1  0
  6  7  1  0
  7  8  1  0
  7  9  1  0
  2 10  1  0
 10 11  1  0
 11 12  1  0
 12 13  1  0
 13 14  1  6
 13 15  1  0
 15 16  1  0
 16 17  1  0
 17 18  2  0
 18 19  1  0
 19 20  1  0
 20 21  1  0
 21 22  1  0
 22 23  1  0
 22 24  1  0
 24 25  1  0
 24 26  1  0
 19 27  1  0
 27 28  1  1
 27 29  1  0
 29 30  1  0
 30 31  1  0
 31 32  1  1
  7  5  1  0
 31 10  1  0
 31 13  1  0
 27 15  1  0
 24 18  1  0
  1 33  1  0
  1 34  1  0
  1 35  1  0
  2 36  1  1
  3 37  1  0
  3 38  1  0
  4 39  1  0
  4 40  1  0
  5 41  1  1
  8 42  1  0
  8 43  1  0
  8 44  1  0
  9 45  1  0
  9 46  1  0
  9 47  1  0
 10 48  1  6
 11 49  1  0
 11 50  1  0
 12 51  1  0
 12 52  1  0
 14 53  1  0
 14 54  1  0
 14 55  1  0
 15 56  1  1
 16 57  1  0
 16 58  1  0
 17 59  1  0
 19 60  1  6
 20 61  1  0
 20 62  1  0
 21 63  1  0
 21 64  1  0
 22 65  1  6
 23 66  1  0
 25 67  1  0
 25 68  1  0
 25 69  1  0
 26 70  1  0
 26 71  1  0
 26 72  1  0
 28 73  1  0
 28 74  1  0
 28 75  1  0
 29 76  1  0
 29 77  1  0
 30 78  1  0
 30 79  1  0
 32 80  1  0
 32 81  1  0
 32 82  1  0
M  END
>  <meeko>  (9) 
{"is_sidechain": [false], "intermolecular_energy": 2.731, "internal_energy": -0.839}

$$$$
EPH_relaxed_0001_pdb2pqr_Repair_146_r2_0001_out
     RDKit          3D

 82 86  0  0  0  0  0  0  0  0999 V2000
   -0.8260   16.3370   -5.8160 C   0  0  0  0  0  0  0  0  0  0  0  0
    0.2500   15.6220   -6.6390 C   0  0  2  0  0  0  0  0  0  0  0  0
   -0.1680   15.4470   -8.1130 C   0  0  0  0  0  0  0  0  0  0  0  0
    0.4560   16.4790   -9.0560 C   0  0  0  0  0  0  0  0  0  0  0  0
    1.8560   16.1050   -9.4400 C   0  0  2  0  0  0  0  0  0  0  0  0
    2.3140   16.6810  -10.6700 O   0  0  0  0  0  0  0  0  0  0  0  0
    2.1920   15.2490  -10.6460 C   0  0  0  0  0  0  0  0  0  0  0  0
    1.1230   14.7140  -11.5460 C   0  0  0  0  0  0  0  0  0  0  0  0
    3.5060   14.5320  -10.6710 C   0  0  0  0  0  0  0  0  0  0  0  0
    0.5600   14.2640   -6.0210 C   0  0  1  0  0  0  0  0  0  0  0  0
    1.8080   13.5910   -6.6530 C   0  0  0  0  0  0  0  0  0  0  0  0
    2.5210   12.8150   -5.5160 C   0  0  0  0  0  0  0  0  0  0  0  0
    1.4960   12.7900   -4.3580 C   0  0  1  0  0  0  0  0  0  0  0  0
    0.5200   11.6240   -4.7120 C   0  0  0  0  0  0  0  0  0  0  0  0
    2.0840   12.6330   -2.9180 C   0  0  2  0  0  0  0  0  0  0  0  0
    2.8410   11.3180   -2.6610 C   0  0  0  0  0  0  0  0  0  0  0  0
    2.0070   10.1940   -2.1400 C   0  0  0  0  0  0  0  0  0  0  0  0
    0.7720   10.3130   -1.6190 C   0  0  0  0  0  0  0  0  0  0  0  0
    0.1280   11.6920   -1.4250 C   0  0  1  0  0  0  0  0  0  0  0  0
   -0.4980   11.7760   -0.0080 C   0  0  0  0  0  0  0  0  0  0  0  0
   -1.4710   10.6340    0.2700 C   0  0  0  0  0  0  0  0  0  0  0  0
   -0.7790    9.2810    0.1240 C   0  0  2  0  0  0  0  0  0  0  0  0
    0.1990    9.1490    1.1610 O   0  0  0  0  0  0  0  0  0  0  0  0
   -0.1020    9.0850   -1.2610 C   0  0  0  0  0  0  0  0  0  0  0  0
   -1.1880    8.9270   -2.3540 C   0  0  0  0  0  0  0  0  0  0  0  0
    0.6780    7.7430   -1.2260 C   0  0  0  0  0  0  0  0  0  0  0  0
    1.0520   12.9410   -1.7590 C   0  0  1  0  0  0  0  0  0  0  0  0
    1.8930   13.3310   -0.5050 C   0  0  0  0  0  0  0  0  0  0  0  0
    0.1400   14.1830   -2.0850 C   0  0  0  0  0  0  0  0  0  0  0  0
   -0.3110   14.3480   -3.5490 C   0  0  0  0  0  0  0  0  0  0  0  0
    0.8790   14.2280   -4.5050 C   0  0  2  0  0  0  0  0  0  0  0  0
    1.8690   15.4010   -4.1880 C   0  0  0  0  0  0  0  0  0  0  0  0
   -0.6195   16.1998   -4.7443 H   0  0  0  0  0  0  0  0  0  0  0  0
   -0.8185   17.4104   -6.0563 H   0  0  0  0  0  0  0  0  0  0  0  0
   -1.8127   15.9143   -6.0563 H   0  0  0  0  0  0  0  0  0  0  0  0
    1.1517   16.2518   -6.6238 H   0  0  0  0  0  0  0  0  0  0  0  0
    0.1385   14.4438   -8.4442 H   0  0  0  0  0  0  0  0  0  0  0  0
   -1.2580   15.5886   -8.1572 H   0  0  0  0  0  0  0  0  0  0  0  0
   -0.1574   16.5464   -9.9666 H   0  0  0  0  0  0  0  0  0  0  0  0
    0.4911   17.4453   -8.5315 H   0  0  0  0  0  0  0  0  0  0  0  0
    2.1532   16.0392   -8.3829 H   0  0  0  0  0  0  0  0  0  0  0  0
    0.3032   14.3037  -10.9380 H   0  0  0  0  0  0  0  0  0  0  0  0
    0.7380   15.5257  -12.1808 H   0  0  0  0  0  0  0  0  0  0  0  0
    1.5419   13.9193  -12.1808 H   0  0  0  0  0  0  0  0  0  0  0  0
    3.8430   14.3481   -9.6402 H   0  0  0  0  0  0  0  0  0  0  0  0
    3.3900   13.5721  -11.1956 H   0  0  0  0  0  0  0  0  0  0  0  0
    4.2504   15.1489  -11.1956 H   0  0  0  0  0  0  0  0  0  0  0  0
   -0.3930   13.7506   -6.2168 H   0  0  0  0  0  0  0  0  0  0  0  0
    1.5017   12.8980   -7.4505 H   0  0  0  0  0  0  0  0  0  0  0  0
    2.4775   14.3407   -7.1000 H   0  0  0  0  0  0  0  0  0  0  0  0
    2.7672   11.7926   -5.8387 H   0  0  0  0  0  0  0  0  0  0  0  0
    3.4709   13.2853   -5.2221 H   0  0  0  0  0  0  0  0  0  0  0  0
    0.1398   11.1698   -3.7851 H   0  0  0  0  0  0  0  0  0  0  0  0
   -0.3225   12.0168   -5.3002 H   0  0  0  0  0  0  0  0  0  0  0  0
    1.0550   10.8638   -5.3002 H   0  0  0  0  0  0  0  0  0  0  0  0
    2.8451   13.4266   -2.8874 H   0  0  0  0  0  0  0  0  0  0  0  0
    3.2927   10.9946   -3.6104 H   0  0  0  0  0  0  0  0  0  0  0  0
    3.5786   11.5396   -1.8756 H   0  0  0  0  0  0  0  0  0  0  0  0
    2.4388    9.1833   -2.1860 H   0  0  0  0  0  0  0  0  0  0  0  0
   -0.6616   11.7695   -2.1869 H   0  0  0  0  0  0  0  0  0  0  0  0
    0.3102   11.7401    0.7373 H   0  0  0  0  0  0  0  0  0  0  0  0
   -1.0626   12.7181    0.0525 H   0  0  0  0  0  0  0  0  0  0  0  0
   -1.8578   10.7319    1.2951 H   0  0  0  0  0  0  0  0  0  0  0  0
   -2.2939   10.6883   -0.4580 H   0  0  0  0  0  0  0  0  0  0  0  0
   -1.5533    8.5040    0.2068 H   0  0  0  0  0  0  0  0  0  0  0  0
    1.0590    9.4080    0.7890 H   0  0  0  0  0  0  0  0  0  0  0  0
   -2.1693    8.7842   -1.8779 H   0  0  0  0  0  0  0  0  0  0  0  0
   -1.2123    9.8311   -2.9802 H   0  0  0  0  0  0  0  0  0  0  0  0
   -0.9537    8.0535   -2.9802 H   0  0  0  0  0  0  0  0  0  0  0  0
    0.8505    7.4463   -0.1809 H   0  0  0  0  0  0  0  0  0  0  0  0
    0.0916    6.9646   -1.7361 H   0  0  0  0  0  0  0  0  0  0  0  0
    1.6446    7.8673   -1.7361 H   0  0  0  0  0  0  0  0  0  0  0  0
    1.3342   13.0719    0.4063 H   0  0  0  0  0  0  0  0  0  0  0  0
    2.8469   12.7833   -0.5184 H   0  0  0  0  0  0  0  0  0  0  0  0
    2.0912   14.4129   -0.5184 H   0  0  0  0  0  0  0  0  0  0  0  0
   -0.7650   14.1033   -1.4649 H   0  0  0  0  0  0  0  0  0  0  0  0
    0.7660   15.0629   -1.8756 H   0  0  0  0  0  0  0  0  0  0  0  0
   -1.0463   13.5660   -3.7895 H   0  0  0  0  0  0  0  0  0  0  0  0
   -0.7580   15.3460   -3.6683 H   0  0  0  0  0  0  0  0  0  0  0  0
    1.9653   15.5151   -3.0982 H   0  0  0  0  0  0  0  0  0  0  0  0
    2.8546   15.1763   -4.6217 H   0  0  0  0  0  0  0  0  0  0  0  0
    1.4819   16.3348   -4.6217 H   0  0  0  0  0  0  0  0  0  0  0  0
  1  2  1  0
  2  3  1  0
  3  4  1  0
  4  5  1  0
  5  6  1  0
  6  7  1  0
  7  8  1  0
  7  9  1  0
  2 10  1  0
 10 11  1  0
 11 12  1  0
 12 13  1  0
 13 14  1  6
 13 15  1  0
 15 16  1  0
 16 17  1  0
 17 18  2  0
 18 19  1  0
 19 20  1  0
 20 21  1  0
 21 22  1  0
 22 23  1  0
 22 24  1  0
 24 25  1  0
 24 26  1  0
 19 27  1  0
 27 28  1  1
 27 29  1  0
 29 30  1  0
 30 31  1  0
 31 32  1  1
  7  5  1  0
 31 10  1  0
 31 13  1  0
 27 15  1  0
 24 18  1  0
  1 33  1  0
  1 34  1  0
  1 35  1  0
  2 36  1  6
  3 37  1  0
  3 38  1  0
  4 39  1  0
  4 40  1  0
  5 41  1  1
  8 42  1  0
  8 43  1  0
  8 44  1  0
  9 45  1  0
  9 46  1  0
  9 47  1  0
 10 48  1  1
 11 49  1  0
 11 50  1  0
 12 51  1  0
 12 52  1  0
 14 53  1  0
 14 54  1  0
 14 55  1  0
 15 56  1  6
 16 57  1  0
 16 58  1  0
 17 59  1  0
 19 60  1  6
 20 61  1  0
 20 62  1  0
 21 63  1  0
 21 64  1  0
 22 65  1  1
 23 66  1  0
 25 67  1  0
 25 68  1  0
 25 69  1  0
 26 70  1  0
 26 71  1  0
 26 72  1  0
 28 73  1  0
 28 74  1  0
 28 75  1  0
 29 76  1  0
 29 77  1  0
 30 78  1  0
 30 79  1  0
 32 80  1  0
 32 81  1  0
 32 82  1  0
M  END
>  <meeko>  (10) 
{"is_sidechain": [false], "intermolecular_energy": 2.731, "internal_energy": -0.839}

$$$$
EPH_relaxed_0001_pdb2pqr_Repair_146_r2_0001_out
     RDKit          3D

 82 86  0  0  0  0  0  0  0  0999 V2000
    2.6590   18.8010   -1.2660 C   0  0  0  0  0  0  0  0  0  0  0  0
    2.3060   17.7230   -2.2950 C   0  0  2  0  0  0  0  0  0  0  0  0
    0.8570   17.8570   -2.8030 C   0  0  0  0  0  0  0  0  0  0  0  0
    0.1970   19.1890   -2.4360 C   0  0  0  0  0  0  0  0  0  0  0  0
   -1.0500   18.9860   -1.6290 C   0  0  2  0  0  0  0  0  0  0  0  0
   -1.7340   20.1940   -1.2700 O   0  0  0  0  0  0  0  0  0  0  0  0
   -1.1930   19.4250   -0.1840 C   0  0  0  0  0  0  0  0  0  0  0  0
   -0.0710   20.1000    0.5410 C   0  0  0  0  0  0  0  0  0  0  0  0
   -2.2340   18.7640    0.6650 C   0  0  0  0  0  0  0  0  0  0  0  0
    2.5210   16.3390   -1.6930 C   0  0  1  0  0  0  0  0  0  0  0  0
    3.3060   16.3860   -0.3550 C   0  0  0  0  0  0  0  0  0  0  0  0
    2.7330   15.2560    0.5390 C   0  0  0  0  0  0  0  0  0  0  0  0
    1.8800   14.3940   -0.4200 C   0  0  1  0  0  0  0  0  0  0  0  0
    2.9060   13.4690   -1.1480 C   0  0  0  0  0  0  0  0  0  0  0  0
    0.7240   13.5700    0.2340 C   0  0  2  0  0  0  0  0  0  0  0  0
    1.1750   12.5080    1.2520 C   0  0  0  0  0  0  0  0  0  0  0  0
    1.4410   11.1530    0.6850 C   0  0  0  0  0  0  0  0  0  0  0  0
    1.0540   10.7240   -0.5310 C   0  0  0  0  0  0  0  0  0  0  0  0
    0.1850   11.6060   -1.4370 C   0  0  1  0  0  0  0  0  0  0  0  0
   -0.9780   10.7620   -2.0210 C   0  0  0  0  0  0  0  0  0  0  0  0
   -0.4880    9.5020   -2.7290 C   0  0  0  0  0  0  0  0  0  0  0  0
    0.3220    8.6230   -1.7790 C   0  0  2  0  0  0  0  0  0  0  0  0
   -0.5480    8.1190   -0.7620 O   0  0  0  0  0  0  0  0  0  0  0  0
    1.5170    9.3700   -1.1220 C   0  0  0  0  0  0  0  0  0  0  0  0
    2.6050    9.6510   -2.1880 C   0  0  0  0  0  0  0  0  0  0  0  0
    2.1630    8.4150   -0.0830 C   0  0  0  0  0  0  0  0  0  0  0  0
   -0.3140   12.9740   -0.8010 C   0  0  1  0  0  0  0  0  0  0  0  0
   -1.6420   12.7430   -0.0170 C   0  0  0  0  0  0  0  0  0  0  0  0
   -0.6520   13.9870   -1.9590 C   0  0  0  0  0  0  0  0  0  0  0  0
    0.5070   14.8570   -2.4810 C   0  0  0  0  0  0  0  0  0  0  0  0
    1.2590   15.5210   -1.3230 C   0  0  2  0  0  0  0  0  0  0  0  0
    0.2580   16.4740   -0.5860 C   0  0  0  0  0  0  0  0  0  0  0  0
    2.5267   18.3969   -0.2515 H   0  0  0  0  0  0  0  0  0  0  0  0
    3.7055   19.1107   -1.4037 H   0  0  0  0  0  0  0  0  0  0  0  0
    1.9984   19.6697   -1.4037 H   0  0  0  0  0  0  0  0  0  0  0  0
    2.9726   17.8602   -3.1592 H   0  0  0  0  0  0  0  0  0  0  0  0
    0.8631   17.7627   -3.8989 H   0  0  0  0  0  0  0  0  0  0  0  0
    0.2711   17.0631   -2.3168 H   0  0  0  0  0  0  0  0  0  0  0  0
    0.9077   19.7893   -1.8490 H   0  0  0  0  0  0  0  0  0  0  0  0
   -0.0779   19.7039   -3.3684 H   0  0  0  0  0  0  0  0  0  0  0  0
   -1.2470   18.0276   -2.1316 H   0  0  0  0  0  0  0  0  0  0  0  0
   -0.2266   20.0064    1.6259 H   0  0  0  0  0  0  0  0  0  0  0  0
    0.8821   19.6252    0.2650 H   0  0  0  0  0  0  0  0  0  0  0  0
   -0.0439   21.1645    0.2650 H   0  0  0  0  0  0  0  0  0  0  0  0
   -1.9925   18.9174    1.7271 H   0  0  0  0  0  0  0  0  0  0  0  0
   -3.2186   19.2027    0.4458 H   0  0  0  0  0  0  0  0  0  0  0  0
   -2.2558   17.6863    0.4458 H   0  0  0  0  0  0  0  0  0  0  0  0
    3.0520   15.8553   -2.5261 H   0  0  0  0  0  0  0  0  0  0  0  0
    4.3775   16.2177   -0.5382 H   0  0  0  0  0  0  0  0  0  0  0  0
    3.1998   17.3669    0.1313 H   0  0  0  0  0  0  0  0  0  0  0  0
    3.5456   14.6591    0.9787 H   0  0  0  0  0  0  0  0  0  0  0  0
    2.1448   15.6486    1.3815 H   0  0  0  0  0  0  0  0  0  0  0  0
    3.5060   12.9280   -0.4015 H   0  0  0  0  0  0  0  0  0  0  0  0
    2.3660   12.7466   -1.7777 H   0  0  0  0  0  0  0  0  0  0  0  0
    3.5688   14.0807   -1.7777 H   0  0  0  0  0  0  0  0  0  0  0  0
    0.1899   14.3351    0.8166 H   0  0  0  0  0  0  0  0  0  0  0  0
    2.1003   12.8648    1.7279 H   0  0  0  0  0  0  0  0  0  0  0  0
    0.3373   12.3847    1.9542 H   0  0  0  0  0  0  0  0  0  0  0  0
    2.0006   10.4451    1.3140 H   0  0  0  0  0  0  0  0  0  0  0  0
    0.8431   11.9474   -2.2496 H   0  0  0  0  0  0  0  0  0  0  0  0
   -1.6471   10.4672   -1.1992 H   0  0  0  0  0  0  0  0  0  0  0  0
   -1.4997   11.3818   -2.7651 H   0  0  0  0  0  0  0  0  0  0  0  0
   -1.3560    8.9333   -3.0939 H   0  0  0  0  0  0  0  0  0  0  0  0
    0.1573    9.7993   -3.5688 H   0  0  0  0  0  0  0  0  0  0  0  0
    0.7528    7.8043   -2.3741 H   0  0  0  0  0  0  0  0  0  0  0  0
   -0.1400    8.3140    0.0980 H   0  0  0  0  0  0  0  0  0  0  0  0
    3.5536    9.8960   -1.6880 H   0  0  0  0  0  0  0  0  0  0  0  0
    2.7416    8.7587   -2.8166 H   0  0  0  0  0  0  0  0  0  0  0  0
    2.2924   10.4979   -2.8166 H   0  0  0  0  0  0  0  0  0  0  0  0
    1.9266    8.7644    0.9329 H   0  0  0  0  0  0  0  0  0  0  0  0
    1.7662    7.3986   -0.2228 H   0  0  0  0  0  0  0  0  0  0  0  0
    3.2540    8.4051   -0.2228 H   0  0  0  0  0  0  0  0  0  0  0  0
   -1.4406   12.7780    1.0638 H   0  0  0  0  0  0  0  0  0  0  0  0
   -2.3650   13.5289   -0.2809 H   0  0  0  0  0  0  0  0  0  0  0  0
   -2.0572   11.7591   -0.2809 H   0  0  0  0  0  0  0  0  0  0  0  0
   -1.0395   13.4047   -2.8080 H   0  0  0  0  0  0  0  0  0  0  0  0
   -1.3695   14.6963   -1.5207 H   0  0  0  0  0  0  0  0  0  0  0  0
    1.2055   14.2236   -3.0475 H   0  0  0  0  0  0  0  0  0  0  0  0
    0.0912   15.6446   -3.1266 H   0  0  0  0  0  0  0  0  0  0  0  0
    0.3771   16.3606    0.5016 H   0  0  0  0  0  0  0  0  0  0  0  0
    0.4663   17.5158   -0.8710 H   0  0  0  0  0  0  0  0  0  0  0  0
   -0.7723   16.2148   -0.8710 H   0  0  0  0  0  0  0  0  0  0  0  0
  1  2  1  0
  2  3  1  0
  3  4  1  0
  4  5  1  0
  5  6  1  0
  6  7  1  0
  7  8  1  0
  7  9  1  0
  2 10  1  0
 10 11  1  0
 11 12  1  0
 12 13  1  0
 13 14  1  6
 13 15  1  0
 15 16  1  0
 16 17  1  0
 17 18  2  0
 18 19  1  0
 19 20  1  0
 20 21  1  0
 21 22  1  0
 22 23  1  0
 22 24  1  0
 24 25  1  0
 24 26  1  0
 19 27  1  0
 27 28  1  1
 27 29  1  0
 29 30  1  0
 30 31  1  0
 31 32  1  1
  7  5  1  0
 31 10  1  0
 31 13  1  0
 27 15  1  0
 24 18  1  0
  1 33  1  0
  1 34  1  0
  1 35  1  0
  2 36  1  6
  3 37  1  0
  3 38  1  0
  4 39  1  0
  4 40  1  0
  5 41  1  1
  8 42  1  0
  8 43  1  0
  8 44  1  0
  9 45  1  0
  9 46  1  0
  9 47  1  0
 10 48  1  6
 11 49  1  0
 11 50  1  0
 12 51  1  0
 12 52  1  0
 14 53  1  0
 14 54  1  0
 14 55  1  0
 15 56  1  1
 16 57  1  0
 16 58  1  0
 17 59  1  0
 19 60  1  6
 20 61  1  0
 20 62  1  0
 21 63  1  0
 21 64  1  0
 22 65  1  6
 23 66  1  0
 25 67  1  0
 25 68  1  0
 25 69  1  0
 26 70  1  0
 26 71  1  0
 26 72  1  0
 28 73  1  0
 28 74  1  0
 28 75  1  0
 29 76  1  0
 29 77  1  0
 30 78  1  0
 30 79  1  0
 32 80  1  0
 32 81  1  0
 32 82  1  0
M  END
>  <meeko>  (11) 
{"is_sidechain": [false], "intermolecular_energy": 2.731, "internal_energy": -0.839}

$$$$
EPH_relaxed_0001_pdb2pqr_Repair_146_r2_0001_out
     RDKit          3D

 82 86  0  0  0  0  0  0  0  0999 V2000
   -0.2960   15.1060   -7.5970 C   0  0  0  0  0  0  0  0  0  0  0  0
    1.0860   15.0700   -6.9400 C   0  0  2  0  0  0  0  0  0  0  0  0
    2.2250   15.1500   -7.9770 C   0  0  0  0  0  0  0  0  0  0  0  0
    2.2570   16.4680   -8.7550 C   0  0  0  0  0  0  0  0  0  0  0  0
    1.8530   16.2770  -10.1860 C   0  0  2  0  0  0  0  0  0  0  0  0
    1.1880   15.0370  -10.4600 O   0  0  0  0  0  0  0  0  0  0  0  0
    2.4630   15.2260  -11.0940 C   0  0  0  0  0  0  0  0  0  0  0  0
    3.5290   14.2970  -10.6070 C   0  0  0  0  0  0  0  0  0  0  0  0
    2.3750   15.4240  -12.5760 C   0  0  0  0  0  0  0  0  0  0  0  0
    1.2310   13.8050   -6.1030 C   0  0  1  0  0  0  0  0  0  0  0  0
    2.6630   13.2090   -6.1630 C   0  0  0  0  0  0  0  0  0  0  0  0
    2.9550   12.6030   -4.7660 C   0  0  0  0  0  0  0  0  0  0  0  0
    1.5800   12.5710   -4.0600 C   0  0  1  0  0  0  0  0  0  0  0  0
    0.8770   11.2900   -4.6090 C   0  0  0  0  0  0  0  0  0  0  0  0
    1.6050   12.5920   -2.4970 C   0  0  2  0  0  0  0  0  0  0  0  0
    2.2940   11.3830   -1.8400 C   0  0  0  0  0  0  0  0  0  0  0  0
    1.3990   10.2290   -1.5310 C   0  0  0  0  0  0  0  0  0  0  0  0
    0.0540   10.2670   -1.5060 C   0  0  0  0  0  0  0  0  0  0  0  0
   -0.7010   11.5860   -1.7130 C   0  0  1  0  0  0  0  0  0  0  0  0
   -1.8090   11.7230   -0.6360 C   0  0  0  0  0  0  0  0  0  0  0  0
   -2.7420   10.5170   -0.6000 C   0  0  0  0  0  0  0  0  0  0  0  0
   -1.9620    9.2320   -0.3350 C   0  0  2  0  0  0  0  0  0  0  0  0
   -1.4290    9.2820    0.9920 O   0  0  0  0  0  0  0  0  0  0  0  0
   -0.8120    8.9920   -1.3520 C   0  0  0  0  0  0  0  0  0  0  0  0
   -1.4070    8.6380   -2.7370 C   0  0  0  0  0  0  0  0  0  0  0  0
   -0.0170    7.7410   -0.8880 C   0  0  0  0  0  0  0  0  0  0  0  0
    0.2010   12.8900   -1.8300 C   0  0  1  0  0  0  0  0  0  0  0  0
    0.4950   13.4620   -0.4100 C   0  0  0  0  0  0  0  0  0  0  0  0
   -0.6030   14.0040   -2.6000 C   0  0  0  0  0  0  0  0  0  0  0  0
   -0.4920   14.0040   -4.1360 C   0  0  0  0  0  0  0  0  0  0  0  0
    0.9720   13.9250   -4.5800 C   0  0  2  0  0  0  0  0  0  0  0  0
    1.6990   15.2120   -4.0620 C   0  0  0  0  0  0  0  0  0  0  0  0
   -1.0721   15.1262   -6.8177 H   0  0  0  0  0  0  0  0  0  0  0  0
   -0.3812   16.0067   -8.2227 H   0  0  0  0  0  0  0  0  0  0  0  0
   -0.4279   14.2110   -8.2227 H   0  0  0  0  0  0  0  0  0  0  0  0
    1.1673   15.9553   -6.2923 H   0  0  0  0  0  0  0  0  0  0  0  0
    3.1835   15.0345   -7.4498 H   0  0  0  0  0  0  0  0  0  0  0  0
    2.0499   14.3483   -8.7095 H   0  0  0  0  0  0  0  0  0  0  0  0
    1.5642   17.1788   -8.2808 H   0  0  0  0  0  0  0  0  0  0  0  0
    3.2879   16.8514   -8.7379 H   0  0  0  0  0  0  0  0  0  0  0  0
    1.6960   17.3586  -10.3106 H   0  0  0  0  0  0  0  0  0  0  0  0
    3.5358   14.2911   -9.5070 H   0  0  0  0  0  0  0  0  0  0  0  0
    3.3276   13.2812  -10.9779 H   0  0  0  0  0  0  0  0  0  0  0  0
    4.5077   14.6354  -10.9779 H   0  0  0  0  0  0  0  0  0  0  0  0
    1.9367   16.4102  -12.7888 H   0  0  0  0  0  0  0  0  0  0  0  0
    3.3826   15.3684  -13.0138 H   0  0  0  0  0  0  0  0  0  0  0  0
    1.7411   14.6388  -13.0138 H   0  0  0  0  0  0  0  0  0  0  0  0
    0.4506   13.1860   -6.5698 H   0  0  0  0  0  0  0  0  0  0  0  0
    2.7153   12.4260   -6.9339 H   0  0  0  0  0  0  0  0  0  0  0  0
    3.4019   13.9823   -6.4200 H   0  0  0  0  0  0  0  0  0  0  0  0
    3.3663   11.5873   -4.8615 H   0  0  0  0  0  0  0  0  0  0  0  0
    3.6988   13.1876   -4.2047 H   0  0  0  0  0  0  0  0  0  0  0  0
    0.5364   10.6693   -3.7671 H   0  0  0  0  0  0  0  0  0  0  0  0
    0.0122   11.5811   -5.2234 H   0  0  0  0  0  0  0  0  0  0  0  0
    1.5870   10.7169   -5.2234 H   0  0  0  0  0  0  0  0  0  0  0  0
    2.2498   13.4570   -2.2826 H   0  0  0  0  0  0  0  0  0  0  0  0
    3.0818   11.0292   -2.5213 H   0  0  0  0  0  0  0  0  0  0  0  0
    2.6759   11.7395   -0.8720 H   0  0  0  0  0  0  0  0  0  0  0  0
    1.8796    9.2658   -1.3045 H   0  0  0  0  0  0  0  0  0  0  0  0
   -1.1574   11.5218   -2.7118 H   0  0  0  0  0  0  0  0  0  0  0  0
   -1.3317   11.8291    0.3494 H   0  0  0  0  0  0  0  0  0  0  0  0
   -2.4141   12.6058   -0.8900 H   0  0  0  0  0  0  0  0  0  0  0  0
   -3.4837   10.6594    0.1997 H   0  0  0  0  0  0  0  0  0  0  0  0
   -3.2412   10.4299   -1.5763 H   0  0  0  0  0  0  0  0  0  0  0  0
   -2.6621    8.3914   -0.4505 H   0  0  0  0  0  0  0  0  0  0  0  0
   -1.7910   10.0730    1.4250 H   0  0  0  0  0  0  0  0  0  0  0  0
   -2.3451    8.0799   -2.6012 H   0  0  0  0  0  0  0  0  0  0  0  0
   -1.6085    9.5632   -3.2968 H   0  0  0  0  0  0  0  0  0  0  0  0
   -0.6901    8.0195   -3.2968 H   0  0  0  0  0  0  0  0  0  0  0  0
    0.0045    7.7072    0.2113 H   0  0  0  0  0  0  0  0  0  0  0  0
   -0.5043    6.8332   -1.2733 H   0  0  0  0  0  0  0  0  0  0  0  0
    1.0118    7.7966   -1.2733 H   0  0  0  0  0  0  0  0  0  0  0  0
    0.1323   12.7563    0.3519 H   0  0  0  0  0  0  0  0  0  0  0  0
    1.5789   13.6061   -0.2899 H   0  0  0  0  0  0  0  0  0  0  0  0
   -0.0187   14.4272   -0.2899 H   0  0  0  0  0  0  0  0  0  0  0  0
   -1.6659   13.8848   -2.3432 H   0  0  0  0  0  0  0  0  0  0  0  0
   -0.1551   14.9560   -2.2790 H   0  0  0  0  0  0  0  0  0  0  0  0
   -1.0367   13.1361   -4.5361 H   0  0  0  0  0  0  0  0  0  0  0  0
   -0.9246   14.9401   -4.5189 H   0  0  0  0  0  0  0  0  0  0  0  0
    1.7005   15.2146   -2.9620 H   0  0  0  0  0  0  0  0  0  0  0  0
    2.7355   15.2209   -4.4301 H   0  0  0  0  0  0  0  0  0  0  0  0
    1.1715   16.1043   -4.4301 H   0  0  0  0  0  0  0  0  0  0  0  0
  1  2  1  0
  2  3  1  0
  3  4  1  0
  4  5  1  0
  5  6  1  0
  6  7  1  0
  7  8  1  0
  7  9  1  0
  2 10  1  0
 10 11  1  0
 11 12  1  0
 12 13  1  0
 13 14  1  1
 13 15  1  0
 15 16  1  0
 16 17  1  0
 17 18  2  0
 18 19  1  0
 19 20  1  0
 20 21  1  0
 21 22  1  0
 22 23  1  0
 22 24  1  0
 24 25  1  0
 24 26  1  0
 19 27  1  0
 27 28  1  1
 27 29  1  0
 29 30  1  0
 30 31  1  0
 31 32  1  1
  7  5  1  0
 31 10  1  0
 31 13  1  0
 27 15  1  0
 24 18  1  0
  1 33  1  0
  1 34  1  0
  1 35  1  0
  2 36  1  1
  3 37  1  0
  3 38  1  0
  4 39  1  0
  4 40  1  0
  5 41  1  6
  8 42  1  0
  8 43  1  0
  8 44  1  0
  9 45  1  0
  9 46  1  0
  9 47  1  0
 10 48  1  6
 11 49  1  0
 11 50  1  0
 12 51  1  0
 12 52  1  0
 14 53  1  0
 14 54  1  0
 14 55  1  0
 15 56  1  6
 16 57  1  0
 16 58  1  0
 17 59  1  0
 19 60  1  6
 20 61  1  0
 20 62  1  0
 21 63  1  0
 21 64  1  0
 22 65  1  1
 23 66  1  0
 25 67  1  0
 25 68  1  0
 25 69  1  0
 26 70  1  0
 26 71  1  0
 26 72  1  0
 28 73  1  0
 28 74  1  0
 28 75  1  0
 29 76  1  0
 29 77  1  0
 30 78  1  0
 30 79  1  0
 32 80  1  0
 32 81  1  0
 32 82  1  0
M  END
>  <meeko>  (12) 
{"is_sidechain": [false], "intermolecular_energy": 2.731, "internal_energy": -0.839}

$$$$
EPH_relaxed_0001_pdb2pqr_Repair_146_r2_0001_out
     RDKit          3D

 82 86  0  0  0  0  0  0  0  0999 V2000
   -0.5160    9.2680   -1.9130 C   0  0  0  0  0  0  0  0  0  0  0  0
    0.5790   10.1830   -2.4690 C   0  0  2  0  0  0  0  0  0  0  0  0
    1.9350    9.4600   -2.5890 C   0  0  0  0  0  0  0  0  0  0  0  0
    2.8310   10.0130   -3.7000 C   0  0  0  0  0  0  0  0  0  0  0  0
    4.1960   10.3630   -3.1880 C   0  0  2  0  0  0  0  0  0  0  0  0
    4.6440   11.6810   -3.5310 O   0  0  0  0  0  0  0  0  0  0  0  0
    5.3950   10.5900   -4.0900 C   0  0  0  0  0  0  0  0  0  0  0  0
    5.2850   10.4750   -5.5780 C   0  0  0  0  0  0  0  0  0  0  0  0
    6.7660   10.4420   -3.5090 C   0  0  0  0  0  0  0  0  0  0  0  0
    0.7230   11.4170   -1.5860 C   0  0  1  0  0  0  0  0  0  0  0  0
    1.8160   11.2480   -0.4970 C   0  0  0  0  0  0  0  0  0  0  0  0
    2.4760   12.6380   -0.3070 C   0  0  0  0  0  0  0  0  0  0  0  0
    1.5320   13.6210   -1.0370 C   0  0  1  0  0  0  0  0  0  0  0  0
    0.3740   13.8920   -0.0260 C   0  0  0  0  0  0  0  0  0  0  0  0
    2.1780   14.9520   -1.5450 C   0  0  2  0  0  0  0  0  0  0  0  0
    2.7460   15.8630   -0.4430 C   0  0  0  0  0  0  0  0  0  0  0  0
    1.7900   16.8670    0.1100 C   0  0  0  0  0  0  0  0  0  0  0  0
    0.6200   17.2250   -0.4510 C   0  0  0  0  0  0  0  0  0  0  0  0
    0.2000   16.6700   -1.8180 C   0  0  1  0  0  0  0  0  0  0  0  0
   -0.3190   17.8290   -2.7100 C   0  0  0  0  0  0  0  0  0  0  0  0
   -1.4300   18.6310   -2.0390 C   0  0  0  0  0  0  0  0  0  0  0  0
   -0.9560   19.2140   -0.7100 C   0  0  2  0  0  0  0  0  0  0  0  0
    0.0530   20.1940   -0.9720 O   0  0  0  0  0  0  0  0  0  0  0  0
   -0.4020   18.1410    0.2670 C   0  0  0  0  0  0  0  0  0  0  0  0
   -1.5640   17.2590    0.7860 C   0  0  0  0  0  0  0  0  0  0  0  0
    0.1720   18.8760    1.5080 C   0  0  0  0  0  0  0  0  0  0  0  0
    1.2750   15.7650   -2.5590 C   0  0  1  0  0  0  0  0  0  0  0  0
    2.2410   16.6610   -3.3940 C   0  0  0  0  0  0  0  0  0  0  0  0
    0.5380   14.8280   -3.5880 C   0  0  0  0  0  0  0  0  0  0  0  0
    0.0280   13.4760   -3.0540 C   0  0  0  0  0  0  0  0  0  0  0  0
    1.1260   12.7440   -2.2770 C   0  0  2  0  0  0  0  0  0  0  0  0
    2.2950   12.4380   -3.2740 C   0  0  0  0  0  0  0  0  0  0  0  0
   -0.4892    9.2904   -0.8136 H   0  0  0  0  0  0  0  0  0  0  0  0
   -1.4985    9.6174   -2.2630 H   0  0  0  0  0  0  0  0  0  0  0  0
   -0.3467    8.2390   -2.2630 H   0  0  0  0  0  0  0  0  0  0  0  0
    0.2752   10.4842   -3.4824 H   0  0  0  0  0  0  0  0  0  0  0  0
    2.4675    9.5594   -1.6316 H   0  0  0  0  0  0  0  0  0  0  0  0
    1.7190    8.4116   -2.8422 H   0  0  0  0  0  0  0  0  0  0  0  0
    2.9302    9.2534   -4.4894 H   0  0  0  0  0  0  0  0  0  0  0  0
    2.3659   10.9297   -4.0917 H   0  0  0  0  0  0  0  0  0  0  0  0
    4.0507    9.7312   -2.2993 H   0  0  0  0  0  0  0  0  0  0  0  0
    4.5453    9.7016   -5.8323 H   0  0  0  0  0  0  0  0  0  0  0  0
    4.9654   11.4402   -5.9977 H   0  0  0  0  0  0  0  0  0  0  0  0
    6.2635   10.1986   -5.9977 H   0  0  0  0  0  0  0  0  0  0  0  0
    6.7016   10.4490   -2.4109 H   0  0  0  0  0  0  0  0  0  0  0  0
    7.2057    9.4912   -3.8445 H   0  0  0  0  0  0  0  0  0  0  0  0
    7.3985   11.2771   -3.8445 H   0  0  0  0  0  0  0  0  0  0  0  0
   -0.3056   11.4904   -1.2032 H   0  0  0  0  0  0  0  0  0  0  0  0
    1.3617   10.9121    0.4468 H   0  0  0  0  0  0  0  0  0  0  0  0
    2.5597   10.4951   -0.7970 H   0  0  0  0  0  0  0  0  0  0  0  0
    2.5489   12.8905    0.7611 H   0  0  0  0  0  0  0  0  0  0  0  0
    3.5011   12.6709   -0.7047 H   0  0  0  0  0  0  0  0  0  0  0  0
    0.7560   13.8026    1.0016 H   0  0  0  0  0  0  0  0  0  0  0  0
   -0.0204   14.9067   -0.1836 H   0  0  0  0  0  0  0  0  0  0  0  0
   -0.4297   13.1577   -0.1836 H   0  0  0  0  0  0  0  0  0  0  0  0
    3.0485   14.5907   -2.1122 H   0  0  0  0  0  0  0  0  0  0  0  0
    3.0844   15.2236    0.3856 H   0  0  0  0  0  0  0  0  0  0  0  0
    3.5557   16.4405   -0.9130 H   0  0  0  0  0  0  0  0  0  0  0  0
    2.0649   17.3558    1.0563 H   0  0  0  0  0  0  0  0  0  0  0  0
   -0.6143   15.9576   -1.6196 H   0  0  0  0  0  0  0  0  0  0  0  0
    0.5194   18.5055   -2.9323 H   0  0  0  0  0  0  0  0  0  0  0  0
   -0.7346   17.3847   -3.6265 H   0  0  0  0  0  0  0  0  0  0  0  0
   -1.7334   19.4525   -2.7047 H   0  0  0  0  0  0  0  0  0  0  0  0
   -2.2794   17.9596   -1.8448 H   0  0  0  0  0  0  0  0  0  0  0  0
   -1.8296   19.6647   -0.2163 H   0  0  0  0  0  0  0  0  0  0  0  0
   -0.0700   20.5080   -1.8830 H   0  0  0  0  0  0  0  0  0  0  0  0
   -1.5623   17.2603    1.8860 H   0  0  0  0  0  0  0  0  0  0  0  0
   -2.5206   17.6605    0.4204 H   0  0  0  0  0  0  0  0  0  0  0  0
   -1.4346   16.2297    0.4204 H   0  0  0  0  0  0  0  0  0  0  0  0
   -0.2027   18.3962    2.4242 H   0  0  0  0  0  0  0  0  0  0  0  0
    1.2706   18.8235    1.4896 H   0  0  0  0  0  0  0  0  0  0  0  0
   -0.1451   19.9291    1.4896 H   0  0  0  0  0  0  0  0  0  0  0  0
    2.8751   17.2491   -2.7143 H   0  0  0  0  0  0  0  0  0  0  0  0
    2.8753   16.0244   -4.0283 H   0  0  0  0  0  0  0  0  0  0  0  0
    1.6538   17.3413   -4.0283 H   0  0  0  0  0  0  0  0  0  0  0  0
   -0.3294   15.3801   -3.9789 H   0  0  0  0  0  0  0  0  0  0  0  0
    1.2985   14.5721   -4.3404 H   0  0  0  0  0  0  0  0  0  0  0  0
   -0.8284   13.6527   -2.3866 H   0  0  0  0  0  0  0  0  0  0  0  0
   -0.2722   12.8521   -3.9087 H   0  0  0  0  0  0  0  0  0  0  0  0
    3.2071   12.1992   -2.7074 H   0  0  0  0  0  0  0  0  0  0  0  0
    2.0219   11.5811   -3.9073 H   0  0  0  0  0  0  0  0  0  0  0  0
    2.4768   13.3188   -3.9073 H   0  0  0  0  0  0  0  0  0  0  0  0
  1  2  1  0
  2  3  1  0
  3  4  1  0
  4  5  1  0
  5  6  1  0
  6  7  1  0
  7  8  1  0
  7  9  1  0
  2 10  1  0
 10 11  1  0
 11 12  1  0
 12 13  1  0
 13 14  1  1
 13 15  1  0
 15 16  1  0
 16 17  1  0
 17 18  2  0
 18 19  1  0
 19 20  1  0
 20 21  1  0
 21 22  1  0
 22 23  1  0
 22 24  1  0
 24 25  1  0
 24 26  1  0
 19 27  1  0
 27 28  1  6
 27 29  1  0
 29 30  1  0
 30 31  1  0
 31 32  1  6
  7  5  1  0
 31 10  1  0
 31 13  1  0
 27 15  1  0
 24 18  1  0
  1 33  1  0
  1 34  1  0
  1 35  1  0
  2 36  1  6
  3 37  1  0
  3 38  1  0
  4 39  1  0
  4 40  1  0
  5 41  1  1
  8 42  1  0
  8 43  1  0
  8 44  1  0
  9 45  1  0
  9 46  1  0
  9 47  1  0
 10 48  1  1
 11 49  1  0
 11 50  1  0
 12 51  1  0
 12 52  1  0
 14 53  1  0
 14 54  1  0
 14 55  1  0
 15 56  1  6
 16 57  1  0
 16 58  1  0
 17 59  1  0
 19 60  1  1
 20 61  1  0
 20 62  1  0
 21 63  1  0
 21 64  1  0
 22 65  1  1
 23 66  1  0
 25 67  1  0
 25 68  1  0
 25 69  1  0
 26 70  1  0
 26 71  1  0
 26 72  1  0
 28 73  1  0
 28 74  1  0
 28 75  1  0
 29 76  1  0
 29 77  1  0
 30 78  1  0
 30 79  1  0
 32 80  1  0
 32 81  1  0
 32 82  1  0
M  END
>  <meeko>  (13) 
{"is_sidechain": [false], "intermolecular_energy": 2.731, "internal_energy": -0.839}

$$$$
EPH_relaxed_0001_pdb2pqr_Repair_146_r2_0001_out
     RDKit          3D

 82 86  0  0  0  0  0  0  0  0999 V2000
   -2.1350    7.7850   -2.2580 C   0  0  0  0  0  0  0  0  0  0  0  0
   -2.2560    8.4320   -0.8750 C   0  0  2  0  0  0  0  0  0  0  0  0
   -3.7090    8.4300   -0.3580 C   0  0  0  0  0  0  0  0  0  0  0  0
   -4.5670    7.3020   -0.9380 C   0  0  0  0  0  0  0  0  0  0  0  0
   -6.0040    7.7080   -1.0660 C   0  0  2  0  0  0  0  0  0  0  0  0
   -6.9450    6.6390   -0.9010 O   0  0  0  0  0  0  0  0  0  0  0  0
   -6.9040    7.2540   -2.2000 C   0  0  0  0  0  0  0  0  0  0  0  0
   -6.3990    6.3530   -3.2830 C   0  0  0  0  0  0  0  0  0  0  0  0
   -8.1180    8.0680   -2.5200 C   0  0  0  0  0  0  0  0  0  0  0  0
   -1.7220    9.8590   -0.9210 C   0  0  1  0  0  0  0  0  0  0  0  0
   -1.2860   10.3780    0.4750 C   0  0  0  0  0  0  0  0  0  0  0  0
   -0.0590   11.2980    0.2470 C   0  0  0  0  0  0  0  0  0  0  0  0
   -0.0320   11.5420   -1.2800 C   0  0  1  0  0  0  0  0  0  0  0  0
   -1.0820   12.6710   -1.5230 C   0  0  0  0  0  0  0  0  0  0  0  0
    1.3580   11.9020   -1.8980 C   0  0  2  0  0  0  0  0  0  0  0  0
    1.9790   13.2130   -1.3860 C   0  0  0  0  0  0  0  0  0  0  0  0
    1.6280   14.4350   -2.1700 C   0  0  0  0  0  0  0  0  0  0  0  0
    1.0820   14.4440   -3.4000 C   0  0  0  0  0  0  0  0  0  0  0  0
    0.8520   13.1370   -4.1700 C   0  0  1  0  0  0  0  0  0  0  0  0
    1.3530   13.3000   -5.6290 C   0  0  0  0  0  0  0  0  0  0  0  0
    0.7350   14.5060   -6.3290 C   0  0  0  0  0  0  0  0  0  0  0  0
    1.0350   15.7930   -5.5650 C   0  0  2  0  0  0  0  0  0  0  0  0
    2.4410   16.0520   -5.6320 O   0  0  0  0  0  0  0  0  0  0  0  0
    0.5820   15.7430   -4.0790 C   0  0  0  0  0  0  0  0  0  0  0  0
   -0.9640   15.7660   -4.0050 C   0  0  0  0  0  0  0  0  0  0  0  0
    1.0700   17.0450   -3.3880 C   0  0  0  0  0  0  0  0  0  0  0  0
    1.4060   11.8180   -3.4780 C   0  0  1  0  0  0  0  0  0  0  0  0
    2.9000   11.6000   -3.8670 C   0  0  0  0  0  0  0  0  0  0  0  0
    0.6170   10.5750   -4.0350 C   0  0  0  0  0  0  0  0  0  0  0  0
   -0.6880   10.1960   -3.3070 C   0  0  0  0  0  0  0  0  0  0  0  0
   -0.4680   10.1210   -1.7930 C   0  0  2  0  0  0  0  0  0  0  0  0
    0.5670    8.9780   -1.5150 C   0  0  0  0  0  0  0  0  0  0  0  0
   -1.9339    6.7096   -2.1434 H   0  0  0  0  0  0  0  0  0  0  0  0
   -3.0749    7.9252   -2.8119 H   0  0  0  0  0  0  0  0  0  0  0  0
   -1.3093    8.2555   -2.8119 H   0  0  0  0  0  0  0  0  0  0  0  0
   -1.6557    7.8322   -0.1751 H   0  0  0  0  0  0  0  0  0  0  0  0
   -3.6880    8.3227    0.7366 H   0  0  0  0  0  0  0  0  0  0  0  0
   -4.1655    9.3783   -0.6780 H   0  0  0  0  0  0  0  0  0  0  0  0
   -4.1815    7.0368   -1.9335 H   0  0  0  0  0  0  0  0  0  0  0  0
   -4.5131    6.4433   -0.2527 H   0  0  0  0  0  0  0  0  0  0  0  0
   -5.7841    8.7032   -0.6523 H   0  0  0  0  0  0  0  0  0  0  0  0
   -5.9083    5.4776   -2.8326 H   0  0  0  0  0  0  0  0  0  0  0  0
   -7.2422    6.0205   -3.9062 H   0  0  0  0  0  0  0  0  0  0  0  0
   -5.6753    6.8987   -3.9062 H   0  0  0  0  0  0  0  0  0  0  0  0
   -8.5997    8.3910   -1.5853 H   0  0  0  0  0  0  0  0  0  0  0  0
   -7.8232    8.9517   -3.1050 H   0  0  0  0  0  0  0  0  0  0  0  0
   -8.8236    7.4597   -3.1050 H   0  0  0  0  0  0  0  0  0  0  0  0
   -2.5949   10.3694   -1.3541 H   0  0  0  0  0  0  0  0  0  0  0  0
   -2.1046   10.9467    0.9403 H   0  0  0  0  0  0  0  0  0  0  0  0
   -1.0346    9.5433    1.1458 H   0  0  0  0  0  0  0  0  0  0  0  0
   -0.1793   12.2472    0.7898 H   0  0  0  0  0  0  0  0  0  0  0  0
    0.8746   10.8464    0.6136 H   0  0  0  0  0  0  0  0  0  0  0  0
   -1.4386   13.0545   -0.5556 H   0  0  0  0  0  0  0  0  0  0  0  0
   -0.6160   13.4888   -2.0923 H   0  0  0  0  0  0  0  0  0  0  0  0
   -1.9314   12.2654   -2.0923 H   0  0  0  0  0  0  0  0  0  0  0  0
    2.0024   11.0966   -1.5158 H   0  0  0  0  0  0  0  0  0  0  0  0
    1.6431   13.3661   -0.3498 H   0  0  0  0  0  0  0  0  0  0  0  0
    3.0680   13.0918   -1.4833 H   0  0  0  0  0  0  0  0  0  0  0  0
    1.8330   15.4095   -1.7027 H   0  0  0  0  0  0  0  0  0  0  0  0
   -0.2351   12.9690   -4.1657 H   0  0  0  0  0  0  0  0  0  0  0  0
    2.4461   13.4226   -5.6147 H   0  0  0  0  0  0  0  0  0  0  0  0
    1.0534   12.4007   -6.1870 H   0  0  0  0  0  0  0  0  0  0  0  0
    1.1506   14.5849   -7.3444 H   0  0  0  0  0  0  0  0  0  0  0  0
   -0.3555   14.3678   -6.3695 H   0  0  0  0  0  0  0  0  0  0  0  0
    0.4597   16.6010   -6.0406 H   0  0  0  0  0  0  0  0  0  0  0  0
    2.6580   16.6790   -4.9210 H   0  0  0  0  0  0  0  0  0  0  0  0
   -1.2806   15.7707   -2.9516 H   0  0  0  0  0  0  0  0  0  0  0  0
   -1.3416   16.6699   -4.5054 H   0  0  0  0  0  0  0  0  0  0  0  0
   -1.3684   14.8738   -4.5054 H   0  0  0  0  0  0  0  0  0  0  0  0
    1.0233   16.9203   -2.2961 H   0  0  0  0  0  0  0  0  0  0  0  0
    2.1072   17.2533   -3.6892 H   0  0  0  0  0  0  0  0  0  0  0  0
    0.4252   17.8838   -3.6892 H   0  0  0  0  0  0  0  0  0  0  0  0
    3.5074   11.5114   -2.9542 H   0  0  0  0  0  0  0  0  0  0  0  0
    2.9937   10.6787   -4.4606 H   0  0  0  0  0  0  0  0  0  0  0  0
    3.2530   12.4561   -4.4606 H   0  0  0  0  0  0  0  0  0  0  0  0
    0.3635   10.7850   -5.0846 H   0  0  0  0  0  0  0  0  0  0  0  0
    1.2892    9.7172   -3.8855 H   0  0  0  0  0  0  0  0  0  0  0  0
   -1.4540   10.9555   -3.5223 H   0  0  0  0  0  0  0  0  0  0  0  0
   -1.0150    9.2082   -3.6637 H   0  0  0  0  0  0  0  0  0  0  0  0
    0.6857    8.8469   -0.4293 H   0  0  0  0  0  0  0  0  0  0  0  0
    0.2052    8.0395   -1.9603 H   0  0  0  0  0  0  0  0  0  0  0  0
    1.5367    9.2452   -1.9603 H   0  0  0  0  0  0  0  0  0  0  0  0
  1  2  1  0
  2  3  1  0
  3  4  1  0
  4  5  1  0
  5  6  1  0
  6  7  1  0
  7  8  1  0
  7  9  1  0
  2 10  1  0
 10 11  1  0
 11 12  1  0
 12 13  1  0
 13 14  1  1
 13 15  1  0
 15 16  1  0
 16 17  1  0
 17 18  2  0
 18 19  1  0
 19 20  1  0
 20 21  1  0
 21 22  1  0
 22 23  1  0
 22 24  1  0
 24 25  1  0
 24 26  1  0
 19 27  1  0
 27 28  1  1
 27 29  1  0
 29 30  1  0
 30 31  1  0
 31 32  1  6
  7  5  1  0
 31 10  1  0
 31 13  1  0
 27 15  1  0
 24 18  1  0
  1 33  1  0
  1 34  1  0
  1 35  1  0
  2 36  1  1
  3 37  1  0
  3 38  1  0
  4 39  1  0
  4 40  1  0
  5 41  1  1
  8 42  1  0
  8 43  1  0
  8 44  1  0
  9 45  1  0
  9 46  1  0
  9 47  1  0
 10 48  1  6
 11 49  1  0
 11 50  1  0
 12 51  1  0
 12 52  1  0
 14 53  1  0
 14 54  1  0
 14 55  1  0
 15 56  1  1
 16 57  1  0
 16 58  1  0
 17 59  1  0
 19 60  1  6
 20 61  1  0
 20 62  1  0
 21 63  1  0
 21 64  1  0
 22 65  1  6
 23 66  1  0
 25 67  1  0
 25 68  1  0
 25 69  1  0
 26 70  1  0
 26 71  1  0
 26 72  1  0
 28 73  1  0
 28 74  1  0
 28 75  1  0
 29 76  1  0
 29 77  1  0
 30 78  1  0
 30 79  1  0
 32 80  1  0
 32 81  1  0
 32 82  1  0
M  END
>  <meeko>  (14) 
{"is_sidechain": [false], "intermolecular_energy": 2.731, "internal_energy": -0.839}

$$$$
EPH_relaxed_0001_pdb2pqr_Repair_146_r2_0001_out
     RDKit          3D

 82 86  0  0  0  0  0  0  0  0999 V2000
    1.6670   10.7220   -4.7190 C   0  0  0  0  0  0  0  0  0  0  0  0
    0.8720   10.5360   -3.4240 C   0  0  2  0  0  0  0  0  0  0  0  0
   -0.2770    9.5210   -3.5890 C   0  0  0  0  0  0  0  0  0  0  0  0
   -0.2720    8.4090   -2.5370 C   0  0  0  0  0  0  0  0  0  0  0  0
    0.0450    8.9390   -1.1710 C   0  0  2  0  0  0  0  0  0  0  0  0
   -0.2860    8.0530   -0.0940 O   0  0  0  0  0  0  0  0  0  0  0  0
   -1.0150    9.2900   -0.1440 C   0  0  0  0  0  0  0  0  0  0  0  0
   -2.4730    9.1260   -0.4390 C   0  0  0  0  0  0  0  0  0  0  0  0
   -0.6590   10.2440    0.9540 C   0  0  0  0  0  0  0  0  0  0  0  0
    0.3190   11.8770   -2.9560 C   0  0  1  0  0  0  0  0  0  0  0  0
   -1.0590   11.7440   -2.2550 C   0  0  0  0  0  0  0  0  0  0  0  0
   -1.0950   12.8120   -1.1320 C   0  0  0  0  0  0  0  0  0  0  0  0
    0.1090   13.7350   -1.4340 C   0  0  1  0  0  0  0  0  0  0  0  0
   -0.3990   14.7050   -2.5460 C   0  0  0  0  0  0  0  0  0  0  0  0
    0.7040   14.5150   -0.2160 C   0  0  2  0  0  0  0  0  0  0  0  0
   -0.2590   15.5080    0.4570 C   0  0  0  0  0  0  0  0  0  0  0  0
   -0.2270   16.8970   -0.0890 C   0  0  0  0  0  0  0  0  0  0  0  0
    0.7370   17.4040   -0.8800 C   0  0  0  0  0  0  0  0  0  0  0  0
    1.9860   16.5830   -1.2250 C   0  0  1  0  0  0  0  0  0  0  0  0
    3.2500   17.4640   -1.0450 C   0  0  0  0  0  0  0  0  0  0  0  0
    3.1730   18.7670   -1.8340 C   0  0  0  0  0  0  0  0  0  0  0  0
    1.9490   19.5820   -1.4220 C   0  0  2  0  0  0  0  0  0  0  0  0
    2.1200   20.0190   -0.0700 O   0  0  0  0  0  0  0  0  0  0  0  0
    0.6160   18.7940   -1.5520 C   0  0  0  0  0  0  0  0  0  0  0  0
    0.2800   18.5830   -3.0490 C   0  0  0  0  0  0  0  0  0  0  0  0
   -0.5200   19.6800   -0.9730 C   0  0  0  0  0  0  0  0  0  0  0  0
    2.1140   15.1760   -0.4960 C   0  0  1  0  0  0  0  0  0  0  0  0
    2.8050   15.3560    0.8900 C   0  0  0  0  0  0  0  0  0  0  0  0
    3.0550   14.2420   -1.3450 C   0  0  0  0  0  0  0  0  0  0  0  0
    2.3890   13.4080   -2.4550 C   0  0  0  0  0  0  0  0  0  0  0  0
    1.1570   12.6700   -1.9220 C   0  0  2  0  0  0  0  0  0  0  0  0
    1.6390   11.6700   -0.8160 C   0  0  0  0  0  0  0  0  0  0  0  0
    2.7116   10.9664   -4.4761 H   0  0  0  0  0  0  0  0  0  0  0  0
    1.6349    9.7921   -5.3057 H   0  0  0  0  0  0  0  0  0  0  0  0
    1.2257   11.5412   -5.3057 H   0  0  0  0  0  0  0  0  0  0  0  0
    1.5617   10.1340   -2.6672 H   0  0  0  0  0  0  0  0  0  0  0  0
   -1.2317   10.0626   -3.5172 H   0  0  0  0  0  0  0  0  0  0  0  0
   -0.1409    9.0379   -4.5678 H   0  0  0  0  0  0  0  0  0  0  0  0
   -1.2646    7.9356   -2.5141 H   0  0  0  0  0  0  0  0  0  0  0  0
    0.5058    7.6812   -2.8113 H   0  0  0  0  0  0  0  0  0  0  0  0
    0.9076    9.4986   -1.5619 H   0  0  0  0  0  0  0  0  0  0  0  0
   -3.0334    9.0630    0.5055 H   0  0  0  0  0  0  0  0  0  0  0  0
   -2.8290    9.9898   -1.0196 H   0  0  0  0  0  0  0  0  0  0  0  0
   -2.6283    8.2047   -1.0196 H   0  0  0  0  0  0  0  0  0  0  0  0
   -0.8377    9.7652    1.9281 H   0  0  0  0  0  0  0  0  0  0  0  0
    0.4026   10.5198    0.8703 H   0  0  0  0  0  0  0  0  0  0  0  0
   -1.2804   11.1478    0.8703 H   0  0  0  0  0  0  0  0  0  0  0  0
    0.3004   12.4134   -3.9162 H   0  0  0  0  0  0  0  0  0  0  0  0
   -1.8697   11.9251   -2.9760 H   0  0  0  0  0  0  0  0  0  0  0  0
   -1.1965   10.7333   -1.8431 H   0  0  0  0  0  0  0  0  0  0  0  0
   -2.0371   13.3789   -1.1651 H   0  0  0  0  0  0  0  0  0  0  0  0
   -1.0371   12.3650   -0.1286 H   0  0  0  0  0  0  0  0  0  0  0  0
   -0.8612   15.5875   -2.0796 H   0  0  0  0  0  0  0  0  0  0  0  0
    0.4487   15.0223   -3.1711 H   0  0  0  0  0  0  0  0  0  0  0  0
   -1.1426   14.1889   -3.1711 H   0  0  0  0  0  0  0  0  0  0  0  0
    0.8677   13.7137    0.5196 H   0  0  0  0  0  0  0  0  0  0  0  0
   -1.2821   15.1208    0.3413 H   0  0  0  0  0  0  0  0  0  0  0  0
    0.0669   15.5853    1.5048 H   0  0  0  0  0  0  0  0  0  0  0  0
   -1.0615   17.5623    0.1775 H   0  0  0  0  0  0  0  0  0  0  0  0
    1.8788   16.2948   -2.2812 H   0  0  0  0  0  0  0  0  0  0  0  0
    3.3629   17.7045    0.0224 H   0  0  0  0  0  0  0  0  0  0  0  0
    4.1106   16.8942   -1.4253 H   0  0  0  0  0  0  0  0  0  0  0  0
    4.0806   19.3583   -1.6423 H   0  0  0  0  0  0  0  0  0  0  0  0
    3.0906   18.5256   -2.9040 H   0  0  0  0  0  0  0  0  0  0  0  0
    1.8755   20.4374   -2.1097 H   0  0  0  0  0  0  0  0  0  0  0  0
    1.9330   19.2620    0.5100 H   0  0  0  0  0  0  0  0  0  0  0  0
   -0.6485   17.9999   -3.1377 H   0  0  0  0  0  0  0  0  0  0  0  0
    0.1473   19.5602   -3.5363 H   0  0  0  0  0  0  0  0  0  0  0  0
    1.1026   18.0390   -3.5363 H   0  0  0  0  0  0  0  0  0  0  0  0
   -0.4833   19.6514    0.1260 H   0  0  0  0  0  0  0  0  0  0  0  0
   -0.3884   20.7164   -1.3174 H   0  0  0  0  0  0  0  0  0  0  0  0
   -1.4931   19.2999   -1.3174 H   0  0  0  0  0  0  0  0  0  0  0  0
    2.0753   15.1659    1.6909 H   0  0  0  0  0  0  0  0  0  0  0  0
    3.6400   14.6454    0.9785 H   0  0  0  0  0  0  0  0  0  0  0  0
    3.1872   16.3837    0.9785 H   0  0  0  0  0  0  0  0  0  0  0  0
    3.8162   14.8791   -1.8190 H   0  0  0  0  0  0  0  0  0  0  0  0
    3.4499   13.5054   -0.6298 H   0  0  0  0  0  0  0  0  0  0  0  0
    2.0820   14.0769   -3.2726 H   0  0  0  0  0  0  0  0  0  0  0  0
    3.1138   12.6642   -2.8176 H   0  0  0  0  0  0  0  0  0  0  0  0
    1.4340   12.0954    0.1775 H   0  0  0  0  0  0  0  0  0  0  0  0
    1.1016   10.7164   -0.9246 H   0  0  0  0  0  0  0  0  0  0  0  0
    2.7198   11.4963   -0.9246 H   0  0  0  0  0  0  0  0  0  0  0  0
  1  2  1  0
  2  3  1  0
  3  4  1  0
  4  5  1  0
  5  6  1  0
  6  7  1  0
  7  8  1  0
  7  9  1  0
  2 10  1  0
 10 11  1  0
 11 12  1  0
 12 13  1  0
 13 14  1  6
 13 15  1  0
 15 16  1  0
 16 17  1  0
 17 18  2  0
 18 19  1  0
 19 20  1  0
 20 21  1  0
 21 22  1  0
 22 23  1  0
 22 24  1  0
 24 25  1  0
 24 26  1  0
 19 27  1  0
 27 28  1  1
 27 29  1  0
 29 30  1  0
 30 31  1  0
 31 32  1  1
  7  5  1  0
 31 10  1  0
 31 13  1  0
 27 15  1  0
 24 18  1  0
  1 33  1  0
  1 34  1  0
  1 35  1  0
  2 36  1  1
  3 37  1  0
  3 38  1  0
  4 39  1  0
  4 40  1  0
  5 41  1  6
  8 42  1  0
  8 43  1  0
  8 44  1  0
  9 45  1  0
  9 46  1  0
  9 47  1  0
 10 48  1  6
 11 49  1  0
 11 50  1  0
 12 51  1  0
 12 52  1  0
 14 53  1  0
 14 54  1  0
 14 55  1  0
 15 56  1  1
 16 57  1  0
 16 58  1  0
 17 59  1  0
 19 60  1  6
 20 61  1  0
 20 62  1  0
 21 63  1  0
 21 64  1  0
 22 65  1  6
 23 66  1  0
 25 67  1  0
 25 68  1  0
 25 69  1  0
 26 70  1  0
 26 71  1  0
 26 72  1  0
 28 73  1  0
 28 74  1  0
 28 75  1  0
 29 76  1  0
 29 77  1  0
 30 78  1  0
 30 79  1  0
 32 80  1  0
 32 81  1  0
 32 82  1  0
M  END
>  <meeko>  (15) 
{"is_sidechain": [false], "intermolecular_energy": 2.731, "internal_energy": -0.839}

$$$$
EPH_relaxed_0001_pdb2pqr_Repair_146_r2_0001_out
     RDKit          3D

 82 86  0  0  0  0  0  0  0  0999 V2000
   -0.6010   19.5600   -2.1940 C   0  0  0  0  0  0  0  0  0  0  0  0
   -0.3700   18.5640   -1.0540 C   0  0  2  0  0  0  0  0  0  0  0  0
    0.5460   19.1400    0.0440 C   0  0  0  0  0  0  0  0  0  0  0  0
    1.6400   20.0680   -0.4920 C   0  0  0  0  0  0  0  0  0  0  0  0
    2.9410   19.8620    0.2240 C   0  0  2  0  0  0  0  0  0  0  0  0
    3.0040   18.6720    1.0210 O   0  0  0  0  0  0  0  0  0  0  0  0
    3.0830   19.9180    1.7340 C   0  0  0  0  0  0  0  0  0  0  0  0
    1.9070   20.1880    2.6190 C   0  0  0  0  0  0  0  0  0  0  0  0
    4.4350   20.1940    2.3150 C   0  0  0  0  0  0  0  0  0  0  0  0
    0.2240   17.2730   -1.6040 C   0  0  1  0  0  0  0  0  0  0  0  0
    1.6110   17.4890   -2.2670 C   0  0  0  0  0  0  0  0  0  0  0  0
    2.4490   16.2180   -1.9740 C   0  0  0  0  0  0  0  0  0  0  0  0
    1.4240   15.1870   -1.4490 C   0  0  1  0  0  0  0  0  0  0  0  0
    0.7510   14.6010   -2.7300 C   0  0  0  0  0  0  0  0  0  0  0  0
    1.9890   14.0580   -0.5270 C   0  0  2  0  0  0  0  0  0  0  0  0
    3.0190   13.1270   -1.1910 C   0  0  0  0  0  0  0  0  0  0  0  0
    2.4500   11.9150   -1.8510 C   0  0  0  0  0  0  0  0  0  0  0  0
    1.2050   11.4370   -1.6690 C   0  0  0  0  0  0  0  0  0  0  0  0
    0.2570   12.0760   -0.6460 C   0  0  1  0  0  0  0  0  0  0  0  0
   -0.4140   10.9660    0.2030 C   0  0  0  0  0  0  0  0  0  0  0  0
   -1.1070    9.9110   -0.6540 C   0  0  0  0  0  0  0  0  0  0  0  0
   -0.1190    9.2570   -1.6170 C   0  0  2  0  0  0  0  0  0  0  0  0
    0.8310    8.5010   -0.8600 O   0  0  0  0  0  0  0  0  0  0  0  0
    0.6250   10.2800   -2.5200 C   0  0  0  0  0  0  0  0  0  0  0  0
   -0.3630   10.8810   -3.5490 C   0  0  0  0  0  0  0  0  0  0  0  0
    1.6900    9.5050   -3.3420 C   0  0  0  0  0  0  0  0  0  0  0  0
    0.8790   13.2350    0.2460 C   0  0  1  0  0  0  0  0  0  0  0  0
    1.5720   12.6250    1.5030 C   0  0  0  0  0  0  0  0  0  0  0  0
   -0.2830   14.1530    0.7800 C   0  0  0  0  0  0  0  0  0  0  0  0
   -0.7150   15.3230   -0.1240 C   0  0  0  0  0  0  0  0  0  0  0  0
    0.4990   16.1300   -0.5960 C   0  0  2  0  0  0  0  0  0  0  0  0
    1.1830   16.7490    0.6700 C   0  0  0  0  0  0  0  0  0  0  0  0
   -0.8307   20.5506   -1.7745 H   0  0  0  0  0  0  0  0  0  0  0  0
    0.3058   19.6254   -2.8132 H   0  0  0  0  0  0  0  0  0  0  0  0
   -1.4440   19.2195   -2.8132 H   0  0  0  0  0  0  0  0  0  0  0  0
   -1.3470   18.3566   -0.5930 H   0  0  0  0  0  0  0  0  0  0  0  0
   -0.0753   19.7081    0.7520 H   0  0  0  0  0  0  0  0  0  0  0  0
    1.0522   18.2876    0.5206 H   0  0  0  0  0  0  0  0  0  0  0  0
    1.7865   19.8651   -1.5632 H   0  0  0  0  0  0  0  0  0  0  0  0
    1.3190   21.1073   -0.3282 H   0  0  0  0  0  0  0  0  0  0  0  0
    3.4933   20.3580   -0.5878 H   0  0  0  0  0  0  0  0  0  0  0  0
    2.2167   20.1169    3.6721 H   0  0  0  0  0  0  0  0  0  0  0  0
    1.5209   21.1982    2.4177 H   0  0  0  0  0  0  0  0  0  0  0  0
    1.1189   19.4474    2.4177 H   0  0  0  0  0  0  0  0  0  0  0  0
    4.3718   20.1811    3.4131 H   0  0  0  0  0  0  0  0  0  0  0  0
    5.1429   19.4218    1.9794 H   0  0  0  0  0  0  0  0  0  0  0  0
    4.7836   21.1818    1.9794 H   0  0  0  0  0  0  0  0  0  0  0  0
   -0.5805   16.9798   -2.2946 H   0  0  0  0  0  0  0  0  0  0  0  0
    1.4951   17.6245   -3.3525 H   0  0  0  0  0  0  0  0  0  0  0  0
    2.1039   18.3879   -1.8683 H   0  0  0  0  0  0  0  0  0  0  0  0
    2.9328   15.8519   -2.8916 H   0  0  0  0  0  0  0  0  0  0  0  0
    3.2564   16.4083   -1.2516 H   0  0  0  0  0  0  0  0  0  0  0  0
   -0.0488   13.9046   -2.4381 H   0  0  0  0  0  0  0  0  0  0  0  0
    0.3240   15.4201   -3.3273 H   0  0  0  0  0  0  0  0  0  0  0  0
    1.5036   14.0654   -3.3273 H   0  0  0  0  0  0  0  0  0  0  0  0
    2.5470   14.6293    0.2295 H   0  0  0  0  0  0  0  0  0  0  0  0
    3.5598   13.7070   -1.9533 H   0  0  0  0  0  0  0  0  0  0  0  0
    3.6633   12.7577   -0.3796 H   0  0  0  0  0  0  0  0  0  0  0  0
    3.1036   11.3660   -2.5449 H   0  0  0  0  0  0  0  0  0  0  0  0
   -0.5062   12.6099   -1.2313 H   0  0  0  0  0  0  0  0  0  0  0  0
    0.3579   10.4735    0.8126 H   0  0  0  0  0  0  0  0  0  0  0  0
   -1.1817   11.4436    0.8295 H   0  0  0  0  0  0  0  0  0  0  0  0
   -1.5356    9.1388    0.0018 H   0  0  0  0  0  0  0  0  0  0  0  0
   -1.8990   10.3993   -1.2407 H   0  0  0  0  0  0  0  0  0  0  0  0
   -0.6962    8.6070   -2.2910 H   0  0  0  0  0  0  0  0  0  0  0  0
    0.5790    8.5660    0.0770 H   0  0  0  0  0  0  0  0  0  0  0  0
   -1.1860   11.3816   -3.0180 H   0  0  0  0  0  0  0  0  0  0  0  0
    0.1642   11.6115   -4.1801 H   0  0  0  0  0  0  0  0  0  0  0  0
   -0.7693   10.0769   -4.1801 H   0  0  0  0  0  0  0  0  0  0  0  0
    2.3855    8.9989   -2.6563 H   0  0  0  0  0  0  0  0  0  0  0  0
    1.1911    8.7573   -3.9760 H   0  0  0  0  0  0  0  0  0  0  0  0
    2.2480   10.2097   -3.9760 H   0  0  0  0  0  0  0  0  0  0  0  0
    1.1075   13.0339    2.4124 H   0  0  0  0  0  0  0  0  0  0  0  0
    1.4552   11.5313    1.4916 H   0  0  0  0  0  0  0  0  0  0  0  0
    2.6421   12.8796    1.4916 H   0  0  0  0  0  0  0  0  0  0  0  0
   -1.1640   13.5145    0.9416 H   0  0  0  0  0  0  0  0  0  0  0  0
    0.1176   14.6246    1.6894 H   0  0  0  0  0  0  0  0  0  0  0  0
   -1.2443   14.9231   -1.0015 H   0  0  0  0  0  0  0  0  0  0  0  0
   -1.3741   15.9875    0.4540 H   0  0  0  0  0  0  0  0  0  0  0  0
    0.7216   16.3315    1.5771 H   0  0  0  0  0  0  0  0  0  0  0  0
    2.2565   16.5092    0.6610 H   0  0  0  0  0  0  0  0  0  0  0  0
    1.0512   17.8410    0.6610 H   0  0  0  0  0  0  0  0  0  0  0  0
  1  2  1  0
  2  3  1  0
  3  4  1  0
  4  5  1  0
  5  6  1  0
  6  7  1  0
  7  8  1  0
  7  9  1  0
  2 10  1  0
 10 11  1  0
 11 12  1  0
 12 13  1  0
 13 14  1  6
 13 15  1  0
 15 16  1  0
 16 17  1  0
 17 18  2  0
 18 19  1  0
 19 20  1  0
 20 21  1  0
 21 22  1  0
 22 23  1  0
 22 24  1  0
 24 25  1  0
 24 26  1  0
 19 27  1  0
 27 28  1  1
 27 29  1  0
 29 30  1  0
 30 31  1  0
 31 32  1  1
  7  5  1  0
 31 10  1  0
 31 13  1  0
 27 15  1  0
 24 18  1  0
  1 33  1  0
  1 34  1  0
  1 35  1  0
  2 36  1  1
  3 37  1  0
  3 38  1  0
  4 39  1  0
  4 40  1  0
  5 41  1  6
  8 42  1  0
  8 43  1  0
  8 44  1  0
  9 45  1  0
  9 46  1  0
  9 47  1  0
 10 48  1  6
 11 49  1  0
 11 50  1  0
 12 51  1  0
 12 52  1  0
 14 53  1  0
 14 54  1  0
 14 55  1  0
 15 56  1  1
 16 57  1  0
 16 58  1  0
 17 59  1  0
 19 60  1  6
 20 61  1  0
 20 62  1  0
 21 63  1  0
 21 64  1  0
 22 65  1  6
 23 66  1  0
 25 67  1  0
 25 68  1  0
 25 69  1  0
 26 70  1  0
 26 71  1  0
 26 72  1  0
 28 73  1  0
 28 74  1  0
 28 75  1  0
 29 76  1  0
 29 77  1  0
 30 78  1  0
 30 79  1  0
 32 80  1  0
 32 81  1  0
 32 82  1  0
M  END
>  <meeko>  (16) 
{"is_sidechain": [false], "intermolecular_energy": 2.731, "internal_energy": -0.839}

$$$$
EPH_relaxed_0001_pdb2pqr_Repair_146_r2_0001_out
     RDKit          3D

 82 86  0  0  0  0  0  0  0  0999 V2000
    0.9020   14.8920   -2.6220 C   0  0  0  0  0  0  0  0  0  0  0  0
    1.1720   14.2180   -3.9700 C   0  0  2  0  0  0  0  0  0  0  0  0
    0.4750   14.9490   -5.1350 C   0  0  0  0  0  0  0  0  0  0  0  0
    1.0480   14.6000   -6.5110 C   0  0  0  0  0  0  0  0  0  0  0  0
    0.8170   15.7010   -7.5030 C   0  0  2  0  0  0  0  0  0  0  0  0
    0.3870   15.2600   -8.7970 O   0  0  0  0  0  0  0  0  0  0  0  0
    1.6700   15.9030   -8.7410 C   0  0  0  0  0  0  0  0  0  0  0  0
    2.8200   14.9970   -9.0540 C   0  0  0  0  0  0  0  0  0  0  0  0
    1.6940   17.2570   -9.3790 C   0  0  0  0  0  0  0  0  0  0  0  0
    0.7200   12.7630   -3.9230 C   0  0  1  0  0  0  0  0  0  0  0  0
    1.8510   11.7740   -4.3120 C   0  0  0  0  0  0  0  0  0  0  0  0
    1.6520   10.5040   -3.4440 C   0  0  0  0  0  0  0  0  0  0  0  0
    0.2390   10.6650   -2.8350 C   0  0  1  0  0  0  0  0  0  0  0  0
   -0.7380   10.2030   -3.9610 C   0  0  0  0  0  0  0  0  0  0  0  0
   -0.0250    9.9070   -1.4940 C   0  0  2  0  0  0  0  0  0  0  0  0
    0.0780    8.3750   -1.5790 C   0  0  0  0  0  0  0  0  0  0  0  0
   -1.1950    7.6670   -1.9040 C   0  0  0  0  0  0  0  0  0  0  0  0
   -2.4280    8.2040   -1.8400 C   0  0  0  0  0  0  0  0  0  0  0  0
   -2.6390    9.6290   -1.3120 C   0  0  1  0  0  0  0  0  0  0  0  0
   -3.8170    9.6380   -0.3030 C   0  0  0  0  0  0  0  0  0  0  0  0
   -5.0920    9.0370   -0.8880 C   0  0  0  0  0  0  0  0  0  0  0  0
   -4.8570    7.6010   -1.3490 C   0  0  2  0  0  0  0  0  0  0  0  0
   -4.5980    6.7860   -0.2020 O   0  0  0  0  0  0  0  0  0  0  0  0
   -3.6850    7.4660   -2.3610 C   0  0  0  0  0  0  0  0  0  0  0  0
   -4.0930    8.0970   -3.7160 C   0  0  0  0  0  0  0  0  0  0  0  0
   -3.4630    5.9540   -2.6360 C   0  0  0  0  0  0  0  0  0  0  0  0
   -1.3450   10.3570   -0.7450 C   0  0  1  0  0  0  0  0  0  0  0  0
   -1.1480    9.9960    0.7590 C   0  0  0  0  0  0  0  0  0  0  0  0
   -1.5650   11.9150   -0.8030 C   0  0  0  0  0  0  0  0  0  0  0  0
   -1.1720   12.6240   -2.1130 C   0  0  0  0  0  0  0  0  0  0  0  0
    0.2350   12.2130   -2.5590 C   0  0  2  0  0  0  0  0  0  0  0  0
    1.2420   12.6850   -1.4560 C   0  0  0  0  0  0  0  0  0  0  0  0
    1.1769   14.2058   -1.8074 H   0  0  0  0  0  0  0  0  0  0  0  0
    1.5013   15.8112   -2.5451 H   0  0  0  0  0  0  0  0  0  0  0  0
   -0.1662   15.1432   -2.5451 H   0  0  0  0  0  0  0  0  0  0  0  0
    2.2557   14.2651   -4.1524 H   0  0  0  0  0  0  0  0  0  0  0  0
   -0.5917   14.6807   -5.1248 H   0  0  0  0  0  0  0  0  0  0  0  0
    0.6383   16.0261   -4.9824 H   0  0  0  0  0  0  0  0  0  0  0  0
    2.1303   14.4290   -6.4137 H   0  0  0  0  0  0  0  0  0  0  0  0
    0.5377   13.6965   -6.8761 H   0  0  0  0  0  0  0  0  0  0  0  0
    0.5023   16.3878   -6.7035 H   0  0  0  0  0  0  0  0  0  0  0  0
    3.2720   14.6409   -8.1165 H   0  0  0  0  0  0  0  0  0  0  0  0
    2.4607   14.1367   -9.6377 H   0  0  0  0  0  0  0  0  0  0  0  0
    3.5723   15.5477   -9.6377 H   0  0  0  0  0  0  0  0  0  0  0  0
    1.7077   18.0306   -8.5971 H   0  0  0  0  0  0  0  0  0  0  0  0
    2.5940   17.3518  -10.0044 H   0  0  0  0  0  0  0  0  0  0  0  0
    0.7980   17.3836  -10.0044 H   0  0  0  0  0  0  0  0  0  0  0  0
   -0.1209   12.8077   -4.6307 H   0  0  0  0  0  0  0  0  0  0  0  0
    1.7802   11.5183   -5.3795 H   0  0  0  0  0  0  0  0  0  0  0  0
    2.8420   12.2192   -4.1397 H   0  0  0  0  0  0  0  0  0  0  0  0
    1.7065    9.5972   -4.0643 H   0  0  0  0  0  0  0  0  0  0  0  0
    2.4293   10.3999   -2.6727 H   0  0  0  0  0  0  0  0  0  0  0  0
   -1.6439    9.7746   -3.5074 H   0  0  0  0  0  0  0  0  0  0  0  0
   -1.0133   11.0663   -4.5846 H   0  0  0  0  0  0  0  0  0  0  0  0
   -0.2454    9.4424   -4.5846 H   0  0  0  0  0  0  0  0  0  0  0  0
    0.8222   10.2285   -0.8704 H   0  0  0  0  0  0  0  0  0  0  0  0
    0.8135    8.1266   -2.3583 H   0  0  0  0  0  0  0  0  0  0  0  0
    0.3679    8.0335   -0.5743 H   0  0  0  0  0  0  0  0  0  0  0  0
   -1.1195    6.6170   -2.2230 H   0  0  0  0  0  0  0  0  0  0  0  0
   -2.8931   10.2434   -2.1883 H   0  0  0  0  0  0  0  0  0  0  0  0
   -3.5267    9.0550    0.5835 H   0  0  0  0  0  0  0  0  0  0  0  0
   -4.0290   10.6863   -0.0459 H   0  0  0  0  0  0  0  0  0  0  0  0
   -5.8788    9.0440   -0.1193 H   0  0  0  0  0  0  0  0  0  0  0  0
   -5.3972    9.6389   -1.7566 H   0  0  0  0  0  0  0  0  0  0  0  0
   -5.7648    7.2706   -1.8751 H   0  0  0  0  0  0  0  0  0  0  0  0
   -5.3910    6.2460   -0.0400 H   0  0  0  0  0  0  0  0  0  0  0  0
   -4.6820    9.0079   -3.5337 H   0  0  0  0  0  0  0  0  0  0  0  0
   -3.1891    8.3532   -4.2881 H   0  0  0  0  0  0  0  0  0  0  0  0
   -4.6975    7.3778   -4.2881 H   0  0  0  0  0  0  0  0  0  0  0  0
   -3.3839    5.4152   -1.6802 H   0  0  0  0  0  0  0  0  0  0  0  0
   -4.3125    5.5573   -3.2113 H   0  0  0  0  0  0  0  0  0  0  0  0
   -2.5353    5.8183   -3.2113 H   0  0  0  0  0  0  0  0  0  0  0  0
   -1.5809   10.7892    1.3862 H   0  0  0  0  0  0  0  0  0  0  0  0
   -1.6505    9.0418    0.9759 H   0  0  0  0  0  0  0  0  0  0  0  0
   -0.0737    9.9023    0.9759 H   0  0  0  0  0  0  0  0  0  0  0  0
   -2.6340   12.1068   -0.6286 H   0  0  0  0  0  0  0  0  0  0  0  0
   -0.8914   12.3293   -0.0384 H   0  0  0  0  0  0  0  0  0  0  0  0
   -1.8921   12.3526   -2.8990 H   0  0  0  0  0  0  0  0  0  0  0  0
   -1.1815   13.7103   -1.9401 H   0  0  0  0  0  0  0  0  0  0  0  0
    0.8165   12.4855   -0.4615 H   0  0  0  0  0  0  0  0  0  0  0  0
    2.1895   12.1372   -1.5660 H   0  0  0  0  0  0  0  0  0  0  0  0
    1.4272   13.7637   -1.5660 H   0  0  0  0  0  0  0  0  0  0  0  0
  1  2  1  0
  2  3  1  0
  3  4  1  0
  4  5  1  0
  5  6  1  0
  6  7  1  0
  7  8  1  0
  7  9  1  0
  2 10  1  0
 10 11  1  0
 11 12  1  0
 12 13  1  0
 13 14  1  6
 13 15  1  0
 15 16  1  0
 16 17  1  0
 17 18  2  0
 18 19  1  0
 19 20  1  0
 20 21  1  0
 21 22  1  0
 22 23  1  0
 22 24  1  0
 24 25  1  0
 24 26  1  0
 19 27  1  0
 27 28  1  1
 27 29  1  0
 29 30  1  0
 30 31  1  0
 31 32  1  1
  7  5  1  0
 31 10  1  0
 31 13  1  0
 27 15  1  0
 24 18  1  0
  1 33  1  0
  1 34  1  0
  1 35  1  0
  2 36  1  6
  3 37  1  0
  3 38  1  0
  4 39  1  0
  4 40  1  0
  5 41  1  1
  8 42  1  0
  8 43  1  0
  8 44  1  0
  9 45  1  0
  9 46  1  0
  9 47  1  0
 10 48  1  6
 11 49  1  0
 11 50  1  0
 12 51  1  0
 12 52  1  0
 14 53  1  0
 14 54  1  0
 14 55  1  0
 15 56  1  1
 16 57  1  0
 16 58  1  0
 17 59  1  0
 19 60  1  6
 20 61  1  0
 20 62  1  0
 21 63  1  0
 21 64  1  0
 22 65  1  6
 23 66  1  0
 25 67  1  0
 25 68  1  0
 25 69  1  0
 26 70  1  0
 26 71  1  0
 26 72  1  0
 28 73  1  0
 28 74  1  0
 28 75  1  0
 29 76  1  0
 29 77  1  0
 30 78  1  0
 30 79  1  0
 32 80  1  0
 32 81  1  0
 32 82  1  0
M  END
>  <meeko>  (17) 
{"is_sidechain": [false], "intermolecular_energy": 2.731, "internal_energy": -0.839}

$$$$
EPH_relaxed_0001_pdb2pqr_Repair_146_r2_0001_out
     RDKit          3D

 82 86  0  0  0  0  0  0  0  0999 V2000
    2.6100   16.2190   -7.4470 C   0  0  0  0  0  0  0  0  0  0  0  0
    1.4300   15.2560   -7.2960 C   0  0  2  0  0  0  0  0  0  0  0  0
    0.1990   15.7150   -8.1030 C   0  0  0  0  0  0  0  0  0  0  0  0
    0.5500   16.3830   -9.4350 C   0  0  0  0  0  0  0  0  0  0  0  0
    1.9430   16.0470   -9.8730 C   0  0  2  0  0  0  0  0  0  0  0  0
    2.3110   16.5740  -11.1550 O   0  0  0  0  0  0  0  0  0  0  0  0
    2.2540   15.1420  -11.0510 C   0  0  0  0  0  0  0  0  0  0  0  0
    1.1640   14.5160  -11.8630 C   0  0  0  0  0  0  0  0  0  0  0  0
    3.5950   14.4790  -11.1100 C   0  0  0  0  0  0  0  0  0  0  0  0
    1.0630   15.1100   -5.8240 C   0  0  1  0  0  0  0  0  0  0  0  0
   -0.2380   15.8700   -5.4540 C   0  0  0  0  0  0  0  0  0  0  0  0
   -0.9600   15.0240   -4.3740 C   0  0  0  0  0  0  0  0  0  0  0  0
    0.0960   13.9880   -3.9210 C   0  0  1  0  0  0  0  0  0  0  0  0
    0.9950   14.7530   -2.9000 C   0  0  0  0  0  0  0  0  0  0  0  0
   -0.4580   12.6560   -3.3180 C   0  0  2  0  0  0  0  0  0  0  0  0
   -1.2780   12.8160   -2.0260 C   0  0  0  0  0  0  0  0  0  0  0  0
   -0.4930   12.7360   -0.7580 C   0  0  0  0  0  0  0  0  0  0  0  0
    0.7610   12.2630   -0.6440 C   0  0  0  0  0  0  0  0  0  0  0  0
    1.4860   11.6520   -1.8500 C   0  0  1  0  0  0  0  0  0  0  0  0
    2.1580   10.3190   -1.4300 C   0  0  0  0  0  0  0  0  0  0  0  0
    3.0730   10.4800   -0.2200 C   0  0  0  0  0  0  0  0  0  0  0  0
    2.3030   11.0350    0.9760 C   0  0  2  0  0  0  0  0  0  0  0  0
    1.3510   10.0570    1.4050 O   0  0  0  0  0  0  0  0  0  0  0  0
    1.5760   12.3740    0.6690 C   0  0  0  0  0  0  0  0  0  0  0  0
    2.6190   13.5060    0.5000 C   0  0  0  0  0  0  0  0  0  0  0  0
    0.7240   12.7500    1.9110 C   0  0  0  0  0  0  0  0  0  0  0  0
    0.6240   11.5100   -3.1770 C   0  0  1  0  0  0  0  0  0  0  0  0
   -0.1570   10.1600   -3.1620 C   0  0  0  0  0  0  0  0  0  0  0  0
    1.5940   11.4470   -4.4160 C   0  0  0  0  0  0  0  0  0  0  0  0
    2.0090   12.7930   -5.0420 C   0  0  0  0  0  0  0  0  0  0  0  0
    0.7870   13.6790   -5.2990 C   0  0  2  0  0  0  0  0  0  0  0  0
   -0.1260   12.9450   -6.3390 C   0  0  0  0  0  0  0  0  0  0  0  0
    2.9720   16.5144   -6.4511 H   0  0  0  0  0  0  0  0  0  0  0  0
    3.4209   15.7215   -7.9992 H   0  0  0  0  0  0  0  0  0  0  0  0
    2.2852   17.1132   -7.9992 H   0  0  0  0  0  0  0  0  0  0  0  0
    1.7444   14.2819   -7.6989 H   0  0  0  0  0  0  0  0  0  0  0  0
   -0.4280   14.8353   -8.3104 H   0  0  0  0  0  0  0  0  0  0  0  0
   -0.3222   16.4679   -7.4935 H   0  0  0  0  0  0  0  0  0  0  0  0
   -0.1580   16.0396  -10.2036 H   0  0  0  0  0  0  0  0  0  0  0  0
    0.4865   17.4728   -9.2995 H   0  0  0  0  0  0  0  0  0  0  0  0
    2.2969   16.0505   -8.8315 H   0  0  0  0  0  0  0  0  0  0  0  0
    0.4089   14.0824  -11.1908 H   0  0  0  0  0  0  0  0  0  0  0  0
    0.6936   15.2816  -12.4975 H   0  0  0  0  0  0  0  0  0  0  0  0
    1.5882   13.7239  -12.4975 H   0  0  0  0  0  0  0  0  0  0  0  0
    3.9601   14.2985  -10.0882 H   0  0  0  0  0  0  0  0  0  0  0  0
    3.5071   13.5206  -11.6426 H   0  0  0  0  0  0  0  0  0  0  0  0
    4.3032   15.1308  -11.6426 H   0  0  0  0  0  0  0  0  0  0  0  0
    1.9795   15.5094   -5.3652 H   0  0  0  0  0  0  0  0  0  0  0  0
    0.0057   16.8656   -5.0547 H   0  0  0  0  0  0  0  0  0  0  0  0
   -0.8777   16.0105   -6.3378 H   0  0  0  0  0  0  0  0  0  0  0  0
   -1.2714   15.6561   -3.5293 H   0  0  0  0  0  0  0  0  0  0  0  0
   -1.8740   14.5478   -4.7586 H   0  0  0  0  0  0  0  0  0  0  0  0
    0.6895   14.4930   -1.8757 H   0  0  0  0  0  0  0  0  0  0  0  0
    2.0466   14.4686   -3.0523 H   0  0  0  0  0  0  0  0  0  0  0  0
    0.8825   15.8366   -3.0523 H   0  0  0  0  0  0  0  0  0  0  0  0
   -1.1730   12.3281   -4.0869 H   0  0  0  0  0  0  0  0  0  0  0  0
   -1.7738   13.7974   -2.0575 H   0  0  0  0  0  0  0  0  0  0  0  0
   -1.9791   11.9687   -2.0037 H   0  0  0  0  0  0  0  0  0  0  0  0
   -0.9816   13.0941    0.1602 H   0  0  0  0  0  0  0  0  0  0  0  0
    2.2560   12.3807   -2.1434 H   0  0  0  0  0  0  0  0  0  0  0  0
    1.3718    9.5905   -1.1829 H   0  0  0  0  0  0  0  0  0  0  0  0
    2.7767    9.9773   -2.2729 H   0  0  0  0  0  0  0  0  0  0  0  0
    3.4937    9.4991    0.0463 H   0  0  0  0  0  0  0  0  0  0  0  0
    3.8764   11.1855   -0.4786 H   0  0  0  0  0  0  0  0  0  0  0  0
    3.0348   11.2509    1.7684 H   0  0  0  0  0  0  0  0  0  0  0  0
    1.8270    9.2190    1.5340 H   0  0  0  0  0  0  0  0  0  0  0  0
    2.9427   13.8573    1.4909 H   0  0  0  0  0  0  0  0  0  0  0  0
    3.4881   13.1238   -0.0555 H   0  0  0  0  0  0  0  0  0  0  0  0
    2.1671   14.3410   -0.0555 H   0  0  0  0  0  0  0  0  0  0  0  0
    1.2819   12.5038    2.8265 H   0  0  0  0  0  0  0  0  0  0  0  0
    0.5058   13.8280    1.8933 H   0  0  0  0  0  0  0  0  0  0  0  0
   -0.2194   12.1846    1.8933 H   0  0  0  0  0  0  0  0  0  0  0  0
   -0.3356    9.8513   -2.1214 H   0  0  0  0  0  0  0  0  0  0  0  0
   -1.1205   10.2881   -3.6770 H   0  0  0  0  0  0  0  0  0  0  0  0
    0.4343    9.3886   -3.6770 H   0  0  0  0  0  0  0  0  0  0  0  0
    2.5115   10.9323   -4.0946 H   0  0  0  0  0  0  0  0  0  0  0  0
    1.0252   10.9273   -5.2011 H   0  0  0  0  0  0  0  0  0  0  0  0
    2.6926   13.3135   -4.3552 H   0  0  0  0  0  0  0  0  0  0  0  0
    2.5058   12.5940   -6.0031 H   0  0  0  0  0  0  0  0  0  0  0  0
   -0.8763   12.3418   -5.8069 H   0  0  0  0  0  0  0  0  0  0  0  0
   -0.6341   13.6889   -6.9702 H   0  0  0  0  0  0  0  0  0  0  0  0
    0.4914   12.2889   -6.9702 H   0  0  0  0  0  0  0  0  0  0  0  0
  1  2  1  0
  2  3  1  0
  3  4  1  0
  4  5  1  0
  5  6  1  0
  6  7  1  0
  7  8  1  0
  7  9  1  0
  2 10  1  0
 10 11  1  0
 11 12  1  0
 12 13  1  0
 13 14  1  1
 13 15  1  0
 15 16  1  0
 16 17  1  0
 17 18  2  0
 18 19  1  0
 19 20  1  0
 20 21  1  0
 21 22  1  0
 22 23  1  0
 22 24  1  0
 24 25  1  0
 24 26  1  0
 19 27  1  0
 27 28  1  1
 27 29  1  0
 29 30  1  0
 30 31  1  0
 31 32  1  6
  7  5  1  0
 31 10  1  0
 31 13  1  0
 27 15  1  0
 24 18  1  0
  1 33  1  0
  1 34  1  0
  1 35  1  0
  2 36  1  6
  3 37  1  0
  3 38  1  0
  4 39  1  0
  4 40  1  0
  5 41  1  1
  8 42  1  0
  8 43  1  0
  8 44  1  0
  9 45  1  0
  9 46  1  0
  9 47  1  0
 10 48  1  1
 11 49  1  0
 11 50  1  0
 12 51  1  0
 12 52  1  0
 14 53  1  0
 14 54  1  0
 14 55  1  0
 15 56  1  6
 16 57  1  0
 16 58  1  0
 17 59  1  0
 19 60  1  6
 20 61  1  0
 20 62  1  0
 21 63  1  0
 21 64  1  0
 22 65  1  1
 23 66  1  0
 25 67  1  0
 25 68  1  0
 25 69  1  0
 26 70  1  0
 26 71  1  0
 26 72  1  0
 28 73  1  0
 28 74  1  0
 28 75  1  0
 29 76  1  0
 29 77  1  0
 30 78  1  0
 30 79  1  0
 32 80  1  0
 32 81  1  0
 32 82  1  0
M  END
>  <meeko>  (18) 
{"is_sidechain": [false], "intermolecular_energy": 2.731, "internal_energy": -0.839}

$$$$
EPH_relaxed_0001_pdb2pqr_Repair_146_r2_0001_out
     RDKit          3D

 82 86  0  0  0  0  0  0  0  0999 V2000
   -2.6850    7.7550    0.0800 C   0  0  0  0  0  0  0  0  0  0  0  0
   -3.3830    9.1130   -0.0400 C   0  0  2  0  0  0  0  0  0  0  0  0
   -4.8250    8.9810   -0.5690 C   0  0  0  0  0  0  0  0  0  0  0  0
   -5.2750    7.5310   -0.7740 C   0  0  0  0  0  0  0  0  0  0  0  0
   -6.1140    7.3800   -2.0060 C   0  0  2  0  0  0  0  0  0  0  0  0
   -7.0210    8.4640   -2.2500 O   0  0  0  0  0  0  0  0  0  0  0  0
   -7.6190    7.1860   -1.9750 C   0  0  0  0  0  0  0  0  0  0  0  0
   -8.3720    7.1310   -0.6830 C   0  0  0  0  0  0  0  0  0  0  0  0
   -8.2840    6.5650   -3.1630 C   0  0  0  0  0  0  0  0  0  0  0  0
   -2.5770   10.0330   -0.9490 C   0  0  1  0  0  0  0  0  0  0  0  0
   -3.1940   11.4530   -1.0610 C   0  0  0  0  0  0  0  0  0  0  0  0
   -2.0100   12.4470   -1.1810 C   0  0  0  0  0  0  0  0  0  0  0  0
   -0.7800   11.5550   -1.4680 C   0  0  1  0  0  0  0  0  0  0  0  0
   -0.8490   11.2560   -2.9980 C   0  0  0  0  0  0  0  0  0  0  0  0
    0.6100   12.1420   -1.0560 C   0  0  2  0  0  0  0  0  0  0  0  0
    1.0150   13.4340   -1.7860 C   0  0  0  0  0  0  0  0  0  0  0  0
    1.7860   13.2380   -3.0490 C   0  0  0  0  0  0  0  0  0  0  0  0
    2.3850   12.0950   -3.4310 C   0  0  0  0  0  0  0  0  0  0  0  0
    2.4030   10.8690   -2.5080 C   0  0  1  0  0  0  0  0  0  0  0  0
    3.8340   10.2740   -2.4650 C   0  0  0  0  0  0  0  0  0  0  0  0
    4.3820    9.9660   -3.8550 C   0  0  0  0  0  0  0  0  0  0  0  0
    4.4030   11.2210   -4.7230 C   0  0  2  0  0  0  0  0  0  0  0  0
    5.3590   12.1390   -4.1830 O   0  0  0  0  0  0  0  0  0  0  0  0
    3.0160   11.9130   -4.8330 C   0  0  0  0  0  0  0  0  0  0  0  0
    2.0640   11.0390   -5.6850 C   0  0  0  0  0  0  0  0  0  0  0  0
    3.2060   13.2400   -5.6170 C   0  0  0  0  0  0  0  0  0  0  0  0
    1.7870   11.0840   -1.0590 C   0  0  1  0  0  0  0  0  0  0  0  0
    2.8800   11.6320   -0.0920 C   0  0  0  0  0  0  0  0  0  0  0  0
    1.3390    9.6900   -0.4790 C   0  0  0  0  0  0  0  0  0  0  0  0
   -0.0870    9.2200   -0.8220 C   0  0  0  0  0  0  0  0  0  0  0  0
   -1.1100   10.3260   -0.5450 C   0  0  2  0  0  0  0  0  0  0  0  0
   -1.0790   10.6320    0.9910 C   0  0  0  0  0  0  0  0  0  0  0  0
   -2.5550    7.5022    1.1426 H   0  0  0  0  0  0  0  0  0  0  0  0
   -3.2981    6.9832   -0.4082 H   0  0  0  0  0  0  0  0  0  0  0  0
   -1.7005    7.8043   -0.4082 H   0  0  0  0  0  0  0  0  0  0  0  0
   -3.4408    9.5452    0.9699 H   0  0  0  0  0  0  0  0  0  0  0  0
   -5.5048    9.4569    0.1531 H   0  0  0  0  0  0  0  0  0  0  0  0
   -4.8519    9.4685   -1.5547 H   0  0  0  0  0  0  0  0  0  0  0  0
   -4.3850    6.8915   -0.8683 H   0  0  0  0  0  0  0  0  0  0  0  0
   -5.8832    7.2349    0.0934 H   0  0  0  0  0  0  0  0  0  0  0  0
   -5.3094    6.8289   -2.5147 H   0  0  0  0  0  0  0  0  0  0  0  0
   -7.6635    7.1828    0.1568 H   0  0  0  0  0  0  0  0  0  0  0  0
   -9.0685    7.9807   -0.6280 H   0  0  0  0  0  0  0  0  0  0  0  0
   -8.9376    6.1892   -0.6280 H   0  0  0  0  0  0  0  0  0  0  0  0
   -9.0487    5.8509   -2.8235 H   0  0  0  0  0  0  0  0  0  0  0  0
   -8.7591    7.3502   -3.7694 H   0  0  0  0  0  0  0  0  0  0  0  0
   -7.5331    6.0374   -3.7694 H   0  0  0  0  0  0  0  0  0  0  0  0
   -2.6010    9.4421   -1.8765 H   0  0  0  0  0  0  0  0  0  0  0  0
   -3.8352   11.5182   -1.9524 H   0  0  0  0  0  0  0  0  0  0  0  0
   -3.8160   11.6837   -0.1836 H   0  0  0  0  0  0  0  0  0  0  0  0
   -2.1784   13.1538   -2.0069 H   0  0  0  0  0  0  0  0  0  0  0  0
   -1.8819   13.0550   -0.2733 H   0  0  0  0  0  0  0  0  0  0  0  0
   -1.0939   10.1949   -3.1536 H   0  0  0  0  0  0  0  0  0  0  0  0
   -1.6260   11.8831   -3.4595 H   0  0  0  0  0  0  0  0  0  0  0  0
    0.1243   11.4792   -3.4595 H   0  0  0  0  0  0  0  0  0  0  0  0
    0.4424   12.4308   -0.0079 H   0  0  0  0  0  0  0  0  0  0  0  0
    0.0968   13.9881   -2.0308 H   0  0  0  0  0  0  0  0  0  0  0  0
    1.6856   13.9732   -1.1007 H   0  0  0  0  0  0  0  0  0  0  0  0
    1.8719   14.1014   -3.7252 H   0  0  0  0  0  0  0  0  0  0  0  0
    1.7103   10.1409   -2.9553 H   0  0  0  0  0  0  0  0  0  0  0  0
    4.5021   10.9976   -1.9751 H   0  0  0  0  0  0  0  0  0  0  0  0
    3.7849    9.3266   -1.9082 H   0  0  0  0  0  0  0  0  0  0  0  0
    5.4064    9.5767   -3.7600 H   0  0  0  0  0  0  0  0  0  0  0  0
    3.7298    9.2197   -4.3322 H   0  0  0  0  0  0  0  0  0  0  0  0
    4.6805   10.9132   -5.7420 H   0  0  0  0  0  0  0  0  0  0  0  0
    4.9390   12.5910   -3.4310 H   0  0  0  0  0  0  0  0  0  0  0  0
    1.4180   10.4459   -5.0210 H   0  0  0  0  0  0  0  0  0  0  0  0
    1.4413   11.6866   -6.3197 H   0  0  0  0  0  0  0  0  0  0  0  0
    2.6561   10.3634   -6.3197 H   0  0  0  0  0  0  0  0  0  0  0  0
    3.3251   14.0716   -4.9069 H   0  0  0  0  0  0  0  0  0  0  0  0
    4.1028   13.1669   -6.2497 H   0  0  0  0  0  0  0  0  0  0  0  0
    2.3247   13.4215   -6.2497 H   0  0  0  0  0  0  0  0  0  0  0  0
    2.5620   11.4726    0.9489 H   0  0  0  0  0  0  0  0  0  0  0  0
    3.8272   11.1022   -0.2713 H   0  0  0  0  0  0  0  0  0  0  0  0
    3.0221   12.7080   -0.2713 H   0  0  0  0  0  0  0  0  0  0  0  0
    2.0395    8.9314   -0.8582 H   0  0  0  0  0  0  0  0  0  0  0  0
    1.3444    9.8181    0.6135 H   0  0  0  0  0  0  0  0  0  0  0  0
   -0.1300    8.9485   -1.8871 H   0  0  0  0  0  0  0  0  0  0  0  0
   -0.3308    8.3510   -0.1931 H   0  0  0  0  0  0  0  0  0  0  0  0
   -1.1742    9.6919    1.5541 H   0  0  0  0  0  0  0  0  0  0  0  0
   -0.1269   11.1190    1.2487 H   0  0  0  0  0  0  0  0  0  0  0  0
   -1.9141   11.3000    1.2487 H   0  0  0  0  0  0  0  0  0  0  0  0
  1  2  1  0
  2  3  1  0
  3  4  1  0
  4  5  1  0
  5  6  1  0
  6  7  1  0
  7  8  1  0
  7  9  1  0
  2 10  1  0
 10 11  1  0
 11 12  1  0
 12 13  1  0
 13 14  1  6
 13 15  1  0
 15 16  1  0
 16 17  1  0
 17 18  2  0
 18 19  1  0
 19 20  1  0
 20 21  1  0
 21 22  1  0
 22 23  1  0
 22 24  1  0
 24 25  1  0
 24 26  1  0
 19 27  1  0
 27 28  1  1
 27 29  1  0
 29 30  1  0
 30 31  1  0
 31 32  1  1
  7  5  1  0
 31 10  1  0
 31 13  1  0
 27 15  1  0
 24 18  1  0
  1 33  1  0
  1 34  1  0
  1 35  1  0
  2 36  1  1
  3 37  1  0
  3 38  1  0
  4 39  1  0
  4 40  1  0
  5 41  1  6
  8 42  1  0
  8 43  1  0
  8 44  1  0
  9 45  1  0
  9 46  1  0
  9 47  1  0
 10 48  1  6
 11 49  1  0
 11 50  1  0
 12 51  1  0
 12 52  1  0
 14 53  1  0
 14 54  1  0
 14 55  1  0
 15 56  1  1
 16 57  1  0
 16 58  1  0
 17 59  1  0
 19 60  1  6
 20 61  1  0
 20 62  1  0
 21 63  1  0
 21 64  1  0
 22 65  1  6
 23 66  1  0
 25 67  1  0
 25 68  1  0
 25 69  1  0
 26 70  1  0
 26 71  1  0
 26 72  1  0
 28 73  1  0
 28 74  1  0
 28 75  1  0
 29 76  1  0
 29 77  1  0
 30 78  1  0
 30 79  1  0
 32 80  1  0
 32 81  1  0
 32 82  1  0
M  END
>  <meeko>  (19) 
{"is_sidechain": [false], "intermolecular_energy": 2.731, "internal_energy": -0.839}

$$$$
EPH_relaxed_0001_pdb2pqr_Repair_146_r2_0001_out
     RDKit          3D

 82 86  0  0  0  0  0  0  0  0999 V2000
    3.1960   11.3000   -4.2370 C   0  0  0  0  0  0  0  0  0  0  0  0
    2.0830   11.8820   -5.1140 C   0  0  2  0  0  0  0  0  0  0  0  0
    2.6410   12.6140   -6.3510 C   0  0  0  0  0  0  0  0  0  0  0  0
    1.9390   13.9420   -6.6480 C   0  0  0  0  0  0  0  0  0  0  0  0
    2.3790   14.5200   -7.9590 C   0  0  2  0  0  0  0  0  0  0  0  0
    2.5090   15.9480   -7.9700 O   0  0  0  0  0  0  0  0  0  0  0  0
    1.4950   15.3970   -8.8260 C   0  0  0  0  0  0  0  0  0  0  0  0
    0.0980   15.7440   -8.4150 C   0  0  0  0  0  0  0  0  0  0  0  0
    1.8100   15.5100  -10.2850 C   0  0  0  0  0  0  0  0  0  0  0  0
    1.2180   12.8310   -4.2930 C   0  0  1  0  0  0  0  0  0  0  0  0
   -0.1670   12.2240   -3.9420 C   0  0  0  0  0  0  0  0  0  0  0  0
   -0.5400   12.7480   -2.5310 C   0  0  0  0  0  0  0  0  0  0  0  0
    0.4690   13.8880   -2.2590 C   0  0  1  0  0  0  0  0  0  0  0  0
   -0.1120   15.1260   -3.0100 C   0  0  0  0  0  0  0  0  0  0  0  0
    0.7600   14.2090   -0.7560 C   0  0  2  0  0  0  0  0  0  0  0  0
   -0.4530   14.6990    0.0530 C   0  0  0  0  0  0  0  0  0  0  0  0
   -0.6550   16.1780    0.0680 C   0  0  0  0  0  0  0  0  0  0  0  0
    0.2580   17.0950   -0.3020 C   0  0  0  0  0  0  0  0  0  0  0  0
    1.6800   16.6770   -0.6980 C   0  0  1  0  0  0  0  0  0  0  0  0
    2.7070   17.5980    0.0100 C   0  0  0  0  0  0  0  0  0  0  0  0
    2.4410   19.0780   -0.2490 C   0  0  0  0  0  0  0  0  0  0  0  0
    1.0390   19.4690    0.2110 C   0  0  2  0  0  0  0  0  0  0  0  0
    0.9750   19.3620    1.6370 O   0  0  0  0  0  0  0  0  0  0  0  0
   -0.0800   18.6010   -0.4290 C   0  0  0  0  0  0  0  0  0  0  0  0
   -0.2090   18.9450   -1.9330 C   0  0  0  0  0  0  0  0  0  0  0  0
   -1.4290   19.0030    0.2250 C   0  0  0  0  0  0  0  0  0  0  0  0
    2.0220   15.1340   -0.5240 C   0  0  1  0  0  0  0  0  0  0  0  0
    2.5150   14.8590    0.9300 C   0  0  0  0  0  0  0  0  0  0  0  0
    3.2200   14.7630   -1.4760 C   0  0  0  0  0  0  0  0  0  0  0  0
    2.8600   14.3390   -2.9130 C   0  0  0  0  0  0  0  0  0  0  0  0
    1.7610   13.2730   -2.9110 C   0  0  2  0  0  0  0  0  0  0  0  0
    2.3240   12.0060   -2.1810 C   0  0  0  0  0  0  0  0  0  0  0  0
    2.9363   11.4358   -3.1768 H   0  0  0  0  0  0  0  0  0  0  0  0
    3.3093   10.2272   -4.4522 H   0  0  0  0  0  0  0  0  0  0  0  0
    4.1417   11.8190   -4.4522 H   0  0  0  0  0  0  0  0  0  0  0  0
    1.4727   11.0414   -5.4759 H   0  0  0  0  0  0  0  0  0  0  0  0
    3.7092   12.8157   -6.1829 H   0  0  0  0  0  0  0  0  0  0  0  0
    2.4694   11.9584   -7.2175 H   0  0  0  0  0  0  0  0  0  0  0  0
    0.8527   13.7718   -6.6800 H   0  0  0  0  0  0  0  0  0  0  0  0
    2.2028   14.6549   -5.8529 H   0  0  0  0  0  0  0  0  0  0  0  0
    2.9730   13.6215   -8.1825 H   0  0  0  0  0  0  0  0  0  0  0  0
    0.0322   15.7604   -7.3171 H   0  0  0  0  0  0  0  0  0  0  0  0
   -0.1658   16.7350   -8.8129 H   0  0  0  0  0  0  0  0  0  0  0  0
   -0.5989   14.9917   -8.8129 H   0  0  0  0  0  0  0  0  0  0  0  0
    2.8386   15.8790  -10.4105 H   0  0  0  0  0  0  0  0  0  0  0  0
    1.7147   14.5216  -10.7583 H   0  0  0  0  0  0  0  0  0  0  0  0
    1.1082   16.2124  -10.7583 H   0  0  0  0  0  0  0  0  0  0  0  0
    1.1874   13.6915   -4.9776 H   0  0  0  0  0  0  0  0  0  0  0  0
   -0.9192   12.5464   -4.6770 H   0  0  0  0  0  0  0  0  0  0  0  0
   -0.1324   11.1247   -3.9588 H   0  0  0  0  0  0  0  0  0  0  0  0
   -1.5711   13.1310   -2.5190 H   0  0  0  0  0  0  0  0  0  0  0  0
   -0.4931   11.9582   -1.7668 H   0  0  0  0  0  0  0  0  0  0  0  0
   -0.4606   15.8689   -2.2775 H   0  0  0  0  0  0  0  0  0  0  0  0
    0.6706   15.5726   -3.6410 H   0  0  0  0  0  0  0  0  0  0  0  0
   -0.9556   14.8094   -3.6410 H   0  0  0  0  0  0  0  0  0  0  0  0
    1.0107   13.2190   -0.3472 H   0  0  0  0  0  0  0  0  0  0  0  0
   -1.3553   14.2372   -0.3742 H   0  0  0  0  0  0  0  0  0  0  0  0
   -0.2603   14.4079    1.0961 H   0  0  0  0  0  0  0  0  0  0  0  0
   -1.6322   16.5496    0.4102 H   0  0  0  0  0  0  0  0  0  0  0  0
    1.7454   16.8145   -1.7874 H   0  0  0  0  0  0  0  0  0  0  0  0
    2.6567   17.4149    1.0935 H   0  0  0  0  0  0  0  0  0  0  0  0
    3.7022   17.3616   -0.3945 H   0  0  0  0  0  0  0  0  0  0  0  0
    3.1808   19.6783    0.3009 H   0  0  0  0  0  0  0  0  0  0  0  0
    2.5207   19.2651   -1.3300 H   0  0  0  0  0  0  0  0  0  0  0  0
    0.8602   20.5033   -0.1181 H   0  0  0  0  0  0  0  0  0  0  0  0
    0.2020   18.8150    1.8560 H   0  0  0  0  0  0  0  0  0  0  0  0
   -0.5933   19.9698   -2.0431 H   0  0  0  0  0  0  0  0  0  0  0  0
    0.7783   18.8702   -2.4122 H   0  0  0  0  0  0  0  0  0  0  0  0
   -0.9036   18.2394   -2.4122 H   0  0  0  0  0  0  0  0  0  0  0  0
   -1.3289   18.9732    1.3200 H   0  0  0  0  0  0  0  0  0  0  0  0
   -1.7006   20.0211   -0.0908 H   0  0  0  0  0  0  0  0  0  0  0  0
   -2.2136   18.2996   -0.0908 H   0  0  0  0  0  0  0  0  0  0  0  0
    1.7866   15.2653    1.6472 H   0  0  0  0  0  0  0  0  0  0  0  0
    2.6155   13.7745    1.0841 H   0  0  0  0  0  0  0  0  0  0  0  0
    3.4906   15.3432    1.0841 H   0  0  0  0  0  0  0  0  0  0  0  0
    3.8764   15.6431   -1.5433 H   0  0  0  0  0  0  0  0  0  0  0  0
    3.6843   13.8752   -1.0218 H   0  0  0  0  0  0  0  0  0  0  0  0
    2.5064   15.2192   -3.4700 H   0  0  0  0  0  0  0  0  0  0  0  0
    3.7572   13.9168   -3.3892 H   0  0  0  0  0  0  0  0  0  0  0  0
    2.2595   12.1511   -1.0925 H   0  0  0  0  0  0  0  0  0  0  0  0
    1.7331   11.1240   -2.4690 H   0  0  0  0  0  0  0  0  0  0  0  0
    3.3746   11.8534   -2.4690 H   0  0  0  0  0  0  0  0  0  0  0  0
  1  2  1  0
  2  3  1  0
  3  4  1  0
  4  5  1  0
  5  6  1  0
  6  7  1  0
  7  8  1  0
  7  9  1  0
  2 10  1  0
 10 11  1  0
 11 12  1  0
 12 13  1  0
 13 14  1  6
 13 15  1  0
 15 16  1  0
 16 17  1  0
 17 18  2  0
 18 19  1  0
 19 20  1  0
 20 21  1  0
 21 22  1  0
 22 23  1  0
 22 24  1  0
 24 25  1  0
 24 26  1  0
 19 27  1  0
 27 28  1  1
 27 29  1  0
 29 30  1  0
 30 31  1  0
 31 32  1  1
  7  5  1  0
 31 10  1  0
 31 13  1  0
 27 15  1  0
 24 18  1  0
  1 33  1  0
  1 34  1  0
  1 35  1  0
  2 36  1  6
  3 37  1  0
  3 38  1  0
  4 39  1  0
  4 40  1  0
  5 41  1  6
  8 42  1  0
  8 43  1  0
  8 44  1  0
  9 45  1  0
  9 46  1  0
  9 47  1  0
 10 48  1  6
 11 49  1  0
 11 50  1  0
 12 51  1  0
 12 52  1  0
 14 53  1  0
 14 54  1  0
 14 55  1  0
 15 56  1  1
 16 57  1  0
 16 58  1  0
 17 59  1  0
 19 60  1  6
 20 61  1  0
 20 62  1  0
 21 63  1  0
 21 64  1  0
 22 65  1  1
 23 66  1  0
 25 67  1  0
 25 68  1  0
 25 69  1  0
 26 70  1  0
 26 71  1  0
 26 72  1  0
 28 73  1  0
 28 74  1  0
 28 75  1  0
 29 76  1  0
 29 77  1  0
 30 78  1  0
 30 79  1  0
 32 80  1  0
 32 81  1  0
 32 82  1  0
M  END
>  <meeko>  (20) 
{"is_sidechain": [false], "intermolecular_energy": 2.731, "internal_energy": -0.839}

$$$$
