EPH_relaxed_0001_pdb2pqr_Repair_79_r2_0001_out
     RDKit          3D

 82 86  0  0  0  0  0  0  0  0999 V2000
   -1.4600    8.5470   -1.7410 C   0  0  0  0  0  0  0  0  0  0  0  0
   -1.8550    9.1390   -0.3850 C   0  0  2  0  0  0  0  0  0  0  0  0
   -3.3460    9.5280   -0.3330 C   0  0  0  0  0  0  0  0  0  0  0  0
   -4.2920    8.3270   -0.2470 C   0  0  0  0  0  0  0  0  0  0  0  0
   -4.9950    8.0810   -1.5470 C   0  0  2  0  0  0  0  0  0  0  0  0
   -6.4250    8.0320   -1.4550 O   0  0  0  0  0  0  0  0  0  0  0  0
   -5.7730    6.8140   -1.8510 C   0  0  0  0  0  0  0  0  0  0  0  0
   -5.8880    5.7100   -0.8470 C   0  0  0  0  0  0  0  0  0  0  0  0
   -6.0070    6.4430   -3.2820 C   0  0  0  0  0  0  0  0  0  0  0  0
   -0.9880   10.3550   -0.0770 C   0  0  1  0  0  0  0  0  0  0  0  0
    0.1240   10.0490    0.9620 C   0  0  0  0  0  0  0  0  0  0  0  0
    1.3560   10.8990    0.5610 C   0  0  0  0  0  0  0  0  0  0  0  0
    0.8140   11.9050   -0.4810 C   0  0  1  0  0  0  0  0  0  0  0  0
    0.1490   13.0380    0.3620 C   0  0  0  0  0  0  0  0  0  0  0  0
    1.8570   12.4770   -1.4960 C   0  0  2  0  0  0  0  0  0  0  0  0
    2.9960   13.2990   -0.8680 C   0  0  0  0  0  0  0  0  0  0  0  0
    2.7320   14.7630   -0.7440 C   0  0  0  0  0  0  0  0  0  0  0  0
    1.7520   15.4380   -1.3750 C   0  0  0  0  0  0  0  0  0  0  0  0
    0.8430   14.7380   -2.3930 C   0  0  1  0  0  0  0  0  0  0  0  0
    0.7130   15.6190   -3.6630 C   0  0  0  0  0  0  0  0  0  0  0  0
    0.2510   17.0380   -3.3460 C   0  0  0  0  0  0  0  0  0  0  0  0
    1.2110   17.7210   -2.3760 C   0  0  2  0  0  0  0  0  0  0  0  0
    2.4670   17.9170   -3.0340 O   0  0  0  0  0  0  0  0  0  0  0  0
    1.4290   16.9200   -1.0620 C   0  0  0  0  0  0  0  0  0  0  0  0
    0.1390   16.9650   -0.2060 C   0  0  0  0  0  0  0  0  0  0  0  0
    2.5240   17.6460   -0.2360 C   0  0  0  0  0  0  0  0  0  0  0  0
    1.2130   13.2300   -2.7310 C   0  0  1  0  0  0  0  0  0  0  0  0
    2.2680   13.1860   -3.8780 C   0  0  0  0  0  0  0  0  0  0  0  0
   -0.0680   12.4960   -3.2780 C   0  0  0  0  0  0  0  0  0  0  0  0
   -0.9960   11.8480   -2.2330 C   0  0  0  0  0  0  0  0  0  0  0  0
   -0.1980   10.9820   -1.2530 C   0  0  2  0  0  0  0  0  0  0  0  0
    0.4640    9.8210   -2.0690 C   0  0  0  0  0  0  0  0  0  0  0  0
   -0.8557    7.6414   -1.5837 H   0  0  0  0  0  0  0  0  0  0  0  0
   -2.3674    8.2887   -2.3066 H   0  0  0  0  0  0  0  0  0  0  0  0
   -0.8732    9.2857   -2.3066 H   0  0  0  0  0  0  0  0  0  0  0  0
   -1.6903    8.3621    0.3761 H   0  0  0  0  0  0  0  0  0  0  0  0
   -3.5089   10.1625    0.5506 H   0  0  0  0  0  0  0  0  0  0  0  0
   -3.5750   10.0514   -1.2730 H   0  0  0  0  0  0  0  0  0  0  0  0
   -3.7092    7.4325    0.0180 H   0  0  0  0  0  0  0  0  0  0  0  0
   -5.0520    8.5433    0.5182 H   0  0  0  0  0  0  0  0  0  0  0  0
   -4.2078    8.6141   -2.1003 H   0  0  0  0  0  0  0  0  0  0  0  0
   -5.8441    6.1315    0.1681 H   0  0  0  0  0  0  0  0  0  0  0  0
   -6.8455    5.1866   -0.9856 H   0  0  0  0  0  0  0  0  0  0  0  0
   -5.0589    5.0005   -0.9856 H   0  0  0  0  0  0  0  0  0  0  0  0
   -6.5933    5.5134   -3.3286 H   0  0  0  0  0  0  0  0  0  0  0  0
   -6.5595    7.2506   -3.7845 H   0  0  0  0  0  0  0  0  0  0  0  0
   -5.0402    6.2923   -3.7845 H   0  0  0  0  0  0  0  0  0  0  0  0
   -1.7656   11.0524    0.2679 H   0  0  0  0  0  0  0  0  0  0  0  0
   -0.2144   10.3251    1.9716 H   0  0  0  0  0  0  0  0  0  0  0  0
    0.3702    8.9770    0.9731 H   0  0  0  0  0  0  0  0  0  0  0  0
    1.7642   11.4275    1.4351 H   0  0  0  0  0  0  0  0  0  0  0  0
    2.1746   10.2834    0.1597 H   0  0  0  0  0  0  0  0  0  0  0  0
    0.2763   12.8211    1.4329 H   0  0  0  0  0  0  0  0  0  0  0  0
    0.6256   14.0003    0.1236 H   0  0  0  0  0  0  0  0  0  0  0  0
   -0.9235   13.0910    0.1236 H   0  0  0  0  0  0  0  0  0  0  0  0
    2.3294   11.5646   -1.8888 H   0  0  0  0  0  0  0  0  0  0  0  0
    3.1866   12.9014    0.1398 H   0  0  0  0  0  0  0  0  0  0  0  0
    3.8538   13.2010   -1.5496 H   0  0  0  0  0  0  0  0  0  0  0  0
    3.3940   15.3394   -0.0811 H   0  0  0  0  0  0  0  0  0  0  0  0
   -0.1384   14.6382   -1.9063 H   0  0  0  0  0  0  0  0  0  0  0  0
    1.6937   15.6699   -4.1587 H   0  0  0  0  0  0  0  0  0  0  0  0
   -0.0457   15.1582   -4.3127 H   0  0  0  0  0  0  0  0  0  0  0  0
    0.2080   17.6193   -4.2789 H   0  0  0  0  0  0  0  0  0  0  0  0
   -0.7432   16.9869   -2.8780 H   0  0  0  0  0  0  0  0  0  0  0  0
    0.7593   18.6810   -2.0856 H   0  0  0  0  0  0  0  0  0  0  0  0
    3.0570   17.1930   -2.7630 H   0  0  0  0  0  0  0  0  0  0  0  0
    0.4064   16.9557    0.8610 H   0  0  0  0  0  0  0  0  0  0  0  0
   -0.4215   17.8832   -0.4355 H   0  0  0  0  0  0  0  0  0  0  0  0
   -0.4841   16.0880   -0.4355 H   0  0  0  0  0  0  0  0  0  0  0  0
    2.3227   17.5125    0.8371 H   0  0  0  0  0  0  0  0  0  0  0  0
    3.5091   17.2215   -0.4798 H   0  0  0  0  0  0  0  0  0  0  0  0
    2.5164   18.7186   -0.4798 H   0  0  0  0  0  0  0  0  0  0  0  0
    3.2785   13.1439   -3.4453 H   0  0  0  0  0  0  0  0  0  0  0  0
    2.0975   12.2942   -4.4990 H   0  0  0  0  0  0  0  0  0  0  0  0
    2.1724   14.0889   -4.4990 H   0  0  0  0  0  0  0  0  0  0  0  0
   -0.6611   13.2342   -3.8377 H   0  0  0  0  0  0  0  0  0  0  0  0
    0.3148   11.6597   -3.8813 H   0  0  0  0  0  0  0  0  0  0  0  0
   -1.5155   12.6396   -1.6730 H   0  0  0  0  0  0  0  0  0  0  0  0
   -1.7210   11.2077   -2.7568 H   0  0  0  0  0  0  0  0  0  0  0  0
    0.8867    9.0797   -1.3749 H   0  0  0  0  0  0  0  0  0  0  0  0
   -0.2951    9.3390   -2.7026 H   0  0  0  0  0  0  0  0  0  0  0  0
    1.2654   10.2288   -2.7026 H   0  0  0  0  0  0  0  0  0  0  0  0
  1  2  1  0
  2  3  1  0
  3  4  1  0
  4  5  1  0
  5  6  1  0
  6  7  1  0
  7  8  1  0
  7  9  1  0
  2 10  1  0
 10 11  1  0
 11 12  1  0
 12 13  1  0
 13 14  1  1
 13 15  1  0
 15 16  1  0
 16 17  1  0
 17 18  2  0
 18 19  1  0
 19 20  1  0
 20 21  1  0
 21 22  1  0
 22 23  1  0
 22 24  1  0
 24 25  1  0
 24 26  1  0
 19 27  1  0
 27 28  1  6
 27 29  1  0
 29 30  1  0
 30 31  1  0
 31 32  1  6
  7  5  1  0
 31 10  1  0
 31 13  1  0
 27 15  1  0
 24 18  1  0
  1 33  1  0
  1 34  1  0
  1 35  1  0
  2 36  1  1
  3 37  1  0
  3 38  1  0
  4 39  1  0
  4 40  1  0
  5 41  1  6
  8 42  1  0
  8 43  1  0
  8 44  1  0
  9 45  1  0
  9 46  1  0
  9 47  1  0
 10 48  1  1
 11 49  1  0
 11 50  1  0
 12 51  1  0
 12 52  1  0
 14 53  1  0
 14 54  1  0
 14 55  1  0
 15 56  1  6
 16 57  1  0
 16 58  1  0
 17 59  1  0
 19 60  1  1
 20 61  1  0
 20 62  1  0
 21 63  1  0
 21 64  1  0
 22 65  1  1
 23 66  1  0
 25 67  1  0
 25 68  1  0
 25 69  1  0
 26 70  1  0
 26 71  1  0
 26 72  1  0
 28 73  1  0
 28 74  1  0
 28 75  1  0
 29 76  1  0
 29 77  1  0
 30 78  1  0
 30 79  1  0
 32 80  1  0
 32 81  1  0
 32 82  1  0
M  END
>  <meeko>  (1) 
{"is_sidechain": [false], "intermolecular_energy": 2.731, "internal_energy": -0.839}

$$$$
EPH_relaxed_0001_pdb2pqr_Repair_79_r2_0001_out
     RDKit          3D

 82 86  0  0  0  0  0  0  0  0999 V2000
    2.4250   17.9580   -2.6400 C   0  0  0  0  0  0  0  0  0  0  0  0
    1.0850   17.6120   -1.9840 C   0  0  2  0  0  0  0  0  0  0  0  0
    1.1550   17.6920   -0.4450 C   0  0  0  0  0  0  0  0  0  0  0  0
    0.8230   19.0780    0.1140 C   0  0  0  0  0  0  0  0  0  0  0  0
   -0.6170   19.1850    0.5150 C   0  0  2  0  0  0  0  0  0  0  0  0
   -1.4890   18.2500   -0.1340 O   0  0  0  0  0  0  0  0  0  0  0  0
   -1.7160   19.6380   -0.4280 C   0  0  0  0  0  0  0  0  0  0  0  0
   -1.4210   20.0160   -1.8450 C   0  0  0  0  0  0  0  0  0  0  0  0
   -2.9830   20.1790    0.1580 C   0  0  0  0  0  0  0  0  0  0  0  0
    0.6400   16.2190   -2.4130 C   0  0  1  0  0  0  0  0  0  0  0  0
    0.7690   15.9960   -3.9440 C   0  0  0  0  0  0  0  0  0  0  0  0
    1.1670   14.5120   -4.1470 C   0  0  0  0  0  0  0  0  0  0  0  0
    0.9310   13.8520   -2.7690 C   0  0  1  0  0  0  0  0  0  0  0  0
   -0.6020   13.5650   -2.7180 C   0  0  0  0  0  0  0  0  0  0  0  0
    1.7690   12.5670   -2.4650 C   0  0  2  0  0  0  0  0  0  0  0  0
    1.5030   11.3770   -3.4030 C   0  0  0  0  0  0  0  0  0  0  0  0
    0.4280   10.4420   -2.9560 C   0  0  0  0  0  0  0  0  0  0  0  0
   -0.0970   10.3880   -1.7190 C   0  0  0  0  0  0  0  0  0  0  0  0
    0.4580   11.2630   -0.5880 C   0  0  1  0  0  0  0  0  0  0  0  0
    0.6530   10.4010    0.6870 C   0  0  0  0  0  0  0  0  0  0  0  0
   -0.6180    9.6610    1.0930 C   0  0  0  0  0  0  0  0  0  0  0  0
   -1.1070    8.7570   -0.0360 C   0  0  2  0  0  0  0  0  0  0  0  0
   -0.1550    7.7060   -0.2300 O   0  0  0  0  0  0  0  0  0  0  0  0
   -1.3290    9.5150   -1.3750 C   0  0  0  0  0  0  0  0  0  0  0  0
   -2.5630   10.4430   -1.2490 C   0  0  0  0  0  0  0  0  0  0  0  0
   -1.6840    8.4660   -2.4630 C   0  0  0  0  0  0  0  0  0  0  0  0
    1.7460   12.1230   -0.9460 C   0  0  1  0  0  0  0  0  0  0  0  0
    3.0340   11.2750   -0.7110 C   0  0  0  0  0  0  0  0  0  0  0  0
    1.8360   13.3490    0.0380 C   0  0  0  0  0  0  0  0  0  0  0  0
    1.0850   14.6280   -0.3760 C   0  0  0  0  0  0  0  0  0  0  0  0
    1.4120   15.0120   -1.8230 C   0  0  2  0  0  0  0  0  0  0  0  0
    2.9440   15.3290   -1.8990 C   0  0  0  0  0  0  0  0  0  0  0  0
    3.1759   18.1519   -1.8599 H   0  0  0  0  0  0  0  0  0  0  0  0
    2.7553   17.1157   -3.2656 H   0  0  0  0  0  0  0  0  0  0  0  0
    2.3062   18.8549   -3.2656 H   0  0  0  0  0  0  0  0  0  0  0  0
    0.3493   18.3571   -2.3210 H   0  0  0  0  0  0  0  0  0  0  0  0
    0.4401   16.9682   -0.0266 H   0  0  0  0  0  0  0  0  0  0  0  0
    2.1933   17.4695   -0.1580 H   0  0  0  0  0  0  0  0  0  0  0  0
    1.4533   19.2669    0.9955 H   0  0  0  0  0  0  0  0  0  0  0  0
    1.0147   19.8202   -0.6749 H   0  0  0  0  0  0  0  0  0  0  0  0
   -0.3362   19.5061    1.5289 H   0  0  0  0  0  0  0  0  0  0  0  0
   -0.7443   20.8831   -1.8599 H   0  0  0  0  0  0  0  0  0  0  0  0
   -0.9428   19.1689   -2.3585 H   0  0  0  0  0  0  0  0  0  0  0  0
   -2.3589   20.2740   -2.3585 H   0  0  0  0  0  0  0  0  0  0  0  0
   -2.9200   20.1521    1.2559 H   0  0  0  0  0  0  0  0  0  0  0  0
   -3.1273   21.2172   -0.1757 H   0  0  0  0  0  0  0  0  0  0  0  0
   -3.8327   19.5652   -0.1757 H   0  0  0  0  0  0  0  0  0  0  0  0
   -0.3913   16.2291   -2.0305 H   0  0  0  0  0  0  0  0  0  0  0  0
   -0.1914   16.2019   -4.4392 H   0  0  0  0  0  0  0  0  0  0  0  0
    1.5212   16.6701   -4.3796 H   0  0  0  0  0  0  0  0  0  0  0  0
    0.5355   14.0424   -4.9156 H   0  0  0  0  0  0  0  0  0  0  0  0
    2.2067   14.4024   -4.4891 H   0  0  0  0  0  0  0  0  0  0  0  0
   -0.9289   13.5038   -1.6695 H   0  0  0  0  0  0  0  0  0  0  0  0
   -1.1441   14.3773   -3.2243 H   0  0  0  0  0  0  0  0  0  0  0  0
   -0.8136   12.6116   -3.2243 H   0  0  0  0  0  0  0  0  0  0  0  0
    2.7950   12.8967   -2.6858 H   0  0  0  0  0  0  0  0  0  0  0  0
    1.2183   11.7769   -4.3874 H   0  0  0  0  0  0  0  0  0  0  0  0
    2.4319   10.7881   -3.4193 H   0  0  0  0  0  0  0  0  0  0  0  0
    0.0317    9.7374   -3.7020 H   0  0  0  0  0  0  0  0  0  0  0  0
   -0.3014   12.0368   -0.4019 H   0  0  0  0  0  0  0  0  0  0  0  0
    1.4452    9.6623    0.4954 H   0  0  0  0  0  0  0  0  0  0  0  0
    0.9221   11.0789    1.5104 H   0  0  0  0  0  0  0  0  0  0  0  0
   -0.4088    9.0467    1.9812 H   0  0  0  0  0  0  0  0  0  0  0  0
   -1.4005   10.4019    1.3136 H   0  0  0  0  0  0  0  0  0  0  0  0
   -2.0864    8.3555    0.2632 H   0  0  0  0  0  0  0  0  0  0  0  0
    0.1080    7.7170   -1.1660 H   0  0  0  0  0  0  0  0  0  0  0  0
   -2.7877   10.6119   -0.1855 H   0  0  0  0  0  0  0  0  0  0  0  0
   -2.3490   11.4058   -1.7360 H   0  0  0  0  0  0  0  0  0  0  0  0
   -3.4286    9.9702   -1.7360 H   0  0  0  0  0  0  0  0  0  0  0  0
   -2.0008    7.5298   -1.9802 H   0  0  0  0  0  0  0  0  0  0  0  0
   -2.5021    8.8504   -3.0899 H   0  0  0  0  0  0  0  0  0  0  0  0
   -0.8006    8.2746   -3.0899 H   0  0  0  0  0  0  0  0  0  0  0  0
    3.2063   11.1616    0.3695 H   0  0  0  0  0  0  0  0  0  0  0  0
    2.9081   10.2826   -1.1684 H   0  0  0  0  0  0  0  0  0  0  0  0
    3.8959   11.7829   -1.1684 H   0  0  0  0  0  0  0  0  0  0  0  0
    1.4333   13.0263    1.0094 H   0  0  0  0  0  0  0  0  0  0  0  0
    2.8992   13.6307    0.0504 H   0  0  0  0  0  0  0  0  0  0  0  0
    0.0025   14.4549   -0.2855 H   0  0  0  0  0  0  0  0  0  0  0  0
    1.4002   15.4492    0.2846 H   0  0  0  0  0  0  0  0  0  0  0  0
    3.3519   15.4134   -0.8809 H   0  0  0  0  0  0  0  0  0  0  0  0
    3.4600   14.5186   -2.4347 H   0  0  0  0  0  0  0  0  0  0  0  0
    3.0960   16.2776   -2.4347 H   0  0  0  0  0  0  0  0  0  0  0  0
  1  2  1  0
  2  3  1  0
  3  4  1  0
  4  5  1  0
  5  6  1  0
  6  7  1  0
  7  8  1  0
  7  9  1  0
  2 10  1  0
 10 11  1  0
 11 12  1  0
 12 13  1  0
 13 14  1  1
 13 15  1  0
 15 16  1  0
 16 17  1  0
 17 18  2  0
 18 19  1  0
 19 20  1  0
 20 21  1  0
 21 22  1  0
 22 23  1  0
 22 24  1  0
 24 25  1  0
 24 26  1  0
 19 27  1  0
 27 28  1  6
 27 29  1  0
 29 30  1  0
 30 31  1  0
 31 32  1  1
  7  5  1  0
 31 10  1  0
 31 13  1  0
 27 15  1  0
 24 18  1  0
  1 33  1  0
  1 34  1  0
  1 35  1  0
  2 36  1  6
  3 37  1  0
  3 38  1  0
  4 39  1  0
  4 40  1  0
  5 41  1  1
  8 42  1  0
  8 43  1  0
  8 44  1  0
  9 45  1  0
  9 46  1  0
  9 47  1  0
 10 48  1  1
 11 49  1  0
 11 50  1  0
 12 51  1  0
 12 52  1  0
 14 53  1  0
 14 54  1  0
 14 55  1  0
 15 56  1  6
 16 57  1  0
 16 58  1  0
 17 59  1  0
 19 60  1  1
 20 61  1  0
 20 62  1  0
 21 63  1  0
 21 64  1  0
 22 65  1  1
 23 66  1  0
 25 67  1  0
 25 68  1  0
 25 69  1  0
 26 70  1  0
 26 71  1  0
 26 72  1  0
 28 73  1  0
 28 74  1  0
 28 75  1  0
 29 76  1  0
 29 77  1  0
 30 78  1  0
 30 79  1  0
 32 80  1  0
 32 81  1  0
 32 82  1  0
M  END
>  <meeko>  (2) 
{"is_sidechain": [false], "intermolecular_energy": 2.731, "internal_energy": -0.839}

$$$$
EPH_relaxed_0001_pdb2pqr_Repair_79_r2_0001_out
     RDKit          3D

 82 86  0  0  0  0  0  0  0  0999 V2000
    0.4040   18.3950   -0.0340 C   0  0  0  0  0  0  0  0  0  0  0  0
    1.4940   17.3440   -0.2580 C   0  0  2  0  0  0  0  0  0  0  0  0
    2.7010   17.9140   -1.0300 C   0  0  0  0  0  0  0  0  0  0  0  0
    3.9300   18.1630   -0.1530 C   0  0  0  0  0  0  0  0  0  0  0  0
    3.5480   18.6380    1.2160 C   0  0  2  0  0  0  0  0  0  0  0  0
    3.7970   20.0290    1.4590 O   0  0  0  0  0  0  0  0  0  0  0  0
    4.5540   19.1020    2.2530 C   0  0  0  0  0  0  0  0  0  0  0  0
    6.0230   19.1110    1.9650 C   0  0  0  0  0  0  0  0  0  0  0  0
    4.1570   19.0790    3.6960 C   0  0  0  0  0  0  0  0  0  0  0  0
    0.9160   16.1470   -1.0040 C   0  0  1  0  0  0  0  0  0  0  0  0
    0.7900   16.3980   -2.5300 C   0  0  0  0  0  0  0  0  0  0  0  0
    1.0750   15.0460   -3.2320 C   0  0  0  0  0  0  0  0  0  0  0  0
    1.0270   13.9990   -2.0940 C   0  0  1  0  0  0  0  0  0  0  0  0
   -0.4910   13.7100   -1.8780 C   0  0  0  0  0  0  0  0  0  0  0  0
    1.8370   12.6820   -2.3320 C   0  0  2  0  0  0  0  0  0  0  0  0
    1.3650   11.8330   -3.5250 C   0  0  0  0  0  0  0  0  0  0  0  0
    0.3290   10.8060   -3.2070 C   0  0  0  0  0  0  0  0  0  0  0  0
    0.0040   10.3790   -1.9730 C   0  0  0  0  0  0  0  0  0  0  0  0
    0.7760   10.8710   -0.7410 C   0  0  1  0  0  0  0  0  0  0  0  0
    1.1260    9.6620    0.1660 C   0  0  0  0  0  0  0  0  0  0  0  0
   -0.1010    8.8340    0.5380 C   0  0  0  0  0  0  0  0  0  0  0  0
   -0.8070    8.3160   -0.7120 C   0  0  2  0  0  0  0  0  0  0  0  0
    0.0470    7.3730   -1.3670 O   0  0  0  0  0  0  0  0  0  0  0  0
   -1.2000    9.4430   -1.7060 C   0  0  0  0  0  0  0  0  0  0  0  0
   -2.3500   10.2900   -1.1060 C   0  0  0  0  0  0  0  0  0  0  0  0
   -1.7760    8.7740   -2.9840 C   0  0  0  0  0  0  0  0  0  0  0  0
    2.0320   11.7980   -1.0350 C   0  0  1  0  0  0  0  0  0  0  0  0
    3.2960   10.9190   -1.2810 C   0  0  0  0  0  0  0  0  0  0  0  0
    2.3390   12.6680    0.2420 C   0  0  0  0  0  0  0  0  0  0  0  0
    1.5970   14.0130    0.3600 C   0  0  0  0  0  0  0  0  0  0  0  0
    1.7090   14.8170   -0.9380 C   0  0  2  0  0  0  0  0  0  0  0  0
    3.2250   15.1420   -1.1700 C   0  0  0  0  0  0  0  0  0  0  0  0
    0.2521   18.5414    1.0456 H   0  0  0  0  0  0  0  0  0  0  0  0
    0.7117   19.3460   -0.4933 H   0  0  0  0  0  0  0  0  0  0  0  0
   -0.5352   18.0529   -0.4933 H   0  0  0  0  0  0  0  0  0  0  0  0
    1.8557   17.0263    0.7311 H   0  0  0  0  0  0  0  0  0  0  0  0
    2.9769   17.1997   -1.8198 H   0  0  0  0  0  0  0  0  0  0  0  0
    2.3922   18.8890   -1.4351 H   0  0  0  0  0  0  0  0  0  0  0  0
    4.4969   17.2250   -0.0594 H   0  0  0  0  0  0  0  0  0  0  0  0
    4.5382   18.9458   -0.6299 H   0  0  0  0  0  0  0  0  0  0  0  0
    2.7223   17.9126    1.2619 H   0  0  0  0  0  0  0  0  0  0  0  0
    6.5823   19.1144    2.9122 H   0  0  0  0  0  0  0  0  0  0  0  0
    6.2886   18.2145    1.3856 H   0  0  0  0  0  0  0  0  0  0  0  0
    6.2776   20.0107    1.3856 H   0  0  0  0  0  0  0  0  0  0  0  0
    5.0579   19.1312    4.3250 H   0  0  0  0  0  0  0  0  0  0  0  0
    3.5087   19.9411    3.9117 H   0  0  0  0  0  0  0  0  0  0  0  0
    3.6126   18.1478    3.9117 H   0  0  0  0  0  0  0  0  0  0  0  0
   -0.0403   16.0420   -0.4707 H   0  0  0  0  0  0  0  0  0  0  0  0
   -0.2250   16.7447   -2.7741 H   0  0  0  0  0  0  0  0  0  0  0  0
    1.4978   17.1718   -2.8622 H   0  0  0  0  0  0  0  0  0  0  0  0
    0.3066   14.8320   -3.9895 H   0  0  0  0  0  0  0  0  0  0  0  0
    2.0400   15.0449   -3.7601 H   0  0  0  0  0  0  0  0  0  0  0  0
   -0.7067   13.6689   -0.8001 H   0  0  0  0  0  0  0  0  0  0  0  0
   -1.0862   14.5110   -2.3408 H   0  0  0  0  0  0  0  0  0  0  0  0
   -0.7503   12.7464   -2.3408 H   0  0  0  0  0  0  0  0  0  0  0  0
    2.8306   13.0629   -2.6107 H   0  0  0  0  0  0  0  0  0  0  0  0
    0.9480   12.5132   -4.2823 H   0  0  0  0  0  0  0  0  0  0  0  0
    2.2486   11.2767   -3.8710 H   0  0  0  0  0  0  0  0  0  0  0  0
   -0.2147   10.3607   -4.0532 H   0  0  0  0  0  0  0  0  0  0  0  0
    0.0975   11.5534   -0.2082 H   0  0  0  0  0  0  0  0  0  0  0  0
    1.8388    9.0159   -0.3674 H   0  0  0  0  0  0  0  0  0  0  0  0
    1.5565   10.0576    1.0978 H   0  0  0  0  0  0  0  0  0  0  0  0
    0.2146    7.9790    1.1540 H   0  0  0  0  0  0  0  0  0  0  0  0
   -0.8001    9.4729    1.0975 H   0  0  0  0  0  0  0  0  0  0  0  0
   -1.7458    7.8434   -0.3876 H   0  0  0  0  0  0  0  0  0  0  0  0
   -0.4520    6.9890   -2.1080 H   0  0  0  0  0  0  0  0  0  0  0  0
   -2.2988   10.2523   -0.0078 H   0  0  0  0  0  0  0  0  0  0  0  0
   -2.2513   11.3327   -1.4421 H   0  0  0  0  0  0  0  0  0  0  0  0
   -3.3165    9.8864   -1.4421 H   0  0  0  0  0  0  0  0  0  0  0  0
   -2.4687    7.9694   -2.6963 H   0  0  0  0  0  0  0  0  0  0  0  0
   -2.3142    9.5254   -3.5804 H   0  0  0  0  0  0  0  0  0  0  0  0
   -0.9530    8.3534   -3.5804 H   0  0  0  0  0  0  0  0  0  0  0  0
    3.7276   10.6189   -0.3148 H   0  0  0  0  0  0  0  0  0  0  0  0
    3.0133   10.0216   -1.8509 H   0  0  0  0  0  0  0  0  0  0  0  0
    4.0389   11.4964   -1.8509 H   0  0  0  0  0  0  0  0  0  0  0  0
    2.0795   12.0660    1.1253 H   0  0  0  0  0  0  0  0  0  0  0  0
    3.4037   12.9323    0.1615 H   0  0  0  0  0  0  0  0  0  0  0  0
    0.5352   13.8206    0.5735 H   0  0  0  0  0  0  0  0  0  0  0  0
    2.0542   14.5953    1.1735 H   0  0  0  0  0  0  0  0  0  0  0  0
    3.7296   15.2502   -0.1986 H   0  0  0  0  0  0  0  0  0  0  0  0
    3.6928   14.3237   -1.7371 H   0  0  0  0  0  0  0  0  0  0  0  0
    3.3163   16.0801   -1.7371 H   0  0  0  0  0  0  0  0  0  0  0  0
  1  2  1  0
  2  3  1  0
  3  4  1  0
  4  5  1  0
  5  6  1  0
  6  7  1  0
  7  8  1  0
  7  9  1  0
  2 10  1  0
 10 11  1  0
 11 12  1  0
 12 13  1  0
 13 14  1  1
 13 15  1  0
 15 16  1  0
 16 17  1  0
 17 18  2  0
 18 19  1  0
 19 20  1  0
 20 21  1  0
 21 22  1  0
 22 23  1  0
 22 24  1  0
 24 25  1  0
 24 26  1  0
 19 27  1  0
 27 28  1  6
 27 29  1  0
 29 30  1  0
 30 31  1  0
 31 32  1  6
  7  5  1  0
 31 10  1  0
 31 13  1  0
 27 15  1  0
 24 18  1  0
  1 33  1  0
  1 34  1  0
  1 35  1  0
  2 36  1  1
  3 37  1  0
  3 38  1  0
  4 39  1  0
  4 40  1  0
  5 41  1  1
  8 42  1  0
  8 43  1  0
  8 44  1  0
  9 45  1  0
  9 46  1  0
  9 47  1  0
 10 48  1  1
 11 49  1  0
 11 50  1  0
 12 51  1  0
 12 52  1  0
 14 53  1  0
 14 54  1  0
 14 55  1  0
 15 56  1  6
 16 57  1  0
 16 58  1  0
 17 59  1  0
 19 60  1  1
 20 61  1  0
 20 62  1  0
 21 63  1  0
 21 64  1  0
 22 65  1  1
 23 66  1  0
 25 67  1  0
 25 68  1  0
 25 69  1  0
 26 70  1  0
 26 71  1  0
 26 72  1  0
 28 73  1  0
 28 74  1  0
 28 75  1  0
 29 76  1  0
 29 77  1  0
 30 78  1  0
 30 79  1  0
 32 80  1  0
 32 81  1  0
 32 82  1  0
M  END
>  <meeko>  (3) 
{"is_sidechain": [false], "intermolecular_energy": 2.731, "internal_energy": -0.839}

$$$$
EPH_relaxed_0001_pdb2pqr_Repair_79_r2_0001_out
     RDKit          3D

 82 86  0  0  0  0  0  0  0  0999 V2000
    3.7450   17.9360    0.7540 C   0  0  0  0  0  0  0  0  0  0  0  0
    2.6570   18.4110   -0.2120 C   0  0  2  0  0  0  0  0  0  0  0  0
    1.9180   19.6590    0.3130 C   0  0  0  0  0  0  0  0  0  0  0  0
    0.6400   19.3350    1.0920 C   0  0  0  0  0  0  0  0  0  0  0  0
   -0.5540   20.0280    0.5100 C   0  0  2  0  0  0  0  0  0  0  0  0
   -1.6510   20.1940    1.4180 O   0  0  0  0  0  0  0  0  0  0  0  0
   -1.8900   19.3450    0.2850 C   0  0  0  0  0  0  0  0  0  0  0  0
   -2.1000   17.9050    0.6370 C   0  0  0  0  0  0  0  0  0  0  0  0
   -2.8330   19.9310   -0.7200 C   0  0  0  0  0  0  0  0  0  0  0  0
    1.6610   17.2860   -0.4680 C   0  0  1  0  0  0  0  0  0  0  0  0
    0.4620   17.7370   -1.3430 C   0  0  0  0  0  0  0  0  0  0  0  0
    0.0730   16.5250   -2.2280 C   0  0  0  0  0  0  0  0  0  0  0  0
    0.8310   15.3290   -1.6070 C   0  0  1  0  0  0  0  0  0  0  0  0
   -0.0450   14.8850   -0.3940 C   0  0  0  0  0  0  0  0  0  0  0  0
    1.1390   14.1320   -2.5650 C   0  0  2  0  0  0  0  0  0  0  0  0
   -0.0980   13.4210   -3.1390 C   0  0  0  0  0  0  0  0  0  0  0  0
   -0.6090   12.2760   -2.3290 C   0  0  0  0  0  0  0  0  0  0  0  0
    0.0630   11.6540   -1.3420 C   0  0  0  0  0  0  0  0  0  0  0  0
    1.5150   12.0320   -1.0190 C   0  0  1  0  0  0  0  0  0  0  0  0
    2.3640   10.7430   -0.8670 C   0  0  0  0  0  0  0  0  0  0  0  0
    1.7740    9.7700    0.1500 C   0  0  0  0  0  0  0  0  0  0  0  0
    0.3520    9.3730   -0.2380 C   0  0  2  0  0  0  0  0  0  0  0  0
    0.4000    8.6070   -1.4450 O   0  0  0  0  0  0  0  0  0  0  0  0
   -0.5940   10.5910   -0.4280 C   0  0  0  0  0  0  0  0  0  0  0  0
   -0.8860   11.2450    0.9450 C   0  0  0  0  0  0  0  0  0  0  0  0
   -1.9560   10.0610   -0.9540 C   0  0  0  0  0  0  0  0  0  0  0  0
    2.1870   13.0950   -1.9900 C   0  0  1  0  0  0  0  0  0  0  0  0
    2.8150   12.3700   -3.2200 C   0  0  0  0  0  0  0  0  0  0  0  0
    3.3760   13.8010   -1.2370 C   0  0  0  0  0  0  0  0  0  0  0  0
    3.0270   15.0480   -0.4020 C   0  0  0  0  0  0  0  0  0  0  0  0
    2.1820   16.0330   -1.2160 C   0  0  2  0  0  0  0  0  0  0  0  0
    3.0450   16.5140   -2.4310 C   0  0  0  0  0  0  0  0  0  0  0  0
    3.4058   18.0841    1.7898 H   0  0  0  0  0  0  0  0  0  0  0  0
    3.9462   16.8681    0.5832 H   0  0  0  0  0  0  0  0  0  0  0  0
    4.6650   18.5144    0.5832 H   0  0  0  0  0  0  0  0  0  0  0  0
    3.1512   18.6915   -1.1538 H   0  0  0  0  0  0  0  0  0  0  0  0
    2.5987   20.2121    0.9769 H   0  0  0  0  0  0  0  0  0  0  0  0
    1.6182   20.2486   -0.5659 H   0  0  0  0  0  0  0  0  0  0  0  0
    0.4707   18.2485    1.0633 H   0  0  0  0  0  0  0  0  0  0  0  0
    0.7703   19.6863    2.1262 H   0  0  0  0  0  0  0  0  0  0  0  0
    0.0874   20.6303   -0.1502 H   0  0  0  0  0  0  0  0  0  0  0  0
   -2.1162   17.7936    1.7312 H   0  0  0  0  0  0  0  0  0  0  0  0
   -3.0578   17.5613    0.2192 H   0  0  0  0  0  0  0  0  0  0  0  0
   -1.2803   17.3021    0.2192 H   0  0  0  0  0  0  0  0  0  0  0  0
   -3.6550   20.4418   -0.1972 H   0  0  0  0  0  0  0  0  0  0  0  0
   -2.2943   20.6537   -1.3505 H   0  0  0  0  0  0  0  0  0  0  0  0
   -3.2424   19.1280   -1.3505 H   0  0  0  0  0  0  0  0  0  0  0  0
    1.4050   17.0260    0.5697 H   0  0  0  0  0  0  0  0  0  0  0  0
   -0.3852   18.0269   -0.7041 H   0  0  0  0  0  0  0  0  0  0  0  0
    0.7291   18.6073   -1.9605 H   0  0  0  0  0  0  0  0  0  0  0  0
   -1.0133   16.3545   -2.1972 H   0  0  0  0  0  0  0  0  0  0  0  0
    0.3334   16.6801   -3.2854 H   0  0  0  0  0  0  0  0  0  0  0  0
    0.4682   15.1451    0.5436 H   0  0  0  0  0  0  0  0  0  0  0  0
   -1.0163   15.3996   -0.4353 H   0  0  0  0  0  0  0  0  0  0  0  0
   -0.2042   13.7974   -0.4353 H   0  0  0  0  0  0  0  0  0  0  0  0
    1.6196   14.6312   -3.4193 H   0  0  0  0  0  0  0  0  0  0  0  0
   -0.9058   14.1624   -3.2268 H   0  0  0  0  0  0  0  0  0  0  0  0
    0.2162   12.9951   -4.1033 H   0  0  0  0  0  0  0  0  0  0  0  0
   -1.6205   11.9093   -2.5580 H   0  0  0  0  0  0  0  0  0  0  0  0
    1.4829   12.5724   -0.0614 H   0  0  0  0  0  0  0  0  0  0  0  0
    2.4204   10.2407   -1.8440 H   0  0  0  0  0  0  0  0  0  0  0  0
    3.3599   11.0398   -0.5062 H   0  0  0  0  0  0  0  0  0  0  0  0
    2.4015    8.8675    0.1911 H   0  0  0  0  0  0  0  0  0  0  0  0
    1.7456   10.2630    1.1329 H   0  0  0  0  0  0  0  0  0  0  0  0
   -0.0629    8.7810    0.5911 H   0  0  0  0  0  0  0  0  0  0  0  0
   -0.1710    7.8290   -1.3230 H   0  0  0  0  0  0  0  0  0  0  0  0
   -0.5803   10.5602    1.7497 H   0  0  0  0  0  0  0  0  0  0  0  0
   -0.3225   12.1858    1.0303 H   0  0  0  0  0  0  0  0  0  0  0  0
   -1.9627   11.4535    1.0303 H   0  0  0  0  0  0  0  0  0  0  0  0
   -2.6048    9.8085   -0.1024 H   0  0  0  0  0  0  0  0  0  0  0  0
   -2.4396   10.8366   -1.5661 H   0  0  0  0  0  0  0  0  0  0  0  0
   -1.7882    9.1626   -1.5661 H   0  0  0  0  0  0  0  0  0  0  0  0
    3.4981   11.5814   -2.8714 H   0  0  0  0  0  0  0  0  0  0  0  0
    2.0160   11.9206   -3.8280 H   0  0  0  0  0  0  0  0  0  0  0  0
    3.3738   13.0967   -3.8280 H   0  0  0  0  0  0  0  0  0  0  0  0
    3.8260   13.0614   -0.5584 H   0  0  0  0  0  0  0  0  0  0  0  0
    4.0443   14.1645   -2.0315 H   0  0  0  0  0  0  0  0  0  0  0  0
    2.4605   14.7380    0.4885 H   0  0  0  0  0  0  0  0  0  0  0  0
    3.9623   15.5470   -0.1084 H   0  0  0  0  0  0  0  0  0  0  0  0
    3.9499   17.0184   -2.0612 H   0  0  0  0  0  0  0  0  0  0  0  0
    3.3329   15.6462   -3.0426 H   0  0  0  0  0  0  0  0  0  0  0  0
    2.4584   17.2153   -3.0426 H   0  0  0  0  0  0  0  0  0  0  0  0
  1  2  1  0
  2  3  1  0
  3  4  1  0
  4  5  1  0
  5  6  1  0
  6  7  1  0
  7  8  1  0
  7  9  1  0
  2 10  1  0
 10 11  1  0
 11 12  1  0
 12 13  1  0
 13 14  1  1
 13 15  1  0
 15 16  1  0
 16 17  1  0
 17 18  2  0
 18 19  1  0
 19 20  1  0
 20 21  1  0
 21 22  1  0
 22 23  1  0
 22 24  1  0
 24 25  1  0
 24 26  1  0
 19 27  1  0
 27 28  1  6
 27 29  1  0
 29 30  1  0
 30 31  1  0
 31 32  1  6
  7  5  1  0
 31 10  1  0
 31 13  1  0
 27 15  1  0
 24 18  1  0
  1 33  1  0
  1 34  1  0
  1 35  1  0
  2 36  1  6
  3 37  1  0
  3 38  1  0
  4 39  1  0
  4 40  1  0
  5 41  1  6
  8 42  1  0
  8 43  1  0
  8 44  1  0
  9 45  1  0
  9 46  1  0
  9 47  1  0
 10 48  1  1
 11 49  1  0
 11 50  1  0
 12 51  1  0
 12 52  1  0
 14 53  1  0
 14 54  1  0
 14 55  1  0
 15 56  1  6
 16 57  1  0
 16 58  1  0
 17 59  1  0
 19 60  1  1
 20 61  1  0
 20 62  1  0
 21 63  1  0
 21 64  1  0
 22 65  1  1
 23 66  1  0
 25 67  1  0
 25 68  1  0
 25 69  1  0
 26 70  1  0
 26 71  1  0
 26 72  1  0
 28 73  1  0
 28 74  1  0
 28 75  1  0
 29 76  1  0
 29 77  1  0
 30 78  1  0
 30 79  1  0
 32 80  1  0
 32 81  1  0
 32 82  1  0
M  END
>  <meeko>  (4) 
{"is_sidechain": [false], "intermolecular_energy": 2.731, "internal_energy": -0.839}

$$$$
EPH_relaxed_0001_pdb2pqr_Repair_79_r2_0001_out
     RDKit          3D

 82 86  0  0  0  0  0  0  0  0999 V2000
    0.4400    8.8220   -2.3840 C   0  0  0  0  0  0  0  0  0  0  0  0
    1.1850    9.9670   -3.0770 C   0  0  2  0  0  0  0  0  0  0  0  0
    2.6840    9.9860   -2.7170 C   0  0  0  0  0  0  0  0  0  0  0  0
    3.5730   10.5690   -3.8180 C   0  0  0  0  0  0  0  0  0  0  0  0
    4.9680   10.8190   -3.3300 C   0  0  2  0  0  0  0  0  0  0  0  0
    5.5530   12.0440   -3.7890 O   0  0  0  0  0  0  0  0  0  0  0  0
    6.1830   10.8340   -4.2400 C   0  0  0  0  0  0  0  0  0  0  0  0
    6.0580   10.5950   -5.7120 C   0  0  0  0  0  0  0  0  0  0  0  0
    7.5320   10.5950   -3.6360 C   0  0  0  0  0  0  0  0  0  0  0  0
    0.5440   11.3000   -2.7090 C   0  0  1  0  0  0  0  0  0  0  0  0
   -0.8310   11.1300   -2.0110 C   0  0  0  0  0  0  0  0  0  0  0  0
   -0.9470   12.2710   -0.9670 C   0  0  0  0  0  0  0  0  0  0  0  0
    0.2010   13.2440   -1.3240 C   0  0  1  0  0  0  0  0  0  0  0  0
   -0.3520   14.1000   -2.5060 C   0  0  0  0  0  0  0  0  0  0  0  0
    0.7320   14.1430   -0.1600 C   0  0  2  0  0  0  0  0  0  0  0  0
   -0.2990   15.1180    0.4340 C   0  0  0  0  0  0  0  0  0  0  0  0
   -0.3460   16.4650   -0.2090 C   0  0  0  0  0  0  0  0  0  0  0  0
    0.5930   16.9750   -1.0270 C   0  0  0  0  0  0  0  0  0  0  0  0
    1.8950   16.2120   -1.3020 C   0  0  1  0  0  0  0  0  0  0  0  0
    3.1000   17.1810   -1.1760 C   0  0  0  0  0  0  0  0  0  0  0  0
    2.9510   18.4180   -2.0560 C   0  0  0  0  0  0  0  0  0  0  0  0
    1.6750   19.1810   -1.7120 C   0  0  2  0  0  0  0  0  0  0  0  0
    1.8020   19.7220   -0.3930 O   0  0  0  0  0  0  0  0  0  0  0  0
    0.3950   18.3040   -1.7960 C   0  0  0  0  0  0  0  0  0  0  0  0
    0.0900   17.9680   -3.2770 C   0  0  0  0  0  0  0  0  0  0  0  0
   -0.8010   19.1550   -1.2890 C   0  0  0  0  0  0  0  0  0  0  0  0
    2.1010   14.8700   -0.4760 C   0  0  1  0  0  0  0  0  0  0  0  0
    2.7630   15.1890    0.9000 C   0  0  0  0  0  0  0  0  0  0  0  0
    3.1090   13.9390   -1.2480 C   0  0  0  0  0  0  0  0  0  0  0  0
    2.5090   12.9890   -2.3020 C   0  0  0  0  0  0  0  0  0  0  0  0
    1.3190   12.2150   -1.7270 C   0  0  2  0  0  0  0  0  0  0  0  0
    1.8490   11.3280   -0.5500 C   0  0  0  0  0  0  0  0  0  0  0  0
    0.5176    8.9412   -1.2932 H   0  0  0  0  0  0  0  0  0  0  0  0
   -0.6191    8.8411   -2.6806 H   0  0  0  0  0  0  0  0  0  0  0  0
    0.8865    7.8614   -2.6806 H   0  0  0  0  0  0  0  0  0  0  0  0
    1.1085    9.8039   -4.1622 H   0  0  0  0  0  0  0  0  0  0  0  0
    2.8153   10.5909   -1.8077 H   0  0  0  0  0  0  0  0  0  0  0  0
    2.9937    8.9403   -2.5733 H   0  0  0  0  0  0  0  0  0  0  0  0
    3.6110    9.8601   -4.6582 H   0  0  0  0  0  0  0  0  0  0  0  0
    3.1424   11.5310   -4.1329 H   0  0  0  0  0  0  0  0  0  0  0  0
    4.7578   10.2911   -2.3881 H   0  0  0  0  0  0  0  0  0  0  0  0
    5.5546    9.6325   -5.8857 H   0  0  0  0  0  0  0  0  0  0  0  0
    5.4679   11.4047   -6.1661 H   0  0  0  0  0  0  0  0  0  0  0  0
    7.0596   10.5722   -6.1661 H   0  0  0  0  0  0  0  0  0  0  0  0
    7.4504   10.6095   -2.5391 H   0  0  0  0  0  0  0  0  0  0  0  0
    7.9117    9.6156   -3.9626 H   0  0  0  0  0  0  0  0  0  0  0  0
    8.2250   11.3844   -3.9626 H   0  0  0  0  0  0  0  0  0  0  0  0
    0.5035   11.7656   -3.7048 H   0  0  0  0  0  0  0  0  0  0  0  0
   -1.6428   11.2081   -2.7492 H   0  0  0  0  0  0  0  0  0  0  0  0
   -0.9101   10.1443   -1.5292 H   0  0  0  0  0  0  0  0  0  0  0  0
   -1.9219   12.7740   -1.0481 H   0  0  0  0  0  0  0  0  0  0  0  0
   -0.8739   11.9004    0.0661 H   0  0  0  0  0  0  0  0  0  0  0  0
   -0.9081   14.9609   -2.1065 H   0  0  0  0  0  0  0  0  0  0  0  0
    0.4856   14.4586   -3.1223 H   0  0  0  0  0  0  0  0  0  0  0  0
   -1.0232   13.4839   -3.1223 H   0  0  0  0  0  0  0  0  0  0  0  0
    0.9369   13.4074    0.6318 H   0  0  0  0  0  0  0  0  0  0  0  0
   -1.2946   14.6603    0.3378 H   0  0  0  0  0  0  0  0  0  0  0  0
    0.0081   15.2885    1.4764 H   0  0  0  0  0  0  0  0  0  0  0  0
   -1.2229   17.0939    0.0042 H   0  0  0  0  0  0  0  0  0  0  0  0
    1.8187   15.8442   -2.3359 H   0  0  0  0  0  0  0  0  0  0  0  0
    3.1857   17.5025   -0.1275 H   0  0  0  0  0  0  0  0  0  0  0  0
    3.9987   16.6410   -1.5089 H   0  0  0  0  0  0  0  0  0  0  0  0
    3.8178   19.0772   -1.9003 H   0  0  0  0  0  0  0  0  0  0  0  0
    2.8959   18.0971   -3.1067 H   0  0  0  0  0  0  0  0  0  0  0  0
    1.5573   19.9797   -2.4591 H   0  0  0  0  0  0  0  0  0  0  0  0
    0.9930   20.2250   -0.2020 H   0  0  0  0  0  0  0  0  0  0  0  0
   -0.6487   17.1543   -3.3237 H   0  0  0  0  0  0  0  0  0  0  0  0
   -0.3140   18.8592   -3.7795 H   0  0  0  0  0  0  0  0  0  0  0  0
    1.0161   17.6519   -3.7795 H   0  0  0  0  0  0  0  0  0  0  0  0
   -0.8075   19.1596   -0.1890 H   0  0  0  0  0  0  0  0  0  0  0  0
   -0.7006   20.1859   -1.6594 H   0  0  0  0  0  0  0  0  0  0  0  0
   -1.7420   18.7223   -1.6594 H   0  0  0  0  0  0  0  0  0  0  0  0
    2.0945   14.8669    1.7120 H   0  0  0  0  0  0  0  0  0  0  0  0
    3.7206   14.6534    0.9792 H   0  0  0  0  0  0  0  0  0  0  0  0
    2.9408   16.2716    0.9792 H   0  0  0  0  0  0  0  0  0  0  0  0
    3.8358   14.5872   -1.7595 H   0  0  0  0  0  0  0  0  0  0  0  0
    3.5397   13.2808   -0.4791 H   0  0  0  0  0  0  0  0  0  0  0  0
    2.1710   13.5784   -3.1670 H   0  0  0  0  0  0  0  0  0  0  0  0
    3.2826   12.2685   -2.6061 H   0  0  0  0  0  0  0  0  0  0  0  0
    1.5733   11.7894    0.4098 H   0  0  0  0  0  0  0  0  0  0  0  0
    1.4020   10.3251   -0.6166 H   0  0  0  0  0  0  0  0  0  0  0  0
    2.9440   11.2465   -0.6166 H   0  0  0  0  0  0  0  0  0  0  0  0
  1  2  1  0
  2  3  1  0
  3  4  1  0
  4  5  1  0
  5  6  1  0
  6  7  1  0
  7  8  1  0
  7  9  1  0
  2 10  1  0
 10 11  1  0
 11 12  1  0
 12 13  1  0
 13 14  1  6
 13 15  1  0
 15 16  1  0
 16 17  1  0
 17 18  2  0
 18 19  1  0
 19 20  1  0
 20 21  1  0
 21 22  1  0
 22 23  1  0
 22 24  1  0
 24 25  1  0
 24 26  1  0
 19 27  1  0
 27 28  1  1
 27 29  1  0
 29 30  1  0
 30 31  1  0
 31 32  1  1
  7  5  1  0
 31 10  1  0
 31 13  1  0
 27 15  1  0
 24 18  1  0
  1 33  1  0
  1 34  1  0
  1 35  1  0
  2 36  1  6
  3 37  1  0
  3 38  1  0
  4 39  1  0
  4 40  1  0
  5 41  1  1
  8 42  1  0
  8 43  1  0
  8 44  1  0
  9 45  1  0
  9 46  1  0
  9 47  1  0
 10 48  1  6
 11 49  1  0
 11 50  1  0
 12 51  1  0
 12 52  1  0
 14 53  1  0
 14 54  1  0
 14 55  1  0
 15 56  1  1
 16 57  1  0
 16 58  1  0
 17 59  1  0
 19 60  1  6
 20 61  1  0
 20 62  1  0
 21 63  1  0
 21 64  1  0
 22 65  1  6
 23 66  1  0
 25 67  1  0
 25 68  1  0
 25 69  1  0
 26 70  1  0
 26 71  1  0
 26 72  1  0
 28 73  1  0
 28 74  1  0
 28 75  1  0
 29 76  1  0
 29 77  1  0
 30 78  1  0
 30 79  1  0
 32 80  1  0
 32 81  1  0
 32 82  1  0
M  END
>  <meeko>  (5) 
{"is_sidechain": [false], "intermolecular_energy": 2.731, "internal_energy": -0.839}

$$$$
EPH_relaxed_0001_pdb2pqr_Repair_79_r2_0001_out
     RDKit          3D

 82 86  0  0  0  0  0  0  0  0999 V2000
    0.1660   17.7760   -2.5510 C   0  0  0  0  0  0  0  0  0  0  0  0
   -0.0740   16.8930   -1.3240 C   0  0  2  0  0  0  0  0  0  0  0  0
   -0.1160   17.7110   -0.0180 C   0  0  0  0  0  0  0  0  0  0  0  0
    0.5040   19.1050   -0.1460 C   0  0  0  0  0  0  0  0  0  0  0  0
    1.6480   19.2930    0.8050 C   0  0  2  0  0  0  0  0  0  0  0  0
    2.6640   20.1940    0.3490 O   0  0  0  0  0  0  0  0  0  0  0  0
    3.0610   18.8240    0.5170 C   0  0  0  0  0  0  0  0  0  0  0  0
    3.4070   18.1290   -0.7630 C   0  0  0  0  0  0  0  0  0  0  0  0
    3.9910   18.6020    1.6690 C   0  0  0  0  0  0  0  0  0  0  0  0
    1.0080   15.8230   -1.2340 C   0  0  1  0  0  0  0  0  0  0  0  0
    1.2120   15.3010    0.2130 C   0  0  0  0  0  0  0  0  0  0  0  0
    1.5610   13.7940    0.0990 C   0  0  0  0  0  0  0  0  0  0  0  0
    1.8710   13.5780   -1.4000 C   0  0  1  0  0  0  0  0  0  0  0  0
    3.3440   14.0610   -1.5790 C   0  0  0  0  0  0  0  0  0  0  0  0
    1.6700   12.1260   -1.9450 C   0  0  2  0  0  0  0  0  0  0  0  0
    2.5760   11.0580   -1.3070 C   0  0  0  0  0  0  0  0  0  0  0  0
    3.8810   10.8350   -1.9960 C   0  0  0  0  0  0  0  0  0  0  0  0
    4.1920   11.2540   -3.2370 C   0  0  0  0  0  0  0  0  0  0  0  0
    3.1470   11.9470   -4.1190 C   0  0  1  0  0  0  0  0  0  0  0  0
    3.1830   11.3340   -5.5440 C   0  0  0  0  0  0  0  0  0  0  0  0
    4.5790   11.3660   -6.1590 C   0  0  0  0  0  0  0  0  0  0  0  0
    5.5790   10.6170   -5.2810 C   0  0  2  0  0  0  0  0  0  0  0  0
    5.2430    9.2260   -5.2840 O   0  0  0  0  0  0  0  0  0  0  0  0
    5.6230   11.1400   -3.8180 C   0  0  0  0  0  0  0  0  0  0  0  0
    6.2730   12.5460   -3.7880 C   0  0  0  0  0  0  0  0  0  0  0  0
    6.5640   10.2100   -3.0060 C   0  0  0  0  0  0  0  0  0  0  0  0
    1.6750   12.0200   -3.5240 C   0  0  1  0  0  0  0  0  0  0  0  0
    0.8900   10.7220   -3.8850 C   0  0  0  0  0  0  0  0  0  0  0  0
    0.9020   13.2100   -4.2060 C   0  0  0  0  0  0  0  0  0  0  0  0
    1.0450   14.5970   -3.5520 C   0  0  0  0  0  0  0  0  0  0  0  0
    0.7900   14.5200   -2.0430 C   0  0  2  0  0  0  0  0  0  0  0  0
   -0.6920   14.0580   -1.8320 C   0  0  0  0  0  0  0  0  0  0  0  0
    0.4415   18.7898   -2.2249 H   0  0  0  0  0  0  0  0  0  0  0  0
    0.9812   17.3508   -3.1549 H   0  0  0  0  0  0  0  0  0  0  0  0
   -0.7522   17.8220   -3.1549 H   0  0  0  0  0  0  0  0  0  0  0  0
   -1.0583   16.4174   -1.4466 H   0  0  0  0  0  0  0  0  0  0  0  0
   -1.1667   17.8247    0.2872 H   0  0  0  0  0  0  0  0  0  0  0  0
    0.4793   17.1609    0.7257 H   0  0  0  0  0  0  0  0  0  0  0  0
    0.8699   19.2393   -1.1746 H   0  0  0  0  0  0  0  0  0  0  0  0
   -0.2698   19.8480    0.0975 H   0  0  0  0  0  0  0  0  0  0  0  0
    0.9837   19.1460    1.6693 H   0  0  0  0  0  0  0  0  0  0  0  0
    3.8869   17.1650   -0.5387 H   0  0  0  0  0  0  0  0  0  0  0  0
    2.4901   17.9554   -1.3454 H   0  0  0  0  0  0  0  0  0  0  0  0
    4.0982   18.7559   -1.3454 H   0  0  0  0  0  0  0  0  0  0  0  0
    3.4425   18.7329    2.6135 H   0  0  0  0  0  0  0  0  0  0  0  0
    4.3984   17.5814    1.6200 H   0  0  0  0  0  0  0  0  0  0  0  0
    4.8154   19.3286    1.6200 H   0  0  0  0  0  0  0  0  0  0  0  0
    1.8577   16.3850   -1.6490 H   0  0  0  0  0  0  0  0  0  0  0  0
    2.0351   15.8449    0.6995 H   0  0  0  0  0  0  0  0  0  0  0  0
    0.3067   15.4524    0.8192 H   0  0  0  0  0  0  0  0  0  0  0  0
    2.4386   13.5508    0.7160 H   0  0  0  0  0  0  0  0  0  0  0  0
    0.7438   13.1485    0.4533 H   0  0  0  0  0  0  0  0  0  0  0  0
    3.8032   14.2116   -0.5908 H   0  0  0  0  0  0  0  0  0  0  0  0
    3.9134   13.3025   -2.1362 H   0  0  0  0  0  0  0  0  0  0  0  0
    3.3538   15.0094   -2.1362 H   0  0  0  0  0  0  0  0  0  0  0  0
    0.6488   11.8885   -1.6123 H   0  0  0  0  0  0  0  0  0  0  0  0
    2.7862   11.3649   -0.2718 H   0  0  0  0  0  0  0  0  0  0  0  0
    2.0261   10.1082   -1.3818 H   0  0  0  0  0  0  0  0  0  0  0  0
    4.6541   10.2814   -1.4430 H   0  0  0  0  0  0  0  0  0  0  0  0
    3.4397   13.0065   -4.1604 H   0  0  0  0  0  0  0  0  0  0  0  0
    2.8467   10.2882   -5.4867 H   0  0  0  0  0  0  0  0  0  0  0  0
    2.5221   11.9370   -6.1839 H   0  0  0  0  0  0  0  0  0  0  0  0
    4.5462   10.8928   -7.1515 H   0  0  0  0  0  0  0  0  0  0  0  0
    4.9017   12.4142   -6.2433 H   0  0  0  0  0  0  0  0  0  0  0  0
    6.5802   10.7856   -5.7043 H   0  0  0  0  0  0  0  0  0  0  0  0
    4.5340    9.0930   -4.6320 H   0  0  0  0  0  0  0  0  0  0  0  0
    6.4184   12.8605   -2.7440 H   0  0  0  0  0  0  0  0  0  0  0  0
    7.2463   12.5110   -4.2993 H   0  0  0  0  0  0  0  0  0  0  0  0
    5.6158   13.2648   -4.2993 H   0  0  0  0  0  0  0  0  0  0  0  0
    6.4004   10.3717   -1.9303 H   0  0  0  0  0  0  0  0  0  0  0  0
    6.3479    9.1609   -3.2561 H   0  0  0  0  0  0  0  0  0  0  0  0
    7.6105   10.4385   -3.2561 H   0  0  0  0  0  0  0  0  0  0  0  0
    0.5812   10.2113   -2.9610 H   0  0  0  0  0  0  0  0  0  0  0  0
   -0.0010   10.9843   -4.4743 H   0  0  0  0  0  0  0  0  0  0  0  0
    1.5361   10.0547   -4.4743 H   0  0  0  0  0  0  0  0  0  0  0  0
    1.2637   13.2916   -5.2416 H   0  0  0  0  0  0  0  0  0  0  0  0
   -0.1634   12.9544   -4.1084 H   0  0  0  0  0  0  0  0  0  0  0  0
    2.0637   14.9738   -3.7262 H   0  0  0  0  0  0  0  0  0  0  0  0
    0.3026   15.2743   -3.9994 H   0  0  0  0  0  0  0  0  0  0  0  0
   -0.9055   13.9914   -0.7550 H   0  0  0  0  0  0  0  0  0  0  0  0
   -1.3728   14.7865   -2.2964 H   0  0  0  0  0  0  0  0  0  0  0  0
   -0.8382   13.0716   -2.2964 H   0  0  0  0  0  0  0  0  0  0  0  0
  1  2  1  0
  2  3  1  0
  3  4  1  0
  4  5  1  0
  5  6  1  0
  6  7  1  0
  7  8  1  0
  7  9  1  0
  2 10  1  0
 10 11  1  0
 11 12  1  0
 12 13  1  0
 13 14  1  1
 13 15  1  0
 15 16  1  0
 16 17  1  0
 17 18  2  0
 18 19  1  0
 19 20  1  0
 20 21  1  0
 21 22  1  0
 22 23  1  0
 22 24  1  0
 24 25  1  0
 24 26  1  0
 19 27  1  0
 27 28  1  1
 27 29  1  0
 29 30  1  0
 30 31  1  0
 31 32  1  6
  7  5  1  0
 31 10  1  0
 31 13  1  0
 27 15  1  0
 24 18  1  0
  1 33  1  0
  1 34  1  0
  1 35  1  0
  2 36  1  6
  3 37  1  0
  3 38  1  0
  4 39  1  0
  4 40  1  0
  5 41  1  1
  8 42  1  0
  8 43  1  0
  8 44  1  0
  9 45  1  0
  9 46  1  0
  9 47  1  0
 10 48  1  6
 11 49  1  0
 11 50  1  0
 12 51  1  0
 12 52  1  0
 14 53  1  0
 14 54  1  0
 14 55  1  0
 15 56  1  1
 16 57  1  0
 16 58  1  0
 17 59  1  0
 19 60  1  6
 20 61  1  0
 20 62  1  0
 21 63  1  0
 21 64  1  0
 22 65  1  6
 23 66  1  0
 25 67  1  0
 25 68  1  0
 25 69  1  0
 26 70  1  0
 26 71  1  0
 26 72  1  0
 28 73  1  0
 28 74  1  0
 28 75  1  0
 29 76  1  0
 29 77  1  0
 30 78  1  0
 30 79  1  0
 32 80  1  0
 32 81  1  0
 32 82  1  0
M  END
>  <meeko>  (6) 
{"is_sidechain": [false], "intermolecular_energy": 2.731, "internal_energy": -0.839}

$$$$
EPH_relaxed_0001_pdb2pqr_Repair_79_r2_0001_out
     RDKit          3D

 82 86  0  0  0  0  0  0  0  0999 V2000
   -0.8510   16.3550   -5.8410 C   0  0  0  0  0  0  0  0  0  0  0  0
    0.2340   15.6500   -6.6590 C   0  0  2  0  0  0  0  0  0  0  0  0
   -0.1750   15.4720   -8.1350 C   0  0  0  0  0  0  0  0  0  0  0  0
    0.4560   16.5010   -9.0770 C   0  0  0  0  0  0  0  0  0  0  0  0
    1.8560   16.1210   -9.4550 C   0  0  2  0  0  0  0  0  0  0  0  0
    2.3170   16.6860  -10.6890 O   0  0  0  0  0  0  0  0  0  0  0  0
    2.1930   15.2550  -10.6540 C   0  0  0  0  0  0  0  0  0  0  0  0
    1.1240   14.7150  -11.5520 C   0  0  0  0  0  0  0  0  0  0  0  0
    3.5050   14.5350  -10.6710 C   0  0  0  0  0  0  0  0  0  0  0  0
    0.5530   14.2940   -6.0400 C   0  0  1  0  0  0  0  0  0  0  0  0
    1.8160   13.6370   -6.6580 C   0  0  0  0  0  0  0  0  0  0  0  0
    2.5250   12.8670   -5.5140 C   0  0  0  0  0  0  0  0  0  0  0  0
    1.4870   12.8280   -4.3690 C   0  0  1  0  0  0  0  0  0  0  0  0
    0.5290   11.6520   -4.7360 C   0  0  0  0  0  0  0  0  0  0  0  0
    2.0600   12.6750   -2.9220 C   0  0  2  0  0  0  0  0  0  0  0  0
    2.8280   11.3680   -2.6590 C   0  0  0  0  0  0  0  0  0  0  0  0
    2.0020   10.2340   -2.1500 C   0  0  0  0  0  0  0  0  0  0  0  0
    0.7600   10.3370   -1.6430 C   0  0  0  0  0  0  0  0  0  0  0  0
    0.0970   11.7080   -1.4540 C   0  0  1  0  0  0  0  0  0  0  0  0
   -0.5470   11.7810   -0.0450 C   0  0  0  0  0  0  0  0  0  0  0  0
   -1.5090   10.6270    0.2190 C   0  0  0  0  0  0  0  0  0  0  0  0
   -0.8000    9.2830    0.0790 C   0  0  2  0  0  0  0  0  0  0  0  0
    0.1670    9.1600    1.1270 O   0  0  0  0  0  0  0  0  0  0  0  0
   -0.1040    9.0980   -1.2990 C   0  0  0  0  0  0  0  0  0  0  0  0
   -1.1750    8.9290   -2.4040 C   0  0  0  0  0  0  0  0  0  0  0  0
    0.6910    7.7650   -1.2570 C   0  0  0  0  0  0  0  0  0  0  0  0
    1.0100   12.9690   -1.7750 C   0  0  1  0  0  0  0  0  0  0  0  0
    1.8310   13.3660   -0.5100 C   0  0  0  0  0  0  0  0  0  0  0  0
    0.0870   14.1990   -2.1090 C   0  0  0  0  0  0  0  0  0  0  0  0
   -0.3480   14.3630   -3.5780 C   0  0  0  0  0  0  0  0  0  0  0  0
    0.8550   14.2590   -4.5210 C   0  0  2  0  0  0  0  0  0  0  0  0
    1.8260   15.4430   -4.1890 C   0  0  0  0  0  0  0  0  0  0  0  0
   -0.6462   16.2219   -4.7685 H   0  0  0  0  0  0  0  0  0  0  0  0
   -0.8539   17.4280   -6.0834 H   0  0  0  0  0  0  0  0  0  0  0  0
   -1.8326   15.9217   -6.0834 H   0  0  0  0  0  0  0  0  0  0  0  0
    1.1300   16.2879   -6.6393 H   0  0  0  0  0  0  0  0  0  0  0  0
    0.1323   14.4676   -8.4618 H   0  0  0  0  0  0  0  0  0  0  0  0
   -1.2645   15.6150   -8.1861 H   0  0  0  0  0  0  0  0  0  0  0  0
   -0.1537   16.5696   -9.9900 H   0  0  0  0  0  0  0  0  0  0  0  0
    0.4924   17.4680   -8.5539 H   0  0  0  0  0  0  0  0  0  0  0  0
    2.1510   16.0629   -8.3969 H   0  0  0  0  0  0  0  0  0  0  0  0
    0.3068   14.3022  -10.9422 H   0  0  0  0  0  0  0  0  0  0  0  0
    0.7349   15.5247  -12.1868 H   0  0  0  0  0  0  0  0  0  0  0  0
    1.5448   13.9213  -12.1868 H   0  0  0  0  0  0  0  0  0  0  0  0
    3.8367   14.3529   -9.6381 H   0  0  0  0  0  0  0  0  0  0  0  0
    3.3892   13.5741  -11.1937 H   0  0  0  0  0  0  0  0  0  0  0  0
    4.2534   15.1488  -11.1937 H   0  0  0  0  0  0  0  0  0  0  0  0
   -0.3914   13.7699   -6.2483 H   0  0  0  0  0  0  0  0  0  0  0  0
    1.5274   12.9420   -7.4603 H   0  0  0  0  0  0  0  0  0  0  0  0
    2.4818   14.3955   -7.0954 H   0  0  0  0  0  0  0  0  0  0  0  0
    2.7870   11.8482   -5.8356 H   0  0  0  0  0  0  0  0  0  0  0  0
    3.4660   13.3476   -5.2081 H   0  0  0  0  0  0  0  0  0  0  0  0
    0.1499   11.1866   -3.8142 H   0  0  0  0  0  0  0  0  0  0  0  0
   -0.3154   12.0375   -5.3262 H   0  0  0  0  0  0  0  0  0  0  0  0
    1.0773   10.9030   -5.3262 H   0  0  0  0  0  0  0  0  0  0  0  0
    2.8120   13.4768   -2.8801 H   0  0  0  0  0  0  0  0  0  0  0  0
    3.2939   11.0517   -3.6039 H   0  0  0  0  0  0  0  0  0  0  0  0
    3.5536   11.5963   -1.8644 H   0  0  0  0  0  0  0  0  0  0  0  0
    2.4463    9.2286   -2.1930 H   0  0  0  0  0  0  0  0  0  0  0  0
   -0.6844   11.7781   -2.2251 H   0  0  0  0  0  0  0  0  0  0  0  0
    0.2525   11.7533    0.7100 H   0  0  0  0  0  0  0  0  0  0  0  0
   -1.1239   12.7159    0.0104 H   0  0  0  0  0  0  0  0  0  0  0  0
   -1.9093   10.7183    1.2395 H   0  0  0  0  0  0  0  0  0  0  0  0
   -2.3233   10.6729   -0.5191 H   0  0  0  0  0  0  0  0  0  0  0  0
   -1.5661    8.4969    0.1515 H   0  0  0  0  0  0  0  0  0  0  0  0
    0.9740    8.7800    0.7400 H   0  0  0  0  0  0  0  0  0  0  0  0
   -2.1599    8.7736   -1.9394 H   0  0  0  0  0  0  0  0  0  0  0  0
   -1.2031    9.8338   -3.0289 H   0  0  0  0  0  0  0  0  0  0  0  0
   -0.9231    8.0595   -3.0289 H   0  0  0  0  0  0  0  0  0  0  0  0
    0.8644    7.4743   -0.2104 H   0  0  0  0  0  0  0  0  0  0  0  0
    0.1146    6.9781   -1.7654 H   0  0  0  0  0  0  0  0  0  0  0  0
    1.6573    7.8982   -1.7654 H   0  0  0  0  0  0  0  0  0  0  0  0
    1.2667   13.0931    0.3939 H   0  0  0  0  0  0  0  0  0  0  0  0
    2.7937   12.8339   -0.5158 H   0  0  0  0  0  0  0  0  0  0  0  0
    2.0117   14.4510   -0.5158 H   0  0  0  0  0  0  0  0  0  0  0  0
   -0.8246   14.1058   -1.5005 H   0  0  0  0  0  0  0  0  0  0  0  0
    0.6993   15.0861   -1.8896 H   0  0  0  0  0  0  0  0  0  0  0  0
   -1.0715   13.5735   -3.8293 H   0  0  0  0  0  0  0  0  0  0  0  0
   -0.8043   15.3564   -3.6999 H   0  0  0  0  0  0  0  0  0  0  0  0
    1.9139   15.5502   -3.0978 H   0  0  0  0  0  0  0  0  0  0  0  0
    2.8174   15.2355   -4.6181 H   0  0  0  0  0  0  0  0  0  0  0  0
    1.4284   16.3746   -4.6181 H   0  0  0  0  0  0  0  0  0  0  0  0
  1  2  1  0
  2  3  1  0
  3  4  1  0
  4  5  1  0
  5  6  1  0
  6  7  1  0
  7  8  1  0
  7  9  1  0
  2 10  1  0
 10 11  1  0
 11 12  1  0
 12 13  1  0
 13 14  1  6
 13 15  1  0
 15 16  1  0
 16 17  1  0
 17 18  2  0
 18 19  1  0
 19 20  1  0
 20 21  1  0
 21 22  1  0
 22 23  1  0
 22 24  1  0
 24 25  1  0
 24 26  1  0
 19 27  1  0
 27 28  1  1
 27 29  1  0
 29 30  1  0
 30 31  1  0
 31 32  1  1
  7  5  1  0
 31 10  1  0
 31 13  1  0
 27 15  1  0
 24 18  1  0
  1 33  1  0
  1 34  1  0
  1 35  1  0
  2 36  1  6
  3 37  1  0
  3 38  1  0
  4 39  1  0
  4 40  1  0
  5 41  1  1
  8 42  1  0
  8 43  1  0
  8 44  1  0
  9 45  1  0
  9 46  1  0
  9 47  1  0
 10 48  1  1
 11 49  1  0
 11 50  1  0
 12 51  1  0
 12 52  1  0
 14 53  1  0
 14 54  1  0
 14 55  1  0
 15 56  1  6
 16 57  1  0
 16 58  1  0
 17 59  1  0
 19 60  1  6
 20 61  1  0
 20 62  1  0
 21 63  1  0
 21 64  1  0
 22 65  1  1
 23 66  1  0
 25 67  1  0
 25 68  1  0
 25 69  1  0
 26 70  1  0
 26 71  1  0
 26 72  1  0
 28 73  1  0
 28 74  1  0
 28 75  1  0
 29 76  1  0
 29 77  1  0
 30 78  1  0
 30 79  1  0
 32 80  1  0
 32 81  1  0
 32 82  1  0
M  END
>  <meeko>  (7) 
{"is_sidechain": [false], "intermolecular_energy": 2.731, "internal_energy": -0.839}

$$$$
EPH_relaxed_0001_pdb2pqr_Repair_79_r2_0001_out
     RDKit          3D

 82 86  0  0  0  0  0  0  0  0999 V2000
    3.1770   19.2430   -0.7460 C   0  0  0  0  0  0  0  0  0  0  0  0
    1.6610   19.2370   -0.5240 C   0  0  2  0  0  0  0  0  0  0  0  0
    1.2370   20.1940    0.6080 C   0  0  0  0  0  0  0  0  0  0  0  0
    2.0160   19.9900    1.9110 C   0  0  0  0  0  0  0  0  0  0  0  0
    3.4780   19.7820    1.6550 C   0  0  2  0  0  0  0  0  0  0  0  0
    3.9440   18.4470    1.8950 O   0  0  0  0  0  0  0  0  0  0  0  0
    4.4820   19.4700    2.7490 C   0  0  0  0  0  0  0  0  0  0  0  0
    4.0640   19.3500    4.1810 C   0  0  0  0  0  0  0  0  0  0  0  0
    5.9280   19.7650    2.4980 C   0  0  0  0  0  0  0  0  0  0  0  0
    1.1870   17.8220   -0.2160 C   0  0  1  0  0  0  0  0  0  0  0  0
   -0.2220   17.7920    0.4340 C   0  0  0  0  0  0  0  0  0  0  0  0
   -0.9310   16.5180   -0.0930 C   0  0  0  0  0  0  0  0  0  0  0  0
    0.1950   15.6910   -0.7560 C   0  0  1  0  0  0  0  0  0  0  0  0
    0.9060   14.9600    0.4260 C   0  0  0  0  0  0  0  0  0  0  0  0
   -0.2490   14.6890   -1.8710 C   0  0  2  0  0  0  0  0  0  0  0  0
   -1.1920   13.5670   -1.4030 C   0  0  0  0  0  0  0  0  0  0  0  0
   -0.5170   12.3180   -0.9410 C   0  0  0  0  0  0  0  0  0  0  0  0
    0.7700   11.9950   -1.1670 C   0  0  0  0  0  0  0  0  0  0  0  0
    1.6640   12.8850   -2.0390 C   0  0  1  0  0  0  0  0  0  0  0  0
    2.4480   12.0030   -3.0460 C   0  0  0  0  0  0  0  0  0  0  0  0
    3.2290   10.8850   -2.3600 C   0  0  0  0  0  0  0  0  0  0  0  0
    2.2970    9.9880   -1.5490 C   0  0  2  0  0  0  0  0  0  0  0  0
    1.4320    9.2880   -2.4490 O   0  0  0  0  0  0  0  0  0  0  0  0
    1.4470   10.7680   -0.5080 C   0  0  0  0  0  0  0  0  0  0  0  0
    2.3610   11.2740    0.6360 C   0  0  0  0  0  0  0  0  0  0  0  0
    0.4520    9.7690    0.1420 C   0  0  0  0  0  0  0  0  0  0  0  0
    0.9440   14.1170   -2.7400 C   0  0  1  0  0  0  0  0  0  0  0  0
    0.3280   13.6690   -4.1010 C   0  0  0  0  0  0  0  0  0  0  0  0
    2.0190   15.2160   -3.0790 C   0  0  0  0  0  0  0  0  0  0  0  0
    2.3270   16.2490   -1.9780 C   0  0  0  0  0  0  0  0  0  0  0  0
    1.0360   16.8470   -1.4110 C   0  0  2  0  0  0  0  0  0  0  0  0
    0.3100   17.6080   -2.5730 C   0  0  0  0  0  0  0  0  0  0  0  0
    3.6901   19.2450    0.2270 H   0  0  0  0  0  0  0  0  0  0  0  0
    3.4682   18.3460   -1.3122 H   0  0  0  0  0  0  0  0  0  0  0  0
    3.4611   20.1423   -1.3122 H   0  0  0  0  0  0  0  0  0  0  0  0
    1.1884   19.5932   -1.4513 H   0  0  0  0  0  0  0  0  0  0  0  0
    1.3958   21.2276    0.2667 H   0  0  0  0  0  0  0  0  0  0  0  0
    0.1803   19.9825    0.8288 H   0  0  0  0  0  0  0  0  0  0  0  0
    1.8881   20.8791    2.5459 H   0  0  0  0  0  0  0  0  0  0  0  0
    1.6233   19.0910    2.4086 H   0  0  0  0  0  0  0  0  0  0  0  0
    3.4696   20.5362    0.8543 H   0  0  0  0  0  0  0  0  0  0  0  0
    4.9154   19.5944    4.8332 H   0  0  0  0  0  0  0  0  0  0  0  0
    3.2369   20.0470    4.3812 H   0  0  0  0  0  0  0  0  0  0  0  0
    3.7325   18.3204    4.3812 H   0  0  0  0  0  0  0  0  0  0  0  0
    6.4526   19.8720    3.4589 H   0  0  0  0  0  0  0  0  0  0  0  0
    6.3765   18.9399    1.9253 H   0  0  0  0  0  0  0  0  0  0  0  0
    6.0175   20.6999    1.9253 H   0  0  0  0  0  0  0  0  0  0  0  0
    2.0067   17.4912    0.4387 H   0  0  0  0  0  0  0  0  0  0  0  0
   -0.1329   17.7501    1.5296 H   0  0  0  0  0  0  0  0  0  0  0  0
   -0.7939   18.6963    0.1788 H   0  0  0  0  0  0  0  0  0  0  0  0
   -1.3884   15.9573    0.7355 H   0  0  0  0  0  0  0  0  0  0  0  0
   -1.7444   16.7534   -0.7951 H   0  0  0  0  0  0  0  0  0  0  0  0
    0.5255   15.3512    1.3811 H   0  0  0  0  0  0  0  0  0  0  0  0
    0.7029   13.8806    0.3649 H   0  0  0  0  0  0  0  0  0  0  0  0
    1.9906   15.1331    0.3649 H   0  0  0  0  0  0  0  0  0  0  0  0
   -0.8512   15.3266   -2.5350 H   0  0  0  0  0  0  0  0  0  0  0  0
   -1.7953   13.9557   -0.5693 H   0  0  0  0  0  0  0  0  0  0  0  0
   -1.7878   13.2833   -2.2831 H   0  0  0  0  0  0  0  0  0  0  0  0
   -1.1227   11.6010   -0.3674 H   0  0  0  0  0  0  0  0  0  0  0  0
    2.3649   13.3791   -1.3501 H   0  0  0  0  0  0  0  0  0  0  0  0
    1.7338   11.5529   -3.7512 H   0  0  0  0  0  0  0  0  0  0  0  0
    3.1734   12.6493   -3.5619 H   0  0  0  0  0  0  0  0  0  0  0  0
    3.7370   10.2789   -3.1246 H   0  0  0  0  0  0  0  0  0  0  0  0
    3.9638   11.3370   -1.6775 H   0  0  0  0  0  0  0  0  0  0  0  0
    2.9266    9.2893   -0.9786 H   0  0  0  0  0  0  0  0  0  0  0  0
    0.8470    9.9440   -2.8630 H   0  0  0  0  0  0  0  0  0  0  0  0
    1.9073   11.0228    1.6061 H   0  0  0  0  0  0  0  0  0  0  0  0
    3.3473   10.7934    0.5571 H   0  0  0  0  0  0  0  0  0  0  0  0
    2.4773   12.3650    0.5571 H   0  0  0  0  0  0  0  0  0  0  0  0
    0.5234    9.8407    1.2373 H   0  0  0  0  0  0  0  0  0  0  0  0
   -0.5725   10.0131   -0.1754 H   0  0  0  0  0  0  0  0  0  0  0  0
    0.7002    8.7454   -0.1754 H   0  0  0  0  0  0  0  0  0  0  0  0
   -0.5487   13.0314   -3.9145 H   0  0  0  0  0  0  0  0  0  0  0  0
    0.0209   14.5562   -4.6742 H   0  0  0  0  0  0  0  0  0  0  0  0
    1.0774   13.1035   -4.6742 H   0  0  0  0  0  0  0  0  0  0  0  0
    2.9587   14.6986   -3.3222 H   0  0  0  0  0  0  0  0  0  0  0  0
    1.5856   15.7973   -3.9062 H   0  0  0  0  0  0  0  0  0  0  0  0
    2.8817   15.7554   -1.1664 H   0  0  0  0  0  0  0  0  0  0  0  0
    2.9267   17.0605   -2.4161 H   0  0  0  0  0  0  0  0  0  0  0  0
   -0.3906   18.3424   -2.1489 H   0  0  0  0  0  0  0  0  0  0  0  0
    1.0554   18.1278   -3.1928 H   0  0  0  0  0  0  0  0  0  0  0  0
   -0.2443   16.8879   -3.1928 H   0  0  0  0  0  0  0  0  0  0  0  0
  1  2  1  0
  2  3  1  0
  3  4  1  0
  4  5  1  0
  5  6  1  0
  6  7  1  0
  7  8  1  0
  7  9  1  0
  2 10  1  0
 10 11  1  0
 11 12  1  0
 12 13  1  0
 13 14  1  1
 13 15  1  0
 15 16  1  0
 16 17  1  0
 17 18  2  0
 18 19  1  0
 19 20  1  0
 20 21  1  0
 21 22  1  0
 22 23  1  0
 22 24  1  0
 24 25  1  0
 24 26  1  0
 19 27  1  0
 27 28  1  6
 27 29  1  0
 29 30  1  0
 30 31  1  0
 31 32  1  6
  7  5  1  0
 31 10  1  0
 31 13  1  0
 27 15  1  0
 24 18  1  0
  1 33  1  0
  1 34  1  0
  1 35  1  0
  2 36  1  6
  3 37  1  0
  3 38  1  0
  4 39  1  0
  4 40  1  0
  5 41  1  6
  8 42  1  0
  8 43  1  0
  8 44  1  0
  9 45  1  0
  9 46  1  0
  9 47  1  0
 10 48  1  1
 11 49  1  0
 11 50  1  0
 12 51  1  0
 12 52  1  0
 14 53  1  0
 14 54  1  0
 14 55  1  0
 15 56  1  6
 16 57  1  0
 16 58  1  0
 17 59  1  0
 19 60  1  1
 20 61  1  0
 20 62  1  0
 21 63  1  0
 21 64  1  0
 22 65  1  1
 23 66  1  0
 25 67  1  0
 25 68  1  0
 25 69  1  0
 26 70  1  0
 26 71  1  0
 26 72  1  0
 28 73  1  0
 28 74  1  0
 28 75  1  0
 29 76  1  0
 29 77  1  0
 30 78  1  0
 30 79  1  0
 32 80  1  0
 32 81  1  0
 32 82  1  0
M  END
>  <meeko>  (8) 
{"is_sidechain": [false], "intermolecular_energy": 2.731, "internal_energy": -0.839}

$$$$
EPH_relaxed_0001_pdb2pqr_Repair_79_r2_0001_out
     RDKit          3D

 82 86  0  0  0  0  0  0  0  0999 V2000
   -0.2940   15.1050   -7.6360 C   0  0  0  0  0  0  0  0  0  0  0  0
    1.0800   15.0790   -6.9610 C   0  0  2  0  0  0  0  0  0  0  0  0
    2.2310   15.1710   -7.9820 C   0  0  0  0  0  0  0  0  0  0  0  0
    2.2540   16.4850   -8.7680 C   0  0  0  0  0  0  0  0  0  0  0  0
    1.8570   16.2820  -10.1990 C   0  0  2  0  0  0  0  0  0  0  0  0
    1.1990   15.0360  -10.4670 O   0  0  0  0  0  0  0  0  0  0  0  0
    2.4760   15.2280  -11.0970 C   0  0  0  0  0  0  0  0  0  0  0  0
    3.5450   14.3070  -10.5980 C   0  0  0  0  0  0  0  0  0  0  0  0
    2.3940   15.4140  -12.5800 C   0  0  0  0  0  0  0  0  0  0  0  0
    1.2250   13.8120   -6.1250 C   0  0  1  0  0  0  0  0  0  0  0  0
    2.6560   13.2150   -6.1890 C   0  0  0  0  0  0  0  0  0  0  0  0
    2.9490   12.6070   -4.7930 C   0  0  0  0  0  0  0  0  0  0  0  0
    1.5750   12.5770   -4.0840 C   0  0  1  0  0  0  0  0  0  0  0  0
    0.8690   11.2970   -4.6320 C   0  0  0  0  0  0  0  0  0  0  0  0
    1.6030   12.5970   -2.5210 C   0  0  2  0  0  0  0  0  0  0  0  0
    2.2910   11.3870   -1.8650 C   0  0  0  0  0  0  0  0  0  0  0  0
    1.3950   10.2340   -1.5550 C   0  0  0  0  0  0  0  0  0  0  0  0
    0.0500   10.2740   -1.5280 C   0  0  0  0  0  0  0  0  0  0  0  0
   -0.7030   11.5950   -1.7330 C   0  0  1  0  0  0  0  0  0  0  0  0
   -1.8090   11.7330   -0.6540 C   0  0  0  0  0  0  0  0  0  0  0  0
   -2.7440   10.5280   -0.6170 C   0  0  0  0  0  0  0  0  0  0  0  0
   -1.9650    9.2410   -0.3540 C   0  0  2  0  0  0  0  0  0  0  0  0
   -1.4290    9.2900    0.9720 O   0  0  0  0  0  0  0  0  0  0  0  0
   -0.8170    9.0000   -1.3730 C   0  0  0  0  0  0  0  0  0  0  0  0
   -1.4160    8.6480   -2.7580 C   0  0  0  0  0  0  0  0  0  0  0  0
   -0.0240    7.7480   -0.9120 C   0  0  0  0  0  0  0  0  0  0  0  0
    0.2010   12.8970   -1.8510 C   0  0  1  0  0  0  0  0  0  0  0  0
    0.4990   13.4680   -0.4310 C   0  0  0  0  0  0  0  0  0  0  0  0
   -0.6030   14.0120   -2.6180 C   0  0  0  0  0  0  0  0  0  0  0  0
   -0.4950   14.0130   -4.1550 C   0  0  0  0  0  0  0  0  0  0  0  0
    0.9680   13.9320   -4.6020 C   0  0  2  0  0  0  0  0  0  0  0  0
    1.6990   15.2180   -4.0840 C   0  0  0  0  0  0  0  0  0  0  0  0
   -1.0802   15.1199   -6.8668 H   0  0  0  0  0  0  0  0  0  0  0  0
   -0.3775   16.0049   -8.2631 H   0  0  0  0  0  0  0  0  0  0  0  0
   -0.4115   14.2089   -8.2631 H   0  0  0  0  0  0  0  0  0  0  0  0
    1.1452   15.9634   -6.3102 H   0  0  0  0  0  0  0  0  0  0  0  0
    3.1837   15.0735   -7.4408 H   0  0  0  0  0  0  0  0  0  0  0  0
    2.0780   14.3626   -8.7122 H   0  0  0  0  0  0  0  0  0  0  0  0
    1.5532   17.1923   -8.3005 H   0  0  0  0  0  0  0  0  0  0  0  0
    3.2814   16.8777   -8.7496 H   0  0  0  0  0  0  0  0  0  0  0  0
    1.6950   17.3619  -10.3319 H   0  0  0  0  0  0  0  0  0  0  0  0
    3.5449   14.3071   -9.4980 H   0  0  0  0  0  0  0  0  0  0  0  0
    3.3516   13.2881  -10.9646 H   0  0  0  0  0  0  0  0  0  0  0  0
    4.5241   14.6490  -10.9646 H   0  0  0  0  0  0  0  0  0  0  0  0
    1.9594   16.3997  -12.8024 H   0  0  0  0  0  0  0  0  0  0  0  0
    3.4030   15.3518  -13.0137 H   0  0  0  0  0  0  0  0  0  0  0  0
    1.7593   14.6272  -13.0137 H   0  0  0  0  0  0  0  0  0  0  0  0
    0.4436   13.1931   -6.5902 H   0  0  0  0  0  0  0  0  0  0  0  0
    2.7062   12.4330   -6.9610 H   0  0  0  0  0  0  0  0  0  0  0  0
    3.3954   13.9875   -6.4468 H   0  0  0  0  0  0  0  0  0  0  0  0
    3.3580   11.5905   -4.8903 H   0  0  0  0  0  0  0  0  0  0  0  0
    3.6948   13.1898   -4.2325 H   0  0  0  0  0  0  0  0  0  0  0  0
    0.5274   10.6776   -3.7896 H   0  0  0  0  0  0  0  0  0  0  0  0
    0.0046   11.5895   -5.2463 H   0  0  0  0  0  0  0  0  0  0  0  0
    1.5775   10.7220   -5.2463 H   0  0  0  0  0  0  0  0  0  0  0  0
    2.2501   13.4607   -2.3084 H   0  0  0  0  0  0  0  0  0  0  0  0
    3.0775   11.0322   -2.5473 H   0  0  0  0  0  0  0  0  0  0  0  0
    2.6743   11.7429   -0.8973 H   0  0  0  0  0  0  0  0  0  0  0  0
    1.8746    9.2701   -1.3295 H   0  0  0  0  0  0  0  0  0  0  0  0
   -1.1612   11.5327   -2.7311 H   0  0  0  0  0  0  0  0  0  0  0  0
   -1.3299   11.8379    0.3306 H   0  0  0  0  0  0  0  0  0  0  0  0
   -2.4133   12.6168   -0.9065 H   0  0  0  0  0  0  0  0  0  0  0  0
   -3.4841   10.6710    0.1841 H   0  0  0  0  0  0  0  0  0  0  0  0
   -3.2451   10.4422   -1.5925 H   0  0  0  0  0  0  0  0  0  0  0  0
   -2.6666    8.4016   -0.4686 H   0  0  0  0  0  0  0  0  0  0  0  0
   -0.6080    8.7700    0.9760 H   0  0  0  0  0  0  0  0  0  0  0  0
   -2.3570    8.0950   -2.6207 H   0  0  0  0  0  0  0  0  0  0  0  0
   -1.6132    9.5739   -3.3183 H   0  0  0  0  0  0  0  0  0  0  0  0
   -0.7031    8.0252   -3.3183 H   0  0  0  0  0  0  0  0  0  0  0  0
   -0.0015    7.7125    0.1872 H   0  0  0  0  0  0  0  0  0  0  0  0
   -0.5130    6.8415   -1.2982 H   0  0  0  0  0  0  0  0  0  0  0  0
    1.0045    7.8027   -1.2982 H   0  0  0  0  0  0  0  0  0  0  0  0
    0.1321   12.7650    0.3313 H   0  0  0  0  0  0  0  0  0  0  0  0
    1.5838   13.6054   -0.3113 H   0  0  0  0  0  0  0  0  0  0  0  0
   -0.0087   14.4365   -0.3113 H   0  0  0  0  0  0  0  0  0  0  0  0
   -1.6655   13.8938   -2.3591 H   0  0  0  0  0  0  0  0  0  0  0  0
   -0.1535   14.9633   -2.2971 H   0  0  0  0  0  0  0  0  0  0  0  0
   -1.0419   13.1463   -4.5547 H   0  0  0  0  0  0  0  0  0  0  0  0
   -0.9268   14.9501   -4.5363 H   0  0  0  0  0  0  0  0  0  0  0  0
    1.7006   15.2209   -2.9840 H   0  0  0  0  0  0  0  0  0  0  0  0
    2.7355   15.2240   -4.4522 H   0  0  0  0  0  0  0  0  0  0  0  0
    1.1739   16.1117   -4.4522 H   0  0  0  0  0  0  0  0  0  0  0  0
  1  2  1  0
  2  3  1  0
  3  4  1  0
  4  5  1  0
  5  6  1  0
  6  7  1  0
  7  8  1  0
  7  9  1  0
  2 10  1  0
 10 11  1  0
 11 12  1  0
 12 13  1  0
 13 14  1  1
 13 15  1  0
 15 16  1  0
 16 17  1  0
 17 18  2  0
 18 19  1  0
 19 20  1  0
 20 21  1  0
 21 22  1  0
 22 23  1  0
 22 24  1  0
 24 25  1  0
 24 26  1  0
 19 27  1  0
 27 28  1  1
 27 29  1  0
 29 30  1  0
 30 31  1  0
 31 32  1  1
  7  5  1  0
 31 10  1  0
 31 13  1  0
 27 15  1  0
 24 18  1  0
  1 33  1  0
  1 34  1  0
  1 35  1  0
  2 36  1  1
  3 37  1  0
  3 38  1  0
  4 39  1  0
  4 40  1  0
  5 41  1  6
  8 42  1  0
  8 43  1  0
  8 44  1  0
  9 45  1  0
  9 46  1  0
  9 47  1  0
 10 48  1  6
 11 49  1  0
 11 50  1  0
 12 51  1  0
 12 52  1  0
 14 53  1  0
 14 54  1  0
 14 55  1  0
 15 56  1  6
 16 57  1  0
 16 58  1  0
 17 59  1  0
 19 60  1  6
 20 61  1  0
 20 62  1  0
 21 63  1  0
 21 64  1  0
 22 65  1  1
 23 66  1  0
 25 67  1  0
 25 68  1  0
 25 69  1  0
 26 70  1  0
 26 71  1  0
 26 72  1  0
 28 73  1  0
 28 74  1  0
 28 75  1  0
 29 76  1  0
 29 77  1  0
 30 78  1  0
 30 79  1  0
 32 80  1  0
 32 81  1  0
 32 82  1  0
M  END
>  <meeko>  (9) 
{"is_sidechain": [false], "intermolecular_energy": 2.731, "internal_energy": -0.839}

$$$$
EPH_relaxed_0001_pdb2pqr_Repair_79_r2_0001_out
     RDKit          3D

 82 86  0  0  0  0  0  0  0  0999 V2000
   -3.5600    7.1700   -3.4690 C   0  0  0  0  0  0  0  0  0  0  0  0
   -3.6850    7.2650   -1.9460 C   0  0  2  0  0  0  0  0  0  0  0  0
   -5.1370    7.0610   -1.4680 C   0  0  0  0  0  0  0  0  0  0  0  0
   -6.1860    7.3600   -2.5430 C   0  0  0  0  0  0  0  0  0  0  0  0
   -7.5140    7.7060   -1.9400 C   0  0  2  0  0  0  0  0  0  0  0  0
   -8.0970    6.6700   -1.1400 O   0  0  0  0  0  0  0  0  0  0  0  0
   -8.8130    7.0280   -2.3330 C   0  0  0  0  0  0  0  0  0  0  0  0
   -8.8480    5.9490   -3.3690 C   0  0  0  0  0  0  0  0  0  0  0  0
  -10.1010    7.7440   -2.0700 C   0  0  0  0  0  0  0  0  0  0  0  0
   -3.1630    8.6140   -1.4650 C   0  0  1  0  0  0  0  0  0  0  0  0
   -3.7970    9.0550   -0.1190 C   0  0  0  0  0  0  0  0  0  0  0  0
   -2.6980    9.8160    0.6660 C   0  0  0  0  0  0  0  0  0  0  0  0
   -1.5850   10.0770   -0.3760 C   0  0  1  0  0  0  0  0  0  0  0  0
   -2.0640   11.3320   -1.1700 C   0  0  0  0  0  0  0  0  0  0  0  0
   -0.1400   10.2690    0.1900 C   0  0  2  0  0  0  0  0  0  0  0  0
    0.0420   11.4840    1.1160 C   0  0  0  0  0  0  0  0  0  0  0  0
    0.4430   12.7500    0.4350 C   0  0  0  0  0  0  0  0  0  0  0  0
    0.9250   12.8460   -0.8190 C   0  0  0  0  0  0  0  0  0  0  0  0
    1.2010   11.5890   -1.6540 C   0  0  1  0  0  0  0  0  0  0  0  0
    2.5950   11.7080   -2.3230 C   0  0  0  0  0  0  0  0  0  0  0  0
    2.7470   12.9920   -3.1330 C   0  0  0  0  0  0  0  0  0  0  0  0
    2.5230   14.2200   -2.2560 C   0  0  2  0  0  0  0  0  0  0  0  0
    3.5820   14.3010   -1.2970 O   0  0  0  0  0  0  0  0  0  0  0  0
    1.1530   14.2070   -1.5210 C   0  0  0  0  0  0  0  0  0  0  0  0
    0.0110   14.4230   -2.5450 C   0  0  0  0  0  0  0  0  0  0  0  0
    1.1130   15.4270   -0.5630 C   0  0  0  0  0  0  0  0  0  0  0  0
    1.0000   10.2010   -0.9060 C   0  0  1  0  0  0  0  0  0  0  0  0
    2.3100    9.8030   -0.1610 C   0  0  0  0  0  0  0  0  0  0  0  0
    0.7370    9.0740   -1.9740 C   0  0  0  0  0  0  0  0  0  0  0  0
   -0.7260    8.8530   -2.4040 C   0  0  0  0  0  0  0  0  0  0  0  0
   -1.6440    8.7290   -1.1840 C   0  0  2  0  0  0  0  0  0  0  0  0
   -1.1990    7.4620   -0.3770 C   0  0  0  0  0  0  0  0  0  0  0  0
   -2.7087    6.5230   -3.7274 H   0  0  0  0  0  0  0  0  0  0  0  0
   -4.4842    6.7443   -3.8869 H   0  0  0  0  0  0  0  0  0  0  0  0
   -3.3973    8.1744   -3.8869 H   0  0  0  0  0  0  0  0  0  0  0  0
   -3.0786    6.4556   -1.5133 H   0  0  0  0  0  0  0  0  0  0  0  0
   -5.2542    6.0146   -1.1497 H   0  0  0  0  0  0  0  0  0  0  0  0
   -5.3078    7.7711   -0.6454 H   0  0  0  0  0  0  0  0  0  0  0  0
   -5.8398    8.2073   -3.1531 H   0  0  0  0  0  0  0  0  0  0  0  0
   -6.3134    6.4573   -3.1586 H   0  0  0  0  0  0  0  0  0  0  0  0
   -7.2287    8.7655   -1.8621 H   0  0  0  0  0  0  0  0  0  0  0  0
   -8.8799    4.9669   -2.8746 H   0  0  0  0  0  0  0  0  0  0  0  0
   -9.7426    6.0726   -3.9970 H   0  0  0  0  0  0  0  0  0  0  0  0
   -7.9473    6.0143   -3.9970 H   0  0  0  0  0  0  0  0  0  0  0  0
  -10.2572    7.8308   -0.9846 H   0  0  0  0  0  0  0  0  0  0  0  0
  -10.0597    8.7487   -2.5161 H   0  0  0  0  0  0  0  0  0  0  0  0
  -10.9325    7.1786   -2.5161 H   0  0  0  0  0  0  0  0  0  0  0  0
   -3.4342    9.2358   -2.3309 H   0  0  0  0  0  0  0  0  0  0  0  0
   -4.6567    9.7159   -0.3039 H   0  0  0  0  0  0  0  0  0  0  0  0
   -4.1585    8.1860    0.4503 H   0  0  0  0  0  0  0  0  0  0  0  0
   -3.0897   10.7646    1.0618 H   0  0  0  0  0  0  0  0  0  0  0  0
   -2.3330    9.2452    1.5326 H   0  0  0  0  0  0  0  0  0  0  0  0
   -2.3647   12.1199   -0.4638 H   0  0  0  0  0  0  0  0  0  0  0  0
   -1.2434   11.7007   -1.8030 H   0  0  0  0  0  0  0  0  0  0  0  0
   -2.9216   11.0601   -1.8030 H   0  0  0  0  0  0  0  0  0  0  0  0
   -0.0186    9.3839    0.8318 H   0  0  0  0  0  0  0  0  0  0  0  0
   -0.9123   11.6635    1.6327 H   0  0  0  0  0  0  0  0  0  0  0  0
    0.8691   11.2283    1.7946 H   0  0  0  0  0  0  0  0  0  0  0  0
    0.3358   13.6842    1.0058 H   0  0  0  0  0  0  0  0  0  0  0  0
    0.4175   11.5588   -2.4255 H   0  0  0  0  0  0  0  0  0  0  0  0
    3.3654   11.6929   -1.5380 H   0  0  0  0  0  0  0  0  0  0  0  0
    2.7066   10.8608   -3.0157 H   0  0  0  0  0  0  0  0  0  0  0  0
    3.7614   13.0324   -3.5566 H   0  0  0  0  0  0  0  0  0  0  0  0
    1.9946   12.9919   -3.9355 H   0  0  0  0  0  0  0  0  0  0  0  0
    2.5164   15.0997   -2.9164 H   0  0  0  0  0  0  0  0  0  0  0  0
    3.3190   13.7750   -0.5230 H   0  0  0  0  0  0  0  0  0  0  0  0
   -0.9330   14.6015   -2.0092 H   0  0  0  0  0  0  0  0  0  0  0  0
    0.2444   15.2929   -3.1765 H   0  0  0  0  0  0  0  0  0  0  0  0
   -0.0894   13.5279   -3.1765 H   0  0  0  0  0  0  0  0  0  0  0  0
    1.1245   15.0753    0.4792 H   0  0  0  0  0  0  0  0  0  0  0  0
    1.9907   16.0647   -0.7445 H   0  0  0  0  0  0  0  0  0  0  0  0
    0.1954   16.0058   -0.7445 H   0  0  0  0  0  0  0  0  0  0  0  0
    2.1439    9.8535    0.9252 H   0  0  0  0  0  0  0  0  0  0  0  0
    2.5942    8.7780   -0.4412 H   0  0  0  0  0  0  0  0  0  0  0  0
    3.1164   10.4967   -0.4412 H   0  0  0  0  0  0  0  0  0  0  0  0
    1.3141    9.3283   -2.8753 H   0  0  0  0  0  0  0  0  0  0  0  0
    1.0379    8.1365   -1.4836 H   0  0  0  0  0  0  0  0  0  0  0  0
   -1.0540    9.7064   -3.0157 H   0  0  0  0  0  0  0  0  0  0  0  0
   -0.7840    7.9192   -2.9826 H   0  0  0  0  0  0  0  0  0  0  0  0
   -1.2719    7.6695    0.7008 H   0  0  0  0  0  0  0  0  0  0  0  0
   -1.8537    6.6158   -0.6326 H   0  0  0  0  0  0  0  0  0  0  0  0
   -0.1589    7.2111   -0.6326 H   0  0  0  0  0  0  0  0  0  0  0  0
  1  2  1  0
  2  3  1  0
  3  4  1  0
  4  5  1  0
  5  6  1  0
  6  7  1  0
  7  8  1  0
  7  9  1  0
  2 10  1  0
 10 11  1  0
 11 12  1  0
 12 13  1  0
 13 14  1  6
 13 15  1  0
 15 16  1  0
 16 17  1  0
 17 18  2  0
 18 19  1  0
 19 20  1  0
 20 21  1  0
 21 22  1  0
 22 23  1  0
 22 24  1  0
 24 25  1  0
 24 26  1  0
 19 27  1  0
 27 28  1  1
 27 29  1  0
 29 30  1  0
 30 31  1  0
 31 32  1  1
  7  5  1  0
 31 10  1  0
 31 13  1  0
 27 15  1  0
 24 18  1  0
  1 33  1  0
  1 34  1  0
  1 35  1  0
  2 36  1  1
  3 37  1  0
  3 38  1  0
  4 39  1  0
  4 40  1  0
  5 41  1  1
  8 42  1  0
  8 43  1  0
  8 44  1  0
  9 45  1  0
  9 46  1  0
  9 47  1  0
 10 48  1  6
 11 49  1  0
 11 50  1  0
 12 51  1  0
 12 52  1  0
 14 53  1  0
 14 54  1  0
 14 55  1  0
 15 56  1  1
 16 57  1  0
 16 58  1  0
 17 59  1  0
 19 60  1  6
 20 61  1  0
 20 62  1  0
 21 63  1  0
 21 64  1  0
 22 65  1  6
 23 66  1  0
 25 67  1  0
 25 68  1  0
 25 69  1  0
 26 70  1  0
 26 71  1  0
 26 72  1  0
 28 73  1  0
 28 74  1  0
 28 75  1  0
 29 76  1  0
 29 77  1  0
 30 78  1  0
 30 79  1  0
 32 80  1  0
 32 81  1  0
 32 82  1  0
M  END
>  <meeko>  (10) 
{"is_sidechain": [false], "intermolecular_energy": 2.731, "internal_energy": -0.839}

$$$$
EPH_relaxed_0001_pdb2pqr_Repair_79_r2_0001_out
     RDKit          3D

 82 86  0  0  0  0  0  0  0  0999 V2000
   -1.7480    7.7810   -2.0040 C   0  0  0  0  0  0  0  0  0  0  0  0
   -2.0700    8.5320   -0.7080 C   0  0  2  0  0  0  0  0  0  0  0  0
   -3.5820    8.5420   -0.4040 C   0  0  0  0  0  0  0  0  0  0  0  0
   -4.3970    7.6090   -1.3030 C   0  0  0  0  0  0  0  0  0  0  0  0
   -5.8550    7.6420   -0.9590 C   0  0  2  0  0  0  0  0  0  0  0  0
   -6.4360    6.3600   -0.6870 O   0  0  0  0  0  0  0  0  0  0  0  0
   -6.9370    7.0510   -1.8430 C   0  0  0  0  0  0  0  0  0  0  0  0
   -6.6060    6.3840   -3.1410 C   0  0  0  0  0  0  0  0  0  0  0  0
   -8.3410    7.5480   -1.6870 C   0  0  0  0  0  0  0  0  0  0  0  0
   -1.5460    9.9600   -0.7920 C   0  0  1  0  0  0  0  0  0  0  0  0
   -1.0630   10.5000    0.5810 C   0  0  0  0  0  0  0  0  0  0  0  0
    0.1500   11.4230    0.2970 C   0  0  0  0  0  0  0  0  0  0  0  0
    0.1200   11.6470   -1.2330 C   0  0  1  0  0  0  0  0  0  0  0  0
   -0.9440   12.7680   -1.4530 C   0  0  0  0  0  0  0  0  0  0  0  0
    1.4850   12.0070   -1.9060 C   0  0  2  0  0  0  0  0  0  0  0  0
    2.1170   13.3280   -1.4330 C   0  0  0  0  0  0  0  0  0  0  0  0
    1.7310   14.5370   -2.2200 C   0  0  0  0  0  0  0  0  0  0  0  0
    1.1410   14.5270   -3.4290 C   0  0  0  0  0  0  0  0  0  0  0  0
    0.8910   13.2090   -4.1730 C   0  0  1  0  0  0  0  0  0  0  0  0
    1.3390   13.3550   -5.6510 C   0  0  0  0  0  0  0  0  0  0  0  0
    0.6890   14.5490   -6.3440 C   0  0  0  0  0  0  0  0  0  0  0  0
    1.0090   15.8470   -5.6080 C   0  0  2  0  0  0  0  0  0  0  0  0
    2.4100   16.1120   -5.7290 O   0  0  0  0  0  0  0  0  0  0  0  0
    0.6100   15.8150   -4.1060 C   0  0  0  0  0  0  0  0  0  0  0  0
   -0.9330   15.8310   -3.9770 C   0  0  0  0  0  0  0  0  0  0  0  0
    1.1140   17.1280   -3.4500 C   0  0  0  0  0  0  0  0  0  0  0  0
    1.4770   11.9020   -3.4850 C   0  0  1  0  0  0  0  0  0  0  0  0
    2.9570   11.6870   -3.9240 C   0  0  0  0  0  0  0  0  0  0  0  0
    0.6750   10.6470   -3.9970 C   0  0  0  0  0  0  0  0  0  0  0  0
   -0.6000   10.2720   -3.2180 C   0  0  0  0  0  0  0  0  0  0  0  0
   -0.3260   10.2180   -1.7110 C   0  0  2  0  0  0  0  0  0  0  0  0
    0.7250    9.0840   -1.4570 C   0  0  0  0  0  0  0  0  0  0  0  0
   -1.3252    6.7950   -1.7610 H   0  0  0  0  0  0  0  0  0  0  0  0
   -2.6693    7.6505   -2.5907 H   0  0  0  0  0  0  0  0  0  0  0  0
   -1.0183    8.3583   -2.5907 H   0  0  0  0  0  0  0  0  0  0  0  0
   -1.5711    8.0009    0.1160 H   0  0  0  0  0  0  0  0  0  0  0  0
   -3.7280    8.2320    0.6413 H   0  0  0  0  0  0  0  0  0  0  0  0
   -3.9409    9.5645   -0.5928 H   0  0  0  0  0  0  0  0  0  0  0  0
   -4.2705    7.9223   -2.3498 H   0  0  0  0  0  0  0  0  0  0  0  0
   -4.0322    6.5823   -1.1520 H   0  0  0  0  0  0  0  0  0  0  0  0
   -5.7449    8.6300   -0.4880 H   0  0  0  0  0  0  0  0  0  0  0  0
   -6.1250    5.4148   -2.9430 H   0  0  0  0  0  0  0  0  0  0  0  0
   -7.5294    6.2242   -3.7171 H   0  0  0  0  0  0  0  0  0  0  0  0
   -5.9203    7.0227   -3.7171 H   0  0  0  0  0  0  0  0  0  0  0  0
   -8.5829    7.6336   -0.6174 H   0  0  0  0  0  0  0  0  0  0  0  0
   -8.4360    8.5344   -2.1645 H   0  0  0  0  0  0  0  0  0  0  0  0
   -9.0354    6.8411   -2.1645 H   0  0  0  0  0  0  0  0  0  0  0  0
   -2.4369   10.4593   -1.2008 H   0  0  0  0  0  0  0  0  0  0  0  0
   -1.8675   11.0708    1.0678 H   0  0  0  0  0  0  0  0  0  0  0  0
   -0.7831    9.6756    1.2534 H   0  0  0  0  0  0  0  0  0  0  0  0
    0.0444   12.3786    0.8315 H   0  0  0  0  0  0  0  0  0  0  0  0
    1.0988   10.9810    0.6354 H   0  0  0  0  0  0  0  0  0  0  0  0
   -1.2945   13.1373   -0.4779 H   0  0  0  0  0  0  0  0  0  0  0  0
   -0.4922   13.5966   -2.0180 H   0  0  0  0  0  0  0  0  0  0  0  0
   -1.7950   12.3600   -2.0180 H   0  0  0  0  0  0  0  0  0  0  0  0
    2.1476   11.2102   -1.5372 H   0  0  0  0  0  0  0  0  0  0  0  0
    1.8175   13.4930   -0.3875 H   0  0  0  0  0  0  0  0  0  0  0  0
    3.2026   13.2113   -1.5669 H   0  0  0  0  0  0  0  0  0  0  0  0
    1.9474   15.5187   -1.7734 H   0  0  0  0  0  0  0  0  0  0  0  0
   -0.1943   13.0360   -4.1270 H   0  0  0  0  0  0  0  0  0  0  0  0
    2.4311   13.4835   -5.6774 H   0  0  0  0  0  0  0  0  0  0  0  0
    1.0253   12.4467   -6.1863 H   0  0  0  0  0  0  0  0  0  0  0  0
    1.0673   14.6169   -7.3747 H   0  0  0  0  0  0  0  0  0  0  0  0
   -0.4015   14.4046   -6.3434 H   0  0  0  0  0  0  0  0  0  0  0  0
    0.4122   16.6455   -6.0730 H   0  0  0  0  0  0  0  0  0  0  0  0
    2.5090   17.0150   -6.0760 H   0  0  0  0  0  0  0  0  0  0  0  0
   -1.2120   15.8339   -2.9130 H   0  0  0  0  0  0  0  0  0  0  0  0
   -1.3323   16.7333   -4.4632 H   0  0  0  0  0  0  0  0  0  0  0  0
   -1.3509   14.9371   -4.4632 H   0  0  0  0  0  0  0  0  0  0  0  0
    1.0760   17.0289   -2.3551 H   0  0  0  0  0  0  0  0  0  0  0  0
    2.1501   17.3210   -3.7649 H   0  0  0  0  0  0  0  0  0  0  0  0
    0.4731   17.9647   -3.7649 H   0  0  0  0  0  0  0  0  0  0  0  0
    3.5942   11.5944   -3.0322 H   0  0  0  0  0  0  0  0  0  0  0  0
    3.0315   10.7686   -4.5248 H   0  0  0  0  0  0  0  0  0  0  0  0
    3.2898   12.5462   -4.5248 H   0  0  0  0  0  0  0  0  0  0  0  0
    0.3829   10.8415   -5.0395 H   0  0  0  0  0  0  0  0  0  0  0  0
    1.3567    9.7946   -3.8605 H   0  0  0  0  0  0  0  0  0  0  0  0
   -1.3771   11.0250   -3.4157 H   0  0  0  0  0  0  0  0  0  0  0  0
   -0.9341    9.2778   -3.5497 H   0  0  0  0  0  0  0  0  0  0  0  0
    0.8567    8.9419   -0.3742 H   0  0  0  0  0  0  0  0  0  0  0  0
    0.3694    8.1465   -1.9092 H   0  0  0  0  0  0  0  0  0  0  0  0
    1.6868    9.3675   -1.9092 H   0  0  0  0  0  0  0  0  0  0  0  0
  1  2  1  0
  2  3  1  0
  3  4  1  0
  4  5  1  0
  5  6  1  0
  6  7  1  0
  7  8  1  0
  7  9  1  0
  2 10  1  0
 10 11  1  0
 11 12  1  0
 12 13  1  0
 13 14  1  1
 13 15  1  0
 15 16  1  0
 16 17  1  0
 17 18  2  0
 18 19  1  0
 19 20  1  0
 20 21  1  0
 21 22  1  0
 22 23  1  0
 22 24  1  0
 24 25  1  0
 24 26  1  0
 19 27  1  0
 27 28  1  6
 27 29  1  0
 29 30  1  0
 30 31  1  0
 31 32  1  6
  7  5  1  0
 31 10  1  0
 31 13  1  0
 27 15  1  0
 24 18  1  0
  1 33  1  0
  1 34  1  0
  1 35  1  0
  2 36  1  1
  3 37  1  0
  3 38  1  0
  4 39  1  0
  4 40  1  0
  5 41  1  1
  8 42  1  0
  8 43  1  0
  8 44  1  0
  9 45  1  0
  9 46  1  0
  9 47  1  0
 10 48  1  6
 11 49  1  0
 11 50  1  0
 12 51  1  0
 12 52  1  0
 14 53  1  0
 14 54  1  0
 14 55  1  0
 15 56  1  1
 16 57  1  0
 16 58  1  0
 17 59  1  0
 19 60  1  6
 20 61  1  0
 20 62  1  0
 21 63  1  0
 21 64  1  0
 22 65  1  6
 23 66  1  0
 25 67  1  0
 25 68  1  0
 25 69  1  0
 26 70  1  0
 26 71  1  0
 26 72  1  0
 28 73  1  0
 28 74  1  0
 28 75  1  0
 29 76  1  0
 29 77  1  0
 30 78  1  0
 30 79  1  0
 32 80  1  0
 32 81  1  0
 32 82  1  0
M  END
>  <meeko>  (11) 
{"is_sidechain": [false], "intermolecular_energy": 2.731, "internal_energy": -0.839}

$$$$
EPH_relaxed_0001_pdb2pqr_Repair_79_r2_0001_out
     RDKit          3D

 82 86  0  0  0  0  0  0  0  0999 V2000
    2.8350   18.1130   -3.2270 C   0  0  0  0  0  0  0  0  0  0  0  0
    2.0670   17.8780   -1.9230 C   0  0  2  0  0  0  0  0  0  0  0  0
    2.4590   18.8910   -0.8280 C   0  0  0  0  0  0  0  0  0  0  0  0
    1.6570   20.1940   -0.8810 C   0  0  0  0  0  0  0  0  0  0  0  0
    0.4360   20.1300   -0.0140 C   0  0  2  0  0  0  0  0  0  0  0  0
   -0.1100   18.8150    0.1540 O   0  0  0  0  0  0  0  0  0  0  0  0
   -0.9410   19.7630   -0.5360 C   0  0  0  0  0  0  0  0  0  0  0  0
   -1.1680   19.4370   -1.9780 C   0  0  0  0  0  0  0  0  0  0  0  0
   -2.1410   20.1940    0.2480 C   0  0  0  0  0  0  0  0  0  0  0  0
    2.3080   16.4570   -1.4280 C   0  0  1  0  0  0  0  0  0  0  0  0
    2.9340   16.4170   -0.0080 C   0  0  0  0  0  0  0  0  0  0  0  0
    2.3430   15.1740    0.7060 C   0  0  0  0  0  0  0  0  0  0  0  0
    1.6640   14.3620   -0.4210 C   0  0  1  0  0  0  0  0  0  0  0  0
    2.8250   13.5740   -1.1040 C   0  0  0  0  0  0  0  0  0  0  0  0
    0.5000   13.4130    0.0150 C   0  0  2  0  0  0  0  0  0  0  0  0
    0.9060   12.2840    0.9780 C   0  0  0  0  0  0  0  0  0  0  0  0
    1.3260   11.0080    0.3250 C   0  0  0  0  0  0  0  0  0  0  0  0
    1.1080   10.6800   -0.9620 C   0  0  0  0  0  0  0  0  0  0  0  0
    0.2870   11.5950   -1.8800 C   0  0  1  0  0  0  0  0  0  0  0  0
   -0.7420   10.7460   -2.6710 C   0  0  0  0  0  0  0  0  0  0  0  0
   -0.0910    9.5920   -3.4280 C   0  0  0  0  0  0  0  0  0  0  0  0
    0.6660    8.6730   -2.4730 C   0  0  2  0  0  0  0  0  0  0  0  0
   -0.2760    8.0210   -1.6160 O   0  0  0  0  0  0  0  0  0  0  0  0
    1.7260    9.4190   -1.6150 C   0  0  0  0  0  0  0  0  0  0  0  0
    2.9040    9.8650   -2.5150 C   0  0  0  0  0  0  0  0  0  0  0  0
    2.3160    8.4050   -0.5980 C   0  0  0  0  0  0  0  0  0  0  0  0
   -0.3720   12.8630   -1.1850 C   0  0  1  0  0  0  0  0  0  0  0  0
   -1.7610   12.4800   -0.5880 C   0  0  0  0  0  0  0  0  0  0  0  0
   -0.6470   13.9630   -2.2780 C   0  0  0  0  0  0  0  0  0  0  0  0
    0.5000   14.9460   -2.5790 C   0  0  0  0  0  0  0  0  0  0  0  0
    1.0710   15.5340   -1.2850 C   0  0  2  0  0  0  0  0  0  0  0  0
   -0.0690   16.3520   -0.5880 C   0  0  0  0  0  0  0  0  0  0  0  0
    3.8633   18.4276   -2.9953 H   0  0  0  0  0  0  0  0  0  0  0  0
    2.8595   17.1812   -3.8111 H   0  0  0  0  0  0  0  0  0  0  0  0
    2.3339   18.8989   -3.8111 H   0  0  0  0  0  0  0  0  0  0  0  0
    0.9976   18.0210   -2.1375 H   0  0  0  0  0  0  0  0  0  0  0  0
    2.2957   18.4222    0.1536 H   0  0  0  0  0  0  0  0  0  0  0  0
    3.5135   19.1550   -0.9962 H   0  0  0  0  0  0  0  0  0  0  0  0
    2.2961   21.0201   -0.5360 H   0  0  0  0  0  0  0  0  0  0  0  0
    1.3317   20.3540   -1.9195 H   0  0  0  0  0  0  0  0  0  0  0  0
    0.7939   20.9736    0.5945 H   0  0  0  0  0  0  0  0  0  0  0  0
   -1.7950   18.5366   -2.0561 H   0  0  0  0  0  0  0  0  0  0  0  0
   -1.6750   20.2806   -2.4692 H   0  0  0  0  0  0  0  0  0  0  0  0
   -0.2009   19.2541   -2.4692 H   0  0  0  0  0  0  0  0  0  0  0  0
   -1.9237   20.1160    1.3235 H   0  0  0  0  0  0  0  0  0  0  0  0
   -2.3870   21.2367   -0.0017 H   0  0  0  0  0  0  0  0  0  0  0  0
   -2.9942   19.5461   -0.0017 H   0  0  0  0  0  0  0  0  0  0  0  0
    2.9609   16.0895   -2.2334 H   0  0  0  0  0  0  0  0  0  0  0  0
    4.0282   16.3288   -0.0786 H   0  0  0  0  0  0  0  0  0  0  0  0
    2.7078   17.3378    0.5497 H   0  0  0  0  0  0  0  0  0  0  0  0
    3.1401   14.5847    1.1829 H   0  0  0  0  0  0  0  0  0  0  0  0
    1.6383   15.4480    1.5050 H   0  0  0  0  0  0  0  0  0  0  0  0
    3.4733   13.1340   -0.3320 H   0  0  0  0  0  0  0  0  0  0  0  0
    2.4056   12.7732   -1.7307 H   0  0  0  0  0  0  0  0  0  0  0  0
    3.4144   14.2594   -1.7307 H   0  0  0  0  0  0  0  0  0  0  0  0
   -0.1472   14.0852    0.5975 H   0  0  0  0  0  0  0  0  0  0  0  0
    1.7457   12.6450    1.5900 H   0  0  0  0  0  0  0  0  0  0  0  0
    0.0055   12.0444    1.5625 H   0  0  0  0  0  0  0  0  0  0  0  0
    1.8583   10.2746    0.9485 H   0  0  0  0  0  0  0  0  0  0  0  0
    1.0057   12.0527   -2.5757 H   0  0  0  0  0  0  0  0  0  0  0  0
   -1.4767   10.3337   -1.9638 H   0  0  0  0  0  0  0  0  0  0  0  0
   -1.2184   11.4046   -3.4122 H   0  0  0  0  0  0  0  0  0  0  0  0
   -0.8718    9.0126   -3.9424 H   0  0  0  0  0  0  0  0  0  0  0  0
    0.6218   10.0067   -4.1560 H   0  0  0  0  0  0  0  0  0  0  0  0
    1.2165    7.9433   -3.0850 H   0  0  0  0  0  0  0  0  0  0  0  0
    0.1770    7.8200   -0.7790 H   0  0  0  0  0  0  0  0  0  0  0  0
    3.7469   10.1841   -1.8843 H   0  0  0  0  0  0  0  0  0  0  0  0
    3.2191    9.0239   -3.1501 H   0  0  0  0  0  0  0  0  0  0  0  0
    2.5831   10.7039   -3.1501 H   0  0  0  0  0  0  0  0  0  0  0  0
    2.1137    8.7527    0.4258 H   0  0  0  0  0  0  0  0  0  0  0  0
    1.8499    7.4203   -0.7496 H   0  0  0  0  0  0  0  0  0  0  0  0
    3.4025    8.3236   -0.7496 H   0  0  0  0  0  0  0  0  0  0  0  0
   -1.7048   12.4955    0.5105 H   0  0  0  0  0  0  0  0  0  0  0  0
   -2.5176   13.2030   -0.9267 H   0  0  0  0  0  0  0  0  0  0  0  0
   -2.0402   11.4714   -0.9267 H   0  0  0  0  0  0  0  0  0  0  0  0
   -0.8959   13.4450   -3.2159 H   0  0  0  0  0  0  0  0  0  0  0  0
   -1.4561   14.5831   -1.8646 H   0  0  0  0  0  0  0  0  0  0  0  0
    1.2990   14.4134   -3.1157 H   0  0  0  0  0  0  0  0  0  0  0  0
    0.1053   15.7682   -3.1940 H   0  0  0  0  0  0  0  0  0  0  0  0
    0.0391   16.2745    0.5039 H   0  0  0  0  0  0  0  0  0  0  0  0
    0.0004   17.4077   -0.8893 H   0  0  0  0  0  0  0  0  0  0  0  0
   -1.0468   15.9482   -0.8893 H   0  0  0  0  0  0  0  0  0  0  0  0
  1  2  1  0
  2  3  1  0
  3  4  1  0
  4  5  1  0
  5  6  1  0
  6  7  1  0
  7  8  1  0
  7  9  1  0
  2 10  1  0
 10 11  1  0
 11 12  1  0
 12 13  1  0
 13 14  1  6
 13 15  1  0
 15 16  1  0
 16 17  1  0
 17 18  2  0
 18 19  1  0
 19 20  1  0
 20 21  1  0
 21 22  1  0
 22 23  1  0
 22 24  1  0
 24 25  1  0
 24 26  1  0
 19 27  1  0
 27 28  1  1
 27 29  1  0
 29 30  1  0
 30 31  1  0
 31 32  1  1
  7  5  1  0
 31 10  1  0
 31 13  1  0
 27 15  1  0
 24 18  1  0
  1 33  1  0
  1 34  1  0
  1 35  1  0
  2 36  1  6
  3 37  1  0
  3 38  1  0
  4 39  1  0
  4 40  1  0
  5 41  1  1
  8 42  1  0
  8 43  1  0
  8 44  1  0
  9 45  1  0
  9 46  1  0
  9 47  1  0
 10 48  1  6
 11 49  1  0
 11 50  1  0
 12 51  1  0
 12 52  1  0
 14 53  1  0
 14 54  1  0
 14 55  1  0
 15 56  1  1
 16 57  1  0
 16 58  1  0
 17 59  1  0
 19 60  1  6
 20 61  1  0
 20 62  1  0
 21 63  1  0
 21 64  1  0
 22 65  1  6
 23 66  1  0
 25 67  1  0
 25 68  1  0
 25 69  1  0
 26 70  1  0
 26 71  1  0
 26 72  1  0
 28 73  1  0
 28 74  1  0
 28 75  1  0
 29 76  1  0
 29 77  1  0
 30 78  1  0
 30 79  1  0
 32 80  1  0
 32 81  1  0
 32 82  1  0
M  END
>  <meeko>  (12) 
{"is_sidechain": [false], "intermolecular_energy": 2.731, "internal_energy": -0.839}

$$$$
EPH_relaxed_0001_pdb2pqr_Repair_79_r2_0001_out
     RDKit          3D

 82 86  0  0  0  0  0  0  0  0999 V2000
   -5.0040    6.2650   -2.3560 C   0  0  0  0  0  0  0  0  0  0  0  0
   -5.4810    7.6970   -2.0960 C   0  0  2  0  0  0  0  0  0  0  0  0
   -5.3010    8.1100   -0.6210 C   0  0  0  0  0  0  0  0  0  0  0  0
   -4.1620    9.1080   -0.3960 C   0  0  0  0  0  0  0  0  0  0  0  0
   -2.8520    8.5740   -0.8930 C   0  0  2  0  0  0  0  0  0  0  0  0
   -1.7540    8.7450    0.0120 O   0  0  0  0  0  0  0  0  0  0  0  0
   -1.6650    9.4560   -1.2340 C   0  0  0  0  0  0  0  0  0  0  0  0
   -1.7320   10.9440   -1.0920 C   0  0  0  0  0  0  0  0  0  0  0  0
   -0.6190    8.9200   -2.1610 C   0  0  0  0  0  0  0  0  0  0  0  0
   -6.9430    7.8400   -2.5020 C   0  0  1  0  0  0  0  0  0  0  0  0
   -7.2750    7.0820   -3.8160 C   0  0  0  0  0  0  0  0  0  0  0  0
   -8.7210    6.5440   -3.6690 C   0  0  0  0  0  0  0  0  0  0  0  0
   -9.2880    7.2820   -2.4330 C   0  0  1  0  0  0  0  0  0  0  0  0
   -9.7290    8.6800   -2.9680 C   0  0  0  0  0  0  0  0  0  0  0  0
  -10.4490    6.5630   -1.6720 C   0  0  2  0  0  0  0  0  0  0  0  0
  -11.7330    6.3480   -2.4930 C   0  0  0  0  0  0  0  0  0  0  0  0
  -12.7360    7.4500   -2.4080 C   0  0  0  0  0  0  0  0  0  0  0  0
  -12.7440    8.4320   -1.4880 C   0  0  0  0  0  0  0  0  0  0  0  0
  -11.7270    8.4430   -0.3390 C   0  0  1  0  0  0  0  0  0  0  0  0
  -12.4580    8.7330    0.9980 C   0  0  0  0  0  0  0  0  0  0  0  0
  -13.2910   10.0100    0.9440 C   0  0  0  0  0  0  0  0  0  0  0  0
  -14.3290    9.9370   -0.1730 C   0  0  2  0  0  0  0  0  0  0  0  0
  -15.2870    8.9260    0.1540 O   0  0  0  0  0  0  0  0  0  0  0  0
  -13.7100    9.6390   -1.5670 C   0  0  0  0  0  0  0  0  0  0  0  0
  -12.9090   10.8720   -2.0550 C   0  0  0  0  0  0  0  0  0  0  0  0
  -14.8750    9.4520   -2.5760 C   0  0  0  0  0  0  0  0  0  0  0  0
  -10.7690    7.1770   -0.2490 C   0  0  1  0  0  0  0  0  0  0  0  0
  -11.4560    6.0490    0.5790 C   0  0  0  0  0  0  0  0  0  0  0  0
   -9.4650    7.5750    0.5380 C   0  0  0  0  0  0  0  0  0  0  0  0
   -8.3090    8.1690   -0.2880 C   0  0  0  0  0  0  0  0  0  0  0  0
   -8.0110    7.3040   -1.5160 C   0  0  2  0  0  0  0  0  0  0  0  0
   -7.5440    5.8970   -1.0090 C   0  0  0  0  0  0  0  0  0  0  0  0
   -4.8342    5.7551   -1.3962 H   0  0  0  0  0  0  0  0  0  0  0  0
   -5.7697    5.7218   -2.9293 H   0  0  0  0  0  0  0  0  0  0  0  0
   -4.0655    6.2895   -2.9293 H   0  0  0  0  0  0  0  0  0  0  0  0
   -4.8587    8.3688   -2.7055 H   0  0  0  0  0  0  0  0  0  0  0  0
   -6.2381    8.5680   -0.2718 H   0  0  0  0  0  0  0  0  0  0  0  0
   -5.0451    7.1985   -0.0609 H   0  0  0  0  0  0  0  0  0  0  0  0
   -4.3936   10.0403   -0.9319 H   0  0  0  0  0  0  0  0  0  0  0  0
   -4.0715    9.2877    0.6854 H   0  0  0  0  0  0  0  0  0  0  0  0
   -3.3621    7.7751   -1.4512 H   0  0  0  0  0  0  0  0  0  0  0  0
   -1.7440   11.2103   -0.0248 H   0  0  0  0  0  0  0  0  0  0  0  0
   -0.8534   11.3982   -1.5734 H   0  0  0  0  0  0  0  0  0  0  0  0
   -2.6479   11.3174   -1.5734 H   0  0  0  0  0  0  0  0  0  0  0  0
    0.2088    8.4958   -1.5738 H   0  0  0  0  0  0  0  0  0  0  0  0
   -1.0582    8.1358   -2.7952 H   0  0  0  0  0  0  0  0  0  0  0  0
   -0.2390    9.7345   -2.7952 H   0  0  0  0  0  0  0  0  0  0  0  0
   -7.0093    8.9360   -2.5689 H   0  0  0  0  0  0  0  0  0  0  0  0
   -7.2110    7.7666   -4.6747 H   0  0  0  0  0  0  0  0  0  0  0  0
   -6.5638    6.2608   -3.9886 H   0  0  0  0  0  0  0  0  0  0  0  0
   -9.3146    6.7756   -4.5657 H   0  0  0  0  0  0  0  0  0  0  0  0
   -8.7495    5.4507   -3.5515 H   0  0  0  0  0  0  0  0  0  0  0  0
   -9.9396    9.3476   -2.1195 H   0  0  0  0  0  0  0  0  0  0  0  0
   -8.9226    9.1091   -3.5808 H   0  0  0  0  0  0  0  0  0  0  0  0
  -10.6357    8.5688   -3.5808 H   0  0  0  0  0  0  0  0  0  0  0  0
  -10.0327    5.5594   -1.5005 H   0  0  0  0  0  0  0  0  0  0  0  0
  -11.4459    6.2303   -3.5483 H   0  0  0  0  0  0  0  0  0  0  0  0
  -12.2210    5.4588   -2.0674 H   0  0  0  0  0  0  0  0  0  0  0  0
  -13.5371    7.4603   -3.1618 H   0  0  0  0  0  0  0  0  0  0  0  0
  -11.0237    9.2584   -0.5636 H   0  0  0  0  0  0  0  0  0  0  0  0
  -13.1233    7.8874    1.2268 H   0  0  0  0  0  0  0  0  0  0  0  0
  -11.6915    8.8668    1.7755 H   0  0  0  0  0  0  0  0  0  0  0  0
  -13.8065   10.1446    1.9064 H   0  0  0  0  0  0  0  0  0  0  0  0
  -12.6202   10.8588    0.7452 H   0  0  0  0  0  0  0  0  0  0  0  0
  -14.8043   10.9263   -0.2466 H   0  0  0  0  0  0  0  0  0  0  0  0
  -14.8420    8.0650    0.0860 H   0  0  0  0  0  0  0  0  0  0  0  0
  -12.5415   11.4378   -1.1862 H   0  0  0  0  0  0  0  0  0  0  0  0
  -12.0552   10.5376   -2.6626 H   0  0  0  0  0  0  0  0  0  0  0  0
  -13.5616   11.5161   -2.6626 H   0  0  0  0  0  0  0  0  0  0  0  0
  -15.8156    9.3010   -2.0261 H   0  0  0  0  0  0  0  0  0  0  0  0
  -14.9597   10.3480   -3.2084 H   0  0  0  0  0  0  0  0  0  0  0  0
  -14.6751    8.5745   -3.2084 H   0  0  0  0  0  0  0  0  0  0  0  0
  -11.3311    6.2542    1.6525 H   0  0  0  0  0  0  0  0  0  0  0  0
  -12.5279    6.0156    0.3344 H   0  0  0  0  0  0  0  0  0  0  0  0
  -10.9938    5.0812    0.3344 H   0  0  0  0  0  0  0  0  0  0  0  0
   -9.7485    8.3193    1.2968 H   0  0  0  0  0  0  0  0  0  0  0  0
   -9.0735    6.6300    0.9425 H   0  0  0  0  0  0  0  0  0  0  0  0
   -8.5863    9.1806   -0.6193 H   0  0  0  0  0  0  0  0  0  0  0  0
   -7.4088    8.2035    0.3432 H   0  0  0  0  0  0  0  0  0  0  0  0
   -7.5404    5.8862    0.0909 H   0  0  0  0  0  0  0  0  0  0  0  0
   -8.2343    5.1255   -1.3810 H   0  0  0  0  0  0  0  0  0  0  0  0
   -6.5294    5.6914   -1.3810 H   0  0  0  0  0  0  0  0  0  0  0  0
  1  2  1  0
  2  3  1  0
  3  4  1  0
  4  5  1  0
  5  6  1  0
  6  7  1  0
  7  8  1  0
  7  9  1  0
  2 10  1  0
 10 11  1  0
 11 12  1  0
 12 13  1  0
 13 14  1  6
 13 15  1  0
 15 16  1  0
 16 17  1  0
 17 18  2  0
 18 19  1  0
 19 20  1  0
 20 21  1  0
 21 22  1  0
 22 23  1  0
 22 24  1  0
 24 25  1  0
 24 26  1  0
 19 27  1  0
 27 28  1  1
 27 29  1  0
 29 30  1  0
 30 31  1  0
 31 32  1  1
  7  5  1  0
 31 10  1  0
 31 13  1  0
 27 15  1  0
 24 18  1  0
  1 33  1  0
  1 34  1  0
  1 35  1  0
  2 36  1  6
  3 37  1  0
  3 38  1  0
  4 39  1  0
  4 40  1  0
  5 41  1  6
  8 42  1  0
  8 43  1  0
  8 44  1  0
  9 45  1  0
  9 46  1  0
  9 47  1  0
 10 48  1  6
 11 49  1  0
 11 50  1  0
 12 51  1  0
 12 52  1  0
 14 53  1  0
 14 54  1  0
 14 55  1  0
 15 56  1  1
 16 57  1  0
 16 58  1  0
 17 59  1  0
 19 60  1  6
 20 61  1  0
 20 62  1  0
 21 63  1  0
 21 64  1  0
 22 65  1  6
 23 66  1  0
 25 67  1  0
 25 68  1  0
 25 69  1  0
 26 70  1  0
 26 71  1  0
 26 72  1  0
 28 73  1  0
 28 74  1  0
 28 75  1  0
 29 76  1  0
 29 77  1  0
 30 78  1  0
 30 79  1  0
 32 80  1  0
 32 81  1  0
 32 82  1  0
M  END
>  <meeko>  (13) 
{"is_sidechain": [false], "intermolecular_energy": 2.731, "internal_energy": -0.839}

$$$$
EPH_relaxed_0001_pdb2pqr_Repair_79_r2_0001_out
     RDKit          3D

 82 86  0  0  0  0  0  0  0  0999 V2000
    1.1590   10.9970   -4.5540 C   0  0  0  0  0  0  0  0  0  0  0  0
    1.2940   10.4460   -3.1320 C   0  0  2  0  0  0  0  0  0  0  0  0
    0.1890    9.4240   -2.7970 C   0  0  0  0  0  0  0  0  0  0  0  0
   -0.2930    9.4920   -1.3450 C   0  0  0  0  0  0  0  0  0  0  0  0
   -1.7760    9.2990   -1.2440 C   0  0  2  0  0  0  0  0  0  0  0  0
   -2.5380   10.5130   -1.2410 O   0  0  0  0  0  0  0  0  0  0  0  0
   -2.5940    9.7270   -0.0400 C   0  0  0  0  0  0  0  0  0  0  0  0
   -1.9560   10.3800    1.1450 C   0  0  0  0  0  0  0  0  0  0  0  0
   -3.9210    9.0730    0.1920 C   0  0  0  0  0  0  0  0  0  0  0  0
    1.2670   11.5900   -2.1260 C   0  0  1  0  0  0  0  0  0  0  0  0
    2.2780   11.3900   -0.9650 C   0  0  0  0  0  0  0  0  0  0  0  0
    2.8080   12.7970   -0.5860 C   0  0  0  0  0  0  0  0  0  0  0  0
    1.8510   13.7800   -1.3010 C   0  0  1  0  0  0  0  0  0  0  0  0
    0.5970   13.8640   -0.3750 C   0  0  0  0  0  0  0  0  0  0  0  0
    2.4290   15.1970   -1.6200 C   0  0  2  0  0  0  0  0  0  0  0  0
    2.8310   16.0300   -0.3910 C   0  0  0  0  0  0  0  0  0  0  0  0
    1.7570   16.9030    0.1680 C   0  0  0  0  0  0  0  0  0  0  0  0
    0.6120   17.2320   -0.4590 C   0  0  0  0  0  0  0  0  0  0  0  0
    0.3500   16.7900   -1.9040 C   0  0  1  0  0  0  0  0  0  0  0  0
   -0.1850   17.9930   -2.7250 C   0  0  0  0  0  0  0  0  0  0  0  0
   -1.4070   18.6420   -2.0820 C   0  0  0  0  0  0  0  0  0  0  0  0
   -1.0910   19.1200   -0.6680 C   0  0  2  0  0  0  0  0  0  0  0  0
   -0.1440   20.1910   -0.7440 O   0  0  0  0  0  0  0  0  0  0  0  0
   -0.5350   17.9950    0.2490 C   0  0  0  0  0  0  0  0  0  0  0  0
   -1.6620   16.9850    0.5760 C   0  0  0  0  0  0  0  0  0  0  0  0
   -0.1240   18.6400    1.6010 C   0  0  0  0  0  0  0  0  0  0  0  0
    1.5510   16.0430   -2.6290 C   0  0  1  0  0  0  0  0  0  0  0  0
    2.5070   17.0850   -3.2860 C   0  0  0  0  0  0  0  0  0  0  0  0
    0.9770   15.1650   -3.8030 C   0  0  0  0  0  0  0  0  0  0  0  0
    0.5330   13.7330   -3.4480 C   0  0  0  0  0  0  0  0  0  0  0  0
    1.6190   13.0050   -2.6490 C   0  0  2  0  0  0  0  0  0  0  0  0
    2.8860   12.8860   -3.5630 C   0  0  0  0  0  0  0  0  0  0  0  0
    0.8974   12.0646   -4.5103 H   0  0  0  0  0  0  0  0  0  0  0  0
    2.1136   10.8749   -5.0867 H   0  0  0  0  0  0  0  0  0  0  0  0
    0.3689   10.4474   -5.0867 H   0  0  0  0  0  0  0  0  0  0  0  0
    2.2586    9.9207   -3.0718 H   0  0  0  0  0  0  0  0  0  0  0  0
   -0.6703    9.6127   -3.4573 H   0  0  0  0  0  0  0  0  0  0  0  0
    0.6209    8.4233   -2.9457 H   0  0  0  0  0  0  0  0  0  0  0  0
    0.2095    8.7037   -0.7652 H   0  0  0  0  0  0  0  0  0  0  0  0
   -0.0490   10.4887   -0.9488 H   0  0  0  0  0  0  0  0  0  0  0  0
   -1.7145    8.3485   -1.7943 H   0  0  0  0  0  0  0  0  0  0  0  0
   -2.3738    9.9524    2.0684 H   0  0  0  0  0  0  0  0  0  0  0  0
   -0.8701   10.2062    1.1190 H   0  0  0  0  0  0  0  0  0  0  0  0
   -2.1550   11.4615    1.1190 H   0  0  0  0  0  0  0  0  0  0  0  0
   -4.1018    8.9839    1.2734 H   0  0  0  0  0  0  0  0  0  0  0  0
   -4.7150    9.6830   -0.2635 H   0  0  0  0  0  0  0  0  0  0  0  0
   -3.9209    8.0717   -0.2635 H   0  0  0  0  0  0  0  0  0  0  0  0
    0.2082   11.5501   -1.8306 H   0  0  0  0  0  0  0  0  0  0  0  0
    1.7766   10.9288   -0.1013 H   0  0  0  0  0  0  0  0  0  0  0  0
    3.1012   10.7263   -1.2681 H   0  0  0  0  0  0  0  0  0  0  0  0
    2.7733   12.9445    0.5035 H   0  0  0  0  0  0  0  0  0  0  0  0
    3.8562   12.9427   -0.8860 H   0  0  0  0  0  0  0  0  0  0  0  0
    0.9163   13.8426    0.6774 H   0  0  0  0  0  0  0  0  0  0  0  0
    0.0556   14.8004   -0.5750 H   0  0  0  0  0  0  0  0  0  0  0  0
   -0.0645   13.0082   -0.5750 H   0  0  0  0  0  0  0  0  0  0  0  0
    3.3691   14.9565   -2.1381 H   0  0  0  0  0  0  0  0  0  0  0  0
    3.1505   15.3357    0.4001 H   0  0  0  0  0  0  0  0  0  0  0  0
    3.6275   16.7082   -0.7310 H   0  0  0  0  0  0  0  0  0  0  0  0
    1.9143   17.3119    1.1770 H   0  0  0  0  0  0  0  0  0  0  0  0
   -0.4189   16.0054   -1.8470 H   0  0  0  0  0  0  0  0  0  0  0  0
    0.6123   18.7464   -2.8073 H   0  0  0  0  0  0  0  0  0  0  0  0
   -0.4880   17.6153   -3.7127 H   0  0  0  0  0  0  0  0  0  0  0  0
   -1.7198   19.5028   -2.6913 H   0  0  0  0  0  0  0  0  0  0  0  0
   -2.2130   17.8954   -2.0279 H   0  0  0  0  0  0  0  0  0  0  0  0
   -2.0352   19.4561   -0.2147 H   0  0  0  0  0  0  0  0  0  0  0  0
    0.1540   20.2540   -1.6670 H   0  0  0  0  0  0  0  0  0  0  0  0
   -1.7658   16.8920    1.6671 H   0  0  0  0  0  0  0  0  0  0  0  0
   -2.6099   17.3416    0.1466 H   0  0  0  0  0  0  0  0  0  0  0  0
   -1.4110   16.0039    0.1466 H   0  0  0  0  0  0  0  0  0  0  0  0
   -0.5121   18.0310    2.4308 H   0  0  0  0  0  0  0  0  0  0  0  0
    0.9730   18.6902    1.6648 H   0  0  0  0  0  0  0  0  0  0  0  0
   -0.5419   19.6555    1.6648 H   0  0  0  0  0  0  0  0  0  0  0  0
    3.0272   17.6520   -2.5000 H   0  0  0  0  0  0  0  0  0  0  0  0
    3.2459   16.5618   -3.9108 H   0  0  0  0  0  0  0  0  0  0  0  0
    1.9223   17.7762   -3.9108 H   0  0  0  0  0  0  0  0  0  0  0  0
    0.1036   15.6913   -4.2156 H   0  0  0  0  0  0  0  0  0  0  0  0
    1.8148   15.0404   -4.5048 H   0  0  0  0  0  0  0  0  0  0  0  0
   -0.3864   13.7800   -2.8459 H   0  0  0  0  0  0  0  0  0  0  0  0
    0.3536   13.1795   -4.3815 H   0  0  0  0  0  0  0  0  0  0  0  0
    3.7848   12.8016   -2.9346 H   0  0  0  0  0  0  0  0  0  0  0  0
    2.7974   11.9922   -4.1981 H   0  0  0  0  0  0  0  0  0  0  0  0
    2.9653   13.7806   -4.1981 H   0  0  0  0  0  0  0  0  0  0  0  0
  1  2  1  0
  2  3  1  0
  3  4  1  0
  4  5  1  0
  5  6  1  0
  6  7  1  0
  7  8  1  0
  7  9  1  0
  2 10  1  0
 10 11  1  0
 11 12  1  0
 12 13  1  0
 13 14  1  1
 13 15  1  0
 15 16  1  0
 16 17  1  0
 17 18  2  0
 18 19  1  0
 19 20  1  0
 20 21  1  0
 21 22  1  0
 22 23  1  0
 22 24  1  0
 24 25  1  0
 24 26  1  0
 19 27  1  0
 27 28  1  6
 27 29  1  0
 29 30  1  0
 30 31  1  0
 31 32  1  6
  7  5  1  0
 31 10  1  0
 31 13  1  0
 27 15  1  0
 24 18  1  0
  1 33  1  0
  1 34  1  0
  1 35  1  0
  2 36  1  6
  3 37  1  0
  3 38  1  0
  4 39  1  0
  4 40  1  0
  5 41  1  6
  8 42  1  0
  8 43  1  0
  8 44  1  0
  9 45  1  0
  9 46  1  0
  9 47  1  0
 10 48  1  1
 11 49  1  0
 11 50  1  0
 12 51  1  0
 12 52  1  0
 14 53  1  0
 14 54  1  0
 14 55  1  0
 15 56  1  6
 16 57  1  0
 16 58  1  0
 17 59  1  0
 19 60  1  1
 20 61  1  0
 20 62  1  0
 21 63  1  0
 21 64  1  0
 22 65  1  1
 23 66  1  0
 25 67  1  0
 25 68  1  0
 25 69  1  0
 26 70  1  0
 26 71  1  0
 26 72  1  0
 28 73  1  0
 28 74  1  0
 28 75  1  0
 29 76  1  0
 29 77  1  0
 30 78  1  0
 30 79  1  0
 32 80  1  0
 32 81  1  0
 32 82  1  0
M  END
>  <meeko>  (14) 
{"is_sidechain": [false], "intermolecular_energy": 2.731, "internal_energy": -0.839}

$$$$
EPH_relaxed_0001_pdb2pqr_Repair_79_r2_0001_out
     RDKit          3D

 82 86  0  0  0  0  0  0  0  0999 V2000
    2.8450   11.2990   -5.2280 C   0  0  0  0  0  0  0  0  0  0  0  0
    1.7840   11.0230   -4.1590 C   0  0  2  0  0  0  0  0  0  0  0  0
    0.6610   10.1030   -4.6800 C   0  0  0  0  0  0  0  0  0  0  0  0
   -0.4090    9.7840   -3.6330 C   0  0  0  0  0  0  0  0  0  0  0  0
    0.1610    9.0240   -2.4730 C   0  0  2  0  0  0  0  0  0  0  0  0
   -0.6550    7.9400   -2.0090 O   0  0  0  0  0  0  0  0  0  0  0  0
   -0.4580    9.0250   -1.0870 C   0  0  0  0  0  0  0  0  0  0  0  0
   -1.7020    9.8030   -0.7890 C   0  0  0  0  0  0  0  0  0  0  0  0
    0.4060    8.6730    0.0830 C   0  0  0  0  0  0  0  0  0  0  0  0
    1.1910   12.3370   -3.6640 C   0  0  1  0  0  0  0  0  0  0  0  0
   -0.3480   12.2670   -3.4790 C   0  0  0  0  0  0  0  0  0  0  0  0
   -0.6930   13.1560   -2.2560 C   0  0  0  0  0  0  0  0  0  0  0  0
    0.5980   13.9630   -1.9850 C   0  0  1  0  0  0  0  0  0  0  0  0
    0.5580   15.1400   -3.0100 C   0  0  0  0  0  0  0  0  0  0  0  0
    0.7950   14.4790   -0.5220 C   0  0  2  0  0  0  0  0  0  0  0  0
   -0.2740   15.4700   -0.0290 C   0  0  0  0  0  0  0  0  0  0  0  0
    0.0290   16.9100   -0.2790 C   0  0  0  0  0  0  0  0  0  0  0  0
    1.2330   17.4100   -0.6140 C   0  0  0  0  0  0  0  0  0  0  0  0
    2.4710   16.5060   -0.6780 C   0  0  1  0  0  0  0  0  0  0  0  0
    3.6530   17.1940    0.0530 C   0  0  0  0  0  0  0  0  0  0  0  0
    3.9290   18.5990   -0.4740 C   0  0  0  0  0  0  0  0  0  0  0  0
    2.6920   19.4840   -0.3390 C   0  0  2  0  0  0  0  0  0  0  0  0
    2.4250   19.6940    1.0500 O   0  0  0  0  0  0  0  0  0  0  0  0
    1.4340   18.8880   -1.0300 C   0  0  0  0  0  0  0  0  0  0  0  0
    1.6100   18.9410   -2.5680 C   0  0  0  0  0  0  0  0  0  0  0  0
    0.2270   19.8070   -0.6990 C   0  0  0  0  0  0  0  0  0  0  0  0
    2.2560   15.0020   -0.2110 C   0  0  1  0  0  0  0  0  0  0  0  0
    2.4490   14.8920    1.3330 C   0  0  0  0  0  0  0  0  0  0  0  0
    3.3670   14.0980   -0.8630 C   0  0  0  0  0  0  0  0  0  0  0  0
    3.0630   13.5210   -2.2590 C   0  0  0  0  0  0  0  0  0  0  0  0
    1.6790   12.8640   -2.2910 C   0  0  2  0  0  0  0  0  0  0  0  0
    1.6960   11.6630   -1.2850 C   0  0  0  0  0  0  0  0  0  0  0  0
    3.7998   11.5474   -4.7415 H   0  0  0  0  0  0  0  0  0  0  0  0
    2.9748   10.4047   -5.8552 H   0  0  0  0  0  0  0  0  0  0  0  0
    2.5226   12.1432   -5.8552 H   0  0  0  0  0  0  0  0  0  0  0  0
    2.2802   10.5015   -3.3272 H   0  0  0  0  0  0  0  0  0  0  0  0
    0.1748   10.5978   -5.5337 H   0  0  0  0  0  0  0  0  0  0  0  0
    1.1313    9.1488   -4.9598 H   0  0  0  0  0  0  0  0  0  0  0  0
   -0.8399   10.7267   -3.2647 H   0  0  0  0  0  0  0  0  0  0  0  0
   -1.1789    9.1585   -4.1084 H   0  0  0  0  0  0  0  0  0  0  0  0
    1.1868    9.2118   -2.8230 H   0  0  0  0  0  0  0  0  0  0  0  0
   -1.8316    9.8841    0.3003 H   0  0  0  0  0  0  0  0  0  0  0  0
   -1.6179   10.8097   -1.2242 H   0  0  0  0  0  0  0  0  0  0  0  0
   -2.5704    9.2868   -1.2242 H   0  0  0  0  0  0  0  0  0  0  0  0
   -0.1332    8.8927    1.0163 H   0  0  0  0  0  0  0  0  0  0  0  0
    0.6543    7.6020    0.0464 H   0  0  0  0  0  0  0  0  0  0  0  0
    1.3320    9.2655    0.0464 H   0  0  0  0  0  0  0  0  0  0  0  0
    1.5309   13.0067   -4.4677 H   0  0  0  0  0  0  0  0  0  0  0  0
   -0.8552   12.6466   -4.3782 H   0  0  0  0  0  0  0  0  0  0  0  0
   -0.6797   11.2304   -3.3196 H   0  0  0  0  0  0  0  0  0  0  0  0
   -1.5305   13.8298   -2.4894 H   0  0  0  0  0  0  0  0  0  0  0  0
   -1.0056   12.5631   -1.3838 H   0  0  0  0  0  0  0  0  0  0  0  0
    0.5255   16.0969   -2.4684 H   0  0  0  0  0  0  0  0  0  0  0  0
    1.4578   15.1067   -3.6419 H   0  0  0  0  0  0  0  0  0  0  0  0
   -0.3375   15.0457   -3.6419 H   0  0  0  0  0  0  0  0  0  0  0  0
    0.6496   13.5646    0.0720 H   0  0  0  0  0  0  0  0  0  0  0  0
   -1.2204   15.2288   -0.5350 H   0  0  0  0  0  0  0  0  0  0  0  0
   -0.3170   15.3530    1.0639 H   0  0  0  0  0  0  0  0  0  0  0  0
   -0.8025   17.6234   -0.1811 H   0  0  0  0  0  0  0  0  0  0  0  0
    2.7091   16.3914   -1.7458 H   0  0  0  0  0  0  0  0  0  0  0  0
    3.4143   17.2600    1.1248 H   0  0  0  0  0  0  0  0  0  0  0  0
    4.5536   16.5879   -0.1247 H   0  0  0  0  0  0  0  0  0  0  0  0
    4.7546   19.0437    0.1011 H   0  0  0  0  0  0  0  0  0  0  0  0
    4.1967   18.5289   -1.5386 H   0  0  0  0  0  0  0  0  0  0  0  0
    2.9086   20.4341   -0.8492 H   0  0  0  0  0  0  0  0  0  0  0  0
    3.1720   19.3290    1.5530 H   0  0  0  0  0  0  0  0  0  0  0  0
    2.6377   19.2505   -2.8090 H   0  0  0  0  0  0  0  0  0  0  0  0
    1.4176   17.9451   -2.9936 H   0  0  0  0  0  0  0  0  0  0  0  0
    0.8997   19.6651   -2.9936 H   0  0  0  0  0  0  0  0  0  0  0  0
    0.1179   19.8901    0.3924 H   0  0  0  0  0  0  0  0  0  0  0  0
    0.3981   20.8056   -1.1275 H   0  0  0  0  0  0  0  0  0  0  0  0
   -0.6901   19.3764   -1.1275 H   0  0  0  0  0  0  0  0  0  0  0  0
    1.6025   15.3744    1.8436 H   0  0  0  0  0  0  0  0  0  0  0  0
    2.4956   13.8317    1.6221 H   0  0  0  0  0  0  0  0  0  0  0  0
    3.3850   15.3923    1.6221 H   0  0  0  0  0  0  0  0  0  0  0  0
    4.2822   14.7028   -0.9451 H   0  0  0  0  0  0  0  0  0  0  0  0
    3.4502   13.2228   -0.2019 H   0  0  0  0  0  0  0  0  0  0  0  0
    3.0924   14.3345   -2.9989 H   0  0  0  0  0  0  0  0  0  0  0  0
    3.8192   12.7580   -2.4956 H   0  0  0  0  0  0  0  0  0  0  0  0
    1.6906   12.0478   -0.2545 H   0  0  0  0  0  0  0  0  0  0  0  0
    0.8066   11.0363   -1.4471 H   0  0  0  0  0  0  0  0  0  0  0  0
    2.6027   11.0617   -1.4471 H   0  0  0  0  0  0  0  0  0  0  0  0
  1  2  1  0
  2  3  1  0
  3  4  1  0
  4  5  1  0
  5  6  1  0
  6  7  1  0
  7  8  1  0
  7  9  1  0
  2 10  1  0
 10 11  1  0
 11 12  1  0
 12 13  1  0
 13 14  1  6
 13 15  1  0
 15 16  1  0
 16 17  1  0
 17 18  2  0
 18 19  1  0
 19 20  1  0
 20 21  1  0
 21 22  1  0
 22 23  1  0
 22 24  1  0
 24 25  1  0
 24 26  1  0
 19 27  1  0
 27 28  1  1
 27 29  1  0
 29 30  1  0
 30 31  1  0
 31 32  1  1
  7  5  1  0
 31 10  1  0
 31 13  1  0
 27 15  1  0
 24 18  1  0
  1 33  1  0
  1 34  1  0
  1 35  1  0
  2 36  1  1
  3 37  1  0
  3 38  1  0
  4 39  1  0
  4 40  1  0
  5 41  1  1
  8 42  1  0
  8 43  1  0
  8 44  1  0
  9 45  1  0
  9 46  1  0
  9 47  1  0
 10 48  1  6
 11 49  1  0
 11 50  1  0
 12 51  1  0
 12 52  1  0
 14 53  1  0
 14 54  1  0
 14 55  1  0
 15 56  1  1
 16 57  1  0
 16 58  1  0
 17 59  1  0
 19 60  1  6
 20 61  1  0
 20 62  1  0
 21 63  1  0
 21 64  1  0
 22 65  1  6
 23 66  1  0
 25 67  1  0
 25 68  1  0
 25 69  1  0
 26 70  1  0
 26 71  1  0
 26 72  1  0
 28 73  1  0
 28 74  1  0
 28 75  1  0
 29 76  1  0
 29 77  1  0
 30 78  1  0
 30 79  1  0
 32 80  1  0
 32 81  1  0
 32 82  1  0
M  END
>  <meeko>  (15) 
{"is_sidechain": [false], "intermolecular_energy": 2.731, "internal_energy": -0.839}

$$$$
EPH_relaxed_0001_pdb2pqr_Repair_79_r2_0001_out
     RDKit          3D

 82 86  0  0  0  0  0  0  0  0999 V2000
   -4.1050    6.8940   -2.9610 C   0  0  0  0  0  0  0  0  0  0  0  0
   -4.5400    7.4300   -1.5940 C   0  0  2  0  0  0  0  0  0  0  0  0
   -6.0600    7.6820   -1.5260 C   0  0  0  0  0  0  0  0  0  0  0  0
   -6.9030    6.4260   -1.7650 C   0  0  0  0  0  0  0  0  0  0  0  0
   -8.2350    6.7590   -2.3660 C   0  0  2  0  0  0  0  0  0  0  0  0
   -8.5460    8.1580   -2.3940 O   0  0  0  0  0  0  0  0  0  0  0  0
   -9.3900    7.3380   -1.5710 C   0  0  0  0  0  0  0  0  0  0  0  0
   -9.2670    7.6170   -0.1060 C   0  0  0  0  0  0  0  0  0  0  0  0
  -10.7790    7.1760   -2.1050 C   0  0  0  0  0  0  0  0  0  0  0  0
   -3.7840    8.7140   -1.2750 C   0  0  1  0  0  0  0  0  0  0  0  0
   -4.2540    9.3700    0.0510 C   0  0  0  0  0  0  0  0  0  0  0  0
   -3.0010   10.0110    0.7020 C   0  0  0  0  0  0  0  0  0  0  0  0
   -1.9310    9.9950   -0.4150 C   0  0  1  0  0  0  0  0  0  0  0  0
   -2.2600   11.2350   -1.3030 C   0  0  0  0  0  0  0  0  0  0  0  0
   -0.4400   10.0010    0.0570 C   0  0  2  0  0  0  0  0  0  0  0  0
   -0.0120   11.2490    0.8490 C   0  0  0  0  0  0  0  0  0  0  0  0
    0.5360   12.3690    0.0270 C   0  0  0  0  0  0  0  0  0  0  0  0
    0.9450   12.2730   -1.2520 C   0  0  0  0  0  0  0  0  0  0  0  0
    0.9670   10.9180   -1.9720 C   0  0  1  0  0  0  0  0  0  0  0  0
    2.3170   10.7510   -2.7190 C   0  0  0  0  0  0  0  0  0  0  0  0
    2.6140   11.9160   -3.6570 C   0  0  0  0  0  0  0  0  0  0  0  0
    2.6410   13.2380   -2.8950 C   0  0  2  0  0  0  0  0  0  0  0  0
    3.7600   13.2330   -2.0020 O   0  0  0  0  0  0  0  0  0  0  0  0
    1.3360   13.5110   -2.0950 C   0  0  0  0  0  0  0  0  0  0  0  0
    0.1780   13.8160   -3.0770 C   0  0  0  0  0  0  0  0  0  0  0  0
    1.5490   14.8030   -1.2610 C   0  0  0  0  0  0  0  0  0  0  0  0
    0.6020    9.6540   -1.0820 C   0  0  1  0  0  0  0  0  0  0  0  0
    1.8800    9.1180   -0.3670 C   0  0  0  0  0  0  0  0  0  0  0  0
    0.0980    8.4930   -2.0200 C   0  0  0  0  0  0  0  0  0  0  0  0
   -1.4060    8.4720   -2.3530 C   0  0  0  0  0  0  0  0  0  0  0  0
   -2.2510    8.6080   -1.0820 C   0  0  2  0  0  0  0  0  0  0  0  0
   -1.9580    7.3620   -0.1780 C   0  0  0  0  0  0  0  0  0  0  0  0
   -3.4175    6.0468   -2.8208 H   0  0  0  0  0  0  0  0  0  0  0  0
   -4.9899    6.5591   -3.5220 H   0  0  0  0  0  0  0  0  0  0  0  0
   -3.5952    7.6910   -3.5220 H   0  0  0  0  0  0  0  0  0  0  0  0
   -4.2993    6.6612   -0.8450 H   0  0  0  0  0  0  0  0  0  0  0  0
   -6.3021    8.0783   -0.5289 H   0  0  0  0  0  0  0  0  0  0  0  0
   -6.3048    8.3915   -2.3301 H   0  0  0  0  0  0  0  0  0  0  0  0
   -6.3603    5.7572   -2.4492 H   0  0  0  0  0  0  0  0  0  0  0  0
   -7.0768    5.9395   -0.7939 H   0  0  0  0  0  0  0  0  0  0  0  0
   -8.1673    5.9006   -3.0505 H   0  0  0  0  0  0  0  0  0  0  0  0
   -9.6464    6.7563    0.4643 H   0  0  0  0  0  0  0  0  0  0  0  0
   -8.2102    7.7876    0.1473 H   0  0  0  0  0  0  0  0  0  0  0  0
   -9.8539    8.5122    0.1473 H   0  0  0  0  0  0  0  0  0  0  0  0
  -11.4867    7.0935   -1.2669 H   0  0  0  0  0  0  0  0  0  0  0  0
  -11.0395    8.0498   -2.7202 H   0  0  0  0  0  0  0  0  0  0  0  0
  -10.8315    6.2656   -2.7202 H   0  0  0  0  0  0  0  0  0  0  0  0
   -4.0095    9.2910   -2.1840 H   0  0  0  0  0  0  0  0  0  0  0  0
   -5.0103   10.1417   -0.1554 H   0  0  0  0  0  0  0  0  0  0  0  0
   -4.7094    8.6252    0.7203 H   0  0  0  0  0  0  0  0  0  0  0  0
   -3.2136   11.0418    1.0216 H   0  0  0  0  0  0  0  0  0  0  0  0
   -2.6740    9.4686    1.6014 H   0  0  0  0  0  0  0  0  0  0  0  0
   -2.4887   12.0969   -0.6589 H   0  0  0  0  0  0  0  0  0  0  0  0
   -1.3935   11.4715   -1.9381 H   0  0  0  0  0  0  0  0  0  0  0  0
   -3.1297   11.0108   -1.9381 H   0  0  0  0  0  0  0  0  0  0  0  0
   -0.4164    9.1682    0.7752 H   0  0  0  0  0  0  0  0  0  0  0  0
   -0.8914   11.6249    1.3925 H   0  0  0  0  0  0  0  0  0  0  0  0
    0.8075   10.9254    1.5075 H   0  0  0  0  0  0  0  0  0  0  0  0
    0.6118   13.3557    0.5072 H   0  0  0  0  0  0  0  0  0  0  0  0
    0.1398   10.9450   -2.6966 H   0  0  0  0  0  0  0  0  0  0  0  0
    3.1250   10.6817   -1.9759 H   0  0  0  0  0  0  0  0  0  0  0  0
    2.2499    9.8389   -3.3302 H   0  0  0  0  0  0  0  0  0  0  0  0
    3.5928   11.7547   -4.1324 H   0  0  0  0  0  0  0  0  0  0  0  0
    1.8202   11.9655   -4.4169 H   0  0  0  0  0  0  0  0  0  0  0  0
    2.7286   14.0448   -3.6376 H   0  0  0  0  0  0  0  0  0  0  0  0
    3.5090   12.7150   -1.2190 H   0  0  0  0  0  0  0  0  0  0  0  0
   -0.7321   14.0557   -2.5076 H   0  0  0  0  0  0  0  0  0  0  0  0
    0.4505   14.6730   -3.7105 H   0  0  0  0  0  0  0  0  0  0  0  0
   -0.0070   12.9359   -3.7105 H   0  0  0  0  0  0  0  0  0  0  0  0
    1.5087   14.5584   -0.1893 H   0  0  0  0  0  0  0  0  0  0  0  0
    2.5308   15.2369   -1.5014 H   0  0  0  0  0  0  0  0  0  0  0  0
    0.7584   15.5291   -1.5014 H   0  0  0  0  0  0  0  0  0  0  0  0
    1.7420    9.1759    0.7228 H   0  0  0  0  0  0  0  0  0  0  0  0
    2.0524    8.0718   -0.6597 H   0  0  0  0  0  0  0  0  0  0  0  0
    2.7471    9.7283   -0.6597 H   0  0  0  0  0  0  0  0  0  0  0  0
    0.6480    8.5699   -2.9695 H   0  0  0  0  0  0  0  0  0  0  0  0
    0.2805    7.5670   -1.4551 H   0  0  0  0  0  0  0  0  0  0  0  0
   -1.6365    9.3082   -3.0295 H   0  0  0  0  0  0  0  0  0  0  0  0
   -1.6457    7.5115   -2.8325 H   0  0  0  0  0  0  0  0  0  0  0  0
   -2.0264    7.6529    0.8806 H   0  0  0  0  0  0  0  0  0  0  0  0
   -2.6953    6.5737   -0.3900 H   0  0  0  0  0  0  0  0  0  0  0  0
   -0.9467    6.9848   -0.3900 H   0  0  0  0  0  0  0  0  0  0  0  0
  1  2  1  0
  2  3  1  0
  3  4  1  0
  4  5  1  0
  5  6  1  0
  6  7  1  0
  7  8  1  0
  7  9  1  0
  2 10  1  0
 10 11  1  0
 11 12  1  0
 12 13  1  0
 13 14  1  6
 13 15  1  0
 15 16  1  0
 16 17  1  0
 17 18  2  0
 18 19  1  0
 19 20  1  0
 20 21  1  0
 21 22  1  0
 22 23  1  0
 22 24  1  0
 24 25  1  0
 24 26  1  0
 19 27  1  0
 27 28  1  1
 27 29  1  0
 29 30  1  0
 30 31  1  0
 31 32  1  1
  7  5  1  0
 31 10  1  0
 31 13  1  0
 27 15  1  0
 24 18  1  0
  1 33  1  0
  1 34  1  0
  1 35  1  0
  2 36  1  1
  3 37  1  0
  3 38  1  0
  4 39  1  0
  4 40  1  0
  5 41  1  6
  8 42  1  0
  8 43  1  0
  8 44  1  0
  9 45  1  0
  9 46  1  0
  9 47  1  0
 10 48  1  6
 11 49  1  0
 11 50  1  0
 12 51  1  0
 12 52  1  0
 14 53  1  0
 14 54  1  0
 14 55  1  0
 15 56  1  1
 16 57  1  0
 16 58  1  0
 17 59  1  0
 19 60  1  6
 20 61  1  0
 20 62  1  0
 21 63  1  0
 21 64  1  0
 22 65  1  6
 23 66  1  0
 25 67  1  0
 25 68  1  0
 25 69  1  0
 26 70  1  0
 26 71  1  0
 26 72  1  0
 28 73  1  0
 28 74  1  0
 28 75  1  0
 29 76  1  0
 29 77  1  0
 30 78  1  0
 30 79  1  0
 32 80  1  0
 32 81  1  0
 32 82  1  0
M  END
>  <meeko>  (16) 
{"is_sidechain": [false], "intermolecular_energy": 2.731, "internal_energy": -0.839}

$$$$
EPH_relaxed_0001_pdb2pqr_Repair_79_r2_0001_out
     RDKit          3D

 82 86  0  0  0  0  0  0  0  0999 V2000
    4.2170   17.5960   -0.5690 C   0  0  0  0  0  0  0  0  0  0  0  0
    2.8550   18.1590   -0.1540 C   0  0  2  0  0  0  0  0  0  0  0  0
    2.9060   18.8400    1.2290 C   0  0  0  0  0  0  0  0  0  0  0  0
    4.2730   18.7460    1.9120 C   0  0  0  0  0  0  0  0  0  0  0  0
    4.2280   19.2660    3.3160 C   0  0  2  0  0  0  0  0  0  0  0  0
    5.2700   20.1950    3.6450 O   0  0  0  0  0  0  0  0  0  0  0  0
    5.2830   18.9490    4.3600 C   0  0  0  0  0  0  0  0  0  0  0  0
    6.4570   18.0770    4.0430 C   0  0  0  0  0  0  0  0  0  0  0  0
    4.9200   19.0800    5.8070 C   0  0  0  0  0  0  0  0  0  0  0  0
    1.8130   17.0470   -0.1490 C   0  0  1  0  0  0  0  0  0  0  0  0
    0.3820   17.5690   -0.4480 C   0  0  0  0  0  0  0  0  0  0  0  0
   -0.3380   16.4610   -1.2600 C   0  0  0  0  0  0  0  0  0  0  0  0
    0.5730   15.2190   -1.1170 C   0  0  1  0  0  0  0  0  0  0  0  0
    0.2080   14.6130    0.2750 C   0  0  0  0  0  0  0  0  0  0  0  0
    0.4710   14.1530   -2.2560 C   0  0  2  0  0  0  0  0  0  0  0  0
   -0.9070   13.4850   -2.4030 C   0  0  0  0  0  0  0  0  0  0  0  0
   -1.1000   12.2390   -1.6040 C   0  0  0  0  0  0  0  0  0  0  0  0
   -0.1190   11.5220   -1.0240 C   0  0  0  0  0  0  0  0  0  0  0  0
    1.3550   11.8940   -1.2280 C   0  0  1  0  0  0  0  0  0  0  0  0
    2.1710   10.6180   -1.5610 C   0  0  0  0  0  0  0  0  0  0  0  0
    1.9850    9.5170   -0.5220 C   0  0  0  0  0  0  0  0  0  0  0  0
    0.5140    9.1330   -0.3900 C   0  0  2  0  0  0  0  0  0  0  0  0
    0.0870    8.5180   -1.6090 O   0  0  0  0  0  0  0  0  0  0  0  0
   -0.4080   10.3410   -0.0640 C   0  0  0  0  0  0  0  0  0  0  0  0
   -0.1460   10.8190    1.3860 C   0  0  0  0  0  0  0  0  0  0  0  0
   -1.8780    9.8440   -0.0980 C   0  0  0  0  0  0  0  0  0  0  0  0
    1.6350   13.0820   -2.2460 C   0  0  1  0  0  0  0  0  0  0  0  0
    1.7380   12.5230   -3.6990 C   0  0  0  0  0  0  0  0  0  0  0  0
    3.0350   13.7220   -1.9160 C   0  0  0  0  0  0  0  0  0  0  0  0
    3.0530   14.8520   -0.8700 C   0  0  0  0  0  0  0  0  0  0  0  0
    1.9860   15.9060   -1.1820 C   0  0  2  0  0  0  0  0  0  0  0  0
    2.3390   16.5490   -2.5660 C   0  0  0  0  0  0  0  0  0  0  0  0
    4.8030   17.3538    0.3299 H   0  0  0  0  0  0  0  0  0  0  0  0
    4.0702   16.6848   -1.1675 H   0  0  0  0  0  0  0  0  0  0  0  0
    4.7564   18.3449   -1.1675 H   0  0  0  0  0  0  0  0  0  0  0  0
    2.5753   18.9269   -0.8903 H   0  0  0  0  0  0  0  0  0  0  0  0
    2.6538   19.9031    1.1020 H   0  0  0  0  0  0  0  0  0  0  0  0
    2.1879   18.3120    1.8737 H   0  0  0  0  0  0  0  0  0  0  0  0
    4.5898   17.6928    1.9320 H   0  0  0  0  0  0  0  0  0  0  0  0
    4.9844   19.3610    1.3413 H   0  0  0  0  0  0  0  0  0  0  0  0
    3.1303   19.1967    3.3312 H   0  0  0  0  0  0  0  0  0  0  0  0
    6.9210   17.7323    4.9789 H   0  0  0  0  0  0  0  0  0  0  0  0
    6.1209   17.2078    3.4585 H   0  0  0  0  0  0  0  0  0  0  0  0
    7.1920   18.6498    3.4585 H   0  0  0  0  0  0  0  0  0  0  0  0
    5.7737   18.7719    6.4285 H   0  0  0  0  0  0  0  0  0  0  0  0
    4.6647   20.1270    6.0277 H   0  0  0  0  0  0  0  0  0  0  0  0
    4.0550   18.4373    6.0277 H   0  0  0  0  0  0  0  0  0  0  0  0
    1.9622   16.6584    0.8692 H   0  0  0  0  0  0  0  0  0  0  0  0
   -0.1559   17.7595    0.4924 H   0  0  0  0  0  0  0  0  0  0  0  0
    0.4157   18.5130   -1.0117 H   0  0  0  0  0  0  0  0  0  0  0  0
   -1.3362   16.2606   -0.8434 H   0  0  0  0  0  0  0  0  0  0  0  0
   -0.4920   16.7470   -2.3110 H   0  0  0  0  0  0  0  0  0  0  0  0
    0.5993   15.2627    1.0717 H   0  0  0  0  0  0  0  0  0  0  0  0
   -0.8856   14.5381    0.3669 H   0  0  0  0  0  0  0  0  0  0  0  0
    0.6531   13.6113    0.3669 H   0  0  0  0  0  0  0  0  0  0  0  0
    0.6051   14.7618   -3.1623 H   0  0  0  0  0  0  0  0  0  0  0  0
   -1.6718   14.2111   -2.0904 H   0  0  0  0  0  0  0  0  0  0  0  0
   -0.9890   13.1856   -3.4583 H   0  0  0  0  0  0  0  0  0  0  0  0
   -2.1307   11.8759   -1.4784 H   0  0  0  0  0  0  0  0  0  0  0  0
    1.6976   12.3151   -0.2713 H   0  0  0  0  0  0  0  0  0  0  0  0
    1.8459   10.2371   -2.5404 H   0  0  0  0  0  0  0  0  0  0  0  0
    3.2356   10.8947   -1.5673 H   0  0  0  0  0  0  0  0  0  0  0  0
    2.5618    8.6319   -0.8285 H   0  0  0  0  0  0  0  0  0  0  0  0
    2.3388    9.8894    0.4507 H   0  0  0  0  0  0  0  0  0  0  0  0
    0.4300    8.4366    0.4574 H   0  0  0  0  0  0  0  0  0  0  0  0
    0.5880    8.9260   -2.3360 H   0  0  0  0  0  0  0  0  0  0  0  0
   -0.5506   10.0809    2.0941 H   0  0  0  0  0  0  0  0  0  0  0  0
    0.9369   10.9261    1.5467 H   0  0  0  0  0  0  0  0  0  0  0  0
   -0.6383   11.7895    1.5467 H   0  0  0  0  0  0  0  0  0  0  0  0
   -2.2468    9.7193    0.9308 H   0  0  0  0  0  0  0  0  0  0  0  0
   -2.5022   10.5811   -0.6245 H   0  0  0  0  0  0  0  0  0  0  0  0
   -1.9268    8.8794   -0.6245 H   0  0  0  0  0  0  0  0  0  0  0  0
    1.9372   11.4418   -3.6626 H   0  0  0  0  0  0  0  0  0  0  0  0
    0.7914   12.7038   -4.2294 H   0  0  0  0  0  0  0  0  0  0  0  0
    2.5580   13.0293   -4.2294 H   0  0  0  0  0  0  0  0  0  0  0  0
    3.6900   12.9182   -1.5488 H   0  0  0  0  0  0  0  0  0  0  0  0
    3.3643   14.1929   -2.8540 H   0  0  0  0  0  0  0  0  0  0  0  0
    2.8567   14.4248    0.1245 H   0  0  0  0  0  0  0  0  0  0  0  0
    4.0407   15.3356   -0.8935 H   0  0  0  0  0  0  0  0  0  0  0  0
    2.8626   17.5028   -2.4043 H   0  0  0  0  0  0  0  0  0  0  0  0
    2.9884   15.8657   -3.1328 H   0  0  0  0  0  0  0  0  0  0  0  0
    1.4138   16.7301   -3.1328 H   0  0  0  0  0  0  0  0  0  0  0  0
  1  2  1  0
  2  3  1  0
  3  4  1  0
  4  5  1  0
  5  6  1  0
  6  7  1  0
  7  8  1  0
  7  9  1  0
  2 10  1  0
 10 11  1  0
 11 12  1  0
 12 13  1  0
 13 14  1  1
 13 15  1  0
 15 16  1  0
 16 17  1  0
 17 18  2  0
 18 19  1  0
 19 20  1  0
 20 21  1  0
 21 22  1  0
 22 23  1  0
 22 24  1  0
 24 25  1  0
 24 26  1  0
 19 27  1  0
 27 28  1  6
 27 29  1  0
 29 30  1  0
 30 31  1  0
 31 32  1  6
  7  5  1  0
 31 10  1  0
 31 13  1  0
 27 15  1  0
 24 18  1  0
  1 33  1  0
  1 34  1  0
  1 35  1  0
  2 36  1  6
  3 37  1  0
  3 38  1  0
  4 39  1  0
  4 40  1  0
  5 41  1  1
  8 42  1  0
  8 43  1  0
  8 44  1  0
  9 45  1  0
  9 46  1  0
  9 47  1  0
 10 48  1  1
 11 49  1  0
 11 50  1  0
 12 51  1  0
 12 52  1  0
 14 53  1  0
 14 54  1  0
 14 55  1  0
 15 56  1  6
 16 57  1  0
 16 58  1  0
 17 59  1  0
 19 60  1  1
 20 61  1  0
 20 62  1  0
 21 63  1  0
 21 64  1  0
 22 65  1  1
 23 66  1  0
 25 67  1  0
 25 68  1  0
 25 69  1  0
 26 70  1  0
 26 71  1  0
 26 72  1  0
 28 73  1  0
 28 74  1  0
 28 75  1  0
 29 76  1  0
 29 77  1  0
 30 78  1  0
 30 79  1  0
 32 80  1  0
 32 81  1  0
 32 82  1  0
M  END
>  <meeko>  (17) 
{"is_sidechain": [false], "intermolecular_energy": 2.731, "internal_energy": -0.839}

$$$$
EPH_relaxed_0001_pdb2pqr_Repair_79_r2_0001_out
     RDKit          3D

 82 86  0  0  0  0  0  0  0  0999 V2000
    0.8530   14.8880   -2.6270 C   0  0  0  0  0  0  0  0  0  0  0  0
    1.1500   14.2050   -3.9660 C   0  0  2  0  0  0  0  0  0  0  0  0
    0.4720   14.9270   -5.1480 C   0  0  0  0  0  0  0  0  0  0  0  0
    1.1280   14.6400   -6.5010 C   0  0  0  0  0  0  0  0  0  0  0  0
    0.8880   15.7490   -7.4800 C   0  0  2  0  0  0  0  0  0  0  0  0
    0.3740   15.3270   -8.7500 O   0  0  0  0  0  0  0  0  0  0  0  0
    1.6820   15.9210   -8.7620 C   0  0  0  0  0  0  0  0  0  0  0  0
    2.7780   14.9710   -9.1340 C   0  0  0  0  0  0  0  0  0  0  0  0
    1.7250   17.2730   -9.4020 C   0  0  0  0  0  0  0  0  0  0  0  0
    0.7010   12.7500   -3.9180 C   0  0  1  0  0  0  0  0  0  0  0  0
    1.8350   11.7620   -4.3010 C   0  0  0  0  0  0  0  0  0  0  0  0
    1.6360   10.4930   -3.4330 C   0  0  0  0  0  0  0  0  0  0  0  0
    0.2220   10.6520   -2.8280 C   0  0  1  0  0  0  0  0  0  0  0  0
   -0.7510   10.1860   -3.9560 C   0  0  0  0  0  0  0  0  0  0  0  0
   -0.0450    9.8960   -1.4860 C   0  0  2  0  0  0  0  0  0  0  0  0
    0.0620    8.3630   -1.5690 C   0  0  0  0  0  0  0  0  0  0  0  0
   -1.2090    7.6520   -1.8970 C   0  0  0  0  0  0  0  0  0  0  0  0
   -2.4430    8.1870   -1.8370 C   0  0  0  0  0  0  0  0  0  0  0  0
   -2.6580    9.6120   -1.3110 C   0  0  1  0  0  0  0  0  0  0  0  0
   -3.8400    9.6200   -0.3060 C   0  0  0  0  0  0  0  0  0  0  0  0
   -5.1120    9.0160   -0.8930 C   0  0  0  0  0  0  0  0  0  0  0  0
   -4.8720    7.5790   -1.3510 C   0  0  2  0  0  0  0  0  0  0  0  0
   -4.6150    6.7660   -0.2020 O   0  0  0  0  0  0  0  0  0  0  0  0
   -3.6970    7.4450   -2.3600 C   0  0  0  0  0  0  0  0  0  0  0  0
   -4.1020    8.0730   -3.7170 C   0  0  0  0  0  0  0  0  0  0  0  0
   -3.4710    5.9340   -2.6310 C   0  0  0  0  0  0  0  0  0  0  0  0
   -1.3680   10.3440   -0.7410 C   0  0  1  0  0  0  0  0  0  0  0  0
   -1.1740    9.9860    0.7640 C   0  0  0  0  0  0  0  0  0  0  0  0
   -1.5910   11.9010   -0.8020 C   0  0  0  0  0  0  0  0  0  0  0  0
   -1.1960   12.6090   -2.1130 C   0  0  0  0  0  0  0  0  0  0  0  0
    0.2130   12.2000   -2.5540 C   0  0  2  0  0  0  0  0  0  0  0  0
    1.2160   12.6760   -1.4490 C   0  0  0  0  0  0  0  0  0  0  0  0
    1.1433   14.2203   -1.8025 H   0  0  0  0  0  0  0  0  0  0  0  0
    1.4249   15.8252   -2.5586 H   0  0  0  0  0  0  0  0  0  0  0  0
   -0.2224   15.1089   -2.5586 H   0  0  0  0  0  0  0  0  0  0  0  0
    2.2368   14.2531   -4.1287 H   0  0  0  0  0  0  0  0  0  0  0  0
   -0.5786   14.6044   -5.1958 H   0  0  0  0  0  0  0  0  0  0  0  0
    0.5709   16.0071   -4.9649 H   0  0  0  0  0  0  0  0  0  0  0  0
    2.2118   14.5227   -6.3539 H   0  0  0  0  0  0  0  0  0  0  0  0
    0.6836   13.7203   -6.9092 H   0  0  0  0  0  0  0  0  0  0  0  0
    0.6423   16.4458   -6.6650 H   0  0  0  0  0  0  0  0  0  0  0  0
    3.2411   14.5696   -8.2205 H   0  0  0  0  0  0  0  0  0  0  0  0
    2.3608   14.1441   -9.7274 H   0  0  0  0  0  0  0  0  0  0  0  0
    3.5373   15.5014   -9.7274 H   0  0  0  0  0  0  0  0  0  0  0  0
    1.7496   18.0476   -8.6214 H   0  0  0  0  0  0  0  0  0  0  0  0
    2.6262   17.3541  -10.0275 H   0  0  0  0  0  0  0  0  0  0  0  0
    0.8308   17.4112  -10.0275 H   0  0  0  0  0  0  0  0  0  0  0  0
   -0.1376   12.7930   -4.6286 H   0  0  0  0  0  0  0  0  0  0  0  0
    1.7686   11.5048   -5.3685 H   0  0  0  0  0  0  0  0  0  0  0  0
    2.8243   12.2094   -4.1248 H   0  0  0  0  0  0  0  0  0  0  0  0
    1.6936    9.5859   -4.0525 H   0  0  0  0  0  0  0  0  0  0  0  0
    2.4115   10.3908   -2.6596 H   0  0  0  0  0  0  0  0  0  0  0  0
   -1.6555    9.7528   -3.5042 H   0  0  0  0  0  0  0  0  0  0  0  0
   -1.0295   11.0484   -4.5794 H   0  0  0  0  0  0  0  0  0  0  0  0
   -0.2536    9.4284   -4.5794 H   0  0  0  0  0  0  0  0  0  0  0  0
    0.7989   10.2213   -0.8599 H   0  0  0  0  0  0  0  0  0  0  0  0
    0.8003    8.1154   -2.3459 H   0  0  0  0  0  0  0  0  0  0  0  0
    0.3501    8.0231   -0.5633 H   0  0  0  0  0  0  0  0  0  0  0  0
   -1.1307    6.6018   -2.2147 H   0  0  0  0  0  0  0  0  0  0  0  0
   -2.9096   10.2248   -2.1892 H   0  0  0  0  0  0  0  0  0  0  0  0
   -3.5513    9.0390    0.5823 H   0  0  0  0  0  0  0  0  0  0  0  0
   -4.0549   10.6685   -0.0522 H   0  0  0  0  0  0  0  0  0  0  0  0
   -5.9008    9.0227   -0.1264 H   0  0  0  0  0  0  0  0  0  0  0  0
   -5.4168    9.6159   -1.7632 H   0  0  0  0  0  0  0  0  0  0  0  0
   -5.7775    7.2456   -1.8791 H   0  0  0  0  0  0  0  0  0  0  0  0
   -3.9120    6.1380   -0.4380 H   0  0  0  0  0  0  0  0  0  0  0  0
   -4.6902    8.9851   -3.5379 H   0  0  0  0  0  0  0  0  0  0  0  0
   -3.1969    8.3267   -4.2883 H   0  0  0  0  0  0  0  0  0  0  0  0
   -4.7065    7.3531   -4.2883 H   0  0  0  0  0  0  0  0  0  0  0  0
   -3.3908    5.3978   -1.6739 H   0  0  0  0  0  0  0  0  0  0  0  0
   -4.3193    5.5337   -3.2056 H   0  0  0  0  0  0  0  0  0  0  0  0
   -2.5427    5.7994   -3.2056 H   0  0  0  0  0  0  0  0  0  0  0  0
   -1.6053   10.7820    1.3888 H   0  0  0  0  0  0  0  0  0  0  0  0
   -1.6795    9.0338    0.9825 H   0  0  0  0  0  0  0  0  0  0  0  0
   -0.1002    9.8896    0.9825 H   0  0  0  0  0  0  0  0  0  0  0  0
   -2.6608   12.0909   -0.6306 H   0  0  0  0  0  0  0  0  0  0  0  0
   -0.9202   12.3180   -0.0364 H   0  0  0  0  0  0  0  0  0  0  0  0
   -1.9134   12.3346   -2.9004 H   0  0  0  0  0  0  0  0  0  0  0  0
   -1.2086   13.6956   -1.9424 H   0  0  0  0  0  0  0  0  0  0  0  0
    0.7898   12.4738   -0.4553 H   0  0  0  0  0  0  0  0  0  0  0  0
    2.1663   12.1329   -1.5579 H   0  0  0  0  0  0  0  0  0  0  0  0
    1.3962   13.7557   -1.5579 H   0  0  0  0  0  0  0  0  0  0  0  0
  1  2  1  0
  2  3  1  0
  3  4  1  0
  4  5  1  0
  5  6  1  0
  6  7  1  0
  7  8  1  0
  7  9  1  0
  2 10  1  0
 10 11  1  0
 11 12  1  0
 12 13  1  0
 13 14  1  6
 13 15  1  0
 15 16  1  0
 16 17  1  0
 17 18  2  0
 18 19  1  0
 19 20  1  0
 20 21  1  0
 21 22  1  0
 22 23  1  0
 22 24  1  0
 24 25  1  0
 24 26  1  0
 19 27  1  0
 27 28  1  1
 27 29  1  0
 29 30  1  0
 30 31  1  0
 31 32  1  1
  7  5  1  0
 31 10  1  0
 31 13  1  0
 27 15  1  0
 24 18  1  0
  1 33  1  0
  1 34  1  0
  1 35  1  0
  2 36  1  6
  3 37  1  0
  3 38  1  0
  4 39  1  0
  4 40  1  0
  5 41  1  1
  8 42  1  0
  8 43  1  0
  8 44  1  0
  9 45  1  0
  9 46  1  0
  9 47  1  0
 10 48  1  6
 11 49  1  0
 11 50  1  0
 12 51  1  0
 12 52  1  0
 14 53  1  0
 14 54  1  0
 14 55  1  0
 15 56  1  1
 16 57  1  0
 16 58  1  0
 17 59  1  0
 19 60  1  6
 20 61  1  0
 20 62  1  0
 21 63  1  0
 21 64  1  0
 22 65  1  6
 23 66  1  0
 25 67  1  0
 25 68  1  0
 25 69  1  0
 26 70  1  0
 26 71  1  0
 26 72  1  0
 28 73  1  0
 28 74  1  0
 28 75  1  0
 29 76  1  0
 29 77  1  0
 30 78  1  0
 30 79  1  0
 32 80  1  0
 32 81  1  0
 32 82  1  0
M  END
>  <meeko>  (18) 
{"is_sidechain": [false], "intermolecular_energy": 2.731, "internal_energy": -0.839}

$$$$
EPH_relaxed_0001_pdb2pqr_Repair_79_r2_0001_out
     RDKit          3D

 82 86  0  0  0  0  0  0  0  0999 V2000
   -2.5050    7.8530   -0.0610 C   0  0  0  0  0  0  0  0  0  0  0  0
   -3.1070    9.2610   -0.0570 C   0  0  2  0  0  0  0  0  0  0  0  0
   -4.5990    9.2560   -0.4480 C   0  0  0  0  0  0  0  0  0  0  0  0
   -5.0970    7.9010   -0.9560 C   0  0  0  0  0  0  0  0  0  0  0  0
   -6.5770    7.9080   -1.1960 C   0  0  2  0  0  0  0  0  0  0  0  0
   -7.2250    6.6490   -0.9730 O   0  0  0  0  0  0  0  0  0  0  0  0
   -7.2460    7.1430   -2.3220 C   0  0  0  0  0  0  0  0  0  0  0  0
   -6.4510    6.3180   -3.2850 C   0  0  0  0  0  0  0  0  0  0  0  0
   -8.6000    7.5860   -2.7820 C   0  0  0  0  0  0  0  0  0  0  0  0
   -2.3240   10.1640   -1.0020 C   0  0  1  0  0  0  0  0  0  0  0  0
   -2.9430   11.5820   -1.1250 C   0  0  0  0  0  0  0  0  0  0  0  0
   -1.7630   12.5730   -1.2920 C   0  0  0  0  0  0  0  0  0  0  0  0
   -0.5400   11.6750   -1.5930 C   0  0  1  0  0  0  0  0  0  0  0  0
   -0.6460   11.3490   -3.1160 C   0  0  0  0  0  0  0  0  0  0  0  0
    0.8600   12.2690   -1.2270 C   0  0  2  0  0  0  0  0  0  0  0  0
    1.2460   13.5480   -1.9900 C   0  0  0  0  0  0  0  0  0  0  0  0
    1.9860   13.3280   -3.2680 C   0  0  0  0  0  0  0  0  0  0  0  0
    2.5760   12.1780   -3.6430 C   0  0  0  0  0  0  0  0  0  0  0  0
    2.6160   10.9690   -2.6990 C   0  0  1  0  0  0  0  0  0  0  0  0
    4.0480   10.3740   -2.6800 C   0  0  0  0  0  0  0  0  0  0  0  0
    4.5620   10.0400   -4.0770 C   0  0  0  0  0  0  0  0  0  0  0  0
    4.5610   11.2800   -4.9690 C   0  0  2  0  0  0  0  0  0  0  0  0
    5.5300   12.2070   -4.4690 O   0  0  0  0  0  0  0  0  0  0  0  0
    3.1720   11.9710   -5.0570 C   0  0  0  0  0  0  0  0  0  0  0  0
    2.1990   11.0820   -5.8690 C   0  0  0  0  0  0  0  0  0  0  0  0
    3.3420   13.2830   -5.8690 C   0  0  0  0  0  0  0  0  0  0  0  0
    2.0360   11.2100   -1.2390 C   0  0  1  0  0  0  0  0  0  0  0  0
    3.1530   11.7750   -0.3090 C   0  0  0  0  0  0  0  0  0  0  0  0
    1.6030    9.8270   -0.6230 C   0  0  0  0  0  0  0  0  0  0  0  0
    0.1680    9.3520   -0.9220 C   0  0  0  0  0  0  0  0  0  0  0  0
   -0.8470   10.4630   -0.6400 C   0  0  2  0  0  0  0  0  0  0  0  0
   -0.7790   10.7970    0.8890 C   0  0  0  0  0  0  0  0  0  0  0  0
   -2.3598    7.5134    0.9751 H   0  0  0  0  0  0  0  0  0  0  0  0
   -3.1872    7.1640   -0.5805 H   0  0  0  0  0  0  0  0  0  0  0  0
   -1.5356    7.8702   -0.5805 H   0  0  0  0  0  0  0  0  0  0  0  0
   -3.0363    9.6479    0.9703 H   0  0  0  0  0  0  0  0  0  0  0  0
   -5.1908    9.5342    0.4365 H   0  0  0  0  0  0  0  0  0  0  0  0
   -4.7173    9.9725   -1.2742 H   0  0  0  0  0  0  0  0  0  0  0  0
   -4.5840    7.6638   -1.8997 H   0  0  0  0  0  0  0  0  0  0  0  0
   -4.8781    7.1453   -0.1872 H   0  0  0  0  0  0  0  0  0  0  0  0
   -6.6481    8.9572   -0.8733 H   0  0  0  0  0  0  0  0  0  0  0  0
   -5.7932    5.6354   -2.7270 H   0  0  0  0  0  0  0  0  0  0  0  0
   -7.1345    5.7329   -3.9179 H   0  0  0  0  0  0  0  0  0  0  0  0
   -5.8410    6.9794   -3.9179 H   0  0  0  0  0  0  0  0  0  0  0  0
   -9.2345    7.7936   -1.9077 H   0  0  0  0  0  0  0  0  0  0  0  0
   -8.5009    8.4986   -3.3881 H   0  0  0  0  0  0  0  0  0  0  0  0
   -9.0595    6.7913   -3.3881 H   0  0  0  0  0  0  0  0  0  0  0  0
   -2.3716    9.5564   -1.9178 H   0  0  0  0  0  0  0  0  0  0  0  0
   -3.6057   11.6311   -2.0016 H   0  0  0  0  0  0  0  0  0  0  0  0
   -3.5431   11.8290   -0.2368 H   0  0  0  0  0  0  0  0  0  0  0  0
   -1.9517   13.2647   -2.1262 H   0  0  0  0  0  0  0  0  0  0  0  0
   -1.6127   13.1975   -0.3990 H   0  0  0  0  0  0  0  0  0  0  0  0
   -0.9838   10.3102   -3.2460 H   0  0  0  0  0  0  0  0  0  0  0  0
   -1.3686   12.0312   -3.5876 H   0  0  0  0  0  0  0  0  0  0  0  0
    0.3397   11.4758   -3.5876 H   0  0  0  0  0  0  0  0  0  0  0  0
    0.7196   12.5777   -0.1806 H   0  0  0  0  0  0  0  0  0  0  0  0
    0.3218   14.0974   -2.2223 H   0  0  0  0  0  0  0  0  0  0  0  0
    1.9324   14.1004   -1.3315 H   0  0  0  0  0  0  0  0  0  0  0  0
    2.0548   14.1784   -3.9623 H   0  0  0  0  0  0  0  0  0  0  0  0
    1.9120   10.2340   -3.1164 H   0  0  0  0  0  0  0  0  0  0  0  0
    4.7279   11.1062   -2.2200 H   0  0  0  0  0  0  0  0  0  0  0  0
    4.0123    9.4370   -2.1048 H   0  0  0  0  0  0  0  0  0  0  0  0
    5.5886    9.6526   -3.9999 H   0  0  0  0  0  0  0  0  0  0  0  0
    3.8989    9.2848   -4.5242 H   0  0  0  0  0  0  0  0  0  0  0  0
    4.8125   10.9535   -5.9889 H   0  0  0  0  0  0  0  0  0  0  0  0
    6.3760   11.7350   -4.3890 H   0  0  0  0  0  0  0  0  0  0  0  0
    1.5669   10.5045   -5.1784 H   0  0  0  0  0  0  0  0  0  0  0  0
    1.5635   11.7180   -6.5028 H   0  0  0  0  0  0  0  0  0  0  0  0
    2.7752   10.3918   -6.5028 H   0  0  0  0  0  0  0  0  0  0  0  0
    3.4519   14.1309   -5.1769 H   0  0  0  0  0  0  0  0  0  0  0  0
    4.2380   13.2085   -6.5027 H   0  0  0  0  0  0  0  0  0  0  0  0
    2.4566   13.4393   -6.5027 H   0  0  0  0  0  0  0  0  0  0  0  0
    2.8637   11.6287    0.7421 H   0  0  0  0  0  0  0  0  0  0  0  0
    4.0970   11.2460   -0.5066 H   0  0  0  0  0  0  0  0  0  0  0  0
    3.2862   12.8489   -0.5066 H   0  0  0  0  0  0  0  0  0  0  0  0
    2.2936    9.0613   -1.0061 H   0  0  0  0  0  0  0  0  0  0  0  0
    1.6363    9.9742    0.4666 H   0  0  0  0  0  0  0  0  0  0  0  0
    0.0984    9.0613   -1.9806 H   0  0  0  0  0  0  0  0  0  0  0  0
   -0.0604    8.4949   -0.2715 H   0  0  0  0  0  0  0  0  0  0  0  0
   -0.9650    9.8833    1.4725 H   0  0  0  0  0  0  0  0  0  0  0  0
    0.2180   11.1919    1.1341 H   0  0  0  0  0  0  0  0  0  0  0  0
   -1.5422   11.5503    1.1341 H   0  0  0  0  0  0  0  0  0  0  0  0
  1  2  1  0
  2  3  1  0
  3  4  1  0
  4  5  1  0
  5  6  1  0
  6  7  1  0
  7  8  1  0
  7  9  1  0
  2 10  1  0
 10 11  1  0
 11 12  1  0
 12 13  1  0
 13 14  1  6
 13 15  1  0
 15 16  1  0
 16 17  1  0
 17 18  2  0
 18 19  1  0
 19 20  1  0
 20 21  1  0
 21 22  1  0
 22 23  1  0
 22 24  1  0
 24 25  1  0
 24 26  1  0
 19 27  1  0
 27 28  1  1
 27 29  1  0
 29 30  1  0
 30 31  1  0
 31 32  1  1
  7  5  1  0
 31 10  1  0
 31 13  1  0
 27 15  1  0
 24 18  1  0
  1 33  1  0
  1 34  1  0
  1 35  1  0
  2 36  1  1
  3 37  1  0
  3 38  1  0
  4 39  1  0
  4 40  1  0
  5 41  1  1
  8 42  1  0
  8 43  1  0
  8 44  1  0
  9 45  1  0
  9 46  1  0
  9 47  1  0
 10 48  1  6
 11 49  1  0
 11 50  1  0
 12 51  1  0
 12 52  1  0
 14 53  1  0
 14 54  1  0
 14 55  1  0
 15 56  1  1
 16 57  1  0
 16 58  1  0
 17 59  1  0
 19 60  1  6
 20 61  1  0
 20 62  1  0
 21 63  1  0
 21 64  1  0
 22 65  1  6
 23 66  1  0
 25 67  1  0
 25 68  1  0
 25 69  1  0
 26 70  1  0
 26 71  1  0
 26 72  1  0
 28 73  1  0
 28 74  1  0
 28 75  1  0
 29 76  1  0
 29 77  1  0
 30 78  1  0
 30 79  1  0
 32 80  1  0
 32 81  1  0
 32 82  1  0
M  END
>  <meeko>  (19) 
{"is_sidechain": [false], "intermolecular_energy": 2.731, "internal_energy": -0.839}

$$$$
