EPH_relaxed_0001_pdb2pqr_Repair_127_r2_0001_out
     RDKit          3D

 82 86  0  0  0  0  0  0  0  0999 V2000
    4.5380   17.7160   -0.7320 C   0  0  0  0  0  0  0  0  0  0  0  0
    3.1620   18.2940   -0.3920 C   0  0  2  0  0  0  0  0  0  0  0  0
    3.1230   18.9080    1.0220 C   0  0  0  0  0  0  0  0  0  0  0  0
    4.4130   18.6980    1.8200 C   0  0  0  0  0  0  0  0  0  0  0  0
    4.2910   19.2240    3.2180 C   0  0  2  0  0  0  0  0  0  0  0  0
    5.2820   20.1940    3.5810 O   0  0  0  0  0  0  0  0  0  0  0  0
    5.3140   18.9530    4.3050 C   0  0  0  0  0  0  0  0  0  0  0  0
    6.5330   18.1260    4.0410 C   0  0  0  0  0  0  0  0  0  0  0  0
    4.8890   19.0780    5.7350 C   0  0  0  0  0  0  0  0  0  0  0  0
    2.0980   17.2100   -0.5180 C   0  0  1  0  0  0  0  0  0  0  0  0
    0.7600   17.7500   -1.0910 C   0  0  0  0  0  0  0  0  0  0  0  0
    0.1570   16.6190   -1.9630 C   0  0  0  0  0  0  0  0  0  0  0  0
    0.9860   15.3640   -1.6010 C   0  0  1  0  0  0  0  0  0  0  0  0
    0.3630   14.8410   -0.2690 C   0  0  0  0  0  0  0  0  0  0  0  0
    1.0510   14.2420   -2.6880 C   0  0  2  0  0  0  0  0  0  0  0  0
   -0.3020   13.6000   -3.0450 C   0  0  0  0  0  0  0  0  0  0  0  0
   -0.6730   12.4040   -2.2330 C   0  0  0  0  0  0  0  0  0  0  0  0
    0.1660   11.6940   -1.4560 C   0  0  0  0  0  0  0  0  0  0  0  0
    1.6640   12.0200   -1.4130 C   0  0  1  0  0  0  0  0  0  0  0  0
    2.4830   10.7080   -1.5350 C   0  0  0  0  0  0  0  0  0  0  0  0
    2.0810    9.6680   -0.4930 C   0  0  0  0  0  0  0  0  0  0  0  0
    0.5970    9.3280   -0.6060 C   0  0  2  0  0  0  0  0  0  0  0  0
    0.3710    8.6590   -1.8510 O   0  0  0  0  0  0  0  0  0  0  0  0
   -0.3260   10.5740   -0.5060 C   0  0  0  0  0  0  0  0  0  0  0  0
   -0.3070   11.1220    0.9420 C   0  0  0  0  0  0  0  0  0  0  0  0
   -1.7830   10.1110   -0.7760 C   0  0  0  0  0  0  0  0  0  0  0  0
    2.1590   13.1440   -2.4220 C   0  0  1  0  0  0  0  0  0  0  0  0
    2.4970   12.5070   -3.8040 C   0  0  0  0  0  0  0  0  0  0  0  0
    3.5000   13.7660   -1.8800 C   0  0  0  0  0  0  0  0  0  0  0  0
    3.3710   14.9500   -0.9020 C   0  0  0  0  0  0  0  0  0  0  0  0
    2.4110   16.0110   -1.4480 C   0  0  2  0  0  0  0  0  0  0  0  0
    3.0230   16.5710   -2.7770 C   0  0  0  0  0  0  0  0  0  0  0  0
    5.0800   17.4883    0.1977 H   0  0  0  0  0  0  0  0  0  0  0  0
    4.4136   16.7941   -1.3190 H   0  0  0  0  0  0  0  0  0  0  0  0
    5.1093   18.4502   -1.3190 H   0  0  0  0  0  0  0  0  0  0  0  0
    2.9565   19.1027   -1.1088 H   0  0  0  0  0  0  0  0  0  0  0  0
    2.9460   19.9894    0.9263 H   0  0  0  0  0  0  0  0  0  0  0  0
    2.3182   18.3981    1.5718 H   0  0  0  0  0  0  0  0  0  0  0  0
    4.6350   17.6215    1.8621 H   0  0  0  0  0  0  0  0  0  0  0  0
    5.2217   19.2475    1.3159 H   0  0  0  0  0  0  0  0  0  0  0  0
    3.1970   19.1128    3.1901 H   0  0  0  0  0  0  0  0  0  0  0  0
    6.9831   17.8207    4.9971 H   0  0  0  0  0  0  0  0  0  0  0  0
    6.2517   17.2315    3.4659 H   0  0  0  0  0  0  0  0  0  0  0  0
    7.2602   18.7180    3.4659 H   0  0  0  0  0  0  0  0  0  0  0  0
    5.7353   18.8291    6.3921 H   0  0  0  0  0  0  0  0  0  0  0  0
    4.5631   20.1100    5.9318 H   0  0  0  0  0  0  0  0  0  0  0  0
    4.0563   18.3867    5.9318 H   0  0  0  0  0  0  0  0  0  0  0  0
    2.0528   16.8735    0.5283 H   0  0  0  0  0  0  0  0  0  0  0  0
    0.0719   18.0037   -0.2711 H   0  0  0  0  0  0  0  0  0  0  0  0
    0.9243   18.6612   -1.6849 H   0  0  0  0  0  0  0  0  0  0  0  0
   -0.9051   16.4661   -1.7208 H   0  0  0  0  0  0  0  0  0  0  0  0
    0.2000   16.8521   -3.0372 H   0  0  0  0  0  0  0  0  0  0  0  0
    0.8945   15.2872    0.5844 H   0  0  0  0  0  0  0  0  0  0  0  0
   -0.6998   15.1215   -0.2263 H   0  0  0  0  0  0  0  0  0  0  0  0
    0.4552   13.7457   -0.2263 H   0  0  0  0  0  0  0  0  0  0  0  0
    1.3632   14.7996   -3.5833 H   0  0  0  0  0  0  0  0  0  0  0  0
   -1.0855   14.3599   -2.9087 H   0  0  0  0  0  0  0  0  0  0  0  0
   -0.2074   13.2466   -4.0824 H   0  0  0  0  0  0  0  0  0  0  0  0
   -1.7218   12.0746   -2.2729 H   0  0  0  0  0  0  0  0  0  0  0  0
    1.8457   12.4843   -0.4325 H   0  0  0  0  0  0  0  0  0  0  0  0
    2.3219   10.2837   -2.5370 H   0  0  0  0  0  0  0  0  0  0  0  0
    3.5409   10.9579   -1.3663 H   0  0  0  0  0  0  0  0  0  0  0  0
    2.6727    8.7540   -0.6497 H   0  0  0  0  0  0  0  0  0  0  0  0
    2.2711   10.0823    0.5081 H   0  0  0  0  0  0  0  0  0  0  0  0
    0.3409    8.6798    0.2450 H   0  0  0  0  0  0  0  0  0  0  0  0
    0.9420    7.8730   -1.8700 H   0  0  0  0  0  0  0  0  0  0  0  0
   -0.3361   10.2825    1.6522 H   0  0  0  0  0  0  0  0  0  0  0  0
    0.6119   11.7053    1.1013 H   0  0  0  0  0  0  0  0  0  0  0  0
   -1.1833   11.7675    1.1013 H   0  0  0  0  0  0  0  0  0  0  0  0
   -2.2990    9.9470    0.1815 H   0  0  0  0  0  0  0  0  0  0  0  0
   -2.3132   10.8849   -1.3504 H   0  0  0  0  0  0  0  0  0  0  0  0
   -1.7692    9.1730   -1.3504 H   0  0  0  0  0  0  0  0  0  0  0  0
    3.0075   11.5450   -3.6493 H   0  0  0  0  0  0  0  0  0  0  0  0
    1.5676   12.3423   -4.3690 H   0  0  0  0  0  0  0  0  0  0  0  0
    3.1544   13.1842   -4.3690 H   0  0  0  0  0  0  0  0  0  0  0  0
    4.0529   12.9670   -1.3643 H   0  0  0  0  0  0  0  0  0  0  0  0
    4.0051   14.1781   -2.7660 H   0  0  0  0  0  0  0  0  0  0  0  0
    2.9890   14.5809    0.0612 H   0  0  0  0  0  0  0  0  0  0  0  0
    4.3629   15.4079   -0.7734 H   0  0  0  0  0  0  0  0  0  0  0  0
    3.8153   17.2960   -2.5389 H   0  0  0  0  0  0  0  0  0  0  0  0
    3.4480   15.7425   -3.3626 H   0  0  0  0  0  0  0  0  0  0  0  0
    2.2354   17.0677   -3.3626 H   0  0  0  0  0  0  0  0  0  0  0  0
  1  2  1  0
  2  3  1  0
  3  4  1  0
  4  5  1  0
  5  6  1  0
  6  7  1  0
  7  8  1  0
  7  9  1  0
  2 10  1  0
 10 11  1  0
 11 12  1  0
 12 13  1  0
 13 14  1  1
 13 15  1  0
 15 16  1  0
 16 17  1  0
 17 18  2  0
 18 19  1  0
 19 20  1  0
 20 21  1  0
 21 22  1  0
 22 23  1  0
 22 24  1  0
 24 25  1  0
 24 26  1  0
 19 27  1  0
 27 28  1  6
 27 29  1  0
 29 30  1  0
 30 31  1  0
 31 32  1  6
  7  5  1  0
 31 10  1  0
 31 13  1  0
 27 15  1  0
 24 18  1  0
  1 33  1  0
  1 34  1  0
  1 35  1  0
  2 36  1  6
  3 37  1  0
  3 38  1  0
  4 39  1  0
  4 40  1  0
  5 41  1  1
  8 42  1  0
  8 43  1  0
  8 44  1  0
  9 45  1  0
  9 46  1  0
  9 47  1  0
 10 48  1  1
 11 49  1  0
 11 50  1  0
 12 51  1  0
 12 52  1  0
 14 53  1  0
 14 54  1  0
 14 55  1  0
 15 56  1  6
 16 57  1  0
 16 58  1  0
 17 59  1  0
 19 60  1  1
 20 61  1  0
 20 62  1  0
 21 63  1  0
 21 64  1  0
 22 65  1  1
 23 66  1  0
 25 67  1  0
 25 68  1  0
 25 69  1  0
 26 70  1  0
 26 71  1  0
 26 72  1  0
 28 73  1  0
 28 74  1  0
 28 75  1  0
 29 76  1  0
 29 77  1  0
 30 78  1  0
 30 79  1  0
 32 80  1  0
 32 81  1  0
 32 82  1  0
M  END
>  <meeko>  (1) 
{"is_sidechain": [false], "intermolecular_energy": 2.731, "internal_energy": -0.839}

$$$$
EPH_relaxed_0001_pdb2pqr_Repair_127_r2_0001_out
     RDKit          3D

 82 86  0  0  0  0  0  0  0  0999 V2000
    3.8510   18.0320    0.5990 C   0  0  0  0  0  0  0  0  0  0  0  0
    2.9440   18.4280   -0.5690 C   0  0  2  0  0  0  0  0  0  0  0  0
    2.1920   19.7470   -0.2990 C   0  0  0  0  0  0  0  0  0  0  0  0
    1.1650   19.6490    0.8330 C   0  0  0  0  0  0  0  0  0  0  0  0
   -0.1690   20.1940    0.4200 C   0  0  2  0  0  0  0  0  0  0  0  0
   -1.1620   20.1930    1.4530 O   0  0  0  0  0  0  0  0  0  0  0  0
   -1.4240   19.3490    0.3200 C   0  0  0  0  0  0  0  0  0  0  0  0
   -1.4060   17.8860    0.6340 C   0  0  0  0  0  0  0  0  0  0  0  0
   -2.5460   19.8320   -0.5450 C   0  0  0  0  0  0  0  0  0  0  0  0
    1.9480   17.3100   -0.8560 C   0  0  1  0  0  0  0  0  0  0  0  0
    0.7980   17.7610   -1.7960 C   0  0  0  0  0  0  0  0  0  0  0  0
    0.4380   16.5390   -2.6800 C   0  0  0  0  0  0  0  0  0  0  0  0
    1.1500   15.3450   -2.0030 C   0  0  1  0  0  0  0  0  0  0  0  0
    0.2100   14.9310   -0.8280 C   0  0  0  0  0  0  0  0  0  0  0  0
    1.4900   14.1290   -2.9270 C   0  0  2  0  0  0  0  0  0  0  0  0
    0.2730   13.4240   -3.5500 C   0  0  0  0  0  0  0  0  0  0  0  0
   -0.2910   12.2970   -2.7480 C   0  0  0  0  0  0  0  0  0  0  0  0
    0.3250   11.6840   -1.7200 C   0  0  0  0  0  0  0  0  0  0  0  0
    1.7630   12.0500   -1.3320 C   0  0  1  0  0  0  0  0  0  0  0  0
    2.5880   10.7540   -1.1180 C   0  0  0  0  0  0  0  0  0  0  0  0
    1.9360    9.8050   -0.1170 C   0  0  0  0  0  0  0  0  0  0  0  0
    0.5300    9.4180   -0.5670 C   0  0  2  0  0  0  0  0  0  0  0  0
    0.6280    8.6320   -1.7590 O   0  0  0  0  0  0  0  0  0  0  0  0
   -0.3900   10.6440   -0.8230 C   0  0  0  0  0  0  0  0  0  0  0  0
   -0.7400   11.3230    0.5240 C   0  0  0  0  0  0  0  0  0  0  0  0
   -1.7310   10.1210   -1.4070 C   0  0  0  0  0  0  0  0  0  0  0  0
    2.4960   13.0890   -2.2860 C   0  0  1  0  0  0  0  0  0  0  0  0
    3.1740   12.3370   -3.4710 C   0  0  0  0  0  0  0  0  0  0  0  0
    3.6550   13.7930   -1.4850 C   0  0  0  0  0  0  0  0  0  0  0  0
    3.2810   15.0580   -0.6890 C   0  0  0  0  0  0  0  0  0  0  0  0
    2.4890   16.0390   -1.5580 C   0  0  2  0  0  0  0  0  0  0  0  0
    3.4170   16.4900   -2.7370 C   0  0  0  0  0  0  0  0  0  0  0  0
    3.3431   18.2538    1.5492 H   0  0  0  0  0  0  0  0  0  0  0  0
    4.0714   16.9557    0.5435 H   0  0  0  0  0  0  0  0  0  0  0  0
    4.7902   18.6020    0.5435 H   0  0  0  0  0  0  0  0  0  0  0  0
    3.5865   18.5881   -1.4474 H   0  0  0  0  0  0  0  0  0  0  0  0
    2.9292   20.5190   -0.0334 H   0  0  0  0  0  0  0  0  0  0  0  0
    1.6373   19.9946   -1.2161 H   0  0  0  0  0  0  0  0  0  0  0  0
    1.0464   18.5927    1.1163 H   0  0  0  0  0  0  0  0  0  0  0  0
    1.5316   20.2458    1.6812 H   0  0  0  0  0  0  0  0  0  0  0  0
    0.3084   20.8914   -0.2841 H   0  0  0  0  0  0  0  0  0  0  0  0
   -1.4043   17.7451    1.7249 H   0  0  0  0  0  0  0  0  0  0  0  0
   -2.2983   17.4077    0.2039 H   0  0  0  0  0  0  0  0  0  0  0  0
   -0.5022   17.4298    0.2039 H   0  0  0  0  0  0  0  0  0  0  0  0
   -3.3713   20.1873    0.0895 H   0  0  0  0  0  0  0  0  0  0  0  0
   -2.1905   20.6568   -1.1801 H   0  0  0  0  0  0  0  0  0  0  0  0
   -2.9007   19.0069   -1.1801 H   0  0  0  0  0  0  0  0  0  0  0  0
    1.6390   17.0695    0.1720 H   0  0  0  0  0  0  0  0  0  0  0  0
   -0.0758   18.0709   -1.2040 H   0  0  0  0  0  0  0  0  0  0  0  0
    1.1053   18.6182   -2.4131 H   0  0  0  0  0  0  0  0  0  0  0  0
   -0.6505   16.3814   -2.7002 H   0  0  0  0  0  0  0  0  0  0  0  0
    0.7517   16.6736   -3.7257 H   0  0  0  0  0  0  0  0  0  0  0  0
    0.7037   15.1485    0.1306 H   0  0  0  0  0  0  0  0  0  0  0  0
   -0.7302   15.4983   -0.8932 H   0  0  0  0  0  0  0  0  0  0  0  0
   -0.0061   13.8544   -0.8932 H   0  0  0  0  0  0  0  0  0  0  0  0
    2.0184   14.6085   -3.7642 H   0  0  0  0  0  0  0  0  0  0  0  0
   -0.5203   14.1735   -3.6878 H   0  0  0  0  0  0  0  0  0  0  0  0
    0.6277   12.9798   -4.4917 H   0  0  0  0  0  0  0  0  0  0  0  0
   -1.2943   11.9377   -3.0205 H   0  0  0  0  0  0  0  0  0  0  0  0
    1.6897   12.6063   -0.3859 H   0  0  0  0  0  0  0  0  0  0  0  0
    2.6868   10.2354   -2.0830 H   0  0  0  0  0  0  0  0  0  0  0  0
    3.5685   11.0450   -0.7130 H   0  0  0  0  0  0  0  0  0  0  0  0
    2.5493    8.8959   -0.0310 H   0  0  0  0  0  0  0  0  0  0  0  0
    1.8652   10.3151    0.8550 H   0  0  0  0  0  0  0  0  0  0  0  0
    0.0676    8.8446    0.2499 H   0  0  0  0  0  0  0  0  0  0  0  0
    0.0710    7.8440   -1.6380 H   0  0  0  0  0  0  0  0  0  0  0  0
   -0.4095   10.6819    1.3545 H   0  0  0  0  0  0  0  0  0  0  0  0
   -0.2312   12.2962    0.5871 H   0  0  0  0  0  0  0  0  0  0  0  0
   -1.8279   11.4732    0.5871 H   0  0  0  0  0  0  0  0  0  0  0  0
   -2.4108    9.8559   -0.5838 H   0  0  0  0  0  0  0  0  0  0  0  0
   -2.1923   10.9051   -2.0254 H   0  0  0  0  0  0  0  0  0  0  0  0
   -1.5396    9.2316   -2.0254 H   0  0  0  0  0  0  0  0  0  0  0  0
    3.8615   11.5745   -3.0761 H   0  0  0  0  0  0  0  0  0  0  0  0
    2.4025   11.8515   -4.0866 H   0  0  0  0  0  0  0  0  0  0  0  0
    3.7366   13.0543   -4.0866 H   0  0  0  0  0  0  0  0  0  0  0  0
    4.0604   13.0594   -0.7726 H   0  0  0  0  0  0  0  0  0  0  0  0
    4.3672   14.1349   -2.2504 H   0  0  0  0  0  0  0  0  0  0  0  0
    2.6682   14.7695    0.1777 H   0  0  0  0  0  0  0  0  0  0  0  0
    4.2073   15.5511   -0.3591 H   0  0  0  0  0  0  0  0  0  0  0  0
    4.3361   16.9367   -2.3299 H   0  0  0  0  0  0  0  0  0  0  0  0
    3.6758   15.6172   -3.3544 H   0  0  0  0  0  0  0  0  0  0  0  0
    2.8906   17.2328   -3.3544 H   0  0  0  0  0  0  0  0  0  0  0  0
  1  2  1  0
  2  3  1  0
  3  4  1  0
  4  5  1  0
  5  6  1  0
  6  7  1  0
  7  8  1  0
  7  9  1  0
  2 10  1  0
 10 11  1  0
 11 12  1  0
 12 13  1  0
 13 14  1  1
 13 15  1  0
 15 16  1  0
 16 17  1  0
 17 18  2  0
 18 19  1  0
 19 20  1  0
 20 21  1  0
 21 22  1  0
 22 23  1  0
 22 24  1  0
 24 25  1  0
 24 26  1  0
 19 27  1  0
 27 28  1  6
 27 29  1  0
 29 30  1  0
 30 31  1  0
 31 32  1  6
  7  5  1  0
 31 10  1  0
 31 13  1  0
 27 15  1  0
 24 18  1  0
  1 33  1  0
  1 34  1  0
  1 35  1  0
  2 36  1  6
  3 37  1  0
  3 38  1  0
  4 39  1  0
  4 40  1  0
  5 41  1  6
  8 42  1  0
  8 43  1  0
  8 44  1  0
  9 45  1  0
  9 46  1  0
  9 47  1  0
 10 48  1  1
 11 49  1  0
 11 50  1  0
 12 51  1  0
 12 52  1  0
 14 53  1  0
 14 54  1  0
 14 55  1  0
 15 56  1  6
 16 57  1  0
 16 58  1  0
 17 59  1  0
 19 60  1  1
 20 61  1  0
 20 62  1  0
 21 63  1  0
 21 64  1  0
 22 65  1  1
 23 66  1  0
 25 67  1  0
 25 68  1  0
 25 69  1  0
 26 70  1  0
 26 71  1  0
 26 72  1  0
 28 73  1  0
 28 74  1  0
 28 75  1  0
 29 76  1  0
 29 77  1  0
 30 78  1  0
 30 79  1  0
 32 80  1  0
 32 81  1  0
 32 82  1  0
M  END
>  <meeko>  (2) 
{"is_sidechain": [false], "intermolecular_energy": 2.731, "internal_energy": -0.839}

$$$$
EPH_relaxed_0001_pdb2pqr_Repair_127_r2_0001_out
     RDKit          3D

 82 86  0  0  0  0  0  0  0  0999 V2000
   -1.0650    8.7360   -1.7730 C   0  0  0  0  0  0  0  0  0  0  0  0
   -1.5370    9.1750   -0.3840 C   0  0  2  0  0  0  0  0  0  0  0  0
   -3.0680    9.3440   -0.3180 C   0  0  0  0  0  0  0  0  0  0  0  0
   -3.8330    8.3960   -1.2460 C   0  0  0  0  0  0  0  0  0  0  0  0
   -5.2010    8.0870   -0.7190 C   0  0  2  0  0  0  0  0  0  0  0  0
   -5.4550    6.6940   -0.4920 O   0  0  0  0  0  0  0  0  0  0  0  0
   -6.2500    7.3270   -1.5080 C   0  0  0  0  0  0  0  0  0  0  0  0
   -5.9760    6.8290   -2.8930 C   0  0  0  0  0  0  0  0  0  0  0  0
   -7.6890    7.4930   -1.1310 C   0  0  0  0  0  0  0  0  0  0  0  0
   -0.8520   10.4790    0.0100 C   0  0  1  0  0  0  0  0  0  0  0  0
    0.0950   10.3110    1.2270 C   0  0  0  0  0  0  0  0  0  0  0  0
    1.2920   11.2690    0.9970 C   0  0  0  0  0  0  0  0  0  0  0  0
    0.8390   12.1890   -0.1610 C   0  0  1  0  0  0  0  0  0  0  0  0
   -0.0600   13.2710    0.5150 C   0  0  0  0  0  0  0  0  0  0  0  0
    1.9780   12.8350   -1.0150 C   0  0  2  0  0  0  0  0  0  0  0  0
    2.9140   13.7820   -0.2450 C   0  0  0  0  0  0  0  0  0  0  0  0
    2.4980   15.2160   -0.2270 C   0  0  0  0  0  0  0  0  0  0  0  0
    1.5780   15.7730   -1.0370 C   0  0  0  0  0  0  0  0  0  0  0  0
    0.9200   14.9600   -2.1590 C   0  0  1  0  0  0  0  0  0  0  0  0
    0.9210   15.7910   -3.4690 C   0  0  0  0  0  0  0  0  0  0  0  0
    0.2810   17.1640   -3.2920 C   0  0  0  0  0  0  0  0  0  0  0  0
    0.9990   17.9640   -2.2080 C   0  0  2  0  0  0  0  0  0  0  0  0
    2.3230   18.2670   -2.6600 O   0  0  0  0  0  0  0  0  0  0  0  0
    1.0690   17.2230   -0.8440 C   0  0  0  0  0  0  0  0  0  0  0  0
   -0.3440   17.1630   -0.2110 C   0  0  0  0  0  0  0  0  0  0  0  0
    1.9390   18.0760    0.1190 C   0  0  0  0  0  0  0  0  0  0  0  0
    1.4810   13.4880   -2.3690 C   0  0  1  0  0  0  0  0  0  0  0  0
    2.7110   13.5190   -3.3260 C   0  0  0  0  0  0  0  0  0  0  0  0
    0.3830   12.6170   -3.0860 C   0  0  0  0  0  0  0  0  0  0  0  0
   -0.6410   11.9070   -2.1800 C   0  0  0  0  0  0  0  0  0  0  0  0
    0.0600   11.1500   -1.0470 C   0  0  2  0  0  0  0  0  0  0  0  0
    0.9550   10.0400   -1.6960 C   0  0  0  0  0  0  0  0  0  0  0  0
   -0.2631    7.9902   -1.6690 H   0  0  0  0  0  0  0  0  0  0  0  0
   -1.9081    8.2936   -2.3239 H   0  0  0  0  0  0  0  0  0  0  0  0
   -0.6847    9.6089   -2.3239 H   0  0  0  0  0  0  0  0  0  0  0  0
   -1.2612    8.3809    0.3255 H   0  0  0  0  0  0  0  0  0  0  0  0
   -3.3938    9.1559    0.7157 H   0  0  0  0  0  0  0  0  0  0  0  0
   -3.2927   10.3686   -0.6493 H   0  0  0  0  0  0  0  0  0  0  0  0
   -3.9303    8.8673   -2.2351 H   0  0  0  0  0  0  0  0  0  0  0  0
   -3.2703    7.4531   -1.3116 H   0  0  0  0  0  0  0  0  0  0  0  0
   -5.2346    9.0448   -0.1792 H   0  0  0  0  0  0  0  0  0  0  0  0
   -5.4464    5.8664   -2.8385 H   0  0  0  0  0  0  0  0  0  0  0  0
   -6.9270    6.6944   -3.4291 H   0  0  0  0  0  0  0  0  0  0  0  0
   -5.3532    7.5603   -3.4291 H   0  0  0  0  0  0  0  0  0  0  0  0
   -7.7820    7.5037   -0.0350 H   0  0  0  0  0  0  0  0  0  0  0  0
   -8.0683    8.4409   -1.5405 H   0  0  0  0  0  0  0  0  0  0  0  0
   -8.2742    6.6564   -1.5405 H   0  0  0  0  0  0  0  0  0  0  0  0
   -1.7374   11.1051    0.1944 H   0  0  0  0  0  0  0  0  0  0  0  0
   -0.4306   10.5776    2.1558 H   0  0  0  0  0  0  0  0  0  0  0  0
    0.4352    9.2693    1.3223 H   0  0  0  0  0  0  0  0  0  0  0  0
    1.4976   11.8579    1.9030 H   0  0  0  0  0  0  0  0  0  0  0  0
    2.2200   10.7276    0.7609 H   0  0  0  0  0  0  0  0  0  0  0  0
    0.0159   13.1797    1.6086 H   0  0  0  0  0  0  0  0  0  0  0  0
    0.2761   14.2719    0.2064 H   0  0  0  0  0  0  0  0  0  0  0  0
   -1.1055   13.1240    0.2064 H   0  0  0  0  0  0  0  0  0  0  0  0
    2.5926   11.9641   -1.2865 H   0  0  0  0  0  0  0  0  0  0  0  0
    2.9703   13.4315    0.7962 H   0  0  0  0  0  0  0  0  0  0  0  0
    3.8784   13.7520   -0.7733 H   0  0  0  0  0  0  0  0  0  0  0  0
    2.9840   15.8724    0.5099 H   0  0  0  0  0  0  0  0  0  0  0  0
   -0.1149   14.7756   -1.8349 H   0  0  0  0  0  0  0  0  0  0  0  0
    1.9614   15.9270   -3.7993 H   0  0  0  0  0  0  0  0  0  0  0  0
    0.3280   15.2401   -4.2139 H   0  0  0  0  0  0  0  0  0  0  0  0
    0.3388   17.7136   -4.2431 H   0  0  0  0  0  0  0  0  0  0  0  0
   -0.7680   17.0266   -2.9908 H   0  0  0  0  0  0  0  0  0  0  0  0
    0.4179   18.8820   -2.0359 H   0  0  0  0  0  0  0  0  0  0  0  0
    2.7070   17.4480   -3.0160 H   0  0  0  0  0  0  0  0  0  0  0  0
   -0.2551   17.1668    0.8854 H   0  0  0  0  0  0  0  0  0  0  0  0
   -0.9281   18.0372   -0.5345 H   0  0  0  0  0  0  0  0  0  0  0  0
   -0.8519   16.2425   -0.5345 H   0  0  0  0  0  0  0  0  0  0  0  0
    1.6852   17.8272    1.1600 H   0  0  0  0  0  0  0  0  0  0  0  0
    3.0028   17.8612   -0.0605 H   0  0  0  0  0  0  0  0  0  0  0  0
    1.7452   19.1438   -0.0605 H   0  0  0  0  0  0  0  0  0  0  0  0
    3.6369   13.5423   -2.7325 H   0  0  0  0  0  0  0  0  0  0  0  0
    2.7047   12.6204   -3.9604 H   0  0  0  0  0  0  0  0  0  0  0  0
    2.6594   14.4161   -3.9604 H   0  0  0  0  0  0  0  0  0  0  0  0
   -0.1754   13.2783   -3.7649 H   0  0  0  0  0  0  0  0  0  0  0  0
    0.9372   11.8075   -3.5836 H   0  0  0  0  0  0  0  0  0  0  0  0
   -1.3184   12.6572   -1.7461 H   0  0  0  0  0  0  0  0  0  0  0  0
   -1.2049   11.1842   -2.7879 H   0  0  0  0  0  0  0  0  0  0  0  0
    1.4341    9.4458   -0.9040 H   0  0  0  0  0  0  0  0  0  0  0  0
    0.3305    9.3837   -2.3199 H   0  0  0  0  0  0  0  0  0  0  0  0
    1.7288   10.5112   -2.3199 H   0  0  0  0  0  0  0  0  0  0  0  0
  1  2  1  0
  2  3  1  0
  3  4  1  0
  4  5  1  0
  5  6  1  0
  6  7  1  0
  7  8  1  0
  7  9  1  0
  2 10  1  0
 10 11  1  0
 11 12  1  0
 12 13  1  0
 13 14  1  1
 13 15  1  0
 15 16  1  0
 16 17  1  0
 17 18  2  0
 18 19  1  0
 19 20  1  0
 20 21  1  0
 21 22  1  0
 22 23  1  0
 22 24  1  0
 24 25  1  0
 24 26  1  0
 19 27  1  0
 27 28  1  6
 27 29  1  0
 29 30  1  0
 30 31  1  0
 31 32  1  6
  7  5  1  0
 31 10  1  0
 31 13  1  0
 27 15  1  0
 24 18  1  0
  1 33  1  0
  1 34  1  0
  1 35  1  0
  2 36  1  1
  3 37  1  0
  3 38  1  0
  4 39  1  0
  4 40  1  0
  5 41  1  1
  8 42  1  0
  8 43  1  0
  8 44  1  0
  9 45  1  0
  9 46  1  0
  9 47  1  0
 10 48  1  1
 11 49  1  0
 11 50  1  0
 12 51  1  0
 12 52  1  0
 14 53  1  0
 14 54  1  0
 14 55  1  0
 15 56  1  6
 16 57  1  0
 16 58  1  0
 17 59  1  0
 19 60  1  1
 20 61  1  0
 20 62  1  0
 21 63  1  0
 21 64  1  0
 22 65  1  1
 23 66  1  0
 25 67  1  0
 25 68  1  0
 25 69  1  0
 26 70  1  0
 26 71  1  0
 26 72  1  0
 28 73  1  0
 28 74  1  0
 28 75  1  0
 29 76  1  0
 29 77  1  0
 30 78  1  0
 30 79  1  0
 32 80  1  0
 32 81  1  0
 32 82  1  0
M  END
>  <meeko>  (3) 
{"is_sidechain": [false], "intermolecular_energy": 2.731, "internal_energy": -0.839}

$$$$
EPH_relaxed_0001_pdb2pqr_Repair_127_r2_0001_out
     RDKit          3D

 82 86  0  0  0  0  0  0  0  0999 V2000
    2.6080   17.2160    0.0260 C   0  0  0  0  0  0  0  0  0  0  0  0
    2.1100   17.3600   -1.4150 C   0  0  2  0  0  0  0  0  0  0  0  0
    1.2990   18.6550   -1.6230 C   0  0  0  0  0  0  0  0  0  0  0  0
    1.0920   19.4630   -0.3390 C   0  0  0  0  0  0  0  0  0  0  0  0
   -0.2760   20.0740   -0.2840 C   0  0  2  0  0  0  0  0  0  0  0  0
   -0.8250   20.1940    1.0350 O   0  0  0  0  0  0  0  0  0  0  0  0
   -1.5170   19.3090    0.1400 C   0  0  0  0  0  0  0  0  0  0  0  0
   -1.4480   17.8670    0.5350 C   0  0  0  0  0  0  0  0  0  0  0  0
   -2.8550   19.8190   -0.2970 C   0  0  0  0  0  0  0  0  0  0  0  0
    1.2660   16.1500   -1.7970 C   0  0  1  0  0  0  0  0  0  0  0  0
    0.5990   16.3020   -3.1900 C   0  0  0  0  0  0  0  0  0  0  0  0
    0.5690   14.8890   -3.8280 C   0  0  0  0  0  0  0  0  0  0  0  0
    0.9090   13.9280   -2.6650 C   0  0  1  0  0  0  0  0  0  0  0  0
   -0.4340   13.7440   -1.8910 C   0  0  0  0  0  0  0  0  0  0  0  0
    1.5380   12.5540   -3.0650 C   0  0  2  0  0  0  0  0  0  0  0  0
    0.6390   11.6530   -3.9300 C   0  0  0  0  0  0  0  0  0  0  0  0
   -0.2390   10.7120   -3.1720 C   0  0  0  0  0  0  0  0  0  0  0  0
   -0.1040   10.3920   -1.8720 C   0  0  0  0  0  0  0  0  0  0  0  0
    1.0780   10.9220   -1.0490 C   0  0  1  0  0  0  0  0  0  0  0  0
    1.7000    9.7610   -0.2290 C   0  0  0  0  0  0  0  0  0  0  0  0
    0.6700    9.0340    0.6300 C   0  0  0  0  0  0  0  0  0  0  0  0
   -0.4590    8.4710   -0.2310 C   0  0  2  0  0  0  0  0  0  0  0  0
    0.0700    7.4370   -1.0670 O   0  0  0  0  0  0  0  0  0  0  0  0
   -1.1550    9.5480   -1.1090 C   0  0  0  0  0  0  0  0  0  0  0  0
   -1.9810   10.5000   -0.2090 C   0  0  0  0  0  0  0  0  0  0  0  0
   -2.1750    8.8270   -2.0300 C   0  0  0  0  0  0  0  0  0  0  0  0
    2.1670   11.7520   -1.8550 C   0  0  1  0  0  0  0  0  0  0  0  0
    3.2280   10.7860   -2.4650 C   0  0  0  0  0  0  0  0  0  0  0  0
    2.9430   12.6890   -0.8550 C   0  0  0  0  0  0  0  0  0  0  0  0
    2.3350   14.0800   -0.5930 C   0  0  0  0  0  0  0  0  0  0  0  0
    1.9890   14.7840   -1.9080 C   0  0  2  0  0  0  0  0  0  0  0  0
    3.3240   15.0030   -2.6990 C   0  0  0  0  0  0  0  0  0  0  0  0
    1.7898   17.4526    0.7221 H   0  0  0  0  0  0  0  0  0  0  0  0
    2.9465   16.1832    0.1955 H   0  0  0  0  0  0  0  0  0  0  0  0
    3.4455   17.9088    0.1955 H   0  0  0  0  0  0  0  0  0  0  0  0
    2.9947   17.4166   -2.0662 H   0  0  0  0  0  0  0  0  0  0  0  0
    1.8325   19.2864   -2.3487 H   0  0  0  0  0  0  0  0  0  0  0  0
    0.3022   18.3569   -1.9801 H   0  0  0  0  0  0  0  0  0  0  0  0
    1.2199   18.7963    0.5265 H   0  0  0  0  0  0  0  0  0  0  0  0
    1.8323   20.2764   -0.3221 H   0  0  0  0  0  0  0  0  0  0  0  0
   -0.0585   20.6994   -1.1624 H   0  0  0  0  0  0  0  0  0  0  0  0
   -1.4442   17.7871    1.6321 H   0  0  0  0  0  0  0  0  0  0  0  0
   -2.3217   17.3341    0.1316 H   0  0  0  0  0  0  0  0  0  0  0  0
   -0.5274   17.4200    0.1316 H   0  0  0  0  0  0  0  0  0  0  0  0
   -3.4656   20.0517    0.5879 H   0  0  0  0  0  0  0  0  0  0  0  0
   -2.7214   20.7292   -0.9000 H   0  0  0  0  0  0  0  0  0  0  0  0
   -3.3612   19.0508   -0.9000 H   0  0  0  0  0  0  0  0  0  0  0  0
    0.5676   16.1377   -0.9473 H   0  0  0  0  0  0  0  0  0  0  0  0
   -0.4245   16.6896   -3.0797 H   0  0  0  0  0  0  0  0  0  0  0  0
    1.1584   17.0085   -3.8209 H   0  0  0  0  0  0  0  0  0  0  0  0
   -0.4287   14.6680   -4.2352 H   0  0  0  0  0  0  0  0  0  0  0  0
    1.2748   14.7950   -4.6664 H   0  0  0  0  0  0  0  0  0  0  0  0
   -0.2400   13.7706   -0.8086 H   0  0  0  0  0  0  0  0  0  0  0  0
   -1.1261   14.5557   -2.1595 H   0  0  0  0  0  0  0  0  0  0  0  0
   -0.8823   12.7760   -2.1595 H   0  0  0  0  0  0  0  0  0  0  0  0
    2.3725   12.8564   -3.7148 H   0  0  0  0  0  0  0  0  0  0  0  0
   -0.0057   12.3021   -4.5408 H   0  0  0  0  0  0  0  0  0  0  0  0
    1.3191   11.0239   -4.5231 H   0  0  0  0  0  0  0  0  0  0  0  0
   -1.0660   10.2406   -3.7232 H   0  0  0  0  0  0  0  0  0  0  0  0
    0.6598   11.6776   -0.3677 H   0  0  0  0  0  0  0  0  0  0  0  0
    2.1506    9.0390   -0.9259 H   0  0  0  0  0  0  0  0  0  0  0  0
    2.4518   10.1949    0.4467 H   0  0  0  0  0  0  0  0  0  0  0  0
    1.1638    8.2073    1.1618 H   0  0  0  0  0  0  0  0  0  0  0  0
    0.2415    9.7505    1.3462 H   0  0  0  0  0  0  0  0  0  0  0  0
   -1.2277    8.0767    0.4499 H   0  0  0  0  0  0  0  0  0  0  0  0
    0.6080    6.8520   -0.5060 H   0  0  0  0  0  0  0  0  0  0  0  0
   -1.7816   10.2702    0.8481 H   0  0  0  0  0  0  0  0  0  0  0  0
   -1.6957   11.5416   -0.4179 H   0  0  0  0  0  0  0  0  0  0  0  0
   -3.0524   10.3644   -0.4179 H   0  0  0  0  0  0  0  0  0  0  0  0
   -2.9186    8.3014   -1.4129 H   0  0  0  0  0  0  0  0  0  0  0  0
   -2.6831    9.5677   -2.6650 H   0  0  0  0  0  0  0  0  0  0  0  0
   -1.6463    8.1009   -2.6650 H   0  0  0  0  0  0  0  0  0  0  0  0
    3.7775   10.2857   -1.6540 H   0  0  0  0  0  0  0  0  0  0  0  0
    2.7228   10.0313   -3.0857 H   0  0  0  0  0  0  0  0  0  0  0  0
    3.9322   11.3595   -3.0857 H   0  0  0  0  0  0  0  0  0  0  0  0
    3.0057   12.1659    0.1106 H   0  0  0  0  0  0  0  0  0  0  0  0
    3.9123   12.8846   -1.3370 H   0  0  0  0  0  0  0  0  0  0  0  0
    1.4192   13.9654    0.0055 H   0  0  0  0  0  0  0  0  0  0  0  0
    3.0744   14.6897   -0.0530 H   0  0  0  0  0  0  0  0  0  0  0  0
    4.1529   15.1390   -1.9888 H   0  0  0  0  0  0  0  0  0  0  0  0
    3.5235   14.1256   -3.3317 H   0  0  0  0  0  0  0  0  0  0  0  0
    3.2327   15.8982   -3.3317 H   0  0  0  0  0  0  0  0  0  0  0  0
  1  2  1  0
  2  3  1  0
  3  4  1  0
  4  5  1  0
  5  6  1  0
  6  7  1  0
  7  8  1  0
  7  9  1  0
  2 10  1  0
 10 11  1  0
 11 12  1  0
 12 13  1  0
 13 14  1  1
 13 15  1  0
 15 16  1  0
 16 17  1  0
 17 18  2  0
 18 19  1  0
 19 20  1  0
 20 21  1  0
 21 22  1  0
 22 23  1  0
 22 24  1  0
 24 25  1  0
 24 26  1  0
 19 27  1  0
 27 28  1  6
 27 29  1  0
 29 30  1  0
 30 31  1  0
 31 32  1  6
  7  5  1  0
 31 10  1  0
 31 13  1  0
 27 15  1  0
 24 18  1  0
  1 33  1  0
  1 34  1  0
  1 35  1  0
  2 36  1  6
  3 37  1  0
  3 38  1  0
  4 39  1  0
  4 40  1  0
  5 41  1  6
  8 42  1  0
  8 43  1  0
  8 44  1  0
  9 45  1  0
  9 46  1  0
  9 47  1  0
 10 48  1  1
 11 49  1  0
 11 50  1  0
 12 51  1  0
 12 52  1  0
 14 53  1  0
 14 54  1  0
 14 55  1  0
 15 56  1  6
 16 57  1  0
 16 58  1  0
 17 59  1  0
 19 60  1  1
 20 61  1  0
 20 62  1  0
 21 63  1  0
 21 64  1  0
 22 65  1  1
 23 66  1  0
 25 67  1  0
 25 68  1  0
 25 69  1  0
 26 70  1  0
 26 71  1  0
 26 72  1  0
 28 73  1  0
 28 74  1  0
 28 75  1  0
 29 76  1  0
 29 77  1  0
 30 78  1  0
 30 79  1  0
 32 80  1  0
 32 81  1  0
 32 82  1  0
M  END
>  <meeko>  (4) 
{"is_sidechain": [false], "intermolecular_energy": 2.731, "internal_energy": -0.839}

$$$$
EPH_relaxed_0001_pdb2pqr_Repair_127_r2_0001_out
     RDKit          3D

 82 86  0  0  0  0  0  0  0  0999 V2000
    2.0080   18.4880   -1.8540 C   0  0  0  0  0  0  0  0  0  0  0  0
    1.7790   17.4540   -0.7480 C   0  0  2  0  0  0  0  0  0  0  0  0
    3.0980   17.0060   -0.0890 C   0  0  0  0  0  0  0  0  0  0  0  0
    4.0310   18.1660    0.2710 C   0  0  0  0  0  0  0  0  0  0  0  0
    3.7150   18.7330    1.6220 C   0  0  2  0  0  0  0  0  0  0  0  0
    4.0680   20.1120    1.7900 O   0  0  0  0  0  0  0  0  0  0  0  0
    4.7760   19.1720    2.6140 C   0  0  0  0  0  0  0  0  0  0  0  0
    6.2340   19.0620    2.2970 C   0  0  0  0  0  0  0  0  0  0  0  0
    4.4120   19.2480    4.0640 C   0  0  0  0  0  0  0  0  0  0  0  0
    1.0410   16.2450   -1.3110 C   0  0  1  0  0  0  0  0  0  0  0  0
    0.5190   16.4820   -2.7530 C   0  0  0  0  0  0  0  0  0  0  0  0
    0.6280   15.1260   -3.4960 C   0  0  0  0  0  0  0  0  0  0  0  0
    0.8890   14.0890   -2.3790 C   0  0  1  0  0  0  0  0  0  0  0  0
   -0.5180   13.7880   -1.7740 C   0  0  0  0  0  0  0  0  0  0  0  0
    1.6240   12.7780   -2.8120 C   0  0  2  0  0  0  0  0  0  0  0  0
    0.8680   11.9140   -3.8360 C   0  0  0  0  0  0  0  0  0  0  0  0
   -0.0370   10.8800   -3.2530 C   0  0  0  0  0  0  0  0  0  0  0  0
   -0.0260   10.4610   -1.9740 C   0  0  0  0  0  0  0  0  0  0  0  0
    1.0340   10.9710   -0.9880 C   0  0  1  0  0  0  0  0  0  0  0  0
    1.6220    9.7740   -0.1960 C   0  0  0  0  0  0  0  0  0  0  0  0
    0.5440    8.9380    0.4870 C   0  0  0  0  0  0  0  0  0  0  0  0
   -0.4580    8.4010   -0.5330 C   0  0  2  0  0  0  0  0  0  0  0  0
    0.2080    7.4610   -1.3810 O   0  0  0  0  0  0  0  0  0  0  0  0
   -1.1090    9.5160   -1.3980 C   0  0  0  0  0  0  0  0  0  0  0  0
   -2.0720   10.3570   -0.5240 C   0  0  0  0  0  0  0  0  0  0  0  0
   -1.9890    8.8310   -2.4780 C   0  0  0  0  0  0  0  0  0  0  0  0
    2.1600   11.9080   -1.6040 C   0  0  1  0  0  0  0  0  0  0  0  0
    3.3270   11.0380   -2.1660 C   0  0  0  0  0  0  0  0  0  0  0  0
    2.7780   12.7920   -0.4570 C   0  0  0  0  0  0  0  0  0  0  0  0
    2.0770   14.1300   -0.1580 C   0  0  0  0  0  0  0  0  0  0  0  0
    1.8390   14.9240   -1.4460 C   0  0  2  0  0  0  0  0  0  0  0  0
    3.2380   15.2610   -2.0660 C   0  0  0  0  0  0  0  0  0  0  0  0
    2.2248   19.4669   -1.4016 H   0  0  0  0  0  0  0  0  0  0  0  0
    2.8587   18.1757   -2.4775 H   0  0  0  0  0  0  0  0  0  0  0  0
    1.1050   18.5641   -2.4775 H   0  0  0  0  0  0  0  0  0  0  0  0
    1.1676   17.9333    0.0308 H   0  0  0  0  0  0  0  0  0  0  0  0
    2.8566   16.4556    0.8323 H   0  0  0  0  0  0  0  0  0  0  0  0
    3.6288   16.3823   -0.8233 H   0  0  0  0  0  0  0  0  0  0  0  0
    5.0689   17.8018    0.2712 H   0  0  0  0  0  0  0  0  0  0  0  0
    3.8925   18.9618   -0.4757 H   0  0  0  0  0  0  0  0  0  0  0  0
    2.8407   18.0728    1.7206 H   0  0  0  0  0  0  0  0  0  0  0  0
    6.8104   19.0185    3.2329 H   0  0  0  0  0  0  0  0  0  0  0  0
    6.4142   18.1477    1.7125 H   0  0  0  0  0  0  0  0  0  0  0  0
    6.5493   19.9389    1.7125 H   0  0  0  0  0  0  0  0  0  0  0  0
    5.3062   19.0613    4.6768 H   0  0  0  0  0  0  0  0  0  0  0  0
    4.0147   20.2485    4.2904 H   0  0  0  0  0  0  0  0  0  0  0  0
    3.6476   18.4901    4.2904 H   0  0  0  0  0  0  0  0  0  0  0  0
    0.2578   16.1349   -0.5465 H   0  0  0  0  0  0  0  0  0  0  0  0
   -0.5286   16.8164   -2.7265 H   0  0  0  0  0  0  0  0  0  0  0  0
    1.1059   17.2602   -3.2628 H   0  0  0  0  0  0  0  0  0  0  0  0
   -0.3080   14.8977   -4.0268 H   0  0  0  0  0  0  0  0  0  0  0  0
    1.4232   15.1295   -4.2560 H   0  0  0  0  0  0  0  0  0  0  0  0
   -0.4554   13.8014   -0.6759 H   0  0  0  0  0  0  0  0  0  0  0  0
   -1.2330   14.5535   -2.1099 H   0  0  0  0  0  0  0  0  0  0  0  0
   -0.8572   12.7970   -2.1099 H   0  0  0  0  0  0  0  0  0  0  0  0
    2.5061   13.1653   -3.3429 H   0  0  0  0  0  0  0  0  0  0  0  0
    0.2603   12.5833   -4.4627 H   0  0  0  0  0  0  0  0  0  0  0  0
    1.6376   11.3635   -4.3970 H   0  0  0  0  0  0  0  0  0  0  0  0
   -0.7761   10.4212   -3.9262 H   0  0  0  0  0  0  0  0  0  0  0  0
    0.5090   11.6511   -0.3012 H   0  0  0  0  0  0  0  0  0  0  0  0
    2.1791    9.1301   -0.8924 H   0  0  0  0  0  0  0  0  0  0  0  0
    2.2754   10.1820    0.5892 H   0  0  0  0  0  0  0  0  0  0  0  0
    1.0189    8.0918    1.0050 H   0  0  0  0  0  0  0  0  0  0  0  0
    0.0070    9.5758    1.2046 H   0  0  0  0  0  0  0  0  0  0  0  0
   -1.2749    7.9222    0.0268 H   0  0  0  0  0  0  0  0  0  0  0  0
    0.6330    7.9610   -2.0980 H   0  0  0  0  0  0  0  0  0  0  0  0
   -1.8592   10.1711    0.5391 H   0  0  0  0  0  0  0  0  0  0  0  0
   -1.9296   11.4251   -0.7452 H   0  0  0  0  0  0  0  0  0  0  0  0
   -3.1112   10.0721   -0.7452 H   0  0  0  0  0  0  0  0  0  0  0  0
   -2.7662    8.2260   -1.9881 H   0  0  0  0  0  0  0  0  0  0  0  0
   -2.4639    9.5995   -3.1056 H   0  0  0  0  0  0  0  0  0  0  0  0
   -1.3605    8.1821   -3.1056 H   0  0  0  0  0  0  0  0  0  0  0  0
    3.9007   10.6103   -1.3306 H   0  0  0  0  0  0  0  0  0  0  0  0
    2.9147   10.2251   -2.7818 H   0  0  0  0  0  0  0  0  0  0  0  0
    3.9883   11.6653   -2.7818 H   0  0  0  0  0  0  0  0  0  0  0  0
    2.7645   12.1954    0.4670 H   0  0  0  0  0  0  0  0  0  0  0  0
    3.7818   13.0662   -0.8138 H   0  0  0  0  0  0  0  0  0  0  0  0
    1.1093   13.9292    0.3250 H   0  0  0  0  0  0  0  0  0  0  0  0
    2.7228   14.7237    0.5058 H   0  0  0  0  0  0  0  0  0  0  0  0
    3.9643   15.4360   -1.2586 H   0  0  0  0  0  0  0  0  0  0  0  0
    3.5762   14.4186   -2.6873 H   0  0  0  0  0  0  0  0  0  0  0  0
    3.1556   16.1650   -2.6873 H   0  0  0  0  0  0  0  0  0  0  0  0
  1  2  1  0
  2  3  1  0
  3  4  1  0
  4  5  1  0
  5  6  1  0
  6  7  1  0
  7  8  1  0
  7  9  1  0
  2 10  1  0
 10 11  1  0
 11 12  1  0
 12 13  1  0
 13 14  1  1
 13 15  1  0
 15 16  1  0
 16 17  1  0
 17 18  2  0
 18 19  1  0
 19 20  1  0
 20 21  1  0
 21 22  1  0
 22 23  1  0
 22 24  1  0
 24 25  1  0
 24 26  1  0
 19 27  1  0
 27 28  1  6
 27 29  1  0
 29 30  1  0
 30 31  1  0
 31 32  1  6
  7  5  1  0
 31 10  1  0
 31 13  1  0
 27 15  1  0
 24 18  1  0
  1 33  1  0
  1 34  1  0
  1 35  1  0
  2 36  1  1
  3 37  1  0
  3 38  1  0
  4 39  1  0
  4 40  1  0
  5 41  1  1
  8 42  1  0
  8 43  1  0
  8 44  1  0
  9 45  1  0
  9 46  1  0
  9 47  1  0
 10 48  1  1
 11 49  1  0
 11 50  1  0
 12 51  1  0
 12 52  1  0
 14 53  1  0
 14 54  1  0
 14 55  1  0
 15 56  1  6
 16 57  1  0
 16 58  1  0
 17 59  1  0
 19 60  1  1
 20 61  1  0
 20 62  1  0
 21 63  1  0
 21 64  1  0
 22 65  1  1
 23 66  1  0
 25 67  1  0
 25 68  1  0
 25 69  1  0
 26 70  1  0
 26 71  1  0
 26 72  1  0
 28 73  1  0
 28 74  1  0
 28 75  1  0
 29 76  1  0
 29 77  1  0
 30 78  1  0
 30 79  1  0
 32 80  1  0
 32 81  1  0
 32 82  1  0
M  END
>  <meeko>  (5) 
{"is_sidechain": [false], "intermolecular_energy": 2.731, "internal_energy": -0.839}

$$$$
EPH_relaxed_0001_pdb2pqr_Repair_127_r2_0001_out
     RDKit          3D

 82 86  0  0  0  0  0  0  0  0999 V2000
   -0.5970    7.8830   -0.4440 C   0  0  0  0  0  0  0  0  0  0  0  0
   -1.0460    9.2610    0.0510 C   0  0  2  0  0  0  0  0  0  0  0  0
   -2.2970    9.7670   -0.6950 C   0  0  0  0  0  0  0  0  0  0  0  0
   -3.6160    9.3070   -0.0690 C   0  0  0  0  0  0  0  0  0  0  0  0
   -4.0160    7.9470   -0.5560 C   0  0  2  0  0  0  0  0  0  0  0  0
   -4.1360    7.8330   -1.9800 O   0  0  0  0  0  0  0  0  0  0  0  0
   -5.3460    7.6560   -1.2260 C   0  0  0  0  0  0  0  0  0  0  0  0
   -6.3620    8.7340   -1.4440 C   0  0  0  0  0  0  0  0  0  0  0  0
   -5.8550    6.2490   -1.2240 C   0  0  0  0  0  0  0  0  0  0  0  0
    0.0920   10.2640   -0.1000 C   0  0  1  0  0  0  0  0  0  0  0  0
    1.4880    9.5850   -0.1150 C   0  0  0  0  0  0  0  0  0  0  0  0
    2.3740   10.4070   -1.0870 C   0  0  0  0  0  0  0  0  0  0  0  0
    1.5740   11.7070   -1.3390 C   0  0  1  0  0  0  0  0  0  0  0  0
    1.8760   12.6090   -0.1020 C   0  0  0  0  0  0  0  0  0  0  0  0
    1.8710   12.4510   -2.6820 C   0  0  2  0  0  0  0  0  0  0  0  0
    3.3130   12.9640   -2.8390 C   0  0  0  0  0  0  0  0  0  0  0  0
    3.5530   14.3510   -2.3430 C   0  0  0  0  0  0  0  0  0  0  0  0
    2.5990   15.2560   -2.0560 C   0  0  0  0  0  0  0  0  0  0  0  0
    1.1180   14.9490   -2.3180 C   0  0  1  0  0  0  0  0  0  0  0  0
    0.4570   16.1590   -3.0290 C   0  0  0  0  0  0  0  0  0  0  0  0
    0.6560   17.4650   -2.2670 C   0  0  0  0  0  0  0  0  0  0  0  0
    2.1400   17.7650   -2.0770 C   0  0  2  0  0  0  0  0  0  0  0  0
    2.7240   18.0310   -3.3560 O   0  0  0  0  0  0  0  0  0  0  0  0
    2.9140   16.6120   -1.3790 C   0  0  0  0  0  0  0  0  0  0  0  0
    2.4880   16.5250    0.1070 C   0  0  0  0  0  0  0  0  0  0  0  0
    4.4220   16.9820   -1.3770 C   0  0  0  0  0  0  0  0  0  0  0  0
    0.8150   13.5710   -3.0490 C   0  0  1  0  0  0  0  0  0  0  0  0
    0.8870   13.7610   -4.5950 C   0  0  0  0  0  0  0  0  0  0  0  0
   -0.6620   13.1310   -2.7240 C   0  0  0  0  0  0  0  0  0  0  0  0
   -0.8730   12.2960   -1.4460 C   0  0  0  0  0  0  0  0  0  0  0  0
    0.1140   11.1270   -1.3860 C   0  0  2  0  0  0  0  0  0  0  0  0
   -0.1800   10.1890   -2.6070 C   0  0  0  0  0  0  0  0  0  0  0  0
   -0.3857    7.2344    0.4189 H   0  0  0  0  0  0  0  0  0  0  0  0
   -1.3954    7.4342   -1.0532 H   0  0  0  0  0  0  0  0  0  0  0  0
    0.3125    7.9907   -1.0532 H   0  0  0  0  0  0  0  0  0  0  0  0
   -1.3137    9.1598    1.1131 H   0  0  0  0  0  0  0  0  0  0  0  0
   -2.2787   10.8668   -0.6970 H   0  0  0  0  0  0  0  0  0  0  0  0
   -2.2586    9.3442   -1.7098 H   0  0  0  0  0  0  0  0  0  0  0  0
   -3.4994    9.2741    1.0243 H   0  0  0  0  0  0  0  0  0  0  0  0
   -4.4011   10.0203   -0.3604 H   0  0  0  0  0  0  0  0  0  0  0  0
   -3.4918    7.4662    0.2831 H   0  0  0  0  0  0  0  0  0  0  0  0
   -6.7144    9.1079   -0.4713 H   0  0  0  0  0  0  0  0  0  0  0  0
   -5.9054    9.5591   -2.0104 H   0  0  0  0  0  0  0  0  0  0  0  0
   -7.2126    8.3270   -2.0104 H   0  0  0  0  0  0  0  0  0  0  0  0
   -5.9793    5.9055   -0.1864 H   0  0  0  0  0  0  0  0  0  0  0  0
   -6.8245    6.2091   -1.7421 H   0  0  0  0  0  0  0  0  0  0  0  0
   -5.1354    5.5980   -1.7421 H   0  0  0  0  0  0  0  0  0  0  0  0
   -0.1053   10.9000    0.7756 H   0  0  0  0  0  0  0  0  0  0  0  0
    1.9244    9.5935    0.8947 H   0  0  0  0  0  0  0  0  0  0  0  0
    1.4140    8.5363   -0.4386 H   0  0  0  0  0  0  0  0  0  0  0  0
    3.3478   10.6330   -0.6280 H   0  0  0  0  0  0  0  0  0  0  0  0
    2.5886    9.8620   -2.0181 H   0  0  0  0  0  0  0  0  0  0  0  0
    1.6859   12.0414    0.8209 H   0  0  0  0  0  0  0  0  0  0  0  0
    2.9291   12.9256   -0.1274 H   0  0  0  0  0  0  0  0  0  0  0  0
    1.2258   13.4959   -0.1274 H   0  0  0  0  0  0  0  0  0  0  0  0
    1.7575   11.6491   -3.4264 H   0  0  0  0  0  0  0  0  0  0  0  0
    3.9777   12.2849   -2.2849 H   0  0  0  0  0  0  0  0  0  0  0  0
    3.5115   12.9887   -3.9207 H   0  0  0  0  0  0  0  0  0  0  0  0
    4.5989   14.6600   -2.1997 H   0  0  0  0  0  0  0  0  0  0  0  0
    0.6581   14.7999   -1.3300 H   0  0  0  0  0  0  0  0  0  0  0  0
    0.8993   16.2642   -4.0306 H   0  0  0  0  0  0  0  0  0  0  0  0
   -0.6244   15.9650   -3.0825 H   0  0  0  0  0  0  0  0  0  0  0  0
    0.1923   18.2863   -2.8331 H   0  0  0  0  0  0  0  0  0  0  0  0
    0.1878   17.3683   -1.2763 H   0  0  0  0  0  0  0  0  0  0  0  0
    2.2173   18.6401   -1.4151 H   0  0  0  0  0  0  0  0  0  0  0  0
    3.2100   17.2350   -3.6290 H   0  0  0  0  0  0  0  0  0  0  0  0
    3.3623   16.7036    0.7501 H   0  0  0  0  0  0  0  0  0  0  0  0
    1.7198   17.2848    0.3133 H   0  0  0  0  0  0  0  0  0  0  0  0
    2.0792   15.5248    0.3133 H   0  0  0  0  0  0  0  0  0  0  0  0
    4.7768   17.0691   -0.3394 H   0  0  0  0  0  0  0  0  0  0  0  0
    4.9928   16.1973   -1.8951 H   0  0  0  0  0  0  0  0  0  0  0  0
    4.5647   17.9418   -1.8951 H   0  0  0  0  0  0  0  0  0  0  0  0
    1.2683   14.7672   -4.8234 H   0  0  0  0  0  0  0  0  0  0  0  0
    1.5616   13.0067   -5.0261 H   0  0  0  0  0  0  0  0  0  0  0  0
   -0.1181   13.6432   -5.0261 H   0  0  0  0  0  0  0  0  0  0  0  0
   -1.2679   14.0441   -2.6287 H   0  0  0  0  0  0  0  0  0  0  0  0
   -0.9538   12.4684   -3.5522 H   0  0  0  0  0  0  0  0  0  0  0  0
   -0.7224   12.9396   -0.5667 H   0  0  0  0  0  0  0  0  0  0  0  0
   -1.8958   11.8913   -1.4563 H   0  0  0  0  0  0  0  0  0  0  0  0
   -0.4904    9.1987   -2.2422 H   0  0  0  0  0  0  0  0  0  0  0  0
   -0.9850   10.6236   -3.2178 H   0  0  0  0  0  0  0  0  0  0  0  0
    0.7291   10.0864   -3.2178 H   0  0  0  0  0  0  0  0  0  0  0  0
  1  2  1  0
  2  3  1  0
  3  4  1  0
  4  5  1  0
  5  6  1  0
  6  7  1  0
  7  8  1  0
  7  9  1  0
  2 10  1  0
 10 11  1  0
 11 12  1  0
 12 13  1  0
 13 14  1  1
 13 15  1  0
 15 16  1  0
 16 17  1  0
 17 18  2  0
 18 19  1  0
 19 20  1  0
 20 21  1  0
 21 22  1  0
 22 23  1  0
 22 24  1  0
 24 25  1  0
 24 26  1  0
 19 27  1  0
 27 28  1  6
 27 29  1  0
 29 30  1  0
 30 31  1  0
 31 32  1  6
  7  5  1  0
 31 10  1  0
 31 13  1  0
 27 15  1  0
 24 18  1  0
  1 33  1  0
  1 34  1  0
  1 35  1  0
  2 36  1  1
  3 37  1  0
  3 38  1  0
  4 39  1  0
  4 40  1  0
  5 41  1  1
  8 42  1  0
  8 43  1  0
  8 44  1  0
  9 45  1  0
  9 46  1  0
  9 47  1  0
 10 48  1  1
 11 49  1  0
 11 50  1  0
 12 51  1  0
 12 52  1  0
 14 53  1  0
 14 54  1  0
 14 55  1  0
 15 56  1  6
 16 57  1  0
 16 58  1  0
 17 59  1  0
 19 60  1  1
 20 61  1  0
 20 62  1  0
 21 63  1  0
 21 64  1  0
 22 65  1  1
 23 66  1  0
 25 67  1  0
 25 68  1  0
 25 69  1  0
 26 70  1  0
 26 71  1  0
 26 72  1  0
 28 73  1  0
 28 74  1  0
 28 75  1  0
 29 76  1  0
 29 77  1  0
 30 78  1  0
 30 79  1  0
 32 80  1  0
 32 81  1  0
 32 82  1  0
M  END
>  <meeko>  (6) 
{"is_sidechain": [false], "intermolecular_energy": 2.731, "internal_energy": -0.839}

$$$$
EPH_relaxed_0001_pdb2pqr_Repair_127_r2_0001_out
     RDKit          3D

 82 86  0  0  0  0  0  0  0  0999 V2000
    3.6690   17.9300   -1.3650 C   0  0  0  0  0  0  0  0  0  0  0  0
    2.6270   17.4630   -2.3850 C   0  0  2  0  0  0  0  0  0  0  0  0
    1.2090   17.9570   -2.0350 C   0  0  0  0  0  0  0  0  0  0  0  0
    1.1590   18.8560   -0.7970 C   0  0  0  0  0  0  0  0  0  0  0  0
   -0.0870   19.6890   -0.7660 C   0  0  2  0  0  0  0  0  0  0  0  0
   -0.4370   20.1940    0.5290 O   0  0  0  0  0  0  0  0  0  0  0  0
   -1.3600   19.2640   -0.0590 C   0  0  0  0  0  0  0  0  0  0  0  0
   -1.4520   17.9570    0.6650 C   0  0  0  0  0  0  0  0  0  0  0  0
   -2.6550   19.8850   -0.4830 C   0  0  0  0  0  0  0  0  0  0  0  0
    2.6390   15.9420   -2.4820 C   0  0  1  0  0  0  0  0  0  0  0  0
    4.0690   15.3660   -2.6650 C   0  0  0  0  0  0  0  0  0  0  0  0
    4.1100   14.0180   -1.9020 C   0  0  0  0  0  0  0  0  0  0  0  0
    2.6280   13.7020   -1.5880 C   0  0  1  0  0  0  0  0  0  0  0  0
    2.0630   13.0830   -2.9050 C   0  0  0  0  0  0  0  0  0  0  0  0
    2.3650   12.7760   -0.3560 C   0  0  2  0  0  0  0  0  0  0  0  0
    2.9440   11.3560   -0.4720 C   0  0  0  0  0  0  0  0  0  0  0  0
    2.0300   10.3410   -1.0740 C   0  0  0  0  0  0  0  0  0  0  0  0
    0.7020   10.4870   -1.2440 C   0  0  0  0  0  0  0  0  0  0  0  0
   -0.0260   11.7320   -0.7210 C   0  0  1  0  0  0  0  0  0  0  0  0
   -1.3160   11.3010    0.0250 C   0  0  0  0  0  0  0  0  0  0  0  0
   -2.2170   10.4130   -0.8280 C   0  0  0  0  0  0  0  0  0  0  0  0
   -1.4750    9.1580   -1.2800 C   0  0  2  0  0  0  0  0  0  0  0  0
   -1.1960    8.3490   -0.1340 O   0  0  0  0  0  0  0  0  0  0  0  0
   -0.1520    9.4670   -2.0360 C   0  0  0  0  0  0  0  0  0  0  0  0
   -0.4760   10.0770   -3.4230 C   0  0  0  0  0  0  0  0  0  0  0  0
    0.5660    8.1190   -2.3120 C   0  0  0  0  0  0  0  0  0  0  0  0
    0.8570   12.7490    0.1230 C   0  0  1  0  0  0  0  0  0  0  0  0
    0.8740   12.3210    1.6220 C   0  0  0  0  0  0  0  0  0  0  0  0
    0.1880   14.1730    0.0750 C   0  0  0  0  0  0  0  0  0  0  0  0
    0.5800   15.0860   -1.1020 C   0  0  0  0  0  0  0  0  0  0  0  0
    2.1010   15.1470   -1.2650 C   0  0  2  0  0  0  0  0  0  0  0  0
    2.6960   15.7860    0.0360 C   0  0  0  0  0  0  0  0  0  0  0  0
    3.2881   17.7593   -0.3473 H   0  0  0  0  0  0  0  0  0  0  0  0
    4.6011   17.3635   -1.5075 H   0  0  0  0  0  0  0  0  0  0  0  0
    3.8665   19.0027   -1.5075 H   0  0  0  0  0  0  0  0  0  0  0  0
    2.8981   17.8997   -3.3575 H   0  0  0  0  0  0  0  0  0  0  0  0
    0.8174   18.5243   -2.8922 H   0  0  0  0  0  0  0  0  0  0  0  0
    0.6044   17.0660   -1.8101 H   0  0  0  0  0  0  0  0  0  0  0  0
    1.1881   18.2247    0.1033 H   0  0  0  0  0  0  0  0  0  0  0  0
    2.0241   19.5346   -0.8311 H   0  0  0  0  0  0  0  0  0  0  0  0
    0.1037   20.0546   -1.7858 H   0  0  0  0  0  0  0  0  0  0  0  0
   -1.4393   18.1372    1.7501 H   0  0  0  0  0  0  0  0  0  0  0  0
   -2.3881   17.4498    0.3885 H   0  0  0  0  0  0  0  0  0  0  0  0
   -0.5962   17.3236    0.3885 H   0  0  0  0  0  0  0  0  0  0  0  0
   -3.2369   20.1640    0.4078 H   0  0  0  0  0  0  0  0  0  0  0  0
   -2.4514   20.7834   -1.0841 H   0  0  0  0  0  0  0  0  0  0  0  0
   -3.2281   19.1637   -1.0841 H   0  0  0  0  0  0  0  0  0  0  0  0
    1.9705   15.8074   -3.3451 H   0  0  0  0  0  0  0  0  0  0  0  0
    4.2779   15.2033   -3.7327 H   0  0  0  0  0  0  0  0  0  0  0  0
    4.8274   16.0621   -2.2773 H   0  0  0  0  0  0  0  0  0  0  0  0
    4.5506   13.2296   -2.5299 H   0  0  0  0  0  0  0  0  0  0  0  0
    4.7268   14.0719   -0.9928 H   0  0  0  0  0  0  0  0  0  0  0  0
    1.3404   12.2914   -2.6576 H   0  0  0  0  0  0  0  0  0  0  0  0
    1.5619   13.8662   -3.4927 H   0  0  0  0  0  0  0  0  0  0  0  0
    2.8886   12.6552   -3.4927 H   0  0  0  0  0  0  0  0  0  0  0  0
    2.9436   13.2695    0.4388 H   0  0  0  0  0  0  0  0  0  0  0  0
    3.8501   11.4083   -1.0935 H   0  0  0  0  0  0  0  0  0  0  0  0
    3.1345   11.0204    0.5581 H   0  0  0  0  0  0  0  0  0  0  0  0
    2.4791    9.3936   -1.4069 H   0  0  0  0  0  0  0  0  0  0  0  0
   -0.2885   12.3266   -1.6085 H   0  0  0  0  0  0  0  0  0  0  0  0
   -1.0306   10.7466    0.9312 H   0  0  0  0  0  0  0  0  0  0  0  0
   -1.8808   12.2129    0.2689 H   0  0  0  0  0  0  0  0  0  0  0  0
   -3.0962   10.1181   -0.2364 H   0  0  0  0  0  0  0  0  0  0  0  0
   -2.5257   10.9788   -1.7194 H   0  0  0  0  0  0  0  0  0  0  0  0
   -2.1263    8.6284   -1.9909 H   0  0  0  0  0  0  0  0  0  0  0  0
   -0.2690    8.0620   -0.1950 H   0  0  0  0  0  0  0  0  0  0  0  0
   -0.9881   11.0412   -3.2889 H   0  0  0  0  0  0  0  0  0  0  0  0
    0.4583   10.2327   -3.9824 H   0  0  0  0  0  0  0  0  0  0  0  0
   -1.1281    9.3901   -3.9824 H   0  0  0  0  0  0  0  0  0  0  0  0
    0.8223    7.6378   -1.3566 H   0  0  0  0  0  0  0  0  0  0  0  0
   -0.1004    7.4597   -2.8875 H   0  0  0  0  0  0  0  0  0  0  0  0
    1.4850    8.3042   -2.8875 H   0  0  0  0  0  0  0  0  0  0  0  0
    0.8384   13.2167    2.2595 H   0  0  0  0  0  0  0  0  0  0  0  0
    0.0003   11.6865    1.8321 H   0  0  0  0  0  0  0  0  0  0  0  0
    1.7952   11.7578    1.8321 H   0  0  0  0  0  0  0  0  0  0  0  0
   -0.9016   14.0274    0.0345 H   0  0  0  0  0  0  0  0  0  0  0  0
    0.5511   14.6917    0.9745 H   0  0  0  0  0  0  0  0  0  0  0  0
    0.1344   14.6917   -2.0272 H   0  0  0  0  0  0  0  0  0  0  0  0
    0.2081   16.1009   -0.8977 H   0  0  0  0  0  0  0  0  0  0  0  0
    2.2484   15.3053    0.9184 H   0  0  0  0  0  0  0  0  0  0  0  0
    3.7860   15.6386    0.0515 H   0  0  0  0  0  0  0  0  0  0  0  0
    2.4713   16.8627    0.0515 H   0  0  0  0  0  0  0  0  0  0  0  0
  1  2  1  0
  2  3  1  0
  3  4  1  0
  4  5  1  0
  5  6  1  0
  6  7  1  0
  7  8  1  0
  7  9  1  0
  2 10  1  0
 10 11  1  0
 11 12  1  0
 12 13  1  0
 13 14  1  6
 13 15  1  0
 15 16  1  0
 16 17  1  0
 17 18  2  0
 18 19  1  0
 19 20  1  0
 20 21  1  0
 21 22  1  0
 22 23  1  0
 22 24  1  0
 24 25  1  0
 24 26  1  0
 19 27  1  0
 27 28  1  1
 27 29  1  0
 29 30  1  0
 30 31  1  0
 31 32  1  1
  7  5  1  0
 31 10  1  0
 31 13  1  0
 27 15  1  0
 24 18  1  0
  1 33  1  0
  1 34  1  0
  1 35  1  0
  2 36  1  6
  3 37  1  0
  3 38  1  0
  4 39  1  0
  4 40  1  0
  5 41  1  6
  8 42  1  0
  8 43  1  0
  8 44  1  0
  9 45  1  0
  9 46  1  0
  9 47  1  0
 10 48  1  6
 11 49  1  0
 11 50  1  0
 12 51  1  0
 12 52  1  0
 14 53  1  0
 14 54  1  0
 14 55  1  0
 15 56  1  1
 16 57  1  0
 16 58  1  0
 17 59  1  0
 19 60  1  6
 20 61  1  0
 20 62  1  0
 21 63  1  0
 21 64  1  0
 22 65  1  6
 23 66  1  0
 25 67  1  0
 25 68  1  0
 25 69  1  0
 26 70  1  0
 26 71  1  0
 26 72  1  0
 28 73  1  0
 28 74  1  0
 28 75  1  0
 29 76  1  0
 29 77  1  0
 30 78  1  0
 30 79  1  0
 32 80  1  0
 32 81  1  0
 32 82  1  0
M  END
>  <meeko>  (7) 
{"is_sidechain": [false], "intermolecular_energy": 2.731, "internal_energy": -0.839}

$$$$
EPH_relaxed_0001_pdb2pqr_Repair_127_r2_0001_out
     RDKit          3D

 82 86  0  0  0  0  0  0  0  0999 V2000
   -2.6430    7.6210   -3.0470 C   0  0  0  0  0  0  0  0  0  0  0  0
   -2.9120    7.8760   -1.5620 C   0  0  2  0  0  0  0  0  0  0  0  0
   -4.4170    7.8410   -1.2290 C   0  0  0  0  0  0  0  0  0  0  0  0
   -5.1580    6.6570   -1.8570 C   0  0  0  0  0  0  0  0  0  0  0  0
   -6.3620    7.1040   -2.6310 C   0  0  2  0  0  0  0  0  0  0  0  0
   -6.9030    8.3670   -2.2190 O   0  0  0  0  0  0  0  0  0  0  0  0
   -7.7480    7.2210   -2.0260 C   0  0  0  0  0  0  0  0  0  0  0  0
   -8.0040    6.8890   -0.5900 C   0  0  0  0  0  0  0  0  0  0  0  0
   -8.9330    7.1860   -2.9410 C   0  0  0  0  0  0  0  0  0  0  0  0
   -2.3190    9.2180   -1.1490 C   0  0  1  0  0  0  0  0  0  0  0  0
   -2.8220    9.6920    0.2410 C   0  0  0  0  0  0  0  0  0  0  0  0
   -1.6410   10.4370    0.9140 C   0  0  0  0  0  0  0  0  0  0  0  0
   -0.6180   10.6570   -0.2250 C   0  0  1  0  0  0  0  0  0  0  0  0
   -1.1370   11.9130   -0.9930 C   0  0  0  0  0  0  0  0  0  0  0  0
    0.8750   10.8210    0.2090 C   0  0  2  0  0  0  0  0  0  0  0  0
    1.1650   12.0440    1.0970 C   0  0  0  0  0  0  0  0  0  0  0  0
    1.5340   13.2910    0.3640 C   0  0  0  0  0  0  0  0  0  0  0  0
    1.9050   13.3590   -0.9280 C   0  0  0  0  0  0  0  0  0  0  0  0
    2.0780   12.0850   -1.7650 C   0  0  1  0  0  0  0  0  0  0  0  0
    3.4100   12.1620   -2.5560 C   0  0  0  0  0  0  0  0  0  0  0  0
    3.5190   13.4310   -3.3960 C   0  0  0  0  0  0  0  0  0  0  0  0
    3.4010   14.6760   -2.5200 C   0  0  2  0  0  0  0  0  0  0  0  0
    4.5420   14.7440   -1.6600 O   0  0  0  0  0  0  0  0  0  0  0  0
    2.1010   14.7050   -1.6680 C   0  0  0  0  0  0  0  0  0  0  0  0
    0.8790   14.9350   -2.5910 C   0  0  0  0  0  0  0  0  0  0  0  0
    2.1740   15.9380   -0.7290 C   0  0  0  0  0  0  0  0  0  0  0  0
    1.9120   10.7120   -0.9820 C   0  0  1  0  0  0  0  0  0  0  0  0
    3.2740   10.2930   -0.3490 C   0  0  0  0  0  0  0  0  0  0  0  0
    1.5300    9.5790   -2.0050 C   0  0  0  0  0  0  0  0  0  0  0  0
    0.0310    9.3860   -2.3020 C   0  0  0  0  0  0  0  0  0  0  0  0
   -0.7780    9.3010   -1.0040 C   0  0  2  0  0  0  0  0  0  0  0  0
   -0.2940    8.0330   -0.2210 C   0  0  0  0  0  0  0  0  0  0  0  0
   -1.8483    6.8677   -3.1516 H   0  0  0  0  0  0  0  0  0  0  0  0
   -3.5616    7.2542   -3.5283 H   0  0  0  0  0  0  0  0  0  0  0  0
   -2.3258    8.5579   -3.5283 H   0  0  0  0  0  0  0  0  0  0  0  0
   -2.4298    7.0658   -0.9954 H   0  0  0  0  0  0  0  0  0  0  0  0
   -4.5298    7.7816   -0.1364 H   0  0  0  0  0  0  0  0  0  0  0  0
   -4.8606    8.7567   -1.6470 H   0  0  0  0  0  0  0  0  0  0  0  0
   -4.4736    6.1279   -2.5365 H   0  0  0  0  0  0  0  0  0  0  0  0
   -5.4976    5.9958   -1.0462 H   0  0  0  0  0  0  0  0  0  0  0  0
   -5.9932    6.6056   -3.5396 H   0  0  0  0  0  0  0  0  0  0  0  0
   -7.4588    7.5960    0.0526 H   0  0  0  0  0  0  0  0  0  0  0  0
   -9.0820    6.9619   -0.3833 H   0  0  0  0  0  0  0  0  0  0  0  0
   -7.6594    5.8650   -0.3833 H   0  0  0  0  0  0  0  0  0  0  0  0
   -9.8565    7.1587   -2.3440 H   0  0  0  0  0  0  0  0  0  0  0  0
   -8.9330    8.0845   -3.5755 H   0  0  0  0  0  0  0  0  0  0  0  0
   -8.8799    6.2890   -3.5755 H   0  0  0  0  0  0  0  0  0  0  0  0
   -2.6512    9.8343   -1.9974 H   0  0  0  0  0  0  0  0  0  0  0  0
   -3.6795   10.3706    0.1223 H   0  0  0  0  0  0  0  0  0  0  0  0
   -3.1516    8.8397    0.8534 H   0  0  0  0  0  0  0  0  0  0  0  0
   -1.9747   11.4001    1.3276 H   0  0  0  0  0  0  0  0  0  0  0  0
   -1.2142    9.8692    1.7539 H   0  0  0  0  0  0  0  0  0  0  0  0
   -1.4538   12.6796   -0.2705 H   0  0  0  0  0  0  0  0  0  0  0  0
   -0.3314   12.3152   -1.6248 H   0  0  0  0  0  0  0  0  0  0  0  0
   -1.9916   11.6292   -1.6248 H   0  0  0  0  0  0  0  0  0  0  0  0
    1.0328    9.9415    0.8506 H   0  0  0  0  0  0  0  0  0  0  0  0
    0.2638   12.2535    1.6919 H   0  0  0  0  0  0  0  0  0  0  0  0
    2.0421   11.7775    1.7050 H   0  0  0  0  0  0  0  0  0  0  0  0
    1.4998   14.2348    0.9279 H   0  0  0  0  0  0  0  0  0  0  0  0
    1.2290   12.0636   -2.4641 H   0  0  0  0  0  0  0  0  0  0  0  0
    4.2462   12.1391   -1.8416 H   0  0  0  0  0  0  0  0  0  0  0  0
    3.4406   11.3033   -3.2428 H   0  0  0  0  0  0  0  0  0  0  0  0
    4.4927   13.4416   -3.9077 H   0  0  0  0  0  0  0  0  0  0  0  0
    2.6993   13.4384   -4.1296 H   0  0  0  0  0  0  0  0  0  0  0  0
    3.3560   15.5476   -3.1896 H   0  0  0  0  0  0  0  0  0  0  0  0
    4.8290   13.8330   -1.4790 H   0  0  0  0  0  0  0  0  0  0  0  0
   -0.0178   15.1038   -1.9768 H   0  0  0  0  0  0  0  0  0  0  0  0
    1.0595   15.8149   -3.2259 H   0  0  0  0  0  0  0  0  0  0  0  0
    0.7273   14.0496   -3.2259 H   0  0  0  0  0  0  0  0  0  0  0  0
    2.1542   15.6028    0.3185 H   0  0  0  0  0  0  0  0  0  0  0  0
    3.1064   16.4896   -0.9199 H   0  0  0  0  0  0  0  0  0  0  0  0
    1.3132   16.5957   -0.9199 H   0  0  0  0  0  0  0  0  0  0  0  0
    3.1919   10.3183    0.7476 H   0  0  0  0  0  0  0  0  0  0  0  0
    3.5314    9.2741   -0.6740 H   0  0  0  0  0  0  0  0  0  0  0  0
    4.0596   10.9910   -0.6740 H   0  0  0  0  0  0  0  0  0  0  0  0
    2.0308    9.8081   -2.9572 H   0  0  0  0  0  0  0  0  0  0  0  0
    1.8513    8.6413   -1.5281 H   0  0  0  0  0  0  0  0  0  0  0  0
   -0.3308   10.2379   -2.8965 H   0  0  0  0  0  0  0  0  0  0  0  0
   -0.0984    8.4460   -2.8584 H   0  0  0  0  0  0  0  0  0  0  0  0
   -0.3656    8.2205    0.8605 H   0  0  0  0  0  0  0  0  0  0  0  0
   -0.9274    7.1739   -0.4869 H   0  0  0  0  0  0  0  0  0  0  0  0
    0.7508    7.8145   -0.4869 H   0  0  0  0  0  0  0  0  0  0  0  0
  1  2  1  0
  2  3  1  0
  3  4  1  0
  4  5  1  0
  5  6  1  0
  6  7  1  0
  7  8  1  0
  7  9  1  0
  2 10  1  0
 10 11  1  0
 11 12  1  0
 12 13  1  0
 13 14  1  6
 13 15  1  0
 15 16  1  0
 16 17  1  0
 17 18  2  0
 18 19  1  0
 19 20  1  0
 20 21  1  0
 21 22  1  0
 22 23  1  0
 22 24  1  0
 24 25  1  0
 24 26  1  0
 19 27  1  0
 27 28  1  1
 27 29  1  0
 29 30  1  0
 30 31  1  0
 31 32  1  1
  7  5  1  0
 31 10  1  0
 31 13  1  0
 27 15  1  0
 24 18  1  0
  1 33  1  0
  1 34  1  0
  1 35  1  0
  2 36  1  1
  3 37  1  0
  3 38  1  0
  4 39  1  0
  4 40  1  0
  5 41  1  6
  8 42  1  0
  8 43  1  0
  8 44  1  0
  9 45  1  0
  9 46  1  0
  9 47  1  0
 10 48  1  6
 11 49  1  0
 11 50  1  0
 12 51  1  0
 12 52  1  0
 14 53  1  0
 14 54  1  0
 14 55  1  0
 15 56  1  1
 16 57  1  0
 16 58  1  0
 17 59  1  0
 19 60  1  6
 20 61  1  0
 20 62  1  0
 21 63  1  0
 21 64  1  0
 22 65  1  6
 23 66  1  0
 25 67  1  0
 25 68  1  0
 25 69  1  0
 26 70  1  0
 26 71  1  0
 26 72  1  0
 28 73  1  0
 28 74  1  0
 28 75  1  0
 29 76  1  0
 29 77  1  0
 30 78  1  0
 30 79  1  0
 32 80  1  0
 32 81  1  0
 32 82  1  0
M  END
>  <meeko>  (8) 
{"is_sidechain": [false], "intermolecular_energy": 2.731, "internal_energy": -0.839}

$$$$
EPH_relaxed_0001_pdb2pqr_Repair_127_r2_0001_out
     RDKit          3D

 82 86  0  0  0  0  0  0  0  0999 V2000
    0.3930   17.7860   -0.1430 C   0  0  0  0  0  0  0  0  0  0  0  0
    1.2890   17.1130   -1.1860 C   0  0  2  0  0  0  0  0  0  0  0  0
    1.6120   18.0510   -2.3670 C   0  0  0  0  0  0  0  0  0  0  0  0
    3.1090   18.3010   -2.5620 C   0  0  0  0  0  0  0  0  0  0  0  0
    3.9240   17.0950   -2.2050 C   0  0  2  0  0  0  0  0  0  0  0  0
    5.0740   17.3680   -1.3940 O   0  0  0  0  0  0  0  0  0  0  0  0
    5.3350   16.8580   -2.7120 C   0  0  0  0  0  0  0  0  0  0  0  0
    6.0120   17.8360   -3.6200 C   0  0  0  0  0  0  0  0  0  0  0  0
    5.8650   15.4590   -2.7230 C   0  0  0  0  0  0  0  0  0  0  0  0
    0.6250   15.8410   -1.6990 C   0  0  1  0  0  0  0  0  0  0  0  0
    0.2040   15.9450   -3.1890 C   0  0  0  0  0  0  0  0  0  0  0  0
    0.4000   14.5370   -3.8090 C   0  0  0  0  0  0  0  0  0  0  0  0
    0.6050   13.6020   -2.5940 C   0  0  1  0  0  0  0  0  0  0  0  0
   -0.8340   13.3070   -2.0680 C   0  0  0  0  0  0  0  0  0  0  0  0
    1.4020   12.2840   -2.8640 C   0  0  2  0  0  0  0  0  0  0  0  0
    0.7450   11.3170   -3.8650 C   0  0  0  0  0  0  0  0  0  0  0  0
   -0.1750   10.3060   -3.2640 C   0  0  0  0  0  0  0  0  0  0  0  0
   -0.2460    9.9920   -1.9570 C   0  0  0  0  0  0  0  0  0  0  0  0
    0.7250   10.6110   -0.9440 C   0  0  1  0  0  0  0  0  0  0  0  0
    1.2840    9.5010   -0.0160 C   0  0  0  0  0  0  0  0  0  0  0  0
    0.1790    8.6890    0.6550 C   0  0  0  0  0  0  0  0  0  0  0  0
   -0.7310    8.0420   -0.3860 C   0  0  2  0  0  0  0  0  0  0  0  0
    0.0180    7.0570   -1.1050 O   0  0  0  0  0  0  0  0  0  0  0  0
   -1.3440    9.0640   -1.3830 C   0  0  0  0  0  0  0  0  0  0  0  0
   -2.3900    9.9420   -0.6520 C   0  0  0  0  0  0  0  0  0  0  0  0
   -2.1260    8.2660   -2.4630 C   0  0  0  0  0  0  0  0  0  0  0  0
    1.8700   11.5300   -1.5540 C   0  0  1  0  0  0  0  0  0  0  0  0
    3.0960   10.6550   -1.9580 C   0  0  0  0  0  0  0  0  0  0  0  0
    2.3800   12.5220   -0.4420 C   0  0  0  0  0  0  0  0  0  0  0  0
    1.6260   13.8580   -0.3050 C   0  0  0  0  0  0  0  0  0  0  0  0
    1.4630   14.5380   -1.6680 C   0  0  2  0  0  0  0  0  0  0  0  0
    2.8950   14.8670   -2.2120 C   0  0  0  0  0  0  0  0  0  0  0  0
    0.7434   17.5228    0.8660 H   0  0  0  0  0  0  0  0  0  0  0  0
    0.4353   18.8775   -0.2728 H   0  0  0  0  0  0  0  0  0  0  0  0
   -0.6435   17.4412   -0.2728 H   0  0  0  0  0  0  0  0  0  0  0  0
    2.2400   16.8634   -0.6927 H   0  0  0  0  0  0  0  0  0  0  0  0
    1.2123   17.6007   -3.2876 H   0  0  0  0  0  0  0  0  0  0  0  0
    1.1503   19.0235   -2.1409 H   0  0  0  0  0  0  0  0  0  0  0  0
    3.2933   18.5565   -3.6159 H   0  0  0  0  0  0  0  0  0  0  0  0
    3.4081   19.1255   -1.8981 H   0  0  0  0  0  0  0  0  0  0  0  0
    3.0255   16.4604   -2.2001 H   0  0  0  0  0  0  0  0  0  0  0  0
    6.5361   18.5931   -3.0181 H   0  0  0  0  0  0  0  0  0  0  0  0
    6.7373   17.3057   -4.2547 H   0  0  0  0  0  0  0  0  0  0  0  0
    5.2603   18.3281   -4.2547 H   0  0  0  0  0  0  0  0  0  0  0  0
    5.9976   15.1090   -1.6886 H   0  0  0  0  0  0  0  0  0  0  0  0
    5.1537   14.8015   -3.2442 H   0  0  0  0  0  0  0  0  0  0  0  0
    6.8334   15.4379   -3.2442 H   0  0  0  0  0  0  0  0  0  0  0  0
   -0.2090   15.7690   -0.9854 H   0  0  0  0  0  0  0  0  0  0  0  0
   -0.8506   16.2485   -3.2643 H   0  0  0  0  0  0  0  0  0  0  0  0
    0.8076   16.6970   -3.7183 H   0  0  0  0  0  0  0  0  0  0  0  0
   -0.4892   14.2382   -4.3835 H   0  0  0  0  0  0  0  0  0  0  0  0
    1.2475   14.5034   -4.5094 H   0  0  0  0  0  0  0  0  0  0  0  0
   -0.8297   13.3079   -0.9680 H   0  0  0  0  0  0  0  0  0  0  0  0
   -1.5238   14.0824   -2.4326 H   0  0  0  0  0  0  0  0  0  0  0  0
   -1.1631   12.3227   -2.4326 H   0  0  0  0  0  0  0  0  0  0  0  0
    2.3106   12.6554   -3.3605 H   0  0  0  0  0  0  0  0  0  0  0  0
    0.1688   11.9145   -4.5868 H   0  0  0  0  0  0  0  0  0  0  0  0
    1.5671   10.7470   -4.3224 H   0  0  0  0  0  0  0  0  0  0  0  0
   -0.8522    9.7726   -3.9473 H   0  0  0  0  0  0  0  0  0  0  0  0
    0.1333   11.3267   -0.3544 H   0  0  0  0  0  0  0  0  0  0  0  0
    1.9073    8.8210   -0.6152 H   0  0  0  0  0  0  0  0  0  0  0  0
    1.8676    9.9909    0.7773 H   0  0  0  0  0  0  0  0  0  0  0  0
    0.6354    7.9019    1.2732 H   0  0  0  0  0  0  0  0  0  0  0  0
   -0.4250    9.3653    1.2778 H   0  0  0  0  0  0  0  0  0  0  0  0
   -1.5745    7.5844    0.1517 H   0  0  0  0  0  0  0  0  0  0  0  0
    0.8590    6.9260   -0.6340 H   0  0  0  0  0  0  0  0  0  0  0  0
   -2.2627    9.8352    0.4354 H   0  0  0  0  0  0  0  0  0  0  0  0
   -2.2476   10.9951   -0.9361 H   0  0  0  0  0  0  0  0  0  0  0  0
   -3.4025    9.6192   -0.9361 H   0  0  0  0  0  0  0  0  0  0  0  0
   -2.8150    7.5629   -1.9722 H   0  0  0  0  0  0  0  0  0  0  0  0
   -2.6998    8.9637   -3.0907 H   0  0  0  0  0  0  0  0  0  0  0  0
   -1.4168    7.7065   -3.0907 H   0  0  0  0  0  0  0  0  0  0  0  0
    3.6029   10.2932   -1.0513 H   0  0  0  0  0  0  0  0  0  0  0  0
    2.7532    9.7963   -2.5538 H   0  0  0  0  0  0  0  0  0  0  0  0
    3.7967   11.2584   -2.5538 H   0  0  0  0  0  0  0  0  0  0  0  0
    2.3130   12.0013    0.5247 H   0  0  0  0  0  0  0  0  0  0  0  0
    3.4003   12.7971   -0.7474 H   0  0  0  0  0  0  0  0  0  0  0  0
    0.6309   13.6673    0.1233 H   0  0  0  0  0  0  0  0  0  0  0  0
    2.2068   14.5228    0.3514 H   0  0  0  0  0  0  0  0  0  0  0  0
    3.5811   15.0246   -1.3667 H   0  0  0  0  0  0  0  0  0  0  0  0
    3.2558   14.0283   -2.8256 H   0  0  0  0  0  0  0  0  0  0  0  0
    2.8535   15.7790   -2.8256 H   0  0  0  0  0  0  0  0  0  0  0  0
  1  2  1  0
  2  3  1  0
  3  4  1  0
  4  5  1  0
  5  6  1  0
  6  7  1  0
  7  8  1  0
  7  9  1  0
  2 10  1  0
 10 11  1  0
 11 12  1  0
 12 13  1  0
 13 14  1  1
 13 15  1  0
 15 16  1  0
 16 17  1  0
 17 18  2  0
 18 19  1  0
 19 20  1  0
 20 21  1  0
 21 22  1  0
 22 23  1  0
 22 24  1  0
 24 25  1  0
 24 26  1  0
 19 27  1  0
 27 28  1  6
 27 29  1  0
 29 30  1  0
 30 31  1  0
 31 32  1  6
  7  5  1  0
 31 10  1  0
 31 13  1  0
 27 15  1  0
 24 18  1  0
  1 33  1  0
  1 34  1  0
  1 35  1  0
  2 36  1  1
  3 37  1  0
  3 38  1  0
  4 39  1  0
  4 40  1  0
  5 41  1  1
  8 42  1  0
  8 43  1  0
  8 44  1  0
  9 45  1  0
  9 46  1  0
  9 47  1  0
 10 48  1  1
 11 49  1  0
 11 50  1  0
 12 51  1  0
 12 52  1  0
 14 53  1  0
 14 54  1  0
 14 55  1  0
 15 56  1  6
 16 57  1  0
 16 58  1  0
 17 59  1  0
 19 60  1  1
 20 61  1  0
 20 62  1  0
 21 63  1  0
 21 64  1  0
 22 65  1  1
 23 66  1  0
 25 67  1  0
 25 68  1  0
 25 69  1  0
 26 70  1  0
 26 71  1  0
 26 72  1  0
 28 73  1  0
 28 74  1  0
 28 75  1  0
 29 76  1  0
 29 77  1  0
 30 78  1  0
 30 79  1  0
 32 80  1  0
 32 81  1  0
 32 82  1  0
M  END
>  <meeko>  (9) 
{"is_sidechain": [false], "intermolecular_energy": 2.731, "internal_energy": -0.839}

$$$$
EPH_relaxed_0001_pdb2pqr_Repair_127_r2_0001_out
     RDKit          3D

 82 86  0  0  0  0  0  0  0  0999 V2000
    4.5120   17.4050   -2.3840 C   0  0  0  0  0  0  0  0  0  0  0  0
    3.0600   16.9860   -2.1370 C   0  0  2  0  0  0  0  0  0  0  0  0
    2.5610   17.4150   -0.7430 C   0  0  0  0  0  0  0  0  0  0  0  0
    3.6770   17.8930    0.1900 C   0  0  0  0  0  0  0  0  0  0  0  0
    3.1570   18.8200    1.2460 C   0  0  2  0  0  0  0  0  0  0  0  0
    3.5280   20.1940    1.0720 O   0  0  0  0  0  0  0  0  0  0  0  0
    4.0500   19.5410    2.2400 C   0  0  0  0  0  0  0  0  0  0  0  0
    5.5360   19.3640    2.2250 C   0  0  0  0  0  0  0  0  0  0  0  0
    3.4480   20.0260    3.5220 C   0  0  0  0  0  0  0  0  0  0  0  0
    2.9200   15.4770   -2.2990 C   0  0  1  0  0  0  0  0  0  0  0  0
    4.2810   14.7750   -2.5540 C   0  0  0  0  0  0  0  0  0  0  0  0
    4.2110   13.3950   -1.8510 C   0  0  0  0  0  0  0  0  0  0  0  0
    2.7150   13.2100   -1.5030 C   0  0  1  0  0  0  0  0  0  0  0  0
    2.0540   12.7100   -2.8260 C   0  0  0  0  0  0  0  0  0  0  0  0
    2.3970   12.2590   -0.3030 C   0  0  2  0  0  0  0  0  0  0  0  0
    2.8310   10.7950   -0.4980 C   0  0  0  0  0  0  0  0  0  0  0  0
    1.8040    9.9030   -1.1140 C   0  0  0  0  0  0  0  0  0  0  0  0
    0.4930   10.1840   -1.2340 C   0  0  0  0  0  0  0  0  0  0  0  0
   -0.0940   11.4680   -0.6340 C   0  0  1  0  0  0  0  0  0  0  0  0
   -1.3980   11.1310    0.1350 C   0  0  0  0  0  0  0  0  0  0  0  0
   -2.4060   10.3740   -0.7250 C   0  0  0  0  0  0  0  0  0  0  0  0
   -1.8040    9.0760   -1.2550 C   0  0  2  0  0  0  0  0  0  0  0  0
   -1.5730    8.1910   -0.1540 O   0  0  0  0  0  0  0  0  0  0  0  0
   -0.4800    9.2900   -2.0400 C   0  0  0  0  0  0  0  0  0  0  0  0
   -0.7810    9.9900   -3.3880 C   0  0  0  0  0  0  0  0  0  0  0  0
    0.0950    7.8920   -2.3970 C   0  0  0  0  0  0  0  0  0  0  0  0
    0.9080   12.3550    0.2240 C   0  0  1  0  0  0  0  0  0  0  0  0
    0.9260   11.8590    1.7020 C   0  0  0  0  0  0  0  0  0  0  0  0
    0.3810   13.8380    0.2590 C   0  0  0  0  0  0  0  0  0  0  0  0
    0.8270   14.7620   -0.8910 C   0  0  0  0  0  0  0  0  0  0  0  0
    2.3420   14.6830   -1.1010 C   0  0  2  0  0  0  0  0  0  0  0  0
    3.0340   15.2010    0.2060 C   0  0  0  0  0  0  0  0  0  0  0  0
    5.0204   17.5517   -1.4196 H   0  0  0  0  0  0  0  0  0  0  0  0
    5.0283   16.6192   -2.9549 H   0  0  0  0  0  0  0  0  0  0  0  0
    4.5303   18.3451   -2.9549 H   0  0  0  0  0  0  0  0  0  0  0  0
    2.4358   17.4995   -2.8831 H   0  0  0  0  0  0  0  0  0  0  0  0
    1.8392   18.2353   -0.8698 H   0  0  0  0  0  0  0  0  0  0  0  0
    2.1097   16.5273   -0.2759 H   0  0  0  0  0  0  0  0  0  0  0  0
    4.1338   17.0186    0.6766 H   0  0  0  0  0  0  0  0  0  0  0  0
    4.4171   18.4401   -0.4125 H   0  0  0  0  0  0  0  0  0  0  0  0
    2.2546   18.2044    1.3756 H   0  0  0  0  0  0  0  0  0  0  0  0
    5.9104   19.3194    3.2584 H   0  0  0  0  0  0  0  0  0  0  0  0
    5.7887   18.4294    1.7028 H   0  0  0  0  0  0  0  0  0  0  0  0
    6.0011   20.2131    1.7028 H   0  0  0  0  0  0  0  0  0  0  0  0
    3.9921   19.5876    4.3715 H   0  0  0  0  0  0  0  0  0  0  0  0
    3.5182   21.1228    3.5682 H   0  0  0  0  0  0  0  0  0  0  0  0
    2.3913   19.7240    3.5682 H   0  0  0  0  0  0  0  0  0  0  0  0
    2.2166   15.4471   -3.1442 H   0  0  0  0  0  0  0  0  0  0  0  0
    4.4423   14.6422   -3.6340 H   0  0  0  0  0  0  0  0  0  0  0  0
    5.1149   15.3760   -2.1623 H   0  0  0  0  0  0  0  0  0  0  0  0
    4.5542   12.5973   -2.5262 H   0  0  0  0  0  0  0  0  0  0  0  0
    4.8555   13.3470   -0.9609 H   0  0  0  0  0  0  0  0  0  0  0  0
    1.1978   12.0624   -2.5861 H   0  0  0  0  0  0  0  0  0  0  0  0
    1.7074   13.5740   -3.4120 H   0  0  0  0  0  0  0  0  0  0  0  0
    2.7910   12.1414   -3.4120 H   0  0  0  0  0  0  0  0  0  0  0  0
    3.0430   12.6591    0.4923 H   0  0  0  0  0  0  0  0  0  0  0  0
    3.7204   10.7873   -1.1452 H   0  0  0  0  0  0  0  0  0  0  0  0
    3.0168   10.3953    0.5099 H   0  0  0  0  0  0  0  0  0  0  0  0
    2.1482    8.9334   -1.5030 H   0  0  0  0  0  0  0  0  0  0  0  0
   -0.3218   12.1246   -1.4866 H   0  0  0  0  0  0  0  0  0  0  0  0
   -1.1428   10.5111    1.0071 H   0  0  0  0  0  0  0  0  0  0  0  0
   -1.8631   12.0814    0.4358 H   0  0  0  0  0  0  0  0  0  0  0  0
   -3.2922   10.1382   -0.1176 H   0  0  0  0  0  0  0  0  0  0  0  0
   -2.6836   11.0074   -1.5804 H   0  0  0  0  0  0  0  0  0  0  0  0
   -2.5240    8.6454   -1.9664 H   0  0  0  0  0  0  0  0  0  0  0  0
   -0.6530    7.8840   -0.2110 H   0  0  0  0  0  0  0  0  0  0  0  0
   -1.2089   10.9852   -3.1969 H   0  0  0  0  0  0  0  0  0  0  0  0
    0.1511   10.0958   -3.9624 H   0  0  0  0  0  0  0  0  0  0  0  0
   -1.4991    9.3863   -3.9624 H   0  0  0  0  0  0  0  0  0  0  0  0
    0.3214    7.3415   -1.4720 H   0  0  0  0  0  0  0  0  0  0  0  0
   -0.6452    7.3306   -2.9859 H   0  0  0  0  0  0  0  0  0  0  0  0
    1.0160    8.0138   -2.9859 H   0  0  0  0  0  0  0  0  0  0  0  0
    0.8946   12.7248    2.3797 H   0  0  0  0  0  0  0  0  0  0  0  0
    0.0505   11.2185    1.8845 H   0  0  0  0  0  0  0  0  0  0  0  0
    1.8456   11.2837    1.8845 H   0  0  0  0  0  0  0  0  0  0  0  0
   -0.7183   13.8007    0.2485 H   0  0  0  0  0  0  0  0  0  0  0  0
    0.8191   14.2774    1.1673 H   0  0  0  0  0  0  0  0  0  0  0  0
    0.3188   14.4551   -1.8170 H   0  0  0  0  0  0  0  0  0  0  0  0
    0.5622   15.7977   -0.6318 H   0  0  0  0  0  0  0  0  0  0  0  0
    2.5034   14.8038    1.0839 H   0  0  0  0  0  0  0  0  0  0  0  0
    4.0804   14.8624    0.2258 H   0  0  0  0  0  0  0  0  0  0  0  0
    3.0040   16.3004    0.2258 H   0  0  0  0  0  0  0  0  0  0  0  0
  1  2  1  0
  2  3  1  0
  3  4  1  0
  4  5  1  0
  5  6  1  0
  6  7  1  0
  7  8  1  0
  7  9  1  0
  2 10  1  0
 10 11  1  0
 11 12  1  0
 12 13  1  0
 13 14  1  6
 13 15  1  0
 15 16  1  0
 16 17  1  0
 17 18  2  0
 18 19  1  0
 19 20  1  0
 20 21  1  0
 21 22  1  0
 22 23  1  0
 22 24  1  0
 24 25  1  0
 24 26  1  0
 19 27  1  0
 27 28  1  1
 27 29  1  0
 29 30  1  0
 30 31  1  0
 31 32  1  1
  7  5  1  0
 31 10  1  0
 31 13  1  0
 27 15  1  0
 24 18  1  0
  1 33  1  0
  1 34  1  0
  1 35  1  0
  2 36  1  6
  3 37  1  0
  3 38  1  0
  4 39  1  0
  4 40  1  0
  5 41  1  1
  8 42  1  0
  8 43  1  0
  8 44  1  0
  9 45  1  0
  9 46  1  0
  9 47  1  0
 10 48  1  6
 11 49  1  0
 11 50  1  0
 12 51  1  0
 12 52  1  0
 14 53  1  0
 14 54  1  0
 14 55  1  0
 15 56  1  1
 16 57  1  0
 16 58  1  0
 17 59  1  0
 19 60  1  6
 20 61  1  0
 20 62  1  0
 21 63  1  0
 21 64  1  0
 22 65  1  6
 23 66  1  0
 25 67  1  0
 25 68  1  0
 25 69  1  0
 26 70  1  0
 26 71  1  0
 26 72  1  0
 28 73  1  0
 28 74  1  0
 28 75  1  0
 29 76  1  0
 29 77  1  0
 30 78  1  0
 30 79  1  0
 32 80  1  0
 32 81  1  0
 32 82  1  0
M  END
>  <meeko>  (10) 
{"is_sidechain": [false], "intermolecular_energy": 2.731, "internal_energy": -0.839}

$$$$
EPH_relaxed_0001_pdb2pqr_Repair_127_r2_0001_out
     RDKit          3D

 82 86  0  0  0  0  0  0  0  0999 V2000
    2.2360   19.2960    0.0200 C   0  0  0  0  0  0  0  0  0  0  0  0
    2.8930   17.9380   -0.2430 C   0  0  2  0  0  0  0  0  0  0  0  0
    3.7020   17.9280   -1.5550 C   0  0  0  0  0  0  0  0  0  0  0  0
    5.1650   17.5130   -1.3740 C   0  0  0  0  0  0  0  0  0  0  0  0
    5.9790   17.8000   -2.5990 C   0  0  2  0  0  0  0  0  0  0  0  0
    5.2750   17.6380   -3.8370 O   0  0  0  0  0  0  0  0  0  0  0  0
    6.3730   16.7390   -3.6090 C   0  0  0  0  0  0  0  0  0  0  0  0
    5.9640   15.3100   -3.4390 C   0  0  0  0  0  0  0  0  0  0  0  0
    7.5540   16.9950   -4.4920 C   0  0  0  0  0  0  0  0  0  0  0  0
    1.8310   16.8450   -0.2780 C   0  0  1  0  0  0  0  0  0  0  0  0
    0.4230   17.3910   -0.6320 C   0  0  0  0  0  0  0  0  0  0  0  0
   -0.2850   16.2950   -1.4700 C   0  0  0  0  0  0  0  0  0  0  0  0
    0.5970   15.0370   -1.2910 C   0  0  1  0  0  0  0  0  0  0  0  0
    0.1680   14.4400    0.0860 C   0  0  0  0  0  0  0  0  0  0  0  0
    0.5210   13.9720   -2.4320 C   0  0  2  0  0  0  0  0  0  0  0  0
   -0.8620   13.3270   -2.6320 C   0  0  0  0  0  0  0  0  0  0  0  0
   -1.1080   12.0860   -1.8400 C   0  0  0  0  0  0  0  0  0  0  0  0
   -0.1640   11.3530   -1.2220 C   0  0  0  0  0  0  0  0  0  0  0  0
    1.3240   11.6990   -1.3690 C   0  0  1  0  0  0  0  0  0  0  0  0
    2.1290   10.4080   -1.6690 C   0  0  0  0  0  0  0  0  0  0  0  0
    1.8840    9.3120   -0.6360 C   0  0  0  0  0  0  0  0  0  0  0  0
    0.4020    8.9540   -0.5610 C   0  0  2  0  0  0  0  0  0  0  0  0
    0.0120    8.3450   -1.7960 O   0  0  0  0  0  0  0  0  0  0  0  0
   -0.5100   10.1790   -0.2720 C   0  0  0  0  0  0  0  0  0  0  0  0
   -0.2960   10.6550    1.1860 C   0  0  0  0  0  0  0  0  0  0  0  0
   -1.9860    9.7080   -0.3630 C   0  0  0  0  0  0  0  0  0  0  0  0
    1.6650   12.8790   -2.3770 C   0  0  1  0  0  0  0  0  0  0  0  0
    1.8140   12.3170   -3.8230 C   0  0  0  0  0  0  0  0  0  0  0  0
    3.0620   13.4950   -1.9930 C   0  0  0  0  0  0  0  0  0  0  0  0
    3.0590   14.6270   -0.9480 C   0  0  0  0  0  0  0  0  0  0  0  0
    2.0240   15.6980   -1.3020 C   0  0  2  0  0  0  0  0  0  0  0  0
    2.4420   16.3330   -2.6720 C   0  0  0  0  0  0  0  0  0  0  0  0
    2.1563   19.4608    1.1047 H   0  0  0  0  0  0  0  0  0  0  0  0
    2.8484   20.0925   -0.4279 H   0  0  0  0  0  0  0  0  0  0  0  0
    1.2314   19.3102   -0.4279 H   0  0  0  0  0  0  0  0  0  0  0  0
    3.5972   17.7466    0.5801 H   0  0  0  0  0  0  0  0  0  0  0  0
    3.2249   17.2230   -2.2516 H   0  0  0  0  0  0  0  0  0  0  0  0
    3.7058   18.9593   -1.9378 H   0  0  0  0  0  0  0  0  0  0  0  0
    5.5905   18.0684   -0.5252 H   0  0  0  0  0  0  0  0  0  0  0  0
    5.1933   16.4288   -1.1902 H   0  0  0  0  0  0  0  0  0  0  0  0
    6.5649   18.5594   -2.0604 H   0  0  0  0  0  0  0  0  0  0  0  0
    5.8962   15.0731   -2.3670 H   0  0  0  0  0  0  0  0  0  0  0  0
    4.9841   15.1503   -3.9125 H   0  0  0  0  0  0  0  0  0  0  0  0
    6.7110   14.6560   -3.9125 H   0  0  0  0  0  0  0  0  0  0  0  0
    8.4413   17.1873   -3.8710 H   0  0  0  0  0  0  0  0  0  0  0  0
    7.7346   16.1151   -5.1270 H   0  0  0  0  0  0  0  0  0  0  0  0
    7.3541   17.8707   -5.1270 H   0  0  0  0  0  0  0  0  0  0  0  0
    1.9333   16.4562    0.7459 H   0  0  0  0  0  0  0  0  0  0  0  0
   -0.1471   17.5924    0.2869 H   0  0  0  0  0  0  0  0  0  0  0  0
    0.4952   18.3332   -1.1950 H   0  0  0  0  0  0  0  0  0  0  0  0
   -1.3019   16.1134   -1.0920 H   0  0  0  0  0  0  0  0  0  0  0  0
   -0.3931   16.5820   -2.5264 H   0  0  0  0  0  0  0  0  0  0  0  0
    0.6011   15.0427    0.8979 H   0  0  0  0  0  0  0  0  0  0  0  0
   -0.9291   14.4524    0.1652 H   0  0  0  0  0  0  0  0  0  0  0  0
    0.5297   13.4042    0.1652 H   0  0  0  0  0  0  0  0  0  0  0  0
    0.7015   14.5784   -3.3318 H   0  0  0  0  0  0  0  0  0  0  0  0
   -1.6258   14.0668   -2.3504 H   0  0  0  0  0  0  0  0  0  0  0  0
   -0.9074   13.0269   -3.6893 H   0  0  0  0  0  0  0  0  0  0  0  0
   -2.1492   11.7415   -1.7543 H   0  0  0  0  0  0  0  0  0  0  0  0
    1.6361   12.1163   -0.4002 H   0  0  0  0  0  0  0  0  0  0  0  0
    1.8345   10.0311   -2.6595 H   0  0  0  0  0  0  0  0  0  0  0  0
    3.1979   10.6657   -1.6351 H   0  0  0  0  0  0  0  0  0  0  0  0
    2.4568    8.4164   -0.9187 H   0  0  0  0  0  0  0  0  0  0  0  0
    2.2065    9.6799    0.3492 H   0  0  0  0  0  0  0  0  0  0  0  0
    0.2723    8.2602    0.2827 H   0  0  0  0  0  0  0  0  0  0  0  0
    0.8220    8.0850   -2.2650 H   0  0  0  0  0  0  0  0  0  0  0  0
   -0.6457    9.8771    1.8807 H   0  0  0  0  0  0  0  0  0  0  0  0
    0.7740   10.8447    1.3565 H   0  0  0  0  0  0  0  0  0  0  0  0
   -0.8643   11.5813    1.3565 H   0  0  0  0  0  0  0  0  0  0  0  0
   -2.3926    9.5782    0.6508 H   0  0  0  0  0  0  0  0  0  0  0  0
   -2.5788   10.4616   -0.9022 H   0  0  0  0  0  0  0  0  0  0  0  0
   -2.0327    8.7503   -0.9022 H   0  0  0  0  0  0  0  0  0  0  0  0
    2.0956   11.2547   -3.7763 H   0  0  0  0  0  0  0  0  0  0  0  0
    0.8576   12.4197   -4.3566 H   0  0  0  0  0  0  0  0  0  0  0  0
    2.5939   12.8800   -4.3566 H   0  0  0  0  0  0  0  0  0  0  0  0
    3.6878   12.6805   -1.5994 H   0  0  0  0  0  0  0  0  0  0  0  0
    3.4360   13.9584   -2.9179 H   0  0  0  0  0  0  0  0  0  0  0  0
    2.8170   14.2051    0.0386 H   0  0  0  0  0  0  0  0  0  0  0  0
    4.0551   15.0935   -0.9339 H   0  0  0  0  0  0  0  0  0  0  0  0
    3.0384   17.2391   -2.4894 H   0  0  0  0  0  0  0  0  0  0  0  0
    3.0407   15.6091   -3.2442 H   0  0  0  0  0  0  0  0  0  0  0  0
    1.5403   16.5967   -3.2442 H   0  0  0  0  0  0  0  0  0  0  0  0
  1  2  1  0
  2  3  1  0
  3  4  1  0
  4  5  1  0
  5  6  1  0
  6  7  1  0
  7  8  1  0
  7  9  1  0
  2 10  1  0
 10 11  1  0
 11 12  1  0
 12 13  1  0
 13 14  1  1
 13 15  1  0
 15 16  1  0
 16 17  1  0
 17 18  2  0
 18 19  1  0
 19 20  1  0
 20 21  1  0
 21 22  1  0
 22 23  1  0
 22 24  1  0
 24 25  1  0
 24 26  1  0
 19 27  1  0
 27 28  1  6
 27 29  1  0
 29 30  1  0
 30 31  1  0
 31 32  1  6
  7  5  1  0
 31 10  1  0
 31 13  1  0
 27 15  1  0
 24 18  1  0
  1 33  1  0
  1 34  1  0
  1 35  1  0
  2 36  1  1
  3 37  1  0
  3 38  1  0
  4 39  1  0
  4 40  1  0
  5 41  1  1
  8 42  1  0
  8 43  1  0
  8 44  1  0
  9 45  1  0
  9 46  1  0
  9 47  1  0
 10 48  1  1
 11 49  1  0
 11 50  1  0
 12 51  1  0
 12 52  1  0
 14 53  1  0
 14 54  1  0
 14 55  1  0
 15 56  1  6
 16 57  1  0
 16 58  1  0
 17 59  1  0
 19 60  1  1
 20 61  1  0
 20 62  1  0
 21 63  1  0
 21 64  1  0
 22 65  1  1
 23 66  1  0
 25 67  1  0
 25 68  1  0
 25 69  1  0
 26 70  1  0
 26 71  1  0
 26 72  1  0
 28 73  1  0
 28 74  1  0
 28 75  1  0
 29 76  1  0
 29 77  1  0
 30 78  1  0
 30 79  1  0
 32 80  1  0
 32 81  1  0
 32 82  1  0
M  END
>  <meeko>  (11) 
{"is_sidechain": [false], "intermolecular_energy": 2.731, "internal_energy": -0.839}

$$$$
EPH_relaxed_0001_pdb2pqr_Repair_127_r2_0001_out
     RDKit          3D

 82 86  0  0  0  0  0  0  0  0999 V2000
    0.4320    8.9510   -2.4790 C   0  0  0  0  0  0  0  0  0  0  0  0
    1.1970   10.1060   -3.1320 C   0  0  2  0  0  0  0  0  0  0  0  0
    2.6930   10.0970   -2.7590 C   0  0  0  0  0  0  0  0  0  0  0  0
    3.6120   10.5620   -3.8920 C   0  0  0  0  0  0  0  0  0  0  0  0
    5.0020   10.8350   -3.4010 C   0  0  2  0  0  0  0  0  0  0  0  0
    5.5710   12.0640   -3.8690 O   0  0  0  0  0  0  0  0  0  0  0  0
    6.2190   10.8590   -4.3060 C   0  0  0  0  0  0  0  0  0  0  0  0
    6.1030   10.6050   -5.7770 C   0  0  0  0  0  0  0  0  0  0  0  0
    7.5690   10.6440   -3.6960 C   0  0  0  0  0  0  0  0  0  0  0  0
    0.5680   11.4360   -2.7340 C   0  0  1  0  0  0  0  0  0  0  0  0
   -0.6930   11.2590   -1.8460 C   0  0  0  0  0  0  0  0  0  0  0  0
   -0.7030   12.4410   -0.8430 C   0  0  0  0  0  0  0  0  0  0  0  0
    0.3520   13.4290   -1.3920 C   0  0  1  0  0  0  0  0  0  0  0  0
   -0.3850   14.2160   -2.5200 C   0  0  0  0  0  0  0  0  0  0  0  0
    1.0070   14.3920   -0.3490 C   0  0  2  0  0  0  0  0  0  0  0  0
    0.0350   15.3640    0.3420 C   0  0  0  0  0  0  0  0  0  0  0  0
   -0.1440   16.6790   -0.3410 C   0  0  0  0  0  0  0  0  0  0  0  0
    0.6580   17.1780   -1.3000 C   0  0  0  0  0  0  0  0  0  0  0  0
    1.9350   16.4400   -1.7220 C   0  0  1  0  0  0  0  0  0  0  0  0
    3.1130   17.4460   -1.8000 C   0  0  0  0  0  0  0  0  0  0  0  0
    2.8040   18.6390   -2.7000 C   0  0  0  0  0  0  0  0  0  0  0  0
    1.5620   19.3810   -2.2140 C   0  0  2  0  0  0  0  0  0  0  0  0
    1.8500   19.9820   -0.9480 O   0  0  0  0  0  0  0  0  0  0  0  0
    0.3120   18.4660   -2.0870 C   0  0  0  0  0  0  0  0  0  0  0  0
   -0.1800   18.0570   -3.4970 C   0  0  0  0  0  0  0  0  0  0  0  0
   -0.8310   19.3050   -1.4550 C   0  0  0  0  0  0  0  0  0  0  0  0
    2.2960   15.1420   -0.8780 C   0  0  1  0  0  0  0  0  0  0  0  0
    3.1280   15.5390    0.3790 C   0  0  0  0  0  0  0  0  0  0  0  0
    3.2190   14.2060   -1.7450 C   0  0  0  0  0  0  0  0  0  0  0  0
    2.5130   13.1940   -2.6670 C   0  0  0  0  0  0  0  0  0  0  0  0
    1.4380   12.4140   -1.9040 C   0  0  2  0  0  0  0  0  0  0  0  0
    2.1530   11.5940   -0.7770 C   0  0  0  0  0  0  0  0  0  0  0  0
    0.4930    9.0431   -1.3846 H   0  0  0  0  0  0  0  0  0  0  0  0
   -0.6220    8.9861   -2.7917 H   0  0  0  0  0  0  0  0  0  0  0  0
    0.8756    7.9942   -2.7917 H   0  0  0  0  0  0  0  0  0  0  0  0
    1.1289    9.9739   -4.2219 H   0  0  0  0  0  0  0  0  0  0  0  0
    2.8400   10.7638   -1.8966 H   0  0  0  0  0  0  0  0  0  0  0  0
    2.9622    9.0545   -2.5337 H   0  0  0  0  0  0  0  0  0  0  0  0
    3.6535    9.7777   -4.6622 H   0  0  0  0  0  0  0  0  0  0  0  0
    3.2036   11.4968   -4.3034 H   0  0  0  0  0  0  0  0  0  0  0  0
    4.7961   10.3122   -2.4553 H   0  0  0  0  0  0  0  0  0  0  0  0
    5.6513    9.6160   -5.9438 H   0  0  0  0  0  0  0  0  0  0  0  0
    5.4692   11.3793   -6.2339 H   0  0  0  0  0  0  0  0  0  0  0  0
    7.1032   10.6331   -6.2339 H   0  0  0  0  0  0  0  0  0  0  0  0
    7.4823   10.6578   -2.5995 H   0  0  0  0  0  0  0  0  0  0  0  0
    7.9671    9.6711   -4.0201 H   0  0  0  0  0  0  0  0  0  0  0  0
    8.2496   11.4451   -4.0201 H   0  0  0  0  0  0  0  0  0  0  0  0
    0.3772   11.8557   -3.7327 H   0  0  0  0  0  0  0  0  0  0  0  0
   -1.6003   11.2819   -2.4675 H   0  0  0  0  0  0  0  0  0  0  0  0
   -0.6726   10.2938   -1.3188 H   0  0  0  0  0  0  0  0  0  0  0  0
   -1.6961   12.9129   -0.8091 H   0  0  0  0  0  0  0  0  0  0  0  0
   -0.4768   12.1180    0.1839 H   0  0  0  0  0  0  0  0  0  0  0  0
   -1.0706   14.9481   -2.0685 H   0  0  0  0  0  0  0  0  0  0  0  0
    0.3536   14.7412   -3.1434 H   0  0  0  0  0  0  0  0  0  0  0  0
   -0.9575   13.5134   -3.1434 H   0  0  0  0  0  0  0  0  0  0  0  0
    1.3421   13.6969    0.4349 H   0  0  0  0  0  0  0  0  0  0  0  0
   -0.9487   14.8755    0.4023 H   0  0  0  0  0  0  0  0  0  0  0  0
    0.4760   15.5886    1.3244 H   0  0  0  0  0  0  0  0  0  0  0  0
   -1.0042   17.2923   -0.0347 H   0  0  0  0  0  0  0  0  0  0  0  0
    1.7313   16.0261   -2.7206 H   0  0  0  0  0  0  0  0  0  0  0  0
    3.3293   17.8152   -0.7866 H   0  0  0  0  0  0  0  0  0  0  0  0
    3.9762   16.9172   -2.2305 H   0  0  0  0  0  0  0  0  0  0  0  0
    3.6614   19.3280   -2.6916 H   0  0  0  0  0  0  0  0  0  0  0  0
    2.6168   18.2708   -3.7195 H   0  0  0  0  0  0  0  0  0  0  0  0
    1.3166   20.1431   -2.9683 H   0  0  0  0  0  0  0  0  0  0  0  0
    2.3170   20.8180   -1.1180 H   0  0  0  0  0  0  0  0  0  0  0  0
   -1.0228   17.3564   -3.4024 H   0  0  0  0  0  0  0  0  0  0  0  0
   -0.5075   18.9527   -4.0452 H   0  0  0  0  0  0  0  0  0  0  0  0
    0.6408   17.5713   -4.0452 H   0  0  0  0  0  0  0  0  0  0  0  0
   -0.7606   19.2533   -0.3585 H   0  0  0  0  0  0  0  0  0  0  0  0
   -0.7397   20.3521   -1.7793 H   0  0  0  0  0  0  0  0  0  0  0  0
   -1.8026   18.9041   -1.7793 H   0  0  0  0  0  0  0  0  0  0  0  0
    2.5689   15.2722    1.2880 H   0  0  0  0  0  0  0  0  0  0  0  0
    4.0879   15.0019    0.3680 H   0  0  0  0  0  0  0  0  0  0  0  0
    3.3143   16.6231    0.3680 H   0  0  0  0  0  0  0  0  0  0  0  0
    3.8463   14.8511   -2.3777 H   0  0  0  0  0  0  0  0  0  0  0  0
    3.7726   13.5944   -1.0174 H   0  0  0  0  0  0  0  0  0  0  0  0
    2.0415   13.7349   -3.5007 H   0  0  0  0  0  0  0  0  0  0  0  0
    3.2616   12.4818   -3.0443 H   0  0  0  0  0  0  0  0  0  0  0  0
    1.8300   11.9644    0.2071 H   0  0  0  0  0  0  0  0  0  0  0  0
    1.8886   10.5306   -0.8733 H   0  0  0  0  0  0  0  0  0  0  0  0
    3.2425   11.7111   -0.8733 H   0  0  0  0  0  0  0  0  0  0  0  0
  1  2  1  0
  2  3  1  0
  3  4  1  0
  4  5  1  0
  5  6  1  0
  6  7  1  0
  7  8  1  0
  7  9  1  0
  2 10  1  0
 10 11  1  0
 11 12  1  0
 12 13  1  0
 13 14  1  6
 13 15  1  0
 15 16  1  0
 16 17  1  0
 17 18  2  0
 18 19  1  0
 19 20  1  0
 20 21  1  0
 21 22  1  0
 22 23  1  0
 22 24  1  0
 24 25  1  0
 24 26  1  0
 19 27  1  0
 27 28  1  1
 27 29  1  0
 29 30  1  0
 30 31  1  0
 31 32  1  1
  7  5  1  0
 31 10  1  0
 31 13  1  0
 27 15  1  0
 24 18  1  0
  1 33  1  0
  1 34  1  0
  1 35  1  0
  2 36  1  6
  3 37  1  0
  3 38  1  0
  4 39  1  0
  4 40  1  0
  5 41  1  1
  8 42  1  0
  8 43  1  0
  8 44  1  0
  9 45  1  0
  9 46  1  0
  9 47  1  0
 10 48  1  6
 11 49  1  0
 11 50  1  0
 12 51  1  0
 12 52  1  0
 14 53  1  0
 14 54  1  0
 14 55  1  0
 15 56  1  1
 16 57  1  0
 16 58  1  0
 17 59  1  0
 19 60  1  6
 20 61  1  0
 20 62  1  0
 21 63  1  0
 21 64  1  0
 22 65  1  6
 23 66  1  0
 25 67  1  0
 25 68  1  0
 25 69  1  0
 26 70  1  0
 26 71  1  0
 26 72  1  0
 28 73  1  0
 28 74  1  0
 28 75  1  0
 29 76  1  0
 29 77  1  0
 30 78  1  0
 30 79  1  0
 32 80  1  0
 32 81  1  0
 32 82  1  0
M  END
>  <meeko>  (12) 
{"is_sidechain": [false], "intermolecular_energy": 2.731, "internal_energy": -0.839}

$$$$
EPH_relaxed_0001_pdb2pqr_Repair_127_r2_0001_out
     RDKit          3D

 82 86  0  0  0  0  0  0  0  0999 V2000
   -0.0570   17.9620   -2.2290 C   0  0  0  0  0  0  0  0  0  0  0  0
   -0.0600   17.0130   -1.0280 C   0  0  2  0  0  0  0  0  0  0  0  0
    0.0040   17.7720    0.3130 C   0  0  0  0  0  0  0  0  0  0  0  0
    0.6960   19.1350    0.2150 C   0  0  0  0  0  0  0  0  0  0  0  0
    1.8900   19.2160    1.1170 C   0  0  2  0  0  0  0  0  0  0  0  0
    2.8650   20.1940    0.7330 O   0  0  0  0  0  0  0  0  0  0  0  0
    3.2920   18.8230    0.6870 C   0  0  0  0  0  0  0  0  0  0  0  0
    3.5720   18.3190   -0.6940 C   0  0  0  0  0  0  0  0  0  0  0  0
    4.2900   18.4660    1.7440 C   0  0  0  0  0  0  0  0  0  0  0  0
    1.1090   16.0400   -1.1310 C   0  0  1  0  0  0  0  0  0  0  0  0
    1.7260   15.6970    0.2510 C   0  0  0  0  0  0  0  0  0  0  0  0
    2.1790   14.2160    0.1840 C   0  0  0  0  0  0  0  0  0  0  0  0
    2.1170   13.8570   -1.3190 C   0  0  1  0  0  0  0  0  0  0  0  0
    3.4410   14.4220   -1.9220 C   0  0  0  0  0  0  0  0  0  0  0  0
    1.9260   12.3430   -1.6600 C   0  0  2  0  0  0  0  0  0  0  0  0
    3.0650   11.4200   -1.1910 C   0  0  0  0  0  0  0  0  0  0  0  0
    4.1670   11.2150   -2.1760 C   0  0  0  0  0  0  0  0  0  0  0  0
    4.1090   11.5150   -3.4870 C   0  0  0  0  0  0  0  0  0  0  0  0
    2.8110   12.0290   -4.1220 C   0  0  1  0  0  0  0  0  0  0  0  0
    2.5430   11.2660   -5.4450 C   0  0  0  0  0  0  0  0  0  0  0  0
    3.7260   11.3280   -6.4060 C   0  0  0  0  0  0  0  0  0  0  0  0
    4.9850   10.7540   -5.7600 C   0  0  2  0  0  0  0  0  0  0  0  0
    4.7970    9.3510   -5.5510 O   0  0  0  0  0  0  0  0  0  0  0  0
    5.3490   11.4400   -4.4130 C   0  0  0  0  0  0  0  0  0  0  0  0
    5.8440   12.8820   -4.6800 C   0  0  0  0  0  0  0  0  0  0  0  0
    6.5520   10.6750   -3.7980 C   0  0  0  0  0  0  0  0  0  0  0  0
    1.5390   12.0620   -3.1690 C   0  0  1  0  0  0  0  0  0  0  0  0
    0.8190   10.6790   -3.1930 C   0  0  0  0  0  0  0  0  0  0  0  0
    0.5060   13.1110   -3.7260 C   0  0  0  0  0  0  0  0  0  0  0  0
    0.6750   14.5690   -3.2580 C   0  0  0  0  0  0  0  0  0  0  0  0
    0.8200   14.6430   -1.7350 C   0  0  2  0  0  0  0  0  0  0  0  0
   -0.5060   14.1020   -1.1010 C   0  0  0  0  0  0  0  0  0  0  0  0
   -0.0537   19.0030   -1.8737 H   0  0  0  0  0  0  0  0  0  0  0  0
    0.8406   17.7796   -2.8382 H   0  0  0  0  0  0  0  0  0  0  0  0
   -0.9557   17.7853   -2.8382 H   0  0  0  0  0  0  0  0  0  0  0  0
   -1.0094   16.4578   -1.0483 H   0  0  0  0  0  0  0  0  0  0  0  0
   -1.0235   17.9290    0.6729 H   0  0  0  0  0  0  0  0  0  0  0  0
    0.6002   17.1569    1.0031 H   0  0  0  0  0  0  0  0  0  0  0  0
    1.0219   19.2956   -0.8233 H   0  0  0  0  0  0  0  0  0  0  0  0
   -0.0223   19.9077    0.5264 H   0  0  0  0  0  0  0  0  0  0  0  0
    1.2800   18.9367    1.9887 H   0  0  0  0  0  0  0  0  0  0  0  0
    4.1054   17.3589   -0.6328 H   0  0  0  0  0  0  0  0  0  0  0  0
    2.6231   18.1776   -1.2321 H   0  0  0  0  0  0  0  0  0  0  0  0
    4.1933   19.0500   -1.2321 H   0  0  0  0  0  0  0  0  0  0  0  0
    3.8449   18.6252    2.7373 H   0  0  0  0  0  0  0  0  0  0  0  0
    4.5767   17.4096    1.6357 H   0  0  0  0  0  0  0  0  0  0  0  0
    5.1817   19.1009    1.6357 H   0  0  0  0  0  0  0  0  0  0  0  0
    1.7658   16.6125   -1.8024 H   0  0  0  0  0  0  0  0  0  0  0  0
    2.5892   16.3483    0.4525 H   0  0  0  0  0  0  0  0  0  0  0  0
    0.9950   15.8500    1.0586 H   0  0  0  0  0  0  0  0  0  0  0  0
    3.2040   14.1056    0.5677 H   0  0  0  0  0  0  0  0  0  0  0  0
    1.5455   13.5578    0.7967 H   0  0  0  0  0  0  0  0  0  0  0  0
    4.1206   14.7120   -1.1071 H   0  0  0  0  0  0  0  0  0  0  0  0
    3.9203   13.6500   -2.5419 H   0  0  0  0  0  0  0  0  0  0  0  0
    3.2153   15.3022   -2.5419 H   0  0  0  0  0  0  0  0  0  0  0  0
    1.0513   12.0724   -1.0504 H   0  0  0  0  0  0  0  0  0  0  0  0
    3.5008   11.8545   -0.2792 H   0  0  0  0  0  0  0  0  0  0  0  0
    2.6097   10.4310   -1.0342 H   0  0  0  0  0  0  0  0  0  0  0  0
    5.1056   10.7824   -1.7992 H   0  0  0  0  0  0  0  0  0  0  0  0
    2.9785   13.0953   -4.3339 H   0  0  0  0  0  0  0  0  0  0  0  0
    2.3358   10.2119   -5.2084 H   0  0  0  0  0  0  0  0  0  0  0  0
    1.6856   11.7460   -5.9395 H   0  0  0  0  0  0  0  0  0  0  0  0
    3.4874   10.7463   -7.3086 H   0  0  0  0  0  0  0  0  0  0  0  0
    3.9131   12.3806   -6.6649 H   0  0  0  0  0  0  0  0  0  0  0  0
    5.8242   10.9440   -6.4453 H   0  0  0  0  0  0  0  0  0  0  0  0
    5.5720    9.0190   -5.0670 H   0  0  0  0  0  0  0  0  0  0  0  0
    6.0193   13.3928   -3.7217 H   0  0  0  0  0  0  0  0  0  0  0  0
    6.7817   12.8474   -5.2540 H   0  0  0  0  0  0  0  0  0  0  0  0
    5.0827   13.4306   -5.2540 H   0  0  0  0  0  0  0  0  0  0  0  0
    6.4895   10.7148   -2.7005 H   0  0  0  0  0  0  0  0  0  0  0  0
    6.5275    9.6262   -4.1289 H   0  0  0  0  0  0  0  0  0  0  0  0
    7.4914   11.1420   -4.1289 H   0  0  0  0  0  0  0  0  0  0  0  0
    0.6423   10.3397   -2.1617 H   0  0  0  0  0  0  0  0  0  0  0  0
   -0.1433   10.7756   -3.7171 H   0  0  0  0  0  0  0  0  0  0  0  0
    1.4500    9.9461   -3.7171 H   0  0  0  0  0  0  0  0  0  0  0  0
    0.5825   13.1028   -4.8233 H   0  0  0  0  0  0  0  0  0  0  0  0
   -0.4693   12.7928   -3.3292 H   0  0  0  0  0  0  0  0  0  0  0  0
    1.5746   14.9952   -3.7262 H   0  0  0  0  0  0  0  0  0  0  0  0
   -0.2191   15.1378   -3.5531 H   0  0  0  0  0  0  0  0  0  0  0  0
   -0.4277   14.1339   -0.0043 H   0  0  0  0  0  0  0  0  0  0  0  0
   -1.3501   14.7276   -1.4267 H   0  0  0  0  0  0  0  0  0  0  0  0
   -0.6715   13.0645   -1.4267 H   0  0  0  0  0  0  0  0  0  0  0  0
  1  2  1  0
  2  3  1  0
  3  4  1  0
  4  5  1  0
  5  6  1  0
  6  7  1  0
  7  8  1  0
  7  9  1  0
  2 10  1  0
 10 11  1  0
 11 12  1  0
 12 13  1  0
 13 14  1  6
 13 15  1  0
 15 16  1  0
 16 17  1  0
 17 18  2  0
 18 19  1  0
 19 20  1  0
 20 21  1  0
 21 22  1  0
 22 23  1  0
 22 24  1  0
 24 25  1  0
 24 26  1  0
 19 27  1  0
 27 28  1  1
 27 29  1  0
 29 30  1  0
 30 31  1  0
 31 32  1  1
  7  5  1  0
 31 10  1  0
 31 13  1  0
 27 15  1  0
 24 18  1  0
  1 33  1  0
  1 34  1  0
  1 35  1  0
  2 36  1  1
  3 37  1  0
  3 38  1  0
  4 39  1  0
  4 40  1  0
  5 41  1  1
  8 42  1  0
  8 43  1  0
  8 44  1  0
  9 45  1  0
  9 46  1  0
  9 47  1  0
 10 48  1  6
 11 49  1  0
 11 50  1  0
 12 51  1  0
 12 52  1  0
 14 53  1  0
 14 54  1  0
 14 55  1  0
 15 56  1  1
 16 57  1  0
 16 58  1  0
 17 59  1  0
 19 60  1  6
 20 61  1  0
 20 62  1  0
 21 63  1  0
 21 64  1  0
 22 65  1  6
 23 66  1  0
 25 67  1  0
 25 68  1  0
 25 69  1  0
 26 70  1  0
 26 71  1  0
 26 72  1  0
 28 73  1  0
 28 74  1  0
 28 75  1  0
 29 76  1  0
 29 77  1  0
 30 78  1  0
 30 79  1  0
 32 80  1  0
 32 81  1  0
 32 82  1  0
M  END
>  <meeko>  (13) 
{"is_sidechain": [false], "intermolecular_energy": 2.731, "internal_energy": -0.839}

$$$$
EPH_relaxed_0001_pdb2pqr_Repair_127_r2_0001_out
     RDKit          3D

 82 86  0  0  0  0  0  0  0  0999 V2000
   -5.1600    5.9000   -1.7600 C   0  0  0  0  0  0  0  0  0  0  0  0
   -5.4610    7.3990   -1.8500 C   0  0  2  0  0  0  0  0  0  0  0  0
   -5.2180    8.1210   -0.5100 C   0  0  0  0  0  0  0  0  0  0  0  0
   -4.2350    9.2910   -0.6110 C   0  0  0  0  0  0  0  0  0  0  0  0
   -2.8280    8.8580   -0.3280 C   0  0  2  0  0  0  0  0  0  0  0  0
   -2.1790    9.5840    0.7240 O   0  0  0  0  0  0  0  0  0  0  0  0
   -1.6160    9.7320   -0.5890 C   0  0  0  0  0  0  0  0  0  0  0  0
   -1.7540   11.1090   -1.1590 C   0  0  0  0  0  0  0  0  0  0  0  0
   -0.2810    9.0740   -0.7510 C   0  0  0  0  0  0  0  0  0  0  0  0
   -6.9010    7.6130   -2.3030 C   0  0  1  0  0  0  0  0  0  0  0  0
   -7.2140    6.9090   -3.6500 C   0  0  0  0  0  0  0  0  0  0  0  0
   -8.6850    6.4260   -3.5720 C   0  0  0  0  0  0  0  0  0  0  0  0
   -9.2670    7.1490   -2.3340 C   0  0  1  0  0  0  0  0  0  0  0  0
   -9.6320    8.5790   -2.8400 C   0  0  0  0  0  0  0  0  0  0  0  0
  -10.4830    6.4550   -1.6380 C   0  0  2  0  0  0  0  0  0  0  0  0
  -11.7430    6.3170   -2.5100 C   0  0  0  0  0  0  0  0  0  0  0  0
  -12.7040    7.4560   -2.4260 C   0  0  0  0  0  0  0  0  0  0  0  0
  -12.7070    8.4090   -1.4750 C   0  0  0  0  0  0  0  0  0  0  0  0
  -11.7330    8.3440   -0.2920 C   0  0  1  0  0  0  0  0  0  0  0  0
  -12.5010    8.6230    1.0270 C   0  0  0  0  0  0  0  0  0  0  0  0
  -13.2800    9.9340    0.9840 C   0  0  0  0  0  0  0  0  0  0  0  0
  -14.2790    9.9370   -0.1710 C   0  0  2  0  0  0  0  0  0  0  0  0
  -15.2870    8.9560    0.0900 O   0  0  0  0  0  0  0  0  0  0  0  0
  -13.6210    9.6560   -1.5510 C   0  0  0  0  0  0  0  0  0  0  0  0
  -12.7550   10.8690   -1.9710 C   0  0  0  0  0  0  0  0  0  0  0  0
  -14.7550    9.5470   -2.6060 C   0  0  0  0  0  0  0  0  0  0  0  0
  -10.8300    7.0380   -0.2080 C   0  0  1  0  0  0  0  0  0  0  0  0
  -11.5910    5.9140    0.5590 C   0  0  0  0  0  0  0  0  0  0  0  0
   -9.5410    7.3590    0.6370 C   0  0  0  0  0  0  0  0  0  0  0  0
   -8.3320    7.9300   -0.1290 C   0  0  0  0  0  0  0  0  0  0  0  0
   -8.0250    7.0910   -1.3730 C   0  0  2  0  0  0  0  0  0  0  0  0
   -7.6320    5.6520   -0.8940 C   0  0  0  0  0  0  0  0  0  0  0  0
   -5.0999    5.6009   -0.7032 H   0  0  0  0  0  0  0  0  0  0  0  0
   -5.9625    5.3344   -2.2561 H   0  0  0  0  0  0  0  0  0  0  0  0
   -4.2014    5.6881   -2.2561 H   0  0  0  0  0  0  0  0  0  0  0  0
   -4.7702    7.8320   -2.5884 H   0  0  0  0  0  0  0  0  0  0  0  0
   -6.1808    8.5069   -0.1437 H   0  0  0  0  0  0  0  0  0  0  0  0
   -4.7728    7.3851    0.1758 H   0  0  0  0  0  0  0  0  0  0  0  0
   -4.2818    9.7094   -1.6272 H   0  0  0  0  0  0  0  0  0  0  0  0
   -4.5197   10.0442    0.1385 H   0  0  0  0  0  0  0  0  0  0  0  0
   -3.0647    7.8214   -0.6099 H   0  0  0  0  0  0  0  0  0  0  0  0
   -1.8272   11.8393   -0.3397 H   0  0  0  0  0  0  0  0  0  0  0  0
   -0.8744   11.3394   -1.7781 H   0  0  0  0  0  0  0  0  0  0  0  0
   -2.6618   11.1603   -1.7781 H   0  0  0  0  0  0  0  0  0  0  0  0
    0.1466    8.8632    0.2403 H   0  0  0  0  0  0  0  0  0  0  0  0
   -0.4014    8.1320   -1.3062 H   0  0  0  0  0  0  0  0  0  0  0  0
    0.3927    9.7433   -1.3062 H   0  0  0  0  0  0  0  0  0  0  0  0
   -6.9215    8.7123   -2.3376 H   0  0  0  0  0  0  0  0  0  0  0  0
   -7.0912    7.6156   -4.4840 H   0  0  0  0  0  0  0  0  0  0  0  0
   -6.5301    6.0648   -3.8223 H   0  0  0  0  0  0  0  0  0  0  0  0
   -9.2355    6.7087   -4.4814 H   0  0  0  0  0  0  0  0  0  0  0  0
   -8.7614    5.3317   -3.4907 H   0  0  0  0  0  0  0  0  0  0  0  0
   -9.8010    9.2410   -1.9779 H   0  0  0  0  0  0  0  0  0  0  0  0
   -8.8059    8.9742   -3.4494 H   0  0  0  0  0  0  0  0  0  0  0  0
  -10.5464    8.5300   -3.4494 H   0  0  0  0  0  0  0  0  0  0  0  0
  -10.1136    5.4304   -1.4842 H   0  0  0  0  0  0  0  0  0  0  0  0
  -11.4223    6.2193   -3.5577 H   0  0  0  0  0  0  0  0  0  0  0  0
  -12.2811    5.4360   -2.1302 H   0  0  0  0  0  0  0  0  0  0  0  0
  -13.4753    7.5224   -3.2075 H   0  0  0  0  0  0  0  0  0  0  0  0
  -10.9899    9.1362   -0.4660 H   0  0  0  0  0  0  0  0  0  0  0  0
  -13.2074    7.7987    1.2049 H   0  0  0  0  0  0  0  0  0  0  0  0
  -11.7590    8.7017    1.8353 H   0  0  0  0  0  0  0  0  0  0  0  0
  -13.8245   10.0606    1.9314 H   0  0  0  0  0  0  0  0  0  0  0  0
  -12.5692   10.7603    0.8358 H   0  0  0  0  0  0  0  0  0  0  0  0
  -14.7123   10.9463   -0.2303 H   0  0  0  0  0  0  0  0  0  0  0  0
  -15.9860    9.3850    0.6130 H   0  0  0  0  0  0  0  0  0  0  0  0
  -12.3865   11.3852   -1.0722 H   0  0  0  0  0  0  0  0  0  0  0  0
  -11.9007   10.5199   -2.5696 H   0  0  0  0  0  0  0  0  0  0  0  0
  -13.3626   11.5636   -2.5696 H   0  0  0  0  0  0  0  0  0  0  0  0
  -15.7242    9.4538   -2.0942 H   0  0  0  0  0  0  0  0  0  0  0  0
  -14.7580   10.4490   -3.2356 H   0  0  0  0  0  0  0  0  0  0  0  0
  -14.5861    8.6609   -3.2356 H   0  0  0  0  0  0  0  0  0  0  0  0
  -11.4839    6.0721    1.6423 H   0  0  0  0  0  0  0  0  0  0  0  0
  -12.6567    5.9420    0.2879 H   0  0  0  0  0  0  0  0  0  0  0  0
  -11.1693    4.9349    0.2879 H   0  0  0  0  0  0  0  0  0  0  0  0
   -9.8224    8.0914    1.4080 H   0  0  0  0  0  0  0  0  0  0  0  0
   -9.2024    6.3872    1.0256 H   0  0  0  0  0  0  0  0  0  0  0  0
   -8.5561    8.9619   -0.4372 H   0  0  0  0  0  0  0  0  0  0  0  0
   -7.4546    7.9080    0.5341 H   0  0  0  0  0  0  0  0  0  0  0  0
   -7.6236    5.6211    0.2055 H   0  0  0  0  0  0  0  0  0  0  0  0
   -8.3647    4.9257   -1.2756 H   0  0  0  0  0  0  0  0  0  0  0  0
   -6.6318    5.3989   -1.2756 H   0  0  0  0  0  0  0  0  0  0  0  0
  1  2  1  0
  2  3  1  0
  3  4  1  0
  4  5  1  0
  5  6  1  0
  6  7  1  0
  7  8  1  0
  7  9  1  0
  2 10  1  0
 10 11  1  0
 11 12  1  0
 12 13  1  0
 13 14  1  6
 13 15  1  0
 15 16  1  0
 16 17  1  0
 17 18  2  0
 18 19  1  0
 19 20  1  0
 20 21  1  0
 21 22  1  0
 22 23  1  0
 22 24  1  0
 24 25  1  0
 24 26  1  0
 19 27  1  0
 27 28  1  1
 27 29  1  0
 29 30  1  0
 30 31  1  0
 31 32  1  1
  7  5  1  0
 31 10  1  0
 31 13  1  0
 27 15  1  0
 24 18  1  0
  1 33  1  0
  1 34  1  0
  1 35  1  0
  2 36  1  6
  3 37  1  0
  3 38  1  0
  4 39  1  0
  4 40  1  0
  5 41  1  1
  8 42  1  0
  8 43  1  0
  8 44  1  0
  9 45  1  0
  9 46  1  0
  9 47  1  0
 10 48  1  6
 11 49  1  0
 11 50  1  0
 12 51  1  0
 12 52  1  0
 14 53  1  0
 14 54  1  0
 14 55  1  0
 15 56  1  1
 16 57  1  0
 16 58  1  0
 17 59  1  0
 19 60  1  6
 20 61  1  0
 20 62  1  0
 21 63  1  0
 21 64  1  0
 22 65  1  6
 23 66  1  0
 25 67  1  0
 25 68  1  0
 25 69  1  0
 26 70  1  0
 26 71  1  0
 26 72  1  0
 28 73  1  0
 28 74  1  0
 28 75  1  0
 29 76  1  0
 29 77  1  0
 30 78  1  0
 30 79  1  0
 32 80  1  0
 32 81  1  0
 32 82  1  0
M  END
>  <meeko>  (14) 
{"is_sidechain": [false], "intermolecular_energy": 2.731, "internal_energy": -0.839}

$$$$
EPH_relaxed_0001_pdb2pqr_Repair_127_r2_0001_out
     RDKit          3D

 82 86  0  0  0  0  0  0  0  0999 V2000
   -1.1990   10.4090    1.6160 C   0  0  0  0  0  0  0  0  0  0  0  0
   -1.8710   10.1180    0.2710 C   0  0  2  0  0  0  0  0  0  0  0  0
   -2.6980    8.8180    0.3040 C   0  0  0  0  0  0  0  0  0  0  0  0
   -4.0510    8.9310   -0.4040 C   0  0  0  0  0  0  0  0  0  0  0  0
   -4.5710    7.5900   -0.8250 C   0  0  2  0  0  0  0  0  0  0  0  0
   -4.7390    7.4300   -2.2390 O   0  0  0  0  0  0  0  0  0  0  0  0
   -5.9380    7.3800   -1.4490 C   0  0  0  0  0  0  0  0  0  0  0  0
   -6.8710    8.5260   -1.6860 C   0  0  0  0  0  0  0  0  0  0  0  0
   -6.5560    6.0190   -1.3760 C   0  0  0  0  0  0  0  0  0  0  0  0
   -0.8180   10.0370   -0.8280 C   0  0  1  0  0  0  0  0  0  0  0  0
   -1.2690    9.1560   -2.0240 C   0  0  0  0  0  0  0  0  0  0  0  0
   -0.6760    9.8010   -3.3030 C   0  0  0  0  0  0  0  0  0  0  0  0
    0.3580   10.8250   -2.7810 C   0  0  1  0  0  0  0  0  0  0  0  0
    1.6330    9.9820   -2.4640 C   0  0  0  0  0  0  0  0  0  0  0  0
    0.6810   12.0250   -3.7290 C   0  0  2  0  0  0  0  0  0  0  0  0
    1.3140   11.6400   -5.0780 C   0  0  0  0  0  0  0  0  0  0  0  0
    2.8060   11.5910   -5.0920 C   0  0  0  0  0  0  0  0  0  0  0  0
    3.6140   12.1190   -4.1540 C   0  0  0  0  0  0  0  0  0  0  0  0
    3.0410   12.9320   -2.9860 C   0  0  1  0  0  0  0  0  0  0  0  0
    3.8670   14.2330   -2.8070 C   0  0  0  0  0  0  0  0  0  0  0  0
    5.3600   13.9610   -2.6510 C   0  0  0  0  0  0  0  0  0  0  0  0
    5.9050   13.2020   -3.8570 C   0  0  2  0  0  0  0  0  0  0  0  0
    5.8380   14.0520   -5.0060 O   0  0  0  0  0  0  0  0  0  0  0  0
    5.1440   11.8770   -4.1420 C   0  0  0  0  0  0  0  0  0  0  0  0
    5.4650   10.8440   -3.0340 C   0  0  0  0  0  0  0  0  0  0  0  0
    5.7000   11.2820   -5.4640 C   0  0  0  0  0  0  0  0  0  0  0  0
    1.4760   13.2050   -3.0340 C   0  0  1  0  0  0  0  0  0  0  0  0
    1.1840   14.4900   -3.8680 C   0  0  0  0  0  0  0  0  0  0  0  0
    0.9600   13.4960   -1.5750 C   0  0  0  0  0  0  0  0  0  0  0  0
    0.5430   12.2770   -0.7300 C   0  0  0  0  0  0  0  0  0  0  0  0
   -0.4030   11.3630   -1.5150 C   0  0  2  0  0  0  0  0  0  0  0  0
   -1.7040   12.1770   -1.8290 C   0  0  0  0  0  0  0  0  0  0  0  0
   -1.8739   10.1167    2.4339 H   0  0  0  0  0  0  0  0  0  0  0  0
   -0.2633    9.8355    1.6901 H   0  0  0  0  0  0  0  0  0  0  0  0
   -0.9771   11.4838    1.6901 H   0  0  0  0  0  0  0  0  0  0  0  0
   -2.5652   10.9452    0.0619 H   0  0  0  0  0  0  0  0  0  0  0  0
   -2.1155    8.0233   -0.1850 H   0  0  0  0  0  0  0  0  0  0  0  0
   -2.9059    8.5960    1.3611 H   0  0  0  0  0  0  0  0  0  0  0  0
   -4.7748    9.3943    0.2826 H   0  0  0  0  0  0  0  0  0  0  0  0
   -3.9149    9.5445   -1.3069 H   0  0  0  0  0  0  0  0  0  0  0  0
   -4.0632    7.1022    0.0201 H   0  0  0  0  0  0  0  0  0  0  0  0
   -7.2033    8.9341   -0.7201 H   0  0  0  0  0  0  0  0  0  0  0  0
   -6.3512    9.3101   -2.2561 H   0  0  0  0  0  0  0  0  0  0  0  0
   -7.7442    8.1760   -2.2561 H   0  0  0  0  0  0  0  0  0  0  0  0
   -6.6865    5.7316   -0.3223 H   0  0  0  0  0  0  0  0  0  0  0  0
   -7.5357    6.0338   -1.8760 H   0  0  0  0  0  0  0  0  0  0  0  0
   -5.9001    5.2912   -1.8760 H   0  0  0  0  0  0  0  0  0  0  0  0
    0.0244    9.6343   -0.2465 H   0  0  0  0  0  0  0  0  0  0  0  0
   -0.8875    8.1312   -1.9047 H   0  0  0  0  0  0  0  0  0  0  0  0
   -2.3661    9.1002   -2.0819 H   0  0  0  0  0  0  0  0  0  0  0  0
   -0.1871    9.0410   -3.9301 H   0  0  0  0  0  0  0  0  0  0  0  0
   -1.4485   10.2710   -3.9293 H   0  0  0  0  0  0  0  0  0  0  0  0
    1.7568    9.9001   -1.3741 H   0  0  0  0  0  0  0  0  0  0  0  0
    1.5250    8.9767   -2.8973 H   0  0  0  0  0  0  0  0  0  0  0  0
    2.5157   10.4751   -2.8973 H   0  0  0  0  0  0  0  0  0  0  0  0
   -0.3206   12.4115   -3.9684 H   0  0  0  0  0  0  0  0  0  0  0  0
    0.9387   10.6445   -5.3577 H   0  0  0  0  0  0  0  0  0  0  0  0
    1.0292   12.4332   -5.7849 H   0  0  0  0  0  0  0  0  0  0  0  0
    3.2853   11.0804   -5.9403 H   0  0  0  0  0  0  0  0  0  0  0  0
    3.1450   12.2978   -2.0933 H   0  0  0  0  0  0  0  0  0  0  0  0
    3.7152   14.8714   -3.6899 H   0  0  0  0  0  0  0  0  0  0  0  0
    3.5193   14.7254   -1.8869 H   0  0  0  0  0  0  0  0  0  0  0  0
    5.8926   14.9189   -2.5578 H   0  0  0  0  0  0  0  0  0  0  0  0
    5.5128   13.3468   -1.7513 H   0  0  0  0  0  0  0  0  0  0  0  0
    6.9446   12.9238   -3.6291 H   0  0  0  0  0  0  0  0  0  0  0  0
    6.2940   14.8820   -4.7850 H   0  0  0  0  0  0  0  0  0  0  0  0
    5.3208   11.3081   -2.0472 H   0  0  0  0  0  0  0  0  0  0  0  0
    4.7934    9.9785   -3.1339 H   0  0  0  0  0  0  0  0  0  0  0  0
    6.5088   10.5116   -3.1339 H   0  0  0  0  0  0  0  0  0  0  0  0
    6.4342   10.4963   -5.2323 H   0  0  0  0  0  0  0  0  0  0  0  0
    4.8736   10.8509   -6.0482 H   0  0  0  0  0  0  0  0  0  0  0  0
    6.1861   12.0773   -6.0482 H   0  0  0  0  0  0  0  0  0  0  0  0
    0.9924   15.3330   -3.1878 H   0  0  0  0  0  0  0  0  0  0  0  0
    2.0526   14.7207   -4.5023 H   0  0  0  0  0  0  0  0  0  0  0  0
    0.3010   14.3227   -4.5023 H   0  0  0  0  0  0  0  0  0  0  0  0
    1.7649   14.0158   -1.0348 H   0  0  0  0  0  0  0  0  0  0  0  0
    0.0394   14.0835   -1.7069 H   0  0  0  0  0  0  0  0  0  0  0  0
    1.4423   11.7087   -0.4500 H   0  0  0  0  0  0  0  0  0  0  0  0
    0.0188   12.6357    0.1681 H   0  0  0  0  0  0  0  0  0  0  0  0
   -2.1848   12.4778   -0.8865 H   0  0  0  0  0  0  0  0  0  0  0  0
   -1.4440   13.0738   -2.4105 H   0  0  0  0  0  0  0  0  0  0  0  0
   -2.3968   11.5510   -2.4105 H   0  0  0  0  0  0  0  0  0  0  0  0
  1  2  1  0
  2  3  1  0
  3  4  1  0
  4  5  1  0
  5  6  1  0
  6  7  1  0
  7  8  1  0
  7  9  1  0
  2 10  1  0
 10 11  1  0
 11 12  1  0
 12 13  1  0
 13 14  1  1
 13 15  1  0
 15 16  1  0
 16 17  1  0
 17 18  2  0
 18 19  1  0
 19 20  1  0
 20 21  1  0
 21 22  1  0
 22 23  1  0
 22 24  1  0
 24 25  1  0
 24 26  1  0
 19 27  1  0
 27 28  1  6
 27 29  1  0
 29 30  1  0
 30 31  1  0
 31 32  1  6
  7  5  1  0
 31 10  1  0
 31 13  1  0
 27 15  1  0
 24 18  1  0
  1 33  1  0
  1 34  1  0
  1 35  1  0
  2 36  1  6
  3 37  1  0
  3 38  1  0
  4 39  1  0
  4 40  1  0
  5 41  1  1
  8 42  1  0
  8 43  1  0
  8 44  1  0
  9 45  1  0
  9 46  1  0
  9 47  1  0
 10 48  1  1
 11 49  1  0
 11 50  1  0
 12 51  1  0
 12 52  1  0
 14 53  1  0
 14 54  1  0
 14 55  1  0
 15 56  1  6
 16 57  1  0
 16 58  1  0
 17 59  1  0
 19 60  1  1
 20 61  1  0
 20 62  1  0
 21 63  1  0
 21 64  1  0
 22 65  1  1
 23 66  1  0
 25 67  1  0
 25 68  1  0
 25 69  1  0
 26 70  1  0
 26 71  1  0
 26 72  1  0
 28 73  1  0
 28 74  1  0
 28 75  1  0
 29 76  1  0
 29 77  1  0
 30 78  1  0
 30 79  1  0
 32 80  1  0
 32 81  1  0
 32 82  1  0
M  END
>  <meeko>  (15) 
{"is_sidechain": [false], "intermolecular_energy": 2.731, "internal_energy": -0.839}

$$$$
EPH_relaxed_0001_pdb2pqr_Repair_127_r2_0001_out
     RDKit          3D

 82 86  0  0  0  0  0  0  0  0999 V2000
    0.9620    8.7820   -0.2440 C   0  0  0  0  0  0  0  0  0  0  0  0
   -0.1080    9.5400   -1.0350 C   0  0  2  0  0  0  0  0  0  0  0  0
   -0.8220    8.6360   -2.0600 C   0  0  0  0  0  0  0  0  0  0  0  0
   -2.3070    8.4180   -1.7590 C   0  0  0  0  0  0  0  0  0  0  0  0
   -2.8720    7.2770   -2.5510 C   0  0  2  0  0  0  0  0  0  0  0  0
   -3.8820    7.6480   -3.4980 O   0  0  0  0  0  0  0  0  0  0  0  0
   -4.3050    6.7960   -2.4200 C   0  0  0  0  0  0  0  0  0  0  0  0
   -5.2620    7.4460   -1.4710 C   0  0  0  0  0  0  0  0  0  0  0  0
   -4.6330    5.4000   -2.8490 C   0  0  0  0  0  0  0  0  0  0  0  0
    0.5190   10.7360   -1.7430 C   0  0  1  0  0  0  0  0  0  0  0  0
    0.1650   10.7880   -3.2540 C   0  0  0  0  0  0  0  0  0  0  0  0
    0.0370   12.2870   -3.6310 C   0  0  0  0  0  0  0  0  0  0  0  0
    0.6400   13.0450   -2.4260 C   0  0  1  0  0  0  0  0  0  0  0  0
    2.1840   12.9910   -2.6500 C   0  0  0  0  0  0  0  0  0  0  0  0
    0.1400   14.5110   -2.2100 C   0  0  2  0  0  0  0  0  0  0  0  0
    0.4630   15.4860   -3.3560 C   0  0  0  0  0  0  0  0  0  0  0  0
    1.7630   16.2100   -3.2290 C   0  0  0  0  0  0  0  0  0  0  0  0
    2.5010   16.3000   -2.1070 C   0  0  0  0  0  0  0  0  0  0  0  0
    1.9950   15.7170   -0.7810 C   0  0  1  0  0  0  0  0  0  0  0  0
    2.2050   16.7540    0.3540 C   0  0  0  0  0  0  0  0  0  0  0  0
    3.6490   17.2400    0.4430 C   0  0  0  0  0  0  0  0  0  0  0  0
    4.0960   17.8650   -0.8760 C   0  0  2  0  0  0  0  0  0  0  0  0
    3.3510   19.0670   -1.0920 O   0  0  0  0  0  0  0  0  0  0  0  0
    3.9220   16.9160   -2.0940 C   0  0  0  0  0  0  0  0  0  0  0  0
    4.9510   15.7620   -2.0060 C   0  0  0  0  0  0  0  0  0  0  0  0
    4.2760   17.7160   -3.3770 C   0  0  0  0  0  0  0  0  0  0  0  0
    0.5210   15.1260   -0.8030 C   0  0  1  0  0  0  0  0  0  0  0  0
   -0.5120   16.2590   -0.5180 C   0  0  0  0  0  0  0  0  0  0  0  0
    0.3680   14.0820    0.3670 C   0  0  0  0  0  0  0  0  0  0  0  0
    0.7670   12.6270    0.0560 C   0  0  0  0  0  0  0  0  0  0  0  0
    0.1180   12.1470   -1.2460 C   0  0  2  0  0  0  0  0  0  0  0  0
   -1.4350   12.1700   -1.0430 C   0  0  0  0  0  0  0  0  0  0  0  0
    0.7811    8.9102    0.8334 H   0  0  0  0  0  0  0  0  0  0  0  0
    0.9176    7.7128   -0.4986 H   0  0  0  0  0  0  0  0  0  0  0  0
    1.9559    9.1786   -0.4986 H   0  0  0  0  0  0  0  0  0  0  0  0
   -0.8658    9.8877   -0.3174 H   0  0  0  0  0  0  0  0  0  0  0  0
   -0.7335    9.1001   -3.0534 H   0  0  0  0  0  0  0  0  0  0  0  0
   -0.3363    7.6502   -2.0125 H   0  0  0  0  0  0  0  0  0  0  0  0
   -2.4253    8.2010   -0.6871 H   0  0  0  0  0  0  0  0  0  0  0  0
   -2.8512    9.3321   -2.0387 H   0  0  0  0  0  0  0  0  0  0  0  0
   -1.9096    6.7454   -2.5161 H   0  0  0  0  0  0  0  0  0  0  0  0
   -4.9524    7.2357   -0.4366 H   0  0  0  0  0  0  0  0  0  0  0  0
   -5.2639    8.5330   -1.6394 H   0  0  0  0  0  0  0  0  0  0  0  0
   -6.2732    7.0471   -1.6394 H   0  0  0  0  0  0  0  0  0  0  0  0
   -4.7813    4.7687   -1.9605 H   0  0  0  0  0  0  0  0  0  0  0  0
   -5.5537    5.4081   -3.4509 H   0  0  0  0  0  0  0  0  0  0  0  0
   -3.8050    4.9973   -3.4509 H   0  0  0  0  0  0  0  0  0  0  0  0
    1.5797   10.5469   -1.5211 H   0  0  0  0  0  0  0  0  0  0  0  0
    0.9620   10.3149   -3.8465 H   0  0  0  0  0  0  0  0  0  0  0  0
   -0.7705   10.2472   -3.4598 H   0  0  0  0  0  0  0  0  0  0  0  0
    0.6014   12.5060   -4.5494 H   0  0  0  0  0  0  0  0  0  0  0  0
   -1.0046   12.5798   -3.8292 H   0  0  0  0  0  0  0  0  0  0  0  0
    2.6954   12.9731   -1.6763 H   0  0  0  0  0  0  0  0  0  0  0  0
    2.4409   12.0833   -3.2158 H   0  0  0  0  0  0  0  0  0  0  0  0
    2.5037   13.8785   -3.2158 H   0  0  0  0  0  0  0  0  0  0  0  0
   -0.9533   14.3905   -2.2193 H   0  0  0  0  0  0  0  0  0  0  0  0
    0.4832   14.9128   -4.2946 H   0  0  0  0  0  0  0  0  0  0  0  0
   -0.3198   16.2583   -3.3288 H   0  0  0  0  0  0  0  0  0  0  0  0
    2.1500   16.7119   -4.1281 H   0  0  0  0  0  0  0  0  0  0  0  0
    2.6067   14.8235   -0.5873 H   0  0  0  0  0  0  0  0  0  0  0  0
    1.5526   17.6195    0.1660 H   0  0  0  0  0  0  0  0  0  0  0  0
    1.9594   16.2611    1.3062 H   0  0  0  0  0  0  0  0  0  0  0  0
    3.7274   17.9915    1.2424 H   0  0  0  0  0  0  0  0  0  0  0  0
    4.2969   16.3782    0.6608 H   0  0  0  0  0  0  0  0  0  0  0  0
    5.1728   18.0743   -0.7937 H   0  0  0  0  0  0  0  0  0  0  0  0
    2.4090   18.8300   -1.1140 H   0  0  0  0  0  0  0  0  0  0  0  0
    5.1554   15.5328   -0.9497 H   0  0  0  0  0  0  0  0  0  0  0  0
    4.5439   14.8690   -2.5029 H   0  0  0  0  0  0  0  0  0  0  0  0
    5.8846   16.0645   -2.5029 H   0  0  0  0  0  0  0  0  0  0  0  0
    4.7063   18.6885   -3.0957 H   0  0  0  0  0  0  0  0  0  0  0  0
    5.0075   17.1497   -3.9721 H   0  0  0  0  0  0  0  0  0  0  0  0
    3.3649   17.8766   -3.9721 H   0  0  0  0  0  0  0  0  0  0  0  0
   -0.6272   16.3853    0.5686 H   0  0  0  0  0  0  0  0  0  0  0  0
   -0.1550   17.2005   -0.9608 H   0  0  0  0  0  0  0  0  0  0  0  0
   -1.4824   15.9903   -0.9608 H   0  0  0  0  0  0  0  0  0  0  0  0
    0.9926   14.4266    1.2043 H   0  0  0  0  0  0  0  0  0  0  0  0
   -0.7104   14.0453    0.5809 H   0  0  0  0  0  0  0  0  0  0  0  0
    1.8608   12.5673   -0.0438 H   0  0  0  0  0  0  0  0  0  0  0  0
    0.4199   11.9846    0.8787 H   0  0  0  0  0  0  0  0  0  0  0  0
   -1.6641   12.1734    0.0329 H   0  0  0  0  0  0  0  0  0  0  0  0
   -1.8524   13.0744   -1.5097 H   0  0  0  0  0  0  0  0  0  0  0  0
   -1.8790   11.2783   -1.5097 H   0  0  0  0  0  0  0  0  0  0  0  0
  1  2  1  0
  2  3  1  0
  3  4  1  0
  4  5  1  0
  5  6  1  0
  6  7  1  0
  7  8  1  0
  7  9  1  0
  2 10  1  0
 10 11  1  0
 11 12  1  0
 12 13  1  0
 13 14  1  6
 13 15  1  0
 15 16  1  0
 16 17  1  0
 17 18  2  0
 18 19  1  0
 19 20  1  0
 20 21  1  0
 21 22  1  0
 22 23  1  0
 22 24  1  0
 24 25  1  0
 24 26  1  0
 19 27  1  0
 27 28  1  1
 27 29  1  0
 29 30  1  0
 30 31  1  0
 31 32  1  1
  7  5  1  0
 31 10  1  0
 31 13  1  0
 27 15  1  0
 24 18  1  0
  1 33  1  0
  1 34  1  0
  1 35  1  0
  2 36  1  1
  3 37  1  0
  3 38  1  0
  4 39  1  0
  4 40  1  0
  5 41  1  6
  8 42  1  0
  8 43  1  0
  8 44  1  0
  9 45  1  0
  9 46  1  0
  9 47  1  0
 10 48  1  6
 11 49  1  0
 11 50  1  0
 12 51  1  0
 12 52  1  0
 14 53  1  0
 14 54  1  0
 14 55  1  0
 15 56  1  1
 16 57  1  0
 16 58  1  0
 17 59  1  0
 19 60  1  1
 20 61  1  0
 20 62  1  0
 21 63  1  0
 21 64  1  0
 22 65  1  1
 23 66  1  0
 25 67  1  0
 25 68  1  0
 25 69  1  0
 26 70  1  0
 26 71  1  0
 26 72  1  0
 28 73  1  0
 28 74  1  0
 28 75  1  0
 29 76  1  0
 29 77  1  0
 30 78  1  0
 30 79  1  0
 32 80  1  0
 32 81  1  0
 32 82  1  0
M  END
>  <meeko>  (16) 
{"is_sidechain": [false], "intermolecular_energy": 2.731, "internal_energy": -0.839}

$$$$
EPH_relaxed_0001_pdb2pqr_Repair_127_r2_0001_out
     RDKit          3D

 82 86  0  0  0  0  0  0  0  0999 V2000
    4.5580   16.9110   -1.4730 C   0  0  0  0  0  0  0  0  0  0  0  0
    4.6240   15.3840   -1.5660 C   0  0  2  0  0  0  0  0  0  0  0  0
    4.9960   14.9040   -2.9840 C   0  0  0  0  0  0  0  0  0  0  0  0
    5.9240   13.6860   -2.9970 C   0  0  0  0  0  0  0  0  0  0  0  0
    5.5520   12.7190   -4.0800 C   0  0  2  0  0  0  0  0  0  0  0  0
    5.0290   11.4690   -3.6120 O   0  0  0  0  0  0  0  0  0  0  0  0
    6.2800   11.4080   -4.3160 C   0  0  0  0  0  0  0  0  0  0  0  0
    7.4390   10.9940   -3.4640 C   0  0  0  0  0  0  0  0  0  0  0  0
    6.1810   10.7690   -5.6660 C   0  0  0  0  0  0  0  0  0  0  0  0
    3.2900   14.7800   -1.1450 C   0  0  1  0  0  0  0  0  0  0  0  0
    2.2510   15.8550   -0.7300 C   0  0  0  0  0  0  0  0  0  0  0  0
    0.8620   15.3340   -1.1810 C   0  0  0  0  0  0  0  0  0  0  0  0
    1.1000   13.8470   -1.5360 C   0  0  1  0  0  0  0  0  0  0  0  0
    1.0760   13.0990   -0.1660 C   0  0  0  0  0  0  0  0  0  0  0  0
    0.1020   13.2120   -2.5580 C   0  0  2  0  0  0  0  0  0  0  0  0
   -1.3650   13.1660   -2.0950 C   0  0  0  0  0  0  0  0  0  0  0  0
   -1.7640   11.9280   -1.3630 C   0  0  0  0  0  0  0  0  0  0  0  0
   -1.0670   10.7770   -1.3340 C   0  0  0  0  0  0  0  0  0  0  0  0
    0.2100   10.6090   -2.1680 C   0  0  1  0  0  0  0  0  0  0  0  0
    0.1710    9.2440   -2.9040 C   0  0  0  0  0  0  0  0  0  0  0  0
   -0.0650    8.0730   -1.9550 C   0  0  0  0  0  0  0  0  0  0  0  0
   -1.3720    8.2490   -1.1870 C   0  0  2  0  0  0  0  0  0  0  0  0
   -2.4630    8.1580   -2.1070 O   0  0  0  0  0  0  0  0  0  0  0  0
   -1.4520    9.5940   -0.4120 C   0  0  0  0  0  0  0  0  0  0  0  0
   -0.4650    9.5670    0.7810 C   0  0  0  0  0  0  0  0  0  0  0  0
   -2.8730    9.7080    0.2020 C   0  0  0  0  0  0  0  0  0  0  0  0
    0.5690   11.8160   -3.1380 C   0  0  1  0  0  0  0  0  0  0  0  0
   -0.1600   11.6350   -4.5040 C   0  0  0  0  0  0  0  0  0  0  0  0
    2.1120   11.7830   -3.4500 C   0  0  0  0  0  0  0  0  0  0  0  0
    3.0350   12.5300   -2.4680 C   0  0  0  0  0  0  0  0  0  0  0  0
    2.5210   13.9480   -2.2020 C   0  0  2  0  0  0  0  0  0  0  0  0
    2.5540   14.7310   -3.5580 C   0  0  0  0  0  0  0  0  0  0  0  0
    4.5449   17.2137   -0.4156 H   0  0  0  0  0  0  0  0  0  0  0  0
    5.4381   17.3469   -1.9683 H   0  0  0  0  0  0  0  0  0  0  0  0
    3.6435   17.2693   -1.9683 H   0  0  0  0  0  0  0  0  0  0  0  0
    5.4176   15.0447   -0.8840 H   0  0  0  0  0  0  0  0  0  0  0  0
    4.0698   14.6408   -3.5158 H   0  0  0  0  0  0  0  0  0  0  0  0
    5.5392   15.7276   -3.4704 H   0  0  0  0  0  0  0  0  0  0  0  0
    6.9570   14.0263   -3.1619 H   0  0  0  0  0  0  0  0  0  0  0  0
    5.8290   13.1714   -2.0295 H   0  0  0  0  0  0  0  0  0  0  0  0
    5.2778   13.5429   -4.7552 H   0  0  0  0  0  0  0  0  0  0  0  0
    7.1670   11.0912   -2.4026 H   0  0  0  0  0  0  0  0  0  0  0  0
    7.6987    9.9475   -3.6816 H   0  0  0  0  0  0  0  0  0  0  0  0
    8.3030   11.6391   -3.6816 H   0  0  0  0  0  0  0  0  0  0  0  0
    6.0135    9.6882   -5.5487 H   0  0  0  0  0  0  0  0  0  0  0  0
    5.3408   11.2121   -6.2207 H   0  0  0  0  0  0  0  0  0  0  0  0
    7.1159   10.9371   -6.2207 H   0  0  0  0  0  0  0  0  0  0  0  0
    3.6331   14.1275   -0.3286 H   0  0  0  0  0  0  0  0  0  0  0  0
    2.2667   15.9955    0.3609 H   0  0  0  0  0  0  0  0  0  0  0  0
    2.4790   16.8248   -1.1964 H   0  0  0  0  0  0  0  0  0  0  0  0
    0.1291   15.4263   -0.3659 H   0  0  0  0  0  0  0  0  0  0  0  0
    0.4569   15.9058   -2.0289 H   0  0  0  0  0  0  0  0  0  0  0  0
    1.0996   13.8330    0.6530 H   0  0  0  0  0  0  0  0  0  0  0  0
    0.1581   12.4973   -0.0928 H   0  0  0  0  0  0  0  0  0  0  0  0
    1.9535   12.4397   -0.0928 H   0  0  0  0  0  0  0  0  0  0  0  0
    0.1298   13.9293   -3.3915 H   0  0  0  0  0  0  0  0  0  0  0  0
   -1.5386   14.0249   -1.4301 H   0  0  0  0  0  0  0  0  0  0  0  0
   -1.9740   13.1876   -3.0108 H   0  0  0  0  0  0  0  0  0  0  0  0
   -2.7080   11.9589   -0.7992 H   0  0  0  0  0  0  0  0  0  0  0  0
    1.0452   10.6237   -1.4523 H   0  0  0  0  0  0  0  0  0  0  0  0
   -0.6416    9.2663   -3.6451 H   0  0  0  0  0  0  0  0  0  0  0  0
    1.1508    9.0943   -3.3811 H   0  0  0  0  0  0  0  0  0  0  0  0
   -0.1124    7.1412   -2.5377 H   0  0  0  0  0  0  0  0  0  0  0  0
    0.7641    8.0332   -1.2331 H   0  0  0  0  0  0  0  0  0  0  0  0
   -1.4209    7.4499   -0.4326 H   0  0  0  0  0  0  0  0  0  0  0  0
   -2.2340    7.4850   -2.7700 H   0  0  0  0  0  0  0  0  0  0  0  0
   -1.0300    9.5825    1.7247 H   0  0  0  0  0  0  0  0  0  0  0  0
    0.1435    8.6519    0.7329 H   0  0  0  0  0  0  0  0  0  0  0  0
    0.1926   10.4475    0.7329 H   0  0  0  0  0  0  0  0  0  0  0  0
   -2.7997    9.7021    1.2995 H   0  0  0  0  0  0  0  0  0  0  0  0
   -3.3413   10.6466   -0.1292 H   0  0  0  0  0  0  0  0  0  0  0  0
   -3.4850    8.8561   -0.1292 H   0  0  0  0  0  0  0  0  0  0  0  0
   -1.2134   11.3734   -4.3256 H   0  0  0  0  0  0  0  0  0  0  0  0
   -0.1069   12.5736   -5.0752 H   0  0  0  0  0  0  0  0  0  0  0  0
    0.3259   10.8302   -5.0752 H   0  0  0  0  0  0  0  0  0  0  0  0
    2.4260   10.7289   -3.4656 H   0  0  0  0  0  0  0  0  0  0  0  0
    2.2234   12.3111   -4.4085 H   0  0  0  0  0  0  0  0  0  0  0  0
    3.0724   11.9768   -1.5179 H   0  0  0  0  0  0  0  0  0  0  0  0
    4.0383   12.5989   -2.9137 H   0  0  0  0  0  0  0  0  0  0  0  0
    2.5995   15.8114   -3.3565 H   0  0  0  0  0  0  0  0  0  0  0  0
    3.4402   14.4279   -4.1349 H   0  0  0  0  0  0  0  0  0  0  0  0
    1.6455   14.5036   -4.1349 H   0  0  0  0  0  0  0  0  0  0  0  0
  1  2  1  0
  2  3  1  0
  3  4  1  0
  4  5  1  0
  5  6  1  0
  6  7  1  0
  7  8  1  0
  7  9  1  0
  2 10  1  0
 10 11  1  0
 11 12  1  0
 12 13  1  0
 13 14  1  1
 13 15  1  0
 15 16  1  0
 16 17  1  0
 17 18  2  0
 18 19  1  0
 19 20  1  0
 20 21  1  0
 21 22  1  0
 22 23  1  0
 22 24  1  0
 24 25  1  0
 24 26  1  0
 19 27  1  0
 27 28  1  6
 27 29  1  0
 29 30  1  0
 30 31  1  0
 31 32  1  6
  7  5  1  0
 31 10  1  0
 31 13  1  0
 27 15  1  0
 24 18  1  0
  1 33  1  0
  1 34  1  0
  1 35  1  0
  2 36  1  1
  3 37  1  0
  3 38  1  0
  4 39  1  0
  4 40  1  0
  5 41  1  6
  8 42  1  0
  8 43  1  0
  8 44  1  0
  9 45  1  0
  9 46  1  0
  9 47  1  0
 10 48  1  1
 11 49  1  0
 11 50  1  0
 12 51  1  0
 12 52  1  0
 14 53  1  0
 14 54  1  0
 14 55  1  0
 15 56  1  6
 16 57  1  0
 16 58  1  0
 17 59  1  0
 19 60  1  1
 20 61  1  0
 20 62  1  0
 21 63  1  0
 21 64  1  0
 22 65  1  1
 23 66  1  0
 25 67  1  0
 25 68  1  0
 25 69  1  0
 26 70  1  0
 26 71  1  0
 26 72  1  0
 28 73  1  0
 28 74  1  0
 28 75  1  0
 29 76  1  0
 29 77  1  0
 30 78  1  0
 30 79  1  0
 32 80  1  0
 32 81  1  0
 32 82  1  0
M  END
>  <meeko>  (17) 
{"is_sidechain": [false], "intermolecular_energy": 2.731, "internal_energy": -0.839}

$$$$
EPH_relaxed_0001_pdb2pqr_Repair_127_r2_0001_out
     RDKit          3D

 82 86  0  0  0  0  0  0  0  0999 V2000
    4.6400   17.5290   -2.9010 C   0  0  0  0  0  0  0  0  0  0  0  0
    3.1760   17.3460   -2.4910 C   0  0  2  0  0  0  0  0  0  0  0  0
    2.6600   18.5220   -1.6390 C   0  0  0  0  0  0  0  0  0  0  0  0
    1.1570   18.7740   -1.7840 C   0  0  0  0  0  0  0  0  0  0  0  0
    0.6220   19.6000   -0.6530 C   0  0  2  0  0  0  0  0  0  0  0  0
    0.8800   19.0660    0.6520 O   0  0  0  0  0  0  0  0  0  0  0  0
   -0.5000   19.1410    0.2600 C   0  0  0  0  0  0  0  0  0  0  0  0
   -1.1550   17.8070    0.0810 C   0  0  0  0  0  0  0  0  0  0  0  0
   -1.2840   20.1750    1.0060 C   0  0  0  0  0  0  0  0  0  0  0  0
    3.0100   16.0370   -1.7280 C   0  0  1  0  0  0  0  0  0  0  0  0
    3.2250   16.2060   -0.2000 C   0  0  0  0  0  0  0  0  0  0  0  0
    2.2470   15.2260    0.5000 C   0  0  0  0  0  0  0  0  0  0  0  0
    1.7470   14.2990   -0.6320 C   0  0  1  0  0  0  0  0  0  0  0  0
    2.8790   13.2390   -0.8120 C   0  0  0  0  0  0  0  0  0  0  0  0
    0.3550   13.6240   -0.4090 C   0  0  2  0  0  0  0  0  0  0  0  0
    0.2770   12.6720    0.7980 C   0  0  0  0  0  0  0  0  0  0  0  0
    0.6080   11.2460    0.5080 C   0  0  0  0  0  0  0  0  0  0  0  0
    0.6760   10.6930   -0.7170 C   0  0  0  0  0  0  0  0  0  0  0  0
    0.3090   11.5010   -1.9680 C   0  0  1  0  0  0  0  0  0  0  0  0
   -0.6180   10.6540   -2.8790 C   0  0  0  0  0  0  0  0  0  0  0  0
   -0.0180    9.2930   -3.2190 C   0  0  0  0  0  0  0  0  0  0  0  0
    0.2790    8.4960   -1.9520 C   0  0  2  0  0  0  0  0  0  0  0  0
   -0.9590    8.1670   -1.3140 O   0  0  0  0  0  0  0  0  0  0  0  0
    1.1970    9.2530   -0.9530 C   0  0  0  0  0  0  0  0  0  0  0  0
    2.6310    9.3440   -1.5290 C   0  0  0  0  0  0  0  0  0  0  0  0
    1.3020    8.4000    0.3400 C   0  0  0  0  0  0  0  0  0  0  0  0
   -0.2610   12.9620   -1.7070 C   0  0  1  0  0  0  0  0  0  0  0  0
   -1.8030   12.8990   -1.4870 C   0  0  0  0  0  0  0  0  0  0  0  0
   -0.0310   13.8410   -2.9930 C   0  0  0  0  0  0  0  0  0  0  0  0
    1.3170   14.5780   -3.0990 C   0  0  0  0  0  0  0  0  0  0  0  0
    1.6300   15.3380   -1.8070 C   0  0  2  0  0  0  0  0  0  0  0  0
    0.5200   16.4260   -1.6110 C   0  0  0  0  0  0  0  0  0  0  0  0
    5.2661   17.6073   -1.9999 H   0  0  0  0  0  0  0  0  0  0  0  0
    4.9642   16.6644   -3.4988 H   0  0  0  0  0  0  0  0  0  0  0  0
    4.7414   18.4468   -3.4988 H   0  0  0  0  0  0  0  0  0  0  0  0
    2.5754   17.3181   -3.4121 H   0  0  0  0  0  0  0  0  0  0  0  0
    2.8755   18.3060   -0.5822 H   0  0  0  0  0  0  0  0  0  0  0  0
    3.1736   19.4270   -1.9956 H   0  0  0  0  0  0  0  0  0  0  0  0
    0.9740   19.3041   -2.7303 H   0  0  0  0  0  0  0  0  0  0  0  0
    0.6433   17.8014   -1.7715 H   0  0  0  0  0  0  0  0  0  0  0  0
    0.7750   20.5266   -1.2256 H   0  0  0  0  0  0  0  0  0  0  0  0
   -1.3701   17.3689    1.0668 H   0  0  0  0  0  0  0  0  0  0  0  0
   -2.0943   17.9317   -0.4777 H   0  0  0  0  0  0  0  0  0  0  0  0
   -0.4819   17.1400   -0.4777 H   0  0  0  0  0  0  0  0  0  0  0  0
   -1.1638   20.0164    2.0878 H   0  0  0  0  0  0  0  0  0  0  0  0
   -0.9165   21.1769    0.7392 H   0  0  0  0  0  0  0  0  0  0  0  0
   -2.3479   20.0916    0.7392 H   0  0  0  0  0  0  0  0  0  0  0  0
    3.7698   15.4273   -2.2389 H   0  0  0  0  0  0  0  0  0  0  0  0
    4.2635   15.9595    0.0661 H   0  0  0  0  0  0  0  0  0  0  0  0
    3.0366   17.2435    0.1133 H   0  0  0  0  0  0  0  0  0  0  0  0
    2.7679   14.6455    1.2757 H   0  0  0  0  0  0  0  0  0  0  0  0
    1.4221   15.7497    1.0053 H   0  0  0  0  0  0  0  0  0  0  0  0
    3.2321   12.9083    0.1759 H   0  0  0  0  0  0  0  0  0  0  0  0
    2.4873   12.3753   -1.3694 H   0  0  0  0  0  0  0  0  0  0  0  0
    3.7151   13.6865   -1.3694 H   0  0  0  0  0  0  0  0  0  0  0  0
   -0.2841   14.4825   -0.1550 H   0  0  0  0  0  0  0  0  0  0  0  0
    0.9791   13.0350    1.5631 H   0  0  0  0  0  0  0  0  0  0  0  0
   -0.7734   12.6801    1.1244 H   0  0  0  0  0  0  0  0  0  0  0  0
    0.8137   10.5918    1.3680 H   0  0  0  0  0  0  0  0  0  0  0  0
    1.2572   11.7044   -2.4873 H   0  0  0  0  0  0  0  0  0  0  0  0
   -1.5754   10.4978   -2.3603 H   0  0  0  0  0  0  0  0  0  0  0  0
   -0.7538   11.2043   -3.8217 H   0  0  0  0  0  0  0  0  0  0  0  0
   -0.7309    8.7302   -3.8395 H   0  0  0  0  0  0  0  0  0  0  0  0
    0.9247    9.4510   -3.7634 H   0  0  0  0  0  0  0  0  0  0  0  0
    0.8243    7.5892   -2.2527 H   0  0  0  0  0  0  0  0  0  0  0  0
   -0.7860    8.0870   -0.3600 H   0  0  0  0  0  0  0  0  0  0  0  0
    3.3558    9.3900   -0.7028 H   0  0  0  0  0  0  0  0  0  0  0  0
    2.8350    8.4570   -2.1467 H   0  0  0  0  0  0  0  0  0  0  0  0
    2.7212   10.2497   -2.1467 H   0  0  0  0  0  0  0  0  0  0  0  0
    1.2213    9.0558    1.2195 H   0  0  0  0  0  0  0  0  0  0  0  0
    0.4881    7.6602    0.3583 H   0  0  0  0  0  0  0  0  0  0  0  0
    2.2710    7.8797    0.3583 H   0  0  0  0  0  0  0  0  0  0  0  0
   -2.0195   12.8902   -0.4085 H   0  0  0  0  0  0  0  0  0  0  0  0
   -2.2755   13.7786   -1.9486 H   0  0  0  0  0  0  0  0  0  0  0  0
   -2.2022   11.9838   -1.9486 H   0  0  0  0  0  0  0  0  0  0  0  0
   -0.1184   13.1799   -3.8678 H   0  0  0  0  0  0  0  0  0  0  0  0
   -0.7896   14.6356   -2.9377 H   0  0  0  0  0  0  0  0  0  0  0  0
    2.1145   13.8440   -3.2868 H   0  0  0  0  0  0  0  0  0  0  0  0
    1.2568   15.3015   -3.9254 H   0  0  0  0  0  0  0  0  0  0  0  0
    0.3529   16.5898   -0.5362 H   0  0  0  0  0  0  0  0  0  0  0  0
    0.8426   17.3675   -2.0796 H   0  0  0  0  0  0  0  0  0  0  0  0
   -0.4148   16.0847   -2.0796 H   0  0  0  0  0  0  0  0  0  0  0  0
  1  2  1  0
  2  3  1  0
  3  4  1  0
  4  5  1  0
  5  6  1  0
  6  7  1  0
  7  8  1  0
  7  9  1  0
  2 10  1  0
 10 11  1  0
 11 12  1  0
 12 13  1  0
 13 14  1  6
 13 15  1  0
 15 16  1  0
 16 17  1  0
 17 18  2  0
 18 19  1  0
 19 20  1  0
 20 21  1  0
 21 22  1  0
 22 23  1  0
 22 24  1  0
 24 25  1  0
 24 26  1  0
 19 27  1  0
 27 28  1  1
 27 29  1  0
 29 30  1  0
 30 31  1  0
 31 32  1  1
  7  5  1  0
 31 10  1  0
 31 13  1  0
 27 15  1  0
 24 18  1  0
  1 33  1  0
  1 34  1  0
  1 35  1  0
  2 36  1  6
  3 37  1  0
  3 38  1  0
  4 39  1  0
  4 40  1  0
  5 41  1  1
  8 42  1  0
  8 43  1  0
  8 44  1  0
  9 45  1  0
  9 46  1  0
  9 47  1  0
 10 48  1  6
 11 49  1  0
 11 50  1  0
 12 51  1  0
 12 52  1  0
 14 53  1  0
 14 54  1  0
 14 55  1  0
 15 56  1  1
 16 57  1  0
 16 58  1  0
 17 59  1  0
 19 60  1  6
 20 61  1  0
 20 62  1  0
 21 63  1  0
 21 64  1  0
 22 65  1  6
 23 66  1  0
 25 67  1  0
 25 68  1  0
 25 69  1  0
 26 70  1  0
 26 71  1  0
 26 72  1  0
 28 73  1  0
 28 74  1  0
 28 75  1  0
 29 76  1  0
 29 77  1  0
 30 78  1  0
 30 79  1  0
 32 80  1  0
 32 81  1  0
 32 82  1  0
M  END
>  <meeko>  (18) 
{"is_sidechain": [false], "intermolecular_energy": 2.731, "internal_energy": -0.839}

$$$$
EPH_relaxed_0001_pdb2pqr_Repair_127_r2_0001_out
     RDKit          3D

 82 86  0  0  0  0  0  0  0  0999 V2000
    3.9880   11.7560   -5.4880 C   0  0  0  0  0  0  0  0  0  0  0  0
    2.5470   11.2390   -5.4560 C   0  0  2  0  0  0  0  0  0  0  0  0
    1.9610   11.0640   -6.8720 C   0  0  0  0  0  0  0  0  0  0  0  0
    1.3930   12.3560   -7.4660 C   0  0  0  0  0  0  0  0  0  0  0  0
    1.6080   12.4250   -8.9480 C   0  0  2  0  0  0  0  0  0  0  0  0
    2.3530   13.5660   -9.3920 O   0  0  0  0  0  0  0  0  0  0  0  0
    0.9880   13.4900   -9.8340 C   0  0  0  0  0  0  0  0  0  0  0  0
    0.1050   14.5570   -9.2700 C   0  0  0  0  0  0  0  0  0  0  0  0
    0.8430   13.2070  -11.2970 C   0  0  0  0  0  0  0  0  0  0  0  0
    1.6720   12.1870   -4.6440 C   0  0  1  0  0  0  0  0  0  0  0  0
    0.3150   11.5510   -4.2410 C   0  0  0  0  0  0  0  0  0  0  0  0
   -0.0410   12.1070   -2.8390 C   0  0  0  0  0  0  0  0  0  0  0  0
    0.9390   13.2840   -2.6250 C   0  0  1  0  0  0  0  0  0  0  0  0
    0.3030   14.4810   -3.4000 C   0  0  0  0  0  0  0  0  0  0  0  0
    1.2550   13.6600   -1.1410 C   0  0  2  0  0  0  0  0  0  0  0  0
    0.0470   14.1390   -0.3180 C   0  0  0  0  0  0  0  0  0  0  0  0
   -0.2000   15.6110   -0.3430 C   0  0  0  0  0  0  0  0  0  0  0  0
    0.6760   16.5430   -0.7630 C   0  0  0  0  0  0  0  0  0  0  0  0
    2.1000   16.1550   -1.1800 C   0  0  1  0  0  0  0  0  0  0  0  0
    3.1150   17.1280   -0.5250 C   0  0  0  0  0  0  0  0  0  0  0  0
    2.7990   18.5910   -0.8230 C   0  0  0  0  0  0  0  0  0  0  0  0
    1.3960   18.9540   -0.3410 C   0  0  2  0  0  0  0  0  0  0  0  0
    1.3690   18.8890    1.0880 O   0  0  0  0  0  0  0  0  0  0  0  0
    0.2900   18.0340   -0.9270 C   0  0  0  0  0  0  0  0  0  0  0  0
    0.1150   18.3260   -2.4380 C   0  0  0  0  0  0  0  0  0  0  0  0
   -1.0560   18.4160   -0.2530 C   0  0  0  0  0  0  0  0  0  0  0  0
    2.4930   14.6300   -0.9670 C   0  0  1  0  0  0  0  0  0  0  0  0
    3.0270   14.4150    0.4820 C   0  0  0  0  0  0  0  0  0  0  0  0
    3.6800   14.2650   -1.9360 C   0  0  0  0  0  0  0  0  0  0  0  0
    3.2990   13.7860   -3.3500 C   0  0  0  0  0  0  0  0  0  0  0  0
    2.2330   12.6880   -3.2890 C   0  0  2  0  0  0  0  0  0  0  0  0
    2.8520   11.4620   -2.5350 C   0  0  0  0  0  0  0  0  0  0  0  0
    4.3534   11.8871   -4.4588 H   0  0  0  0  0  0  0  0  0  0  0  0
    4.6262   11.0308   -6.0141 H   0  0  0  0  0  0  0  0  0  0  0  0
    4.0195   12.7215   -6.0141 H   0  0  0  0  0  0  0  0  0  0  0  0
    2.5621   10.2475   -4.9799 H   0  0  0  0  0  0  0  0  0  0  0  0
    2.7585   10.6978   -7.5353 H   0  0  0  0  0  0  0  0  0  0  0  0
    1.1255   10.3533   -6.7891 H   0  0  0  0  0  0  0  0  0  0  0  0
    0.3133   12.3989   -7.2598 H   0  0  0  0  0  0  0  0  0  0  0  0
    1.9162   13.2058   -7.0032 H   0  0  0  0  0  0  0  0  0  0  0  0
    1.6323   11.3276   -9.0198 H   0  0  0  0  0  0  0  0  0  0  0  0
    0.1379   14.5173   -8.1712 H   0  0  0  0  0  0  0  0  0  0  0  0
    0.4557   15.5419   -9.6120 H   0  0  0  0  0  0  0  0  0  0  0  0
   -0.9281   14.3967   -9.6120 H   0  0  0  0  0  0  0  0  0  0  0  0
    0.3454   12.2358  -11.4350 H   0  0  0  0  0  0  0  0  0  0  0  0
    0.2392   13.9982  -11.7654 H   0  0  0  0  0  0  0  0  0  0  0  0
    1.8379   13.1791  -11.7654 H   0  0  0  0  0  0  0  0  0  0  0  0
    1.5993   13.0238   -5.3543 H   0  0  0  0  0  0  0  0  0  0  0  0
   -0.4635   11.8279   -4.9671 H   0  0  0  0  0  0  0  0  0  0  0  0
    0.3828   10.4532   -4.2248 H   0  0  0  0  0  0  0  0  0  0  0  0
   -1.0826   12.4597   -2.8143 H   0  0  0  0  0  0  0  0  0  0  0  0
    0.0473   11.3428   -2.0527 H   0  0  0  0  0  0  0  0  0  0  0  0
   -0.0879   15.2167   -2.6817 H   0  0  0  0  0  0  0  0  0  0  0  0
    1.0676   14.9562   -4.0322 H   0  0  0  0  0  0  0  0  0  0  0  0
   -0.5187   14.1134   -4.0322 H   0  0  0  0  0  0  0  0  0  0  0  0
    1.5457   12.6908   -0.7097 H   0  0  0  0  0  0  0  0  0  0  0  0
   -0.8506   13.6373   -0.7087 H   0  0  0  0  0  0  0  0  0  0  0  0
    0.2733   13.8868    0.7285 H   0  0  0  0  0  0  0  0  0  0  0  0
   -1.1798   15.9637    0.0114 H   0  0  0  0  0  0  0  0  0  0  0  0
    2.1354   16.2599   -2.2744 H   0  0  0  0  0  0  0  0  0  0  0  0
    3.0949   16.9777    0.5645 H   0  0  0  0  0  0  0  0  0  0  0  0
    4.1074   16.9083   -0.9457 H   0  0  0  0  0  0  0  0  0  0  0  0
    3.5328   19.2298   -0.3097 H   0  0  0  0  0  0  0  0  0  0  0  0
    2.8485   18.7470   -1.9108 H   0  0  0  0  0  0  0  0  0  0  0  0
    1.1777   19.9717   -0.6967 H   0  0  0  0  0  0  0  0  0  0  0  0
    1.9290   18.1430    1.3600 H   0  0  0  0  0  0  0  0  0  0  0  0
   -0.4465   19.2629   -2.5678 H   0  0  0  0  0  0  0  0  0  0  0  0
    1.1040   18.4229   -2.9097 H   0  0  0  0  0  0  0  0  0  0  0  0
   -0.4368   17.4995   -2.9097 H   0  0  0  0  0  0  0  0  0  0  0  0
   -0.9408   18.3833    0.8405 H   0  0  0  0  0  0  0  0  0  0  0  0
   -1.3451   19.4317   -0.5610 H   0  0  0  0  0  0  0  0  0  0  0  0
   -1.8355   17.7036   -0.5610 H   0  0  0  0  0  0  0  0  0  0  0  0
    2.2585   14.7244    1.2057 H   0  0  0  0  0  0  0  0  0  0  0  0
    3.2642   13.3513    0.6313 H   0  0  0  0  0  0  0  0  0  0  0  0
    3.9351   15.0176    0.6313 H   0  0  0  0  0  0  0  0  0  0  0  0
    4.3077   15.1616   -2.0460 H   0  0  0  0  0  0  0  0  0  0  0  0
    4.1820   13.4063   -1.4662 H   0  0  0  0  0  0  0  0  0  0  0  0
    2.9057   14.6376   -3.9245 H   0  0  0  0  0  0  0  0  0  0  0  0
    4.1971   13.3759   -3.8349 H   0  0  0  0  0  0  0  0  0  0  0  0
    2.7719   11.6206   -1.4494 H   0  0  0  0  0  0  0  0  0  0  0  0
    2.3076   10.5475   -2.8131 H   0  0  0  0  0  0  0  0  0  0  0  0
    3.9111   11.3571   -2.8131 H   0  0  0  0  0  0  0  0  0  0  0  0
  1  2  1  0
  2  3  1  0
  3  4  1  0
  4  5  1  0
  5  6  1  0
  6  7  1  0
  7  8  1  0
  7  9  1  0
  2 10  1  0
 10 11  1  0
 11 12  1  0
 12 13  1  0
 13 14  1  6
 13 15  1  0
 15 16  1  0
 16 17  1  0
 17 18  2  0
 18 19  1  0
 19 20  1  0
 20 21  1  0
 21 22  1  0
 22 23  1  0
 22 24  1  0
 24 25  1  0
 24 26  1  0
 19 27  1  0
 27 28  1  1
 27 29  1  0
 29 30  1  0
 30 31  1  0
 31 32  1  1
  7  5  1  0
 31 10  1  0
 31 13  1  0
 27 15  1  0
 24 18  1  0
  1 33  1  0
  1 34  1  0
  1 35  1  0
  2 36  1  1
  3 37  1  0
  3 38  1  0
  4 39  1  0
  4 40  1  0
  5 41  1  6
  8 42  1  0
  8 43  1  0
  8 44  1  0
  9 45  1  0
  9 46  1  0
  9 47  1  0
 10 48  1  6
 11 49  1  0
 11 50  1  0
 12 51  1  0
 12 52  1  0
 14 53  1  0
 14 54  1  0
 14 55  1  0
 15 56  1  1
 16 57  1  0
 16 58  1  0
 17 59  1  0
 19 60  1  6
 20 61  1  0
 20 62  1  0
 21 63  1  0
 21 64  1  0
 22 65  1  1
 23 66  1  0
 25 67  1  0
 25 68  1  0
 25 69  1  0
 26 70  1  0
 26 71  1  0
 26 72  1  0
 28 73  1  0
 28 74  1  0
 28 75  1  0
 29 76  1  0
 29 77  1  0
 30 78  1  0
 30 79  1  0
 32 80  1  0
 32 81  1  0
 32 82  1  0
M  END
>  <meeko>  (19) 
{"is_sidechain": [false], "intermolecular_energy": 2.731, "internal_energy": -0.839}

$$$$
