EPH_relaxed_0001_pdb2pqr_Repair_376_r2_0001_out
     RDKit          3D

 82 86  0  0  0  0  0  0  0  0999 V2000
    1.9220   19.6460   -0.5000 C   0  0  0  0  0  0  0  0  0  0  0  0
    2.3620   18.3970    0.2680 C   0  0  2  0  0  0  0  0  0  0  0  0
    3.8070   17.9840   -0.0740 C   0  0  0  0  0  0  0  0  0  0  0  0
    4.8190   18.3150    1.0260 C   0  0  0  0  0  0  0  0  0  0  0  0
    4.1810   19.0590    2.1600 C   0  0  2  0  0  0  0  0  0  0  0  0
    4.9240   20.1940    2.6240 O   0  0  0  0  0  0  0  0  0  0  0  0
    4.7660   19.1140    3.5590 C   0  0  0  0  0  0  0  0  0  0  0  0
    6.0430   18.4120    3.8990 C   0  0  0  0  0  0  0  0  0  0  0  0
    3.8550   19.4350    4.7030 C   0  0  0  0  0  0  0  0  0  0  0  0
    1.4080   17.2440   -0.0240 C   0  0  1  0  0  0  0  0  0  0  0  0
    0.1390   17.7000   -0.7930 C   0  0  0  0  0  0  0  0  0  0  0  0
   -0.2430   16.5420   -1.7510 C   0  0  0  0  0  0  0  0  0  0  0  0
    0.6070   15.3420   -1.2710 C   0  0  1  0  0  0  0  0  0  0  0  0
   -0.1750   14.7590   -0.0520 C   0  0  0  0  0  0  0  0  0  0  0  0
    0.9150   14.2420   -2.3390 C   0  0  2  0  0  0  0  0  0  0  0  0
   -0.3190   13.5150   -2.9010 C   0  0  0  0  0  0  0  0  0  0  0  0
   -0.7270   12.2840   -2.1600 C   0  0  0  0  0  0  0  0  0  0  0  0
    0.0310   11.6230   -1.2650 C   0  0  0  0  0  0  0  0  0  0  0  0
    1.4790   12.0500   -0.9910 C   0  0  1  0  0  0  0  0  0  0  0  0
    2.3960   10.7980   -0.9910 C   0  0  0  0  0  0  0  0  0  0  0  0
    1.9130    9.7200   -0.0260 C   0  0  0  0  0  0  0  0  0  0  0  0
    0.4910    9.2800   -0.3660 C   0  0  2  0  0  0  0  0  0  0  0  0
    0.5050    8.6150   -1.6330 O   0  0  0  0  0  0  0  0  0  0  0  0
   -0.5210   10.4590   -0.4060 C   0  0  0  0  0  0  0  0  0  0  0  0
   -0.7620   10.9870    1.0300 C   0  0  0  0  0  0  0  0  0  0  0  0
   -1.8840    9.9020   -0.8980 C   0  0  0  0  0  0  0  0  0  0  0  0
    2.0430   13.2190   -1.9080 C   0  0  1  0  0  0  0  0  0  0  0  0
    2.6310   12.6260   -3.2250 C   0  0  0  0  0  0  0  0  0  0  0  0
    3.2380   13.9240   -1.1650 C   0  0  0  0  0  0  0  0  0  0  0  0
    2.8790   15.0820   -0.2150 C   0  0  0  0  0  0  0  0  0  0  0  0
    1.9430   16.0830   -0.8990 C   0  0  2  0  0  0  0  0  0  0  0  0
    2.7100   16.7020   -2.1160 C   0  0  0  0  0  0  0  0  0  0  0  0
    1.6437   20.4359    0.2132 H   0  0  0  0  0  0  0  0  0  0  0  0
    2.7502   19.9982   -1.1325 H   0  0  0  0  0  0  0  0  0  0  0  0
    1.0559   19.4014   -1.1325 H   0  0  0  0  0  0  0  0  0  0  0  0
    2.3334   18.6410    1.3402 H   0  0  0  0  0  0  0  0  0  0  0  0
    3.8258   16.8980   -0.2476 H   0  0  0  0  0  0  0  0  0  0  0  0
    4.1024   18.5570   -0.9653 H   0  0  0  0  0  0  0  0  0  0  0  0
    5.2470   17.3775    1.4106 H   0  0  0  0  0  0  0  0  0  0  0  0
    5.6005   18.9559    0.5917 H   0  0  0  0  0  0  0  0  0  0  0  0
    3.1758   18.8083    1.7902 H   0  0  0  0  0  0  0  0  0  0  0  0
    6.1494   18.3535    4.9923 H   0  0  0  0  0  0  0  0  0  0  0  0
    6.0265   17.3962    3.4773 H   0  0  0  0  0  0  0  0  0  0  0  0
    6.8918   18.9703    3.4773 H   0  0  0  0  0  0  0  0  0  0  0  0
    4.3793   19.2503    5.6522 H   0  0  0  0  0  0  0  0  0  0  0  0
    3.5567   20.4924    4.6486 H   0  0  0  0  0  0  0  0  0  0  0  0
    2.9597   18.7982    4.6486 H   0  0  0  0  0  0  0  0  0  0  0  0
    1.2268   16.8893    1.0014 H   0  0  0  0  0  0  0  0  0  0  0  0
   -0.6822   17.8946   -0.0874 H   0  0  0  0  0  0  0  0  0  0  0  0
    0.3276   18.6289   -1.3512 H   0  0  0  0  0  0  0  0  0  0  0  0
   -1.3162   16.3129   -1.6748 H   0  0  0  0  0  0  0  0  0  0  0  0
   -0.0530   16.7927   -2.8051 H   0  0  0  0  0  0  0  0  0  0  0  0
    0.2905   15.1061    0.8822 H   0  0  0  0  0  0  0  0  0  0  0  0
   -1.2201   15.1001   -0.0897 H   0  0  0  0  0  0  0  0  0  0  0  0
   -0.1464   13.6600   -0.0897 H   0  0  0  0  0  0  0  0  0  0  0  0
    1.3206   14.8307   -3.1750 H   0  0  0  0  0  0  0  0  0  0  0  0
   -1.1648   14.2181   -2.8837 H   0  0  0  0  0  0  0  0  0  0  0  0
   -0.0422   13.1834   -3.9126 H   0  0  0  0  0  0  0  0  0  0  0  0
   -1.7314   11.8838   -2.3626 H   0  0  0  0  0  0  0  0  0  0  0  0
    1.4763   12.5117    0.0074 H   0  0  0  0  0  0  0  0  0  0  0  0
    2.4186   10.3773   -2.0071 H   0  0  0  0  0  0  0  0  0  0  0  0
    3.3964   11.1165   -0.6627 H   0  0  0  0  0  0  0  0  0  0  0  0
    2.5841    8.8510   -0.0920 H   0  0  0  0  0  0  0  0  0  0  0  0
    1.9181   10.1336    0.9933 H   0  0  0  0  0  0  0  0  0  0  0  0
    0.1541    8.6040    0.4337 H   0  0  0  0  0  0  0  0  0  0  0  0
    1.4280    8.3870   -1.8360 H   0  0  0  0  0  0  0  0  0  0  0  0
   -0.4198   10.2373    1.7586 H   0  0  0  0  0  0  0  0  0  0  0  0
   -0.2016   11.9223    1.1756 H   0  0  0  0  0  0  0  0  0  0  0  0
   -1.8357   11.1764    1.1756 H   0  0  0  0  0  0  0  0  0  0  0  0
   -2.5102    9.6461   -0.0306 H   0  0  0  0  0  0  0  0  0  0  0  0
   -2.3936   10.6640   -1.5060 H   0  0  0  0  0  0  0  0  0  0  0  0
   -1.7140    9.0012   -1.5060 H   0  0  0  0  0  0  0  0  0  0  0  0
    3.3859   11.8646   -2.9793 H   0  0  0  0  0  0  0  0  0  0  0  0
    1.8231   12.1651   -3.8123 H   0  0  0  0  0  0  0  0  0  0  0  0
    3.0987   13.4299   -3.8123 H   0  0  0  0  0  0  0  0  0  0  0  0
    3.7603   13.1578   -0.5732 H   0  0  0  0  0  0  0  0  0  0  0  0
    3.8421   14.3823   -1.9619 H   0  0  0  0  0  0  0  0  0  0  0  0
    2.3801   14.6744    0.6766 H   0  0  0  0  0  0  0  0  0  0  0  0
    3.8052   15.6043    0.0666 H   0  0  0  0  0  0  0  0  0  0  0  0
    3.5167   17.3531   -1.7482 H   0  0  0  0  0  0  0  0  0  0  0  0
    3.1401   15.8949   -2.7273 H   0  0  0  0  0  0  0  0  0  0  0  0
    2.0119   17.2928   -2.7273 H   0  0  0  0  0  0  0  0  0  0  0  0
  1  2  1  0
  2  3  1  0
  3  4  1  0
  4  5  1  0
  5  6  1  0
  6  7  1  0
  7  8  1  0
  7  9  1  0
  2 10  1  0
 10 11  1  0
 11 12  1  0
 12 13  1  0
 13 14  1  1
 13 15  1  0
 15 16  1  0
 16 17  1  0
 17 18  2  0
 18 19  1  0
 19 20  1  0
 20 21  1  0
 21 22  1  0
 22 23  1  0
 22 24  1  0
 24 25  1  0
 24 26  1  0
 19 27  1  0
 27 28  1  6
 27 29  1  0
 29 30  1  0
 30 31  1  0
 31 32  1  6
  7  5  1  0
 31 10  1  0
 31 13  1  0
 27 15  1  0
 24 18  1  0
  1 33  1  0
  1 34  1  0
  1 35  1  0
  2 36  1  1
  3 37  1  0
  3 38  1  0
  4 39  1  0
  4 40  1  0
  5 41  1  1
  8 42  1  0
  8 43  1  0
  8 44  1  0
  9 45  1  0
  9 46  1  0
  9 47  1  0
 10 48  1  1
 11 49  1  0
 11 50  1  0
 12 51  1  0
 12 52  1  0
 14 53  1  0
 14 54  1  0
 14 55  1  0
 15 56  1  6
 16 57  1  0
 16 58  1  0
 17 59  1  0
 19 60  1  1
 20 61  1  0
 20 62  1  0
 21 63  1  0
 21 64  1  0
 22 65  1  1
 23 66  1  0
 25 67  1  0
 25 68  1  0
 25 69  1  0
 26 70  1  0
 26 71  1  0
 26 72  1  0
 28 73  1  0
 28 74  1  0
 28 75  1  0
 29 76  1  0
 29 77  1  0
 30 78  1  0
 30 79  1  0
 32 80  1  0
 32 81  1  0
 32 82  1  0
M  END
>  <meeko>  (1) 
{"is_sidechain": [false], "intermolecular_energy": 2.731, "internal_energy": -0.839}

$$$$
EPH_relaxed_0001_pdb2pqr_Repair_376_r2_0001_out
     RDKit          3D

 82 86  0  0  0  0  0  0  0  0999 V2000
    1.9550   18.2290   -2.6380 C   0  0  0  0  0  0  0  0  0  0  0  0
    0.4430   17.9830   -2.6220 C   0  0  2  0  0  0  0  0  0  0  0  0
   -0.1970   18.3930   -1.2810 C   0  0  0  0  0  0  0  0  0  0  0  0
    0.6200   17.9760   -0.0550 C   0  0  0  0  0  0  0  0  0  0  0  0
    1.2310   19.1590    0.6320 C   0  0  2  0  0  0  0  0  0  0  0  0
    2.1640   19.9000   -0.1660 O   0  0  0  0  0  0  0  0  0  0  0  0
    2.7010   19.2480    0.9960 C   0  0  0  0  0  0  0  0  0  0  0  0
    3.6510   18.1340    0.6850 C   0  0  0  0  0  0  0  0  0  0  0  0
    3.1140   20.1930    2.0810 C   0  0  0  0  0  0  0  0  0  0  0  0
    0.1530   16.5140   -2.9110 C   0  0  1  0  0  0  0  0  0  0  0  0
    0.2380   16.1750   -4.4230 C   0  0  0  0  0  0  0  0  0  0  0  0
    0.8050   14.7360   -4.5270 C   0  0  0  0  0  0  0  0  0  0  0  0
    0.7150   14.1760   -3.0880 C   0  0  1  0  0  0  0  0  0  0  0  0
   -0.7680   13.7150   -2.9280 C   0  0  0  0  0  0  0  0  0  0  0  0
    1.7170   13.0310   -2.7280 C   0  0  2  0  0  0  0  0  0  0  0  0
    1.5550   11.7400   -3.5490 C   0  0  0  0  0  0  0  0  0  0  0  0
    0.6250   10.7270   -2.9680 C   0  0  0  0  0  0  0  0  0  0  0  0
    0.1680   10.7200   -1.7020 C   0  0  0  0  0  0  0  0  0  0  0  0
    0.6640   11.7510   -0.6800 C   0  0  1  0  0  0  0  0  0  0  0  0
    1.0210   11.0330    0.6480 C   0  0  0  0  0  0  0  0  0  0  0  0
   -0.1300   10.1870    1.1830 C   0  0  0  0  0  0  0  0  0  0  0  0
   -0.5560    9.1360    0.1620 C   0  0  2  0  0  0  0  0  0  0  0  0
    0.5070    8.1920    0.0010 O   0  0  0  0  0  0  0  0  0  0  0  0
   -0.9310    9.7410   -1.2200 C   0  0  0  0  0  0  0  0  0  0  0  0
   -2.2620   10.5250   -1.1010 C   0  0  0  0  0  0  0  0  0  0  0  0
   -1.2050    8.5670   -2.1980 C   0  0  0  0  0  0  0  0  0  0  0  0
    1.8190   12.7220   -1.1790 C   0  0  1  0  0  0  0  0  0  0  0  0
    3.2100   12.0560   -0.9490 C   0  0  0  0  0  0  0  0  0  0  0  0
    1.8030   14.0320   -0.3050 C   0  0  0  0  0  0  0  0  0  0  0  0
    0.8820   15.1720   -0.7790 C   0  0  0  0  0  0  0  0  0  0  0  0
    1.0920   15.4640   -2.2680 C   0  0  2  0  0  0  0  0  0  0  0  0
    2.5700   15.9510   -2.4570 C   0  0  0  0  0  0  0  0  0  0  0  0
    2.3276   18.2896   -1.6048 H   0  0  0  0  0  0  0  0  0  0  0  0
    2.4558   17.4005   -3.1603 H   0  0  0  0  0  0  0  0  0  0  0  0
    2.1673   19.1735   -3.1603 H   0  0  0  0  0  0  0  0  0  0  0  0
   -0.0038   18.6114   -3.4065 H   0  0  0  0  0  0  0  0  0  0  0  0
   -0.3068   19.4874   -1.2691 H   0  0  0  0  0  0  0  0  0  0  0  0
   -1.1640   17.8729   -1.2145 H   0  0  0  0  0  0  0  0  0  0  0  0
   -0.0407   17.4545    0.6532 H   0  0  0  0  0  0  0  0  0  0  0  0
    1.4338   17.3175   -0.3929 H   0  0  0  0  0  0  0  0  0  0  0  0
    0.3144   19.3210    1.2182 H   0  0  0  0  0  0  0  0  0  0  0  0
    4.0236   17.6971    1.6233 H   0  0  0  0  0  0  0  0  0  0  0  0
    3.1304   17.3603    0.1016 H   0  0  0  0  0  0  0  0  0  0  0  0
    4.4972   18.5259    0.1016 H   0  0  0  0  0  0  0  0  0  0  0  0
    2.9141   19.7357    3.0613 H   0  0  0  0  0  0  0  0  0  0  0  0
    4.1887   20.4092    1.9895 H   0  0  0  0  0  0  0  0  0  0  0  0
    2.5427   21.1285    1.9895 H   0  0  0  0  0  0  0  0  0  0  0  0
   -0.8534   16.4351   -2.4741 H   0  0  0  0  0  0  0  0  0  0  0  0
   -0.7621   16.2220   -4.8786 H   0  0  0  0  0  0  0  0  0  0  0  0
    0.8814   16.8925   -4.9533 H   0  0  0  0  0  0  0  0  0  0  0  0
    0.2010   14.1297   -5.2181 H   0  0  0  0  0  0  0  0  0  0  0  0
    1.8334   14.7201   -4.9172 H   0  0  0  0  0  0  0  0  0  0  0  0
   -1.0148   13.6383   -1.8588 H   0  0  0  0  0  0  0  0  0  0  0  0
   -1.4337   14.4486   -3.4062 H   0  0  0  0  0  0  0  0  0  0  0  0
   -0.9004   12.7333   -3.4062 H   0  0  0  0  0  0  0  0  0  0  0  0
    2.6834   13.4592   -3.0324 H   0  0  0  0  0  0  0  0  0  0  0  0
    1.1780   12.0157   -4.5449 H   0  0  0  0  0  0  0  0  0  0  0  0
    2.5473   11.2658   -3.5691 H   0  0  0  0  0  0  0  0  0  0  0  0
    0.2844    9.9178   -3.6307 H   0  0  0  0  0  0  0  0  0  0  0  0
   -0.1742   12.4442   -0.5158 H   0  0  0  0  0  0  0  0  0  0  0  0
    1.8879   10.3789    0.4732 H   0  0  0  0  0  0  0  0  0  0  0  0
    1.2427   11.8073    1.3972 H   0  0  0  0  0  0  0  0  0  0  0  0
    0.1929    9.6824    2.1055 H   0  0  0  0  0  0  0  0  0  0  0  0
   -0.9863   10.8473    1.3847 H   0  0  0  0  0  0  0  0  0  0  0  0
   -1.4639    8.6499    0.5485 H   0  0  0  0  0  0  0  0  0  0  0  0
    0.1740    7.3230    0.2820 H   0  0  0  0  0  0  0  0  0  0  0  0
   -2.5084   10.6701   -0.0388 H   0  0  0  0  0  0  0  0  0  0  0  0
   -2.1555   11.5046   -1.5899 H   0  0  0  0  0  0  0  0  0  0  0  0
   -3.0672    9.9569   -1.5899 H   0  0  0  0  0  0  0  0  0  0  0  0
   -1.4182    7.6534   -1.6236 H   0  0  0  0  0  0  0  0  0  0  0  0
   -2.0701    8.8120   -2.8317 H   0  0  0  0  0  0  0  0  0  0  0  0
   -0.3208    8.4037   -2.8317 H   0  0  0  0  0  0  0  0  0  0  0  0
    3.3991   11.9655    0.1308 H   0  0  0  0  0  0  0  0  0  0  0  0
    3.2182   11.0563   -1.4078 H   0  0  0  0  0  0  0  0  0  0  0  0
    3.9939   12.6764   -1.4078 H   0  0  0  0  0  0  0  0  0  0  0  0
    1.4883   13.7505    0.7108 H   0  0  0  0  0  0  0  0  0  0  0  0
    2.8230   14.4377   -0.3759 H   0  0  0  0  0  0  0  0  0  0  0  0
   -0.1657   14.8803   -0.6139 H   0  0  0  0  0  0  0  0  0  0  0  0
    1.1242   16.0794   -0.2063 H   0  0  0  0  0  0  0  0  0  0  0  0
    3.0345   16.1040   -1.4717 H   0  0  0  0  0  0  0  0  0  0  0  0
    3.1374   15.1923   -3.0160 H   0  0  0  0  0  0  0  0  0  0  0  0
    2.5753   16.8984   -3.0160 H   0  0  0  0  0  0  0  0  0  0  0  0
  1  2  1  0
  2  3  1  0
  3  4  1  0
  4  5  1  0
  5  6  1  0
  6  7  1  0
  7  8  1  0
  7  9  1  0
  2 10  1  0
 10 11  1  0
 11 12  1  0
 12 13  1  0
 13 14  1  1
 13 15  1  0
 15 16  1  0
 16 17  1  0
 17 18  2  0
 18 19  1  0
 19 20  1  0
 20 21  1  0
 21 22  1  0
 22 23  1  0
 22 24  1  0
 24 25  1  0
 24 26  1  0
 19 27  1  0
 27 28  1  6
 27 29  1  0
 29 30  1  0
 30 31  1  0
 31 32  1  1
  7  5  1  0
 31 10  1  0
 31 13  1  0
 27 15  1  0
 24 18  1  0
  1 33  1  0
  1 34  1  0
  1 35  1  0
  2 36  1  6
  3 37  1  0
  3 38  1  0
  4 39  1  0
  4 40  1  0
  5 41  1  1
  8 42  1  0
  8 43  1  0
  8 44  1  0
  9 45  1  0
  9 46  1  0
  9 47  1  0
 10 48  1  1
 11 49  1  0
 11 50  1  0
 12 51  1  0
 12 52  1  0
 14 53  1  0
 14 54  1  0
 14 55  1  0
 15 56  1  6
 16 57  1  0
 16 58  1  0
 17 59  1  0
 19 60  1  1
 20 61  1  0
 20 62  1  0
 21 63  1  0
 21 64  1  0
 22 65  1  1
 23 66  1  0
 25 67  1  0
 25 68  1  0
 25 69  1  0
 26 70  1  0
 26 71  1  0
 26 72  1  0
 28 73  1  0
 28 74  1  0
 28 75  1  0
 29 76  1  0
 29 77  1  0
 30 78  1  0
 30 79  1  0
 32 80  1  0
 32 81  1  0
 32 82  1  0
M  END
>  <meeko>  (2) 
{"is_sidechain": [false], "intermolecular_energy": 2.731, "internal_energy": -0.839}

$$$$
EPH_relaxed_0001_pdb2pqr_Repair_376_r2_0001_out
     RDKit          3D

 82 86  0  0  0  0  0  0  0  0999 V2000
    2.3390   18.1400   -2.6430 C   0  0  0  0  0  0  0  0  0  0  0  0
    1.0460   17.7170   -1.9400 C   0  0  2  0  0  0  0  0  0  0  0  0
    1.1750   17.7690   -0.4050 C   0  0  0  0  0  0  0  0  0  0  0  0
    0.8160   19.1300    0.1980 C   0  0  0  0  0  0  0  0  0  0  0  0
   -0.6380   19.2140    0.5520 C   0  0  2  0  0  0  0  0  0  0  0  0
   -1.4780   18.2850   -0.1460 O   0  0  0  0  0  0  0  0  0  0  0  0
   -1.7100   19.6760   -0.4170 C   0  0  0  0  0  0  0  0  0  0  0  0
   -1.3720   20.0880   -1.8160 C   0  0  0  0  0  0  0  0  0  0  0  0
   -3.0010   20.1920    0.1370 C   0  0  0  0  0  0  0  0  0  0  0  0
    0.6500   16.3140   -2.3820 C   0  0  1  0  0  0  0  0  0  0  0  0
    0.8060   16.1030   -3.9120 C   0  0  0  0  0  0  0  0  0  0  0  0
    1.2520   14.6320   -4.1170 C   0  0  0  0  0  0  0  0  0  0  0  0
    1.0180   13.9580   -2.7450 C   0  0  1  0  0  0  0  0  0  0  0  0
   -0.5060   13.6240   -2.7170 C   0  0  0  0  0  0  0  0  0  0  0  0
    1.8910   12.6990   -2.4360 C   0  0  2  0  0  0  0  0  0  0  0  0
    1.6740   11.5060   -3.3830 C   0  0  0  0  0  0  0  0  0  0  0  0
    0.6230   10.5350   -2.9560 C   0  0  0  0  0  0  0  0  0  0  0  0
    0.0840   10.4590   -1.7250 C   0  0  0  0  0  0  0  0  0  0  0  0
    0.5970   11.3450   -0.5830 C   0  0  1  0  0  0  0  0  0  0  0  0
    0.8020   10.4820    0.6900 C   0  0  0  0  0  0  0  0  0  0  0  0
   -0.4510    9.7020    1.0750 C   0  0  0  0  0  0  0  0  0  0  0  0
   -0.8970    8.7890   -0.0640 C   0  0  2  0  0  0  0  0  0  0  0  0
    0.0890    7.7690   -0.2500 O   0  0  0  0  0  0  0  0  0  0  0  0
   -1.1250    9.5460   -1.4020 C   0  0  0  0  0  0  0  0  0  0  0  0
   -2.3890   10.4350   -1.2890 C   0  0  0  0  0  0  0  0  0  0  0  0
   -1.4330    8.4930   -2.5000 C   0  0  0  0  0  0  0  0  0  0  0  0
    1.8630   12.2460   -0.9200 C   0  0  1  0  0  0  0  0  0  0  0  0
    3.1720   11.4370   -0.6720 C   0  0  0  0  0  0  0  0  0  0  0  0
    1.9010   13.4690    0.0710 C   0  0  0  0  0  0  0  0  0  0  0  0
    1.1160   14.7270   -0.3470 C   0  0  0  0  0  0  0  0  0  0  0  0
    1.4500   15.1280   -1.7870 C   0  0  2  0  0  0  0  0  0  0  0  0
    2.9730   15.4920   -1.8420 C   0  0  0  0  0  0  0  0  0  0  0  0
    3.1011   18.3893   -1.8900 H   0  0  0  0  0  0  0  0  0  0  0  0
    2.7016   17.3136   -3.2720 H   0  0  0  0  0  0  0  0  0  0  0  0
    2.1431   19.0209   -3.2720 H   0  0  0  0  0  0  0  0  0  0  0  0
    0.2628   18.4333   -2.2292 H   0  0  0  0  0  0  0  0  0  0  0  0
    0.5044   17.0108    0.0256 H   0  0  0  0  0  0  0  0  0  0  0  0
    2.2318   17.5802   -0.1650 H   0  0  0  0  0  0  0  0  0  0  0  0
    1.4139   19.2854    1.1081 H   0  0  0  0  0  0  0  0  0  0  0  0
    1.0312   19.9048   -0.5525 H   0  0  0  0  0  0  0  0  0  0  0  0
   -0.3943   19.5159    1.5813 H   0  0  0  0  0  0  0  0  0  0  0  0
   -0.6745   20.9382   -1.7895 H   0  0  0  0  0  0  0  0  0  0  0  0
   -0.9022   19.2446   -2.3432 H   0  0  0  0  0  0  0  0  0  0  0  0
   -2.2909   20.3839   -2.3432 H   0  0  0  0  0  0  0  0  0  0  0  0
   -2.9608   20.1759    1.2361 H   0  0  0  0  0  0  0  0  0  0  0  0
   -3.1622   21.2237   -0.2090 H   0  0  0  0  0  0  0  0  0  0  0  0
   -3.8289   19.5557   -0.2090 H   0  0  0  0  0  0  0  0  0  0  0  0
   -0.3863   16.2908   -2.0139 H   0  0  0  0  0  0  0  0  0  0  0  0
   -0.1536   16.2821   -4.4190 H   0  0  0  0  0  0  0  0  0  0  0  0
    1.5431   16.8019   -4.3342 H   0  0  0  0  0  0  0  0  0  0  0  0
    0.6453   14.1474   -4.8961 H   0  0  0  0  0  0  0  0  0  0  0  0
    2.2989   14.5557   -4.4458 H   0  0  0  0  0  0  0  0  0  0  0  0
   -0.8459   13.5495   -1.6735 H   0  0  0  0  0  0  0  0  0  0  0  0
   -1.0655   14.4208   -3.2289 H   0  0  0  0  0  0  0  0  0  0  0  0
   -0.6809   12.6662   -3.2289 H   0  0  0  0  0  0  0  0  0  0  0  0
    2.9087   13.0624   -2.6414 H   0  0  0  0  0  0  0  0  0  0  0  0
    1.3901   11.9022   -4.3691 H   0  0  0  0  0  0  0  0  0  0  0  0
    2.6209   10.9462   -3.3888 H   0  0  0  0  0  0  0  0  0  0  0  0
    0.2588    9.8222   -3.7106 H   0  0  0  0  0  0  0  0  0  0  0  0
   -0.1878   12.0946   -0.4032 H   0  0  0  0  0  0  0  0  0  0  0  0
    1.6186    9.7686    0.5048 H   0  0  0  0  0  0  0  0  0  0  0  0
    1.0402   11.1628    1.5205 H   0  0  0  0  0  0  0  0  0  0  0  0
   -0.2354    9.0902    1.9633 H   0  0  0  0  0  0  0  0  0  0  0  0
   -1.2586   10.4179    1.2877 H   0  0  0  0  0  0  0  0  0  0  0  0
   -1.8674    8.3561    0.2205 H   0  0  0  0  0  0  0  0  0  0  0  0
    0.5150    7.9250   -1.1100 H   0  0  0  0  0  0  0  0  0  0  0  0
   -2.6262   10.6019   -0.2279 H   0  0  0  0  0  0  0  0  0  0  0  0
   -2.2024   11.4018   -1.7794 H   0  0  0  0  0  0  0  0  0  0  0  0
   -3.2357    9.9325   -1.7794 H   0  0  0  0  0  0  0  0  0  0  0  0
   -1.7117    7.5401   -2.0263 H   0  0  0  0  0  0  0  0  0  0  0  0
   -2.2648    8.8485   -3.1259 H   0  0  0  0  0  0  0  0  0  0  0  0
   -0.5408    8.3442   -3.1259 H   0  0  0  0  0  0  0  0  0  0  0  0
    3.3396   11.3334    0.4102 H   0  0  0  0  0  0  0  0  0  0  0  0
    3.0779   10.4393   -1.1256 H   0  0  0  0  0  0  0  0  0  0  0  0
    4.0223   11.9673   -1.1256 H   0  0  0  0  0  0  0  0  0  0  0  0
    1.4952   13.1287    1.0351 H   0  0  0  0  0  0  0  0  0  0  0  0
    2.9547   13.7836    0.0993 H   0  0  0  0  0  0  0  0  0  0  0  0
    0.0382   14.5202   -0.2718 H   0  0  0  0  0  0  0  0  0  0  0  0
    1.3968   15.5541    0.3216 H   0  0  0  0  0  0  0  0  0  0  0  0
    3.3648   15.5856   -0.8184 H   0  0  0  0  0  0  0  0  0  0  0  0
    3.5205   14.6994   -2.3731 H   0  0  0  0  0  0  0  0  0  0  0  0
    3.1029   16.4465   -2.3731 H   0  0  0  0  0  0  0  0  0  0  0  0
  1  2  1  0
  2  3  1  0
  3  4  1  0
  4  5  1  0
  5  6  1  0
  6  7  1  0
  7  8  1  0
  7  9  1  0
  2 10  1  0
 10 11  1  0
 11 12  1  0
 12 13  1  0
 13 14  1  1
 13 15  1  0
 15 16  1  0
 16 17  1  0
 17 18  2  0
 18 19  1  0
 19 20  1  0
 20 21  1  0
 21 22  1  0
 22 23  1  0
 22 24  1  0
 24 25  1  0
 24 26  1  0
 19 27  1  0
 27 28  1  1
 27 29  1  0
 29 30  1  0
 30 31  1  0
 31 32  1  1
  7  5  1  0
 31 10  1  0
 31 13  1  0
 27 15  1  0
 24 18  1  0
  1 33  1  0
  1 34  1  0
  1 35  1  0
  2 36  1  6
  3 37  1  0
  3 38  1  0
  4 39  1  0
  4 40  1  0
  5 41  1  1
  8 42  1  0
  8 43  1  0
  8 44  1  0
  9 45  1  0
  9 46  1  0
  9 47  1  0
 10 48  1  6
 11 49  1  0
 11 50  1  0
 12 51  1  0
 12 52  1  0
 14 53  1  0
 14 54  1  0
 14 55  1  0
 15 56  1  6
 16 57  1  0
 16 58  1  0
 17 59  1  0
 19 60  1  1
 20 61  1  0
 20 62  1  0
 21 63  1  0
 21 64  1  0
 22 65  1  1
 23 66  1  0
 25 67  1  0
 25 68  1  0
 25 69  1  0
 26 70  1  0
 26 71  1  0
 26 72  1  0
 28 73  1  0
 28 74  1  0
 28 75  1  0
 29 76  1  0
 29 77  1  0
 30 78  1  0
 30 79  1  0
 32 80  1  0
 32 81  1  0
 32 82  1  0
M  END
>  <meeko>  (3) 
{"is_sidechain": [false], "intermolecular_energy": 2.731, "internal_energy": -0.839}

$$$$
EPH_relaxed_0001_pdb2pqr_Repair_376_r2_0001_out
     RDKit          3D

 82 86  0  0  0  0  0  0  0  0999 V2000
    0.4360    8.7990   -2.3590 C   0  0  0  0  0  0  0  0  0  0  0  0
    1.1780    9.9420   -3.0570 C   0  0  2  0  0  0  0  0  0  0  0  0
    2.6780    9.9620   -2.7030 C   0  0  0  0  0  0  0  0  0  0  0  0
    3.5610   10.5680   -3.7970 C   0  0  0  0  0  0  0  0  0  0  0  0
    4.9590   10.8090   -3.3110 C   0  0  2  0  0  0  0  0  0  0  0  0
    5.5520   12.0280   -3.7770 O   0  0  0  0  0  0  0  0  0  0  0  0
    6.1720   10.8110   -4.2220 C   0  0  0  0  0  0  0  0  0  0  0  0
    6.0440   10.5650   -5.6930 C   0  0  0  0  0  0  0  0  0  0  0  0
    7.5200   10.5650   -3.6190 C   0  0  0  0  0  0  0  0  0  0  0  0
    0.5380   11.2760   -2.6930 C   0  0  1  0  0  0  0  0  0  0  0  0
   -0.8360   11.1090   -1.9920 C   0  0  0  0  0  0  0  0  0  0  0  0
   -0.9500   12.2520   -0.9510 C   0  0  0  0  0  0  0  0  0  0  0  0
    0.1970   13.2240   -1.3120 C   0  0  1  0  0  0  0  0  0  0  0  0
   -0.3570   14.0770   -2.4960 C   0  0  0  0  0  0  0  0  0  0  0  0
    0.7300   14.1260   -0.1520 C   0  0  2  0  0  0  0  0  0  0  0  0
   -0.3000   15.1030    0.4410 C   0  0  0  0  0  0  0  0  0  0  0  0
   -0.3470   16.4480   -0.2050 C   0  0  0  0  0  0  0  0  0  0  0  0
    0.5920   16.9550   -1.0260 C   0  0  0  0  0  0  0  0  0  0  0  0
    1.8930   16.1910   -1.3010 C   0  0  1  0  0  0  0  0  0  0  0  0
    3.0980   17.1600   -1.1790 C   0  0  0  0  0  0  0  0  0  0  0  0
    2.9490   18.3950   -2.0620 C   0  0  0  0  0  0  0  0  0  0  0  0
    1.6730   19.1600   -1.7190 C   0  0  2  0  0  0  0  0  0  0  0  0
    1.8020   19.7040   -0.4010 O   0  0  0  0  0  0  0  0  0  0  0  0
    0.3930   18.2830   -1.7990 C   0  0  0  0  0  0  0  0  0  0  0  0
    0.0860   17.9420   -3.2780 C   0  0  0  0  0  0  0  0  0  0  0  0
   -0.8020   19.1350   -1.2930 C   0  0  0  0  0  0  0  0  0  0  0  0
    2.1000   14.8520   -0.4710 C   0  0  1  0  0  0  0  0  0  0  0  0
    2.7640   15.1740    0.9030 C   0  0  0  0  0  0  0  0  0  0  0  0
    3.1060   13.9190   -1.2420 C   0  0  0  0  0  0  0  0  0  0  0  0
    2.5040   12.9650   -2.2930 C   0  0  0  0  0  0  0  0  0  0  0  0
    1.3140   12.1930   -1.7140 C   0  0  2  0  0  0  0  0  0  0  0  0
    1.8460   11.3090   -0.5350 C   0  0  0  0  0  0  0  0  0  0  0  0
    0.5157    8.9218   -1.2688 H   0  0  0  0  0  0  0  0  0  0  0  0
   -0.6237    8.8160   -2.6534 H   0  0  0  0  0  0  0  0  0  0  0  0
    0.8829    7.8380   -2.6534 H   0  0  0  0  0  0  0  0  0  0  0  0
    1.0976    9.7755   -4.1414 H   0  0  0  0  0  0  0  0  0  0  0  0
    2.8100   10.5518   -1.7839 H   0  0  0  0  0  0  0  0  0  0  0  0
    2.9928    8.9153   -2.5792 H   0  0  0  0  0  0  0  0  0  0  0  0
    3.5949    9.8763   -4.6517 H   0  0  0  0  0  0  0  0  0  0  0  0
    3.1282   11.5358   -4.0902 H   0  0  0  0  0  0  0  0  0  0  0  0
    4.7466   10.2867   -2.3665 H   0  0  0  0  0  0  0  0  0  0  0  0
    5.5422    9.6007   -5.8612 H   0  0  0  0  0  0  0  0  0  0  0  0
    5.4511   11.3713   -6.1494 H   0  0  0  0  0  0  0  0  0  0  0  0
    7.0446   10.5422   -6.1494 H   0  0  0  0  0  0  0  0  0  0  0  0
    7.4392   10.5797   -2.5221 H   0  0  0  0  0  0  0  0  0  0  0  0
    7.8944    9.5837   -3.9459 H   0  0  0  0  0  0  0  0  0  0  0  0
    8.2169   11.3508   -3.9459 H   0  0  0  0  0  0  0  0  0  0  0  0
    0.4965   11.7381   -3.6903 H   0  0  0  0  0  0  0  0  0  0  0  0
   -1.6489   11.1857   -2.7291 H   0  0  0  0  0  0  0  0  0  0  0  0
   -0.9146   10.1247   -1.5073 H   0  0  0  0  0  0  0  0  0  0  0  0
   -1.9250   12.7549   -1.0316 H   0  0  0  0  0  0  0  0  0  0  0  0
   -0.8750   11.8838    0.0828 H   0  0  0  0  0  0  0  0  0  0  0  0
   -0.9156   14.9371   -2.0983 H   0  0  0  0  0  0  0  0  0  0  0  0
    0.4803   14.4367   -3.1120 H   0  0  0  0  0  0  0  0  0  0  0  0
   -1.0261   13.4583   -3.1120 H   0  0  0  0  0  0  0  0  0  0  0  0
    0.9360   13.3921    0.6410 H   0  0  0  0  0  0  0  0  0  0  0  0
   -1.2960   14.6456    0.3471 H   0  0  0  0  0  0  0  0  0  0  0  0
    0.0083   15.2758    1.4827 H   0  0  0  0  0  0  0  0  0  0  0  0
   -1.2231   17.0783    0.0078 H   0  0  0  0  0  0  0  0  0  0  0  0
    1.8152   15.8202   -2.3337 H   0  0  0  0  0  0  0  0  0  0  0  0
    3.1848   17.4842   -0.1315 H   0  0  0  0  0  0  0  0  0  0  0  0
    3.9960   16.6187   -1.5117 H   0  0  0  0  0  0  0  0  0  0  0  0
    3.8162   19.0541   -1.9085 H   0  0  0  0  0  0  0  0  0  0  0  0
    2.8930   18.0714   -3.1118 H   0  0  0  0  0  0  0  0  0  0  0  0
    1.5544   19.9568   -2.4680 H   0  0  0  0  0  0  0  0  0  0  0  0
    0.9130   19.9540   -0.0980 H   0  0  0  0  0  0  0  0  0  0  0  0
   -0.6494   17.1251   -3.3209 H   0  0  0  0  0  0  0  0  0  0  0  0
   -0.3228   18.8303   -3.7818 H   0  0  0  0  0  0  0  0  0  0  0  0
    1.0122   17.6284   -3.7818 H   0  0  0  0  0  0  0  0  0  0  0  0
   -0.8090   19.1400   -0.1930 H   0  0  0  0  0  0  0  0  0  0  0  0
   -0.7005   20.1657   -1.6637 H   0  0  0  0  0  0  0  0  0  0  0  0
   -1.7433   18.7031   -1.6637 H   0  0  0  0  0  0  0  0  0  0  0  0
    2.0980   14.8510    1.7167 H   0  0  0  0  0  0  0  0  0  0  0  0
    3.7230   14.6409    0.9807 H   0  0  0  0  0  0  0  0  0  0  0  0
    2.9393   16.2572    0.9807 H   0  0  0  0  0  0  0  0  0  0  0  0
    3.8318   14.5657   -1.7567 H   0  0  0  0  0  0  0  0  0  0  0  0
    3.5378   13.2629   -0.4718 H   0  0  0  0  0  0  0  0  0  0  0  0
    2.1652   13.5517   -3.1596 H   0  0  0  0  0  0  0  0  0  0  0  0
    3.2770   12.2432   -2.5956 H   0  0  0  0  0  0  0  0  0  0  0  0
    1.5681   11.7708    0.4239 H   0  0  0  0  0  0  0  0  0  0  0  0
    1.4022   10.3046   -0.6006 H   0  0  0  0  0  0  0  0  0  0  0  0
    2.9413   11.2309   -0.6006 H   0  0  0  0  0  0  0  0  0  0  0  0
  1  2  1  0
  2  3  1  0
  3  4  1  0
  4  5  1  0
  5  6  1  0
  6  7  1  0
  7  8  1  0
  7  9  1  0
  2 10  1  0
 10 11  1  0
 11 12  1  0
 12 13  1  0
 13 14  1  6
 13 15  1  0
 15 16  1  0
 16 17  1  0
 17 18  2  0
 18 19  1  0
 19 20  1  0
 20 21  1  0
 21 22  1  0
 22 23  1  0
 22 24  1  0
 24 25  1  0
 24 26  1  0
 19 27  1  0
 27 28  1  1
 27 29  1  0
 29 30  1  0
 30 31  1  0
 31 32  1  1
  7  5  1  0
 31 10  1  0
 31 13  1  0
 27 15  1  0
 24 18  1  0
  1 33  1  0
  1 34  1  0
  1 35  1  0
  2 36  1  6
  3 37  1  0
  3 38  1  0
  4 39  1  0
  4 40  1  0
  5 41  1  1
  8 42  1  0
  8 43  1  0
  8 44  1  0
  9 45  1  0
  9 46  1  0
  9 47  1  0
 10 48  1  6
 11 49  1  0
 11 50  1  0
 12 51  1  0
 12 52  1  0
 14 53  1  0
 14 54  1  0
 14 55  1  0
 15 56  1  1
 16 57  1  0
 16 58  1  0
 17 59  1  0
 19 60  1  6
 20 61  1  0
 20 62  1  0
 21 63  1  0
 21 64  1  0
 22 65  1  6
 23 66  1  0
 25 67  1  0
 25 68  1  0
 25 69  1  0
 26 70  1  0
 26 71  1  0
 26 72  1  0
 28 73  1  0
 28 74  1  0
 28 75  1  0
 29 76  1  0
 29 77  1  0
 30 78  1  0
 30 79  1  0
 32 80  1  0
 32 81  1  0
 32 82  1  0
M  END
>  <meeko>  (4) 
{"is_sidechain": [false], "intermolecular_energy": 2.731, "internal_energy": -0.839}

$$$$
EPH_relaxed_0001_pdb2pqr_Repair_376_r2_0001_out
     RDKit          3D

 82 86  0  0  0  0  0  0  0  0999 V2000
   -0.2520   10.5670   -4.1000 C   0  0  0  0  0  0  0  0  0  0  0  0
    0.9250   10.3660   -3.1420 C   0  0  2  0  0  0  0  0  0  0  0  0
    0.8370    9.0250   -2.3860 C   0  0  0  0  0  0  0  0  0  0  0  0
   -0.5850    8.6530   -1.9550 C   0  0  0  0  0  0  0  0  0  0  0  0
   -0.8380    9.0030   -0.5200 C   0  0  2  0  0  0  0  0  0  0  0  0
   -2.2220    9.0370   -0.1480 O   0  0  0  0  0  0  0  0  0  0  0  0
   -1.5160   10.2860   -0.0780 C   0  0  0  0  0  0  0  0  0  0  0  0
   -1.9810   11.3050   -1.0710 C   0  0  0  0  0  0  0  0  0  0  0  0
   -1.2860   10.7720    1.3190 C   0  0  0  0  0  0  0  0  0  0  0  0
    0.9890   11.5200   -2.1480 C   0  0  1  0  0  0  0  0  0  0  0  0
    2.0250   11.2800   -1.0190 C   0  0  0  0  0  0  0  0  0  0  0  0
    2.6380   12.6610   -0.6720 C   0  0  0  0  0  0  0  0  0  0  0  0
    1.7100   13.6850   -1.3670 C   0  0  1  0  0  0  0  0  0  0  0  0
    0.4930   13.8420   -0.4030 C   0  0  0  0  0  0  0  0  0  0  0  0
    2.3480   15.0670   -1.7210 C   0  0  2  0  0  0  0  0  0  0  0  0
    2.8320   15.8900   -0.5140 C   0  0  0  0  0  0  0  0  0  0  0  0
    1.8220   16.8220    0.0690 C   0  0  0  0  0  0  0  0  0  0  0  0
    0.6760   17.2030   -0.5250 C   0  0  0  0  0  0  0  0  0  0  0  0
    0.3450   16.7620   -1.9560 C   0  0  1  0  0  0  0  0  0  0  0  0
   -0.1540   17.9830   -2.7720 C   0  0  0  0  0  0  0  0  0  0  0  0
   -1.3210   18.7000   -2.0990 C   0  0  0  0  0  0  0  0  0  0  0  0
   -0.9350   19.1740   -0.7000 C   0  0  2  0  0  0  0  0  0  0  0  0
    0.0620   20.1940   -0.8190 O   0  0  0  0  0  0  0  0  0  0  0  0
   -0.4070   18.0310    0.2110 C   0  0  0  0  0  0  0  0  0  0  0  0
   -1.5730   17.0830    0.5850 C   0  0  0  0  0  0  0  0  0  0  0  0
    0.0790   18.6670    1.5410 C   0  0  0  0  0  0  0  0  0  0  0  0
    1.4820   15.9470   -2.7100 C   0  0  1  0  0  0  0  0  0  0  0  0
    2.4680   16.9330   -3.4090 C   0  0  0  0  0  0  0  0  0  0  0  0
    0.8260   15.0890   -3.8560 C   0  0  0  0  0  0  0  0  0  0  0  0
    0.3230   13.6850   -3.4700 C   0  0  0  0  0  0  0  0  0  0  0  0
    1.3950   12.9100   -2.6990 C   0  0  2  0  0  0  0  0  0  0  0  0
    2.6240   12.7180   -3.6510 C   0  0  0  0  0  0  0  0  0  0  0  0
   -1.1737   10.7244   -3.5205 H   0  0  0  0  0  0  0  0  0  0  0  0
   -0.0629   11.4458   -4.7339 H   0  0  0  0  0  0  0  0  0  0  0  0
   -0.3652    9.6752   -4.7339 H   0  0  0  0  0  0  0  0  0  0  0  0
    1.8433   10.3442   -3.7471 H   0  0  0  0  0  0  0  0  0  0  0  0
    1.2198    8.2302   -3.0431 H   0  0  0  0  0  0  0  0  0  0  0  0
    1.4329    9.1340   -1.4678 H   0  0  0  0  0  0  0  0  0  0  0  0
   -1.3028    9.1969   -2.5866 H   0  0  0  0  0  0  0  0  0  0  0  0
   -0.7048    7.5655   -2.0693 H   0  0  0  0  0  0  0  0  0  0  0  0
    0.1023    8.5221   -0.2125 H   0  0  0  0  0  0  0  0  0  0  0  0
   -2.3805   12.1805   -0.5382 H   0  0  0  0  0  0  0  0  0  0  0  0
   -1.1350   11.6145   -1.7023 H   0  0  0  0  0  0  0  0  0  0  0  0
   -2.7692   10.8688   -1.7023 H   0  0  0  0  0  0  0  0  0  0  0  0
   -1.6437   10.0162    2.0337 H   0  0  0  0  0  0  0  0  0  0  0  0
   -0.2108   10.9443    1.4749 H   0  0  0  0  0  0  0  0  0  0  0  0
   -1.8345   11.7127    1.4749 H   0  0  0  0  0  0  0  0  0  0  0  0
   -0.0600   11.5373   -1.8175 H   0  0  0  0  0  0  0  0  0  0  0  0
    1.5293   10.8529   -0.1348 H   0  0  0  0  0  0  0  0  0  0  0  0
    2.8033   10.5727   -1.3415 H   0  0  0  0  0  0  0  0  0  0  0  0
    2.6458   12.8201    0.4164 H   0  0  0  0  0  0  0  0  0  0  0  0
    3.6822   12.7500   -1.0063 H   0  0  0  0  0  0  0  0  0  0  0  0
    0.8425   13.7969    0.6390 H   0  0  0  0  0  0  0  0  0  0  0  0
    0.0042   14.8106   -0.5842 H   0  0  0  0  0  0  0  0  0  0  0  0
   -0.2256   13.0291   -0.5842 H   0  0  0  0  0  0  0  0  0  0  0  0
    3.2566   14.7740   -2.2675 H   0  0  0  0  0  0  0  0  0  0  0  0
    3.1412   15.1877    0.2742 H   0  0  0  0  0  0  0  0  0  0  0  0
    3.6509   16.5231   -0.8863 H   0  0  0  0  0  0  0  0  0  0  0  0
    2.0321   17.2318    1.0680 H   0  0  0  0  0  0  0  0  0  0  0  0
   -0.4611   16.0189   -1.8668 H   0  0  0  0  0  0  0  0  0  0  0  0
    0.6775   18.6939   -2.8868 H   0  0  0  0  0  0  0  0  0  0  0  0
   -0.5071   17.6119   -3.7455 H   0  0  0  0  0  0  0  0  0  0  0  0
   -1.6084   19.5701   -2.7076 H   0  0  0  0  0  0  0  0  0  0  0  0
   -2.1626   17.9971   -2.0123 H   0  0  0  0  0  0  0  0  0  0  0  0
   -1.8456   19.5614   -0.2197 H   0  0  0  0  0  0  0  0  0  0  0  0
    0.4620   20.1140   -1.7010 H   0  0  0  0  0  0  0  0  0  0  0  0
   -1.6547   17.0165    1.6799 H   0  0  0  0  0  0  0  0  0  0  0  0
   -2.5128   17.4764    0.1704 H   0  0  0  0  0  0  0  0  0  0  0  0
   -1.3797   16.0827    0.1704 H   0  0  0  0  0  0  0  0  0  0  0  0
   -0.3457   18.1112    2.3899 H   0  0  0  0  0  0  0  0  0  0  0  0
    1.1772   18.6249    1.5878 H   0  0  0  0  0  0  0  0  0  0  0  0
   -0.2501   19.7156    1.5878 H   0  0  0  0  0  0  0  0  0  0  0  0
    3.0284   17.4934   -2.6462 H   0  0  0  0  0  0  0  0  0  0  0  0
    3.1706   16.3654   -4.0369 H   0  0  0  0  0  0  0  0  0  0  0  0
    1.9004   17.6356   -4.0369 H   0  0  0  0  0  0  0  0  0  0  0  0
   -0.0330   15.6550   -4.2456 H   0  0  0  0  0  0  0  0  0  0  0  0
    1.6321   14.9163   -4.5843 H   0  0  0  0  0  0  0  0  0  0  0  0
   -0.5724   13.7848   -2.8388 H   0  0  0  0  0  0  0  0  0  0  0  0
    0.0860   13.1325   -4.3912 H   0  0  0  0  0  0  0  0  0  0  0  0
    3.5344   12.5758   -3.0503 H   0  0  0  0  0  0  0  0  0  0  0  0
    2.4617   11.8343   -4.2856 H   0  0  0  0  0  0  0  0  0  0  0  0
    2.7389   13.6091   -4.2856 H   0  0  0  0  0  0  0  0  0  0  0  0
  1  2  1  0
  2  3  1  0
  3  4  1  0
  4  5  1  0
  5  6  1  0
  6  7  1  0
  7  8  1  0
  7  9  1  0
  2 10  1  0
 10 11  1  0
 11 12  1  0
 12 13  1  0
 13 14  1  1
 13 15  1  0
 15 16  1  0
 16 17  1  0
 17 18  2  0
 18 19  1  0
 19 20  1  0
 20 21  1  0
 21 22  1  0
 22 23  1  0
 22 24  1  0
 24 25  1  0
 24 26  1  0
 19 27  1  0
 27 28  1  6
 27 29  1  0
 29 30  1  0
 30 31  1  0
 31 32  1  6
  7  5  1  0
 31 10  1  0
 31 13  1  0
 27 15  1  0
 24 18  1  0
  1 33  1  0
  1 34  1  0
  1 35  1  0
  2 36  1  6
  3 37  1  0
  3 38  1  0
  4 39  1  0
  4 40  1  0
  5 41  1  1
  8 42  1  0
  8 43  1  0
  8 44  1  0
  9 45  1  0
  9 46  1  0
  9 47  1  0
 10 48  1  1
 11 49  1  0
 11 50  1  0
 12 51  1  0
 12 52  1  0
 14 53  1  0
 14 54  1  0
 14 55  1  0
 15 56  1  6
 16 57  1  0
 16 58  1  0
 17 59  1  0
 19 60  1  1
 20 61  1  0
 20 62  1  0
 21 63  1  0
 21 64  1  0
 22 65  1  1
 23 66  1  0
 25 67  1  0
 25 68  1  0
 25 69  1  0
 26 70  1  0
 26 71  1  0
 26 72  1  0
 28 73  1  0
 28 74  1  0
 28 75  1  0
 29 76  1  0
 29 77  1  0
 30 78  1  0
 30 79  1  0
 32 80  1  0
 32 81  1  0
 32 82  1  0
M  END
>  <meeko>  (5) 
{"is_sidechain": [false], "intermolecular_energy": 2.731, "internal_energy": -0.839}

$$$$
EPH_relaxed_0001_pdb2pqr_Repair_376_r2_0001_out
     RDKit          3D

 82 86  0  0  0  0  0  0  0  0999 V2000
    0.1500   17.7990   -2.5560 C   0  0  0  0  0  0  0  0  0  0  0  0
   -0.1100   16.8950   -1.3480 C   0  0  2  0  0  0  0  0  0  0  0  0
   -0.1780   17.6920   -0.0300 C   0  0  0  0  0  0  0  0  0  0  0  0
    0.4360   19.0910   -0.1240 C   0  0  0  0  0  0  0  0  0  0  0  0
    1.5950   19.2530    0.8120 C   0  0  2  0  0  0  0  0  0  0  0  0
    2.5870   20.1940    0.3810 O   0  0  0  0  0  0  0  0  0  0  0  0
    3.0110   18.8250    0.4730 C   0  0  0  0  0  0  0  0  0  0  0  0
    3.3420   18.2010   -0.8470 C   0  0  0  0  0  0  0  0  0  0  0  0
    3.9680   18.5640    1.5940 C   0  0  0  0  0  0  0  0  0  0  0  0
    0.9730   15.8260   -1.2550 C   0  0  1  0  0  0  0  0  0  0  0  0
    1.1760   15.3050    0.1930 C   0  0  0  0  0  0  0  0  0  0  0  0
    1.5260   13.7990    0.0810 C   0  0  0  0  0  0  0  0  0  0  0  0
    1.8380   13.5810   -1.4180 C   0  0  1  0  0  0  0  0  0  0  0  0
    3.3110   14.0660   -1.5960 C   0  0  0  0  0  0  0  0  0  0  0  0
    1.6390   12.1290   -1.9620 C   0  0  2  0  0  0  0  0  0  0  0  0
    2.5440   11.0630   -1.3210 C   0  0  0  0  0  0  0  0  0  0  0  0
    3.8510   10.8390   -2.0080 C   0  0  0  0  0  0  0  0  0  0  0  0
    4.1640   11.2570   -3.2490 C   0  0  0  0  0  0  0  0  0  0  0  0
    3.1190   11.9490   -4.1340 C   0  0  1  0  0  0  0  0  0  0  0  0
    3.1580   11.3350   -5.5580 C   0  0  0  0  0  0  0  0  0  0  0  0
    4.5540   11.3670   -6.1710 C   0  0  0  0  0  0  0  0  0  0  0  0
    5.5530   10.6190   -5.2910 C   0  0  2  0  0  0  0  0  0  0  0  0
    5.2180    9.2280   -5.2930 O   0  0  0  0  0  0  0  0  0  0  0  0
    5.5950   11.1450   -3.8290 C   0  0  0  0  0  0  0  0  0  0  0  0
    6.2440   12.5510   -3.7990 C   0  0  0  0  0  0  0  0  0  0  0  0
    6.5360   10.2160   -3.0140 C   0  0  0  0  0  0  0  0  0  0  0  0
    1.6460   12.0210   -3.5400 C   0  0  1  0  0  0  0  0  0  0  0  0
    0.8630   10.7220   -3.9010 C   0  0  0  0  0  0  0  0  0  0  0  0
    0.8730   13.2100   -4.2250 C   0  0  0  0  0  0  0  0  0  0  0  0
    1.0140   14.5980   -3.5710 C   0  0  0  0  0  0  0  0  0  0  0  0
    0.7570   14.5220   -2.0630 C   0  0  2  0  0  0  0  0  0  0  0  0
   -0.7250   14.0590   -1.8540 C   0  0  0  0  0  0  0  0  0  0  0  0
    0.4384   18.8019   -2.2081 H   0  0  0  0  0  0  0  0  0  0  0  0
    0.9623   17.3740   -3.1639 H   0  0  0  0  0  0  0  0  0  0  0  0
   -0.7640   17.8706   -3.1639 H   0  0  0  0  0  0  0  0  0  0  0  0
   -1.0903   16.4187   -1.4968 H   0  0  0  0  0  0  0  0  0  0  0  0
   -1.2343   17.7951    0.2593 H   0  0  0  0  0  0  0  0  0  0  0  0
    0.4085   17.1331    0.7140 H   0  0  0  0  0  0  0  0  0  0  0  0
    0.7837   19.2590   -1.1540 H   0  0  0  0  0  0  0  0  0  0  0  0
   -0.3356   19.8231    0.1566 H   0  0  0  0  0  0  0  0  0  0  0  0
    0.9510   19.0516    1.6807 H   0  0  0  0  0  0  0  0  0  0  0  0
    3.8516   17.2404   -0.6810 H   0  0  0  0  0  0  0  0  0  0  0  0
    2.4154   18.0312   -1.4149 H   0  0  0  0  0  0  0  0  0  0  0  0
    4.0023   18.8729   -1.4149 H   0  0  0  0  0  0  0  0  0  0  0  0
    3.4531   18.7044    2.5559 H   0  0  0  0  0  0  0  0  0  0  0  0
    4.3408   17.5314    1.5250 H   0  0  0  0  0  0  0  0  0  0  0  0
    4.8134   19.2644    1.5250 H   0  0  0  0  0  0  0  0  0  0  0  0
    1.8227   16.3887   -1.6690 H   0  0  0  0  0  0  0  0  0  0  0  0
    1.9982   15.8499    0.6799 H   0  0  0  0  0  0  0  0  0  0  0  0
    0.2698   15.4561    0.7980 H   0  0  0  0  0  0  0  0  0  0  0  0
    2.4031   13.5572    0.6993 H   0  0  0  0  0  0  0  0  0  0  0  0
    0.7087   13.1535    0.4350 H   0  0  0  0  0  0  0  0  0  0  0  0
    3.7693   14.2169   -0.6075 H   0  0  0  0  0  0  0  0  0  0  0  0
    3.8817   13.3083   -2.1530 H   0  0  0  0  0  0  0  0  0  0  0  0
    3.3200   15.0145   -2.1530 H   0  0  0  0  0  0  0  0  0  0  0  0
    0.6172   11.8912   -1.6314 H   0  0  0  0  0  0  0  0  0  0  0  0
    2.7525   11.3719   -0.2861 H   0  0  0  0  0  0  0  0  0  0  0  0
    1.9946   10.1129   -1.3950 H   0  0  0  0  0  0  0  0  0  0  0  0
    4.6232   10.2858   -1.4533 H   0  0  0  0  0  0  0  0  0  0  0  0
    3.4102   13.0089   -4.1769 H   0  0  0  0  0  0  0  0  0  0  0  0
    2.8222   10.2891   -5.5003 H   0  0  0  0  0  0  0  0  0  0  0  0
    2.4980   11.9375   -6.1994 H   0  0  0  0  0  0  0  0  0  0  0  0
    4.5226   10.8930   -7.1631 H   0  0  0  0  0  0  0  0  0  0  0  0
    4.8765   12.4152   -6.2559 H   0  0  0  0  0  0  0  0  0  0  0  0
    6.5549   10.7864   -5.7132 H   0  0  0  0  0  0  0  0  0  0  0  0
    5.8460    8.7730   -4.7060 H   0  0  0  0  0  0  0  0  0  0  0  0
    6.3892   12.8656   -2.7550 H   0  0  0  0  0  0  0  0  0  0  0  0
    7.2173   12.5166   -4.3103 H   0  0  0  0  0  0  0  0  0  0  0  0
    5.5864   13.2694   -4.3103 H   0  0  0  0  0  0  0  0  0  0  0  0
    6.3709   10.3790   -1.9387 H   0  0  0  0  0  0  0  0  0  0  0  0
    6.3208    9.1664   -3.2630 H   0  0  0  0  0  0  0  0  0  0  0  0
    7.5827   10.4447   -3.2630 H   0  0  0  0  0  0  0  0  0  0  0  0
    0.5549   10.2108   -2.9770 H   0  0  0  0  0  0  0  0  0  0  0  0
   -0.0284   10.9830   -4.4904 H   0  0  0  0  0  0  0  0  0  0  0  0
    1.5100   10.0557   -4.4904 H   0  0  0  0  0  0  0  0  0  0  0  0
    1.2367   13.2912   -5.2599 H   0  0  0  0  0  0  0  0  0  0  0  0
   -0.1925   12.9537   -4.1299 H   0  0  0  0  0  0  0  0  0  0  0  0
    2.0326   14.9755   -3.7439 H   0  0  0  0  0  0  0  0  0  0  0  0
    0.2715   15.2743   -4.0197 H   0  0  0  0  0  0  0  0  0  0  0  0
   -0.9398   13.9919   -0.7773 H   0  0  0  0  0  0  0  0  0  0  0  0
   -1.4057   14.7873   -2.3190 H   0  0  0  0  0  0  0  0  0  0  0  0
   -0.8701   13.0727   -2.3190 H   0  0  0  0  0  0  0  0  0  0  0  0
  1  2  1  0
  2  3  1  0
  3  4  1  0
  4  5  1  0
  5  6  1  0
  6  7  1  0
  7  8  1  0
  7  9  1  0
  2 10  1  0
 10 11  1  0
 11 12  1  0
 12 13  1  0
 13 14  1  1
 13 15  1  0
 15 16  1  0
 16 17  1  0
 17 18  2  0
 18 19  1  0
 19 20  1  0
 20 21  1  0
 21 22  1  0
 22 23  1  0
 22 24  1  0
 24 25  1  0
 24 26  1  0
 19 27  1  0
 27 28  1  1
 27 29  1  0
 29 30  1  0
 30 31  1  0
 31 32  1  6
  7  5  1  0
 31 10  1  0
 31 13  1  0
 27 15  1  0
 24 18  1  0
  1 33  1  0
  1 34  1  0
  1 35  1  0
  2 36  1  6
  3 37  1  0
  3 38  1  0
  4 39  1  0
  4 40  1  0
  5 41  1  1
  8 42  1  0
  8 43  1  0
  8 44  1  0
  9 45  1  0
  9 46  1  0
  9 47  1  0
 10 48  1  6
 11 49  1  0
 11 50  1  0
 12 51  1  0
 12 52  1  0
 14 53  1  0
 14 54  1  0
 14 55  1  0
 15 56  1  1
 16 57  1  0
 16 58  1  0
 17 59  1  0
 19 60  1  6
 20 61  1  0
 20 62  1  0
 21 63  1  0
 21 64  1  0
 22 65  1  6
 23 66  1  0
 25 67  1  0
 25 68  1  0
 25 69  1  0
 26 70  1  0
 26 71  1  0
 26 72  1  0
 28 73  1  0
 28 74  1  0
 28 75  1  0
 29 76  1  0
 29 77  1  0
 30 78  1  0
 30 79  1  0
 32 80  1  0
 32 81  1  0
 32 82  1  0
M  END
>  <meeko>  (6) 
{"is_sidechain": [false], "intermolecular_energy": 2.731, "internal_energy": -0.839}

$$$$
EPH_relaxed_0001_pdb2pqr_Repair_376_r2_0001_out
     RDKit          3D

 82 86  0  0  0  0  0  0  0  0999 V2000
    3.5690   18.4630   -2.4450 C   0  0  0  0  0  0  0  0  0  0  0  0
    2.2830   17.6690   -2.6880 C   0  0  2  0  0  0  0  0  0  0  0  0
    1.0240   18.4630   -2.2850 C   0  0  0  0  0  0  0  0  0  0  0  0
    1.1970   19.2810   -1.0030 C   0  0  0  0  0  0  0  0  0  0  0  0
   -0.0670   19.9900   -0.6230 C   0  0  2  0  0  0  0  0  0  0  0  0
   -0.2390   20.1940    0.7860 O   0  0  0  0  0  0  0  0  0  0  0  0
   -1.1960   19.3320    0.1500 C   0  0  0  0  0  0  0  0  0  0  0  0
   -1.1120   17.9030    0.5870 C   0  0  0  0  0  0  0  0  0  0  0  0
   -2.5680   19.9210    0.0530 C   0  0  0  0  0  0  0  0  0  0  0  0
    2.3340   16.3510   -1.9240 C   0  0  1  0  0  0  0  0  0  0  0  0
    2.6570   16.5450   -0.4190 C   0  0  0  0  0  0  0  0  0  0  0  0
    1.8620   15.4610    0.3530 C   0  0  0  0  0  0  0  0  0  0  0  0
    1.3770   14.4800   -0.7410 C   0  0  1  0  0  0  0  0  0  0  0  0
    2.6040   13.5580   -1.0250 C   0  0  0  0  0  0  0  0  0  0  0  0
    0.0960   13.6500   -0.4050 C   0  0  2  0  0  0  0  0  0  0  0  0
    0.2320   12.6970    0.7960 C   0  0  0  0  0  0  0  0  0  0  0  0
    0.6980   11.3180    0.4670 C   0  0  0  0  0  0  0  0  0  0  0  0
    0.7250   10.7740   -0.7640 C   0  0  0  0  0  0  0  0  0  0  0  0
    0.1620   11.5330   -1.9730 C   0  0  1  0  0  0  0  0  0  0  0  0
   -0.7350   10.5840   -2.8090 C   0  0  0  0  0  0  0  0  0  0  0  0
   -0.0140    9.3000   -3.2100 C   0  0  0  0  0  0  0  0  0  0  0  0
    0.4790    8.5440   -1.9790 C   0  0  2  0  0  0  0  0  0  0  0  0
   -0.6530    8.0760   -1.2410 O   0  0  0  0  0  0  0  0  0  0  0  0
    1.3860    9.4040   -1.0550 C   0  0  0  0  0  0  0  0  0  0  0  0
    2.7460    9.6590   -1.7500 C   0  0  0  0  0  0  0  0  0  0  0  0
    1.6980    8.5710    0.2170 C   0  0  0  0  0  0  0  0  0  0  0  0
   -0.5480   12.9190   -1.6520 C   0  0  1  0  0  0  0  0  0  0  0  0
   -2.0480   12.6790   -1.3030 C   0  0  0  0  0  0  0  0  0  0  0  0
   -0.5310   13.8160   -2.9460 C   0  0  0  0  0  0  0  0  0  0  0  0
    0.7100   14.7040   -3.1600 C   0  0  0  0  0  0  0  0  0  0  0  0
    1.0420   15.4970   -1.8920 C   0  0  2  0  0  0  0  0  0  0  0  0
   -0.1650   16.4500   -1.5940 C   0  0  0  0  0  0  0  0  0  0  0  0
    3.7369   18.5667   -1.3629 H   0  0  0  0  0  0  0  0  0  0  0  0
    4.4189   17.9322   -2.8988 H   0  0  0  0  0  0  0  0  0  0  0  0
    3.4752   19.4606   -2.8988 H   0  0  0  0  0  0  0  0  0  0  0  0
    2.2161   17.4710   -3.7680 H   0  0  0  0  0  0  0  0  0  0  0  0
    0.7703   19.1514   -3.1046 H   0  0  0  0  0  0  0  0  0  0  0  0
    0.2283   17.7282   -2.0927 H   0  0  0  0  0  0  0  0  0  0  0  0
    1.4861   18.6048   -0.1850 H   0  0  0  0  0  0  0  0  0  0  0  0
    1.9744   20.0384   -1.1819 H   0  0  0  0  0  0  0  0  0  0  0  0
   -0.0520   20.5678   -1.5589 H   0  0  0  0  0  0  0  0  0  0  0  0
   -1.1092   17.8552    1.6860 H   0  0  0  0  0  0  0  0  0  0  0  0
   -1.9791   17.3491    0.1981 H   0  0  0  0  0  0  0  0  0  0  0  0
   -0.1859   17.4545    0.1981 H   0  0  0  0  0  0  0  0  0  0  0  0
   -2.9660   20.0919    1.0641 H   0  0  0  0  0  0  0  0  0  0  0  0
   -2.5190   20.8774   -0.4882 H   0  0  0  0  0  0  0  0  0  0  0  0
   -3.2276   19.2268   -0.4882 H   0  0  0  0  0  0  0  0  0  0  0  0
    3.1131   15.8329   -2.5024 H   0  0  0  0  0  0  0  0  0  0  0  0
    3.7358   16.4200   -0.2440 H   0  0  0  0  0  0  0  0  0  0  0  0
    2.3776   17.5542   -0.0822 H   0  0  0  0  0  0  0  0  0  0  0  0
    2.5103   14.9457    1.0770 H   0  0  0  0  0  0  0  0  0  0  0  0
    1.0285   15.8870    0.9308 H   0  0  0  0  0  0  0  0  0  0  0  0
    3.0431   13.2281   -0.0719 H   0  0  0  0  0  0  0  0  0  0  0  0
    2.2773   12.6801   -1.6016 H   0  0  0  0  0  0  0  0  0  0  0  0
    3.3564   14.1161   -1.6016 H   0  0  0  0  0  0  0  0  0  0  0  0
   -0.6136   14.4291   -0.0895 H   0  0  0  0  0  0  0  0  0  0  0  0
    0.9511   13.1394    1.5010 H   0  0  0  0  0  0  0  0  0  0  0  0
   -0.7805   12.5847    1.2111 H   0  0  0  0  0  0  0  0  0  0  0  0
    1.0493   10.6930    1.3013 H   0  0  0  0  0  0  0  0  0  0  0  0
    1.0327   11.8439   -2.5691 H   0  0  0  0  0  0  0  0  0  0  0  0
   -1.6207   10.3196   -2.2126 H   0  0  0  0  0  0  0  0  0  0  0  0
   -1.0122   11.1137   -3.7323 H   0  0  0  0  0  0  0  0  0  0  0  0
   -0.7079    8.6582   -3.7727 H   0  0  0  0  0  0  0  0  0  0  0  0
    0.8547    9.5644   -3.8309 H   0  0  0  0  0  0  0  0  0  0  0  0
    1.0965    7.7052   -2.3326 H   0  0  0  0  0  0  0  0  0  0  0  0
   -0.9820    8.8170   -0.7050 H   0  0  0  0  0  0  0  0  0  0  0  0
    3.5256    9.8052   -0.9878 H   0  0  0  0  0  0  0  0  0  0  0  0
    3.0048    8.7937   -2.3780 H   0  0  0  0  0  0  0  0  0  0  0  0
    2.6738   10.5593   -2.3780 H   0  0  0  0  0  0  0  0  0  0  0  0
    1.4736    9.1701    1.1118 H   0  0  0  0  0  0  0  0  0  0  0  0
    1.0797    7.6612    0.2203 H   0  0  0  0  0  0  0  0  0  0  0  0
    2.7618    8.2913    0.2203 H   0  0  0  0  0  0  0  0  0  0  0  0
   -2.1716   12.6592   -0.2101 H   0  0  0  0  0  0  0  0  0  0  0  0
   -2.6574   13.4911   -1.7263 H   0  0  0  0  0  0  0  0  0  0  0  0
   -2.3736   11.7173   -1.7263 H   0  0  0  0  0  0  0  0  0  0  0  0
   -0.6156   13.1474   -3.8154 H   0  0  0  0  0  0  0  0  0  0  0  0
   -1.3687   14.5178   -2.8206 H   0  0  0  0  0  0  0  0  0  0  0  0
    1.5678   14.0667   -3.4208 H   0  0  0  0  0  0  0  0  0  0  0  0
    0.4971   15.4145   -3.9723 H   0  0  0  0  0  0  0  0  0  0  0  0
   -0.2927   16.5508   -0.5061 H   0  0  0  0  0  0  0  0  0  0  0  0
    0.0316   17.4391   -2.0333 H   0  0  0  0  0  0  0  0  0  0  0  0
   -1.0815   16.0293   -2.0333 H   0  0  0  0  0  0  0  0  0  0  0  0
  1  2  1  0
  2  3  1  0
  3  4  1  0
  4  5  1  0
  5  6  1  0
  6  7  1  0
  7  8  1  0
  7  9  1  0
  2 10  1  0
 10 11  1  0
 11 12  1  0
 12 13  1  0
 13 14  1  6
 13 15  1  0
 15 16  1  0
 16 17  1  0
 17 18  2  0
 18 19  1  0
 19 20  1  0
 20 21  1  0
 21 22  1  0
 22 23  1  0
 22 24  1  0
 24 25  1  0
 24 26  1  0
 19 27  1  0
 27 28  1  1
 27 29  1  0
 29 30  1  0
 30 31  1  0
 31 32  1  1
  7  5  1  0
 31 10  1  0
 31 13  1  0
 27 15  1  0
 24 18  1  0
  1 33  1  0
  1 34  1  0
  1 35  1  0
  2 36  1  6
  3 37  1  0
  3 38  1  0
  4 39  1  0
  4 40  1  0
  5 41  1  6
  8 42  1  0
  8 43  1  0
  8 44  1  0
  9 45  1  0
  9 46  1  0
  9 47  1  0
 10 48  1  6
 11 49  1  0
 11 50  1  0
 12 51  1  0
 12 52  1  0
 14 53  1  0
 14 54  1  0
 14 55  1  0
 15 56  1  1
 16 57  1  0
 16 58  1  0
 17 59  1  0
 19 60  1  6
 20 61  1  0
 20 62  1  0
 21 63  1  0
 21 64  1  0
 22 65  1  6
 23 66  1  0
 25 67  1  0
 25 68  1  0
 25 69  1  0
 26 70  1  0
 26 71  1  0
 26 72  1  0
 28 73  1  0
 28 74  1  0
 28 75  1  0
 29 76  1  0
 29 77  1  0
 30 78  1  0
 30 79  1  0
 32 80  1  0
 32 81  1  0
 32 82  1  0
M  END
>  <meeko>  (7) 
{"is_sidechain": [false], "intermolecular_energy": 2.731, "internal_energy": -0.839}

$$$$
EPH_relaxed_0001_pdb2pqr_Repair_376_r2_0001_out
     RDKit          3D

 82 86  0  0  0  0  0  0  0  0999 V2000
   -0.9160   16.3860   -5.8920 C   0  0  0  0  0  0  0  0  0  0  0  0
    0.1880   15.6900   -6.6920 C   0  0  2  0  0  0  0  0  0  0  0  0
   -0.2050   15.4840   -8.1690 C   0  0  0  0  0  0  0  0  0  0  0  0
    0.4400   16.4920   -9.1240 C   0  0  0  0  0  0  0  0  0  0  0  0
    1.8480   16.1080   -9.4670 C   0  0  2  0  0  0  0  0  0  0  0  0
    2.3420   16.6750  -10.6870 O   0  0  0  0  0  0  0  0  0  0  0  0
    2.2120   15.2450  -10.6600 C   0  0  0  0  0  0  0  0  0  0  0  0
    1.1640   14.7120  -11.5860 C   0  0  0  0  0  0  0  0  0  0  0  0
    3.5220   14.5200  -10.6460 C   0  0  0  0  0  0  0  0  0  0  0  0
    0.5270   14.3490   -6.0510 C   0  0  1  0  0  0  0  0  0  0  0  0
    1.7580   13.6670   -6.7060 C   0  0  0  0  0  0  0  0  0  0  0  0
    2.5120   12.9230   -5.5740 C   0  0  0  0  0  0  0  0  0  0  0  0
    1.5240   12.9200   -4.3840 C   0  0  1  0  0  0  0  0  0  0  0  0
    0.5440   11.7420   -4.6780 C   0  0  0  0  0  0  0  0  0  0  0  0
    2.1580   12.8020   -2.9600 C   0  0  2  0  0  0  0  0  0  0  0  0
    2.9300   11.4980   -2.6960 C   0  0  0  0  0  0  0  0  0  0  0  0
    2.1210   10.3820   -2.1210 C   0  0  0  0  0  0  0  0  0  0  0  0
    0.9020   10.5070   -1.5640 C   0  0  0  0  0  0  0  0  0  0  0  0
    0.2560   11.8870   -1.3830 C   0  0  1  0  0  0  0  0  0  0  0  0
   -0.3260   12.0020    0.0500 C   0  0  0  0  0  0  0  0  0  0  0  0
   -1.2820   10.8610    0.3860 C   0  0  0  0  0  0  0  0  0  0  0  0
   -0.5870    9.5090    0.2510 C   0  0  2  0  0  0  0  0  0  0  0  0
    0.4240    9.4070    1.2590 O   0  0  0  0  0  0  0  0  0  0  0  0
    0.0470    9.2840   -1.1500 C   0  0  0  0  0  0  0  0  0  0  0  0
   -1.0720    9.0930   -2.2030 C   0  0  0  0  0  0  0  0  0  0  0  0
    0.8360    7.9470   -1.1070 C   0  0  0  0  0  0  0  0  0  0  0  0
    1.1610   13.1330   -1.7760 C   0  0  1  0  0  0  0  0  0  0  0  0
    2.0390   13.5580   -0.5600 C   0  0  0  0  0  0  0  0  0  0  0  0
    0.2310   14.3610   -2.1030 C   0  0  0  0  0  0  0  0  0  0  0  0
   -0.2660   14.4880   -3.5560 C   0  0  0  0  0  0  0  0  0  0  0  0
    0.8940   14.3520   -4.5460 C   0  0  2  0  0  0  0  0  0  0  0  0
    1.8850   15.5370   -4.2890 C   0  0  0  0  0  0  0  0  0  0  0  0
   -0.7219   16.2637   -4.8162 H   0  0  0  0  0  0  0  0  0  0  0  0
   -0.9307   17.4570   -6.1425 H   0  0  0  0  0  0  0  0  0  0  0  0
   -1.8887   15.9375   -6.1425 H   0  0  0  0  0  0  0  0  0  0  0  0
    1.0717   16.3449   -6.6748 H   0  0  0  0  0  0  0  0  0  0  0  0
    0.1026   14.4724   -8.4723 H   0  0  0  0  0  0  0  0  0  0  0  0
   -1.2933   15.6294   -8.2353 H   0  0  0  0  0  0  0  0  0  0  0  0
   -0.1530   16.5362  -10.0494 H   0  0  0  0  0  0  0  0  0  0  0  0
    0.4637   17.4715   -8.6240 H   0  0  0  0  0  0  0  0  0  0  0  0
    2.1159   16.0454   -8.4020 H   0  0  0  0  0  0  0  0  0  0  0  0
    0.3353   14.2905  -10.9981 H   0  0  0  0  0  0  0  0  0  0  0  0
    0.7861   15.5274  -12.2202 H   0  0  0  0  0  0  0  0  0  0  0  0
    1.6004   13.9263  -12.2202 H   0  0  0  0  0  0  0  0  0  0  0  0
    3.8343   14.3472   -9.6055 H   0  0  0  0  0  0  0  0  0  0  0  0
    3.4121   13.5543  -11.1611 H   0  0  0  0  0  0  0  0  0  0  0  0
    4.2819   15.1259  -11.1611 H   0  0  0  0  0  0  0  0  0  0  0  0
   -0.4285   13.8258   -6.2037 H   0  0  0  0  0  0  0  0  0  0  0  0
    1.4304   12.9529   -7.4759 H   0  0  0  0  0  0  0  0  0  0  0  0
    2.4083   14.4089   -7.1925 H   0  0  0  0  0  0  0  0  0  0  0  0
    2.7549   11.8946   -5.8798 H   0  0  0  0  0  0  0  0  0  0  0  0
    3.4676   13.4058   -5.3217 H   0  0  0  0  0  0  0  0  0  0  0  0
    0.1887   11.3149   -3.7286 H   0  0  0  0  0  0  0  0  0  0  0  0
   -0.3143   12.1147   -5.2563 H   0  0  0  0  0  0  0  0  0  0  0  0
    1.0666   10.9659   -5.2563 H   0  0  0  0  0  0  0  0  0  0  0  0
    2.9145   13.6004   -2.9723 H   0  0  0  0  0  0  0  0  0  0  0  0
    3.3526   11.1540   -3.6515 H   0  0  0  0  0  0  0  0  0  0  0  0
    3.6907   11.7428   -1.9400 H   0  0  0  0  0  0  0  0  0  0  0  0
    2.5580    9.3731   -2.1556 H   0  0  0  0  0  0  0  0  0  0  0  0
   -0.5573   11.9415   -2.1217 H   0  0  0  0  0  0  0  0  0  0  0  0
    0.5052   11.9894    0.7704 H   0  0  0  0  0  0  0  0  0  0  0  0
   -0.8949   12.9418    0.1052 H   0  0  0  0  0  0  0  0  0  0  0  0
   -1.6370   10.9816    1.4202 H   0  0  0  0  0  0  0  0  0  0  0  0
   -2.1273   10.8928   -0.3172 H   0  0  0  0  0  0  0  0  0  0  0  0
   -1.3533    8.7300    0.3775 H   0  0  0  0  0  0  0  0  0  0  0  0
    0.4910   10.2730    1.6960 H   0  0  0  0  0  0  0  0  0  0  0  0
   -2.0322    8.9291   -1.6920 H   0  0  0  0  0  0  0  0  0  0  0  0
   -1.1405    9.9924   -2.8325 H   0  0  0  0  0  0  0  0  0  0  0  0
   -0.8383    8.2218   -2.8325 H   0  0  0  0  0  0  0  0  0  0  0  0
    1.0077    7.6561   -0.0602 H   0  0  0  0  0  0  0  0  0  0  0  0
    0.2561    7.1625   -1.6152 H   0  0  0  0  0  0  0  0  0  0  0  0
    1.8031    8.0754   -1.6152 H   0  0  0  0  0  0  0  0  0  0  0  0
    1.5174   13.3055    0.3750 H   0  0  0  0  0  0  0  0  0  0  0  0
    3.0009   13.0258   -0.5985 H   0  0  0  0  0  0  0  0  0  0  0  0
    2.2183   14.6426   -0.5985 H   0  0  0  0  0  0  0  0  0  0  0  0
   -0.6539   14.2906   -1.4534 H   0  0  0  0  0  0  0  0  0  0  0  0
    0.8571   15.2495   -1.9340 H   0  0  0  0  0  0  0  0  0  0  0  0
   -1.0033   13.6962   -3.7546 H   0  0  0  0  0  0  0  0  0  0  0  0
   -0.7226   15.4804   -3.6850 H   0  0  0  0  0  0  0  0  0  0  0  0
    2.0078   15.6839   -3.2058 H   0  0  0  0  0  0  0  0  0  0  0  0
    2.8606   15.3036   -4.7403 H   0  0  0  0  0  0  0  0  0  0  0  0
    1.4827   16.4559   -4.7403 H   0  0  0  0  0  0  0  0  0  0  0  0
  1  2  1  0
  2  3  1  0
  3  4  1  0
  4  5  1  0
  5  6  1  0
  6  7  1  0
  7  8  1  0
  7  9  1  0
  2 10  1  0
 10 11  1  0
 11 12  1  0
 12 13  1  0
 13 14  1  6
 13 15  1  0
 15 16  1  0
 16 17  1  0
 17 18  2  0
 18 19  1  0
 19 20  1  0
 20 21  1  0
 21 22  1  0
 22 23  1  0
 22 24  1  0
 24 25  1  0
 24 26  1  0
 19 27  1  0
 27 28  1  1
 27 29  1  0
 29 30  1  0
 30 31  1  0
 31 32  1  6
  7  5  1  0
 31 10  1  0
 31 13  1  0
 27 15  1  0
 24 18  1  0
  1 33  1  0
  1 34  1  0
  1 35  1  0
  2 36  1  6
  3 37  1  0
  3 38  1  0
  4 39  1  0
  4 40  1  0
  5 41  1  1
  8 42  1  0
  8 43  1  0
  8 44  1  0
  9 45  1  0
  9 46  1  0
  9 47  1  0
 10 48  1  1
 11 49  1  0
 11 50  1  0
 12 51  1  0
 12 52  1  0
 14 53  1  0
 14 54  1  0
 14 55  1  0
 15 56  1  6
 16 57  1  0
 16 58  1  0
 17 59  1  0
 19 60  1  6
 20 61  1  0
 20 62  1  0
 21 63  1  0
 21 64  1  0
 22 65  1  1
 23 66  1  0
 25 67  1  0
 25 68  1  0
 25 69  1  0
 26 70  1  0
 26 71  1  0
 26 72  1  0
 28 73  1  0
 28 74  1  0
 28 75  1  0
 29 76  1  0
 29 77  1  0
 30 78  1  0
 30 79  1  0
 32 80  1  0
 32 81  1  0
 32 82  1  0
M  END
>  <meeko>  (8) 
{"is_sidechain": [false], "intermolecular_energy": 2.731, "internal_energy": -0.839}

$$$$
EPH_relaxed_0001_pdb2pqr_Repair_376_r2_0001_out
     RDKit          3D

 82 86  0  0  0  0  0  0  0  0999 V2000
    0.2850   19.1150   -2.5360 C   0  0  0  0  0  0  0  0  0  0  0  0
   -0.0990   18.1020   -1.4530 C   0  0  2  0  0  0  0  0  0  0  0  0
    0.5390   18.4380   -0.0910 C   0  0  0  0  0  0  0  0  0  0  0  0
    1.5520   19.5840   -0.1510 C   0  0  0  0  0  0  0  0  0  0  0  0
    2.4720   19.5750    1.0320 C   0  0  2  0  0  0  0  0  0  0  0  0
    3.7450   20.1940    0.8050 O   0  0  0  0  0  0  0  0  0  0  0  0
    3.7660   18.7830    1.0790 C   0  0  0  0  0  0  0  0  0  0  0  0
    4.2110   17.9450   -0.0780 C   0  0  0  0  0  0  0  0  0  0  0  0
    4.3440   18.4370    2.4160 C   0  0  0  0  0  0  0  0  0  0  0  0
    0.3070   16.6990   -1.8880 C   0  0  1  0  0  0  0  0  0  0  0  0
    1.6190   16.6860   -2.7160 C   0  0  0  0  0  0  0  0  0  0  0  0
    2.3680   15.3790   -2.3470 C   0  0  0  0  0  0  0  0  0  0  0  0
    1.3230   14.5330   -1.5840 C   0  0  1  0  0  0  0  0  0  0  0  0
    0.4530   13.8690   -2.6980 C   0  0  0  0  0  0  0  0  0  0  0  0
    1.8890   13.4720   -0.5850 C   0  0  2  0  0  0  0  0  0  0  0  0
    2.7440   12.3640   -1.2250 C   0  0  0  0  0  0  0  0  0  0  0  0
    1.9940   11.1470   -1.6550 C   0  0  0  0  0  0  0  0  0  0  0  0
    0.7420   10.8270   -1.2800 C   0  0  0  0  0  0  0  0  0  0  0  0
   -0.0170   11.6830   -0.2570 C   0  0  1  0  0  0  0  0  0  0  0  0
   -0.6800   10.7600    0.7990 C   0  0  0  0  0  0  0  0  0  0  0  0
   -1.5620    9.6870    0.1680 C   0  0  0  0  0  0  0  0  0  0  0  0
   -0.7590    8.8210   -0.7990 C   0  0  2  0  0  0  0  0  0  0  0  0
    0.2020    8.0680   -0.0530 O   0  0  0  0  0  0  0  0  0  0  0  0
   -0.0370    9.6430   -1.9030 C   0  0  0  0  0  0  0  0  0  0  0  0
   -1.0810   10.2150   -2.8930 C   0  0  0  0  0  0  0  0  0  0  0  0
    0.8490    8.6660   -2.7230 C   0  0  0  0  0  0  0  0  0  0  0  0
    0.8090   12.8700    0.4030 C   0  0  1  0  0  0  0  0  0  0  0  0
    1.5870   12.3490    1.6490 C   0  0  0  0  0  0  0  0  0  0  0  0
   -0.1940   13.9630    0.9300 C   0  0  0  0  0  0  0  0  0  0  0  0
   -0.6230   15.0530   -0.0700 C   0  0  0  0  0  0  0  0  0  0  0  0
    0.5940   15.6640   -0.7710 C   0  0  2  0  0  0  0  0  0  0  0  0
    1.4760   16.3580    0.3220 C   0  0  0  0  0  0  0  0  0  0  0  0
    0.6368   20.0431   -2.0618 H   0  0  0  0  0  0  0  0  0  0  0  0
    1.0868   18.6963   -3.1620 H   0  0  0  0  0  0  0  0  0  0  0  0
   -0.5929   19.3330   -3.1620 H   0  0  0  0  0  0  0  0  0  0  0  0
   -1.1905   18.1504   -1.3256 H   0  0  0  0  0  0  0  0  0  0  0  0
   -0.2625   18.7195    0.6078 H   0  0  0  0  0  0  0  0  0  0  0  0
    1.0867   17.5421    0.2367 H   0  0  0  0  0  0  0  0  0  0  0  0
    2.1504   19.4828   -1.0684 H   0  0  0  0  0  0  0  0  0  0  0  0
    0.9959   20.5331   -0.1449 H   0  0  0  0  0  0  0  0  0  0  0  0
    1.6202   19.6385    1.7251 H   0  0  0  0  0  0  0  0  0  0  0  0
    4.6961   17.0314    0.2961 H   0  0  0  0  0  0  0  0  0  0  0  0
    3.3388   17.6725   -0.6903 H   0  0  0  0  0  0  0  0  0  0  0  0
    4.9252   18.5150   -0.6903 H   0  0  0  0  0  0  0  0  0  0  0  0
    3.6909   18.8280    3.2101 H   0  0  0  0  0  0  0  0  0  0  0  0
    4.4216   17.3438    2.5101 H   0  0  0  0  0  0  0  0  0  0  0  0
    5.3442   18.8850    2.5101 H   0  0  0  0  0  0  0  0  0  0  0  0
   -0.5959   16.4104   -2.4462 H   0  0  0  0  0  0  0  0  0  0  0  0
    1.3884   16.6997   -3.7915 H   0  0  0  0  0  0  0  0  0  0  0  0
    2.2347   17.5701   -2.4943 H   0  0  0  0  0  0  0  0  0  0  0  0
    2.7046   14.8551   -3.2537 H   0  0  0  0  0  0  0  0  0  0  0  0
    3.2693   15.5701   -1.7460 H   0  0  0  0  0  0  0  0  0  0  0  0
   -0.3394   13.2643   -2.2327 H   0  0  0  0  0  0  0  0  0  0  0  0
   -0.0021   14.6515   -3.3230 H   0  0  0  0  0  0  0  0  0  0  0  0
    1.0877   13.2236   -3.3230 H   0  0  0  0  0  0  0  0  0  0  0  0
    2.5819   14.0697    0.0254 H   0  0  0  0  0  0  0  0  0  0  0  0
    3.2412   12.7871   -2.1103 H   0  0  0  0  0  0  0  0  0  0  0  0
    3.4430   12.0301   -0.4441 H   0  0  0  0  0  0  0  0  0  0  0  0
    2.5084   10.4531   -2.3361 H   0  0  0  0  0  0  0  0  0  0  0  0
   -0.7921   12.2193   -0.8241 H   0  0  0  0  0  0  0  0  0  0  0  0
    0.1113   10.2673    1.3829 H   0  0  0  0  0  0  0  0  0  0  0  0
   -1.3216   11.3877    1.4348 H   0  0  0  0  0  0  0  0  0  0  0  0
   -1.9776    9.0495    0.9623 H   0  0  0  0  0  0  0  0  0  0  0  0
   -2.3706   10.1807   -0.3909 H   0  0  0  0  0  0  0  0  0  0  0  0
   -1.4685    8.1582   -1.3161 H   0  0  0  0  0  0  0  0  0  0  0  0
    1.0840    8.4120   -0.2780 H   0  0  0  0  0  0  0  0  0  0  0  0
   -1.9098   10.6691   -2.3301 H   0  0  0  0  0  0  0  0  0  0  0  0
   -0.6059   10.9788   -3.5261 H   0  0  0  0  0  0  0  0  0  0  0  0
   -1.4690    9.4035   -3.5261 H   0  0  0  0  0  0  0  0  0  0  0  0
    1.4260    8.0297   -2.0359 H   0  0  0  0  0  0  0  0  0  0  0  0
    0.2089    8.0348   -3.3570 H   0  0  0  0  0  0  0  0  0  0  0  0
    1.5396    9.2415   -3.3570 H   0  0  0  0  0  0  0  0  0  0  0  0
    1.0811   12.6878    2.5652 H   0  0  0  0  0  0  0  0  0  0  0  0
    1.6147   11.2495    1.6306 H   0  0  0  0  0  0  0  0  0  0  0  0
    2.6142   12.7420    1.6306 H   0  0  0  0  0  0  0  0  0  0  0  0
   -1.1036   13.4446    1.2675 H   0  0  0  0  0  0  0  0  0  0  0  0
    0.3528   14.4975    1.7207 H   0  0  0  0  0  0  0  0  0  0  0  0
   -1.2870   14.6072   -0.8252 H   0  0  0  0  0  0  0  0  0  0  0  0
   -1.1460   15.8483    0.4813 H   0  0  0  0  0  0  0  0  0  0  0  0
    1.1138   16.0730    1.3208 H   0  0  0  0  0  0  0  0  0  0  0  0
    2.5221   16.0383    0.2063 H   0  0  0  0  0  0  0  0  0  0  0  0
    1.4114   17.4500    0.2063 H   0  0  0  0  0  0  0  0  0  0  0  0
  1  2  1  0
  2  3  1  0
  3  4  1  0
  4  5  1  0
  5  6  1  0
  6  7  1  0
  7  8  1  0
  7  9  1  0
  2 10  1  0
 10 11  1  0
 11 12  1  0
 12 13  1  0
 13 14  1  6
 13 15  1  0
 15 16  1  0
 16 17  1  0
 17 18  2  0
 18 19  1  0
 19 20  1  0
 20 21  1  0
 21 22  1  0
 22 23  1  0
 22 24  1  0
 24 25  1  0
 24 26  1  0
 19 27  1  0
 27 28  1  1
 27 29  1  0
 29 30  1  0
 30 31  1  0
 31 32  1  1
  7  5  1  0
 31 10  1  0
 31 13  1  0
 27 15  1  0
 24 18  1  0
  1 33  1  0
  1 34  1  0
  1 35  1  0
  2 36  1  1
  3 37  1  0
  3 38  1  0
  4 39  1  0
  4 40  1  0
  5 41  1  1
  8 42  1  0
  8 43  1  0
  8 44  1  0
  9 45  1  0
  9 46  1  0
  9 47  1  0
 10 48  1  6
 11 49  1  0
 11 50  1  0
 12 51  1  0
 12 52  1  0
 14 53  1  0
 14 54  1  0
 14 55  1  0
 15 56  1  1
 16 57  1  0
 16 58  1  0
 17 59  1  0
 19 60  1  6
 20 61  1  0
 20 62  1  0
 21 63  1  0
 21 64  1  0
 22 65  1  6
 23 66  1  0
 25 67  1  0
 25 68  1  0
 25 69  1  0
 26 70  1  0
 26 71  1  0
 26 72  1  0
 28 73  1  0
 28 74  1  0
 28 75  1  0
 29 76  1  0
 29 77  1  0
 30 78  1  0
 30 79  1  0
 32 80  1  0
 32 81  1  0
 32 82  1  0
M  END
>  <meeko>  (9) 
{"is_sidechain": [false], "intermolecular_energy": 2.731, "internal_energy": -0.839}

$$$$
EPH_relaxed_0001_pdb2pqr_Repair_376_r2_0001_out
     RDKit          3D

 82 86  0  0  0  0  0  0  0  0999 V2000
   -0.3040    9.2870   -2.1130 C   0  0  0  0  0  0  0  0  0  0  0  0
    0.7860   10.2350   -2.6200 C   0  0  2  0  0  0  0  0  0  0  0  0
    2.1590    9.5420   -2.7170 C   0  0  0  0  0  0  0  0  0  0  0  0
    3.0820   10.1500   -3.7770 C   0  0  0  0  0  0  0  0  0  0  0  0
    4.4640   10.3800   -3.2440 C   0  0  2  0  0  0  0  0  0  0  0  0
    4.9490   11.7200   -3.3970 O   0  0  0  0  0  0  0  0  0  0  0  0
    5.6570   10.7030   -4.1240 C   0  0  0  0  0  0  0  0  0  0  0  0
    5.5230   10.8130   -5.6100 C   0  0  0  0  0  0  0  0  0  0  0  0
    7.0300   10.4300   -3.5950 C   0  0  0  0  0  0  0  0  0  0  0  0
    0.8800   11.4540   -1.7090 C   0  0  1  0  0  0  0  0  0  0  0  0
    1.9580   11.2920   -0.6050 C   0  0  0  0  0  0  0  0  0  0  0  0
    2.5760   12.6960   -0.3750 C   0  0  0  0  0  0  0  0  0  0  0  0
    1.6170   13.6680   -1.1020 C   0  0  1  0  0  0  0  0  0  0  0  0
    0.4350   13.8850   -0.1060 C   0  0  0  0  0  0  0  0  0  0  0  0
    2.2340   15.0260   -1.5700 C   0  0  2  0  0  0  0  0  0  0  0  0
    2.7580   15.9290   -0.4400 C   0  0  0  0  0  0  0  0  0  0  0  0
    1.7650   16.8950    0.1160 C   0  0  0  0  0  0  0  0  0  0  0  0
    0.5950   17.2320   -0.4580 C   0  0  0  0  0  0  0  0  0  0  0  0
    0.2140   16.6940   -1.8440 C   0  0  1  0  0  0  0  0  0  0  0  0
   -0.3220   17.8570   -2.7200 C   0  0  0  0  0  0  0  0  0  0  0  0
   -1.4660   18.6130   -2.0530 C   0  0  0  0  0  0  0  0  0  0  0  0
   -1.0310   19.1820   -0.7050 C   0  0  2  0  0  0  0  0  0  0  0  0
   -0.0460   20.1940   -0.9280 O   0  0  0  0  0  0  0  0  0  0  0  0
   -0.4640   18.1040    0.2600 C   0  0  0  0  0  0  0  0  0  0  0  0
   -1.6110   17.1790    0.7400 C   0  0  0  0  0  0  0  0  0  0  0  0
    0.0670   18.8290    1.5260 C   0  0  0  0  0  0  0  0  0  0  0  0
    1.3270   15.8350   -2.5840 C   0  0  1  0  0  0  0  0  0  0  0  0
    2.2810   16.7740   -3.3830 C   0  0  0  0  0  0  0  0  0  0  0  0
    0.6340   14.9000   -3.6440 C   0  0  0  0  0  0  0  0  0  0  0  0
    0.1530   13.5230   -3.1470 C   0  0  0  0  0  0  0  0  0  0  0  0
    1.2580   12.8050   -2.3660 C   0  0  2  0  0  0  0  0  0  0  0  0
    2.4520   12.5530   -3.3480 C   0  0  0  0  0  0  0  0  0  0  0  0
   -0.3059    9.2853   -1.0130 H   0  0  0  0  0  0  0  0  0  0  0  0
   -1.2840    9.6250   -2.4809 H   0  0  0  0  0  0  0  0  0  0  0  0
   -0.1052    8.2696   -2.4809 H   0  0  0  0  0  0  0  0  0  0  0  0
    0.5038   10.5509   -3.6352 H   0  0  0  0  0  0  0  0  0  0  0  0
    2.6562    9.6180   -1.7387 H   0  0  0  0  0  0  0  0  0  0  0  0
    1.9725    8.4992   -3.0132 H   0  0  0  0  0  0  0  0  0  0  0  0
    3.1405    9.4636   -4.6345 H   0  0  0  0  0  0  0  0  0  0  0  0
    2.6646   11.1223   -4.0775 H   0  0  0  0  0  0  0  0  0  0  0  0
    4.3107    9.6281   -2.4559 H   0  0  0  0  0  0  0  0  0  0  0  0
    4.6940   11.4936   -5.8540 H   0  0  0  0  0  0  0  0  0  0  0  0
    6.4581   11.2074   -6.0343 H   0  0  0  0  0  0  0  0  0  0  0  0
    5.3184    9.8190   -6.0343 H   0  0  0  0  0  0  0  0  0  0  0  0
    7.0068   10.4346   -2.4953 H   0  0  0  0  0  0  0  0  0  0  0  0
    7.3710    9.4465   -3.9505 H   0  0  0  0  0  0  0  0  0  0  0  0
    7.7213   11.2083   -3.9505 H   0  0  0  0  0  0  0  0  0  0  0  0
   -0.1565   11.4916   -1.3426 H   0  0  0  0  0  0  0  0  0  0  0  0
    1.4972   10.9240    0.3236 H   0  0  0  0  0  0  0  0  0  0  0  0
    2.7273   10.5661   -0.9070 H   0  0  0  0  0  0  0  0  0  0  0  0
    2.6235   12.9282    0.6992 H   0  0  0  0  0  0  0  0  0  0  0  0
    3.6065   12.7654   -0.7536 H   0  0  0  0  0  0  0  0  0  0  0  0
    0.8082   13.8165    0.9265 H   0  0  0  0  0  0  0  0  0  0  0  0
   -0.0059   14.8791   -0.2713 H   0  0  0  0  0  0  0  0  0  0  0  0
   -0.3303   13.1123   -0.2713 H   0  0  0  0  0  0  0  0  0  0  0  0
    3.1242   14.7004   -2.1282 H   0  0  0  0  0  0  0  0  0  0  0  0
    3.0997   15.2821    0.3814 H   0  0  0  0  0  0  0  0  0  0  0  0
    3.5596   16.5378   -0.8836 H   0  0  0  0  0  0  0  0  0  0  0  0
    2.0102   17.3720    1.0764 H   0  0  0  0  0  0  0  0  0  0  0  0
   -0.5831   15.9548   -1.6758 H   0  0  0  0  0  0  0  0  0  0  0  0
    0.5008   18.5612   -2.9129 H   0  0  0  0  0  0  0  0  0  0  0  0
   -0.7092   17.4211   -3.6527 H   0  0  0  0  0  0  0  0  0  0  0  0
   -1.7817   19.4389   -2.7074 H   0  0  0  0  0  0  0  0  0  0  0  0
   -2.2990   17.9141   -1.8868 H   0  0  0  0  0  0  0  0  0  0  0  0
   -1.9252   19.5991   -0.2188 H   0  0  0  0  0  0  0  0  0  0  0  0
    0.7370   19.9650   -0.3980 H   0  0  0  0  0  0  0  0  0  0  0  0
   -1.6323   17.1618    1.8397 H   0  0  0  0  0  0  0  0  0  0  0  0
   -2.5712   17.5584    0.3605 H   0  0  0  0  0  0  0  0  0  0  0  0
   -1.4436   16.1602    0.3605 H   0  0  0  0  0  0  0  0  0  0  0  0
   -0.3073   18.3180    2.4253 H   0  0  0  0  0  0  0  0  0  0  0  0
    1.1668   18.8107    1.5248 H   0  0  0  0  0  0  0  0  0  0  0  0
   -0.2823   19.8721    1.5248 H   0  0  0  0  0  0  0  0  0  0  0  0
    2.8842   17.3677   -2.6804 H   0  0  0  0  0  0  0  0  0  0  0  0
    2.9460   16.1683   -4.0162 H   0  0  0  0  0  0  0  0  0  0  0  0
    1.6859   17.4485   -4.0162 H   0  0  0  0  0  0  0  0  0  0  0  0
   -0.2419   15.4360   -4.0383 H   0  0  0  0  0  0  0  0  0  0  0  0
    1.4140   14.6810   -4.3881 H   0  0  0  0  0  0  0  0  0  0  0  0
   -0.7191   13.6617   -2.4912 H   0  0  0  0  0  0  0  0  0  0  0  0
   -0.1150   12.9093   -4.0197 H   0  0  0  0  0  0  0  0  0  0  0  0
    3.3677   12.3597   -2.7699 H   0  0  0  0  0  0  0  0  0  0  0  0
    2.2279   11.6824   -3.9819 H   0  0  0  0  0  0  0  0  0  0  0  0
    2.5989   13.4399   -3.9819 H   0  0  0  0  0  0  0  0  0  0  0  0
  1  2  1  0
  2  3  1  0
  3  4  1  0
  4  5  1  0
  5  6  1  0
  6  7  1  0
  7  8  1  0
  7  9  1  0
  2 10  1  0
 10 11  1  0
 11 12  1  0
 12 13  1  0
 13 14  1  1
 13 15  1  0
 15 16  1  0
 16 17  1  0
 17 18  2  0
 18 19  1  0
 19 20  1  0
 20 21  1  0
 21 22  1  0
 22 23  1  0
 22 24  1  0
 24 25  1  0
 24 26  1  0
 19 27  1  0
 27 28  1  6
 27 29  1  0
 29 30  1  0
 30 31  1  0
 31 32  1  6
  7  5  1  0
 31 10  1  0
 31 13  1  0
 27 15  1  0
 24 18  1  0
  1 33  1  0
  1 34  1  0
  1 35  1  0
  2 36  1  6
  3 37  1  0
  3 38  1  0
  4 39  1  0
  4 40  1  0
  5 41  1  1
  8 42  1  0
  8 43  1  0
  8 44  1  0
  9 45  1  0
  9 46  1  0
  9 47  1  0
 10 48  1  1
 11 49  1  0
 11 50  1  0
 12 51  1  0
 12 52  1  0
 14 53  1  0
 14 54  1  0
 14 55  1  0
 15 56  1  6
 16 57  1  0
 16 58  1  0
 17 59  1  0
 19 60  1  1
 20 61  1  0
 20 62  1  0
 21 63  1  0
 21 64  1  0
 22 65  1  1
 23 66  1  0
 25 67  1  0
 25 68  1  0
 25 69  1  0
 26 70  1  0
 26 71  1  0
 26 72  1  0
 28 73  1  0
 28 74  1  0
 28 75  1  0
 29 76  1  0
 29 77  1  0
 30 78  1  0
 30 79  1  0
 32 80  1  0
 32 81  1  0
 32 82  1  0
M  END
>  <meeko>  (10) 
{"is_sidechain": [false], "intermolecular_energy": 2.731, "internal_energy": -0.839}

$$$$
EPH_relaxed_0001_pdb2pqr_Repair_376_r2_0001_out
     RDKit          3D

 82 86  0  0  0  0  0  0  0  0999 V2000
    3.3280   18.6400   -2.2880 C   0  0  0  0  0  0  0  0  0  0  0  0
    1.9130   18.7440   -1.7130 C   0  0  2  0  0  0  0  0  0  0  0  0
    1.8010   19.8470   -0.6410 C   0  0  0  0  0  0  0  0  0  0  0  0
    1.5590   19.3100    0.7720 C   0  0  0  0  0  0  0  0  0  0  0  0
    2.6200   19.7660    1.7270 C   0  0  2  0  0  0  0  0  0  0  0  0
    3.8400   20.1940    1.1080 O   0  0  0  0  0  0  0  0  0  0  0  0
    3.9280   19.0260    1.9400 C   0  0  0  0  0  0  0  0  0  0  0  0
    4.2440   17.7690    1.1930 C   0  0  0  0  0  0  0  0  0  0  0  0
    4.6770   19.2510    3.2160 C   0  0  0  0  0  0  0  0  0  0  0  0
    1.4900   17.4020   -1.1250 C   0  0  1  0  0  0  0  0  0  0  0  0
    0.2730   17.5250   -0.1700 C   0  0  0  0  0  0  0  0  0  0  0  0
   -0.5690   16.2360   -0.3520 C   0  0  0  0  0  0  0  0  0  0  0  0
    0.3490   15.2780   -1.1450 C   0  0  1  0  0  0  0  0  0  0  0  0
    1.3000   14.6560   -0.0740 C   0  0  0  0  0  0  0  0  0  0  0  0
   -0.3670   14.1750   -1.9900 C   0  0  2  0  0  0  0  0  0  0  0  0
   -1.2000   13.1690   -1.1780 C   0  0  0  0  0  0  0  0  0  0  0  0
   -0.4660   11.9490   -0.7270 C   0  0  0  0  0  0  0  0  0  0  0  0
    0.7240   11.5340   -1.2000 C   0  0  0  0  0  0  0  0  0  0  0  0
    1.4090   12.2650   -2.3620 C   0  0  1  0  0  0  0  0  0  0  0  0
    1.9140   11.2290   -3.4000 C   0  0  0  0  0  0  0  0  0  0  0  0
    2.8070   10.1620   -2.7740 C   0  0  0  0  0  0  0  0  0  0  0  0
    2.0710    9.4180   -1.6630 C   0  0  2  0  0  0  0  0  0  0  0  0
    1.0030    8.6630   -2.2430 O   0  0  0  0  0  0  0  0  0  0  0  0
    1.5080   10.3600   -0.5630 C   0  0  0  0  0  0  0  0  0  0  0  0
    2.6770   10.9500    0.2660 C   0  0  0  0  0  0  0  0  0  0  0  0
    0.6700    9.5000    0.4200 C   0  0  0  0  0  0  0  0  0  0  0  0
    0.5740   13.4410   -3.0290 C   0  0  1  0  0  0  0  0  0  0  0  0
   -0.3550   12.8680   -4.1430 C   0  0  0  0  0  0  0  0  0  0  0  0
    1.5650   14.4340   -3.7440 C   0  0  0  0  0  0  0  0  0  0  0  0
    2.1470   15.5730   -2.8860 C   0  0  0  0  0  0  0  0  0  0  0  0
    1.0400   16.3020   -2.1180 C   0  0  2  0  0  0  0  0  0  0  0  0
    0.0800   16.9560   -3.1690 C   0  0  0  0  0  0  0  0  0  0  0  0
    4.0554   18.5865   -1.4646 H   0  0  0  0  0  0  0  0  0  0  0  0
    3.4068   17.7336   -2.9063 H   0  0  0  0  0  0  0  0  0  0  0  0
    3.5385   19.5251   -2.9063 H   0  0  0  0  0  0  0  0  0  0  0  0
    1.2400   19.0167   -2.5393 H   0  0  0  0  0  0  0  0  0  0  0  0
    2.7374   20.4241   -0.6375 H   0  0  0  0  0  0  0  0  0  0  0  0
    0.9288   20.4635   -0.9042 H   0  0  0  0  0  0  0  0  0  0  0  0
    0.5816   19.6685    1.1272 H   0  0  0  0  0  0  0  0  0  0  0  0
    1.5841   18.2111    0.7304 H   0  0  0  0  0  0  0  0  0  0  0  0
    1.8601   20.1390    2.4294 H   0  0  0  0  0  0  0  0  0  0  0  0
    4.4477   16.9587    1.9085 H   0  0  0  0  0  0  0  0  0  0  0  0
    3.3873   17.4930    0.5606 H   0  0  0  0  0  0  0  0  0  0  0  0
    5.1294   17.9310    0.5606 H   0  0  0  0  0  0  0  0  0  0  0  0
    4.0137   19.0517    4.0706 H   0  0  0  0  0  0  0  0  0  0  0  0
    5.5423   18.5731    3.2576 H   0  0  0  0  0  0  0  0  0  0  0  0
    5.0255   20.2935    3.2576 H   0  0  0  0  0  0  0  0  0  0  0  0
    2.4320   17.1079   -0.6391 H   0  0  0  0  0  0  0  0  0  0  0  0
    0.6158   17.6098    0.8718 H   0  0  0  0  0  0  0  0  0  0  0  0
   -0.3214   18.4214   -0.4004 H   0  0  0  0  0  0  0  0  0  0  0  0
   -0.8313   15.8027    0.6244 H   0  0  0  0  0  0  0  0  0  0  0  0
   -1.5189   16.4287   -0.8722 H   0  0  0  0  0  0  0  0  0  0  0  0
    0.9280   14.8993    0.9322 H   0  0  0  0  0  0  0  0  0  0  0  0
    1.3293   13.5636   -0.1999 H   0  0  0  0  0  0  0  0  0  0  0  0
    2.3126   15.0669   -0.1999 H   0  0  0  0  0  0  0  0  0  0  0  0
   -1.0923   14.7601   -2.5745 H   0  0  0  0  0  0  0  0  0  0  0  0
   -1.5809   13.6859   -0.2849 H   0  0  0  0  0  0  0  0  0  0  0  0
   -1.9922   12.8147   -1.8539 H   0  0  0  0  0  0  0  0  0  0  0  0
   -0.9373   11.3385    0.0573 H   0  0  0  0  0  0  0  0  0  0  0  0
    2.2642   12.8000   -1.9233 H   0  0  0  0  0  0  0  0  0  0  0  0
    1.0440   10.7362   -3.8585 H   0  0  0  0  0  0  0  0  0  0  0  0
    2.5131   11.7697   -4.1474 H   0  0  0  0  0  0  0  0  0  0  0  0
    3.1078    9.4433   -3.5506 H   0  0  0  0  0  0  0  0  0  0  0  0
    3.6910   10.6535   -2.3416 H   0  0  0  0  0  0  0  0  0  0  0  0
    2.8000    8.7595   -1.1681 H   0  0  0  0  0  0  0  0  0  0  0  0
    0.1680    9.0240   -1.9000 H   0  0  0  0  0  0  0  0  0  0  0  0
    2.4583   10.8396    1.3384 H   0  0  0  0  0  0  0  0  0  0  0  0
    3.6059   10.4128    0.0240 H   0  0  0  0  0  0  0  0  0  0  0  0
    2.7965   12.0164    0.0240 H   0  0  0  0  0  0  0  0  0  0  0  0
    0.9305    9.7673    1.4547 H   0  0  0  0  0  0  0  0  0  0  0  0
   -0.4005    9.6883    0.2510 H   0  0  0  0  0  0  0  0  0  0  0  0
    0.8860    8.4347    0.2510 H   0  0  0  0  0  0  0  0  0  0  0  0
   -1.2039   12.3444   -3.6791 H   0  0  0  0  0  0  0  0  0  0  0  0
   -0.7297   13.6922   -4.7678 H   0  0  0  0  0  0  0  0  0  0  0  0
    0.2133   12.1633   -4.7678 H   0  0  0  0  0  0  0  0  0  0  0  0
    2.4090   13.8425   -4.1284 H   0  0  0  0  0  0  0  0  0  0  0  0
    0.9629   14.9347   -4.5165 H   0  0  0  0  0  0  0  0  0  0  0  0
    2.8655   15.1513   -2.1677 H   0  0  0  0  0  0  0  0  0  0  0  0
    2.6452   16.2936   -3.5512 H   0  0  0  0  0  0  0  0  0  0  0  0
   -0.7198   17.5008   -2.6460 H   0  0  0  0  0  0  0  0  0  0  0  0
    0.6485   17.6555   -3.7995 H   0  0  0  0  0  0  0  0  0  0  0  0
   -0.3629   16.1709   -3.7995 H   0  0  0  0  0  0  0  0  0  0  0  0
  1  2  1  0
  2  3  1  0
  3  4  1  0
  4  5  1  0
  5  6  1  0
  6  7  1  0
  7  8  1  0
  7  9  1  0
  2 10  1  0
 10 11  1  0
 11 12  1  0
 12 13  1  0
 13 14  1  1
 13 15  1  0
 15 16  1  0
 16 17  1  0
 17 18  2  0
 18 19  1  0
 19 20  1  0
 20 21  1  0
 21 22  1  0
 22 23  1  0
 22 24  1  0
 24 25  1  0
 24 26  1  0
 19 27  1  0
 27 28  1  6
 27 29  1  0
 29 30  1  0
 30 31  1  0
 31 32  1  6
  7  5  1  0
 31 10  1  0
 31 13  1  0
 27 15  1  0
 24 18  1  0
  1 33  1  0
  1 34  1  0
  1 35  1  0
  2 36  1  6
  3 37  1  0
  3 38  1  0
  4 39  1  0
  4 40  1  0
  5 41  1  1
  8 42  1  0
  8 43  1  0
  8 44  1  0
  9 45  1  0
  9 46  1  0
  9 47  1  0
 10 48  1  1
 11 49  1  0
 11 50  1  0
 12 51  1  0
 12 52  1  0
 14 53  1  0
 14 54  1  0
 14 55  1  0
 15 56  1  6
 16 57  1  0
 16 58  1  0
 17 59  1  0
 19 60  1  1
 20 61  1  0
 20 62  1  0
 21 63  1  0
 21 64  1  0
 22 65  1  1
 23 66  1  0
 25 67  1  0
 25 68  1  0
 25 69  1  0
 26 70  1  0
 26 71  1  0
 26 72  1  0
 28 73  1  0
 28 74  1  0
 28 75  1  0
 29 76  1  0
 29 77  1  0
 30 78  1  0
 30 79  1  0
 32 80  1  0
 32 81  1  0
 32 82  1  0
M  END
>  <meeko>  (11) 
{"is_sidechain": [false], "intermolecular_energy": 2.731, "internal_energy": -0.839}

$$$$
EPH_relaxed_0001_pdb2pqr_Repair_376_r2_0001_out
     RDKit          3D

 82 86  0  0  0  0  0  0  0  0999 V2000
    2.8520   11.3820   -5.3900 C   0  0  0  0  0  0  0  0  0  0  0  0
    1.8550   11.0740   -4.2690 C   0  0  2  0  0  0  0  0  0  0  0  0
    0.7390   10.1170   -4.7320 C   0  0  0  0  0  0  0  0  0  0  0  0
   -0.3310    9.8580   -3.6670 C   0  0  0  0  0  0  0  0  0  0  0  0
    0.2140    9.0670   -2.5160 C   0  0  2  0  0  0  0  0  0  0  0  0
   -0.6220    7.9840   -2.0860 O   0  0  0  0  0  0  0  0  0  0  0  0
   -0.4240    9.0470   -1.1390 C   0  0  0  0  0  0  0  0  0  0  0  0
   -1.6610    9.8340   -0.8410 C   0  0  0  0  0  0  0  0  0  0  0  0
    0.4210    8.6590    0.0340 C   0  0  0  0  0  0  0  0  0  0  0  0
    1.2470   12.3690   -3.7440 C   0  0  1  0  0  0  0  0  0  0  0  0
   -0.2940   12.2810   -3.5790 C   0  0  0  0  0  0  0  0  0  0  0  0
   -0.6600   13.1330   -2.3360 C   0  0  0  0  0  0  0  0  0  0  0  0
    0.6210   13.9430   -2.0280 C   0  0  1  0  0  0  0  0  0  0  0  0
    0.5830   15.1470   -3.0200 C   0  0  0  0  0  0  0  0  0  0  0  0
    0.7980   14.4190   -0.5490 C   0  0  2  0  0  0  0  0  0  0  0  0
   -0.2840   15.3880   -0.0410 C   0  0  0  0  0  0  0  0  0  0  0  0
    0.0090   16.8370   -0.2480 C   0  0  0  0  0  0  0  0  0  0  0  0
    1.2130   17.3550   -0.5550 C   0  0  0  0  0  0  0  0  0  0  0  0
    2.4580   16.4630   -0.6300 C   0  0  1  0  0  0  0  0  0  0  0  0
    3.6270   17.1400    0.1330 C   0  0  0  0  0  0  0  0  0  0  0  0
    3.8970   18.5610   -0.3520 C   0  0  0  0  0  0  0  0  0  0  0  0
    2.6520   19.4330   -0.2070 C   0  0  2  0  0  0  0  0  0  0  0  0
    2.3670   19.6020    1.1850 O   0  0  0  0  0  0  0  0  0  0  0  0
    1.4060   18.8460   -0.9280 C   0  0  0  0  0  0  0  0  0  0  0  0
    1.5990   18.9430   -2.4620 C   0  0  0  0  0  0  0  0  0  0  0  0
    0.1880   19.7460   -0.5860 C   0  0  0  0  0  0  0  0  0  0  0  0
    2.2510   14.9450   -0.2070 C   0  0  1  0  0  0  0  0  0  0  0  0
    2.4280   14.7940    1.3350 C   0  0  0  0  0  0  0  0  0  0  0  0
    3.3770   14.0680   -0.8710 C   0  0  0  0  0  0  0  0  0  0  0  0
    3.0930   13.5270   -2.2860 C   0  0  0  0  0  0  0  0  0  0  0  0
    1.7150   12.8610   -2.3520 C   0  0  2  0  0  0  0  0  0  0  0  0
    1.7310   11.6330   -1.3800 C   0  0  0  0  0  0  0  0  0  0  0  0
    3.8160   11.6798   -4.9518 H   0  0  0  0  0  0  0  0  0  0  0  0
    2.9932   10.4856   -6.0117 H   0  0  0  0  0  0  0  0  0  0  0  0
    2.4630   12.2018   -6.0117 H   0  0  0  0  0  0  0  0  0  0  0  0
    2.4082   10.5700   -3.4628 H   0  0  0  0  0  0  0  0  0  0  0  0
    0.2509   10.5543   -5.6155 H   0  0  0  0  0  0  0  0  0  0  0  0
    1.2152    9.1499   -4.9512 H   0  0  0  0  0  0  0  0  0  0  0  0
   -0.7024   10.8233   -3.2924 H   0  0  0  0  0  0  0  0  0  0  0  0
   -1.1423    9.2768   -4.1296 H   0  0  0  0  0  0  0  0  0  0  0  0
    1.2468    9.2489   -2.8480 H   0  0  0  0  0  0  0  0  0  0  0  0
   -1.7899    9.9160    0.2483 H   0  0  0  0  0  0  0  0  0  0  0  0
   -1.5692   10.8401   -1.2761 H   0  0  0  0  0  0  0  0  0  0  0  0
   -2.5334    9.3245   -1.2761 H   0  0  0  0  0  0  0  0  0  0  0  0
   -0.1106    8.9031    0.9656 H   0  0  0  0  0  0  0  0  0  0  0  0
    0.6225    7.5782   -0.0008 H   0  0  0  0  0  0  0  0  0  0  0  0
    1.3721    9.2106   -0.0008 H   0  0  0  0  0  0  0  0  0  0  0  0
    1.5912   13.0642   -4.5239 H   0  0  0  0  0  0  0  0  0  0  0  0
   -0.7942   12.6812   -4.4732 H   0  0  0  0  0  0  0  0  0  0  0  0
   -0.6188   11.2377   -3.4524 H   0  0  0  0  0  0  0  0  0  0  0  0
   -1.5006   13.8061   -2.5603 H   0  0  0  0  0  0  0  0  0  0  0  0
   -0.9771   12.5136   -1.4841 H   0  0  0  0  0  0  0  0  0  0  0  0
    0.5533   16.0888   -2.4525 H   0  0  0  0  0  0  0  0  0  0  0  0
    1.4822   15.1288   -3.6534 H   0  0  0  0  0  0  0  0  0  0  0  0
   -0.3132   15.0721   -3.6534 H   0  0  0  0  0  0  0  0  0  0  0  0
    0.6539   13.4870    0.0172 H   0  0  0  0  0  0  0  0  0  0  0  0
   -1.2230   15.1531   -0.5637 H   0  0  0  0  0  0  0  0  0  0  0  0
   -0.3369   15.2410    1.0478 H   0  0  0  0  0  0  0  0  0  0  0  0
   -0.8296   17.5408   -0.1406 H   0  0  0  0  0  0  0  0  0  0  0  0
    2.7078   16.3796   -1.6980 H   0  0  0  0  0  0  0  0  0  0  0  0
    3.3763   17.1744    1.2035 H   0  0  0  0  0  0  0  0  0  0  0  0
    4.5344   16.5462   -0.0514 H   0  0  0  0  0  0  0  0  0  0  0  0
    4.7126   18.9960    0.2443 H   0  0  0  0  0  0  0  0  0  0  0  0
    4.1763   18.5219   -1.4152 H   0  0  0  0  0  0  0  0  0  0  0  0
    2.8673   20.3984   -0.6883 H   0  0  0  0  0  0  0  0  0  0  0  0
    1.9290   20.4630    1.2930 H   0  0  0  0  0  0  0  0  0  0  0  0
    2.5623   19.4271   -2.6805 H   0  0  0  0  0  0  0  0  0  0  0  0
    1.5892   17.9329   -2.8974 H   0  0  0  0  0  0  0  0  0  0  0  0
    0.7826   19.5379   -2.8974 H   0  0  0  0  0  0  0  0  0  0  0  0
    0.0841   19.8228    0.5064 H   0  0  0  0  0  0  0  0  0  0  0  0
    0.3422   20.7488   -1.0110 H   0  0  0  0  0  0  0  0  0  0  0  0
   -0.7253   19.3041   -1.0110 H   0  0  0  0  0  0  0  0  0  0  0  0
    1.6895   15.4241    1.8523 H   0  0  0  0  0  0  0  0  0  0  0  0
    2.2768   13.7424    1.6202 H   0  0  0  0  0  0  0  0  0  0  0  0
    3.4426   15.1090    1.6202 H   0  0  0  0  0  0  0  0  0  0  0  0
    4.2879   14.6821   -0.9262 H   0  0  0  0  0  0  0  0  0  0  0  0
    3.4604   13.1757   -0.2332 H   0  0  0  0  0  0  0  0  0  0  0  0
    3.1245   14.3606   -3.0030 H   0  0  0  0  0  0  0  0  0  0  0  0
    3.8577   12.7763   -2.5345 H   0  0  0  0  0  0  0  0  0  0  0  0
    1.7264   11.9891   -0.3392 H   0  0  0  0  0  0  0  0  0  0  0  0
    0.8409   11.0120   -1.5590 H   0  0  0  0  0  0  0  0  0  0  0  0
    2.6370   11.0354   -1.5590 H   0  0  0  0  0  0  0  0  0  0  0  0
  1  2  1  0
  2  3  1  0
  3  4  1  0
  4  5  1  0
  5  6  1  0
  6  7  1  0
  7  8  1  0
  7  9  1  0
  2 10  1  0
 10 11  1  0
 11 12  1  0
 12 13  1  0
 13 14  1  6
 13 15  1  0
 15 16  1  0
 16 17  1  0
 17 18  2  0
 18 19  1  0
 19 20  1  0
 20 21  1  0
 21 22  1  0
 22 23  1  0
 22 24  1  0
 24 25  1  0
 24 26  1  0
 19 27  1  0
 27 28  1  1
 27 29  1  0
 29 30  1  0
 30 31  1  0
 31 32  1  1
  7  5  1  0
 31 10  1  0
 31 13  1  0
 27 15  1  0
 24 18  1  0
  1 33  1  0
  1 34  1  0
  1 35  1  0
  2 36  1  1
  3 37  1  0
  3 38  1  0
  4 39  1  0
  4 40  1  0
  5 41  1  1
  8 42  1  0
  8 43  1  0
  8 44  1  0
  9 45  1  0
  9 46  1  0
  9 47  1  0
 10 48  1  6
 11 49  1  0
 11 50  1  0
 12 51  1  0
 12 52  1  0
 14 53  1  0
 14 54  1  0
 14 55  1  0
 15 56  1  1
 16 57  1  0
 16 58  1  0
 17 59  1  0
 19 60  1  6
 20 61  1  0
 20 62  1  0
 21 63  1  0
 21 64  1  0
 22 65  1  6
 23 66  1  0
 25 67  1  0
 25 68  1  0
 25 69  1  0
 26 70  1  0
 26 71  1  0
 26 72  1  0
 28 73  1  0
 28 74  1  0
 28 75  1  0
 29 76  1  0
 29 77  1  0
 30 78  1  0
 30 79  1  0
 32 80  1  0
 32 81  1  0
 32 82  1  0
M  END
>  <meeko>  (12) 
{"is_sidechain": [false], "intermolecular_energy": 2.731, "internal_energy": -0.839}

$$$$
EPH_relaxed_0001_pdb2pqr_Repair_376_r2_0001_out
     RDKit          3D

 82 86  0  0  0  0  0  0  0  0999 V2000
    1.5780   19.0200   -2.9890 C   0  0  0  0  0  0  0  0  0  0  0  0
    1.7750   18.7550   -1.4940 C   0  0  2  0  0  0  0  0  0  0  0  0
    2.7500   19.7600   -0.8490 C   0  0  0  0  0  0  0  0  0  0  0  0
    2.4750   20.0200    0.6350 C   0  0  0  0  0  0  0  0  0  0  0  0
    3.7040   19.8190    1.4690 C   0  0  2  0  0  0  0  0  0  0  0  0
    3.6860   18.6430    2.2880 O   0  0  0  0  0  0  0  0  0  0  0  0
    3.7080   19.8990    2.9840 C   0  0  0  0  0  0  0  0  0  0  0  0
    2.4580   20.1900    3.7540 C   0  0  0  0  0  0  0  0  0  0  0  0
    5.0020   20.1790    3.6830 C   0  0  0  0  0  0  0  0  0  0  0  0
    2.2770   17.3320   -1.2800 C   0  0  1  0  0  0  0  0  0  0  0  0
    3.2450   17.2150   -0.0720 C   0  0  0  0  0  0  0  0  0  0  0  0
    2.9860   15.8310    0.5760 C   0  0  0  0  0  0  0  0  0  0  0  0
    2.1280   15.0690   -0.4610 C   0  0  1  0  0  0  0  0  0  0  0  0
    3.1510   14.5270   -1.5080 C   0  0  0  0  0  0  0  0  0  0  0  0
    1.2170   13.9280    0.1000 C   0  0  2  0  0  0  0  0  0  0  0  0
    1.9680   12.7620    0.7650 C   0  0  0  0  0  0  0  0  0  0  0  0
    2.3350   11.6370   -0.1450 C   0  0  0  0  0  0  0  0  0  0  0  0
    1.8300   11.4310   -1.3760 C   0  0  0  0  0  0  0  0  0  0  0  0
    0.7140   12.3260   -1.9300 C   0  0  1  0  0  0  0  0  0  0  0  0
   -0.3910   11.4420   -2.5650 C   0  0  0  0  0  0  0  0  0  0  0  0
    0.1590   10.4800   -3.6130 C   0  0  0  0  0  0  0  0  0  0  0  0
    1.2250    9.5680   -3.0100 C   0  0  2  0  0  0  0  0  0  0  0  0
    0.6030    8.7030   -2.0550 O   0  0  0  0  0  0  0  0  0  0  0  0
    2.3860   10.3470   -2.3320 C   0  0  0  0  0  0  0  0  0  0  0  0
    3.2440   11.0480   -3.4150 C   0  0  0  0  0  0  0  0  0  0  0  0
    3.3160    9.3130   -1.6430 C   0  0  0  0  0  0  0  0  0  0  0  0
    0.1280   13.4060   -0.9230 C   0  0  1  0  0  0  0  0  0  0  0  0
   -1.0160   12.7750   -0.0710 C   0  0  0  0  0  0  0  0  0  0  0  0
   -0.5270   14.5760   -1.7480 C   0  0  0  0  0  0  0  0  0  0  0  0
    0.3990   15.7320   -2.1700 C   0  0  0  0  0  0  0  0  0  0  0  0
    1.2180   16.2420   -0.9800 C   0  0  2  0  0  0  0  0  0  0  0  0
    0.2170   16.8130    0.0800 C   0  0  0  0  0  0  0  0  0  0  0  0
    0.9267   19.8962   -3.1234 H   0  0  0  0  0  0  0  0  0  0  0  0
    2.5537   19.2129   -3.4589 H   0  0  0  0  0  0  0  0  0  0  0  0
    1.1121   18.1413   -3.4589 H   0  0  0  0  0  0  0  0  0  0  0  0
    0.7983   18.8824   -1.0044 H   0  0  0  0  0  0  0  0  0  0  0  0
    3.7718   19.3651   -0.9487 H   0  0  0  0  0  0  0  0  0  0  0  0
    2.6168   20.7180   -1.3729 H   0  0  0  0  0  0  0  0  0  0  0  0
    2.1267   21.0563    0.7570 H   0  0  0  0  0  0  0  0  0  0  0  0
    1.7101   19.3053    0.9728 H   0  0  0  0  0  0  0  0  0  0  0  0
    4.3313   20.2980    0.7028 H   0  0  0  0  0  0  0  0  0  0  0  0
    2.6714   20.1403    4.8320 H   0  0  0  0  0  0  0  0  0  0  0  0
    2.0956   21.1965    3.4980 H   0  0  0  0  0  0  0  0  0  0  0  0
    1.6883   19.4470    3.4980 H   0  0  0  0  0  0  0  0  0  0  0  0
    4.8457   20.1452    4.7713 H   0  0  0  0  0  0  0  0  0  0  0  0
    5.7455   19.4209    3.3956 H   0  0  0  0  0  0  0  0  0  0  0  0
    5.3656   21.1766    3.3956 H   0  0  0  0  0  0  0  0  0  0  0  0
    2.7372   17.1493   -2.2623 H   0  0  0  0  0  0  0  0  0  0  0  0
    4.2881   17.2837   -0.4144 H   0  0  0  0  0  0  0  0  0  0  0  0
    3.0754   18.0272    0.6502 H   0  0  0  0  0  0  0  0  0  0  0  0
    3.9342   15.3039    0.7580 H   0  0  0  0  0  0  0  0  0  0  0  0
    2.4847   15.9144    1.5516 H   0  0  0  0  0  0  0  0  0  0  0  0
    4.0060   14.0740   -0.9848 H   0  0  0  0  0  0  0  0  0  0  0  0
    2.6635   13.7689   -2.1385 H   0  0  0  0  0  0  0  0  0  0  0  0
    3.5044   15.3562   -2.1385 H   0  0  0  0  0  0  0  0  0  0  0  0
    0.6749   14.4358    0.9114 H   0  0  0  0  0  0  0  0  0  0  0  0
    2.8949   13.1607    1.2031 H   0  0  0  0  0  0  0  0  0  0  0  0
    1.2756   12.3387    1.5076 H   0  0  0  0  0  0  0  0  0  0  0  0
    3.0806   10.9158    0.2209 H   0  0  0  0  0  0  0  0  0  0  0  0
    1.1818   12.9520   -2.7042 H   0  0  0  0  0  0  0  0  0  0  0  0
   -0.8752   10.8570   -1.7691 H   0  0  0  0  0  0  0  0  0  0  0  0
   -1.1051   12.1106   -3.0680 H   0  0  0  0  0  0  0  0  0  0  0  0
   -0.6641    9.8631   -4.0027 H   0  0  0  0  0  0  0  0  0  0  0  0
    0.6163   11.0670   -4.4231 H   0  0  0  0  0  0  0  0  0  0  0  0
    1.6733    8.9937   -3.8341 H   0  0  0  0  0  0  0  0  0  0  0  0
    1.0060    7.8230   -2.1490 H   0  0  0  0  0  0  0  0  0  0  0  0
    4.0084   11.6726   -2.9297 H   0  0  0  0  0  0  0  0  0  0  0  0
    3.7346   10.2890   -4.0421 H   0  0  0  0  0  0  0  0  0  0  0  0
    2.5981   11.6801   -4.0421 H   0  0  0  0  0  0  0  0  0  0  0  0
    3.2278    9.4110   -0.5509 H   0  0  0  0  0  0  0  0  0  0  0  0
    3.0219    8.2969   -1.9449 H   0  0  0  0  0  0  0  0  0  0  0  0
    4.3574    9.4982   -1.9449 H   0  0  0  0  0  0  0  0  0  0  0  0
   -0.7889   12.9003    0.9980 H   0  0  0  0  0  0  0  0  0  0  0  0
   -1.9667   13.2763   -0.3051 H   0  0  0  0  0  0  0  0  0  0  0  0
   -1.0992   11.7034   -0.3051 H   0  0  0  0  0  0  0  0  0  0  0  0
   -0.9528   14.1396   -2.6636 H   0  0  0  0  0  0  0  0  0  0  0  0
   -1.2627   15.0304   -1.0682 H   0  0  0  0  0  0  0  0  0  0  0  0
    1.0851   15.3759   -2.9526 H   0  0  0  0  0  0  0  0  0  0  0  0
   -0.2215   16.5579   -2.5480 H   0  0  0  0  0  0  0  0  0  0  0  0
    0.5924   16.5988    1.0915 H   0  0  0  0  0  0  0  0  0  0  0  0
    0.1227   17.9008   -0.0534 H   0  0  0  0  0  0  0  0  0  0  0  0
   -0.7674   16.3405   -0.0534 H   0  0  0  0  0  0  0  0  0  0  0  0
  1  2  1  0
  2  3  1  0
  3  4  1  0
  4  5  1  0
  5  6  1  0
  6  7  1  0
  7  8  1  0
  7  9  1  0
  2 10  1  0
 10 11  1  0
 11 12  1  0
 12 13  1  0
 13 14  1  6
 13 15  1  0
 15 16  1  0
 16 17  1  0
 17 18  2  0
 18 19  1  0
 19 20  1  0
 20 21  1  0
 21 22  1  0
 22 23  1  0
 22 24  1  0
 24 25  1  0
 24 26  1  0
 19 27  1  0
 27 28  1  1
 27 29  1  0
 29 30  1  0
 30 31  1  0
 31 32  1  1
  7  5  1  0
 31 10  1  0
 31 13  1  0
 27 15  1  0
 24 18  1  0
  1 33  1  0
  1 34  1  0
  1 35  1  0
  2 36  1  1
  3 37  1  0
  3 38  1  0
  4 39  1  0
  4 40  1  0
  5 41  1  6
  8 42  1  0
  8 43  1  0
  8 44  1  0
  9 45  1  0
  9 46  1  0
  9 47  1  0
 10 48  1  6
 11 49  1  0
 11 50  1  0
 12 51  1  0
 12 52  1  0
 14 53  1  0
 14 54  1  0
 14 55  1  0
 15 56  1  1
 16 57  1  0
 16 58  1  0
 17 59  1  0
 19 60  1  6
 20 61  1  0
 20 62  1  0
 21 63  1  0
 21 64  1  0
 22 65  1  6
 23 66  1  0
 25 67  1  0
 25 68  1  0
 25 69  1  0
 26 70  1  0
 26 71  1  0
 26 72  1  0
 28 73  1  0
 28 74  1  0
 28 75  1  0
 29 76  1  0
 29 77  1  0
 30 78  1  0
 30 79  1  0
 32 80  1  0
 32 81  1  0
 32 82  1  0
M  END
>  <meeko>  (13) 
{"is_sidechain": [false], "intermolecular_energy": 2.731, "internal_energy": -0.839}

$$$$
EPH_relaxed_0001_pdb2pqr_Repair_376_r2_0001_out
     RDKit          3D

 82 86  0  0  0  0  0  0  0  0999 V2000
   -1.9660    9.6030   -0.4150 C   0  0  0  0  0  0  0  0  0  0  0  0
   -1.0070   10.2960   -1.3870 C   0  0  2  0  0  0  0  0  0  0  0  0
    0.1420    9.3680   -1.8290 C   0  0  0  0  0  0  0  0  0  0  0  0
    0.9010    9.8700   -3.0600 C   0  0  0  0  0  0  0  0  0  0  0  0
    2.3840    9.7460   -2.8860 C   0  0  2  0  0  0  0  0  0  0  0  0
    3.0170   10.8920   -2.3020 O   0  0  0  0  0  0  0  0  0  0  0  0
    3.3900   10.5830   -3.6550 C   0  0  0  0  0  0  0  0  0  0  0  0
    2.9510   11.6060   -4.6560 C   0  0  0  0  0  0  0  0  0  0  0  0
    4.7900   10.0720   -3.7920 C   0  0  0  0  0  0  0  0  0  0  0  0
   -0.4400   11.5580   -0.7480 C   0  0  1  0  0  0  0  0  0  0  0  0
    0.7200   11.2590    0.2390 C   0  0  0  0  0  0  0  0  0  0  0  0
    1.7220   12.4360    0.1210 C   0  0  0  0  0  0  0  0  0  0  0  0
    0.9560   13.5230   -0.6700 C   0  0  1  0  0  0  0  0  0  0  0  0
    0.0550   14.2310    0.3900 C   0  0  0  0  0  0  0  0  0  0  0  0
    1.8320   14.5480   -1.4610 C   0  0  2  0  0  0  0  0  0  0  0  0
    2.7570   15.4210   -0.5940 C   0  0  0  0  0  0  0  0  0  0  0  0
    2.1650   16.7110   -0.1290 C   0  0  0  0  0  0  0  0  0  0  0  0
    1.0530   17.2840   -0.6240 C   0  0  0  0  0  0  0  0  0  0  0  0
    0.3210   16.6750   -1.8270 C   0  0  1  0  0  0  0  0  0  0  0  0
   -0.0170   17.7930   -2.8490 C   0  0  0  0  0  0  0  0  0  0  0  0
   -0.7900   18.9470   -2.2180 C   0  0  0  0  0  0  0  0  0  0  0  0
   -0.0050   19.5640   -1.0640 C   0  0  2  0  0  0  0  0  0  0  0  0
    1.1680   20.1940   -1.5890 O   0  0  0  0  0  0  0  0  0  0  0  0
    0.4000   18.5300    0.0240 C   0  0  0  0  0  0  0  0  0  0  0  0
   -0.8600   18.0710    0.7990 C   0  0  0  0  0  0  0  0  0  0  0  0
    1.3060   19.2530    1.0560 C   0  0  0  0  0  0  0  0  0  0  0  0
    1.0250   15.4210   -2.5050 C   0  0  1  0  0  0  0  0  0  0  0  0
    2.0540   15.9020   -3.5730 C   0  0  0  0  0  0  0  0  0  0  0  0
   -0.0580   14.5790   -3.2780 C   0  0  0  0  0  0  0  0  0  0  0  0
   -0.8050   13.5000   -2.4720 C   0  0  0  0  0  0  0  0  0  0  0  0
    0.1760   12.6190   -1.6940 C   0  0  2  0  0  0  0  0  0  0  0  0
    1.0820   11.8770   -2.7350 C   0  0  0  0  0  0  0  0  0  0  0  0
   -1.6621    9.8226    0.6191 H   0  0  0  0  0  0  0  0  0  0  0  0
   -2.9885    9.9722   -0.5829 H   0  0  0  0  0  0  0  0  0  0  0  0
   -1.9364    8.5163   -0.5829 H   0  0  0  0  0  0  0  0  0  0  0  0
   -1.5824   10.5613   -2.2862 H   0  0  0  0  0  0  0  0  0  0  0  0
    0.8542    9.2763   -0.9957 H   0  0  0  0  0  0  0  0  0  0  0  0
   -0.3113    8.4038   -2.1025 H   0  0  0  0  0  0  0  0  0  0  0  0
    0.5939    9.2772   -3.9342 H   0  0  0  0  0  0  0  0  0  0  0  0
    0.6603   10.9341   -3.2006 H   0  0  0  0  0  0  0  0  0  0  0  0
    2.2974    8.6616   -2.7231 H   0  0  0  0  0  0  0  0  0  0  0  0
    2.5700   12.4938   -4.1300 H   0  0  0  0  0  0  0  0  0  0  0  0
    3.8056   11.8921   -5.2868 H   0  0  0  0  0  0  0  0  0  0  0  0
    2.1548   11.1837   -5.2868 H   0  0  0  0  0  0  0  0  0  0  0  0
    5.2222    9.9143   -2.7928 H   0  0  0  0  0  0  0  0  0  0  0  0
    4.7805    9.1194   -4.3419 H   0  0  0  0  0  0  0  0  0  0  0  0
    5.3964   10.8068   -4.3419 H   0  0  0  0  0  0  0  0  0  0  0  0
   -1.3539   11.9551   -0.2821 H   0  0  0  0  0  0  0  0  0  0  0  0
    0.3347   11.1912    1.2671 H   0  0  0  0  0  0  0  0  0  0  0  0
    1.2055   10.3014   -0.0004 H   0  0  0  0  0  0  0  0  0  0  0  0
    2.0042   12.8071    1.1173 H   0  0  0  0  0  0  0  0  0  0  0  0
    2.6572   12.1394   -0.3764 H   0  0  0  0  0  0  0  0  0  0  0  0
    0.3971   13.9622    1.4003 H   0  0  0  0  0  0  0  0  0  0  0  0
    0.1214   15.3211    0.2583 H   0  0  0  0  0  0  0  0  0  0  0  0
   -0.9884   13.9087    0.2583 H   0  0  0  0  0  0  0  0  0  0  0  0
    2.4973   13.8916   -2.0411 H   0  0  0  0  0  0  0  0  0  0  0  0
    3.0408   14.8375    0.2942 H   0  0  0  0  0  0  0  0  0  0  0  0
    3.6095   15.6907   -1.2347 H   0  0  0  0  0  0  0  0  0  0  0  0
    2.6819   17.2370    0.6872 H   0  0  0  0  0  0  0  0  0  0  0  0
   -0.6078   16.2403   -1.4290 H   0  0  0  0  0  0  0  0  0  0  0  0
    0.9221   18.1844   -3.2672 H   0  0  0  0  0  0  0  0  0  0  0  0
   -0.6540   17.3511   -3.6294 H   0  0  0  0  0  0  0  0  0  0  0  0
   -0.9729   19.7176   -2.9814 H   0  0  0  0  0  0  0  0  0  0  0  0
   -1.7420   18.5590   -1.8267 H   0  0  0  0  0  0  0  0  0  0  0  0
   -0.6627   20.2956   -0.5719 H   0  0  0  0  0  0  0  0  0  0  0  0
    1.1900   21.1040   -1.2490 H   0  0  0  0  0  0  0  0  0  0  0  0
   -0.6707   18.1400    1.8804 H   0  0  0  0  0  0  0  0  0  0  0  0
   -1.7095   18.7174    0.5335 H   0  0  0  0  0  0  0  0  0  0  0  0
   -1.0947   17.0296    0.5335 H   0  0  0  0  0  0  0  0  0  0  0  0
    0.9810   18.9937    2.0744 H   0  0  0  0  0  0  0  0  0  0  0  0
    2.3498   18.9369    0.9125 H   0  0  0  0  0  0  0  0  0  0  0  0
    1.2294   20.3409    0.9125 H   0  0  0  0  0  0  0  0  0  0  0  0
    2.9396   16.3160   -3.0686 H   0  0  0  0  0  0  0  0  0  0  0  0
    2.3545   15.0511   -4.2020 H   0  0  0  0  0  0  0  0  0  0  0  0
    1.5939   16.6783   -4.2020 H   0  0  0  0  0  0  0  0  0  0  0  0
   -0.8088   15.2815   -3.6690 H   0  0  0  0  0  0  0  0  0  0  0  0
    0.5021   14.0271   -4.0472 H   0  0  0  0  0  0  0  0  0  0  0  0
   -1.4889   13.9896   -1.7631 H   0  0  0  0  0  0  0  0  0  0  0  0
   -1.3665   12.8648   -3.1730 H   0  0  0  0  0  0  0  0  0  0  0  0
    1.8271   11.2668   -2.2035 H   0  0  0  0  0  0  0  0  0  0  0  0
    0.4584   11.2268   -3.3662 H   0  0  0  0  0  0  0  0  0  0  0  0
    1.5966   12.6165   -3.3662 H   0  0  0  0  0  0  0  0  0  0  0  0
  1  2  1  0
  2  3  1  0
  3  4  1  0
  4  5  1  0
  5  6  1  0
  6  7  1  0
  7  8  1  0
  7  9  1  0
  2 10  1  0
 10 11  1  0
 11 12  1  0
 12 13  1  0
 13 14  1  1
 13 15  1  0
 15 16  1  0
 16 17  1  0
 17 18  2  0
 18 19  1  0
 19 20  1  0
 20 21  1  0
 21 22  1  0
 22 23  1  0
 22 24  1  0
 24 25  1  0
 24 26  1  0
 19 27  1  0
 27 28  1  6
 27 29  1  0
 29 30  1  0
 30 31  1  0
 31 32  1  6
  7  5  1  0
 31 10  1  0
 31 13  1  0
 27 15  1  0
 24 18  1  0
  1 33  1  0
  1 34  1  0
  1 35  1  0
  2 36  1  6
  3 37  1  0
  3 38  1  0
  4 39  1  0
  4 40  1  0
  5 41  1  1
  8 42  1  0
  8 43  1  0
  8 44  1  0
  9 45  1  0
  9 46  1  0
  9 47  1  0
 10 48  1  1
 11 49  1  0
 11 50  1  0
 12 51  1  0
 12 52  1  0
 14 53  1  0
 14 54  1  0
 14 55  1  0
 15 56  1  6
 16 57  1  0
 16 58  1  0
 17 59  1  0
 19 60  1  1
 20 61  1  0
 20 62  1  0
 21 63  1  0
 21 64  1  0
 22 65  1  1
 23 66  1  0
 25 67  1  0
 25 68  1  0
 25 69  1  0
 26 70  1  0
 26 71  1  0
 26 72  1  0
 28 73  1  0
 28 74  1  0
 28 75  1  0
 29 76  1  0
 29 77  1  0
 30 78  1  0
 30 79  1  0
 32 80  1  0
 32 81  1  0
 32 82  1  0
M  END
>  <meeko>  (14) 
{"is_sidechain": [false], "intermolecular_energy": 2.731, "internal_energy": -0.839}

$$$$
EPH_relaxed_0001_pdb2pqr_Repair_376_r2_0001_out
     RDKit          3D

 82 86  0  0  0  0  0  0  0  0999 V2000
    3.1510   14.8420   -7.5420 C   0  0  0  0  0  0  0  0  0  0  0  0
    1.6270   14.9010   -7.4000 C   0  0  2  0  0  0  0  0  0  0  0  0
    1.0300   16.1580   -8.0630 C   0  0  0  0  0  0  0  0  0  0  0  0
    1.9560   16.8070   -9.0960 C   0  0  0  0  0  0  0  0  0  0  0  0
    1.5970   16.4030  -10.4940 C   0  0  2  0  0  0  0  0  0  0  0  0
    0.9860   15.1110  -10.6050 O   0  0  0  0  0  0  0  0  0  0  0  0
    2.2700   15.2610  -11.2330 C   0  0  0  0  0  0  0  0  0  0  0  0
    3.3560   14.4520  -10.5970 C   0  0  0  0  0  0  0  0  0  0  0  0
    2.2150   15.2460  -12.7290 C   0  0  0  0  0  0  0  0  0  0  0  0
    1.2410   14.8570   -5.9260 C   0  0  1  0  0  0  0  0  0  0  0  0
   -0.0150   15.7120   -5.6120 C   0  0  0  0  0  0  0  0  0  0  0  0
   -0.7950   14.9700   -4.4960 C   0  0  0  0  0  0  0  0  0  0  0  0
    0.1930   13.8990   -3.9760 C   0  0  1  0  0  0  0  0  0  0  0  0
    1.1280   14.6630   -2.9880 C   0  0  0  0  0  0  0  0  0  0  0  0
   -0.4440   12.6370   -3.3090 C   0  0  2  0  0  0  0  0  0  0  0  0
   -1.2640   12.9150   -2.0370 C   0  0  0  0  0  0  0  0  0  0  0  0
   -0.4960   12.8570   -0.7580 C   0  0  0  0  0  0  0  0  0  0  0  0
    0.7280   12.3170   -0.6040 C   0  0  0  0  0  0  0  0  0  0  0  0
    1.4240   11.6000   -1.7680 C   0  0  1  0  0  0  0  0  0  0  0  0
    2.0110   10.2530   -1.2700 C   0  0  0  0  0  0  0  0  0  0  0  0
    2.9250   10.4250   -0.0600 C   0  0  0  0  0  0  0  0  0  0  0  0
    2.1800   11.0880    1.0950 C   0  0  2  0  0  0  0  0  0  0  0  0
    1.1670   10.1940    1.5650 O   0  0  0  0  0  0  0  0  0  0  0  0
    1.5370   12.4500    0.7090 C   0  0  0  0  0  0  0  0  0  0  0  0
    2.6470   13.5070    0.4910 C   0  0  0  0  0  0  0  0  0  0  0  0
    0.7000   12.9430    1.9200 C   0  0  0  0  0  0  0  0  0  0  0  0
    0.5650   11.4370   -3.0960 C   0  0  1  0  0  0  0  0  0  0  0  0
   -0.2960   10.1400   -3.0170 C   0  0  0  0  0  0  0  0  0  0  0  0
    1.5390   11.2500   -4.3190 C   0  0  0  0  0  0  0  0  0  0  0  0
    2.0400   12.5330   -5.0100 C   0  0  0  0  0  0  0  0  0  0  0  0
    0.8750   13.4750   -5.3280 C   0  0  2  0  0  0  0  0  0  0  0  0
   -0.0720   12.7420   -6.3380 C   0  0  0  0  0  0  0  0  0  0  0  0
    3.6119   14.8242   -6.5434 H   0  0  0  0  0  0  0  0  0  0  0  0
    3.4330   13.9323   -8.0923 H   0  0  0  0  0  0  0  0  0  0  0  0
    3.5025   15.7272   -8.0923 H   0  0  0  0  0  0  0  0  0  0  0  0
    1.2120   14.0250   -7.9201 H   0  0  0  0  0  0  0  0  0  0  0  0
    0.0936   15.8742   -8.5656 H   0  0  0  0  0  0  0  0  0  0  0  0
    0.8699   16.8976   -7.2647 H   0  0  0  0  0  0  0  0  0  0  0  0
    1.8757   17.9006   -9.0093 H   0  0  0  0  0  0  0  0  0  0  0  0
    2.9836   16.4698   -8.8949 H   0  0  0  0  0  0  0  0  0  0  0  0
    1.4029   17.4493  -10.7724 H   0  0  0  0  0  0  0  0  0  0  0  0
    3.2686   14.5171   -9.5024 H   0  0  0  0  0  0  0  0  0  0  0  0
    3.2624   13.4018  -10.9105 H   0  0  0  0  0  0  0  0  0  0  0  0
    4.3355   14.8423  -10.9105 H   0  0  0  0  0  0  0  0  0  0  0  0
    1.2017   14.9697  -13.0559 H   0  0  0  0  0  0  0  0  0  0  0  0
    2.4651   16.2452  -13.1151 H   0  0  0  0  0  0  0  0  0  0  0  0
    2.9378   14.5122  -13.1151 H   0  0  0  0  0  0  0  0  0  0  0  0
    2.1763   15.2251   -5.4791 H   0  0  0  0  0  0  0  0  0  0  0  0
    0.2847   16.7115   -5.2640 H   0  0  0  0  0  0  0  0  0  0  0  0
   -0.6381   15.8421   -6.5091 H   0  0  0  0  0  0  0  0  0  0  0  0
   -1.0746   15.6644   -3.6900 H   0  0  0  0  0  0  0  0  0  0  0  0
   -1.7327   14.5288   -4.8649 H   0  0  0  0  0  0  0  0  0  0  0  0
    0.8392   14.4270   -1.9532 H   0  0  0  0  0  0  0  0  0  0  0  0
    2.1703   14.3548   -3.1571 H   0  0  0  0  0  0  0  0  0  0  0  0
    1.0337   15.7458   -3.1571 H   0  0  0  0  0  0  0  0  0  0  0  0
   -1.1710   12.3112   -4.0675 H   0  0  0  0  0  0  0  0  0  0  0  0
   -1.6997   13.9211   -2.1266 H   0  0  0  0  0  0  0  0  0  0  0  0
   -2.0150   12.1134   -1.9777 H   0  0  0  0  0  0  0  0  0  0  0  0
   -0.9701   13.2922    0.1341 H   0  0  0  0  0  0  0  0  0  0  0  0
    2.2379   12.2656   -2.0913 H   0  0  0  0  0  0  0  0  0  0  0  0
    1.1803    9.5873   -0.9927 H   0  0  0  0  0  0  0  0  0  0  0  0
    2.6140    9.8292   -2.0865 H   0  0  0  0  0  0  0  0  0  0  0  0
    3.2845    9.4369    0.2632 H   0  0  0  0  0  0  0  0  0  0  0  0
    3.7712   11.0666   -0.3470 H   0  0  0  0  0  0  0  0  0  0  0  0
    2.9175   11.3016    1.8827 H   0  0  0  0  0  0  0  0  0  0  0  0
    1.3890    9.3030    1.2450 H   0  0  0  0  0  0  0  0  0  0  0  0
    3.0156   13.8580    1.4661 H   0  0  0  0  0  0  0  0  0  0  0  0
    3.4764   13.0566   -0.0740 H   0  0  0  0  0  0  0  0  0  0  0  0
    2.2376   14.3574   -0.0740 H   0  0  0  0  0  0  0  0  0  0  0  0
    1.1994   12.6489    2.8549 H   0  0  0  0  0  0  0  0  0  0  0  0
    0.6096   14.0386    1.8816 H   0  0  0  0  0  0  0  0  0  0  0  0
   -0.3020   12.4908    1.8816 H   0  0  0  0  0  0  0  0  0  0  0  0
   -0.4695    9.8787   -1.9627 H   0  0  0  0  0  0  0  0  0  0  0  0
   -1.2613   10.3097   -3.5163 H   0  0  0  0  0  0  0  0  0  0  0  0
    0.2352    9.3163   -3.5163 H   0  0  0  0  0  0  0  0  0  0  0  0
    2.4209   10.6987   -3.9609 H   0  0  0  0  0  0  0  0  0  0  0  0
    0.9458   10.7247   -5.0820 H   0  0  0  0  0  0  0  0  0  0  0  0
    2.7475   13.0479   -4.3434 H   0  0  0  0  0  0  0  0  0  0  0  0
    2.5329   12.2540   -5.9530 H   0  0  0  0  0  0  0  0  0  0  0  0
   -0.8224   12.1612   -5.7816 H   0  0  0  0  0  0  0  0  0  0  0  0
   -0.5790   13.4853   -6.9708 H   0  0  0  0  0  0  0  0  0  0  0  0
    0.5205   12.0648   -6.9708 H   0  0  0  0  0  0  0  0  0  0  0  0
  1  2  1  0
  2  3  1  0
  3  4  1  0
  4  5  1  0
  5  6  1  0
  6  7  1  0
  7  8  1  0
  7  9  1  0
  2 10  1  0
 10 11  1  0
 11 12  1  0
 12 13  1  0
 13 14  1  1
 13 15  1  0
 15 16  1  0
 16 17  1  0
 17 18  2  0
 18 19  1  0
 19 20  1  0
 20 21  1  0
 21 22  1  0
 22 23  1  0
 22 24  1  0
 24 25  1  0
 24 26  1  0
 19 27  1  0
 27 28  1  1
 27 29  1  0
 29 30  1  0
 30 31  1  0
 31 32  1  6
  7  5  1  0
 31 10  1  0
 31 13  1  0
 27 15  1  0
 24 18  1  0
  1 33  1  0
  1 34  1  0
  1 35  1  0
  2 36  1  6
  3 37  1  0
  3 38  1  0
  4 39  1  0
  4 40  1  0
  5 41  1  6
  8 42  1  0
  8 43  1  0
  8 44  1  0
  9 45  1  0
  9 46  1  0
  9 47  1  0
 10 48  1  1
 11 49  1  0
 11 50  1  0
 12 51  1  0
 12 52  1  0
 14 53  1  0
 14 54  1  0
 14 55  1  0
 15 56  1  6
 16 57  1  0
 16 58  1  0
 17 59  1  0
 19 60  1  6
 20 61  1  0
 20 62  1  0
 21 63  1  0
 21 64  1  0
 22 65  1  1
 23 66  1  0
 25 67  1  0
 25 68  1  0
 25 69  1  0
 26 70  1  0
 26 71  1  0
 26 72  1  0
 28 73  1  0
 28 74  1  0
 28 75  1  0
 29 76  1  0
 29 77  1  0
 30 78  1  0
 30 79  1  0
 32 80  1  0
 32 81  1  0
 32 82  1  0
M  END
>  <meeko>  (15) 
{"is_sidechain": [false], "intermolecular_energy": 2.731, "internal_energy": -0.839}

$$$$
EPH_relaxed_0001_pdb2pqr_Repair_376_r2_0001_out
     RDKit          3D

 82 86  0  0  0  0  0  0  0  0999 V2000
    1.7840   18.4730   -2.1130 C   0  0  0  0  0  0  0  0  0  0  0  0
    2.2020   17.3140   -3.0220 C   0  0  2  0  0  0  0  0  0  0  0  0
    1.2070   17.0970   -4.1810 C   0  0  0  0  0  0  0  0  0  0  0  0
    1.6360   16.0040   -5.1630 C   0  0  0  0  0  0  0  0  0  0  0  0
    0.6170   15.7990   -6.2430 C   0  0  2  0  0  0  0  0  0  0  0  0
    0.5940   14.4790   -6.8020 O   0  0  0  0  0  0  0  0  0  0  0  0
    0.9770   15.5380   -7.6940 C   0  0  0  0  0  0  0  0  0  0  0  0
    2.4020   15.4690   -8.1440 C   0  0  0  0  0  0  0  0  0  0  0  0
   -0.0430   15.8360   -8.7490 C   0  0  0  0  0  0  0  0  0  0  0  0
    2.3370   16.0350   -2.2050 C   0  0  1  0  0  0  0  0  0  0  0  0
    2.9450   16.2850   -0.8000 C   0  0  0  0  0  0  0  0  0  0  0  0
    2.2620   15.2840    0.1680 C   0  0  0  0  0  0  0  0  0  0  0  0
    1.5370   14.2790   -0.7580 C   0  0  1  0  0  0  0  0  0  0  0  0
    2.6470   13.2790   -1.2100 C   0  0  0  0  0  0  0  0  0  0  0  0
    0.3060   13.5370   -0.1440 C   0  0  2  0  0  0  0  0  0  0  0  0
    0.6230   12.6390    1.0650 C   0  0  0  0  0  0  0  0  0  0  0  0
    0.9580   11.2220    0.7360 C   0  0  0  0  0  0  0  0  0  0  0  0
    0.7290   10.6180   -0.4450 C   0  0  0  0  0  0  0  0  0  0  0  0
   -0.0170   11.3460   -1.5700 C   0  0  1  0  0  0  0  0  0  0  0  0
   -1.0960   10.4060   -2.1690 C   0  0  0  0  0  0  0  0  0  0  0  0
   -0.5210    9.0680   -2.6210 C   0  0  0  0  0  0  0  0  0  0  0  0
    0.1610    8.3470   -1.4610 C   0  0  2  0  0  0  0  0  0  0  0  0
   -0.8330    7.9780   -0.5000 O   0  0  0  0  0  0  0  0  0  0  0  0
    1.2620    9.2010   -0.7720 C   0  0  0  0  0  0  0  0  0  0  0  0
    2.4780    9.3470   -1.7210 C   0  0  0  0  0  0  0  0  0  0  0  0
    1.7700    8.4150    0.4670 C   0  0  0  0  0  0  0  0  0  0  0  0
   -0.5920   12.7820   -1.2060 C   0  0  1  0  0  0  0  0  0  0  0  0
   -2.0090   12.6420   -0.5710 C   0  0  0  0  0  0  0  0  0  0  0  0
   -0.7780   13.6130   -2.5300 C   0  0  0  0  0  0  0  0  0  0  0  0
    0.4380   14.4200   -3.0210 C   0  0  0  0  0  0  0  0  0  0  0  0
    1.0370   15.2550   -1.8850 C   0  0  2  0  0  0  0  0  0  0  0  0
   -0.0490   16.2860   -1.4250 C   0  0  0  0  0  0  0  0  0  0  0  0
    1.8928   18.1714   -1.0608 H   0  0  0  0  0  0  0  0  0  0  0  0
    2.4243   19.3449   -2.3126 H   0  0  0  0  0  0  0  0  0  0  0  0
    0.7346   18.7354   -2.3126 H   0  0  0  0  0  0  0  0  0  0  0  0
    3.1739   17.5755   -3.4658 H   0  0  0  0  0  0  0  0  0  0  0  0
    0.2323   16.8177   -3.7544 H   0  0  0  0  0  0  0  0  0  0  0  0
    1.1625   18.0389   -4.7474 H   0  0  0  0  0  0  0  0  0  0  0  0
    2.5914   16.2942   -5.6245 H   0  0  0  0  0  0  0  0  0  0  0  0
    1.7386   15.0619   -4.6046 H   0  0  0  0  0  0  0  0  0  0  0  0
   -0.0642   16.5217   -5.7701 H   0  0  0  0  0  0  0  0  0  0  0  0
    3.0629   15.4370   -7.2652 H   0  0  0  0  0  0  0  0  0  0  0  0
    2.5520   14.5625   -8.7488 H   0  0  0  0  0  0  0  0  0  0  0  0
    2.6389   16.3567   -8.7488 H   0  0  0  0  0  0  0  0  0  0  0  0
   -0.9941   16.1139   -8.2714 H   0  0  0  0  0  0  0  0  0  0  0  0
    0.3098   16.6686   -9.3753 H   0  0  0  0  0  0  0  0  0  0  0  0
   -0.1940   14.9444   -9.3753 H   0  0  0  0  0  0  0  0  0  0  0  0
    2.9702   15.4473   -2.8860 H   0  0  0  0  0  0  0  0  0  0  0  0
    4.0309   16.1108   -0.8208 H   0  0  0  0  0  0  0  0  0  0  0  0
    2.7784   17.3231   -0.4767 H   0  0  0  0  0  0  0  0  0  0  0  0
    3.0116   14.7701    0.7877 H   0  0  0  0  0  0  0  0  0  0  0  0
    1.5718   15.7822    0.8647 H   0  0  0  0  0  0  0  0  0  0  0  0
    3.1309   12.8431   -0.3235 H   0  0  0  0  0  0  0  0  0  0  0  0
    2.1950   12.4773   -1.8125 H   0  0  0  0  0  0  0  0  0  0  0  0
    3.3973   13.8119   -1.8125 H   0  0  0  0  0  0  0  0  0  0  0  0
   -0.2980   14.3674    0.2506 H   0  0  0  0  0  0  0  0  0  0  0  0
    1.4804   13.0762    1.5976 H   0  0  0  0  0  0  0  0  0  0  0  0
   -0.2971   12.6025    1.6667 H   0  0  0  0  0  0  0  0  0  0  0  0
    1.4321   10.6205    1.5255 H   0  0  0  0  0  0  0  0  0  0  0  0
    0.7393   11.5804   -2.3336 H   0  0  0  0  0  0  0  0  0  0  0  0
   -1.8645   10.2192   -1.4045 H   0  0  0  0  0  0  0  0  0  0  0  0
   -1.5180   10.9040   -3.0544 H   0  0  0  0  0  0  0  0  0  0  0  0
   -1.3359    8.4380   -3.0071 H   0  0  0  0  0  0  0  0  0  0  0  0
    0.2263    9.2545   -3.4063 H   0  0  0  0  0  0  0  0  0  0  0  0
    0.6640    7.4599   -1.8733 H   0  0  0  0  0  0  0  0  0  0  0  0
   -0.5260    7.1690   -0.0560 H   0  0  0  0  0  0  0  0  0  0  0  0
    3.3965    9.4573   -1.1258 H   0  0  0  0  0  0  0  0  0  0  0  0
    2.5575    8.4519   -2.3555 H   0  0  0  0  0  0  0  0  0  0  0  0
    2.3434   10.2354   -2.3555 H   0  0  0  0  0  0  0  0  0  0  0  0
    1.4408    8.9244    1.3847 H   0  0  0  0  0  0  0  0  0  0  0  0
    1.3602    7.3944    0.4470 H   0  0  0  0  0  0  0  0  0  0  0  0
    2.8689    8.3694    0.4470 H   0  0  0  0  0  0  0  0  0  0  0  0
   -1.9219   12.6506    0.5255 H   0  0  0  0  0  0  0  0  0  0  0  0
   -2.6407   13.4821   -0.8952 H   0  0  0  0  0  0  0  0  0  0  0  0
   -2.4641   11.6945   -0.8952 H   0  0  0  0  0  0  0  0  0  0  0  0
   -1.0542   12.9088   -3.3286 H   0  0  0  0  0  0  0  0  0  0  0  0
   -1.5448   14.3649   -2.2920 H   0  0  0  0  0  0  0  0  0  0  0  0
    1.2025   13.7250   -3.3984 H   0  0  0  0  0  0  0  0  0  0  0  0
    0.1080   15.1003   -3.8199 H   0  0  0  0  0  0  0  0  0  0  0  0
   -0.0823   16.3176   -0.3260 H   0  0  0  0  0  0  0  0  0  0  0  0
    0.2047   17.2835   -1.8130 H   0  0  0  0  0  0  0  0  0  0  0  0
   -1.0320   15.9808   -1.8130 H   0  0  0  0  0  0  0  0  0  0  0  0
  1  2  1  0
  2  3  1  0
  3  4  1  0
  4  5  1  0
  5  6  1  0
  6  7  1  0
  7  8  1  0
  7  9  1  0
  2 10  1  0
 10 11  1  0
 11 12  1  0
 12 13  1  0
 13 14  1  6
 13 15  1  0
 15 16  1  0
 16 17  1  0
 17 18  2  0
 18 19  1  0
 19 20  1  0
 20 21  1  0
 21 22  1  0
 22 23  1  0
 22 24  1  0
 24 25  1  0
 24 26  1  0
 19 27  1  0
 27 28  1  1
 27 29  1  0
 29 30  1  0
 30 31  1  0
 31 32  1  1
  7  5  1  0
 31 10  1  0
 31 13  1  0
 27 15  1  0
 24 18  1  0
  1 33  1  0
  1 34  1  0
  1 35  1  0
  2 36  1  6
  3 37  1  0
  3 38  1  0
  4 39  1  0
  4 40  1  0
  5 41  1  6
  8 42  1  0
  8 43  1  0
  8 44  1  0
  9 45  1  0
  9 46  1  0
  9 47  1  0
 10 48  1  6
 11 49  1  0
 11 50  1  0
 12 51  1  0
 12 52  1  0
 14 53  1  0
 14 54  1  0
 14 55  1  0
 15 56  1  1
 16 57  1  0
 16 58  1  0
 17 59  1  0
 19 60  1  6
 20 61  1  0
 20 62  1  0
 21 63  1  0
 21 64  1  0
 22 65  1  6
 23 66  1  0
 25 67  1  0
 25 68  1  0
 25 69  1  0
 26 70  1  0
 26 71  1  0
 26 72  1  0
 28 73  1  0
 28 74  1  0
 28 75  1  0
 29 76  1  0
 29 77  1  0
 30 78  1  0
 30 79  1  0
 32 80  1  0
 32 81  1  0
 32 82  1  0
M  END
>  <meeko>  (16) 
{"is_sidechain": [false], "intermolecular_energy": 2.731, "internal_energy": -0.839}

$$$$
EPH_relaxed_0001_pdb2pqr_Repair_376_r2_0001_out
     RDKit          3D

 82 86  0  0  0  0  0  0  0  0999 V2000
    3.3020   11.3420   -4.2400 C   0  0  0  0  0  0  0  0  0  0  0  0
    2.1400   11.8490   -5.0990 C   0  0  2  0  0  0  0  0  0  0  0  0
    2.6290   12.5430   -6.3860 C   0  0  0  0  0  0  0  0  0  0  0  0
    1.9330   13.8770   -6.6690 C   0  0  0  0  0  0  0  0  0  0  0  0
    2.3910   14.4780   -7.9630 C   0  0  2  0  0  0  0  0  0  0  0  0
    2.5030   15.9070   -7.9540 O   0  0  0  0  0  0  0  0  0  0  0  0
    1.5130   15.3550   -8.8360 C   0  0  0  0  0  0  0  0  0  0  0  0
    0.1040   15.6800   -8.4480 C   0  0  0  0  0  0  0  0  0  0  0  0
    1.8540   15.4920  -10.2870 C   0  0  0  0  0  0  0  0  0  0  0  0
    1.2740   12.8060   -4.2890 C   0  0  1  0  0  0  0  0  0  0  0  0
   -0.1180   12.2090   -3.9480 C   0  0  0  0  0  0  0  0  0  0  0  0
   -0.5000   12.7400   -2.5420 C   0  0  0  0  0  0  0  0  0  0  0  0
    0.5140   13.8740   -2.2640 C   0  0  1  0  0  0  0  0  0  0  0  0
   -0.0520   15.1140   -3.0240 C   0  0  0  0  0  0  0  0  0  0  0  0
    0.7940   14.1970   -0.7600 C   0  0  2  0  0  0  0  0  0  0  0  0
   -0.4230   14.6980    0.0370 C   0  0  0  0  0  0  0  0  0  0  0  0
   -0.6150   16.1780    0.0450 C   0  0  0  0  0  0  0  0  0  0  0  0
    0.3070   17.0890   -0.3190 C   0  0  0  0  0  0  0  0  0  0  0  0
    1.7300   16.6600   -0.7010 C   0  0  1  0  0  0  0  0  0  0  0  0
    2.7570   17.5770    0.0130 C   0  0  0  0  0  0  0  0  0  0  0  0
    2.5030   19.0580   -0.2530 C   0  0  0  0  0  0  0  0  0  0  0  0
    1.0990   19.4590    0.1940 C   0  0  2  0  0  0  0  0  0  0  0  0
    1.0220   19.3560    1.6190 O   0  0  0  0  0  0  0  0  0  0  0  0
   -0.0200   18.5960   -0.4540 C   0  0  0  0  0  0  0  0  0  0  0  0
   -0.1340   18.9360   -1.9600 C   0  0  0  0  0  0  0  0  0  0  0  0
   -1.3720   19.0090    0.1880 C   0  0  0  0  0  0  0  0  0  0  0  0
    2.0600   15.1160   -0.5200 C   0  0  1  0  0  0  0  0  0  0  0  0
    2.5380   14.8420    0.9390 C   0  0  0  0  0  0  0  0  0  0  0  0
    3.2640   14.7340   -1.4600 C   0  0  0  0  0  0  0  0  0  0  0  0
    2.9140   14.3080   -2.8990 C   0  0  0  0  0  0  0  0  0  0  0  0
    1.8070   13.2490   -2.9030 C   0  0  2  0  0  0  0  0  0  0  0  0
    2.3560   11.9810   -2.1640 C   0  0  0  0  0  0  0  0  0  0  0  0
    3.0470   11.4532   -3.1758 H   0  0  0  0  0  0  0  0  0  0  0  0
    3.4876   10.2811   -4.4636 H   0  0  0  0  0  0  0  0  0  0  0  0
    4.2060   11.9275   -4.4636 H   0  0  0  0  0  0  0  0  0  0  0  0
    1.5455   10.9741   -5.4009 H   0  0  0  0  0  0  0  0  0  0  0  0
    3.7092   12.7281   -6.2917 H   0  0  0  0  0  0  0  0  0  0  0  0
    2.3896   11.8716   -7.2238 H   0  0  0  0  0  0  0  0  0  0  0  0
    0.8471   13.7089   -6.7187 H   0  0  0  0  0  0  0  0  0  0  0  0
    2.1873   14.5751   -5.8579 H   0  0  0  0  0  0  0  0  0  0  0  0
    3.0008   13.5900   -8.1857 H   0  0  0  0  0  0  0  0  0  0  0  0
    0.0208   15.6992   -7.3513 H   0  0  0  0  0  0  0  0  0  0  0  0
   -0.1702   16.6650   -8.8538 H   0  0  0  0  0  0  0  0  0  0  0  0
   -0.5739   14.9146   -8.8538 H   0  0  0  0  0  0  0  0  0  0  0  0
    2.8704   15.9004  -10.3878 H   0  0  0  0  0  0  0  0  0  0  0  0
    1.8059   14.5048  -10.7698 H   0  0  0  0  0  0  0  0  0  0  0  0
    1.1363   16.1716  -10.7698 H   0  0  0  0  0  0  0  0  0  0  0  0
    1.2555   13.6642   -4.9769 H   0  0  0  0  0  0  0  0  0  0  0  0
   -0.8617   12.5338   -4.6906 H   0  0  0  0  0  0  0  0  0  0  0  0
   -0.0902   11.1094   -3.9609 H   0  0  0  0  0  0  0  0  0  0  0  0
   -1.5286   13.1299   -2.5405 H   0  0  0  0  0  0  0  0  0  0  0  0
   -0.4651   11.9522   -1.7751 H   0  0  0  0  0  0  0  0  0  0  0  0
   -0.3947   15.8648   -2.2968 H   0  0  0  0  0  0  0  0  0  0  0  0
    0.7369   15.5486   -3.6555 H   0  0  0  0  0  0  0  0  0  0  0  0
   -0.8972   14.8027   -3.6555 H   0  0  0  0  0  0  0  0  0  0  0  0
    1.0348   13.2066   -0.3463 H   0  0  0  0  0  0  0  0  0  0  0  0
   -1.3247   14.2407   -0.3964 H   0  0  0  0  0  0  0  0  0  0  0  0
   -0.2415   14.4092    1.0828 H   0  0  0  0  0  0  0  0  0  0  0  0
   -1.5931   16.5567    0.3765 H   0  0  0  0  0  0  0  0  0  0  0  0
    1.8060   16.7933   -1.7902 H   0  0  0  0  0  0  0  0  0  0  0  0
    2.6962   17.3978    1.0966 H   0  0  0  0  0  0  0  0  0  0  0  0
    3.7541   17.3329   -0.3823 H   0  0  0  0  0  0  0  0  0  0  0  0
    3.2418   19.6554    0.3014 H   0  0  0  0  0  0  0  0  0  0  0  0
    2.5935   19.2415   -1.3338 H   0  0  0  0  0  0  0  0  0  0  0  0
    0.9294   20.4936   -0.1390 H   0  0  0  0  0  0  0  0  0  0  0  0
    0.9690   18.4120    1.8440 H   0  0  0  0  0  0  0  0  0  0  0  0
   -0.4817   19.9731   -2.0765 H   0  0  0  0  0  0  0  0  0  0  0  0
    0.8509   18.8238   -2.4368 H   0  0  0  0  0  0  0  0  0  0  0  0
   -0.8522   18.2527   -2.4368 H   0  0  0  0  0  0  0  0  0  0  0  0
   -1.2812   18.9813    1.2839 H   0  0  0  0  0  0  0  0  0  0  0  0
   -1.6340   20.0281   -0.1325 H   0  0  0  0  0  0  0  0  0  0  0  0
   -2.1587   18.3102   -0.1325 H   0  0  0  0  0  0  0  0  0  0  0  0
    1.8086   15.2601    1.6484 H   0  0  0  0  0  0  0  0  0  0  0  0
    2.6246   13.7571    1.0988 H   0  0  0  0  0  0  0  0  0  0  0  0
    3.5179   15.3155    1.0988 H   0  0  0  0  0  0  0  0  0  0  0  0
    3.9269   15.6094   -1.5240 H   0  0  0  0  0  0  0  0  0  0  0  0
    3.7182   13.8446   -0.9989 H   0  0  0  0  0  0  0  0  0  0  0  0
    2.5715   15.1888   -3.4619 H   0  0  0  0  0  0  0  0  0  0  0  0
    3.8124   13.8783   -3.3661 H   0  0  0  0  0  0  0  0  0  0  0  0
    2.2901   12.1331   -1.0766 H   0  0  0  0  0  0  0  0  0  0  0  0
    1.7574   11.1030   -2.4483 H   0  0  0  0  0  0  0  0  0  0  0  0
    3.4058   11.8167   -2.4483 H   0  0  0  0  0  0  0  0  0  0  0  0
  1  2  1  0
  2  3  1  0
  3  4  1  0
  4  5  1  0
  5  6  1  0
  6  7  1  0
  7  8  1  0
  7  9  1  0
  2 10  1  0
 10 11  1  0
 11 12  1  0
 12 13  1  0
 13 14  1  6
 13 15  1  0
 15 16  1  0
 16 17  1  0
 17 18  2  0
 18 19  1  0
 19 20  1  0
 20 21  1  0
 21 22  1  0
 22 23  1  0
 22 24  1  0
 24 25  1  0
 24 26  1  0
 19 27  1  0
 27 28  1  1
 27 29  1  0
 29 30  1  0
 30 31  1  0
 31 32  1  1
  7  5  1  0
 31 10  1  0
 31 13  1  0
 27 15  1  0
 24 18  1  0
  1 33  1  0
  1 34  1  0
  1 35  1  0
  2 36  1  6
  3 37  1  0
  3 38  1  0
  4 39  1  0
  4 40  1  0
  5 41  1  6
  8 42  1  0
  8 43  1  0
  8 44  1  0
  9 45  1  0
  9 46  1  0
  9 47  1  0
 10 48  1  6
 11 49  1  0
 11 50  1  0
 12 51  1  0
 12 52  1  0
 14 53  1  0
 14 54  1  0
 14 55  1  0
 15 56  1  1
 16 57  1  0
 16 58  1  0
 17 59  1  0
 19 60  1  6
 20 61  1  0
 20 62  1  0
 21 63  1  0
 21 64  1  0
 22 65  1  1
 23 66  1  0
 25 67  1  0
 25 68  1  0
 25 69  1  0
 26 70  1  0
 26 71  1  0
 26 72  1  0
 28 73  1  0
 28 74  1  0
 28 75  1  0
 29 76  1  0
 29 77  1  0
 30 78  1  0
 30 79  1  0
 32 80  1  0
 32 81  1  0
 32 82  1  0
M  END
>  <meeko>  (17) 
{"is_sidechain": [false], "intermolecular_energy": 2.731, "internal_energy": -0.839}

$$$$
EPH_relaxed_0001_pdb2pqr_Repair_376_r2_0001_out
     RDKit          3D

 82 86  0  0  0  0  0  0  0  0999 V2000
   -0.2240   17.2480   -1.5000 C   0  0  0  0  0  0  0  0  0  0  0  0
   -0.6230   16.0130   -0.6870 C   0  0  2  0  0  0  0  0  0  0  0  0
   -0.9760   16.3670    0.7720 C   0  0  0  0  0  0  0  0  0  0  0  0
   -1.2240   17.8610    1.0000 C   0  0  0  0  0  0  0  0  0  0  0  0
   -0.8960   18.6700   -0.2190 C   0  0  2  0  0  0  0  0  0  0  0  0
   -0.5940   20.0470    0.0410 O   0  0  0  0  0  0  0  0  0  0  0  0
   -1.7740   19.7930   -0.7390 C   0  0  0  0  0  0  0  0  0  0  0  0
   -3.0500   20.1680   -0.0530 C   0  0  0  0  0  0  0  0  0  0  0  0
   -1.6450   20.1940   -2.1750 C   0  0  0  0  0  0  0  0  0  0  0  0
    0.5010   14.9850   -0.7170 C   0  0  1  0  0  0  0  0  0  0  0  0
    0.5820   14.1500    0.5890 C   0  0  0  0  0  0  0  0  0  0  0  0
    1.0240   12.7220    0.1800 C   0  0  0  0  0  0  0  0  0  0  0  0
    1.5010   12.8650   -1.2840 C   0  0  1  0  0  0  0  0  0  0  0  0
    2.9560   13.4220   -1.1790 C   0  0  0  0  0  0  0  0  0  0  0  0
    1.4400   11.5730   -2.1610 C   0  0  2  0  0  0  0  0  0  0  0  0
    2.3310   10.4150   -1.6800 C   0  0  0  0  0  0  0  0  0  0  0  0
    3.7120   10.3950   -2.2470 C   0  0  0  0  0  0  0  0  0  0  0  0
    4.1280   11.0980   -3.3180 C   0  0  0  0  0  0  0  0  0  0  0  0
    3.1440   11.9430   -4.1360 C   0  0  1  0  0  0  0  0  0  0  0  0
    3.3640   11.6760   -5.6480 C   0  0  0  0  0  0  0  0  0  0  0  0
    4.8120   11.8900   -6.0750 C   0  0  0  0  0  0  0  0  0  0  0  0
    5.7540   10.9900   -5.2800 C   0  0  2  0  0  0  0  0  0  0  0  0
    5.4990    9.6280   -5.6350 O   0  0  0  0  0  0  0  0  0  0  0  0
    5.6160   11.1650   -3.7420 C   0  0  0  0  0  0  0  0  0  0  0  0
    6.1790   12.5450   -3.3220 C   0  0  0  0  0  0  0  0  0  0  0  0
    6.5170   10.1010   -3.0580 C   0  0  0  0  0  0  0  0  0  0  0  0
    1.6160   11.8320   -3.7120 C   0  0  1  0  0  0  0  0  0  0  0  0
    0.9470   10.6290   -4.4440 C   0  0  0  0  0  0  0  0  0  0  0  0
    0.8540   13.1230   -4.1930 C   0  0  0  0  0  0  0  0  0  0  0  0
    0.8500   14.3270   -3.2310 C   0  0  0  0  0  0  0  0  0  0  0  0
    0.4420   13.8970   -1.8180 C   0  0  2  0  0  0  0  0  0  0  0  0
   -1.0260   13.3540   -1.8880 C   0  0  0  0  0  0  0  0  0  0  0  0
    0.0408   18.0676   -0.8158 H   0  0  0  0  0  0  0  0  0  0  0  0
    0.6415   17.0056   -2.1341 H   0  0  0  0  0  0  0  0  0  0  0  0
   -1.0677   17.5579   -2.1341 H   0  0  0  0  0  0  0  0  0  0  0  0
   -1.5258   15.5892   -1.1510 H   0  0  0  0  0  0  0  0  0  0  0  0
   -1.8865   15.8170    1.0523 H   0  0  0  0  0  0  0  0  0  0  0  0
   -0.1098   16.0869    1.3895 H   0  0  0  0  0  0  0  0  0  0  0  0
   -2.2837   18.0118    1.2534 H   0  0  0  0  0  0  0  0  0  0  0  0
   -0.5712   18.1958    1.8196 H   0  0  0  0  0  0  0  0  0  0  0  0
   -0.4524   17.7922   -0.7117 H   0  0  0  0  0  0  0  0  0  0  0  0
   -2.9065   20.1258    1.0368 H   0  0  0  0  0  0  0  0  0  0  0  0
   -3.3375   21.1886   -0.3458 H   0  0  0  0  0  0  0  0  0  0  0  0
   -3.8440   19.4652   -0.3458 H   0  0  0  0  0  0  0  0  0  0  0  0
   -1.3086   21.2396   -2.2349 H   0  0  0  0  0  0  0  0  0  0  0  0
   -0.9108   19.5435   -2.6728 H   0  0  0  0  0  0  0  0  0  0  0  0
   -2.6208   20.0936   -2.6728 H   0  0  0  0  0  0  0  0  0  0  0  0
    1.3563   15.6535   -0.8946 H   0  0  0  0  0  0  0  0  0  0  0  0
    1.3183   14.5922    1.2763 H   0  0  0  0  0  0  0  0  0  0  0  0
   -0.3888   14.1301    1.1059 H   0  0  0  0  0  0  0  0  0  0  0  0
    1.8443   12.3704    0.8230 H   0  0  0  0  0  0  0  0  0  0  0  0
    0.2112   11.9882    0.2839 H   0  0  0  0  0  0  0  0  0  0  0  0
    3.2325   13.5279   -0.1196 H   0  0  0  0  0  0  0  0  0  0  0  0
    3.6513   12.7265   -1.6717 H   0  0  0  0  0  0  0  0  0  0  0  0
    3.0091   14.4040   -1.6717 H   0  0  0  0  0  0  0  0  0  0  0  0
    0.4040   11.2355   -2.0100 H   0  0  0  0  0  0  0  0  0  0  0  0
    2.4140   10.4821   -0.5852 H   0  0  0  0  0  0  0  0  0  0  0  0
    1.8452    9.4919   -2.0292 H   0  0  0  0  0  0  0  0  0  0  0  0
    4.4521    9.7520   -1.7481 H   0  0  0  0  0  0  0  0  0  0  0  0
    3.3792   12.9924   -3.9049 H   0  0  0  0  0  0  0  0  0  0  0  0
    3.0819   10.6356   -5.8670 H   0  0  0  0  0  0  0  0  0  0  0  0
    2.7420   12.3905   -6.2071 H   0  0  0  0  0  0  0  0  0  0  0  0
    4.9098   11.6570   -7.1456 H   0  0  0  0  0  0  0  0  0  0  0  0
    5.0832   12.9386   -5.8831 H   0  0  0  0  0  0  0  0  0  0  0  0
    6.7833   11.2809   -5.5368 H   0  0  0  0  0  0  0  0  0  0  0  0
    6.2570    9.0980   -5.3340 H   0  0  0  0  0  0  0  0  0  0  0  0
    6.2061   12.6113   -2.2243 H   0  0  0  0  0  0  0  0  0  0  0  0
    7.1970   12.6627   -3.7217 H   0  0  0  0  0  0  0  0  0  0  0  0
    5.5338   13.3413   -3.7217 H   0  0  0  0  0  0  0  0  0  0  0  0
    6.4345   10.1984   -1.9654 H   0  0  0  0  0  0  0  0  0  0  0  0
    6.1919    9.0951   -3.3620 H   0  0  0  0  0  0  0  0  0  0  0  0
    7.5627   10.2559   -3.3620 H   0  0  0  0  0  0  0  0  0  0  0  0
    0.5530    9.9205   -3.7005 H   0  0  0  0  0  0  0  0  0  0  0  0
    0.1231   10.9954   -5.0740 H   0  0  0  0  0  0  0  0  0  0  0  0
    1.6929   10.1223   -5.0740 H   0  0  0  0  0  0  0  0  0  0  0  0
    1.3175   13.4513   -5.1350 H   0  0  0  0  0  0  0  0  0  0  0  0
   -0.1999   12.8198   -4.2787 H   0  0  0  0  0  0  0  0  0  0  0  0
    1.8588   14.7642   -3.1971 H   0  0  0  0  0  0  0  0  0  0  0  0
    0.1226   15.0666   -3.5969 H   0  0  0  0  0  0  0  0  0  0  0  0
   -1.4130   13.2109   -0.8683 H   0  0  0  0  0  0  0  0  0  0  0  0
   -1.6594   14.0773   -2.4224 H   0  0  0  0  0  0  0  0  0  0  0  0
   -1.0362   12.3926   -2.4224 H   0  0  0  0  0  0  0  0  0  0  0  0
  1  2  1  0
  2  3  1  0
  3  4  1  0
  4  5  1  0
  5  6  1  0
  6  7  1  0
  7  8  1  0
  7  9  1  0
  2 10  1  0
 10 11  1  0
 11 12  1  0
 12 13  1  0
 13 14  1  1
 13 15  1  0
 15 16  1  0
 16 17  1  0
 17 18  2  0
 18 19  1  0
 19 20  1  0
 20 21  1  0
 21 22  1  0
 22 23  1  0
 22 24  1  0
 24 25  1  0
 24 26  1  0
 19 27  1  0
 27 28  1  6
 27 29  1  0
 29 30  1  0
 30 31  1  0
 31 32  1  6
  7  5  1  0
 31 10  1  0
 31 13  1  0
 27 15  1  0
 24 18  1  0
  1 33  1  0
  1 34  1  0
  1 35  1  0
  2 36  1  6
  3 37  1  0
  3 38  1  0
  4 39  1  0
  4 40  1  0
  5 41  1  6
  8 42  1  0
  8 43  1  0
  8 44  1  0
  9 45  1  0
  9 46  1  0
  9 47  1  0
 10 48  1  6
 11 49  1  0
 11 50  1  0
 12 51  1  0
 12 52  1  0
 14 53  1  0
 14 54  1  0
 14 55  1  0
 15 56  1  6
 16 57  1  0
 16 58  1  0
 17 59  1  0
 19 60  1  6
 20 61  1  0
 20 62  1  0
 21 63  1  0
 21 64  1  0
 22 65  1  6
 23 66  1  0
 25 67  1  0
 25 68  1  0
 25 69  1  0
 26 70  1  0
 26 71  1  0
 26 72  1  0
 28 73  1  0
 28 74  1  0
 28 75  1  0
 29 76  1  0
 29 77  1  0
 30 78  1  0
 30 79  1  0
 32 80  1  0
 32 81  1  0
 32 82  1  0
M  END
>  <meeko>  (18) 
{"is_sidechain": [false], "intermolecular_energy": 2.731, "internal_energy": -0.839}

$$$$
EPH_relaxed_0001_pdb2pqr_Repair_376_r2_0001_out
     RDKit          3D

 82 86  0  0  0  0  0  0  0  0999 V2000
    3.3440   17.8510   -0.3240 C   0  0  0  0  0  0  0  0  0  0  0  0
    2.5020   17.4560   -1.5410 C   0  0  2  0  0  0  0  0  0  0  0  0
    1.0390   17.9230   -1.4110 C   0  0  0  0  0  0  0  0  0  0  0  0
    0.7500   18.6930   -0.1200 C   0  0  0  0  0  0  0  0  0  0  0  0
   -0.3720   19.6710   -0.2960 C   0  0  2  0  0  0  0  0  0  0  0  0
   -0.9070   20.1940    0.9270 O   0  0  0  0  0  0  0  0  0  0  0  0
   -1.8000   19.3920    0.1360 C   0  0  0  0  0  0  0  0  0  0  0  0
   -2.1820   18.0950    0.7770 C   0  0  0  0  0  0  0  0  0  0  0  0
   -2.9060   20.1730   -0.5030 C   0  0  0  0  0  0  0  0  0  0  0  0
    2.5510   15.9450   -1.7380 C   0  0  1  0  0  0  0  0  0  0  0  0
    4.0020   15.3990   -1.8140 C   0  0  0  0  0  0  0  0  0  0  0  0
    3.9900   14.0020   -1.1420 C   0  0  0  0  0  0  0  0  0  0  0  0
    2.4910   13.6490   -1.0030 C   0  0  1  0  0  0  0  0  0  0  0  0
    2.0710   13.1160   -2.4090 C   0  0  0  0  0  0  0  0  0  0  0  0
    2.1210   12.6380    0.1310 C   0  0  2  0  0  0  0  0  0  0  0  0
    2.7340   11.2350   -0.0200 C   0  0  0  0  0  0  0  0  0  0  0  0
    1.9030   10.2550   -0.7790 C   0  0  0  0  0  0  0  0  0  0  0  0
    0.5970   10.3980   -1.0720 C   0  0  0  0  0  0  0  0  0  0  0  0
   -0.2020   11.5960   -0.5430 C   0  0  1  0  0  0  0  0  0  0  0  0
   -1.5530   11.1010    0.0380 C   0  0  0  0  0  0  0  0  0  0  0  0
   -2.3480   10.2640   -0.9590 C   0  0  0  0  0  0  0  0  0  0  0  0
   -1.5420    9.0510   -1.4180 C   0  0  2  0  0  0  0  0  0  0  0  0
   -1.3650    8.1680   -0.3060 O   0  0  0  0  0  0  0  0  0  0  0  0
   -0.1560    9.4260   -2.0140 C   0  0  0  0  0  0  0  0  0  0  0  0
   -0.3490   10.1260   -3.3820 C   0  0  0  0  0  0  0  0  0  0  0  0
    0.6100    8.1080   -2.3050 C   0  0  0  0  0  0  0  0  0  0  0  0
    0.5740   12.5610    0.4530 C   0  0  1  0  0  0  0  0  0  0  0  0
    0.4480   12.0320    1.9140 C   0  0  0  0  0  0  0  0  0  0  0  0
   -0.1120   13.9780    0.4340 C   0  0  0  0  0  0  0  0  0  0  0  0
    0.3790   14.9740   -0.6340 C   0  0  0  0  0  0  0  0  0  0  0  0
    1.9090   15.0630   -0.6380 C   0  0  2  0  0  0  0  0  0  0  0  0
    2.3590   15.6180    0.7570 C   0  0  0  0  0  0  0  0  0  0  0  0
    2.7996   17.5956    0.5971 H   0  0  0  0  0  0  0  0  0  0  0  0
    4.3000   17.3074   -0.3475 H   0  0  0  0  0  0  0  0  0  0  0  0
    3.5371   18.9337   -0.3475 H   0  0  0  0  0  0  0  0  0  0  0  0
    2.9323   17.9599   -2.4190 H   0  0  0  0  0  0  0  0  0  0  0  0
    0.8062   18.5767   -2.2645 H   0  0  0  0  0  0  0  0  0  0  0  0
    0.4138   17.0182   -1.3918 H   0  0  0  0  0  0  0  0  0  0  0  0
    0.4776   17.9764    0.6689 H   0  0  0  0  0  0  0  0  0  0  0  0
    1.6550   19.2555    0.1531 H   0  0  0  0  0  0  0  0  0  0  0  0
    0.0554   20.0275   -1.2448 H   0  0  0  0  0  0  0  0  0  0  0  0
   -2.1501   18.2034    1.8712 H   0  0  0  0  0  0  0  0  0  0  0  0
   -3.1999   17.8178    0.4655 H   0  0  0  0  0  0  0  0  0  0  0  0
   -1.4768   17.3103    0.4655 H   0  0  0  0  0  0  0  0  0  0  0  0
   -3.5384   20.6196    0.2784 H   0  0  0  0  0  0  0  0  0  0  0  0
   -2.4780   20.9703   -1.1284 H   0  0  0  0  0  0  0  0  0  0  0  0
   -3.5142   19.5029   -1.1284 H   0  0  0  0  0  0  0  0  0  0  0  0
    1.9745   15.8623   -2.6712 H   0  0  0  0  0  0  0  0  0  0  0  0
    4.3194   15.3117   -2.8636 H   0  0  0  0  0  0  0  0  0  0  0  0
    4.7056   16.0753   -1.3065 H   0  0  0  0  0  0  0  0  0  0  0  0
    4.5061   13.2632   -1.7728 H   0  0  0  0  0  0  0  0  0  0  0  0
    4.5105   14.0007   -0.1729 H   0  0  0  0  0  0  0  0  0  0  0  0
    1.3943   12.2572   -2.2884 H   0  0  0  0  0  0  0  0  0  0  0  0
    1.5559   13.9135   -2.9646 H   0  0  0  0  0  0  0  0  0  0  0  0
    2.9668   12.8017   -2.9646 H   0  0  0  0  0  0  0  0  0  0  0  0
    2.6077   13.0838    1.0110 H   0  0  0  0  0  0  0  0  0  0  0  0
    3.6973   11.3391   -0.5407 H   0  0  0  0  0  0  0  0  0  0  0  0
    2.8257   10.8315    0.9992 H   0  0  0  0  0  0  0  0  0  0  0  0
    2.3998    9.3380   -1.1287 H   0  0  0  0  0  0  0  0  0  0  0  0
   -0.3850   12.2472   -1.4105 H   0  0  0  0  0  0  0  0  0  0  0  0
   -1.3503   10.4890    0.9293 H   0  0  0  0  0  0  0  0  0  0  0  0
   -2.1553   11.9880    0.2838 H   0  0  0  0  0  0  0  0  0  0  0  0
   -3.2763    9.9192   -0.4801 H   0  0  0  0  0  0  0  0  0  0  0  0
   -2.5764   10.8865   -1.8367 H   0  0  0  0  0  0  0  0  0  0  0  0
   -2.1088    8.5643   -2.2254 H   0  0  0  0  0  0  0  0  0  0  0  0
   -2.2080    8.1300    0.1770 H   0  0  0  0  0  0  0  0  0  0  0  0
   -0.6382   11.1748   -3.2196 H   0  0  0  0  0  0  0  0  0  0  0  0
    0.5929   10.0889   -3.9490 H   0  0  0  0  0  0  0  0  0  0  0  0
   -1.1388    9.6115   -3.9490 H   0  0  0  0  0  0  0  0  0  0  0  0
    0.8887    7.6285   -1.3551 H   0  0  0  0  0  0  0  0  0  0  0  0
   -0.0344    7.4294   -2.8831 H   0  0  0  0  0  0  0  0  0  0  0  0
    1.5186    8.3320   -2.8831 H   0  0  0  0  0  0  0  0  0  0  0  0
    0.6436   12.8531    2.6194 H   0  0  0  0  0  0  0  0  0  0  0  0
   -0.5679   11.6429    2.0768 H   0  0  0  0  0  0  0  0  0  0  0  0
    1.1795   11.2267    2.0768 H   0  0  0  0  0  0  0  0  0  0  0  0
   -1.1894   13.8238    0.2748 H   0  0  0  0  0  0  0  0  0  0  0  0
    0.1508   14.4376    1.3982 H   0  0  0  0  0  0  0  0  0  0  0  0
    0.0353   14.6389   -1.6238 H   0  0  0  0  0  0  0  0  0  0  0  0
   -0.0298   15.9683   -0.4011 H   0  0  0  0  0  0  0  0  0  0  0  0
    1.8829   15.0308    1.5561 H   0  0  0  0  0  0  0  0  0  0  0  0
    3.4526   15.5407    0.8470 H   0  0  0  0  0  0  0  0  0  0  0  0
    2.0573   16.6720    0.8470 H   0  0  0  0  0  0  0  0  0  0  0  0
  1  2  1  0
  2  3  1  0
  3  4  1  0
  4  5  1  0
  5  6  1  0
  6  7  1  0
  7  8  1  0
  7  9  1  0
  2 10  1  0
 10 11  1  0
 11 12  1  0
 12 13  1  0
 13 14  1  6
 13 15  1  0
 15 16  1  0
 16 17  1  0
 17 18  2  0
 18 19  1  0
 19 20  1  0
 20 21  1  0
 21 22  1  0
 22 23  1  0
 22 24  1  0
 24 25  1  0
 24 26  1  0
 19 27  1  0
 27 28  1  1
 27 29  1  0
 29 30  1  0
 30 31  1  0
 31 32  1  1
  7  5  1  0
 31 10  1  0
 31 13  1  0
 27 15  1  0
 24 18  1  0
  1 33  1  0
  1 34  1  0
  1 35  1  0
  2 36  1  6
  3 37  1  0
  3 38  1  0
  4 39  1  0
  4 40  1  0
  5 41  1  6
  8 42  1  0
  8 43  1  0
  8 44  1  0
  9 45  1  0
  9 46  1  0
  9 47  1  0
 10 48  1  6
 11 49  1  0
 11 50  1  0
 12 51  1  0
 12 52  1  0
 14 53  1  0
 14 54  1  0
 14 55  1  0
 15 56  1  1
 16 57  1  0
 16 58  1  0
 17 59  1  0
 19 60  1  6
 20 61  1  0
 20 62  1  0
 21 63  1  0
 21 64  1  0
 22 65  1  6
 23 66  1  0
 25 67  1  0
 25 68  1  0
 25 69  1  0
 26 70  1  0
 26 71  1  0
 26 72  1  0
 28 73  1  0
 28 74  1  0
 28 75  1  0
 29 76  1  0
 29 77  1  0
 30 78  1  0
 30 79  1  0
 32 80  1  0
 32 81  1  0
 32 82  1  0
M  END
>  <meeko>  (19) 
{"is_sidechain": [false], "intermolecular_energy": 2.731, "internal_energy": -0.839}

$$$$
EPH_relaxed_0001_pdb2pqr_Repair_376_r2_0001_out
     RDKit          3D

 82 86  0  0  0  0  0  0  0  0999 V2000
    3.6550   17.9530    1.0220 C   0  0  0  0  0  0  0  0  0  0  0  0
    2.7180   18.3480   -0.1230 C   0  0  2  0  0  0  0  0  0  0  0  0
    1.9760   19.6690    0.1630 C   0  0  0  0  0  0  0  0  0  0  0  0
    0.7790   19.5110    1.1050 C   0  0  0  0  0  0  0  0  0  0  0  0
   -0.4670   20.1070    0.5230 C   0  0  2  0  0  0  0  0  0  0  0  0
   -1.5710   20.1950    1.4330 O   0  0  0  0  0  0  0  0  0  0  0  0
   -1.7470   19.3230    0.3050 C   0  0  0  0  0  0  0  0  0  0  0  0
   -1.8450   17.8730    0.6650 C   0  0  0  0  0  0  0  0  0  0  0  0
   -2.7340   19.8290   -0.7000 C   0  0  0  0  0  0  0  0  0  0  0  0
    1.7130   17.2310   -0.3800 C   0  0  1  0  0  0  0  0  0  0  0  0
    0.5080   17.6980   -1.2390 C   0  0  0  0  0  0  0  0  0  0  0  0
    0.1030   16.4970   -2.1320 C   0  0  0  0  0  0  0  0  0  0  0  0
    0.8600   15.2900   -1.5290 C   0  0  1  0  0  0  0  0  0  0  0  0
   -0.0080   14.8400   -0.3120 C   0  0  0  0  0  0  0  0  0  0  0  0
    1.1510   14.1010   -2.5010 C   0  0  2  0  0  0  0  0  0  0  0  0
   -0.0970   13.4030   -3.0710 C   0  0  0  0  0  0  0  0  0  0  0  0
   -0.6070   12.2530   -2.2670 C   0  0  0  0  0  0  0  0  0  0  0  0
    0.0710   11.6180   -1.2920 C   0  0  0  0  0  0  0  0  0  0  0  0
    1.5280   11.9840   -0.9790 C   0  0  1  0  0  0  0  0  0  0  0  0
    2.3700   10.6880   -0.8480 C   0  0  0  0  0  0  0  0  0  0  0  0
    1.7840    9.7090    0.1650 C   0  0  0  0  0  0  0  0  0  0  0  0
    0.3560    9.3250   -0.2120 C   0  0  2  0  0  0  0  0  0  0  0  0
    0.3870    8.5700   -1.4280 O   0  0  0  0  0  0  0  0  0  0  0  0
   -0.5850   10.5510   -0.3820 C   0  0  0  0  0  0  0  0  0  0  0  0
   -0.8580   11.1920    1.0000 C   0  0  0  0  0  0  0  0  0  0  0  0
   -1.9540   10.0340   -0.9000 C   0  0  0  0  0  0  0  0  0  0  0  0
    2.1980   13.0520   -1.9470 C   0  0  1  0  0  0  0  0  0  0  0  0
    2.8090   12.3340   -3.1890 C   0  0  0  0  0  0  0  0  0  0  0  0
    3.3980   13.7430   -1.1980 C   0  0  0  0  0  0  0  0  0  0  0  0
    3.0650   14.9840   -0.3490 C   0  0  0  0  0  0  0  0  0  0  0  0
    2.2180   15.9820   -1.1450 C   0  0  2  0  0  0  0  0  0  0  0  0
    3.0730   16.4690   -2.3640 C   0  0  0  0  0  0  0  0  0  0  0  0
    3.1648   18.1596    1.9848 H   0  0  0  0  0  0  0  0  0  0  0  0
    3.8877   16.8802    0.9518 H   0  0  0  0  0  0  0  0  0  0  0  0
    4.5855   18.5354    0.9518 H   0  0  0  0  0  0  0  0  0  0  0  0
    3.3372   18.5049   -1.0186 H   0  0  0  0  0  0  0  0  0  0  0  0
    2.6861   20.3745    0.6191 H   0  0  0  0  0  0  0  0  0  0  0  0
    1.5830   20.0317   -0.7983 H   0  0  0  0  0  0  0  0  0  0  0  0
    0.6094   18.4399    1.2893 H   0  0  0  0  0  0  0  0  0  0  0  0
    1.0074   20.0408    2.0415 H   0  0  0  0  0  0  0  0  0  0  0  0
    0.1252   20.7525   -0.1423 H   0  0  0  0  0  0  0  0  0  0  0  0
   -1.8522   17.7667    1.7598 H   0  0  0  0  0  0  0  0  0  0  0  0
   -2.7735   17.4541    0.2498 H   0  0  0  0  0  0  0  0  0  0  0  0
   -0.9813   17.3329    0.2498 H   0  0  0  0  0  0  0  0  0  0  0  0
   -3.5955   20.2706   -0.1777 H   0  0  0  0  0  0  0  0  0  0  0  0
   -2.2562   20.5934   -1.3305 H   0  0  0  0  0  0  0  0  0  0  0  0
   -3.0757   18.9949   -1.3305 H   0  0  0  0  0  0  0  0  0  0  0  0
    1.4665   16.9623    0.6578 H   0  0  0  0  0  0  0  0  0  0  0  0
   -0.3312   17.9867   -0.5891 H   0  0  0  0  0  0  0  0  0  0  0  0
    0.7743   18.5727   -1.8505 H   0  0  0  0  0  0  0  0  0  0  0  0
   -0.9840   16.3328   -2.0925 H   0  0  0  0  0  0  0  0  0  0  0  0
    0.3541   16.6606   -3.1904 H   0  0  0  0  0  0  0  0  0  0  0  0
    0.5059   15.1064    0.6234 H   0  0  0  0  0  0  0  0  0  0  0  0
   -0.9841   15.3456   -0.3509 H   0  0  0  0  0  0  0  0  0  0  0  0
   -0.1574   13.7509   -0.3509 H   0  0  0  0  0  0  0  0  0  0  0  0
    1.6266   14.6058   -3.3548 H   0  0  0  0  0  0  0  0  0  0  0  0
   -0.9010   14.1501   -3.1437 H   0  0  0  0  0  0  0  0  0  0  0  0
    0.2049   12.9851   -4.0427 H   0  0  0  0  0  0  0  0  0  0  0  0
   -1.6226   11.8940   -2.4899 H   0  0  0  0  0  0  0  0  0  0  0  0
    1.5083   12.5155   -0.0162 H   0  0  0  0  0  0  0  0  0  0  0  0
    2.4134   10.1950   -1.8304 H   0  0  0  0  0  0  0  0  0  0  0  0
    3.3713   10.9749   -0.4942 H   0  0  0  0  0  0  0  0  0  0  0  0
    2.4060    8.8021    0.1908 H   0  0  0  0  0  0  0  0  0  0  0  0
    1.7687   10.1926    1.1529 H   0  0  0  0  0  0  0  0  0  0  0  0
   -0.0539    8.7282    0.6162 H   0  0  0  0  0  0  0  0  0  0  0  0
    0.4740    9.2000   -2.1630 H   0  0  0  0  0  0  0  0  0  0  0  0
   -0.5598   10.4918    1.7943 H   0  0  0  0  0  0  0  0  0  0  0  0
   -0.2778   12.1218    1.0940 H   0  0  0  0  0  0  0  0  0  0  0  0
   -1.9304   11.4179    1.0940 H   0  0  0  0  0  0  0  0  0  0  0  0
   -2.6011    9.7896   -0.0447 H   0  0  0  0  0  0  0  0  0  0  0  0
   -2.4328   10.8132   -1.5112 H   0  0  0  0  0  0  0  0  0  0  0  0
   -1.7982    9.1328   -1.5112 H   0  0  0  0  0  0  0  0  0  0  0  0
    3.4880   11.5361   -2.8540 H   0  0  0  0  0  0  0  0  0  0  0  0
    2.0010   11.8976   -3.7946 H   0  0  0  0  0  0  0  0  0  0  0  0
    3.3690   13.0618   -3.7946 H   0  0  0  0  0  0  0  0  0  0  0  0
    3.8488   12.9942   -0.5301 H   0  0  0  0  0  0  0  0  0  0  0  0
    4.0618   14.1094   -1.9949 H   0  0  0  0  0  0  0  0  0  0  0  0
    2.5055   14.6693    0.5443 H   0  0  0  0  0  0  0  0  0  0  0  0
    4.0064   15.4746   -0.0608 H   0  0  0  0  0  0  0  0  0  0  0  0
    3.9743   16.9824   -1.9979 H   0  0  0  0  0  0  0  0  0  0  0  0
    3.3670   15.6029   -2.9750 H   0  0  0  0  0  0  0  0  0  0  0  0
    2.4780   17.1637   -2.9750 H   0  0  0  0  0  0  0  0  0  0  0  0
  1  2  1  0
  2  3  1  0
  3  4  1  0
  4  5  1  0
  5  6  1  0
  6  7  1  0
  7  8  1  0
  7  9  1  0
  2 10  1  0
 10 11  1  0
 11 12  1  0
 12 13  1  0
 13 14  1  1
 13 15  1  0
 15 16  1  0
 16 17  1  0
 17 18  2  0
 18 19  1  0
 19 20  1  0
 20 21  1  0
 21 22  1  0
 22 23  1  0
 22 24  1  0
 24 25  1  0
 24 26  1  0
 19 27  1  0
 27 28  1  6
 27 29  1  0
 29 30  1  0
 30 31  1  0
 31 32  1  6
  7  5  1  0
 31 10  1  0
 31 13  1  0
 27 15  1  0
 24 18  1  0
  1 33  1  0
  1 34  1  0
  1 35  1  0
  2 36  1  6
  3 37  1  0
  3 38  1  0
  4 39  1  0
  4 40  1  0
  5 41  1  6
  8 42  1  0
  8 43  1  0
  8 44  1  0
  9 45  1  0
  9 46  1  0
  9 47  1  0
 10 48  1  1
 11 49  1  0
 11 50  1  0
 12 51  1  0
 12 52  1  0
 14 53  1  0
 14 54  1  0
 14 55  1  0
 15 56  1  6
 16 57  1  0
 16 58  1  0
 17 59  1  0
 19 60  1  1
 20 61  1  0
 20 62  1  0
 21 63  1  0
 21 64  1  0
 22 65  1  1
 23 66  1  0
 25 67  1  0
 25 68  1  0
 25 69  1  0
 26 70  1  0
 26 71  1  0
 26 72  1  0
 28 73  1  0
 28 74  1  0
 28 75  1  0
 29 76  1  0
 29 77  1  0
 30 78  1  0
 30 79  1  0
 32 80  1  0
 32 81  1  0
 32 82  1  0
M  END
>  <meeko>  (20) 
{"is_sidechain": [false], "intermolecular_energy": 2.731, "internal_energy": -0.839}

$$$$
