EPH_relaxed_0001_pdb2pqr_Repair_218_r2_0001_out
     RDKit          3D

 82 86  0  0  0  0  0  0  0  0999 V2000
   -1.5890    8.5790   -1.8140 C   0  0  0  0  0  0  0  0  0  0  0  0
   -1.9950    9.1560   -0.4550 C   0  0  2  0  0  0  0  0  0  0  0  0
   -3.4840    9.5550   -0.4150 C   0  0  0  0  0  0  0  0  0  0  0  0
   -4.4370    8.3630   -0.2930 C   0  0  0  0  0  0  0  0  0  0  0  0
   -5.0730    8.0250   -1.6080 C   0  0  2  0  0  0  0  0  0  0  0  0
   -6.3400    8.6540   -1.8390 O   0  0  0  0  0  0  0  0  0  0  0  0
   -6.3530    7.2210   -1.7360 C   0  0  0  0  0  0  0  0  0  0  0  0
   -7.0740    6.7040   -0.5300 C   0  0  0  0  0  0  0  0  0  0  0  0
   -6.6350    6.5260   -3.0310 C   0  0  0  0  0  0  0  0  0  0  0  0
   -1.1240   10.3610   -0.1210 C   0  0  1  0  0  0  0  0  0  0  0  0
   -0.0460   10.0420    0.9490 C   0  0  0  0  0  0  0  0  0  0  0  0
    1.2080   10.8770    0.5850 C   0  0  0  0  0  0  0  0  0  0  0  0
    0.7090   11.8900   -0.4720 C   0  0  1  0  0  0  0  0  0  0  0  0
    0.0330   13.0300    0.3510 C   0  0  0  0  0  0  0  0  0  0  0  0
    1.7870   12.4490   -1.4560 C   0  0  2  0  0  0  0  0  0  0  0  0
    2.9170   13.2580   -0.7950 C   0  0  0  0  0  0  0  0  0  0  0  0
    2.6670   14.7250   -0.6780 C   0  0  0  0  0  0  0  0  0  0  0  0
    1.7150   15.4110   -1.3370 C   0  0  0  0  0  0  0  0  0  0  0  0
    0.8270   14.7220   -2.3810 C   0  0  1  0  0  0  0  0  0  0  0  0
    0.7460   15.6040   -3.6550 C   0  0  0  0  0  0  0  0  0  0  0  0
    0.2910   17.0280   -3.3510 C   0  0  0  0  0  0  0  0  0  0  0  0
    1.2310   17.7000   -2.3530 C   0  0  2  0  0  0  0  0  0  0  0  0
    2.5080   17.8810   -2.9730 O   0  0  0  0  0  0  0  0  0  0  0  0
    1.4000   16.8970   -1.0340 C   0  0  0  0  0  0  0  0  0  0  0  0
    0.0860   16.9580   -0.2150 C   0  0  0  0  0  0  0  0  0  0  0  0
    2.4790   17.6100   -0.1750 C   0  0  0  0  0  0  0  0  0  0  0  0
    1.1900   13.2090   -2.7090 C   0  0  1  0  0  0  0  0  0  0  0  0
    2.2770   13.1530   -3.8250 C   0  0  0  0  0  0  0  0  0  0  0  0
   -0.0840   12.4910   -3.2930 C   0  0  0  0  0  0  0  0  0  0  0  0
   -1.0500   11.8540   -2.2760 C   0  0  0  0  0  0  0  0  0  0  0  0
   -0.2920   10.9790   -1.2730 C   0  0  2  0  0  0  0  0  0  0  0  0
    0.3800    9.8100   -2.0710 C   0  0  0  0  0  0  0  0  0  0  0  0
   -0.9621    7.6881   -1.6616 H   0  0  0  0  0  0  0  0  0  0  0  0
   -2.4911    8.3004   -2.3784 H   0  0  0  0  0  0  0  0  0  0  0  0
   -1.0221    9.3341   -2.3784 H   0  0  0  0  0  0  0  0  0  0  0  0
   -1.8440    8.3680    0.2975 H   0  0  0  0  0  0  0  0  0  0  0  0
   -3.6432   10.2169    0.4491 H   0  0  0  0  0  0  0  0  0  0  0  0
   -3.7099   10.0510   -1.3705 H   0  0  0  0  0  0  0  0  0  0  0  0
   -3.8717    7.4897    0.0646 H   0  0  0  0  0  0  0  0  0  0  0  0
   -5.2348    8.6327    0.4146 H   0  0  0  0  0  0  0  0  0  0  0  0
   -4.0873    7.9235   -2.0855 H   0  0  0  0  0  0  0  0  0  0  0  0
   -6.5717    7.0642    0.3799 H   0  0  0  0  0  0  0  0  0  0  0  0
   -8.1134    7.0639   -0.5419 H   0  0  0  0  0  0  0  0  0  0  0  0
   -7.0666    5.6041   -0.5419 H   0  0  0  0  0  0  0  0  0  0  0  0
   -7.0415    5.5241   -2.8285 H   0  0  0  0  0  0  0  0  0  0  0  0
   -7.3676    7.1092   -3.6082 H   0  0  0  0  0  0  0  0  0  0  0  0
   -5.7031    6.4338   -3.6082 H   0  0  0  0  0  0  0  0  0  0  0  0
   -1.9036   11.0668    0.2017 H   0  0  0  0  0  0  0  0  0  0  0  0
   -0.4102   10.3219    1.9485 H   0  0  0  0  0  0  0  0  0  0  0  0
    0.1871    8.9671    0.9658 H   0  0  0  0  0  0  0  0  0  0  0  0
    1.5968   11.4002    1.4711 H   0  0  0  0  0  0  0  0  0  0  0  0
    2.0305   10.2516    0.2077 H   0  0  0  0  0  0  0  0  0  0  0  0
    0.1532   12.8273    1.4255 H   0  0  0  0  0  0  0  0  0  0  0  0
    0.5071   13.9913    0.1039 H   0  0  0  0  0  0  0  0  0  0  0  0
   -1.0379   13.0751    0.1039 H   0  0  0  0  0  0  0  0  0  0  0  0
    2.2585   11.5302   -1.8348 H   0  0  0  0  0  0  0  0  0  0  0  0
    3.0737   12.8581    0.2177 H   0  0  0  0  0  0  0  0  0  0  0  0
    3.7927   13.1501   -1.4518 H   0  0  0  0  0  0  0  0  0  0  0  0
    3.3158   15.2934    0.0046 H   0  0  0  0  0  0  0  0  0  0  0  0
   -0.1694   14.6348   -1.9233 H   0  0  0  0  0  0  0  0  0  0  0  0
    1.7418   15.6436   -4.1207 H   0  0  0  0  0  0  0  0  0  0  0  0
    0.0027   15.1519   -4.3281 H   0  0  0  0  0  0  0  0  0  0  0  0
    0.2814   17.6098   -4.2845 H   0  0  0  0  0  0  0  0  0  0  0  0
   -0.7168   16.9883   -2.9121 H   0  0  0  0  0  0  0  0  0  0  0  0
    0.7828   18.6657   -2.0765 H   0  0  0  0  0  0  0  0  0  0  0  0
    2.9040   18.6870   -2.6010 H   0  0  0  0  0  0  0  0  0  0  0  0
    0.3226   16.9470    0.8592 H   0  0  0  0  0  0  0  0  0  0  0  0
   -0.4571   17.8823   -0.4614 H   0  0  0  0  0  0  0  0  0  0  0  0
   -0.5404   16.0880   -0.4614 H   0  0  0  0  0  0  0  0  0  0  0  0
    2.2551   17.4620    0.8918 H   0  0  0  0  0  0  0  0  0  0  0  0
    3.4683   17.1872   -0.4041 H   0  0  0  0  0  0  0  0  0  0  0  0
    2.4780   18.6859   -0.4041 H   0  0  0  0  0  0  0  0  0  0  0  0
    3.2741   13.1016   -3.3634 H   0  0  0  0  0  0  0  0  0  0  0  0
    2.1157   12.2620   -4.4495 H   0  0  0  0  0  0  0  0  0  0  0  0
    2.2082   14.0559   -4.4495 H   0  0  0  0  0  0  0  0  0  0  0  0
   -0.6515   13.2368   -3.8690 H   0  0  0  0  0  0  0  0  0  0  0  0
    0.3058   11.6500   -3.8853 H   0  0  0  0  0  0  0  0  0  0  0  0
   -1.5766   12.6517   -1.7316 H   0  0  0  0  0  0  0  0  0  0  0  0
   -1.7664   11.2220   -2.8213 H   0  0  0  0  0  0  0  0  0  0  0  0
    0.8005    9.0785   -1.3652 H   0  0  0  0  0  0  0  0  0  0  0  0
   -0.3730    9.3178   -2.7040 H   0  0  0  0  0  0  0  0  0  0  0  0
    1.1843   10.2130   -2.7040 H   0  0  0  0  0  0  0  0  0  0  0  0
  1  2  1  0
  2  3  1  0
  3  4  1  0
  4  5  1  0
  5  6  1  0
  6  7  1  0
  7  8  1  0
  7  9  1  0
  2 10  1  0
 10 11  1  0
 11 12  1  0
 12 13  1  0
 13 14  1  1
 13 15  1  0
 15 16  1  0
 16 17  1  0
 17 18  2  0
 18 19  1  0
 19 20  1  0
 20 21  1  0
 21 22  1  0
 22 23  1  0
 22 24  1  0
 24 25  1  0
 24 26  1  0
 19 27  1  0
 27 28  1  6
 27 29  1  0
 29 30  1  0
 30 31  1  0
 31 32  1  6
  7  5  1  0
 31 10  1  0
 31 13  1  0
 27 15  1  0
 24 18  1  0
  1 33  1  0
  1 34  1  0
  1 35  1  0
  2 36  1  1
  3 37  1  0
  3 38  1  0
  4 39  1  0
  4 40  1  0
  5 41  1  6
  8 42  1  0
  8 43  1  0
  8 44  1  0
  9 45  1  0
  9 46  1  0
  9 47  1  0
 10 48  1  1
 11 49  1  0
 11 50  1  0
 12 51  1  0
 12 52  1  0
 14 53  1  0
 14 54  1  0
 14 55  1  0
 15 56  1  6
 16 57  1  0
 16 58  1  0
 17 59  1  0
 19 60  1  1
 20 61  1  0
 20 62  1  0
 21 63  1  0
 21 64  1  0
 22 65  1  1
 23 66  1  0
 25 67  1  0
 25 68  1  0
 25 69  1  0
 26 70  1  0
 26 71  1  0
 26 72  1  0
 28 73  1  0
 28 74  1  0
 28 75  1  0
 29 76  1  0
 29 77  1  0
 30 78  1  0
 30 79  1  0
 32 80  1  0
 32 81  1  0
 32 82  1  0
M  END
>  <meeko>  (1) 
{"is_sidechain": [false], "intermolecular_energy": 2.731, "internal_energy": -0.839}

$$$$
EPH_relaxed_0001_pdb2pqr_Repair_218_r2_0001_out
     RDKit          3D

 82 86  0  0  0  0  0  0  0  0999 V2000
    2.3970   19.2510   -0.9050 C   0  0  0  0  0  0  0  0  0  0  0  0
    2.5410   18.1810    0.1810 C   0  0  2  0  0  0  0  0  0  0  0  0
    3.9680   17.5980    0.2370 C   0  0  0  0  0  0  0  0  0  0  0  0
    4.9940   18.5440    0.8650 C   0  0  0  0  0  0  0  0  0  0  0  0
    4.6920   18.8120    2.3090 C   0  0  2  0  0  0  0  0  0  0  0  0
    5.0600   20.1200    2.7650 O   0  0  0  0  0  0  0  0  0  0  0  0
    5.7620   19.0190    3.3640 C   0  0  0  0  0  0  0  0  0  0  0  0
    7.2180   18.9660    3.0190 C   0  0  0  0  0  0  0  0  0  0  0  0
    5.4070   18.7860    4.7990 C   0  0  0  0  0  0  0  0  0  0  0  0
    1.5310   17.0630   -0.0530 C   0  0  1  0  0  0  0  0  0  0  0  0
    0.2270   17.5680   -0.7260 C   0  0  0  0  0  0  0  0  0  0  0  0
   -0.2600   16.4350   -1.6650 C   0  0  0  0  0  0  0  0  0  0  0  0
    0.5810   15.2020   -1.2570 C   0  0  1  0  0  0  0  0  0  0  0  0
   -0.1310   14.6310    0.0090 C   0  0  0  0  0  0  0  0  0  0  0  0
    0.7770   14.1050   -2.3540 C   0  0  2  0  0  0  0  0  0  0  0  0
   -0.5170   13.4250   -2.8340 C   0  0  0  0  0  0  0  0  0  0  0  0
   -0.9120   12.2000   -2.0770 C   0  0  0  0  0  0  0  0  0  0  0  0
   -0.1150   11.5040   -1.2440 C   0  0  0  0  0  0  0  0  0  0  0  0
    1.3620   11.8800   -1.0700 C   0  0  1  0  0  0  0  0  0  0  0  0
    2.2340   10.6000   -1.1460 C   0  0  0  0  0  0  0  0  0  0  0  0
    1.7850    9.5270   -0.1590 C   0  0  0  0  0  0  0  0  0  0  0  0
    0.3290    9.1380   -0.4020 C   0  0  2  0  0  0  0  0  0  0  0  0
    0.2310    8.4870   -1.6720 O   0  0  0  0  0  0  0  0  0  0  0  0
   -0.6440   10.3490   -0.3590 C   0  0  0  0  0  0  0  0  0  0  0  0
   -0.7650   10.8670    1.0950 C   0  0  0  0  0  0  0  0  0  0  0  0
   -2.0560    9.8410   -0.7580 C   0  0  0  0  0  0  0  0  0  0  0  0
    1.8980   13.0410   -2.0140 C   0  0  1  0  0  0  0  0  0  0  0  0
    2.3720   12.4440   -3.3740 C   0  0  0  0  0  0  0  0  0  0  0  0
    3.1650   13.6990   -1.3510 C   0  0  0  0  0  0  0  0  0  0  0  0
    2.9130   14.8570   -0.3670 C   0  0  0  0  0  0  0  0  0  0  0  0
    1.9640   15.8950   -0.9740 C   0  0  2  0  0  0  0  0  0  0  0  0
    2.6640   16.5030   -2.2370 C   0  0  0  0  0  0  0  0  0  0  0  0
    2.2644   20.2361   -0.4338 H   0  0  0  0  0  0  0  0  0  0  0  0
    3.3017   19.2625   -1.5306 H   0  0  0  0  0  0  0  0  0  0  0  0
    1.5214   19.0230   -1.5306 H   0  0  0  0  0  0  0  0  0  0  0  0
    2.3434   18.6643    1.1492 H   0  0  0  0  0  0  0  0  0  0  0  0
    3.9417   16.6714    0.8292 H   0  0  0  0  0  0  0  0  0  0  0  0
    4.2851   17.4230   -0.8017 H   0  0  0  0  0  0  0  0  0  0  0  0
    5.9923   18.0884    0.7884 H   0  0  0  0  0  0  0  0  0  0  0  0
    4.9540   19.5007    0.3236 H   0  0  0  0  0  0  0  0  0  0  0  0
    3.8117   18.1535    2.2707 H   0  0  0  0  0  0  0  0  0  0  0  0
    7.8134   18.9443    3.9437 H   0  0  0  0  0  0  0  0  0  0  0  0
    7.4225   18.0598    2.4299 H   0  0  0  0  0  0  0  0  0  0  0  0
    7.4878   19.8549    2.4299 H   0  0  0  0  0  0  0  0  0  0  0  0
    6.1514   19.2746    5.4449 H   0  0  0  0  0  0  0  0  0  0  0  0
    4.4115   19.2069    5.0035 H   0  0  0  0  0  0  0  0  0  0  0  0
    5.3971   17.7052    5.0035 H   0  0  0  0  0  0  0  0  0  0  0  0
    1.4110   16.7033    0.9796 H   0  0  0  0  0  0  0  0  0  0  0  0
   -0.5355   17.7808    0.0378 H   0  0  0  0  0  0  0  0  0  0  0  0
    0.4068   18.4964   -1.2879 H   0  0  0  0  0  0  0  0  0  0  0  0
   -1.3323   16.2405   -1.5154 H   0  0  0  0  0  0  0  0  0  0  0  0
   -0.1363   16.6915   -2.7275 H   0  0  0  0  0  0  0  0  0  0  0  0
    0.3580   15.0232    0.9129 H   0  0  0  0  0  0  0  0  0  0  0  0
   -1.1883   14.9343    0.0032 H   0  0  0  0  0  0  0  0  0  0  0  0
   -0.0645   13.5330    0.0032 H   0  0  0  0  0  0  0  0  0  0  0  0
    1.1427   14.6901   -3.2107 H   0  0  0  0  0  0  0  0  0  0  0  0
   -1.3357   14.1549   -2.7506 H   0  0  0  0  0  0  0  0  0  0  0  0
   -0.3235   13.0962   -3.8657 H   0  0  0  0  0  0  0  0  0  0  0  0
   -1.9411   11.8352   -2.2111 H   0  0  0  0  0  0  0  0  0  0  0  0
    1.4457   12.3298   -0.0697 H   0  0  0  0  0  0  0  0  0  0  0  0
    2.1710   10.1904   -2.1650 H   0  0  0  0  0  0  0  0  0  0  0  0
    3.2649   10.8823   -0.8862 H   0  0  0  0  0  0  0  0  0  0  0  0
    2.4205    8.6374   -0.2804 H   0  0  0  0  0  0  0  0  0  0  0  0
    1.8760    9.9279    0.8613 H   0  0  0  0  0  0  0  0  0  0  0  0
    0.0274    8.4643    0.4136 H   0  0  0  0  0  0  0  0  0  0  0  0
    1.1310    8.4070   -2.0320 H   0  0  0  0  0  0  0  0  0  0  0  0
   -0.5721   10.0412    1.7957 H   0  0  0  0  0  0  0  0  0  0  0  0
   -0.0298   11.6682    1.2612 H   0  0  0  0  0  0  0  0  0  0  0  0
   -1.7790   11.2596    1.2612 H   0  0  0  0  0  0  0  0  0  0  0  0
   -2.6402    9.6308    0.1500 H   0  0  0  0  0  0  0  0  0  0  0  0
   -2.5681   10.6113   -1.3534 H   0  0  0  0  0  0  0  0  0  0  0  0
   -1.9600    8.9210   -1.3534 H   0  0  0  0  0  0  0  0  0  0  0  0
    3.0460   11.5951   -3.1868 H   0  0  0  0  0  0  0  0  0  0  0  0
    1.4988   12.0994   -3.9474 H   0  0  0  0  0  0  0  0  0  0  0  0
    2.9056   13.2163   -3.9474 H   0  0  0  0  0  0  0  0  0  0  0  0
    3.7024   12.9096   -0.8050 H   0  0  0  0  0  0  0  0  0  0  0  0
    3.7254   14.1472   -2.1847 H   0  0  0  0  0  0  0  0  0  0  0  0
    2.4656   14.4556    0.5543 H   0  0  0  0  0  0  0  0  0  0  0  0
    3.8735   15.3459   -0.1470 H   0  0  0  0  0  0  0  0  0  0  0  0
    3.4590   17.1935   -1.9188 H   0  0  0  0  0  0  0  0  0  0  0  0
    3.1012   15.6931   -2.8394 H   0  0  0  0  0  0  0  0  0  0  0  0
    1.9233   17.0493   -2.8394 H   0  0  0  0  0  0  0  0  0  0  0  0
  1  2  1  0
  2  3  1  0
  3  4  1  0
  4  5  1  0
  5  6  1  0
  6  7  1  0
  7  8  1  0
  7  9  1  0
  2 10  1  0
 10 11  1  0
 11 12  1  0
 12 13  1  0
 13 14  1  1
 13 15  1  0
 15 16  1  0
 16 17  1  0
 17 18  2  0
 18 19  1  0
 19 20  1  0
 20 21  1  0
 21 22  1  0
 22 23  1  0
 22 24  1  0
 24 25  1  0
 24 26  1  0
 19 27  1  0
 27 28  1  6
 27 29  1  0
 29 30  1  0
 30 31  1  0
 31 32  1  6
  7  5  1  0
 31 10  1  0
 31 13  1  0
 27 15  1  0
 24 18  1  0
  1 33  1  0
  1 34  1  0
  1 35  1  0
  2 36  1  1
  3 37  1  0
  3 38  1  0
  4 39  1  0
  4 40  1  0
  5 41  1  1
  8 42  1  0
  8 43  1  0
  8 44  1  0
  9 45  1  0
  9 46  1  0
  9 47  1  0
 10 48  1  1
 11 49  1  0
 11 50  1  0
 12 51  1  0
 12 52  1  0
 14 53  1  0
 14 54  1  0
 14 55  1  0
 15 56  1  6
 16 57  1  0
 16 58  1  0
 17 59  1  0
 19 60  1  1
 20 61  1  0
 20 62  1  0
 21 63  1  0
 21 64  1  0
 22 65  1  1
 23 66  1  0
 25 67  1  0
 25 68  1  0
 25 69  1  0
 26 70  1  0
 26 71  1  0
 26 72  1  0
 28 73  1  0
 28 74  1  0
 28 75  1  0
 29 76  1  0
 29 77  1  0
 30 78  1  0
 30 79  1  0
 32 80  1  0
 32 81  1  0
 32 82  1  0
M  END
>  <meeko>  (2) 
{"is_sidechain": [false], "intermolecular_energy": 2.731, "internal_energy": -0.839}

$$$$
EPH_relaxed_0001_pdb2pqr_Repair_218_r2_0001_out
     RDKit          3D

 82 86  0  0  0  0  0  0  0  0999 V2000
    2.1770   17.9380   -3.0510 C   0  0  0  0  0  0  0  0  0  0  0  0
    0.9220   17.5530   -2.2620 C   0  0  2  0  0  0  0  0  0  0  0  0
    1.1450   17.6420   -0.7390 C   0  0  0  0  0  0  0  0  0  0  0  0
    0.8380   19.0230   -0.1520 C   0  0  0  0  0  0  0  0  0  0  0  0
   -0.5800   19.1220    0.3210 C   0  0  2  0  0  0  0  0  0  0  0  0
   -1.5030   18.2700   -0.3710 O   0  0  0  0  0  0  0  0  0  0  0  0
   -1.7070   19.6840   -0.5250 C   0  0  0  0  0  0  0  0  0  0  0  0
   -1.4640   20.1850   -1.9140 C   0  0  0  0  0  0  0  0  0  0  0  0
   -2.9340   20.1940    0.1640 C   0  0  0  0  0  0  0  0  0  0  0  0
    0.4810   16.1440   -2.6420 C   0  0  1  0  0  0  0  0  0  0  0  0
    0.5130   15.9020   -4.1750 C   0  0  0  0  0  0  0  0  0  0  0  0
    0.9300   14.4230   -4.3850 C   0  0  0  0  0  0  0  0  0  0  0  0
    0.8010   13.7790   -2.9850 C   0  0  1  0  0  0  0  0  0  0  0  0
   -0.7190   13.4590   -2.8290 C   0  0  0  0  0  0  0  0  0  0  0  0
    1.6860   12.5170   -2.7210 C   0  0  2  0  0  0  0  0  0  0  0  0
    1.3850   11.3080   -3.6230 C   0  0  0  0  0  0  0  0  0  0  0  0
    0.3640   10.3560   -3.0940 C   0  0  0  0  0  0  0  0  0  0  0  0
   -0.0770   10.3090   -1.8230 C   0  0  0  0  0  0  0  0  0  0  0  0
    0.5330   11.2130   -0.7430 C   0  0  1  0  0  0  0  0  0  0  0  0
    0.8310   10.3740    0.5270 C   0  0  0  0  0  0  0  0  0  0  0  0
   -0.3930    9.6130    1.0260 C   0  0  0  0  0  0  0  0  0  0  0  0
   -0.9360    8.6820   -0.0550 C   0  0  2  0  0  0  0  0  0  0  0  0
    0.0240    7.6490   -0.2980 O   0  0  0  0  0  0  0  0  0  0  0  0
   -1.2640    9.4150   -1.3860 C   0  0  0  0  0  0  0  0  0  0  0  0
   -2.5070   10.3180   -1.1910 C   0  0  0  0  0  0  0  0  0  0  0  0
   -1.6660    8.3430   -2.4350 C   0  0  0  0  0  0  0  0  0  0  0  0
    1.7740   12.0950   -1.1980 C   0  0  1  0  0  0  0  0  0  0  0  0
    3.0940   11.2790   -1.0380 C   0  0  0  0  0  0  0  0  0  0  0  0
    1.9020   13.3370   -0.2390 C   0  0  0  0  0  0  0  0  0  0  0  0
    1.0960   14.5940   -0.6190 C   0  0  0  0  0  0  0  0  0  0  0  0
    1.3170   14.9630   -2.0890 C   0  0  2  0  0  0  0  0  0  0  0  0
    2.8340   15.3110   -2.2710 C   0  0  0  0  0  0  0  0  0  0  0  0
    2.9882   18.1869   -2.3510 H   0  0  0  0  0  0  0  0  0  0  0  0
    2.4855   17.0932   -3.6843 H   0  0  0  0  0  0  0  0  0  0  0  0
    1.9587   18.8105   -3.6843 H   0  0  0  0  0  0  0  0  0  0  0  0
    0.1324   18.2728   -2.5234 H   0  0  0  0  0  0  0  0  0  0  0  0
    0.4936   16.9035   -0.2488 H   0  0  0  0  0  0  0  0  0  0  0  0
    2.2121   17.4455   -0.5581 H   0  0  0  0  0  0  0  0  0  0  0  0
    1.5110   19.2063    0.6986 H   0  0  0  0  0  0  0  0  0  0  0  0
    0.9885   19.7726   -0.9429 H   0  0  0  0  0  0  0  0  0  0  0  0
   -0.2473   19.3411    1.3463 H   0  0  0  0  0  0  0  0  0  0  0  0
   -0.9844   21.1739   -1.8684 H   0  0  0  0  0  0  0  0  0  0  0  0
   -0.8064   19.4827   -2.4473 H   0  0  0  0  0  0  0  0  0  0  0  0
   -2.4226   20.2667   -2.4473 H   0  0  0  0  0  0  0  0  0  0  0  0
   -2.7937   20.1357    1.2535 H   0  0  0  0  0  0  0  0  0  0  0  0
   -3.1103   21.2399   -0.1276 H   0  0  0  0  0  0  0  0  0  0  0  0
   -3.7997   19.5812   -0.1276 H   0  0  0  0  0  0  0  0  0  0  0  0
   -0.5225   16.1370   -2.1916 H   0  0  0  0  0  0  0  0  0  0  0  0
   -0.4825   16.0801   -4.6076 H   0  0  0  0  0  0  0  0  0  0  0  0
    1.2193   16.5858   -4.6685 H   0  0  0  0  0  0  0  0  0  0  0  0
    0.2593   13.9286   -5.1032 H   0  0  0  0  0  0  0  0  0  0  0  0
    1.9466   14.3303   -4.7948 H   0  0  0  0  0  0  0  0  0  0  0  0
   -0.9746   13.4052   -1.7605 H   0  0  0  0  0  0  0  0  0  0  0  0
   -1.3117   14.2520   -3.3083 H   0  0  0  0  0  0  0  0  0  0  0  0
   -0.9417   12.4943   -3.3083 H   0  0  0  0  0  0  0  0  0  0  0  0
    2.6873   12.8653   -3.0145 H   0  0  0  0  0  0  0  0  0  0  0  0
    1.0265   11.6873   -4.5913 H   0  0  0  0  0  0  0  0  0  0  0  0
    2.3240   10.7392   -3.6928 H   0  0  0  0  0  0  0  0  0  0  0  0
   -0.0641    9.6318   -3.8026 H   0  0  0  0  0  0  0  0  0  0  0  0
   -0.2287   11.9736   -0.5165 H   0  0  0  0  0  0  0  0  0  0  0  0
    1.6251    9.6498    0.2928 H   0  0  0  0  0  0  0  0  0  0  0  0
    1.1386   11.0694    1.3219 H   0  0  0  0  0  0  0  0  0  0  0  0
   -0.1116    9.0166    1.9064 H   0  0  0  0  0  0  0  0  0  0  0  0
   -1.1755   10.3404    1.2877 H   0  0  0  0  0  0  0  0  0  0  0  0
   -1.8840    8.2640    0.3145 H   0  0  0  0  0  0  0  0  0  0  0  0
    0.3930    7.7930   -1.1860 H   0  0  0  0  0  0  0  0  0  0  0  0
   -2.6956   10.4550   -0.1160 H   0  0  0  0  0  0  0  0  0  0  0  0
   -2.3262   11.2968   -1.6593 H   0  0  0  0  0  0  0  0  0  0  0  0
   -3.3820    9.8435   -1.6593 H   0  0  0  0  0  0  0  0  0  0  0  0
   -2.0069    7.4339   -1.9180 H   0  0  0  0  0  0  0  0  0  0  0  0
   -2.4789    8.7332   -3.0650 H   0  0  0  0  0  0  0  0  0  0  0  0
   -0.7970    8.1025   -3.0650 H   0  0  0  0  0  0  0  0  0  0  0  0
    3.3138   11.1431    0.0312 H   0  0  0  0  0  0  0  0  0  0  0  0
    2.9772   10.2953   -1.5162 H   0  0  0  0  0  0  0  0  0  0  0  0
    3.9217   11.8232   -1.5162 H   0  0  0  0  0  0  0  0  0  0  0  0
    1.5725   13.0202    0.7615 H   0  0  0  0  0  0  0  0  0  0  0  0
    2.9571   13.6417   -0.3018 H   0  0  0  0  0  0  0  0  0  0  0  0
    0.0261   14.3990   -0.4538 H   0  0  0  0  0  0  0  0  0  0  0  0
    1.4359   15.4315    0.0079 H   0  0  0  0  0  0  0  0  0  0  0  0
    3.3064   15.4194   -1.2835 H   0  0  0  0  0  0  0  0  0  0  0  0
    3.3311   14.5036   -2.8286 H   0  0  0  0  0  0  0  0  0  0  0  0
    2.9294   16.2544   -2.8286 H   0  0  0  0  0  0  0  0  0  0  0  0
  1  2  1  0
  2  3  1  0
  3  4  1  0
  4  5  1  0
  5  6  1  0
  6  7  1  0
  7  8  1  0
  7  9  1  0
  2 10  1  0
 10 11  1  0
 11 12  1  0
 12 13  1  0
 13 14  1  1
 13 15  1  0
 15 16  1  0
 16 17  1  0
 17 18  2  0
 18 19  1  0
 19 20  1  0
 20 21  1  0
 21 22  1  0
 22 23  1  0
 22 24  1  0
 24 25  1  0
 24 26  1  0
 19 27  1  0
 27 28  1  6
 27 29  1  0
 29 30  1  0
 30 31  1  0
 31 32  1  1
  7  5  1  0
 31 10  1  0
 31 13  1  0
 27 15  1  0
 24 18  1  0
  1 33  1  0
  1 34  1  0
  1 35  1  0
  2 36  1  6
  3 37  1  0
  3 38  1  0
  4 39  1  0
  4 40  1  0
  5 41  1  1
  8 42  1  0
  8 43  1  0
  8 44  1  0
  9 45  1  0
  9 46  1  0
  9 47  1  0
 10 48  1  1
 11 49  1  0
 11 50  1  0
 12 51  1  0
 12 52  1  0
 14 53  1  0
 14 54  1  0
 14 55  1  0
 15 56  1  6
 16 57  1  0
 16 58  1  0
 17 59  1  0
 19 60  1  1
 20 61  1  0
 20 62  1  0
 21 63  1  0
 21 64  1  0
 22 65  1  1
 23 66  1  0
 25 67  1  0
 25 68  1  0
 25 69  1  0
 26 70  1  0
 26 71  1  0
 26 72  1  0
 28 73  1  0
 28 74  1  0
 28 75  1  0
 29 76  1  0
 29 77  1  0
 30 78  1  0
 30 79  1  0
 32 80  1  0
 32 81  1  0
 32 82  1  0
M  END
>  <meeko>  (3) 
{"is_sidechain": [false], "intermolecular_energy": 2.731, "internal_energy": -0.839}

$$$$
EPH_relaxed_0001_pdb2pqr_Repair_218_r2_0001_out
     RDKit          3D

 82 86  0  0  0  0  0  0  0  0999 V2000
    1.3100   18.8110   -0.8240 C   0  0  0  0  0  0  0  0  0  0  0  0
    1.6950   17.4910   -0.1500 C   0  0  2  0  0  0  0  0  0  0  0  0
    3.2230   17.3090   -0.0600 C   0  0  0  0  0  0  0  0  0  0  0  0
    3.9350   18.4420    0.6840 C   0  0  0  0  0  0  0  0  0  0  0  0
    4.6170   17.9480    1.9240 C   0  0  2  0  0  0  0  0  0  0  0  0
    4.2110   18.6050    3.1320 O   0  0  0  0  0  0  0  0  0  0  0  0
    5.5810   18.7890    2.7400 C   0  0  0  0  0  0  0  0  0  0  0  0
    5.9170   20.1930    2.3470 C   0  0  0  0  0  0  0  0  0  0  0  0
    6.5610   18.0920    3.6310 C   0  0  0  0  0  0  0  0  0  0  0  0
    1.0740   16.3210   -0.9050 C   0  0  1  0  0  0  0  0  0  0  0  0
    0.8670   16.6260   -2.4120 C   0  0  0  0  0  0  0  0  0  0  0  0
    1.1100   15.2970   -3.1740 C   0  0  0  0  0  0  0  0  0  0  0  0
    1.1190   14.2120   -2.0720 C   0  0  1  0  0  0  0  0  0  0  0  0
   -0.3860   13.9190   -1.7850 C   0  0  0  0  0  0  0  0  0  0  0  0
    1.9110   12.9030   -2.3980 C   0  0  2  0  0  0  0  0  0  0  0  0
    1.3730   12.0960   -3.5930 C   0  0  0  0  0  0  0  0  0  0  0  0
    0.3520   11.0610   -3.2550 C   0  0  0  0  0  0  0  0  0  0  0  0
    0.0920   10.5920   -2.0200 C   0  0  0  0  0  0  0  0  0  0  0  0
    0.9300   11.0400   -0.8150 C   0  0  1  0  0  0  0  0  0  0  0  0
    1.3240    9.8000    0.0300 C   0  0  0  0  0  0  0  0  0  0  0  0
    0.1160    8.9620    0.4380 C   0  0  0  0  0  0  0  0  0  0  0  0
   -0.6580    8.4880   -0.7890 C   0  0  2  0  0  0  0  0  0  0  0  0
    0.1570    7.5670   -1.5200 O   0  0  0  0  0  0  0  0  0  0  0  0
   -1.1000    9.6500   -1.7220 C   0  0  0  0  0  0  0  0  0  0  0  0
   -2.2130   10.4760   -1.0320 C   0  0  0  0  0  0  0  0  0  0  0  0
   -1.7450    9.0260   -2.9890 C   0  0  0  0  0  0  0  0  0  0  0  0
    2.1720   11.9750   -1.1440 C   0  0  1  0  0  0  0  0  0  0  0  0
    3.4180   11.1030   -1.4880 C   0  0  0  0  0  0  0  0  0  0  0  0
    2.5490   12.8000    0.1430 C   0  0  0  0  0  0  0  0  0  0  0  0
    1.8190   14.1410    0.3470 C   0  0  0  0  0  0  0  0  0  0  0  0
    1.8650   14.9900   -0.9270 C   0  0  2  0  0  0  0  0  0  0  0  0
    3.3670   15.3190   -1.2290 C   0  0  0  0  0  0  0  0  0  0  0  0
    1.0900   19.5653   -0.0542 H   0  0  0  0  0  0  0  0  0  0  0  0
    2.1439   19.1594   -1.4510 H   0  0  0  0  0  0  0  0  0  0  0  0
    0.4195   18.6565   -1.4510 H   0  0  0  0  0  0  0  0  0  0  0  0
    1.3051   17.5185    0.8782 H   0  0  0  0  0  0  0  0  0  0  0  0
    3.4299   16.3648    0.4651 H   0  0  0  0  0  0  0  0  0  0  0  0
    3.6080   17.3093   -1.0904 H   0  0  0  0  0  0  0  0  0  0  0  0
    4.6872   18.8889    0.0173 H   0  0  0  0  0  0  0  0  0  0  0  0
    3.1802   19.1851    0.9806 H   0  0  0  0  0  0  0  0  0  0  0  0
    4.6948   16.9335    1.5059 H   0  0  0  0  0  0  0  0  0  0  0  0
    6.0627   20.8020    3.2514 H   0  0  0  0  0  0  0  0  0  0  0  0
    6.8411   20.1956    1.7504 H   0  0  0  0  0  0  0  0  0  0  0  0
    5.0942   20.6137    1.7504 H   0  0  0  0  0  0  0  0  0  0  0  0
    6.2980   18.2791    4.6826 H   0  0  0  0  0  0  0  0  0  0  0  0
    6.5321   17.0104    3.4326 H   0  0  0  0  0  0  0  0  0  0  0  0
    7.5732   18.4742    3.4326 H   0  0  0  0  0  0  0  0  0  0  0  0
    0.1470   16.1977   -0.3257 H   0  0  0  0  0  0  0  0  0  0  0  0
   -0.1585   16.9824   -2.5892 H   0  0  0  0  0  0  0  0  0  0  0  0
    1.5576   17.4104   -2.7551 H   0  0  0  0  0  0  0  0  0  0  0  0
    0.3018   15.1101   -3.8964 H   0  0  0  0  0  0  0  0  0  0  0  0
    2.0457   15.3125   -3.7521 H   0  0  0  0  0  0  0  0  0  0  0  0
   -0.5525   13.8866   -0.6982 H   0  0  0  0  0  0  0  0  0  0  0  0
   -1.0050   14.7135   -2.2272 H   0  0  0  0  0  0  0  0  0  0  0  0
   -0.6618   12.9503   -2.2272 H   0  0  0  0  0  0  0  0  0  0  0  0
    2.8896   13.2915   -2.7164 H   0  0  0  0  0  0  0  0  0  0  0  0
    0.9188   12.8024   -4.3034 H   0  0  0  0  0  0  0  0  0  0  0  0
    2.2349   11.5504   -4.0048 H   0  0  0  0  0  0  0  0  0  0  0  0
   -0.2382   10.6462   -4.0854 H   0  0  0  0  0  0  0  0  0  0  0  0
    0.2831   11.7045   -0.2234 H   0  0  0  0  0  0  0  0  0  0  0  0
    2.0052    9.1716   -0.5625 H   0  0  0  0  0  0  0  0  0  0  0  0
    1.8051   10.1624    0.9504 H   0  0  0  0  0  0  0  0  0  0  0  0
    0.4610    8.0859    1.0067 H   0  0  0  0  0  0  0  0  0  0  0  0
   -0.5500    9.5830    1.0552 H   0  0  0  0  0  0  0  0  0  0  0  0
   -1.5799    8.0059   -0.4316 H   0  0  0  0  0  0  0  0  0  0  0  0
    0.9240    8.0580   -1.8610 H   0  0  0  0  0  0  0  0  0  0  0  0
   -2.1054   10.3962    0.0598 H   0  0  0  0  0  0  0  0  0  0  0  0
   -2.1269   11.5306   -1.3328 H   0  0  0  0  0  0  0  0  0  0  0  0
   -3.1974   10.0881   -1.3328 H   0  0  0  0  0  0  0  0  0  0  0  0
   -2.5056    8.2902   -2.6888 H   0  0  0  0  0  0  0  0  0  0  0  0
   -2.2177    9.8184   -3.5879 H   0  0  0  0  0  0  0  0  0  0  0  0
   -0.9687    8.5274   -3.5879 H   0  0  0  0  0  0  0  0  0  0  0  0
    3.8985   10.7668   -0.5574 H   0  0  0  0  0  0  0  0  0  0  0  0
    3.1023   10.2277   -2.0747 H   0  0  0  0  0  0  0  0  0  0  0  0
    4.1323   11.6994   -2.0747 H   0  0  0  0  0  0  0  0  0  0  0  0
    2.3351   12.1683    1.0177 H   0  0  0  0  0  0  0  0  0  0  0  0
    3.6086   13.0658    0.0143 H   0  0  0  0  0  0  0  0  0  0  0  0
    0.7693   13.9429    0.6096 H   0  0  0  0  0  0  0  0  0  0  0  0
    2.3205   14.6938    1.1550 H   0  0  0  0  0  0  0  0  0  0  0  0
    3.9137   15.4388   -0.2820 H   0  0  0  0  0  0  0  0  0  0  0  0
    3.8130   14.4973   -1.8085 H   0  0  0  0  0  0  0  0  0  0  0  0
    3.4287   16.2519   -1.8085 H   0  0  0  0  0  0  0  0  0  0  0  0
  1  2  1  0
  2  3  1  0
  3  4  1  0
  4  5  1  0
  5  6  1  0
  6  7  1  0
  7  8  1  0
  7  9  1  0
  2 10  1  0
 10 11  1  0
 11 12  1  0
 12 13  1  0
 13 14  1  1
 13 15  1  0
 15 16  1  0
 16 17  1  0
 17 18  2  0
 18 19  1  0
 19 20  1  0
 20 21  1  0
 21 22  1  0
 22 23  1  0
 22 24  1  0
 24 25  1  0
 24 26  1  0
 19 27  1  0
 27 28  1  6
 27 29  1  0
 29 30  1  0
 30 31  1  0
 31 32  1  6
  7  5  1  0
 31 10  1  0
 31 13  1  0
 27 15  1  0
 24 18  1  0
  1 33  1  0
  1 34  1  0
  1 35  1  0
  2 36  1  1
  3 37  1  0
  3 38  1  0
  4 39  1  0
  4 40  1  0
  5 41  1  1
  8 42  1  0
  8 43  1  0
  8 44  1  0
  9 45  1  0
  9 46  1  0
  9 47  1  0
 10 48  1  1
 11 49  1  0
 11 50  1  0
 12 51  1  0
 12 52  1  0
 14 53  1  0
 14 54  1  0
 14 55  1  0
 15 56  1  6
 16 57  1  0
 16 58  1  0
 17 59  1  0
 19 60  1  1
 20 61  1  0
 20 62  1  0
 21 63  1  0
 21 64  1  0
 22 65  1  1
 23 66  1  0
 25 67  1  0
 25 68  1  0
 25 69  1  0
 26 70  1  0
 26 71  1  0
 26 72  1  0
 28 73  1  0
 28 74  1  0
 28 75  1  0
 29 76  1  0
 29 77  1  0
 30 78  1  0
 30 79  1  0
 32 80  1  0
 32 81  1  0
 32 82  1  0
M  END
>  <meeko>  (4) 
{"is_sidechain": [false], "intermolecular_energy": 2.731, "internal_energy": -0.839}

$$$$
EPH_relaxed_0001_pdb2pqr_Repair_218_r2_0001_out
     RDKit          3D

 82 86  0  0  0  0  0  0  0  0999 V2000
    2.0850   18.0150   -3.0280 C   0  0  0  0  0  0  0  0  0  0  0  0
    0.5820   17.8350   -2.7960 C   0  0  2  0  0  0  0  0  0  0  0  0
    0.1590   18.2600   -1.3760 C   0  0  0  0  0  0  0  0  0  0  0  0
    0.8810   17.4960   -0.2630 C   0  0  0  0  0  0  0  0  0  0  0  0
    1.8380   18.3760    0.4830 C   0  0  2  0  0  0  0  0  0  0  0  0
    2.7000   19.1630   -0.3490 O   0  0  0  0  0  0  0  0  0  0  0  0
    3.3420   18.1750    0.4720 C   0  0  0  0  0  0  0  0  0  0  0  0
    3.9740   17.0590   -0.2990 C   0  0  0  0  0  0  0  0  0  0  0  0
    4.1490   18.7530    1.5930 C   0  0  0  0  0  0  0  0  0  0  0  0
    0.1890   16.3830   -3.0440 C   0  0  1  0  0  0  0  0  0  0  0  0
    0.1100   16.0360   -4.5550 C   0  0  0  0  0  0  0  0  0  0  0  0
    0.5880   14.5680   -4.7010 C   0  0  0  0  0  0  0  0  0  0  0  0
    0.6090   14.0180   -3.2560 C   0  0  1  0  0  0  0  0  0  0  0  0
   -0.8740   13.6370   -2.9510 C   0  0  0  0  0  0  0  0  0  0  0  0
    1.5800   12.8230   -2.9850 C   0  0  2  0  0  0  0  0  0  0  0  0
    1.2720   11.5400   -3.7770 C   0  0  0  0  0  0  0  0  0  0  0  0
    0.3510   10.5790   -3.1020 C   0  0  0  0  0  0  0  0  0  0  0  0
    0.0180   10.6000   -1.7980 C   0  0  0  0  0  0  0  0  0  0  0  0
    0.6630   11.6060   -0.8360 C   0  0  1  0  0  0  0  0  0  0  0  0
    1.1090   10.8730    0.4570 C   0  0  0  0  0  0  0  0  0  0  0  0
   -0.0270   10.0910    1.1080 C   0  0  0  0  0  0  0  0  0  0  0  0
   -0.6040    9.0610    0.1400 C   0  0  2  0  0  0  0  0  0  0  0  0
    0.3880    8.0620   -0.1150 O   0  0  0  0  0  0  0  0  0  0  0  0
   -1.0790    9.6820   -1.2040 C   0  0  0  0  0  0  0  0  0  0  0  0
   -2.3490   10.5340   -0.9640 C   0  0  0  0  0  0  0  0  0  0  0  0
   -1.5060    8.5200   -2.1420 C   0  0  0  0  0  0  0  0  0  0  0  0
    1.8140   12.5130   -1.4510 C   0  0  1  0  0  0  0  0  0  0  0  0
    3.1840   11.7760   -1.3500 C   0  0  0  0  0  0  0  0  0  0  0  0
    1.9510   13.8240   -0.5900 C   0  0  0  0  0  0  0  0  0  0  0  0
    1.0500   15.0100   -0.9820 C   0  0  0  0  0  0  0  0  0  0  0  0
    1.1300   15.2860   -2.4870 C   0  0  2  0  0  0  0  0  0  0  0  0
    2.6060   15.6940   -2.8200 C   0  0  0  0  0  0  0  0  0  0  0  0
    2.6009   18.0768   -2.0584 H   0  0  0  0  0  0  0  0  0  0  0  0
    2.4737   17.1570   -3.5961 H   0  0  0  0  0  0  0  0  0  0  0  0
    2.2601   18.9405   -3.5961 H   0  0  0  0  0  0  0  0  0  0  0  0
    0.0561   18.4895   -3.5066 H   0  0  0  0  0  0  0  0  0  0  0  0
    0.3733   19.3323   -1.2564 H   0  0  0  0  0  0  0  0  0  0  0  0
   -0.9127   18.0321   -1.2787 H   0  0  0  0  0  0  0  0  0  0  0  0
    0.1339   17.1033    0.4424 H   0  0  0  0  0  0  0  0  0  0  0  0
    1.4550   16.6790   -0.7246 H   0  0  0  0  0  0  0  0  0  0  0  0
    1.1168   18.5049    1.3035 H   0  0  0  0  0  0  0  0  0  0  0  0
    4.3922   16.3206    0.4009 H   0  0  0  0  0  0  0  0  0  0  0  0
    3.2157   16.5754   -0.9323 H   0  0  0  0  0  0  0  0  0  0  0  0
    4.7787   17.4606   -0.9323 H   0  0  0  0  0  0  0  0  0  0  0  0
    3.7154   18.4424    2.5550 H   0  0  0  0  0  0  0  0  0  0  0  0
    5.1852   18.3904    1.5237 H   0  0  0  0  0  0  0  0  0  0  0  0
    4.1393   19.8508    1.5237 H   0  0  0  0  0  0  0  0  0  0  0  0
   -0.7730   16.3586   -2.5112 H   0  0  0  0  0  0  0  0  0  0  0  0
   -0.9254   16.1349   -4.9130 H   0  0  0  0  0  0  0  0  0  0  0  0
    0.7360   16.7169   -5.1505 H   0  0  0  0  0  0  0  0  0  0  0  0
   -0.1112   13.9924   -5.3253 H   0  0  0  0  0  0  0  0  0  0  0  0
    1.5715   14.4965   -5.1885 H   0  0  0  0  0  0  0  0  0  0  0  0
   -1.0261   13.5979   -1.8623 H   0  0  0  0  0  0  0  0  0  0  0  0
   -1.5439   14.3922   -3.3879 H   0  0  0  0  0  0  0  0  0  0  0  0
   -1.0969   12.6524   -3.3879 H   0  0  0  0  0  0  0  0  0  0  0  0
    2.5339   13.1988   -3.3837 H   0  0  0  0  0  0  0  0  0  0  0  0
    0.8156   11.8328   -4.7341 H   0  0  0  0  0  0  0  0  0  0  0  0
    2.2316   11.0140   -3.8888 H   0  0  0  0  0  0  0  0  0  0  0  0
   -0.0931    9.7867   -3.7225 H   0  0  0  0  0  0  0  0  0  0  0  0
   -0.1183   12.3426   -0.5971 H   0  0  0  0  0  0  0  0  0  0  0  0
    1.9190   10.1731    0.2039 H   0  0  0  0  0  0  0  0  0  0  0  0
    1.4429   11.6365    1.1751 H   0  0  0  0  0  0  0  0  0  0  0  0
    0.3570    9.5725    1.9989 H   0  0  0  0  0  0  0  0  0  0  0  0
   -0.8240   10.7959    1.3874 H   0  0  0  0  0  0  0  0  0  0  0  0
   -1.4946    8.6239    0.6152 H   0  0  0  0  0  0  0  0  0  0  0  0
    0.7840    7.8160    0.7380 H   0  0  0  0  0  0  0  0  0  0  0  0
   -2.5163   10.6462    0.1174 H   0  0  0  0  0  0  0  0  0  0  0  0
   -2.2162   11.5264   -1.4194 H   0  0  0  0  0  0  0  0  0  0  0  0
   -3.2169   10.0347   -1.4194 H   0  0  0  0  0  0  0  0  0  0  0  0
   -1.8228    7.6578   -1.5368 H   0  0  0  0  0  0  0  0  0  0  0  0
   -2.3418    8.8494   -2.7767 H   0  0  0  0  0  0  0  0  0  0  0  0
   -0.6558    8.2298   -2.7767 H   0  0  0  0  0  0  0  0  0  0  0  0
    3.4471   11.6345   -0.2913 H   0  0  0  0  0  0  0  0  0  0  0  0
    3.1103   10.7958   -1.8437 H   0  0  0  0  0  0  0  0  0  0  0  0
    3.9613   12.3777   -1.8437 H   0  0  0  0  0  0  0  0  0  0  0  0
    1.7213   13.5623    0.4534 H   0  0  0  0  0  0  0  0  0  0  0  0
    2.9793   14.1748   -0.7618 H   0  0  0  0  0  0  0  0  0  0  0  0
    0.0093   14.7751   -0.7141 H   0  0  0  0  0  0  0  0  0  0  0  0
    1.3940   15.9049   -0.4427 H   0  0  0  0  0  0  0  0  0  0  0  0
    3.1637   15.8482   -1.8845 H   0  0  0  0  0  0  0  0  0  0  0  0
    3.0844   14.8944   -3.4046 H   0  0  0  0  0  0  0  0  0  0  0  0
    2.6058   16.6258   -3.4046 H   0  0  0  0  0  0  0  0  0  0  0  0
  1  2  1  0
  2  3  1  0
  3  4  1  0
  4  5  1  0
  5  6  1  0
  6  7  1  0
  7  8  1  0
  7  9  1  0
  2 10  1  0
 10 11  1  0
 11 12  1  0
 12 13  1  0
 13 14  1  1
 13 15  1  0
 15 16  1  0
 16 17  1  0
 17 18  2  0
 18 19  1  0
 19 20  1  0
 20 21  1  0
 21 22  1  0
 22 23  1  0
 22 24  1  0
 24 25  1  0
 24 26  1  0
 19 27  1  0
 27 28  1  6
 27 29  1  0
 29 30  1  0
 30 31  1  0
 31 32  1  6
  7  5  1  0
 31 10  1  0
 31 13  1  0
 27 15  1  0
 24 18  1  0
  1 33  1  0
  1 34  1  0
  1 35  1  0
  2 36  1  6
  3 37  1  0
  3 38  1  0
  4 39  1  0
  4 40  1  0
  5 41  1  1
  8 42  1  0
  8 43  1  0
  8 44  1  0
  9 45  1  0
  9 46  1  0
  9 47  1  0
 10 48  1  1
 11 49  1  0
 11 50  1  0
 12 51  1  0
 12 52  1  0
 14 53  1  0
 14 54  1  0
 14 55  1  0
 15 56  1  6
 16 57  1  0
 16 58  1  0
 17 59  1  0
 19 60  1  1
 20 61  1  0
 20 62  1  0
 21 63  1  0
 21 64  1  0
 22 65  1  1
 23 66  1  0
 25 67  1  0
 25 68  1  0
 25 69  1  0
 26 70  1  0
 26 71  1  0
 26 72  1  0
 28 73  1  0
 28 74  1  0
 28 75  1  0
 29 76  1  0
 29 77  1  0
 30 78  1  0
 30 79  1  0
 32 80  1  0
 32 81  1  0
 32 82  1  0
M  END
>  <meeko>  (5) 
{"is_sidechain": [false], "intermolecular_energy": 2.731, "internal_energy": -0.839}

$$$$
EPH_relaxed_0001_pdb2pqr_Repair_218_r2_0001_out
     RDKit          3D

 82 86  0  0  0  0  0  0  0  0999 V2000
   -5.0880    5.9750   -1.7180 C   0  0  0  0  0  0  0  0  0  0  0  0
   -5.4180    7.4690   -1.7690 C   0  0  2  0  0  0  0  0  0  0  0  0
   -5.2110    8.1570   -0.4050 C   0  0  0  0  0  0  0  0  0  0  0  0
   -4.1330    9.2440   -0.4210 C   0  0  0  0  0  0  0  0  0  0  0  0
   -2.8040    8.7000   -0.8490 C   0  0  2  0  0  0  0  0  0  0  0  0
   -1.7330    8.9440    0.0730 O   0  0  0  0  0  0  0  0  0  0  0  0
   -1.6190    9.5770   -1.2120 C   0  0  0  0  0  0  0  0  0  0  0  0
   -1.7100   11.0700   -1.1650 C   0  0  0  0  0  0  0  0  0  0  0  0
   -0.5410    9.0000   -2.0750 C   0  0  0  0  0  0  0  0  0  0  0  0
   -6.8540    7.6680   -2.2400 C   0  0  1  0  0  0  0  0  0  0  0  0
   -7.1410    6.9690   -3.5950 C   0  0  0  0  0  0  0  0  0  0  0  0
   -8.6070    6.4670   -3.5380 C   0  0  0  0  0  0  0  0  0  0  0  0
   -9.2140    7.1750   -2.3050 C   0  0  1  0  0  0  0  0  0  0  0  0
   -9.5900    8.6040   -2.8070 C   0  0  0  0  0  0  0  0  0  0  0  0
  -10.4300    6.4630   -1.6280 C   0  0  2  0  0  0  0  0  0  0  0  0
  -11.6770    6.3140   -2.5170 C   0  0  0  0  0  0  0  0  0  0  0  0
  -12.6530    7.4410   -2.4390 C   0  0  0  0  0  0  0  0  0  0  0  0
  -12.6800    8.3880   -1.4840 C   0  0  0  0  0  0  0  0  0  0  0  0
  -11.7210    8.3280   -0.2880 C   0  0  1  0  0  0  0  0  0  0  0  0
  -12.5090    8.5910    1.0220 C   0  0  0  0  0  0  0  0  0  0  0  0
  -13.3030    9.8920    0.9760 C   0  0  0  0  0  0  0  0  0  0  0  0
  -14.2870    9.8890   -0.1910 C   0  0  2  0  0  0  0  0  0  0  0  0
  -15.2870    8.8950    0.0520 O   0  0  0  0  0  0  0  0  0  0  0  0
  -13.6090    9.6250   -1.5640 C   0  0  0  0  0  0  0  0  0  0  0  0
  -12.7520   10.8510   -1.9660 C   0  0  0  0  0  0  0  0  0  0  0  0
  -14.7270    9.5070   -2.6340 C   0  0  0  0  0  0  0  0  0  0  0  0
  -10.8030    7.0340   -0.2000 C   0  0  1  0  0  0  0  0  0  0  0  0
  -11.5600    5.8960    0.5510 C   0  0  0  0  0  0  0  0  0  0  0  0
   -9.5290    7.3650    0.6640 C   0  0  0  0  0  0  0  0  0  0  0  0
   -8.3180    7.9560   -0.0830 C   0  0  0  0  0  0  0  0  0  0  0  0
   -7.9830    7.1270   -1.3270 C   0  0  2  0  0  0  0  0  0  0  0  0
   -7.5790    5.6900   -0.8510 C   0  0  0  0  0  0  0  0  0  0  0  0
   -5.0164    5.6509   -0.6693 H   0  0  0  0  0  0  0  0  0  0  0  0
   -5.8822    5.4066   -2.2240 H   0  0  0  0  0  0  0  0  0  0  0  0
   -4.1282    5.7940   -2.2240 H   0  0  0  0  0  0  0  0  0  0  0  0
   -4.7239    7.9367   -2.4828 H   0  0  0  0  0  0  0  0  0  0  0  0
   -6.1628    8.6163   -0.0998 H   0  0  0  0  0  0  0  0  0  0  0  0
   -4.8746    7.3811    0.2985 H   0  0  0  0  0  0  0  0  0  0  0  0
   -4.4361   10.0364   -1.1211 H   0  0  0  0  0  0  0  0  0  0  0  0
   -4.0291    9.6391    0.6003 H   0  0  0  0  0  0  0  0  0  0  0  0
   -3.2879    7.8607   -1.3699 H   0  0  0  0  0  0  0  0  0  0  0  0
   -1.7303   11.4033   -0.1169 H   0  0  0  0  0  0  0  0  0  0  0  0
   -0.8368   11.5067   -1.6718 H   0  0  0  0  0  0  0  0  0  0  0  0
   -2.6298   11.3974   -1.6718 H   0  0  0  0  0  0  0  0  0  0  0  0
    0.2504    8.5764   -1.4391 H   0  0  0  0  0  0  0  0  0  0  0  0
   -0.9644    8.2079   -2.7101 H   0  0  0  0  0  0  0  0  0  0  0  0
   -0.1167    9.7916   -2.7101 H   0  0  0  0  0  0  0  0  0  0  0  0
   -6.8876    8.7671   -2.2694 H   0  0  0  0  0  0  0  0  0  0  0  0
   -7.0169    7.6824   -4.4230 H   0  0  0  0  0  0  0  0  0  0  0  0
   -6.4443    6.1348   -3.7643 H   0  0  0  0  0  0  0  0  0  0  0  0
   -9.1494    6.7475   -4.4530 H   0  0  0  0  0  0  0  0  0  0  0  0
   -8.6701    5.3714   -3.4630 H   0  0  0  0  0  0  0  0  0  0  0  0
   -9.7632    9.2624   -1.9430 H   0  0  0  0  0  0  0  0  0  0  0  0
   -8.7673    9.0070   -3.4159 H   0  0  0  0  0  0  0  0  0  0  0  0
  -10.5045    8.5499   -3.4159 H   0  0  0  0  0  0  0  0  0  0  0  0
  -10.0494    5.4425   -1.4741 H   0  0  0  0  0  0  0  0  0  0  0  0
  -11.3418    6.2260   -3.5610 H   0  0  0  0  0  0  0  0  0  0  0  0
  -12.2089    5.4242   -2.1491 H   0  0  0  0  0  0  0  0  0  0  0  0
  -13.4150    7.5022   -3.2299 H   0  0  0  0  0  0  0  0  0  0  0  0
  -10.9854    9.1302   -0.4474 H   0  0  0  0  0  0  0  0  0  0  0  0
  -13.2075    7.7573    1.1867 H   0  0  0  0  0  0  0  0  0  0  0  0
  -11.7783    8.6747    1.8399 H   0  0  0  0  0  0  0  0  0  0  0  0
  -13.8608   10.0069    1.9171 H   0  0  0  0  0  0  0  0  0  0  0  0
  -12.6006   10.7277    0.8411 H   0  0  0  0  0  0  0  0  0  0  0  0
  -14.7318   10.8933   -0.2501 H   0  0  0  0  0  0  0  0  0  0  0  0
  -15.4890    8.9060    1.0030 H   0  0  0  0  0  0  0  0  0  0  0  0
  -12.3949   11.3618   -1.0596 H   0  0  0  0  0  0  0  0  0  0  0  0
  -11.8901   10.5164   -2.5619 H   0  0  0  0  0  0  0  0  0  0  0  0
  -13.3624   11.5455   -2.5619 H   0  0  0  0  0  0  0  0  0  0  0  0
  -15.7022    9.4041   -2.1356 H   0  0  0  0  0  0  0  0  0  0  0  0
  -14.7299   10.4098   -3.2624 H   0  0  0  0  0  0  0  0  0  0  0  0
  -14.5413    8.6235   -3.2624 H   0  0  0  0  0  0  0  0  0  0  0  0
  -11.4614    6.0443    1.6365 H   0  0  0  0  0  0  0  0  0  0  0  0
  -12.6241    5.9180    0.2731 H   0  0  0  0  0  0  0  0  0  0  0  0
  -11.1285    4.9231    0.2731 H   0  0  0  0  0  0  0  0  0  0  0  0
   -9.8293    8.0886    1.4362 H   0  0  0  0  0  0  0  0  0  0  0  0
   -9.1834    6.3950    1.0510 H   0  0  0  0  0  0  0  0  0  0  0  0
   -8.5520    8.9862   -0.3894 H   0  0  0  0  0  0  0  0  0  0  0  0
   -7.4493    7.9428    0.5916 H   0  0  0  0  0  0  0  0  0  0  0  0
   -7.5697    5.6570    0.2485 H   0  0  0  0  0  0  0  0  0  0  0  0
   -8.3064    4.9590   -1.2336 H   0  0  0  0  0  0  0  0  0  0  0  0
   -6.5772    5.4451   -1.2336 H   0  0  0  0  0  0  0  0  0  0  0  0
  1  2  1  0
  2  3  1  0
  3  4  1  0
  4  5  1  0
  5  6  1  0
  6  7  1  0
  7  8  1  0
  7  9  1  0
  2 10  1  0
 10 11  1  0
 11 12  1  0
 12 13  1  0
 13 14  1  6
 13 15  1  0
 15 16  1  0
 16 17  1  0
 17 18  2  0
 18 19  1  0
 19 20  1  0
 20 21  1  0
 21 22  1  0
 22 23  1  0
 22 24  1  0
 24 25  1  0
 24 26  1  0
 19 27  1  0
 27 28  1  1
 27 29  1  0
 29 30  1  0
 30 31  1  0
 31 32  1  1
  7  5  1  0
 31 10  1  0
 31 13  1  0
 27 15  1  0
 24 18  1  0
  1 33  1  0
  1 34  1  0
  1 35  1  0
  2 36  1  6
  3 37  1  0
  3 38  1  0
  4 39  1  0
  4 40  1  0
  5 41  1  6
  8 42  1  0
  8 43  1  0
  8 44  1  0
  9 45  1  0
  9 46  1  0
  9 47  1  0
 10 48  1  6
 11 49  1  0
 11 50  1  0
 12 51  1  0
 12 52  1  0
 14 53  1  0
 14 54  1  0
 14 55  1  0
 15 56  1  1
 16 57  1  0
 16 58  1  0
 17 59  1  0
 19 60  1  6
 20 61  1  0
 20 62  1  0
 21 63  1  0
 21 64  1  0
 22 65  1  6
 23 66  1  0
 25 67  1  0
 25 68  1  0
 25 69  1  0
 26 70  1  0
 26 71  1  0
 26 72  1  0
 28 73  1  0
 28 74  1  0
 28 75  1  0
 29 76  1  0
 29 77  1  0
 30 78  1  0
 30 79  1  0
 32 80  1  0
 32 81  1  0
 32 82  1  0
M  END
>  <meeko>  (6) 
{"is_sidechain": [false], "intermolecular_energy": 2.731, "internal_energy": -0.839}

$$$$
EPH_relaxed_0001_pdb2pqr_Repair_218_r2_0001_out
     RDKit          3D

 82 86  0  0  0  0  0  0  0  0999 V2000
    0.4480    8.7980   -2.3420 C   0  0  0  0  0  0  0  0  0  0  0  0
    1.1820    9.9400   -3.0500 C   0  0  2  0  0  0  0  0  0  0  0  0
    2.6850    9.9640   -2.7070 C   0  0  0  0  0  0  0  0  0  0  0  0
    3.5550   10.5900   -3.8000 C   0  0  0  0  0  0  0  0  0  0  0  0
    4.9560   10.8300   -3.3240 C   0  0  2  0  0  0  0  0  0  0  0  0
    5.5550   12.0380   -3.8110 O   0  0  0  0  0  0  0  0  0  0  0  0
    6.1660   10.8100   -4.2390 C   0  0  0  0  0  0  0  0  0  0  0  0
    6.0310   10.5430   -5.7050 C   0  0  0  0  0  0  0  0  0  0  0  0
    7.5150   10.5660   -3.6370 C   0  0  0  0  0  0  0  0  0  0  0  0
    0.5430   11.2740   -2.6850 C   0  0  1  0  0  0  0  0  0  0  0  0
   -0.8290   11.1060   -1.9790 C   0  0  0  0  0  0  0  0  0  0  0  0
   -0.9410   12.2510   -0.9390 C   0  0  0  0  0  0  0  0  0  0  0  0
    0.2050   13.2230   -1.3050 C   0  0  1  0  0  0  0  0  0  0  0  0
   -0.3540   14.0740   -2.4890 C   0  0  0  0  0  0  0  0  0  0  0  0
    0.7410   14.1270   -0.1470 C   0  0  2  0  0  0  0  0  0  0  0  0
   -0.2880   15.1040    0.4470 C   0  0  0  0  0  0  0  0  0  0  0  0
   -0.3390   16.4480   -0.2000 C   0  0  0  0  0  0  0  0  0  0  0  0
    0.5970   16.9550   -1.0250 C   0  0  0  0  0  0  0  0  0  0  0  0
    1.8980   16.1920   -1.3040 C   0  0  1  0  0  0  0  0  0  0  0  0
    3.1030   17.1620   -1.1860 C   0  0  0  0  0  0  0  0  0  0  0  0
    2.9500   18.3950   -2.0700 C   0  0  0  0  0  0  0  0  0  0  0  0
    1.6740   19.1590   -1.7240 C   0  0  2  0  0  0  0  0  0  0  0  0
    1.8080   19.7050   -0.4070 O   0  0  0  0  0  0  0  0  0  0  0  0
    0.3940   18.2810   -1.7980 C   0  0  0  0  0  0  0  0  0  0  0  0
    0.0830   17.9390   -3.2760 C   0  0  0  0  0  0  0  0  0  0  0  0
   -0.8000   19.1340   -1.2890 C   0  0  0  0  0  0  0  0  0  0  0  0
    2.1080   14.8530   -0.4720 C   0  0  1  0  0  0  0  0  0  0  0  0
    2.7770   15.1780    0.8990 C   0  0  0  0  0  0  0  0  0  0  0  0
    3.1130   13.9200   -1.2460 C   0  0  0  0  0  0  0  0  0  0  0  0
    2.5080   12.9650   -2.2930 C   0  0  0  0  0  0  0  0  0  0  0  0
    1.3210   12.1930   -1.7100 C   0  0  2  0  0  0  0  0  0  0  0  0
    1.8570   11.3100   -0.5310 C   0  0  0  0  0  0  0  0  0  0  0  0
    0.5315    8.9279   -1.2529 H   0  0  0  0  0  0  0  0  0  0  0  0
   -0.6130    8.8084   -2.6322 H   0  0  0  0  0  0  0  0  0  0  0  0
    0.8981    7.8372   -2.6322 H   0  0  0  0  0  0  0  0  0  0  0  0
    1.0930    9.7698   -4.1331 H   0  0  0  0  0  0  0  0  0  0  0  0
    2.8209   10.5422   -1.7811 H   0  0  0  0  0  0  0  0  0  0  0  0
    3.0072    8.9178   -2.5991 H   0  0  0  0  0  0  0  0  0  0  0  0
    3.5838    9.9112   -4.6651 H   0  0  0  0  0  0  0  0  0  0  0  0
    3.1153   11.5602   -4.0746 H   0  0  0  0  0  0  0  0  0  0  0  0
    4.7437   10.3238   -2.3708 H   0  0  0  0  0  0  0  0  0  0  0  0
    5.5394    9.5707   -5.8569 H   0  0  0  0  0  0  0  0  0  0  0  0
    5.4257   11.3362   -6.1680 H   0  0  0  0  0  0  0  0  0  0  0  0
    7.0287   10.5257   -6.1680 H   0  0  0  0  0  0  0  0  0  0  0  0
    7.4350   10.5805   -2.5400 H   0  0  0  0  0  0  0  0  0  0  0  0
    7.8907    9.5853   -3.9644 H   0  0  0  0  0  0  0  0  0  0  0  0
    8.2104   11.3529   -3.9644 H   0  0  0  0  0  0  0  0  0  0  0  0
    0.4986   11.7354   -3.6825 H   0  0  0  0  0  0  0  0  0  0  0  0
   -1.6445   11.1805   -2.7135 H   0  0  0  0  0  0  0  0  0  0  0  0
   -0.9048   10.1223   -1.4927 H   0  0  0  0  0  0  0  0  0  0  0  0
   -1.9164   12.7533   -1.0178 H   0  0  0  0  0  0  0  0  0  0  0  0
   -0.8633   11.8846    0.0953 H   0  0  0  0  0  0  0  0  0  0  0  0
   -0.9170   14.9310   -2.0908 H   0  0  0  0  0  0  0  0  0  0  0  0
    0.4813   14.4383   -3.1051 H   0  0  0  0  0  0  0  0  0  0  0  0
   -1.0201   13.4521   -3.1051 H   0  0  0  0  0  0  0  0  0  0  0  0
    0.9500   13.3950    0.6470 H   0  0  0  0  0  0  0  0  0  0  0  0
   -1.2837   14.6453    0.3566 H   0  0  0  0  0  0  0  0  0  0  0  0
    0.0239   15.2789    1.4873 H   0  0  0  0  0  0  0  0  0  0  0  0
   -1.2150   17.0776    0.0151 H   0  0  0  0  0  0  0  0  0  0  0  0
    1.8180   15.8209   -2.3364 H   0  0  0  0  0  0  0  0  0  0  0  0
    3.1923   17.4876   -0.1391 H   0  0  0  0  0  0  0  0  0  0  0  0
    4.0008   16.6212   -1.5199 H   0  0  0  0  0  0  0  0  0  0  0  0
    3.8169   19.0553   -1.9201 H   0  0  0  0  0  0  0  0  0  0  0  0
    2.8912   18.0699   -3.1192 H   0  0  0  0  0  0  0  0  0  0  0  0
    1.5514   19.9541   -2.4742 H   0  0  0  0  0  0  0  0  0  0  0  0
    2.5370   20.3480   -0.4280 H   0  0  0  0  0  0  0  0  0  0  0  0
   -0.6566   17.1257   -3.3164 H   0  0  0  0  0  0  0  0  0  0  0  0
   -0.3222   18.8284   -3.7807 H   0  0  0  0  0  0  0  0  0  0  0  0
    1.0068   17.6199   -3.7807 H   0  0  0  0  0  0  0  0  0  0  0  0
   -0.8053   19.1378   -0.1890 H   0  0  0  0  0  0  0  0  0  0  0  0
   -0.6981   20.1650   -1.6587 H   0  0  0  0  0  0  0  0  0  0  0  0
   -1.7422   18.7034   -1.6587 H   0  0  0  0  0  0  0  0  0  0  0  0
    2.1143   14.8561    1.7158 H   0  0  0  0  0  0  0  0  0  0  0  0
    3.7367   14.6457    0.9740 H   0  0  0  0  0  0  0  0  0  0  0  0
    2.9518   16.2614    0.9740 H   0  0  0  0  0  0  0  0  0  0  0  0
    3.8361   14.5670   -1.7641 H   0  0  0  0  0  0  0  0  0  0  0  0
    3.5489   13.2654   -0.4769 H   0  0  0  0  0  0  0  0  0  0  0  0
    2.1659   13.5507   -3.1590 H   0  0  0  0  0  0  0  0  0  0  0  0
    3.2804   12.2432   -2.5970 H   0  0  0  0  0  0  0  0  0  0  0  0
    1.5776   11.7703    0.4282 H   0  0  0  0  0  0  0  0  0  0  0  0
    1.4170   10.3040   -0.5969 H   0  0  0  0  0  0  0  0  0  0  0  0
    2.9525   11.2361   -0.5969 H   0  0  0  0  0  0  0  0  0  0  0  0
  1  2  1  0
  2  3  1  0
  3  4  1  0
  4  5  1  0
  5  6  1  0
  6  7  1  0
  7  8  1  0
  7  9  1  0
  2 10  1  0
 10 11  1  0
 11 12  1  0
 12 13  1  0
 13 14  1  6
 13 15  1  0
 15 16  1  0
 16 17  1  0
 17 18  2  0
 18 19  1  0
 19 20  1  0
 20 21  1  0
 21 22  1  0
 22 23  1  0
 22 24  1  0
 24 25  1  0
 24 26  1  0
 19 27  1  0
 27 28  1  1
 27 29  1  0
 29 30  1  0
 30 31  1  0
 31 32  1  1
  7  5  1  0
 31 10  1  0
 31 13  1  0
 27 15  1  0
 24 18  1  0
  1 33  1  0
  1 34  1  0
  1 35  1  0
  2 36  1  6
  3 37  1  0
  3 38  1  0
  4 39  1  0
  4 40  1  0
  5 41  1  1
  8 42  1  0
  8 43  1  0
  8 44  1  0
  9 45  1  0
  9 46  1  0
  9 47  1  0
 10 48  1  6
 11 49  1  0
 11 50  1  0
 12 51  1  0
 12 52  1  0
 14 53  1  0
 14 54  1  0
 14 55  1  0
 15 56  1  1
 16 57  1  0
 16 58  1  0
 17 59  1  0
 19 60  1  6
 20 61  1  0
 20 62  1  0
 21 63  1  0
 21 64  1  0
 22 65  1  6
 23 66  1  0
 25 67  1  0
 25 68  1  0
 25 69  1  0
 26 70  1  0
 26 71  1  0
 26 72  1  0
 28 73  1  0
 28 74  1  0
 28 75  1  0
 29 76  1  0
 29 77  1  0
 30 78  1  0
 30 79  1  0
 32 80  1  0
 32 81  1  0
 32 82  1  0
M  END
>  <meeko>  (7) 
{"is_sidechain": [false], "intermolecular_energy": 2.731, "internal_energy": -0.839}

$$$$
EPH_relaxed_0001_pdb2pqr_Repair_218_r2_0001_out
     RDKit          3D

 82 86  0  0  0  0  0  0  0  0999 V2000
    3.0860   18.3250   -3.7820 C   0  0  0  0  0  0  0  0  0  0  0  0
    2.0240   18.1570   -2.6920 C   0  0  2  0  0  0  0  0  0  0  0  0
    2.0520   19.3130   -1.6720 C   0  0  0  0  0  0  0  0  0  0  0  0
    0.8000   20.1940   -1.7060 C   0  0  0  0  0  0  0  0  0  0  0  0
   -0.0860   19.9450   -0.5240 C   0  0  2  0  0  0  0  0  0  0  0  0
   -0.8370   18.7250   -0.5850 O   0  0  0  0  0  0  0  0  0  0  0  0
   -1.6020   19.9410   -0.6000 C   0  0  0  0  0  0  0  0  0  0  0  0
   -2.3190   20.1940   -1.8890 C   0  0  0  0  0  0  0  0  0  0  0  0
   -2.3820   20.1780    0.6550 C   0  0  0  0  0  0  0  0  0  0  0  0
    2.2200   16.8260   -1.9760 C   0  0  1  0  0  0  0  0  0  0  0  0
    2.5880   17.0010   -0.4780 C   0  0  0  0  0  0  0  0  0  0  0  0
    1.9220   15.8280    0.2860 C   0  0  0  0  0  0  0  0  0  0  0  0
    1.4780   14.8430   -0.8210 C   0  0  1  0  0  0  0  0  0  0  0  0
    2.7660   14.0410   -1.1840 C   0  0  0  0  0  0  0  0  0  0  0  0
    0.2880   13.8940   -0.4640 C   0  0  2  0  0  0  0  0  0  0  0  0
    0.5550   12.9210    0.6970 C   0  0  0  0  0  0  0  0  0  0  0  0
    1.1240   11.5980    0.3030 C   0  0  0  0  0  0  0  0  0  0  0  0
    1.1460   11.0970   -0.9460 C   0  0  0  0  0  0  0  0  0  0  0  0
    0.4700   11.8410   -2.1050 C   0  0  1  0  0  0  0  0  0  0  0  0
   -0.3760   10.8430   -2.9380 C   0  0  0  0  0  0  0  0  0  0  0  0
    0.4350    9.6400   -3.4110 C   0  0  0  0  0  0  0  0  0  0  0  0
    1.0420    8.8930   -2.2270 C   0  0  2  0  0  0  0  0  0  0  0  0
   -0.0140    8.3050   -1.4620 O   0  0  0  0  0  0  0  0  0  0  0  0
    1.9090    9.8000   -1.3090 C   0  0  0  0  0  0  0  0  0  0  0  0
    3.2120   10.1930   -2.0480 C   0  0  0  0  0  0  0  0  0  0  0  0
    2.3450    8.9580   -0.0800 C   0  0  0  0  0  0  0  0  0  0  0  0
   -0.3420   13.1490   -1.7100 C   0  0  1  0  0  0  0  0  0  0  0  0
   -1.8010   12.7680   -1.3100 C   0  0  0  0  0  0  0  0  0  0  0  0
   -0.4570   14.0840   -2.9720 C   0  0  0  0  0  0  0  0  0  0  0  0
    0.6930   15.0830   -3.2030 C   0  0  0  0  0  0  0  0  0  0  0  0
    1.0080   15.8620   -1.9230 C   0  0  2  0  0  0  0  0  0  0  0  0
   -0.2630   16.6960   -1.5450 C   0  0  0  0  0  0  0  0  0  0  0  0
    4.0696   18.4806   -3.3147 H   0  0  0  0  0  0  0  0  0  0  0  0
    3.1160   17.4204   -4.4072 H   0  0  0  0  0  0  0  0  0  0  0  0
    2.8354   19.1947   -4.4072 H   0  0  0  0  0  0  0  0  0  0  0  0
    1.0399   18.1733   -3.1831 H   0  0  0  0  0  0  0  0  0  0  0  0
    2.1477   18.8842   -0.6636 H   0  0  0  0  0  0  0  0  0  0  0  0
    2.9046   19.9554   -1.9373 H   0  0  0  0  0  0  0  0  0  0  0  0
    1.1074   21.2502   -1.7047 H   0  0  0  0  0  0  0  0  0  0  0  0
    0.2334   19.9490   -2.6165 H   0  0  0  0  0  0  0  0  0  0  0  0
    0.6180   20.4646    0.1426 H   0  0  0  0  0  0  0  0  0  0  0  0
   -3.3370   20.5532   -1.6779 H   0  0  0  0  0  0  0  0  0  0  0  0
   -1.7746   20.9543   -2.4683 H   0  0  0  0  0  0  0  0  0  0  0  0
   -2.3723   19.2604   -2.4683 H   0  0  0  0  0  0  0  0  0  0  0  0
   -1.7410   19.9832    1.5274 H   0  0  0  0  0  0  0  0  0  0  0  0
   -2.7281   21.2218    0.6800 H   0  0  0  0  0  0  0  0  0  0  0  0
   -3.2503   19.5031    0.6800 H   0  0  0  0  0  0  0  0  0  0  0  0
    3.0161   16.3959   -2.6015 H   0  0  0  0  0  0  0  0  0  0  0  0
    3.6799   16.9654   -0.3495 H   0  0  0  0  0  0  0  0  0  0  0  0
    2.2374   17.9710   -0.0958 H   0  0  0  0  0  0  0  0  0  0  0  0
    2.6419   15.3490    0.9660 H   0  0  0  0  0  0  0  0  0  0  0  0
    1.0796   16.1615    0.9099 H   0  0  0  0  0  0  0  0  0  0  0  0
    3.2736   13.7250   -0.2607 H   0  0  0  0  0  0  0  0  0  0  0  0
    2.4916   13.1539   -1.7736 H   0  0  0  0  0  0  0  0  0  0  0  0
    3.4410   14.6787   -1.7736 H   0  0  0  0  0  0  0  0  0  0  0  0
   -0.4726   14.5974   -0.0942 H   0  0  0  0  0  0  0  0  0  0  0  0
    1.2621   13.4027    1.3883 H   0  0  0  0  0  0  0  0  0  0  0  0
   -0.4259   12.7083    1.1471 H   0  0  0  0  0  0  0  0  0  0  0  0
    1.5623   10.9806    1.1010 H   0  0  0  0  0  0  0  0  0  0  0  0
    1.2851   12.2454   -2.7231 H   0  0  0  0  0  0  0  0  0  0  0  0
   -1.2099   10.4838   -2.3171 H   0  0  0  0  0  0  0  0  0  0  0  0
   -0.7357   11.3749   -3.8311 H   0  0  0  0  0  0  0  0  0  0  0  0
   -0.2242    8.9577   -3.9677 H   0  0  0  0  0  0  0  0  0  0  0  0
    1.2507    9.9979   -4.0564 H   0  0  0  0  0  0  0  0  0  0  0  0
    1.7146    8.1233   -2.6333 H   0  0  0  0  0  0  0  0  0  0  0  0
   -0.6980    8.0070   -2.0850 H   0  0  0  0  0  0  0  0  0  0  0  0
    3.9943   10.4290   -1.3116 H   0  0  0  0  0  0  0  0  0  0  0  0
    3.5430    9.3547   -2.6787 H   0  0  0  0  0  0  0  0  0  0  0  0
    3.0243   11.0745   -2.6787 H   0  0  0  0  0  0  0  0  0  0  0  0
    2.0704    9.4883    0.8438 H   0  0  0  0  0  0  0  0  0  0  0  0
    1.8392    7.9815   -0.1064 H   0  0  0  0  0  0  0  0  0  0  0  0
    3.4343    8.8075   -0.1064 H   0  0  0  0  0  0  0  0  0  0  0  0
   -1.8866   12.7456   -0.2136 H   0  0  0  0  0  0  0  0  0  0  0  0
   -2.4995   13.5139   -1.7172 H   0  0  0  0  0  0  0  0  0  0  0  0
   -2.0456   11.7759   -1.7172 H   0  0  0  0  0  0  0  0  0  0  0  0
   -0.5203   13.4381   -3.8601 H   0  0  0  0  0  0  0  0  0  0  0  0
   -1.3462   14.7055   -2.7900 H   0  0  0  0  0  0  0  0  0  0  0  0
    1.5908   14.5314   -3.5186 H   0  0  0  0  0  0  0  0  0  0  0  0
    0.3861   15.7970   -3.9815 H   0  0  0  0  0  0  0  0  0  0  0  0
   -0.3513   16.7539   -0.4501 H   0  0  0  0  0  0  0  0  0  0  0  0
   -0.1724   17.7108   -1.9597 H   0  0  0  0  0  0  0  0  0  0  0  0
   -1.1579   16.2089   -1.9597 H   0  0  0  0  0  0  0  0  0  0  0  0
  1  2  1  0
  2  3  1  0
  3  4  1  0
  4  5  1  0
  5  6  1  0
  6  7  1  0
  7  8  1  0
  7  9  1  0
  2 10  1  0
 10 11  1  0
 11 12  1  0
 12 13  1  0
 13 14  1  6
 13 15  1  0
 15 16  1  0
 16 17  1  0
 17 18  2  0
 18 19  1  0
 19 20  1  0
 20 21  1  0
 21 22  1  0
 22 23  1  0
 22 24  1  0
 24 25  1  0
 24 26  1  0
 19 27  1  0
 27 28  1  1
 27 29  1  0
 29 30  1  0
 30 31  1  0
 31 32  1  1
  7  5  1  0
 31 10  1  0
 31 13  1  0
 27 15  1  0
 24 18  1  0
  1 33  1  0
  1 34  1  0
  1 35  1  0
  2 36  1  6
  3 37  1  0
  3 38  1  0
  4 39  1  0
  4 40  1  0
  5 41  1  1
  8 42  1  0
  8 43  1  0
  8 44  1  0
  9 45  1  0
  9 46  1  0
  9 47  1  0
 10 48  1  6
 11 49  1  0
 11 50  1  0
 12 51  1  0
 12 52  1  0
 14 53  1  0
 14 54  1  0
 14 55  1  0
 15 56  1  1
 16 57  1  0
 16 58  1  0
 17 59  1  0
 19 60  1  6
 20 61  1  0
 20 62  1  0
 21 63  1  0
 21 64  1  0
 22 65  1  6
 23 66  1  0
 25 67  1  0
 25 68  1  0
 25 69  1  0
 26 70  1  0
 26 71  1  0
 26 72  1  0
 28 73  1  0
 28 74  1  0
 28 75  1  0
 29 76  1  0
 29 77  1  0
 30 78  1  0
 30 79  1  0
 32 80  1  0
 32 81  1  0
 32 82  1  0
M  END
>  <meeko>  (8) 
{"is_sidechain": [false], "intermolecular_energy": 2.731, "internal_energy": -0.839}

$$$$
EPH_relaxed_0001_pdb2pqr_Repair_218_r2_0001_out
     RDKit          3D

 82 86  0  0  0  0  0  0  0  0999 V2000
   -0.9140   16.3900   -5.8830 C   0  0  0  0  0  0  0  0  0  0  0  0
    0.1860   15.6890   -6.6850 C   0  0  2  0  0  0  0  0  0  0  0  0
   -0.2110   15.4890   -8.1620 C   0  0  0  0  0  0  0  0  0  0  0  0
    0.4340   16.4990   -9.1150 C   0  0  0  0  0  0  0  0  0  0  0  0
    1.8410   16.1160   -9.4600 C   0  0  2  0  0  0  0  0  0  0  0  0
    2.3350   16.6880  -10.6780 O   0  0  0  0  0  0  0  0  0  0  0  0
    2.2040   15.2570  -10.6570 C   0  0  0  0  0  0  0  0  0  0  0  0
    1.1560   14.7290  -11.5850 C   0  0  0  0  0  0  0  0  0  0  0  0
    3.5140   14.5320  -10.6460 C   0  0  0  0  0  0  0  0  0  0  0  0
    0.5180   14.3450   -6.0480 C   0  0  1  0  0  0  0  0  0  0  0  0
    1.7460   13.6600   -6.7050 C   0  0  0  0  0  0  0  0  0  0  0  0
    2.4970   12.9090   -5.5750 C   0  0  0  0  0  0  0  0  0  0  0  0
    1.5090   12.9080   -4.3840 C   0  0  1  0  0  0  0  0  0  0  0  0
    0.5240   11.7350   -4.6820 C   0  0  0  0  0  0  0  0  0  0  0  0
    2.1430   12.7830   -2.9610 C   0  0  2  0  0  0  0  0  0  0  0  0
    2.9090   11.4750   -2.7000 C   0  0  0  0  0  0  0  0  0  0  0  0
    2.0950   10.3620   -2.1280 C   0  0  0  0  0  0  0  0  0  0  0  0
    0.8770   10.4910   -1.5710 C   0  0  0  0  0  0  0  0  0  0  0  0
    0.2370   11.8730   -1.3860 C   0  0  1  0  0  0  0  0  0  0  0  0
   -0.3450   11.9870    0.0470 C   0  0  0  0  0  0  0  0  0  0  0  0
   -1.3060   10.8500    0.3810 C   0  0  0  0  0  0  0  0  0  0  0  0
   -0.6160    9.4950    0.2420 C   0  0  2  0  0  0  0  0  0  0  0  0
    0.3940    9.3860    1.2500 O   0  0  0  0  0  0  0  0  0  0  0  0
    0.0170    9.2700   -1.1590 C   0  0  0  0  0  0  0  0  0  0  0  0
   -1.1030    9.0870   -2.2130 C   0  0  0  0  0  0  0  0  0  0  0  0
    0.7990    7.9300   -1.1200 C   0  0  0  0  0  0  0  0  0  0  0  0
    1.1470   13.1160   -1.7760 C   0  0  1  0  0  0  0  0  0  0  0  0
    2.0270   13.5330   -0.5590 C   0  0  0  0  0  0  0  0  0  0  0  0
    0.2230   14.3480   -2.1000 C   0  0  0  0  0  0  0  0  0  0  0  0
   -0.2740   14.4820   -3.5520 C   0  0  0  0  0  0  0  0  0  0  0  0
    0.8850   14.3430   -4.5430 C   0  0  2  0  0  0  0  0  0  0  0  0
    1.8820   15.5230   -4.2830 C   0  0  0  0  0  0  0  0  0  0  0  0
   -0.7193   16.2659   -4.8075 H   0  0  0  0  0  0  0  0  0  0  0  0
   -0.9238   17.4612   -6.1327 H   0  0  0  0  0  0  0  0  0  0  0  0
   -1.8891   15.9464   -6.1327 H   0  0  0  0  0  0  0  0  0  0  0  0
    1.0740   16.3379   -6.6665 H   0  0  0  0  0  0  0  0  0  0  0  0
    0.0937   14.4778   -8.4696 H   0  0  0  0  0  0  0  0  0  0  0  0
   -1.2992   15.6370   -8.2252 H   0  0  0  0  0  0  0  0  0  0  0  0
   -0.1596   16.5456  -10.0399 H   0  0  0  0  0  0  0  0  0  0  0  0
    0.4586   17.4771   -8.6123 H   0  0  0  0  0  0  0  0  0  0  0  0
    2.1095   16.0491   -8.3954 H   0  0  0  0  0  0  0  0  0  0  0  0
    0.3247   14.3102  -10.9990 H   0  0  0  0  0  0  0  0  0  0  0  0
    0.7823   15.5464  -12.2192 H   0  0  0  0  0  0  0  0  0  0  0  0
    1.5905   13.9422  -12.2192 H   0  0  0  0  0  0  0  0  0  0  0  0
    3.8281   14.3581   -9.6062 H   0  0  0  0  0  0  0  0  0  0  0  0
    3.4032   13.5668  -11.1618 H   0  0  0  0  0  0  0  0  0  0  0  0
    4.2730   15.1384  -11.1618 H   0  0  0  0  0  0  0  0  0  0  0  0
   -0.4395   13.8259   -6.2019 H   0  0  0  0  0  0  0  0  0  0  0  0
    1.4154   12.9498   -7.4772 H   0  0  0  0  0  0  0  0  0  0  0  0
    2.3994   14.4007   -7.1891 H   0  0  0  0  0  0  0  0  0  0  0  0
    2.7345   11.8802   -5.8835 H   0  0  0  0  0  0  0  0  0  0  0  0
    3.4552   13.3862   -5.3219 H   0  0  0  0  0  0  0  0  0  0  0  0
    0.1652   11.3077   -3.7340 H   0  0  0  0  0  0  0  0  0  0  0  0
   -0.3316   12.1128   -5.2610 H   0  0  0  0  0  0  0  0  0  0  0  0
    1.0440   10.9576   -5.2610 H   0  0  0  0  0  0  0  0  0  0  0  0
    2.9040   13.5772   -2.9717 H   0  0  0  0  0  0  0  0  0  0  0  0
    3.3302   11.1313   -3.6563 H   0  0  0  0  0  0  0  0  0  0  0  0
    3.6708   11.7145   -1.9435 H   0  0  0  0  0  0  0  0  0  0  0  0
    2.5274    9.3512   -2.1650 H   0  0  0  0  0  0  0  0  0  0  0  0
   -0.5762   11.9327   -2.1244 H   0  0  0  0  0  0  0  0  0  0  0  0
    0.4861   11.9692    0.7674 H   0  0  0  0  0  0  0  0  0  0  0  0
   -0.9102   12.9290    0.1036 H   0  0  0  0  0  0  0  0  0  0  0  0
   -1.6597   10.9696    1.4157 H   0  0  0  0  0  0  0  0  0  0  0  0
   -2.1521   10.8873   -0.3209 H   0  0  0  0  0  0  0  0  0  0  0  0
   -1.3859    8.7191    0.3658 H   0  0  0  0  0  0  0  0  0  0  0  0
    1.1730    9.8770    0.9390 H   0  0  0  0  0  0  0  0  0  0  0  0
   -2.0647    8.9299   -1.7026 H   0  0  0  0  0  0  0  0  0  0  0  0
   -1.1647    9.9870   -2.8425 H   0  0  0  0  0  0  0  0  0  0  0  0
   -0.8751    8.2142   -2.8425 H   0  0  0  0  0  0  0  0  0  0  0  0
    0.9706    7.6359   -0.0740 H   0  0  0  0  0  0  0  0  0  0  0  0
    0.2146    7.1495   -1.6292 H   0  0  0  0  0  0  0  0  0  0  0  0
    1.7660    8.0549   -1.6292 H   0  0  0  0  0  0  0  0  0  0  0  0
    1.5022   13.2843    0.3752 H   0  0  0  0  0  0  0  0  0  0  0  0
    2.9845   12.9928   -0.5967 H   0  0  0  0  0  0  0  0  0  0  0  0
    2.2153   14.6161   -0.5967 H   0  0  0  0  0  0  0  0  0  0  0  0
   -0.6621   14.2798   -1.4505 H   0  0  0  0  0  0  0  0  0  0  0  0
    0.8537   15.2329   -1.9293 H   0  0  0  0  0  0  0  0  0  0  0  0
   -1.0154   13.6946   -3.7527 H   0  0  0  0  0  0  0  0  0  0  0  0
   -0.7256   15.4771   -3.6777 H   0  0  0  0  0  0  0  0  0  0  0  0
    2.0043   15.6677   -3.1994 H   0  0  0  0  0  0  0  0  0  0  0  0
    2.8570   15.2853   -4.7335 H   0  0  0  0  0  0  0  0  0  0  0  0
    1.4849   16.4446   -4.7335 H   0  0  0  0  0  0  0  0  0  0  0  0
  1  2  1  0
  2  3  1  0
  3  4  1  0
  4  5  1  0
  5  6  1  0
  6  7  1  0
  7  8  1  0
  7  9  1  0
  2 10  1  0
 10 11  1  0
 11 12  1  0
 12 13  1  0
 13 14  1  6
 13 15  1  0
 15 16  1  0
 16 17  1  0
 17 18  2  0
 18 19  1  0
 19 20  1  0
 20 21  1  0
 21 22  1  0
 22 23  1  0
 22 24  1  0
 24 25  1  0
 24 26  1  0
 19 27  1  0
 27 28  1  1
 27 29  1  0
 29 30  1  0
 30 31  1  0
 31 32  1  6
  7  5  1  0
 31 10  1  0
 31 13  1  0
 27 15  1  0
 24 18  1  0
  1 33  1  0
  1 34  1  0
  1 35  1  0
  2 36  1  6
  3 37  1  0
  3 38  1  0
  4 39  1  0
  4 40  1  0
  5 41  1  1
  8 42  1  0
  8 43  1  0
  8 44  1  0
  9 45  1  0
  9 46  1  0
  9 47  1  0
 10 48  1  1
 11 49  1  0
 11 50  1  0
 12 51  1  0
 12 52  1  0
 14 53  1  0
 14 54  1  0
 14 55  1  0
 15 56  1  6
 16 57  1  0
 16 58  1  0
 17 59  1  0
 19 60  1  6
 20 61  1  0
 20 62  1  0
 21 63  1  0
 21 64  1  0
 22 65  1  1
 23 66  1  0
 25 67  1  0
 25 68  1  0
 25 69  1  0
 26 70  1  0
 26 71  1  0
 26 72  1  0
 28 73  1  0
 28 74  1  0
 28 75  1  0
 29 76  1  0
 29 77  1  0
 30 78  1  0
 30 79  1  0
 32 80  1  0
 32 81  1  0
 32 82  1  0
M  END
>  <meeko>  (9) 
{"is_sidechain": [false], "intermolecular_energy": 2.731, "internal_energy": -0.839}

$$$$
EPH_relaxed_0001_pdb2pqr_Repair_218_r2_0001_out
     RDKit          3D

 82 86  0  0  0  0  0  0  0  0999 V2000
    2.3230   18.9590   -2.4370 C   0  0  0  0  0  0  0  0  0  0  0  0
    1.9860   18.9420   -0.9440 C   0  0  2  0  0  0  0  0  0  0  0  0
    3.1730   19.4030   -0.0750 C   0  0  0  0  0  0  0  0  0  0  0  0
    4.0240   18.2510    0.4650 C   0  0  0  0  0  0  0  0  0  0  0  0
    4.2250   18.3570    1.9460 C   0  0  2  0  0  0  0  0  0  0  0  0
    4.4470   19.6890    2.4270 O   0  0  0  0  0  0  0  0  0  0  0  0
    5.5390   18.7680    2.5850 C   0  0  0  0  0  0  0  0  0  0  0  0
    6.7400   19.1000    1.7560 C   0  0  0  0  0  0  0  0  0  0  0  0
    5.7960   18.3780    4.0070 C   0  0  0  0  0  0  0  0  0  0  0  0
    1.5460   17.5440   -0.5260 C   0  0  1  0  0  0  0  0  0  0  0  0
    0.2850   17.5590    0.3790 C   0  0  0  0  0  0  0  0  0  0  0  0
   -0.5390   16.2960    0.0200 C   0  0  0  0  0  0  0  0  0  0  0  0
    0.4230   15.4320   -0.8290 C   0  0  1  0  0  0  0  0  0  0  0  0
    1.3270   14.6990    0.2110 C   0  0  0  0  0  0  0  0  0  0  0  0
   -0.2470   14.4260   -1.8220 C   0  0  2  0  0  0  0  0  0  0  0  0
   -1.1090   13.3360   -1.1630 C   0  0  0  0  0  0  0  0  0  0  0  0
   -0.3880   12.0760   -0.8140 C   0  0  0  0  0  0  0  0  0  0  0  0
    0.8260   11.7170   -1.2730 C   0  0  0  0  0  0  0  0  0  0  0  0
    1.5580   12.5720   -2.3150 C   0  0  1  0  0  0  0  0  0  0  0  0
    2.1180   11.6560   -3.4350 C   0  0  0  0  0  0  0  0  0  0  0  0
    2.9890   10.5280   -2.8880 C   0  0  0  0  0  0  0  0  0  0  0  0
    2.2080    9.6660   -1.9000 C   0  0  2  0  0  0  0  0  0  0  0  0
    1.1730    8.9770   -2.6070 O   0  0  0  0  0  0  0  0  0  0  0  0
    1.5880   10.4830   -0.7310 C   0  0  0  0  0  0  0  0  0  0  0  0
    2.7130   10.9800    0.2100 C   0  0  0  0  0  0  0  0  0  0  0  0
    0.7110    9.5180    0.1130 C   0  0  0  0  0  0  0  0  0  0  0  0
    0.7470   13.8110   -2.8890 C   0  0  1  0  0  0  0  0  0  0  0  0
   -0.1250   13.3610   -4.1010 C   0  0  0  0  0  0  0  0  0  0  0  0
    1.7630   14.8780   -3.4450 C   0  0  0  0  0  0  0  0  0  0  0  0
    2.2960   15.9180   -2.4420 C   0  0  0  0  0  0  0  0  0  0  0  0
    1.1500   16.5570   -1.6520 C   0  0  2  0  0  0  0  0  0  0  0  0
    0.2350   17.3200   -2.6700 C   0  0  0  0  0  0  0  0  0  0  0  0
    3.4140   19.0140   -2.5660 H   0  0  0  0  0  0  0  0  0  0  0  0
    1.9438   18.0406   -2.9090 H   0  0  0  0  0  0  0  0  0  0  0  0
    1.8533   19.8346   -2.9090 H   0  0  0  0  0  0  0  0  0  0  0  0
    1.1633   19.6541   -0.7828 H   0  0  0  0  0  0  0  0  0  0  0  0
    3.8168   20.0546   -0.6840 H   0  0  0  0  0  0  0  0  0  0  0  0
    2.7502   19.9259    0.7955 H   0  0  0  0  0  0  0  0  0  0  0  0
    3.5193   17.2996    0.2410 H   0  0  0  0  0  0  0  0  0  0  0  0
    5.0107   18.2975   -0.0190 H   0  0  0  0  0  0  0  0  0  0  0  0
    3.5545   17.5028    2.1214 H   0  0  0  0  0  0  0  0  0  0  0  0
    7.5879   19.3344    2.4164 H   0  0  0  0  0  0  0  0  0  0  0  0
    6.9967   18.2391    1.1212 H   0  0  0  0  0  0  0  0  0  0  0  0
    6.5181   19.9705    1.1212 H   0  0  0  0  0  0  0  0  0  0  0  0
    5.3168   19.1052    4.6790 H   0  0  0  0  0  0  0  0  0  0  0  0
    5.3801   17.3769    4.1935 H   0  0  0  0  0  0  0  0  0  0  0  0
    6.8800   18.3653    4.1935 H   0  0  0  0  0  0  0  0  0  0  0  0
    2.4671   17.2016   -0.0317 H   0  0  0  0  0  0  0  0  0  0  0  0
    0.5790   17.5308    1.4386 H   0  0  0  0  0  0  0  0  0  0  0  0
   -0.3048   18.4737    0.2190 H   0  0  0  0  0  0  0  0  0  0  0  0
   -0.8428   15.7586    0.9304 H   0  0  0  0  0  0  0  0  0  0  0  0
   -1.4658   16.5415   -0.5192 H   0  0  0  0  0  0  0  0  0  0  0  0
    1.0026   14.9620    1.2286 H   0  0  0  0  0  0  0  0  0  0  0  0
    1.2421   13.6116    0.0687 H   0  0  0  0  0  0  0  0  0  0  0  0
    2.3734   15.0068    0.0687 H   0  0  0  0  0  0  0  0  0  0  0  0
   -0.9491   15.0691   -2.3729 H   0  0  0  0  0  0  0  0  0  0  0  0
   -1.5336   13.7520   -0.2374 H   0  0  0  0  0  0  0  0  0  0  0  0
   -1.8673   13.0557   -1.9090 H   0  0  0  0  0  0  0  0  0  0  0  0
   -0.8908   11.3826   -0.1238 H   0  0  0  0  0  0  0  0  0  0  0  0
    2.3874   13.0584   -1.7806 H   0  0  0  0  0  0  0  0  0  0  0  0
    1.2736   11.2146   -3.9846 H   0  0  0  0  0  0  0  0  0  0  0  0
    2.7475   12.2763   -4.0900 H   0  0  0  0  0  0  0  0  0  0  0  0
    3.3299    9.8989   -3.7235 H   0  0  0  0  0  0  0  0  0  0  0  0
    3.8489   10.9709   -2.3642 H   0  0  0  0  0  0  0  0  0  0  0  0
    2.9179    8.9586   -1.4466 H   0  0  0  0  0  0  0  0  0  0  0  0
    0.9300    8.1940   -2.0840 H   0  0  0  0  0  0  0  0  0  0  0  0
    2.4029   10.8430    1.2565 H   0  0  0  0  0  0  0  0  0  0  0  0
    3.6305   10.4035    0.0210 H   0  0  0  0  0  0  0  0  0  0  0  0
    2.9047   12.0466    0.0210 H   0  0  0  0  0  0  0  0  0  0  0  0
    0.8830    9.7072    1.1829 H   0  0  0  0  0  0  0  0  0  0  0  0
   -0.3502    9.6857   -0.1231 H   0  0  0  0  0  0  0  0  0  0  0  0
    0.9791    8.4776   -0.1231 H   0  0  0  0  0  0  0  0  0  0  0  0
   -1.0463   12.8856   -3.7334 H   0  0  0  0  0  0  0  0  0  0  0  0
   -0.3838   14.2381   -4.7123 H   0  0  0  0  0  0  0  0  0  0  0  0
    0.4400   12.6419   -4.7123 H   0  0  0  0  0  0  0  0  0  0  0  0
    2.6282   14.3336   -3.8512 H   0  0  0  0  0  0  0  0  0  0  0  0
    1.1940   15.4583   -4.1863 H   0  0  0  0  0  0  0  0  0  0  0  0
    2.9834   15.4221   -1.7409 H   0  0  0  0  0  0  0  0  0  0  0  0
    2.8190   16.7078   -3.0012 H   0  0  0  0  0  0  0  0  0  0  0  0
   -0.4965   17.9300   -2.1197 H   0  0  0  0  0  0  0  0  0  0  0  0
    0.8548   17.9726   -3.3024 H   0  0  0  0  0  0  0  0  0  0  0  0
   -0.2956   16.5930   -3.3024 H   0  0  0  0  0  0  0  0  0  0  0  0
  1  2  1  0
  2  3  1  0
  3  4  1  0
  4  5  1  0
  5  6  1  0
  6  7  1  0
  7  8  1  0
  7  9  1  0
  2 10  1  0
 10 11  1  0
 11 12  1  0
 12 13  1  0
 13 14  1  1
 13 15  1  0
 15 16  1  0
 16 17  1  0
 17 18  2  0
 18 19  1  0
 19 20  1  0
 20 21  1  0
 21 22  1  0
 22 23  1  0
 22 24  1  0
 24 25  1  0
 24 26  1  0
 19 27  1  0
 27 28  1  6
 27 29  1  0
 29 30  1  0
 30 31  1  0
 31 32  1  6
  7  5  1  0
 31 10  1  0
 31 13  1  0
 27 15  1  0
 24 18  1  0
  1 33  1  0
  1 34  1  0
  1 35  1  0
  2 36  1  6
  3 37  1  0
  3 38  1  0
  4 39  1  0
  4 40  1  0
  5 41  1  1
  8 42  1  0
  8 43  1  0
  8 44  1  0
  9 45  1  0
  9 46  1  0
  9 47  1  0
 10 48  1  1
 11 49  1  0
 11 50  1  0
 12 51  1  0
 12 52  1  0
 14 53  1  0
 14 54  1  0
 14 55  1  0
 15 56  1  6
 16 57  1  0
 16 58  1  0
 17 59  1  0
 19 60  1  1
 20 61  1  0
 20 62  1  0
 21 63  1  0
 21 64  1  0
 22 65  1  1
 23 66  1  0
 25 67  1  0
 25 68  1  0
 25 69  1  0
 26 70  1  0
 26 71  1  0
 26 72  1  0
 28 73  1  0
 28 74  1  0
 28 75  1  0
 29 76  1  0
 29 77  1  0
 30 78  1  0
 30 79  1  0
 32 80  1  0
 32 81  1  0
 32 82  1  0
M  END
>  <meeko>  (10) 
{"is_sidechain": [false], "intermolecular_energy": 2.731, "internal_energy": -0.839}

$$$$
EPH_relaxed_0001_pdb2pqr_Repair_218_r2_0001_out
     RDKit          3D

 82 86  0  0  0  0  0  0  0  0999 V2000
   -3.7330    7.1730   -3.4180 C   0  0  0  0  0  0  0  0  0  0  0  0
   -3.7650    7.2650   -1.8900 C   0  0  2  0  0  0  0  0  0  0  0  0
   -5.1830    7.0480   -1.3250 C   0  0  0  0  0  0  0  0  0  0  0  0
   -6.2970    7.3060   -2.3430 C   0  0  0  0  0  0  0  0  0  0  0  0
   -7.6240    7.5030   -1.6750 C   0  0  2  0  0  0  0  0  0  0  0  0
   -8.1930    6.3130   -1.1120 O   0  0  0  0  0  0  0  0  0  0  0  0
   -8.9200    6.9110   -2.1980 C   0  0  0  0  0  0  0  0  0  0  0  0
   -8.9520    6.0780   -3.4410 C   0  0  0  0  0  0  0  0  0  0  0  0
  -10.2130    7.5420   -1.7830 C   0  0  0  0  0  0  0  0  0  0  0  0
   -3.2260    8.6180   -1.4400 C   0  0  1  0  0  0  0  0  0  0  0  0
   -3.8450    9.0910   -0.0980 C   0  0  0  0  0  0  0  0  0  0  0  0
   -2.7330    9.8560    0.6630 C   0  0  0  0  0  0  0  0  0  0  0  0
   -1.6250   10.0860   -0.3920 C   0  0  1  0  0  0  0  0  0  0  0  0
   -2.0980   11.3300   -1.2060 C   0  0  0  0  0  0  0  0  0  0  0  0
   -0.1740   10.2740    0.1590 C   0  0  2  0  0  0  0  0  0  0  0  0
    0.0270   11.5050    1.0600 C   0  0  0  0  0  0  0  0  0  0  0  0
    0.4350   12.7540    0.3510 C   0  0  0  0  0  0  0  0  0  0  0  0
    0.9080   12.8200   -0.9070 C   0  0  0  0  0  0  0  0  0  0  0  0
    1.1650   11.5440   -1.7200 C   0  0  1  0  0  0  0  0  0  0  0  0
    2.5560   11.6370   -2.4020 C   0  0  0  0  0  0  0  0  0  0  0  0
    2.7140   12.9030   -3.2380 C   0  0  0  0  0  0  0  0  0  0  0  0
    2.5090   14.1510   -2.3830 C   0  0  2  0  0  0  0  0  0  0  0  0
    3.5760   14.2400   -1.4340 O   0  0  0  0  0  0  0  0  0  0  0  0
    1.1440   14.1650   -1.6380 C   0  0  0  0  0  0  0  0  0  0  0  0
   -0.0030   14.3720   -2.6570 C   0  0  0  0  0  0  0  0  0  0  0  0
    1.1240   15.4040   -0.7030 C   0  0  0  0  0  0  0  0  0  0  0  0
    0.9560   10.1740   -0.9430 C   0  0  1  0  0  0  0  0  0  0  0  0
    2.2690    9.7780   -0.2010 C   0  0  0  0  0  0  0  0  0  0  0  0
    0.6740    9.0290   -1.9870 C   0  0  0  0  0  0  0  0  0  0  0  0
   -0.7940    8.8140   -2.4020 C   0  0  0  0  0  0  0  0  0  0  0  0
   -1.7030    8.7230   -1.1730 C   0  0  2  0  0  0  0  0  0  0  0  0
   -1.2650    7.4670   -0.3450 C   0  0  0  0  0  0  0  0  0  0  0  0
   -3.3853    6.1734   -3.7179 H   0  0  0  0  0  0  0  0  0  0  0  0
   -4.7436    7.3447   -3.8169 H   0  0  0  0  0  0  0  0  0  0  0  0
   -3.0470    7.9348   -3.8169 H   0  0  0  0  0  0  0  0  0  0  0  0
   -3.1264    6.4606   -1.4961 H   0  0  0  0  0  0  0  0  0  0  0  0
   -5.2633    6.0071   -0.9786 H   0  0  0  0  0  0  0  0  0  0  0  0
   -5.3186    7.7733   -0.5092 H   0  0  0  0  0  0  0  0  0  0  0  0
   -6.0506    8.2098   -2.9196 H   0  0  0  0  0  0  0  0  0  0  0  0
   -6.3712    6.4270   -3.0001 H   0  0  0  0  0  0  0  0  0  0  0  0
   -7.3480    8.5245   -1.3743 H   0  0  0  0  0  0  0  0  0  0  0  0
   -8.9929    5.0132   -3.1679 H   0  0  0  0  0  0  0  0  0  0  0  0
   -9.8408    6.3387   -4.0343 H   0  0  0  0  0  0  0  0  0  0  0  0
   -8.0458    6.2698   -4.0343 H   0  0  0  0  0  0  0  0  0  0  0  0
  -10.2713    7.5705   -0.6849 H   0  0  0  0  0  0  0  0  0  0  0  0
  -10.2649    8.5667   -2.1796 H   0  0  0  0  0  0  0  0  0  0  0  0
  -11.0527    6.9524   -2.1796 H   0  0  0  0  0  0  0  0  0  0  0  0
   -3.4977    9.2258   -2.3156 H   0  0  0  0  0  0  0  0  0  0  0  0
   -4.6998    9.7565   -0.2890 H   0  0  0  0  0  0  0  0  0  0  0  0
   -4.2103    8.2368    0.4909 H   0  0  0  0  0  0  0  0  0  0  0  0
   -3.1125   10.8159    1.0431 H   0  0  0  0  0  0  0  0  0  0  0  0
   -2.3668    9.2983    1.5376 H   0  0  0  0  0  0  0  0  0  0  0  0
   -2.4015   12.1282   -0.5126 H   0  0  0  0  0  0  0  0  0  0  0  0
   -1.2735   11.6887   -1.8397 H   0  0  0  0  0  0  0  0  0  0  0  0
   -2.9525   11.0503   -1.8397 H   0  0  0  0  0  0  0  0  0  0  0  0
   -0.0564    9.3999    0.8163 H   0  0  0  0  0  0  0  0  0  0  0  0
   -0.9215   11.7039    1.5805 H   0  0  0  0  0  0  0  0  0  0  0  0
    0.8568   11.2544    1.7372 H   0  0  0  0  0  0  0  0  0  0  0  0
    0.3410   13.7003    0.9038 H   0  0  0  0  0  0  0  0  0  0  0  0
    0.3759   11.5056   -2.4854 H   0  0  0  0  0  0  0  0  0  0  0  0
    3.3321   11.6300   -1.6225 H   0  0  0  0  0  0  0  0  0  0  0  0
    2.6543   10.7755   -3.0788 H   0  0  0  0  0  0  0  0  0  0  0  0
    3.7253   12.9250   -3.6703 H   0  0  0  0  0  0  0  0  0  0  0  0
    1.9552   12.8947   -4.0343 H   0  0  0  0  0  0  0  0  0  0  0  0
    2.5063   15.0182   -3.0597 H   0  0  0  0  0  0  0  0  0  0  0  0
    4.4040   14.3460   -1.9320 H   0  0  0  0  0  0  0  0  0  0  0  0
   -0.9464   14.5423   -2.1176 H   0  0  0  0  0  0  0  0  0  0  0  0
    0.2207   15.2443   -3.2887 H   0  0  0  0  0  0  0  0  0  0  0  0
   -0.0983   13.4765   -3.2887 H   0  0  0  0  0  0  0  0  0  0  0  0
    1.1294   15.0721    0.3457 H   0  0  0  0  0  0  0  0  0  0  0  0
    2.0123   16.0234   -0.8961 H   0  0  0  0  0  0  0  0  0  0  0  0
    0.2162   15.9945   -0.8961 H   0  0  0  0  0  0  0  0  0  0  0  0
    2.1053    9.8274    0.8856 H   0  0  0  0  0  0  0  0  0  0  0  0
    2.5547    8.7537   -0.4826 H   0  0  0  0  0  0  0  0  0  0  0  0
    3.0733   10.4735   -0.4826 H   0  0  0  0  0  0  0  0  0  0  0  0
    1.2468    9.2600   -2.8972 H   0  0  0  0  0  0  0  0  0  0  0  0
    0.9694    8.0983   -1.4805 H   0  0  0  0  0  0  0  0  0  0  0  0
   -1.1184    9.6584   -3.0279 H   0  0  0  0  0  0  0  0  0  0  0  0
   -0.8656    7.8700   -2.9621 H   0  0  0  0  0  0  0  0  0  0  0  0
   -1.3430    7.6906    0.7292 H   0  0  0  0  0  0  0  0  0  0  0  0
   -1.9203    6.6186   -0.5915 H   0  0  0  0  0  0  0  0  0  0  0  0
   -0.2242    7.2101   -0.5915 H   0  0  0  0  0  0  0  0  0  0  0  0
  1  2  1  0
  2  3  1  0
  3  4  1  0
  4  5  1  0
  5  6  1  0
  6  7  1  0
  7  8  1  0
  7  9  1  0
  2 10  1  0
 10 11  1  0
 11 12  1  0
 12 13  1  0
 13 14  1  6
 13 15  1  0
 15 16  1  0
 16 17  1  0
 17 18  2  0
 18 19  1  0
 19 20  1  0
 20 21  1  0
 21 22  1  0
 22 23  1  0
 22 24  1  0
 24 25  1  0
 24 26  1  0
 19 27  1  0
 27 28  1  1
 27 29  1  0
 29 30  1  0
 30 31  1  0
 31 32  1  1
  7  5  1  0
 31 10  1  0
 31 13  1  0
 27 15  1  0
 24 18  1  0
  1 33  1  0
  1 34  1  0
  1 35  1  0
  2 36  1  1
  3 37  1  0
  3 38  1  0
  4 39  1  0
  4 40  1  0
  5 41  1  1
  8 42  1  0
  8 43  1  0
  8 44  1  0
  9 45  1  0
  9 46  1  0
  9 47  1  0
 10 48  1  6
 11 49  1  0
 11 50  1  0
 12 51  1  0
 12 52  1  0
 14 53  1  0
 14 54  1  0
 14 55  1  0
 15 56  1  1
 16 57  1  0
 16 58  1  0
 17 59  1  0
 19 60  1  6
 20 61  1  0
 20 62  1  0
 21 63  1  0
 21 64  1  0
 22 65  1  6
 23 66  1  0
 25 67  1  0
 25 68  1  0
 25 69  1  0
 26 70  1  0
 26 71  1  0
 26 72  1  0
 28 73  1  0
 28 74  1  0
 28 75  1  0
 29 76  1  0
 29 77  1  0
 30 78  1  0
 30 79  1  0
 32 80  1  0
 32 81  1  0
 32 82  1  0
M  END
>  <meeko>  (11) 
{"is_sidechain": [false], "intermolecular_energy": 2.731, "internal_energy": -0.839}

$$$$
EPH_relaxed_0001_pdb2pqr_Repair_218_r2_0001_out
     RDKit          3D

 82 86  0  0  0  0  0  0  0  0999 V2000
   -2.3810    7.8060   -2.3020 C   0  0  0  0  0  0  0  0  0  0  0  0
   -2.2810    8.3760   -0.8840 C   0  0  2  0  0  0  0  0  0  0  0  0
   -3.6320    8.3290   -0.1430 C   0  0  0  0  0  0  0  0  0  0  0  0
   -4.8460    8.4470   -1.0680 C   0  0  0  0  0  0  0  0  0  0  0  0
   -5.6120    7.1610   -1.1440 C   0  0  2  0  0  0  0  0  0  0  0  0
   -5.7710    6.6360   -2.4680 O   0  0  0  0  0  0  0  0  0  0  0  0
   -6.9760    7.0370   -1.7960 C   0  0  0  0  0  0  0  0  0  0  0  0
   -7.6550    8.2180   -2.4160 C   0  0  0  0  0  0  0  0  0  0  0  0
   -7.8560    5.8920   -1.4020 C   0  0  0  0  0  0  0  0  0  0  0  0
   -1.7640    9.8090   -0.9350 C   0  0  1  0  0  0  0  0  0  0  0  0
   -1.3680   10.3510    0.4640 C   0  0  0  0  0  0  0  0  0  0  0  0
   -0.1480   11.2840    0.2530 C   0  0  0  0  0  0  0  0  0  0  0  0
   -0.0890   11.5100   -1.2760 C   0  0  1  0  0  0  0  0  0  0  0  0
   -1.1470   12.6220   -1.5590 C   0  0  0  0  0  0  0  0  0  0  0  0
    1.3100   11.8810   -1.8660 C   0  0  2  0  0  0  0  0  0  0  0  0
    1.9020   13.2070   -1.3570 C   0  0  0  0  0  0  0  0  0  0  0  0
    1.5540   14.4130   -2.1640 C   0  0  0  0  0  0  0  0  0  0  0  0
    1.0370   14.4000   -3.4070 C   0  0  0  0  0  0  0  0  0  0  0  0
    0.8420   13.0810   -4.1650 C   0  0  1  0  0  0  0  0  0  0  0  0
    1.3760   13.2320   -5.6140 C   0  0  0  0  0  0  0  0  0  0  0  0
    0.7580   14.4210   -6.3430 C   0  0  0  0  0  0  0  0  0  0  0  0
    1.0230   15.7210   -5.5890 C   0  0  2  0  0  0  0  0  0  0  0  0
    2.4260   15.9980   -5.6260 O   0  0  0  0  0  0  0  0  0  0  0  0
    0.5360   15.6840   -4.1140 C   0  0  0  0  0  0  0  0  0  0  0  0
   -1.0120   15.6870   -4.0760 C   0  0  0  0  0  0  0  0  0  0  0  0
    0.9900   17.0010   -3.4280 C   0  0  0  0  0  0  0  0  0  0  0  0
    1.3970   11.7780   -3.4430 C   0  0  1  0  0  0  0  0  0  0  0  0
    2.9030   11.5760   -3.7940 C   0  0  0  0  0  0  0  0  0  0  0  0
    0.6380   10.5170   -4.0030 C   0  0  0  0  0  0  0  0  0  0  0  0
   -0.6780   10.1300   -3.3010 C   0  0  0  0  0  0  0  0  0  0  0  0
   -0.4940   10.0770   -1.7810 C   0  0  2  0  0  0  0  0  0  0  0  0
    0.5490    8.9520   -1.4650 C   0  0  0  0  0  0  0  0  0  0  0  0
   -2.5709    6.7238   -2.2496 H   0  0  0  0  0  0  0  0  0  0  0  0
   -3.2066    8.2976   -2.8374 H   0  0  0  0  0  0  0  0  0  0  0  0
   -1.4373    7.9872   -2.8374 H   0  0  0  0  0  0  0  0  0  0  0  0
   -1.5749    7.7461   -0.3230 H   0  0  0  0  0  0  0  0  0  0  0  0
   -3.6987    7.3731    0.3972 H   0  0  0  0  0  0  0  0  0  0  0  0
   -3.6579    9.1961    0.5333 H   0  0  0  0  0  0  0  0  0  0  0  0
   -5.5105    9.2357   -0.6853 H   0  0  0  0  0  0  0  0  0  0  0  0
   -4.4851    8.6914   -2.0780 H   0  0  0  0  0  0  0  0  0  0  0  0
   -5.2345    6.8509   -0.1584 H   0  0  0  0  0  0  0  0  0  0  0  0
   -8.0355    8.8798   -1.6240 H   0  0  0  0  0  0  0  0  0  0  0  0
   -6.9356    8.7688   -3.0399 H   0  0  0  0  0  0  0  0  0  0  0  0
   -8.4929    7.8734   -3.0399 H   0  0  0  0  0  0  0  0  0  0  0  0
   -7.9052    5.8280   -0.3050 H   0  0  0  0  0  0  0  0  0  0  0  0
   -8.8669    6.0506   -1.8057 H   0  0  0  0  0  0  0  0  0  0  0  0
   -7.4426    4.9560   -1.8057 H   0  0  0  0  0  0  0  0  0  0  0  0
   -2.6330   10.3026   -1.3945 H   0  0  0  0  0  0  0  0  0  0  0  0
   -2.2046   10.9147    0.9026 H   0  0  0  0  0  0  0  0  0  0  0  0
   -1.1219    9.5282    1.1513 H   0  0  0  0  0  0  0  0  0  0  0  0
   -0.2928   12.2380    0.7812 H   0  0  0  0  0  0  0  0  0  0  0  0
    0.7826   10.8490    0.6465 H   0  0  0  0  0  0  0  0  0  0  0  0
   -1.5252   13.0195   -0.6056 H   0  0  0  0  0  0  0  0  0  0  0  0
   -0.6801   13.4342   -2.1354 H   0  0  0  0  0  0  0  0  0  0  0  0
   -1.9814   12.1960   -2.1354 H   0  0  0  0  0  0  0  0  0  0  0  0
    1.9550   11.0889   -1.4579 H   0  0  0  0  0  0  0  0  0  0  0  0
    1.5401   13.3689   -0.3309 H   0  0  0  0  0  0  0  0  0  0  0  0
    2.9944   13.0990   -1.4276 H   0  0  0  0  0  0  0  0  0  0  0  0
    1.7352   15.3958   -1.7044 H   0  0  0  0  0  0  0  0  0  0  0  0
   -0.2427   12.8990   -4.1842 H   0  0  0  0  0  0  0  0  0  0  0  0
    2.4667   13.3698   -5.5755 H   0  0  0  0  0  0  0  0  0  0  0  0
    1.1028   12.3216   -6.1676 H   0  0  0  0  0  0  0  0  0  0  0  0
    1.1956   14.4931   -7.3496 H   0  0  0  0  0  0  0  0  0  0  0  0
   -0.3294   14.2673   -6.4063 H   0  0  0  0  0  0  0  0  0  0  0  0
    0.4485   16.5148   -6.0887 H   0  0  0  0  0  0  0  0  0  0  0  0
    2.5920   16.7570   -5.0410 H   0  0  0  0  0  0  0  0  0  0  0  0
   -1.3531   15.6877   -3.0302 H   0  0  0  0  0  0  0  0  0  0  0  0
   -1.3895   16.5859   -4.5854 H   0  0  0  0  0  0  0  0  0  0  0  0
   -1.3930   14.7896   -4.5854 H   0  0  0  0  0  0  0  0  0  0  0  0
    0.9479   16.8788   -2.3356 H   0  0  0  0  0  0  0  0  0  0  0  0
    2.0210   17.2359   -3.7312 H   0  0  0  0  0  0  0  0  0  0  0  0
    0.3228   17.8213   -3.7312 H   0  0  0  0  0  0  0  0  0  0  0  0
    3.4884   11.4975   -2.8660 H   0  0  0  0  0  0  0  0  0  0  0  0
    3.0220   10.6538   -4.3818 H   0  0  0  0  0  0  0  0  0  0  0  0
    3.2608   12.4342   -4.3818 H   0  0  0  0  0  0  0  0  0  0  0  0
    0.4065   10.7105   -5.0608 H   0  0  0  0  0  0  0  0  0  0  0  0
    1.3178    9.6702   -3.8274 H   0  0  0  0  0  0  0  0  0  0  0  0
   -1.4486   10.8763   -3.5443 H   0  0  0  0  0  0  0  0  0  0  0  0
   -0.9828    9.1331   -3.6523 H   0  0  0  0  0  0  0  0  0  0  0  0
    0.6509    8.8421   -0.3753 H   0  0  0  0  0  0  0  0  0  0  0  0
    0.2057    8.0013   -1.8989 H   0  0  0  0  0  0  0  0  0  0  0  0
    1.5229    9.2226   -1.8989 H   0  0  0  0  0  0  0  0  0  0  0  0
  1  2  1  0
  2  3  1  0
  3  4  1  0
  4  5  1  0
  5  6  1  0
  6  7  1  0
  7  8  1  0
  7  9  1  0
  2 10  1  0
 10 11  1  0
 11 12  1  0
 12 13  1  0
 13 14  1  1
 13 15  1  0
 15 16  1  0
 16 17  1  0
 17 18  2  0
 18 19  1  0
 19 20  1  0
 20 21  1  0
 21 22  1  0
 22 23  1  0
 22 24  1  0
 24 25  1  0
 24 26  1  0
 19 27  1  0
 27 28  1  1
 27 29  1  0
 29 30  1  0
 30 31  1  0
 31 32  1  6
  7  5  1  0
 31 10  1  0
 31 13  1  0
 27 15  1  0
 24 18  1  0
  1 33  1  0
  1 34  1  0
  1 35  1  0
  2 36  1  1
  3 37  1  0
  3 38  1  0
  4 39  1  0
  4 40  1  0
  5 41  1  1
  8 42  1  0
  8 43  1  0
  8 44  1  0
  9 45  1  0
  9 46  1  0
  9 47  1  0
 10 48  1  6
 11 49  1  0
 11 50  1  0
 12 51  1  0
 12 52  1  0
 14 53  1  0
 14 54  1  0
 14 55  1  0
 15 56  1  1
 16 57  1  0
 16 58  1  0
 17 59  1  0
 19 60  1  6
 20 61  1  0
 20 62  1  0
 21 63  1  0
 21 64  1  0
 22 65  1  6
 23 66  1  0
 25 67  1  0
 25 68  1  0
 25 69  1  0
 26 70  1  0
 26 71  1  0
 26 72  1  0
 28 73  1  0
 28 74  1  0
 28 75  1  0
 29 76  1  0
 29 77  1  0
 30 78  1  0
 30 79  1  0
 32 80  1  0
 32 81  1  0
 32 82  1  0
M  END
>  <meeko>  (12) 
{"is_sidechain": [false], "intermolecular_energy": 2.731, "internal_energy": -0.839}

$$$$
EPH_relaxed_0001_pdb2pqr_Repair_218_r2_0001_out
     RDKit          3D

 82 86  0  0  0  0  0  0  0  0999 V2000
    3.9650   17.4100    0.2710 C   0  0  0  0  0  0  0  0  0  0  0  0
    3.1310   17.1410   -0.9850 C   0  0  2  0  0  0  0  0  0  0  0  0
    2.4760   18.4250   -1.5330 C   0  0  0  0  0  0  0  0  0  0  0  0
    1.6220   19.1680   -0.5030 C   0  0  0  0  0  0  0  0  0  0  0  0
    0.5230   19.9510   -1.1550 C   0  0  2  0  0  0  0  0  0  0  0  0
   -0.7890   19.6810   -0.6440 O   0  0  0  0  0  0  0  0  0  0  0  0
   -0.5570   19.3200   -2.0150 C   0  0  0  0  0  0  0  0  0  0  0  0
   -0.5890   17.8460   -2.2700 C   0  0  0  0  0  0  0  0  0  0  0  0
   -1.2850   20.1830   -2.9970 C   0  0  0  0  0  0  0  0  0  0  0  0
    2.0610   16.0980   -0.6850 C   0  0  1  0  0  0  0  0  0  0  0  0
    0.6620   16.7270   -0.4530 C   0  0  0  0  0  0  0  0  0  0  0  0
   -0.3770   15.7310   -1.0290 C   0  0  0  0  0  0  0  0  0  0  0  0
    0.4220   14.4290   -1.2690 C   0  0  1  0  0  0  0  0  0  0  0  0
    0.4940   13.7390    0.1300 C   0  0  0  0  0  0  0  0  0  0  0  0
   -0.1430   13.4630   -2.3600 C   0  0  2  0  0  0  0  0  0  0  0  0
   -1.5420   12.8920   -2.0660 C   0  0  0  0  0  0  0  0  0  0  0  0
   -1.5590   11.6020   -1.3150 C   0  0  0  0  0  0  0  0  0  0  0  0
   -0.5040   10.7840   -1.1420 C   0  0  0  0  0  0  0  0  0  0  0  0
    0.8420   11.0810   -1.8130 C   0  0  1  0  0  0  0  0  0  0  0  0
    1.3900    9.7870   -2.4710 C   0  0  0  0  0  0  0  0  0  0  0  0
    1.4720    8.6220   -1.4890 C   0  0  0  0  0  0  0  0  0  0  0  0
    0.1030    8.3190   -0.8860 C   0  0  2  0  0  0  0  0  0  0  0  0
   -0.7570    7.8270   -1.9190 O   0  0  0  0  0  0  0  0  0  0  0  0
   -0.5520    9.5520   -0.2040 C   0  0  0  0  0  0  0  0  0  0  0  0
    0.2180    9.9000    1.0940 C   0  0  0  0  0  0  0  0  0  0  0  0
   -1.9850    9.1490    0.2370 C   0  0  0  0  0  0  0  0  0  0  0  0
    0.8640   12.3250   -2.8030 C   0  0  1  0  0  0  0  0  0  0  0  0
    0.4280   11.8760   -4.2310 C   0  0  0  0  0  0  0  0  0  0  0  0
    2.3410   12.8520   -2.9350 C   0  0  0  0  0  0  0  0  0  0  0  0
    2.8020   13.8940   -1.8980 C   0  0  0  0  0  0  0  0  0  0  0  0
    1.7840   15.0310   -1.7740 C   0  0  2  0  0  0  0  0  0  0  0  0
    1.7060   15.7580   -3.1600 C   0  0  0  0  0  0  0  0  0  0  0  0
    3.3552   17.2133    1.1651 H   0  0  0  0  0  0  0  0  0  0  0  0
    4.8451   16.7502    0.2750 H   0  0  0  0  0  0  0  0  0  0  0  0
    4.2937   18.4597    0.2750 H   0  0  0  0  0  0  0  0  0  0  0  0
    3.8131   16.7615   -1.7601 H   0  0  0  0  0  0  0  0  0  0  0  0
    3.2723   19.1015   -1.8768 H   0  0  0  0  0  0  0  0  0  0  0  0
    1.8034   18.1200   -2.3482 H   0  0  0  0  0  0  0  0  0  0  0  0
    1.1771   18.4352    0.1863 H   0  0  0  0  0  0  0  0  0  0  0  0
    2.2717   19.8729    0.0364 H   0  0  0  0  0  0  0  0  0  0  0  0
    1.1983   20.8025   -1.3250 H   0  0  0  0  0  0  0  0  0  0  0  0
   -0.6007   17.3081   -1.3106 H   0  0  0  0  0  0  0  0  0  0  0  0
   -1.4929   17.5926   -2.8434 H   0  0  0  0  0  0  0  0  0  0  0  0
    0.3030   17.5536   -2.8434 H   0  0  0  0  0  0  0  0  0  0  0  0
   -1.9022   20.9147   -2.4551 H   0  0  0  0  0  0  0  0  0  0  0  0
   -0.5575   20.7135   -3.6289 H   0  0  0  0  0  0  0  0  0  0  0  0
   -1.9305   19.5552   -3.6289 H   0  0  0  0  0  0  0  0  0  0  0  0
    2.5082   15.6240    0.2012 H   0  0  0  0  0  0  0  0  0  0  0  0
    0.4875   16.8765    0.6227 H   0  0  0  0  0  0  0  0  0  0  0  0
    0.5835   17.7080   -0.9444 H   0  0  0  0  0  0  0  0  0  0  0  0
   -1.1912   15.5599   -0.3095 H   0  0  0  0  0  0  0  0  0  0  0  0
   -0.8491   16.1063   -1.9490 H   0  0  0  0  0  0  0  0  0  0  0  0
    0.4145   14.5011    0.9192 H   0  0  0  0  0  0  0  0  0  0  0  0
   -0.3342   13.0217    0.2281 H   0  0  0  0  0  0  0  0  0  0  0  0
    1.4524   13.2081    0.2281 H   0  0  0  0  0  0  0  0  0  0  0  0
   -0.2691   14.1321   -3.2239 H   0  0  0  0  0  0  0  0  0  0  0  0
   -2.0958   13.6366   -1.4753 H   0  0  0  0  0  0  0  0  0  0  0  0
   -1.9963   12.6802   -3.0452 H   0  0  0  0  0  0  0  0  0  0  0  0
   -2.5143   11.2938   -0.8650 H   0  0  0  0  0  0  0  0  0  0  0  0
    1.5176   11.4053   -1.0078 H   0  0  0  0  0  0  0  0  0  0  0  0
    0.7246    9.5036   -3.2998 H   0  0  0  0  0  0  0  0  0  0  0  0
    2.4098    9.9981   -2.8252 H   0  0  0  0  0  0  0  0  0  0  0  0
    1.8374    7.7299   -2.0186 H   0  0  0  0  0  0  0  0  0  0  0  0
    2.1606    8.8960   -0.6762 H   0  0  0  0  0  0  0  0  0  0  0  0
    0.2488    7.5654   -0.0981 H   0  0  0  0  0  0  0  0  0  0  0  0
   -1.0290    8.5870   -2.4620 H   0  0  0  0  0  0  0  0  0  0  0  0
   -0.3917    9.6244    1.9671 H   0  0  0  0  0  0  0  0  0  0  0  0
    1.1662    9.3429    1.1184 H   0  0  0  0  0  0  0  0  0  0  0  0
    0.4264   10.9798    1.1184 H   0  0  0  0  0  0  0  0  0  0  0  0
   -2.0398    9.1336    1.3355 H   0  0  0  0  0  0  0  0  0  0  0  0
   -2.7084    9.8786   -0.1560 H   0  0  0  0  0  0  0  0  0  0  0  0
   -2.2221    8.1493   -0.1560 H   0  0  0  0  0  0  0  0  0  0  0  0
   -0.3363   11.0890   -4.1505 H   0  0  0  0  0  0  0  0  0  0  0  0
    0.0120   12.7368   -4.7750 H   0  0  0  0  0  0  0  0  0  0  0  0
    1.3007   11.4854   -4.7750 H   0  0  0  0  0  0  0  0  0  0  0  0
    3.0123   11.9842   -2.8558 H   0  0  0  0  0  0  0  0  0  0  0  0
    2.3749   13.3743   -3.9025 H   0  0  0  0  0  0  0  0  0  0  0  0
    2.9142   13.4032   -0.9200 H   0  0  0  0  0  0  0  0  0  0  0  0
    3.7620   14.3171   -2.2287 H   0  0  0  0  0  0  0  0  0  0  0  0
    1.5899   16.8402   -3.0004 H   0  0  0  0  0  0  0  0  0  0  0  0
    2.6297   15.5679   -3.7263 H   0  0  0  0  0  0  0  0  0  0  0  0
    0.8437   15.3763   -3.7263 H   0  0  0  0  0  0  0  0  0  0  0  0
  1  2  1  0
  2  3  1  0
  3  4  1  0
  4  5  1  0
  5  6  1  0
  6  7  1  0
  7  8  1  0
  7  9  1  0
  2 10  1  0
 10 11  1  0
 11 12  1  0
 12 13  1  0
 13 14  1  1
 13 15  1  0
 15 16  1  0
 16 17  1  0
 17 18  2  0
 18 19  1  0
 19 20  1  0
 20 21  1  0
 21 22  1  0
 22 23  1  0
 22 24  1  0
 24 25  1  0
 24 26  1  0
 19 27  1  0
 27 28  1  6
 27 29  1  0
 29 30  1  0
 30 31  1  0
 31 32  1  6
  7  5  1  0
 31 10  1  0
 31 13  1  0
 27 15  1  0
 24 18  1  0
  1 33  1  0
  1 34  1  0
  1 35  1  0
  2 36  1  6
  3 37  1  0
  3 38  1  0
  4 39  1  0
  4 40  1  0
  5 41  1  6
  8 42  1  0
  8 43  1  0
  8 44  1  0
  9 45  1  0
  9 46  1  0
  9 47  1  0
 10 48  1  1
 11 49  1  0
 11 50  1  0
 12 51  1  0
 12 52  1  0
 14 53  1  0
 14 54  1  0
 14 55  1  0
 15 56  1  6
 16 57  1  0
 16 58  1  0
 17 59  1  0
 19 60  1  1
 20 61  1  0
 20 62  1  0
 21 63  1  0
 21 64  1  0
 22 65  1  1
 23 66  1  0
 25 67  1  0
 25 68  1  0
 25 69  1  0
 26 70  1  0
 26 71  1  0
 26 72  1  0
 28 73  1  0
 28 74  1  0
 28 75  1  0
 29 76  1  0
 29 77  1  0
 30 78  1  0
 30 79  1  0
 32 80  1  0
 32 81  1  0
 32 82  1  0
M  END
>  <meeko>  (13) 
{"is_sidechain": [false], "intermolecular_energy": 2.731, "internal_energy": -0.839}

$$$$
EPH_relaxed_0001_pdb2pqr_Repair_218_r2_0001_out
     RDKit          3D

 82 86  0  0  0  0  0  0  0  0999 V2000
    0.1530    9.4070   -2.5990 C   0  0  0  0  0  0  0  0  0  0  0  0
    1.2570   10.4170   -2.9270 C   0  0  2  0  0  0  0  0  0  0  0  0
    2.6580    9.7750   -2.9010 C   0  0  0  0  0  0  0  0  0  0  0  0
    3.6310   10.3800   -3.9170 C   0  0  0  0  0  0  0  0  0  0  0  0
    4.9990   10.5630   -3.3330 C   0  0  2  0  0  0  0  0  0  0  0  0
    5.5740   11.8580   -3.5490 O   0  0  0  0  0  0  0  0  0  0  0  0
    6.2490   10.7540   -4.1730 C   0  0  0  0  0  0  0  0  0  0  0  0
    6.1890   10.7700   -5.6680 C   0  0  0  0  0  0  0  0  0  0  0  0
    7.5770   10.4360   -3.5620 C   0  0  0  0  0  0  0  0  0  0  0  0
    1.2010   11.5840   -1.9490 C   0  0  1  0  0  0  0  0  0  0  0  0
    2.1980   11.4250   -0.7700 C   0  0  0  0  0  0  0  0  0  0  0  0
    2.7040   12.8470   -0.4170 C   0  0  0  0  0  0  0  0  0  0  0  0
    1.7440   13.8000   -1.1670 C   0  0  1  0  0  0  0  0  0  0  0  0
    0.4760   13.8880   -0.2610 C   0  0  0  0  0  0  0  0  0  0  0  0
    2.3070   15.2170   -1.5120 C   0  0  2  0  0  0  0  0  0  0  0  0
    2.6810   16.0840   -0.2970 C   0  0  0  0  0  0  0  0  0  0  0  0
    1.5870   16.9540    0.2270 C   0  0  0  0  0  0  0  0  0  0  0  0
    0.4460   17.2530   -0.4220 C   0  0  0  0  0  0  0  0  0  0  0  0
    0.2100   16.7750   -1.8610 C   0  0  1  0  0  0  0  0  0  0  0  0
   -0.3290   17.9510   -2.7160 C   0  0  0  0  0  0  0  0  0  0  0  0
   -1.5690   18.5980   -2.1050 C   0  0  0  0  0  0  0  0  0  0  0  0
   -1.2780   19.1130   -0.6980 C   0  0  2  0  0  0  0  0  0  0  0  0
   -0.3460   20.1940   -0.7860 O   0  0  0  0  0  0  0  0  0  0  0  0
   -0.7200   18.0170    0.2520 C   0  0  0  0  0  0  0  0  0  0  0  0
   -1.8380   16.9990    0.5880 C   0  0  0  0  0  0  0  0  0  0  0  0
   -0.3370   18.6980    1.5940 C   0  0  0  0  0  0  0  0  0  0  0  0
    1.4310   16.0270   -2.5520 C   0  0  1  0  0  0  0  0  0  0  0  0
    2.3820   17.0670   -3.2200 C   0  0  0  0  0  0  0  0  0  0  0  0
    0.8850   15.1150   -3.7130 C   0  0  0  0  0  0  0  0  0  0  0  0
    0.4560   13.6850   -3.3300 C   0  0  0  0  0  0  0  0  0  0  0  0
    1.5410   12.9920   -2.5000 C   0  0  2  0  0  0  0  0  0  0  0  0
    2.8210   12.8690   -3.3940 C   0  0  0  0  0  0  0  0  0  0  0  0
    0.0526    9.3151   -1.5075 H   0  0  0  0  0  0  0  0  0  0  0  0
   -0.7994    9.7530   -3.0270 H   0  0  0  0  0  0  0  0  0  0  0  0
    0.4131    8.4276   -3.0270 H   0  0  0  0  0  0  0  0  0  0  0  0
    1.0794   10.7803   -3.9500 H   0  0  0  0  0  0  0  0  0  0  0  0
    3.0814    9.9058   -1.8942 H   0  0  0  0  0  0  0  0  0  0  0  0
    2.5313    8.7156   -3.1685 H   0  0  0  0  0  0  0  0  0  0  0  0
    3.7012    9.7096   -4.7863 H   0  0  0  0  0  0  0  0  0  0  0  0
    3.2487   11.3685   -4.2115 H   0  0  0  0  0  0  0  0  0  0  0  0
    4.7633    9.8770   -2.5060 H   0  0  0  0  0  0  0  0  0  0  0  0
    5.1731   11.0409   -5.9913 H   0  0  0  0  0  0  0  0  0  0  0  0
    6.9063   11.5082   -6.0559 H   0  0  0  0  0  0  0  0  0  0  0  0
    6.4435    9.7726   -6.0559 H   0  0  0  0  0  0  0  0  0  0  0  0
    7.4906   10.4567   -2.4656 H   0  0  0  0  0  0  0  0  0  0  0  0
    7.8993    9.4353   -3.8856 H   0  0  0  0  0  0  0  0  0  0  0  0
    8.3176   11.1822   -3.8856 H   0  0  0  0  0  0  0  0  0  0  0  0
    0.1386   11.5365   -1.6677 H   0  0  0  0  0  0  0  0  0  0  0  0
    1.6906   10.9774    0.0973 H   0  0  0  0  0  0  0  0  0  0  0  0
    3.0341   10.7656   -1.0461 H   0  0  0  0  0  0  0  0  0  0  0  0
    2.6527   13.0192    0.6682 H   0  0  0  0  0  0  0  0  0  0  0  0
    3.7541   12.9999   -0.7065 H   0  0  0  0  0  0  0  0  0  0  0  0
    0.7787   13.8670    0.7963 H   0  0  0  0  0  0  0  0  0  0  0  0
   -0.0599   14.8255   -0.4704 H   0  0  0  0  0  0  0  0  0  0  0  0
   -0.1843   13.0335   -0.4704 H   0  0  0  0  0  0  0  0  0  0  0  0
    3.2570   14.9779   -2.0124 H   0  0  0  0  0  0  0  0  0  0  0  0
    2.9995   15.4128    0.5142 H   0  0  0  0  0  0  0  0  0  0  0  0
    3.4727   16.7654   -0.6418 H   0  0  0  0  0  0  0  0  0  0  0  0
    1.7248   17.3876    1.2285 H   0  0  0  0  0  0  0  0  0  0  0  0
   -0.5496   15.9820   -1.7971 H   0  0  0  0  0  0  0  0  0  0  0  0
    0.4593   18.7131   -2.8043 H   0  0  0  0  0  0  0  0  0  0  0  0
   -0.6130   17.5468   -3.6988 H   0  0  0  0  0  0  0  0  0  0  0  0
   -1.8850   19.4400   -2.7384 H   0  0  0  0  0  0  0  0  0  0  0  0
   -2.3659   17.8422   -2.0445 H   0  0  0  0  0  0  0  0  0  0  0  0
   -2.2325   19.4467   -0.2650 H   0  0  0  0  0  0  0  0  0  0  0  0
    0.3020   19.9680   -1.4750 H   0  0  0  0  0  0  0  0  0  0  0  0
   -1.9363   16.9095    1.6799 H   0  0  0  0  0  0  0  0  0  0  0  0
   -2.7905   17.3464    0.1613 H   0  0  0  0  0  0  0  0  0  0  0  0
   -1.5811   16.0182    0.1613 H   0  0  0  0  0  0  0  0  0  0  0  0
   -0.6859   18.0776    2.4327 H   0  0  0  0  0  0  0  0  0  0  0  0
    0.7559   18.8091    1.6500 H   0  0  0  0  0  0  0  0  0  0  0  0
   -0.8097   19.6897    1.6500 H   0  0  0  0  0  0  0  0  0  0  0  0
    2.9054   17.6393   -2.4399 H   0  0  0  0  0  0  0  0  0  0  0  0
    3.1185   16.5415   -3.8456 H   0  0  0  0  0  0  0  0  0  0  0  0
    1.7929   17.7537   -3.8456 H   0  0  0  0  0  0  0  0  0  0  0  0
    0.0101   15.6194   -4.1490 H   0  0  0  0  0  0  0  0  0  0  0  0
    1.7334   14.9864   -4.4013 H   0  0  0  0  0  0  0  0  0  0  0  0
   -0.4720   13.7330   -2.7413 H   0  0  0  0  0  0  0  0  0  0  0  0
    0.2968   13.1072   -4.2524 H   0  0  0  0  0  0  0  0  0  0  0  0
    3.7100   12.7836   -2.7518 H   0  0  0  0  0  0  0  0  0  0  0  0
    2.7401   11.9745   -4.0291 H   0  0  0  0  0  0  0  0  0  0  0  0
    2.9119   13.7625   -4.0291 H   0  0  0  0  0  0  0  0  0  0  0  0
  1  2  1  0
  2  3  1  0
  3  4  1  0
  4  5  1  0
  5  6  1  0
  6  7  1  0
  7  8  1  0
  7  9  1  0
  2 10  1  0
 10 11  1  0
 11 12  1  0
 12 13  1  0
 13 14  1  1
 13 15  1  0
 15 16  1  0
 16 17  1  0
 17 18  2  0
 18 19  1  0
 19 20  1  0
 20 21  1  0
 21 22  1  0
 22 23  1  0
 22 24  1  0
 24 25  1  0
 24 26  1  0
 19 27  1  0
 27 28  1  6
 27 29  1  0
 29 30  1  0
 30 31  1  0
 31 32  1  6
  7  5  1  0
 31 10  1  0
 31 13  1  0
 27 15  1  0
 24 18  1  0
  1 33  1  0
  1 34  1  0
  1 35  1  0
  2 36  1  6
  3 37  1  0
  3 38  1  0
  4 39  1  0
  4 40  1  0
  5 41  1  1
  8 42  1  0
  8 43  1  0
  8 44  1  0
  9 45  1  0
  9 46  1  0
  9 47  1  0
 10 48  1  1
 11 49  1  0
 11 50  1  0
 12 51  1  0
 12 52  1  0
 14 53  1  0
 14 54  1  0
 14 55  1  0
 15 56  1  6
 16 57  1  0
 16 58  1  0
 17 59  1  0
 19 60  1  1
 20 61  1  0
 20 62  1  0
 21 63  1  0
 21 64  1  0
 22 65  1  1
 23 66  1  0
 25 67  1  0
 25 68  1  0
 25 69  1  0
 26 70  1  0
 26 71  1  0
 26 72  1  0
 28 73  1  0
 28 74  1  0
 28 75  1  0
 29 76  1  0
 29 77  1  0
 30 78  1  0
 30 79  1  0
 32 80  1  0
 32 81  1  0
 32 82  1  0
M  END
>  <meeko>  (14) 
{"is_sidechain": [false], "intermolecular_energy": 2.731, "internal_energy": -0.839}

$$$$
EPH_relaxed_0001_pdb2pqr_Repair_218_r2_0001_out
     RDKit          3D

 82 86  0  0  0  0  0  0  0  0999 V2000
   -1.7480   14.8050    0.4420 C   0  0  0  0  0  0  0  0  0  0  0  0
   -0.4010   15.5090    0.2580 C   0  0  2  0  0  0  0  0  0  0  0  0
   -0.4360   16.5390   -0.8890 C   0  0  0  0  0  0  0  0  0  0  0  0
   -0.0540   17.9570   -0.4540 C   0  0  0  0  0  0  0  0  0  0  0  0
    1.3720   18.0330   -0.0010 C   0  0  2  0  0  0  0  0  0  0  0  0
    2.0360   19.2640   -0.3160 O   0  0  0  0  0  0  0  0  0  0  0  0
    2.5520   18.0850   -0.9540 C   0  0  0  0  0  0  0  0  0  0  0  0
    2.3570   18.0620   -2.4380 C   0  0  0  0  0  0  0  0  0  0  0  0
    3.8980   17.6660   -0.4510 C   0  0  0  0  0  0  0  0  0  0  0  0
    0.6920   14.4790   -0.0010 C   0  0  1  0  0  0  0  0  0  0  0  0
    0.8240   13.4460    1.1500 C   0  0  0  0  0  0  0  0  0  0  0  0
    1.2040   12.0930    0.4960 C   0  0  0  0  0  0  0  0  0  0  0  0
    1.6000   12.4580   -0.9540 C   0  0  1  0  0  0  0  0  0  0  0  0
    3.0730   12.9650   -0.8510 C   0  0  0  0  0  0  0  0  0  0  0  0
    1.4540   11.3210   -2.0170 C   0  0  2  0  0  0  0  0  0  0  0  0
    2.3400   10.0860   -1.7790 C   0  0  0  0  0  0  0  0  0  0  0  0
    3.6850   10.1320   -2.4240 C   0  0  0  0  0  0  0  0  0  0  0  0
    4.0580   10.9880   -3.3940 C   0  0  0  0  0  0  0  0  0  0  0  0
    3.0520   11.9700   -4.0090 C   0  0  1  0  0  0  0  0  0  0  0  0
    3.1780   11.9410   -5.5540 C   0  0  0  0  0  0  0  0  0  0  0  0
    4.6060   12.1950   -6.0300 C   0  0  0  0  0  0  0  0  0  0  0  0
    5.5670   11.1630   -5.4440 C   0  0  2  0  0  0  0  0  0  0  0  0
    5.2550    9.8790   -5.9920 O   0  0  0  0  0  0  0  0  0  0  0  0
    5.5210   11.0950   -3.8920 C   0  0  0  0  0  0  0  0  0  0  0  0
    6.1440   12.3810   -3.2950 C   0  0  0  0  0  0  0  0  0  0  0  0
    6.4300    9.9210   -3.4390 C   0  0  0  0  0  0  0  0  0  0  0  0
    1.5480   11.8200   -3.5160 C   0  0  1  0  0  0  0  0  0  0  0  0
    0.8070   10.7600   -4.3860 C   0  0  0  0  0  0  0  0  0  0  0  0
    0.7960   13.1850   -3.7410 C   0  0  0  0  0  0  0  0  0  0  0  0
    0.8790   14.2200   -2.6040 C   0  0  0  0  0  0  0  0  0  0  0  0
    0.5410   13.5800   -1.2540 C   0  0  2  0  0  0  0  0  0  0  0  0
   -0.9430   13.0810   -1.3190 C   0  0  0  0  0  0  0  0  0  0  0  0
   -1.9601   14.6941    1.5156 H   0  0  0  0  0  0  0  0  0  0  0  0
   -2.5419   15.4035   -0.0287 H   0  0  0  0  0  0  0  0  0  0  0  0
   -1.7098   13.8115   -0.0287 H   0  0  0  0  0  0  0  0  0  0  0  0
   -0.1840   16.0565    1.1870 H   0  0  0  0  0  0  0  0  0  0  0  0
    0.2674   16.2137   -1.6696 H   0  0  0  0  0  0  0  0  0  0  0  0
   -1.4738   16.5821   -1.2512 H   0  0  0  0  0  0  0  0  0  0  0  0
   -0.1948   18.6407   -1.3042 H   0  0  0  0  0  0  0  0  0  0  0  0
   -0.6977   18.2412    0.3915 H   0  0  0  0  0  0  0  0  0  0  0  0
    1.1536   17.3960    0.8688 H   0  0  0  0  0  0  0  0  0  0  0  0
    1.2882   17.9359   -2.6655 H   0  0  0  0  0  0  0  0  0  0  0  0
    2.7146   19.0085   -2.8695 H   0  0  0  0  0  0  0  0  0  0  0  0
    2.9250   17.2246   -2.8695 H   0  0  0  0  0  0  0  0  0  0  0  0
    3.8950   17.6669    0.6490 H   0  0  0  0  0  0  0  0  0  0  0  0
    4.1272   16.6540   -0.8162 H   0  0  0  0  0  0  0  0  0  0  0  0
    4.6611   18.3691   -0.8162 H   0  0  0  0  0  0  0  0  0  0  0  0
    1.5536   15.1520   -0.1224 H   0  0  0  0  0  0  0  0  0  0  0  0
    1.6094   13.7606    1.8530 H   0  0  0  0  0  0  0  0  0  0  0  0
   -0.1165   13.3614    1.7142 H   0  0  0  0  0  0  0  0  0  0  0  0
    2.0502   11.6302    1.0248 H   0  0  0  0  0  0  0  0  0  0  0  0
    0.3795   11.3658    0.5327 H   0  0  0  0  0  0  0  0  0  0  0  0
    3.3542   13.0618    0.2080 H   0  0  0  0  0  0  0  0  0  0  0  0
    3.7436   12.2460   -1.3442 H   0  0  0  0  0  0  0  0  0  0  0  0
    3.1590   13.9445   -1.3442 H   0  0  0  0  0  0  0  0  0  0  0  0
    0.4202   10.9807   -1.8574 H   0  0  0  0  0  0  0  0  0  0  0  0
    2.4869    9.9771   -0.6943 H   0  0  0  0  0  0  0  0  0  0  0  0
    1.8107    9.2387   -2.2394 H   0  0  0  0  0  0  0  0  0  0  0  0
    4.4348    9.4054   -2.0778 H   0  0  0  0  0  0  0  0  0  0  0  0
    3.3285   12.9655   -3.6314 H   0  0  0  0  0  0  0  0  0  0  0  0
    2.8563   10.9531   -5.9155 H   0  0  0  0  0  0  0  0  0  0  0  0
    2.5442   12.7453   -5.9557 H   0  0  0  0  0  0  0  0  0  0  0  0
    4.6362   12.1328   -7.1278 H   0  0  0  0  0  0  0  0  0  0  0  0
    4.9162   13.1952   -5.6934 H   0  0  0  0  0  0  0  0  0  0  0  0
    6.5877   11.4720   -5.7137 H   0  0  0  0  0  0  0  0  0  0  0  0
    4.7440   10.0230   -6.8070 H   0  0  0  0  0  0  0  0  0  0  0  0
    6.1172   12.3257   -2.1967 H   0  0  0  0  0  0  0  0  0  0  0  0
    7.1869   12.4738   -3.6321 H   0  0  0  0  0  0  0  0  0  0  0  0
    5.5704   13.2570   -3.6321 H   0  0  0  0  0  0  0  0  0  0  0  0
    6.4594    9.8830   -2.3401 H   0  0  0  0  0  0  0  0  0  0  0  0
    6.0272    8.9742   -3.8280 H   0  0  0  0  0  0  0  0  0  0  0  0
    7.4475   10.0739   -3.8280 H   0  0  0  0  0  0  0  0  0  0  0  0
    0.3010   10.0362   -3.7301 H   0  0  0  0  0  0  0  0  0  0  0  0
    0.0624   11.2624   -5.0209 H   0  0  0  0  0  0  0  0  0  0  0  0
    1.5346   10.2333   -5.0209 H   0  0  0  0  0  0  0  0  0  0  0  0
    1.2147   13.6503   -4.6455 H   0  0  0  0  0  0  0  0  0  0  0  0
   -0.2690   12.9185   -3.8099 H   0  0  0  0  0  0  0  0  0  0  0  0
    1.8995   14.6285   -2.5631 H   0  0  0  0  0  0  0  0  0  0  0  0
    0.1515   15.0204   -2.8046 H   0  0  0  0  0  0  0  0  0  0  0  0
   -1.3310   12.9505   -0.2980 H   0  0  0  0  0  0  0  0  0  0  0  0
   -1.5561   13.8224   -1.8523 H   0  0  0  0  0  0  0  0  0  0  0  0
   -0.9836   12.1198   -1.8523 H   0  0  0  0  0  0  0  0  0  0  0  0
  1  2  1  0
  2  3  1  0
  3  4  1  0
  4  5  1  0
  5  6  1  0
  6  7  1  0
  7  8  1  0
  7  9  1  0
  2 10  1  0
 10 11  1  0
 11 12  1  0
 12 13  1  0
 13 14  1  1
 13 15  1  0
 15 16  1  0
 16 17  1  0
 17 18  2  0
 18 19  1  0
 19 20  1  0
 20 21  1  0
 21 22  1  0
 22 23  1  0
 22 24  1  0
 24 25  1  0
 24 26  1  0
 19 27  1  0
 27 28  1  6
 27 29  1  0
 29 30  1  0
 30 31  1  0
 31 32  1  6
  7  5  1  0
 31 10  1  0
 31 13  1  0
 27 15  1  0
 24 18  1  0
  1 33  1  0
  1 34  1  0
  1 35  1  0
  2 36  1  1
  3 37  1  0
  3 38  1  0
  4 39  1  0
  4 40  1  0
  5 41  1  1
  8 42  1  0
  8 43  1  0
  8 44  1  0
  9 45  1  0
  9 46  1  0
  9 47  1  0
 10 48  1  6
 11 49  1  0
 11 50  1  0
 12 51  1  0
 12 52  1  0
 14 53  1  0
 14 54  1  0
 14 55  1  0
 15 56  1  6
 16 57  1  0
 16 58  1  0
 17 59  1  0
 19 60  1  1
 20 61  1  0
 20 62  1  0
 21 63  1  0
 21 64  1  0
 22 65  1  1
 23 66  1  0
 25 67  1  0
 25 68  1  0
 25 69  1  0
 26 70  1  0
 26 71  1  0
 26 72  1  0
 28 73  1  0
 28 74  1  0
 28 75  1  0
 29 76  1  0
 29 77  1  0
 30 78  1  0
 30 79  1  0
 32 80  1  0
 32 81  1  0
 32 82  1  0
M  END
>  <meeko>  (15) 
{"is_sidechain": [false], "intermolecular_energy": 2.731, "internal_energy": -0.839}

$$$$
EPH_relaxed_0001_pdb2pqr_Repair_218_r2_0001_out
     RDKit          3D

 82 86  0  0  0  0  0  0  0  0999 V2000
    0.9660   14.9070   -2.6420 C   0  0  0  0  0  0  0  0  0  0  0  0
    1.2080   14.2350   -3.9970 C   0  0  2  0  0  0  0  0  0  0  0  0
    0.4870   14.9670   -5.1460 C   0  0  0  0  0  0  0  0  0  0  0  0
    1.0200   14.6080   -6.5350 C   0  0  0  0  0  0  0  0  0  0  0  0
    0.8050   15.7210   -7.5160 C   0  0  2  0  0  0  0  0  0  0  0  0
    0.3750   15.2990   -8.8160 O   0  0  0  0  0  0  0  0  0  0  0  0
    1.6640   15.9280   -8.7490 C   0  0  0  0  0  0  0  0  0  0  0  0
    2.8050   15.0130   -9.0670 C   0  0  0  0  0  0  0  0  0  0  0  0
    1.7050   17.2880   -9.3730 C   0  0  0  0  0  0  0  0  0  0  0  0
    0.7580   12.7790   -3.9430 C   0  0  1  0  0  0  0  0  0  0  0  0
    1.8890   11.7890   -4.3270 C   0  0  0  0  0  0  0  0  0  0  0  0
    1.6920   10.5230   -3.4540 C   0  0  0  0  0  0  0  0  0  0  0  0
    0.2800   10.6860   -2.8450 C   0  0  1  0  0  0  0  0  0  0  0  0
   -0.6980   10.2180   -3.9680 C   0  0  0  0  0  0  0  0  0  0  0  0
    0.0160    9.9340   -1.5000 C   0  0  2  0  0  0  0  0  0  0  0  0
    0.1210    8.4010   -1.5780 C   0  0  0  0  0  0  0  0  0  0  0  0
   -1.1520    7.6900   -1.8990 C   0  0  0  0  0  0  0  0  0  0  0  0
   -2.3840    8.2270   -1.8370 C   0  0  0  0  0  0  0  0  0  0  0  0
   -2.5970    9.6540   -1.3150 C   0  0  1  0  0  0  0  0  0  0  0  0
   -3.7750    9.6660   -0.3060 C   0  0  0  0  0  0  0  0  0  0  0  0
   -5.0490    9.0620   -0.8870 C   0  0  0  0  0  0  0  0  0  0  0  0
   -4.8130    7.6240   -1.3410 C   0  0  2  0  0  0  0  0  0  0  0  0
   -4.5530    6.8140   -0.1910 O   0  0  0  0  0  0  0  0  0  0  0  0
   -3.6420    7.4860   -2.3540 C   0  0  0  0  0  0  0  0  0  0  0  0
   -4.0510    8.1090   -3.7110 C   0  0  0  0  0  0  0  0  0  0  0  0
   -3.4180    5.9730   -2.6210 C   0  0  0  0  0  0  0  0  0  0  0  0
   -1.3030   10.3860   -0.7520 C   0  0  1  0  0  0  0  0  0  0  0  0
   -1.1050   10.0320    0.7540 C   0  0  0  0  0  0  0  0  0  0  0  0
   -1.5240   11.9430   -0.8170 C   0  0  0  0  0  0  0  0  0  0  0  0
   -1.1340   12.6460   -2.1310 C   0  0  0  0  0  0  0  0  0  0  0  0
    0.2730   12.2350   -2.5750 C   0  0  2  0  0  0  0  0  0  0  0  0
    1.2810   12.7130   -1.4750 C   0  0  0  0  0  0  0  0  0  0  0  0
    1.2189   14.2047   -1.8340 H   0  0  0  0  0  0  0  0  0  0  0  0
    1.5977   15.8038   -2.5594 H   0  0  0  0  0  0  0  0  0  0  0  0
   -0.0924   15.1951   -2.5594 H   0  0  0  0  0  0  0  0  0  0  0  0
    2.2877   14.2833   -4.2017 H   0  0  0  0  0  0  0  0  0  0  0  0
   -0.5813   14.7079   -5.1064 H   0  0  0  0  0  0  0  0  0  0  0  0
    0.6637   16.0432   -5.0023 H   0  0  0  0  0  0  0  0  0  0  0  0
    2.0979   14.4014   -6.4608 H   0  0  0  0  0  0  0  0  0  0  0  0
    0.4730   13.7238   -6.8942 H   0  0  0  0  0  0  0  0  0  0  0  0
    0.4952   16.4022   -6.7098 H   0  0  0  0  0  0  0  0  0  0  0  0
    3.2564   14.6510   -8.1315 H   0  0  0  0  0  0  0  0  0  0  0  0
    2.4367   14.1571   -9.6516 H   0  0  0  0  0  0  0  0  0  0  0  0
    3.5605   15.5584   -9.6516 H   0  0  0  0  0  0  0  0  0  0  0  0
    1.7281   18.0533   -8.5832 H   0  0  0  0  0  0  0  0  0  0  0  0
    2.6063   17.3780   -9.9972 H   0  0  0  0  0  0  0  0  0  0  0  0
    0.8108   17.4321   -9.9972 H   0  0  0  0  0  0  0  0  0  0  0  0
   -0.0824   12.8195   -4.6515 H   0  0  0  0  0  0  0  0  0  0  0  0
    1.8182   11.5284   -5.3933 H   0  0  0  0  0  0  0  0  0  0  0  0
    2.8795   12.2359   -4.1561 H   0  0  0  0  0  0  0  0  0  0  0  0
    1.7465    9.6136   -4.0705 H   0  0  0  0  0  0  0  0  0  0  0  0
    2.4701   10.4223   -2.6830 H   0  0  0  0  0  0  0  0  0  0  0  0
   -1.6007    9.7860   -3.5115 H   0  0  0  0  0  0  0  0  0  0  0  0
   -0.9789   11.0793   -4.5920 H   0  0  0  0  0  0  0  0  0  0  0  0
   -0.2035    9.4589   -4.5920 H   0  0  0  0  0  0  0  0  0  0  0  0
    0.8626   10.2600   -0.8780 H   0  0  0  0  0  0  0  0  0  0  0  0
    0.8562    8.1499   -2.3567 H   0  0  0  0  0  0  0  0  0  0  0  0
    0.4122    8.0644   -0.5721 H   0  0  0  0  0  0  0  0  0  0  0  0
   -1.0762    6.6384   -2.2127 H   0  0  0  0  0  0  0  0  0  0  0  0
   -2.8526   10.2646   -2.1935 H   0  0  0  0  0  0  0  0  0  0  0  0
   -3.4838    9.0870    0.5828 H   0  0  0  0  0  0  0  0  0  0  0  0
   -3.9879   10.7153   -0.0539 H   0  0  0  0  0  0  0  0  0  0  0  0
   -5.8355    9.0723   -0.1180 H   0  0  0  0  0  0  0  0  0  0  0  0
   -5.3552    9.6595   -1.7583 H   0  0  0  0  0  0  0  0  0  0  0  0
   -5.7211    7.2899   -1.8643 H   0  0  0  0  0  0  0  0  0  0  0  0
   -5.3470    6.2800   -0.0210 H   0  0  0  0  0  0  0  0  0  0  0  0
   -4.6467    9.0164   -3.5332 H   0  0  0  0  0  0  0  0  0  0  0  0
   -3.1476    8.3695   -4.2820 H   0  0  0  0  0  0  0  0  0  0  0  0
   -4.6492    7.3837   -4.2820 H   0  0  0  0  0  0  0  0  0  0  0  0
   -3.3390    5.4393   -1.6624 H   0  0  0  0  0  0  0  0  0  0  0  0
   -4.2666    5.5724   -3.1949 H   0  0  0  0  0  0  0  0  0  0  0  0
   -2.4897    5.8354   -3.1949 H   0  0  0  0  0  0  0  0  0  0  0  0
   -1.5473   10.8228    1.3778 H   0  0  0  0  0  0  0  0  0  0  0  0
   -1.5979    9.0734    0.9732 H   0  0  0  0  0  0  0  0  0  0  0  0
   -0.0302    9.9502    0.9732 H   0  0  0  0  0  0  0  0  0  0  0  0
   -2.5928   12.1349   -0.6415 H   0  0  0  0  0  0  0  0  0  0  0  0
   -0.8492   12.3614   -0.0557 H   0  0  0  0  0  0  0  0  0  0  0  0
   -1.8542   12.3690   -2.9150 H   0  0  0  0  0  0  0  0  0  0  0  0
   -1.1460   13.7333   -1.9645 H   0  0  0  0  0  0  0  0  0  0  0  0
    0.8590   12.5129   -0.4791 H   0  0  0  0  0  0  0  0  0  0  0  0
    2.2307   12.1693   -1.5868 H   0  0  0  0  0  0  0  0  0  0  0  0
    1.4610   13.7924   -1.5868 H   0  0  0  0  0  0  0  0  0  0  0  0
  1  2  1  0
  2  3  1  0
  3  4  1  0
  4  5  1  0
  5  6  1  0
  6  7  1  0
  7  8  1  0
  7  9  1  0
  2 10  1  0
 10 11  1  0
 11 12  1  0
 12 13  1  0
 13 14  1  6
 13 15  1  0
 15 16  1  0
 16 17  1  0
 17 18  2  0
 18 19  1  0
 19 20  1  0
 20 21  1  0
 21 22  1  0
 22 23  1  0
 22 24  1  0
 24 25  1  0
 24 26  1  0
 19 27  1  0
 27 28  1  1
 27 29  1  0
 29 30  1  0
 30 31  1  0
 31 32  1  1
  7  5  1  0
 31 10  1  0
 31 13  1  0
 27 15  1  0
 24 18  1  0
  1 33  1  0
  1 34  1  0
  1 35  1  0
  2 36  1  6
  3 37  1  0
  3 38  1  0
  4 39  1  0
  4 40  1  0
  5 41  1  1
  8 42  1  0
  8 43  1  0
  8 44  1  0
  9 45  1  0
  9 46  1  0
  9 47  1  0
 10 48  1  6
 11 49  1  0
 11 50  1  0
 12 51  1  0
 12 52  1  0
 14 53  1  0
 14 54  1  0
 14 55  1  0
 15 56  1  1
 16 57  1  0
 16 58  1  0
 17 59  1  0
 19 60  1  6
 20 61  1  0
 20 62  1  0
 21 63  1  0
 21 64  1  0
 22 65  1  6
 23 66  1  0
 25 67  1  0
 25 68  1  0
 25 69  1  0
 26 70  1  0
 26 71  1  0
 26 72  1  0
 28 73  1  0
 28 74  1  0
 28 75  1  0
 29 76  1  0
 29 77  1  0
 30 78  1  0
 30 79  1  0
 32 80  1  0
 32 81  1  0
 32 82  1  0
M  END
>  <meeko>  (16) 
{"is_sidechain": [false], "intermolecular_energy": 2.731, "internal_energy": -0.839}

$$$$
EPH_relaxed_0001_pdb2pqr_Repair_218_r2_0001_out
     RDKit          3D

 82 86  0  0  0  0  0  0  0  0999 V2000
    2.6510   16.1310   -7.4710 C   0  0  0  0  0  0  0  0  0  0  0  0
    1.4270   15.2230   -7.3180 C   0  0  2  0  0  0  0  0  0  0  0  0
    0.2120   15.7490   -8.1070 C   0  0  0  0  0  0  0  0  0  0  0  0
    0.5850   16.4570   -9.4120 C   0  0  0  0  0  0  0  0  0  0  0  0
    1.9590   16.0770   -9.8760 C   0  0  2  0  0  0  0  0  0  0  0  0
    2.3060   16.5620  -11.1800 O   0  0  0  0  0  0  0  0  0  0  0  0
    2.2190   15.1350  -11.0370 C   0  0  0  0  0  0  0  0  0  0  0  0
    1.0940   14.5150  -11.8060 C   0  0  0  0  0  0  0  0  0  0  0  0
    3.5420   14.4390  -11.1120 C   0  0  0  0  0  0  0  0  0  0  0  0
    1.0680   15.0800   -5.8430 C   0  0  1  0  0  0  0  0  0  0  0  0
   -0.2230   15.8530   -5.4650 C   0  0  0  0  0  0  0  0  0  0  0  0
   -0.9460   15.0120   -4.3810 C   0  0  0  0  0  0  0  0  0  0  0  0
    0.1020   13.9670   -3.9350 C   0  0  1  0  0  0  0  0  0  0  0  0
    1.0150   14.7230   -2.9190 C   0  0  0  0  0  0  0  0  0  0  0  0
   -0.4600   12.6400   -3.3280 C   0  0  2  0  0  0  0  0  0  0  0  0
   -1.2710   12.8070   -2.0310 C   0  0  0  0  0  0  0  0  0  0  0  0
   -0.4790   12.7190   -0.7690 C   0  0  0  0  0  0  0  0  0  0  0  0
    0.7720   12.2340   -0.6620 C   0  0  0  0  0  0  0  0  0  0  0  0
    1.4840   11.6170   -1.8730 C   0  0  1  0  0  0  0  0  0  0  0  0
    2.1450   10.2770   -1.4580 C   0  0  0  0  0  0  0  0  0  0  0  0
    3.0700   10.4290   -0.2540 C   0  0  0  0  0  0  0  0  0  0  0  0
    2.3130   10.9900    0.9470 C   0  0  2  0  0  0  0  0  0  0  0  0
    1.3530   10.0210    1.3810 O   0  0  0  0  0  0  0  0  0  0  0  0
    1.5960   12.3360    0.6450 C   0  0  0  0  0  0  0  0  0  0  0  0
    2.6480   13.4590    0.4700 C   0  0  0  0  0  0  0  0  0  0  0  0
    0.7560   12.7200    1.8930 C   0  0  0  0  0  0  0  0  0  0  0  0
    0.6120   11.4830   -3.1950 C   0  0  1  0  0  0  0  0  0  0  0  0
   -0.1820   10.1410   -3.1760 C   0  0  0  0  0  0  0  0  0  0  0  0
    1.5730   11.4120   -4.4400 C   0  0  0  0  0  0  0  0  0  0  0  0
    1.9980   12.7530   -5.0680 C   0  0  0  0  0  0  0  0  0  0  0  0
    0.7820   13.6510   -5.3170 C   0  0  2  0  0  0  0  0  0  0  0  0
   -0.1440   12.9260   -6.3520 C   0  0  0  0  0  0  0  0  0  0  0  0
    3.0272   16.4101   -6.4757 H   0  0  0  0  0  0  0  0  0  0  0  0
    3.4375   15.5962   -8.0236 H   0  0  0  0  0  0  0  0  0  0  0  0
    2.3673   17.0388   -8.0236 H   0  0  0  0  0  0  0  0  0  0  0  0
    1.6900   14.2393   -7.7342 H   0  0  0  0  0  0  0  0  0  0  0  0
   -0.4405   14.8970   -8.3484 H   0  0  0  0  0  0  0  0  0  0  0  0
   -0.2877   16.4930   -7.4692 H   0  0  0  0  0  0  0  0  0  0  0  0
   -0.1429   16.1797  -10.1887 H   0  0  0  0  0  0  0  0  0  0  0  0
    0.5726   17.5416   -9.2293 H   0  0  0  0  0  0  0  0  0  0  0  0
    2.3394   16.0990   -8.8441 H   0  0  0  0  0  0  0  0  0  0  0  0
    0.3519   14.1060  -11.1045 H   0  0  0  0  0  0  0  0  0  0  0  0
    0.6182   15.2783  -12.4393 H   0  0  0  0  0  0  0  0  0  0  0  0
    1.4852   13.7051  -12.4393 H   0  0  0  0  0  0  0  0  0  0  0  0
    3.9121   14.2443  -10.0946 H   0  0  0  0  0  0  0  0  0  0  0  0
    3.4249   13.4857  -11.6483 H   0  0  0  0  0  0  0  0  0  0  0  0
    4.2613   15.0755  -11.6483 H   0  0  0  0  0  0  0  0  0  0  0  0
    1.9909   15.4702   -5.3891 H   0  0  0  0  0  0  0  0  0  0  0  0
    0.0328   16.8458   -5.0663 H   0  0  0  0  0  0  0  0  0  0  0  0
   -0.8667   16.0014   -6.3446 H   0  0  0  0  0  0  0  0  0  0  0  0
   -1.2468   15.6462   -3.5341 H   0  0  0  0  0  0  0  0  0  0  0  0
   -1.8662   14.5441   -4.7609 H   0  0  0  0  0  0  0  0  0  0  0  0
    0.7096   14.4701   -1.8930 H   0  0  0  0  0  0  0  0  0  0  0  0
    2.0622   14.4240   -3.0741 H   0  0  0  0  0  0  0  0  0  0  0  0
    0.9165   15.8076   -3.0741 H   0  0  0  0  0  0  0  0  0  0  0  0
   -1.1830   12.3191   -4.0924 H   0  0  0  0  0  0  0  0  0  0  0  0
   -1.7578   13.7930   -2.0589 H   0  0  0  0  0  0  0  0  0  0  0  0
   -1.9802   11.9666   -2.0048 H   0  0  0  0  0  0  0  0  0  0  0  0
   -0.9586   13.0814    0.1522 H   0  0  0  0  0  0  0  0  0  0  0  0
    2.2589   12.3388   -2.1704 H   0  0  0  0  0  0  0  0  0  0  0  0
    1.3531    9.5565   -1.2055 H   0  0  0  0  0  0  0  0  0  0  0  0
    2.7541    9.9287   -2.3052 H   0  0  0  0  0  0  0  0  0  0  0  0
    3.4837    9.4443    0.0090 H   0  0  0  0  0  0  0  0  0  0  0  0
    3.8781   11.1272   -0.5175 H   0  0  0  0  0  0  0  0  0  0  0  0
    3.0521   11.1977    1.7348 H   0  0  0  0  0  0  0  0  0  0  0  0
    1.8110    9.1660    1.4530 H   0  0  0  0  0  0  0  0  0  0  0  0
    2.9772   13.8104    1.4590 H   0  0  0  0  0  0  0  0  0  0  0  0
    3.5125   13.0681   -0.0867 H   0  0  0  0  0  0  0  0  0  0  0  0
    2.2015   14.2961   -0.0867 H   0  0  0  0  0  0  0  0  0  0  0  0
    1.3158   12.4641    2.8047 H   0  0  0  0  0  0  0  0  0  0  0  0
    0.5520   13.8008    1.8793 H   0  0  0  0  0  0  0  0  0  0  0  0
   -0.1949   12.1671    1.8793 H   0  0  0  0  0  0  0  0  0  0  0  0
   -0.3623    9.8363   -2.1345 H   0  0  0  0  0  0  0  0  0  0  0  0
   -1.1449   10.2774   -3.6900 H   0  0  0  0  0  0  0  0  0  0  0  0
    0.4011    9.3627   -3.6900 H   0  0  0  0  0  0  0  0  0  0  0  0
    2.4873   10.8877   -4.1250 H   0  0  0  0  0  0  0  0  0  0  0  0
    0.9932   10.8995   -5.2218 H   0  0  0  0  0  0  0  0  0  0  0  0
    2.6910   13.2666   -4.3854 H   0  0  0  0  0  0  0  0  0  0  0  0
    2.4875   12.5497   -6.0319 H   0  0  0  0  0  0  0  0  0  0  0  0
   -0.9002   12.3339   -5.8157 H   0  0  0  0  0  0  0  0  0  0  0  0
   -0.6447   13.6747   -6.9835 H   0  0  0  0  0  0  0  0  0  0  0  0
    0.4627   12.2603   -6.9835 H   0  0  0  0  0  0  0  0  0  0  0  0
  1  2  1  0
  2  3  1  0
  3  4  1  0
  4  5  1  0
  5  6  1  0
  6  7  1  0
  7  8  1  0
  7  9  1  0
  2 10  1  0
 10 11  1  0
 11 12  1  0
 12 13  1  0
 13 14  1  1
 13 15  1  0
 15 16  1  0
 16 17  1  0
 17 18  2  0
 18 19  1  0
 19 20  1  0
 20 21  1  0
 21 22  1  0
 22 23  1  0
 22 24  1  0
 24 25  1  0
 24 26  1  0
 19 27  1  0
 27 28  1  1
 27 29  1  0
 29 30  1  0
 30 31  1  0
 31 32  1  6
  7  5  1  0
 31 10  1  0
 31 13  1  0
 27 15  1  0
 24 18  1  0
  1 33  1  0
  1 34  1  0
  1 35  1  0
  2 36  1  6
  3 37  1  0
  3 38  1  0
  4 39  1  0
  4 40  1  0
  5 41  1  1
  8 42  1  0
  8 43  1  0
  8 44  1  0
  9 45  1  0
  9 46  1  0
  9 47  1  0
 10 48  1  1
 11 49  1  0
 11 50  1  0
 12 51  1  0
 12 52  1  0
 14 53  1  0
 14 54  1  0
 14 55  1  0
 15 56  1  6
 16 57  1  0
 16 58  1  0
 17 59  1  0
 19 60  1  6
 20 61  1  0
 20 62  1  0
 21 63  1  0
 21 64  1  0
 22 65  1  1
 23 66  1  0
 25 67  1  0
 25 68  1  0
 25 69  1  0
 26 70  1  0
 26 71  1  0
 26 72  1  0
 28 73  1  0
 28 74  1  0
 28 75  1  0
 29 76  1  0
 29 77  1  0
 30 78  1  0
 30 79  1  0
 32 80  1  0
 32 81  1  0
 32 82  1  0
M  END
>  <meeko>  (17) 
{"is_sidechain": [false], "intermolecular_energy": 2.731, "internal_energy": -0.839}

$$$$
EPH_relaxed_0001_pdb2pqr_Repair_218_r2_0001_out
     RDKit          3D

 82 86  0  0  0  0  0  0  0  0999 V2000
   -2.4280    7.8010   -0.0300 C   0  0  0  0  0  0  0  0  0  0  0  0
   -3.0900    9.1810   -0.0790 C   0  0  2  0  0  0  0  0  0  0  0  0
   -4.5660    9.1020   -0.5180 C   0  0  0  0  0  0  0  0  0  0  0  0
   -5.1130    7.6730   -0.5810 C   0  0  0  0  0  0  0  0  0  0  0  0
   -5.8730    7.4270   -1.8500 C   0  0  2  0  0  0  0  0  0  0  0  0
   -6.8200    8.4480   -2.1890 O   0  0  0  0  0  0  0  0  0  0  0  0
   -7.3650    7.1530   -1.8910 C   0  0  0  0  0  0  0  0  0  0  0  0
   -8.1850    7.1100   -0.6410 C   0  0  0  0  0  0  0  0  0  0  0  0
   -7.9290    6.4480   -3.0850 C   0  0  0  0  0  0  0  0  0  0  0  0
   -2.3150   10.0960   -1.0200 C   0  0  1  0  0  0  0  0  0  0  0  0
   -2.9500   11.5070   -1.1390 C   0  0  0  0  0  0  0  0  0  0  0  0
   -1.7800   12.5120   -1.3010 C   0  0  0  0  0  0  0  0  0  0  0  0
   -0.5470   11.6290   -1.6020 C   0  0  1  0  0  0  0  0  0  0  0  0
   -0.6460   11.3060   -3.1260 C   0  0  0  0  0  0  0  0  0  0  0  0
    0.8450   12.2370   -1.2310 C   0  0  2  0  0  0  0  0  0  0  0  0
    1.2190   13.5220   -1.9900 C   0  0  0  0  0  0  0  0  0  0  0  0
    1.9640   13.3150   -3.2670 C   0  0  0  0  0  0  0  0  0  0  0  0
    2.5670   12.1730   -3.6440 C   0  0  0  0  0  0  0  0  0  0  0  0
    2.6190   10.9620   -2.7030 C   0  0  1  0  0  0  0  0  0  0  0  0
    4.0580   10.3830   -2.6830 C   0  0  0  0  0  0  0  0  0  0  0  0
    4.5780   10.0590   -4.0810 C   0  0  0  0  0  0  0  0  0  0  0  0
    4.5660   11.3010   -4.9680 C   0  0  2  0  0  0  0  0  0  0  0  0
    5.5220   12.2380   -4.4640 O   0  0  0  0  0  0  0  0  0  0  0  0
    3.1690   11.9770   -5.0570 C   0  0  0  0  0  0  0  0  0  0  0  0
    2.2080   11.0790   -5.8740 C   0  0  0  0  0  0  0  0  0  0  0  0
    3.3260   13.2930   -5.8650 C   0  0  0  0  0  0  0  0  0  0  0  0
    2.0330   11.1920   -1.2440 C   0  0  1  0  0  0  0  0  0  0  0  0
    3.1420   11.7670   -0.3100 C   0  0  0  0  0  0  0  0  0  0  0  0
    1.6150    9.8020   -0.6330 C   0  0  0  0  0  0  0  0  0  0  0  0
    0.1860    9.3120   -0.9370 C   0  0  0  0  0  0  0  0  0  0  0  0
   -0.8430   10.4100   -0.6540 C   0  0  2  0  0  0  0  0  0  0  0  0
   -0.7810   10.7410    0.8770 C   0  0  0  0  0  0  0  0  0  0  0  0
   -2.2838    7.5005    1.0183 H   0  0  0  0  0  0  0  0  0  0  0  0
   -3.0721    7.0671   -0.5365 H   0  0  0  0  0  0  0  0  0  0  0  0
   -1.4525    7.8441   -0.5365 H   0  0  0  0  0  0  0  0  0  0  0  0
   -3.0707    9.5936    0.9405 H   0  0  0  0  0  0  0  0  0  0  0  0
   -5.1728    9.6750    0.1986 H   0  0  0  0  0  0  0  0  0  0  0  0
   -4.6212    9.5129   -1.5369 H   0  0  0  0  0  0  0  0  0  0  0  0
   -4.2718    6.9663   -0.5262 H   0  0  0  0  0  0  0  0  0  0  0  0
   -5.8018    7.5312    0.2649 H   0  0  0  0  0  0  0  0  0  0  0  0
   -5.0133    6.9009   -2.2906 H   0  0  0  0  0  0  0  0  0  0  0  0
   -7.5204    7.1448    0.2349 H   0  0  0  0  0  0  0  0  0  0  0  0
   -8.8659    7.9737   -0.6192 H   0  0  0  0  0  0  0  0  0  0  0  0
   -8.7718    6.1798   -0.6192 H   0  0  0  0  0  0  0  0  0  0  0  0
   -8.5839    5.6294   -2.7520 H   0  0  0  0  0  0  0  0  0  0  0  0
   -8.5101    7.1594   -3.6902 H   0  0  0  0  0  0  0  0  0  0  0  0
   -7.1074    6.0372   -3.6902 H   0  0  0  0  0  0  0  0  0  0  0  0
   -2.3536    9.4914   -1.9381 H   0  0  0  0  0  0  0  0  0  0  0  0
   -3.6120   11.5517   -2.0164 H   0  0  0  0  0  0  0  0  0  0  0  0
   -3.5544   11.7443   -0.2511 H   0  0  0  0  0  0  0  0  0  0  0  0
   -1.9748   13.2040   -2.1336 H   0  0  0  0  0  0  0  0  0  0  0  0
   -1.6384   13.1355   -0.4059 H   0  0  0  0  0  0  0  0  0  0  0  0
   -0.9660   10.2621   -3.2595 H   0  0  0  0  0  0  0  0  0  0  0  0
   -1.3796   11.9774   -3.5962 H   0  0  0  0  0  0  0  0  0  0  0  0
    0.3378   11.4510   -3.5962 H   0  0  0  0  0  0  0  0  0  0  0  0
    0.6981   12.5404   -0.1839 H   0  0  0  0  0  0  0  0  0  0  0  0
    0.2893   14.0620   -2.2227 H   0  0  0  0  0  0  0  0  0  0  0  0
    1.8986   14.0791   -1.3283 H   0  0  0  0  0  0  0  0  0  0  0  0
    2.0251   14.1685   -3.9582 H   0  0  0  0  0  0  0  0  0  0  0  0
    1.9243   10.2201   -3.1236 H   0  0  0  0  0  0  0  0  0  0  0  0
    4.7288   11.1215   -2.2196 H   0  0  0  0  0  0  0  0  0  0  0  0
    4.0322    9.4441   -2.1104 H   0  0  0  0  0  0  0  0  0  0  0  0
    5.6084    9.6817   -4.0035 H   0  0  0  0  0  0  0  0  0  0  0  0
    3.9233    9.2987   -4.5320 H   0  0  0  0  0  0  0  0  0  0  0  0
    4.8248   10.9796   -5.9877 H   0  0  0  0  0  0  0  0  0  0  0  0
    5.3990   12.2940   -3.5010 H   0  0  0  0  0  0  0  0  0  0  0  0
    1.5806   10.4927   -5.1865 H   0  0  0  0  0  0  0  0  0  0  0  0
    1.5671   11.7094   -6.5080 H   0  0  0  0  0  0  0  0  0  0  0  0
    2.7936   10.3969   -6.5080 H   0  0  0  0  0  0  0  0  0  0  0  0
    3.4270   14.1399   -5.1704 H   0  0  0  0  0  0  0  0  0  0  0  0
    4.2229   13.2294   -6.4986 H   0  0  0  0  0  0  0  0  0  0  0  0
    2.4393   13.4422   -6.4986 H   0  0  0  0  0  0  0  0  0  0  0  0
    2.8514   11.6163    0.7402 H   0  0  0  0  0  0  0  0  0  0  0  0
    4.0918   11.2478   -0.5057 H   0  0  0  0  0  0  0  0  0  0  0  0
    3.2650   12.8424   -0.5057 H   0  0  0  0  0  0  0  0  0  0  0  0
    2.3152    9.0454   -1.0169 H   0  0  0  0  0  0  0  0  0  0  0  0
    1.6447    9.9457    0.4572 H   0  0  0  0  0  0  0  0  0  0  0  0
    0.1224    9.0240   -1.9967 H   0  0  0  0  0  0  0  0  0  0  0  0
   -0.0340    8.4505   -0.2894 H   0  0  0  0  0  0  0  0  0  0  0  0
   -0.9530    9.8229    1.4579 H   0  0  0  0  0  0  0  0  0  0  0  0
    0.2095   11.1508    1.1237 H   0  0  0  0  0  0  0  0  0  0  0  0
   -1.5560   11.4816    1.1237 H   0  0  0  0  0  0  0  0  0  0  0  0
  1  2  1  0
  2  3  1  0
  3  4  1  0
  4  5  1  0
  5  6  1  0
  6  7  1  0
  7  8  1  0
  7  9  1  0
  2 10  1  0
 10 11  1  0
 11 12  1  0
 12 13  1  0
 13 14  1  6
 13 15  1  0
 15 16  1  0
 16 17  1  0
 17 18  2  0
 18 19  1  0
 19 20  1  0
 20 21  1  0
 21 22  1  0
 22 23  1  0
 22 24  1  0
 24 25  1  0
 24 26  1  0
 19 27  1  0
 27 28  1  1
 27 29  1  0
 29 30  1  0
 30 31  1  0
 31 32  1  1
  7  5  1  0
 31 10  1  0
 31 13  1  0
 27 15  1  0
 24 18  1  0
  1 33  1  0
  1 34  1  0
  1 35  1  0
  2 36  1  1
  3 37  1  0
  3 38  1  0
  4 39  1  0
  4 40  1  0
  5 41  1  6
  8 42  1  0
  8 43  1  0
  8 44  1  0
  9 45  1  0
  9 46  1  0
  9 47  1  0
 10 48  1  6
 11 49  1  0
 11 50  1  0
 12 51  1  0
 12 52  1  0
 14 53  1  0
 14 54  1  0
 14 55  1  0
 15 56  1  1
 16 57  1  0
 16 58  1  0
 17 59  1  0
 19 60  1  6
 20 61  1  0
 20 62  1  0
 21 63  1  0
 21 64  1  0
 22 65  1  6
 23 66  1  0
 25 67  1  0
 25 68  1  0
 25 69  1  0
 26 70  1  0
 26 71  1  0
 26 72  1  0
 28 73  1  0
 28 74  1  0
 28 75  1  0
 29 76  1  0
 29 77  1  0
 30 78  1  0
 30 79  1  0
 32 80  1  0
 32 81  1  0
 32 82  1  0
M  END
>  <meeko>  (18) 
{"is_sidechain": [false], "intermolecular_energy": 2.731, "internal_energy": -0.839}

$$$$
EPH_relaxed_0001_pdb2pqr_Repair_218_r2_0001_out
     RDKit          3D

 82 86  0  0  0  0  0  0  0  0999 V2000
   -0.1640    8.1940   -3.4380 C   0  0  0  0  0  0  0  0  0  0  0  0
   -0.6920    8.5550   -2.0470 C   0  0  2  0  0  0  0  0  0  0  0  0
   -2.0280    7.8520   -1.7320 C   0  0  0  0  0  0  0  0  0  0  0  0
   -2.6350    7.1190   -2.9320 C   0  0  0  0  0  0  0  0  0  0  0  0
   -4.1150    7.3370   -3.0230 C   0  0  2  0  0  0  0  0  0  0  0  0
   -4.8120    7.2460   -1.7740 O   0  0  0  0  0  0  0  0  0  0  0  0
   -5.1390    6.2490   -2.7560 C   0  0  0  0  0  0  0  0  0  0  0  0
   -4.7230    4.8620   -2.3770 C   0  0  0  0  0  0  0  0  0  0  0  0
   -6.5110    6.3990   -3.3340 C   0  0  0  0  0  0  0  0  0  0  0  0
   -0.8580   10.0650   -1.9290 C   0  0  1  0  0  0  0  0  0  0  0  0
   -2.3120   10.4820   -1.5820 C   0  0  0  0  0  0  0  0  0  0  0  0
   -2.2130   11.7310   -0.6700 C   0  0  0  0  0  0  0  0  0  0  0  0
   -0.7400   12.1880   -0.7910 C   0  0  1  0  0  0  0  0  0  0  0  0
   -0.6810   13.0000   -2.1230 C   0  0  0  0  0  0  0  0  0  0  0  0
   -0.1700   13.0080    0.4120 C   0  0  2  0  0  0  0  0  0  0  0  0
   -0.8680   14.3540    0.6730 C   0  0  0  0  0  0  0  0  0  0  0  0
   -0.2810   15.5260   -0.0410 C   0  0  0  0  0  0  0  0  0  0  0  0
    0.9290   15.5570   -0.6320 C   0  0  0  0  0  0  0  0  0  0  0  0
    1.8840   14.3610   -0.5320 C   0  0  1  0  0  0  0  0  0  0  0  0
    3.3070   14.8640   -0.1710 C   0  0  0  0  0  0  0  0  0  0  0  0
    3.8110   15.9350   -1.1340 C   0  0  0  0  0  0  0  0  0  0  0  0
    2.8640   17.1320   -1.1620 C   0  0  2  0  0  0  0  0  0  0  0  0
    2.9050   17.7820    0.1130 O   0  0  0  0  0  0  0  0  0  0  0  0
    1.3980   16.7470   -1.5050 C   0  0  0  0  0  0  0  0  0  0  0  0
    1.3060   16.3240   -2.9920 C   0  0  0  0  0  0  0  0  0  0  0  0
    0.5230   18.0210   -1.3610 C   0  0  0  0  0  0  0  0  0  0  0  0
    1.4050   13.1660    0.3990 C   0  0  1  0  0  0  0  0  0  0  0  0
    1.8370   13.4340    1.8730 C   0  0  0  0  0  0  0  0  0  0  0  0
    2.1360   11.8440   -0.0440 C   0  0  0  0  0  0  0  0  0  0  0  0
    1.4600   11.0150   -1.1540 C   0  0  0  0  0  0  0  0  0  0  0  0
   -0.0230   10.7900   -0.8440 C   0  0  2  0  0  0  0  0  0  0  0  0
   -0.1140    9.9560    0.4790 C   0  0  0  0  0  0  0  0  0  0  0  0
    0.7403    7.5757   -3.3379 H   0  0  0  0  0  0  0  0  0  0  0  0
   -0.9334    7.6320   -3.9878 H   0  0  0  0  0  0  0  0  0  0  0  0
    0.0805    9.1149   -3.9878 H   0  0  0  0  0  0  0  0  0  0  0  0
    0.0472    8.2039   -1.3119 H   0  0  0  0  0  0  0  0  0  0  0  0
   -1.8547    7.1202   -0.9292 H   0  0  0  0  0  0  0  0  0  0  0  0
   -2.7424    8.6352   -1.4383 H   0  0  0  0  0  0  0  0  0  0  0  0
   -2.1625    7.4906   -3.8532 H   0  0  0  0  0  0  0  0  0  0  0  0
   -2.4540    6.0416   -2.8036 H   0  0  0  0  0  0  0  0  0  0  0  0
   -3.9838    8.0372   -3.8611 H   0  0  0  0  0  0  0  0  0  0  0  0
   -4.6965    4.7738   -1.2809 H   0  0  0  0  0  0  0  0  0  0  0  0
   -5.4437    4.1384   -2.7858 H   0  0  0  0  0  0  0  0  0  0  0  0
   -3.7231    4.6545   -2.7858 H   0  0  0  0  0  0  0  0  0  0  0  0
   -7.2454    6.4793   -2.5190 H   0  0  0  0  0  0  0  0  0  0  0  0
   -6.5505    7.3068   -3.9539 H   0  0  0  0  0  0  0  0  0  0  0  0
   -6.7457    5.5212   -3.9539 H   0  0  0  0  0  0  0  0  0  0  0  0
   -0.5162   10.3659   -2.9303 H   0  0  0  0  0  0  0  0  0  0  0  0
   -2.8654   10.7266   -2.5006 H   0  0  0  0  0  0  0  0  0  0  0  0
   -2.8473    9.6649   -1.0762 H   0  0  0  0  0  0  0  0  0  0  0  0
   -2.8944   12.5211   -1.0185 H   0  0  0  0  0  0  0  0  0  0  0  0
   -2.4972   11.5114    0.3697 H   0  0  0  0  0  0  0  0  0  0  0  0
   -0.6030   14.0733   -1.8950 H   0  0  0  0  0  0  0  0  0  0  0  0
    0.1966   12.6844   -2.7063 H   0  0  0  0  0  0  0  0  0  0  0  0
   -1.5950   12.8145   -2.7063 H   0  0  0  0  0  0  0  0  0  0  0  0
   -0.4202   12.3706    1.2728 H   0  0  0  0  0  0  0  0  0  0  0  0
   -1.9187   14.2579    0.3619 H   0  0  0  0  0  0  0  0  0  0  0  0
   -0.7432   14.5582    1.7466 H   0  0  0  0  0  0  0  0  0  0  0  0
   -0.8880   16.4421   -0.0886 H   0  0  0  0  0  0  0  0  0  0  0  0
    1.8935   13.8957   -1.5287 H   0  0  0  0  0  0  0  0  0  0  0  0
    3.2848   15.2855    0.8448 H   0  0  0  0  0  0  0  0  0  0  0  0
    3.9916   14.0056   -0.2384 H   0  0  0  0  0  0  0  0  0  0  0  0
    4.8068   16.2712   -0.8095 H   0  0  0  0  0  0  0  0  0  0  0  0
    3.8615   15.5032   -2.1445 H   0  0  0  0  0  0  0  0  0  0  0  0
    3.2064   17.8042   -1.9625 H   0  0  0  0  0  0  0  0  0  0  0  0
    3.0420   18.7310   -0.0450 H   0  0  0  0  0  0  0  0  0  0  0  0
    1.0726   15.2508   -3.0542 H   0  0  0  0  0  0  0  0  0  0  0  0
    0.5124   16.9012   -3.4890 H   0  0  0  0  0  0  0  0  0  0  0  0
    2.2677   16.5195   -3.4890 H   0  0  0  0  0  0  0  0  0  0  0  0
    0.3708   18.2426   -0.2944 H   0  0  0  0  0  0  0  0  0  0  0  0
    1.0294   18.8701   -1.8433 H   0  0  0  0  0  0  0  0  0  0  0  0
   -0.4513   17.8531   -1.8433 H   0  0  0  0  0  0  0  0  0  0  0  0
    1.1055   12.9802    2.5578 H   0  0  0  0  0  0  0  0  0  0  0  0
    2.8286   12.9922    2.0506 H   0  0  0  0  0  0  0  0  0  0  0  0
    1.8817   14.5187    2.0506 H   0  0  0  0  0  0  0  0  0  0  0  0
    3.1391   12.1216   -0.4000 H   0  0  0  0  0  0  0  0  0  0  0  0
    2.1254   11.1971    0.8456 H   0  0  0  0  0  0  0  0  0  0  0  0
    1.5504   11.5519   -2.1098 H   0  0  0  0  0  0  0  0  0  0  0  0
    1.9583   10.0362   -1.2136 H   0  0  0  0  0  0  0  0  0  0  0  0
   -0.0403   10.6315    1.3440 H   0  0  0  0  0  0  0  0  0  0  0  0
   -1.0756    9.4229    0.5110 H   0  0  0  0  0  0  0  0  0  0  0  0
    0.7100    9.2280    0.5110 H   0  0  0  0  0  0  0  0  0  0  0  0
  1  2  1  0
  2  3  1  0
  3  4  1  0
  4  5  1  0
  5  6  1  0
  6  7  1  0
  7  8  1  0
  7  9  1  0
  2 10  1  0
 10 11  1  0
 11 12  1  0
 12 13  1  0
 13 14  1  6
 13 15  1  0
 15 16  1  0
 16 17  1  0
 17 18  2  0
 18 19  1  0
 19 20  1  0
 20 21  1  0
 21 22  1  0
 22 23  1  0
 22 24  1  0
 24 25  1  0
 24 26  1  0
 19 27  1  0
 27 28  1  1
 27 29  1  0
 29 30  1  0
 30 31  1  0
 31 32  1  1
  7  5  1  0
 31 10  1  0
 31 13  1  0
 27 15  1  0
 24 18  1  0
  1 33  1  0
  1 34  1  0
  1 35  1  0
  2 36  1  1
  3 37  1  0
  3 38  1  0
  4 39  1  0
  4 40  1  0
  5 41  1  6
  8 42  1  0
  8 43  1  0
  8 44  1  0
  9 45  1  0
  9 46  1  0
  9 47  1  0
 10 48  1  6
 11 49  1  0
 11 50  1  0
 12 51  1  0
 12 52  1  0
 14 53  1  0
 14 54  1  0
 14 55  1  0
 15 56  1  1
 16 57  1  0
 16 58  1  0
 17 59  1  0
 19 60  1  6
 20 61  1  0
 20 62  1  0
 21 63  1  0
 21 64  1  0
 22 65  1  6
 23 66  1  0
 25 67  1  0
 25 68  1  0
 25 69  1  0
 26 70  1  0
 26 71  1  0
 26 72  1  0
 28 73  1  0
 28 74  1  0
 28 75  1  0
 29 76  1  0
 29 77  1  0
 30 78  1  0
 30 79  1  0
 32 80  1  0
 32 81  1  0
 32 82  1  0
M  END
>  <meeko>  (19) 
{"is_sidechain": [false], "intermolecular_energy": 2.731, "internal_energy": -0.839}

$$$$
EPH_relaxed_0001_pdb2pqr_Repair_218_r2_0001_out
     RDKit          3D

 82 86  0  0  0  0  0  0  0  0999 V2000
    0.8600   14.7640   -4.8990 C   0  0  0  0  0  0  0  0  0  0  0  0
    0.5550   14.2370   -3.4940 C   0  0  2  0  0  0  0  0  0  0  0  0
    1.7330   14.4550   -2.5240 C   0  0  0  0  0  0  0  0  0  0  0  0
    1.4370   15.4660   -1.4130 C   0  0  0  0  0  0  0  0  0  0  0  0
    1.1360   16.8260   -1.9680 C   0  0  2  0  0  0  0  0  0  0  0  0
    2.1320   17.3420   -2.8610 O   0  0  0  0  0  0  0  0  0  0  0  0
    1.9470   18.0640   -1.6330 C   0  0  0  0  0  0  0  0  0  0  0  0
    3.1210   18.0010   -0.7070 C   0  0  0  0  0  0  0  0  0  0  0  0
    1.3100   19.4070   -1.8130 C   0  0  0  0  0  0  0  0  0  0  0  0
    0.2010   12.7560   -3.5600 C   0  0  1  0  0  0  0  0  0  0  0  0
    1.4230   11.8650   -3.9050 C   0  0  0  0  0  0  0  0  0  0  0  0
    1.2440   10.5370   -3.1250 C   0  0  0  0  0  0  0  0  0  0  0  0
   -0.2200   10.5730   -2.6260 C   0  0  1  0  0  0  0  0  0  0  0  0
   -1.0720   10.1150   -3.8510 C   0  0  0  0  0  0  0  0  0  0  0  0
   -0.5370    9.7240   -1.3520 C   0  0  2  0  0  0  0  0  0  0  0  0
   -0.3230    8.2090   -1.5080 C   0  0  0  0  0  0  0  0  0  0  0  0
   -1.5160    7.4410   -1.9730 C   0  0  0  0  0  0  0  0  0  0  0  0
   -2.7830    7.8940   -1.9820 C   0  0  0  0  0  0  0  0  0  0  0  0
   -3.1320    9.2700   -1.4000 C   0  0  1  0  0  0  0  0  0  0  0  0
   -4.3840    9.1460   -0.4920 C   0  0  0  0  0  0  0  0  0  0  0  0
   -5.5650    8.5000   -1.2100 C   0  0  0  0  0  0  0  0  0  0  0  0
   -5.1970    7.1110   -1.7240 C   0  0  2  0  0  0  0  0  0  0  0  0
   -4.9740    6.2490   -0.6040 O   0  0  0  0  0  0  0  0  0  0  0  0
   -3.9430    7.1090   -2.6420 C   0  0  0  0  0  0  0  0  0  0  0  0
   -4.2850    7.7890   -3.9910 C   0  0  0  0  0  0  0  0  0  0  0  0
   -3.5980    5.6330   -2.9760 C   0  0  0  0  0  0  0  0  0  0  0  0
   -1.9390   10.0450   -0.6910 C   0  0  1  0  0  0  0  0  0  0  0  0
   -1.8360    9.6120    0.8030 C   0  0  0  0  0  0  0  0  0  0  0  0
   -2.2590   11.5870   -0.6860 C   0  0  0  0  0  0  0  0  0  0  0  0
   -1.8140   12.3930   -1.9210 C   0  0  0  0  0  0  0  0  0  0  0  0
   -0.3520   12.0990   -2.2710 C   0  0  2  0  0  0  0  0  0  0  0  0
    0.5320   12.5700   -1.0660 C   0  0  0  0  0  0  0  0  0  0  0  0
    1.4097   15.7138   -4.8230 H   0  0  0  0  0  0  0  0  0  0  0  0
    1.4721   14.0285   -5.4416 H   0  0  0  0  0  0  0  0  0  0  0  0
   -0.0826   14.9283   -5.4416 H   0  0  0  0  0  0  0  0  0  0  0  0
   -0.3019   14.8068   -3.1054 H   0  0  0  0  0  0  0  0  0  0  0  0
    1.9822   13.4902   -2.0581 H   0  0  0  0  0  0  0  0  0  0  0  0
    2.5655   14.8629   -3.1161 H   0  0  0  0  0  0  0  0  0  0  0  0
    0.5689   15.1166   -0.8348 H   0  0  0  0  0  0  0  0  0  0  0  0
    2.3291   15.5455   -0.7744 H   0  0  0  0  0  0  0  0  0  0  0  0
    0.0552   16.6229   -1.9439 H   0  0  0  0  0  0  0  0  0  0  0  0
    2.7679   18.0200    0.3346 H   0  0  0  0  0  0  0  0  0  0  0  0
    3.6809   17.0715   -0.8875 H   0  0  0  0  0  0  0  0  0  0  0  0
    3.7772   18.8652   -0.8875 H   0  0  0  0  0  0  0  0  0  0  0  0
    1.1006   19.8485   -0.8275 H   0  0  0  0  0  0  0  0  0  0  0  0
    1.9922   20.0645   -2.3719 H   0  0  0  0  0  0  0  0  0  0  0  0
    0.3692   19.2947   -2.3719 H   0  0  0  0  0  0  0  0  0  0  0  0
   -0.5823   12.7878   -4.3316 H   0  0  0  0  0  0  0  0  0  0  0  0
    1.4543   11.6675   -4.9867 H   0  0  0  0  0  0  0  0  0  0  0  0
    2.3644   12.3618   -3.6275 H   0  0  0  0  0  0  0  0  0  0  0  0
    1.4081    9.6731   -3.7859 H   0  0  0  0  0  0  0  0  0  0  0  0
    1.9642   10.4372   -2.2995 H   0  0  0  0  0  0  0  0  0  0  0  0
   -1.9891    9.6220   -3.4961 H   0  0  0  0  0  0  0  0  0  0  0  0
   -1.3389   10.9912   -4.4601 H   0  0  0  0  0  0  0  0  0  0  0  0
   -0.4884    9.4090   -4.4601 H   0  0  0  0  0  0  0  0  0  0  0  0
    0.2342   10.0633   -0.6448 H   0  0  0  0  0  0  0  0  0  0  0  0
    0.4865    8.0533   -2.2363 H   0  0  0  0  0  0  0  0  0  0  0  0
   -0.0898    7.8294   -0.5023 H   0  0  0  0  0  0  0  0  0  0  0  0
   -1.3446    6.4180   -2.3393 H   0  0  0  0  0  0  0  0  0  0  0  0
   -3.3580    9.9161   -2.2611 H   0  0  0  0  0  0  0  0  0  0  0  0
   -4.1253    8.5327    0.3837 H   0  0  0  0  0  0  0  0  0  0  0  0
   -4.6863   10.1623   -0.1991 H   0  0  0  0  0  0  0  0  0  0  0  0
   -6.4084    8.4128   -0.5093 H   0  0  0  0  0  0  0  0  0  0  0  0
   -5.8416    9.1301   -2.0682 H   0  0  0  0  0  0  0  0  0  0  0  0
   -6.0363    6.7546   -2.3392 H   0  0  0  0  0  0  0  0  0  0  0  0
   -4.1940    6.5800   -0.1280 H   0  0  0  0  0  0  0  0  0  0  0  0
   -4.7718    8.7569   -3.8007 H   0  0  0  0  0  0  0  0  0  0  0  0
   -3.3607    7.9501   -4.5652 H   0  0  0  0  0  0  0  0  0  0  0  0
   -4.9654    7.1430   -4.5652 H   0  0  0  0  0  0  0  0  0  0  0  0
   -3.4657    5.0670   -2.0421 H   0  0  0  0  0  0  0  0  0  0  0  0
   -4.4165    5.1886   -3.5613 H   0  0  0  0  0  0  0  0  0  0  0  0
   -2.6673    5.5974   -3.5613 H   0  0  0  0  0  0  0  0  0  0  0  0
   -2.0418   10.4771    1.4505 H   0  0  0  0  0  0  0  0  0  0  0  0
   -2.5705    8.8188    1.0064 H   0  0  0  0  0  0  0  0  0  0  0  0
   -0.8230    9.2345    1.0064 H   0  0  0  0  0  0  0  0  0  0  0  0
   -3.3489   11.7003   -0.5898 H   0  0  0  0  0  0  0  0  0  0  0  0
   -1.6768   11.9989    0.1515 H   0  0  0  0  0  0  0  0  0  0  0  0
   -2.4502   12.1213   -2.7762 H   0  0  0  0  0  0  0  0  0  0  0  0
   -1.9111   13.4648   -1.6935 H   0  0  0  0  0  0  0  0  0  0  0  0
    0.0350   12.3052   -0.1211 H   0  0  0  0  0  0  0  0  0  0  0  0
    1.5131   12.0751   -1.1155 H   0  0  0  0  0  0  0  0  0  0  0  0
    0.6685   13.6604   -1.1155 H   0  0  0  0  0  0  0  0  0  0  0  0
  1  2  1  0
  2  3  1  0
  3  4  1  0
  4  5  1  0
  5  6  1  0
  6  7  1  0
  7  8  1  0
  7  9  1  0
  2 10  1  0
 10 11  1  0
 11 12  1  0
 12 13  1  0
 13 14  1  6
 13 15  1  0
 15 16  1  0
 16 17  1  0
 17 18  2  0
 18 19  1  0
 19 20  1  0
 20 21  1  0
 21 22  1  0
 22 23  1  0
 22 24  1  0
 24 25  1  0
 24 26  1  0
 19 27  1  0
 27 28  1  1
 27 29  1  0
 29 30  1  0
 30 31  1  0
 31 32  1  1
  7  5  1  0
 31 10  1  0
 31 13  1  0
 27 15  1  0
 24 18  1  0
  1 33  1  0
  1 34  1  0
  1 35  1  0
  2 36  1  1
  3 37  1  0
  3 38  1  0
  4 39  1  0
  4 40  1  0
  5 41  1  6
  8 42  1  0
  8 43  1  0
  8 44  1  0
  9 45  1  0
  9 46  1  0
  9 47  1  0
 10 48  1  6
 11 49  1  0
 11 50  1  0
 12 51  1  0
 12 52  1  0
 14 53  1  0
 14 54  1  0
 14 55  1  0
 15 56  1  1
 16 57  1  0
 16 58  1  0
 17 59  1  0
 19 60  1  6
 20 61  1  0
 20 62  1  0
 21 63  1  0
 21 64  1  0
 22 65  1  6
 23 66  1  0
 25 67  1  0
 25 68  1  0
 25 69  1  0
 26 70  1  0
 26 71  1  0
 26 72  1  0
 28 73  1  0
 28 74  1  0
 28 75  1  0
 29 76  1  0
 29 77  1  0
 30 78  1  0
 30 79  1  0
 32 80  1  0
 32 81  1  0
 32 82  1  0
M  END
>  <meeko>  (20) 
{"is_sidechain": [false], "intermolecular_energy": 2.731, "internal_energy": -0.839}

$$$$
