EPH_relaxed_0001_pdb2pqr_Repair_119_r2_0001_out
     RDKit          3D

 82 86  0  0  0  0  0  0  0  0999 V2000
   -1.6860    8.6130   -1.9080 C   0  0  0  0  0  0  0  0  0  0  0  0
   -2.0620    9.1340   -0.5190 C   0  0  2  0  0  0  0  0  0  0  0  0
   -3.5550    9.5090   -0.4240 C   0  0  0  0  0  0  0  0  0  0  0  0
   -4.4840    8.3020   -0.2700 C   0  0  0  0  0  0  0  0  0  0  0  0
   -5.1780    7.9700   -1.5570 C   0  0  2  0  0  0  0  0  0  0  0  0
   -6.3460    8.7560   -1.8270 O   0  0  0  0  0  0  0  0  0  0  0  0
   -6.5610    7.3490   -1.6250 C   0  0  0  0  0  0  0  0  0  0  0  0
   -7.3320    7.0230   -0.3850 C   0  0  0  0  0  0  0  0  0  0  0  0
   -6.9550    6.6150   -2.8690 C   0  0  0  0  0  0  0  0  0  0  0  0
   -1.1990   10.3390   -0.1650 C   0  0  1  0  0  0  0  0  0  0  0  0
   -0.1540   10.0230    0.9390 C   0  0  0  0  0  0  0  0  0  0  0  0
    1.1120   10.8540    0.6080 C   0  0  0  0  0  0  0  0  0  0  0  0
    0.6470   11.8620   -0.4680 C   0  0  1  0  0  0  0  0  0  0  0  0
   -0.0510   13.0080    0.3300 C   0  0  0  0  0  0  0  0  0  0  0  0
    1.7550   12.4150   -1.4220 C   0  0  2  0  0  0  0  0  0  0  0  0
    2.8670   13.2240   -0.7310 C   0  0  0  0  0  0  0  0  0  0  0  0
    2.6170   14.6920   -0.6290 C   0  0  0  0  0  0  0  0  0  0  0  0
    1.6860   15.3770   -1.3190 C   0  0  0  0  0  0  0  0  0  0  0  0
    0.8280   14.6850   -2.3860 C   0  0  1  0  0  0  0  0  0  0  0  0
    0.7860   15.5610   -3.6650 C   0  0  0  0  0  0  0  0  0  0  0  0
    0.3260   16.9880   -3.3820 C   0  0  0  0  0  0  0  0  0  0  0  0
    1.2370   17.6630   -2.3600 C   0  0  2  0  0  0  0  0  0  0  0  0
    2.5320   17.8380   -2.9420 O   0  0  0  0  0  0  0  0  0  0  0  0
    1.3650   16.8650   -1.0320 C   0  0  0  0  0  0  0  0  0  0  0  0
    0.0280   16.9330   -0.2530 C   0  0  0  0  0  0  0  0  0  0  0  0
    2.4200   17.5800   -0.1450 C   0  0  0  0  0  0  0  0  0  0  0  0
    1.1970   13.1700   -2.6960 C   0  0  1  0  0  0  0  0  0  0  0  0
    2.3170   13.1060   -3.7780 C   0  0  0  0  0  0  0  0  0  0  0  0
   -0.0600   12.4520   -3.3140 C   0  0  0  0  0  0  0  0  0  0  0  0
   -1.0580   11.8210   -2.3230 C   0  0  0  0  0  0  0  0  0  0  0  0
   -0.3320   10.9500   -1.2940 C   0  0  2  0  0  0  0  0  0  0  0  0
    0.3610    9.7750   -2.0660 C   0  0  0  0  0  0  0  0  0  0  0  0
   -1.0451    7.7249   -1.8054 H   0  0  0  0  0  0  0  0  0  0  0  0
   -2.5996    8.3442   -2.4585 H   0  0  0  0  0  0  0  0  0  0  0  0
   -1.1430    9.3954   -2.4585 H   0  0  0  0  0  0  0  0  0  0  0  0
   -1.8792    8.3217    0.1999 H   0  0  0  0  0  0  0  0  0  0  0  0
   -3.6931   10.1669    0.4467 H   0  0  0  0  0  0  0  0  0  0  0  0
   -3.8233   10.0026   -1.3697 H   0  0  0  0  0  0  0  0  0  0  0  0
   -3.8899    7.4331    0.0494 H   0  0  0  0  0  0  0  0  0  0  0  0
   -5.2501    8.5517    0.4788 H   0  0  0  0  0  0  0  0  0  0  0  0
   -4.2229    7.6974   -2.0297 H   0  0  0  0  0  0  0  0  0  0  0  0
   -6.7293    7.2779    0.4992 H   0  0  0  0  0  0  0  0  0  0  0  0
   -8.2666    7.6030   -0.3712 H   0  0  0  0  0  0  0  0  0  0  0  0
   -7.5670    5.9485   -0.3712 H   0  0  0  0  0  0  0  0  0  0  0  0
   -7.4590    5.6760   -2.5966 H   0  0  0  0  0  0  0  0  0  0  0  0
   -7.6391    7.2396   -3.4622 H   0  0  0  0  0  0  0  0  0  0  0  0
   -6.0564    6.3901   -3.4622 H   0  0  0  0  0  0  0  0  0  0  0  0
   -1.9865   11.0479    0.1305 H   0  0  0  0  0  0  0  0  0  0  0  0
   -0.5473   10.3088    1.9257 H   0  0  0  0  0  0  0  0  0  0  0  0
    0.0761    8.9478    0.9686 H   0  0  0  0  0  0  0  0  0  0  0  0
    1.4753   11.3810    1.5026 H   0  0  0  0  0  0  0  0  0  0  0  0
    1.9440   10.2251    0.2584 H   0  0  0  0  0  0  0  0  0  0  0  0
    0.0608   12.8244    1.4088 H   0  0  0  0  0  0  0  0  0  0  0  0
    0.4143   13.9707    0.0717 H   0  0  0  0  0  0  0  0  0  0  0  0
   -1.1199   13.0363    0.0717 H   0  0  0  0  0  0  0  0  0  0  0  0
    2.2359   11.4939   -1.7829 H   0  0  0  0  0  0  0  0  0  0  0  0
    2.9920   12.8288    0.2879 H   0  0  0  0  0  0  0  0  0  0  0  0
    3.7622   13.1104   -1.3601 H   0  0  0  0  0  0  0  0  0  0  0  0
    3.2470   15.2625    0.0693 H   0  0  0  0  0  0  0  0  0  0  0  0
   -0.1818   14.6018   -1.9577 H   0  0  0  0  0  0  0  0  0  0  0  0
    1.7950   15.5959   -4.1018 H   0  0  0  0  0  0  0  0  0  0  0  0
    0.0608   15.1074   -4.3567 H   0  0  0  0  0  0  0  0  0  0  0  0
    0.3460   17.5649   -4.3184 H   0  0  0  0  0  0  0  0  0  0  0  0
   -0.6946   16.9530   -2.9731 H   0  0  0  0  0  0  0  0  0  0  0  0
    0.7829   18.6311   -2.1019 H   0  0  0  0  0  0  0  0  0  0  0  0
    2.4050   18.0990   -3.8700 H   0  0  0  0  0  0  0  0  0  0  0  0
    0.2324   16.9226    0.8278 H   0  0  0  0  0  0  0  0  0  0  0  0
   -0.5034   17.8593   -0.5168 H   0  0  0  0  0  0  0  0  0  0  0  0
   -0.5946   16.0654   -0.5168 H   0  0  0  0  0  0  0  0  0  0  0  0
    2.1787   17.4165    0.9157 H   0  0  0  0  0  0  0  0  0  0  0  0
    3.4182   17.1715   -0.3612 H   0  0  0  0  0  0  0  0  0  0  0  0
    2.4105   18.6585   -0.3612 H   0  0  0  0  0  0  0  0  0  0  0  0
    3.2993   13.0499   -3.2861 H   0  0  0  0  0  0  0  0  0  0  0  0
    2.1699   12.2148   -4.4058 H   0  0  0  0  0  0  0  0  0  0  0  0
    2.2723   14.0082   -4.4058 H   0  0  0  0  0  0  0  0  0  0  0  0
   -0.6086   13.1962   -3.9100 H   0  0  0  0  0  0  0  0  0  0  0  0
    0.3457   11.6075   -3.8904 H   0  0  0  0  0  0  0  0  0  0  0  0
   -1.5994   12.6221   -1.7984 H   0  0  0  0  0  0  0  0  0  0  0  0
   -1.7589   11.1876   -2.8865 H   0  0  0  0  0  0  0  0  0  0  0  0
    0.7826    9.0602   -1.3440 H   0  0  0  0  0  0  0  0  0  0  0  0
   -0.3802    9.2638   -2.6979 H   0  0  0  0  0  0  0  0  0  0  0  0
    1.1670   10.1764   -2.6979 H   0  0  0  0  0  0  0  0  0  0  0  0
  1  2  1  0
  2  3  1  0
  3  4  1  0
  4  5  1  0
  5  6  1  0
  6  7  1  0
  7  8  1  0
  7  9  1  0
  2 10  1  0
 10 11  1  0
 11 12  1  0
 12 13  1  0
 13 14  1  1
 13 15  1  0
 15 16  1  0
 16 17  1  0
 17 18  2  0
 18 19  1  0
 19 20  1  0
 20 21  1  0
 21 22  1  0
 22 23  1  0
 22 24  1  0
 24 25  1  0
 24 26  1  0
 19 27  1  0
 27 28  1  6
 27 29  1  0
 29 30  1  0
 30 31  1  0
 31 32  1  6
  7  5  1  0
 31 10  1  0
 31 13  1  0
 27 15  1  0
 24 18  1  0
  1 33  1  0
  1 34  1  0
  1 35  1  0
  2 36  1  1
  3 37  1  0
  3 38  1  0
  4 39  1  0
  4 40  1  0
  5 41  1  6
  8 42  1  0
  8 43  1  0
  8 44  1  0
  9 45  1  0
  9 46  1  0
  9 47  1  0
 10 48  1  1
 11 49  1  0
 11 50  1  0
 12 51  1  0
 12 52  1  0
 14 53  1  0
 14 54  1  0
 14 55  1  0
 15 56  1  6
 16 57  1  0
 16 58  1  0
 17 59  1  0
 19 60  1  1
 20 61  1  0
 20 62  1  0
 21 63  1  0
 21 64  1  0
 22 65  1  1
 23 66  1  0
 25 67  1  0
 25 68  1  0
 25 69  1  0
 26 70  1  0
 26 71  1  0
 26 72  1  0
 28 73  1  0
 28 74  1  0
 28 75  1  0
 29 76  1  0
 29 77  1  0
 30 78  1  0
 30 79  1  0
 32 80  1  0
 32 81  1  0
 32 82  1  0
M  END
>  <meeko>  (1) 
{"is_sidechain": [false], "intermolecular_energy": 2.731, "internal_energy": -0.839}

$$$$
EPH_relaxed_0001_pdb2pqr_Repair_119_r2_0001_out
     RDKit          3D

 82 86  0  0  0  0  0  0  0  0999 V2000
    4.1840   17.5740   -0.1110 C   0  0  0  0  0  0  0  0  0  0  0  0
    2.7710   18.1630   -0.1090 C   0  0  2  0  0  0  0  0  0  0  0  0
    2.5240   19.0740    1.1110 C   0  0  0  0  0  0  0  0  0  0  0  0
    3.7930   19.7390    1.6500 C   0  0  0  0  0  0  0  0  0  0  0  0
    4.2460   19.1110    2.9330 C   0  0  2  0  0  0  0  0  0  0  0  0
    4.4700   20.0350    4.0050 O   0  0  0  0  0  0  0  0  0  0  0  0
    5.6250   19.3250    3.5290 C   0  0  0  0  0  0  0  0  0  0  0  0
    6.6390   20.1940    2.8550 C   0  0  0  0  0  0  0  0  0  0  0  0
    6.1510   18.3120    4.4970 C   0  0  0  0  0  0  0  0  0  0  0  0
    1.7400   17.0400   -0.1380 C   0  0  1  0  0  0  0  0  0  0  0  0
    0.3150   17.5460   -0.4860 C   0  0  0  0  0  0  0  0  0  0  0  0
   -0.3650   16.4300   -1.3200 C   0  0  0  0  0  0  0  0  0  0  0  0
    0.5530   15.1980   -1.1440 C   0  0  1  0  0  0  0  0  0  0  0  0
    0.1480   14.5890    0.2350 C   0  0  0  0  0  0  0  0  0  0  0  0
    0.5020   14.1290   -2.2840 C   0  0  2  0  0  0  0  0  0  0  0  0
   -0.8630   13.4460   -2.4770 C   0  0  0  0  0  0  0  0  0  0  0  0
   -1.0700   12.1990   -1.6820 C   0  0  0  0  0  0  0  0  0  0  0  0
   -0.1020   11.4930   -1.0680 C   0  0  0  0  0  0  0  0  0  0  0  0
    1.3740   11.8810   -1.2220 C   0  0  1  0  0  0  0  0  0  0  0  0
    2.2140   10.6130   -1.5260 C   0  0  0  0  0  0  0  0  0  0  0  0
    2.0050    9.5110   -0.4910 C   0  0  0  0  0  0  0  0  0  0  0  0
    0.5340    9.1120   -0.4090 C   0  0  2  0  0  0  0  0  0  0  0  0
    0.1550    8.4910   -1.6410 O   0  0  0  0  0  0  0  0  0  0  0  0
   -0.4110   10.3110   -0.1160 C   0  0  0  0  0  0  0  0  0  0  0  0
   -0.2040   10.7940    1.3410 C   0  0  0  0  0  0  0  0  0  0  0  0
   -1.8740    9.7980   -0.2000 C   0  0  0  0  0  0  0  0  0  0  0  0
    1.6770   13.0700   -2.2330 C   0  0  1  0  0  0  0  0  0  0  0  0
    1.8350   12.5110   -3.6800 C   0  0  0  0  0  0  0  0  0  0  0  0
    3.0580   13.7260   -1.8560 C   0  0  0  0  0  0  0  0  0  0  0  0
    3.0280   14.8570   -0.8110 C   0  0  0  0  0  0  0  0  0  0  0  0
    1.9610   15.8990   -1.1620 C   0  0  2  0  0  0  0  0  0  0  0  0
    2.3540   16.5440   -2.5340 C   0  0  0  0  0  0  0  0  0  0  0  0
    4.5237   17.4324    0.9256 H   0  0  0  0  0  0  0  0  0  0  0  0
    4.1763   16.6042   -0.6300 H   0  0  0  0  0  0  0  0  0  0  0  0
    4.8674   18.2622   -0.6300 H   0  0  0  0  0  0  0  0  0  0  0  0
    2.6695   18.7842   -1.0111 H   0  0  0  0  0  0  0  0  0  0  0  0
    1.8164   19.8633    0.8173 H   0  0  0  0  0  0  0  0  0  0  0  0
    2.1301   18.4347    1.9148 H   0  0  0  0  0  0  0  0  0  0  0  0
    4.5933   19.6386    0.9020 H   0  0  0  0  0  0  0  0  0  0  0  0
    3.5680   20.7975    1.8472 H   0  0  0  0  0  0  0  0  0  0  0  0
    3.6690   18.1996    2.7176 H   0  0  0  0  0  0  0  0  0  0  0  0
    7.2424   20.7111    3.6156 H   0  0  0  0  0  0  0  0  0  0  0  0
    7.2946   19.5730    2.2269 H   0  0  0  0  0  0  0  0  0  0  0  0
    6.1257   20.9369    2.2269 H   0  0  0  0  0  0  0  0  0  0  0  0
    5.9708   18.6591    5.5251 H   0  0  0  0  0  0  0  0  0  0  0  0
    5.6373   17.3523    4.3387 H   0  0  0  0  0  0  0  0  0  0  0  0
    7.2315   18.1801    4.3387 H   0  0  0  0  0  0  0  0  0  0  0  0
    1.8576   16.6548    0.8856 H   0  0  0  0  0  0  0  0  0  0  0  0
   -0.2565   17.7318    0.4354 H   0  0  0  0  0  0  0  0  0  0  0  0
    0.3578   18.4896   -1.0497 H   0  0  0  0  0  0  0  0  0  0  0  0
   -1.3747   16.2198   -0.9375 H   0  0  0  0  0  0  0  0  0  0  0  0
   -0.4858   16.7130   -2.3761 H   0  0  0  0  0  0  0  0  0  0  0  0
    0.5602   15.2089    1.0448 H   0  0  0  0  0  0  0  0  0  0  0  0
   -0.9487   14.5618    0.3160 H   0  0  0  0  0  0  0  0  0  0  0  0
    0.5471   13.5671    0.3160 H   0  0  0  0  0  0  0  0  0  0  0  0
    0.6611   14.7382   -3.1860 H   0  0  0  0  0  0  0  0  0  0  0  0
   -1.6459   14.1644   -2.1925 H   0  0  0  0  0  0  0  0  0  0  0  0
   -0.9056   13.1439   -3.5338 H   0  0  0  0  0  0  0  0  0  0  0  0
   -2.1006   11.8257   -1.5903 H   0  0  0  0  0  0  0  0  0  0  0  0
    1.6783   12.3075   -0.2548 H   0  0  0  0  0  0  0  0  0  0  0  0
    1.9253   10.2274   -2.5149 H   0  0  0  0  0  0  0  0  0  0  0  0
    3.2753   10.9007   -1.4979 H   0  0  0  0  0  0  0  0  0  0  0  0
    2.6012    8.6316   -0.7760 H   0  0  0  0  0  0  0  0  0  0  0  0
    2.3220    9.8881    0.4925 H   0  0  0  0  0  0  0  0  0  0  0  0
    0.4282    8.4156    0.4359 H   0  0  0  0  0  0  0  0  0  0  0  0
   -0.1400    9.1920   -2.2460 H   0  0  0  0  0  0  0  0  0  0  0  0
   -0.5393   10.0116    2.0378 H   0  0  0  0  0  0  0  0  0  0  0  0
    0.8627   11.0029    1.5100 H   0  0  0  0  0  0  0  0  0  0  0  0
   -0.7884   11.7105    1.5100 H   0  0  0  0  0  0  0  0  0  0  0  0
   -2.2724    9.6583    0.8157 H   0  0  0  0  0  0  0  0  0  0  0  0
   -2.4902   10.5337   -0.7376 H   0  0  0  0  0  0  0  0  0  0  0  0
   -1.8958    8.8386   -0.7376 H   0  0  0  0  0  0  0  0  0  0  0  0
    2.1339   11.4534   -3.6339 H   0  0  0  0  0  0  0  0  0  0  0  0
    0.8770   12.5983   -4.2135 H   0  0  0  0  0  0  0  0  0  0  0  0
    2.6056   13.0869   -4.2135 H   0  0  0  0  0  0  0  0  0  0  0  0
    3.7090   12.9298   -1.4658 H   0  0  0  0  0  0  0  0  0  0  0  0
    3.4137   14.2001   -2.7827 H   0  0  0  0  0  0  0  0  0  0  0  0
    2.8017   14.4287    0.1766 H   0  0  0  0  0  0  0  0  0  0  0  0
    4.0108   15.3510   -0.8001 H   0  0  0  0  0  0  0  0  0  0  0  0
    2.9187   17.4709   -2.3551 H   0  0  0  0  0  0  0  0  0  0  0  0
    2.9766   15.8398   -3.1053 H   0  0  0  0  0  0  0  0  0  0  0  0
    1.4427   16.7744   -3.1053 H   0  0  0  0  0  0  0  0  0  0  0  0
  1  2  1  0
  2  3  1  0
  3  4  1  0
  4  5  1  0
  5  6  1  0
  6  7  1  0
  7  8  1  0
  7  9  1  0
  2 10  1  0
 10 11  1  0
 11 12  1  0
 12 13  1  0
 13 14  1  1
 13 15  1  0
 15 16  1  0
 16 17  1  0
 17 18  2  0
 18 19  1  0
 19 20  1  0
 20 21  1  0
 21 22  1  0
 22 23  1  0
 22 24  1  0
 24 25  1  0
 24 26  1  0
 19 27  1  0
 27 28  1  6
 27 29  1  0
 29 30  1  0
 30 31  1  0
 31 32  1  6
  7  5  1  0
 31 10  1  0
 31 13  1  0
 27 15  1  0
 24 18  1  0
  1 33  1  0
  1 34  1  0
  1 35  1  0
  2 36  1  6
  3 37  1  0
  3 38  1  0
  4 39  1  0
  4 40  1  0
  5 41  1  1
  8 42  1  0
  8 43  1  0
  8 44  1  0
  9 45  1  0
  9 46  1  0
  9 47  1  0
 10 48  1  1
 11 49  1  0
 11 50  1  0
 12 51  1  0
 12 52  1  0
 14 53  1  0
 14 54  1  0
 14 55  1  0
 15 56  1  6
 16 57  1  0
 16 58  1  0
 17 59  1  0
 19 60  1  1
 20 61  1  0
 20 62  1  0
 21 63  1  0
 21 64  1  0
 22 65  1  1
 23 66  1  0
 25 67  1  0
 25 68  1  0
 25 69  1  0
 26 70  1  0
 26 71  1  0
 26 72  1  0
 28 73  1  0
 28 74  1  0
 28 75  1  0
 29 76  1  0
 29 77  1  0
 30 78  1  0
 30 79  1  0
 32 80  1  0
 32 81  1  0
 32 82  1  0
M  END
>  <meeko>  (2) 
{"is_sidechain": [false], "intermolecular_energy": 2.731, "internal_energy": -0.839}

$$$$
EPH_relaxed_0001_pdb2pqr_Repair_119_r2_0001_out
     RDKit          3D

 82 86  0  0  0  0  0  0  0  0999 V2000
    2.2280   17.9740   -2.5570 C   0  0  0  0  0  0  0  0  0  0  0  0
    0.7060   17.8280   -2.6370 C   0  0  2  0  0  0  0  0  0  0  0  0
    0.0070   18.3050   -1.3480 C   0  0  0  0  0  0  0  0  0  0  0  0
    0.7400   17.9020   -0.0660 C   0  0  0  0  0  0  0  0  0  0  0  0
    1.2770   19.0950    0.6650 C   0  0  2  0  0  0  0  0  0  0  0  0
    2.1600   19.9210   -0.1050 O   0  0  0  0  0  0  0  0  0  0  0  0
    2.7400   19.2620    1.0330 C   0  0  0  0  0  0  0  0  0  0  0  0
    3.7570   18.2220    0.6810 C   0  0  0  0  0  0  0  0  0  0  0  0
    3.0940   20.1920    2.1510 C   0  0  0  0  0  0  0  0  0  0  0  0
    0.3370   16.3770   -2.9230 C   0  0  1  0  0  0  0  0  0  0  0  0
    0.4060   16.0290   -4.4340 C   0  0  0  0  0  0  0  0  0  0  0  0
    0.8950   14.5610   -4.5330 C   0  0  0  0  0  0  0  0  0  0  0  0
    0.7720   14.0110   -3.0920 C   0  0  1  0  0  0  0  0  0  0  0  0
   -0.7340   13.6320   -2.9350 C   0  0  0  0  0  0  0  0  0  0  0  0
    1.7100   12.8150   -2.7270 C   0  0  2  0  0  0  0  0  0  0  0  0
    1.4810   11.5320   -3.5460 C   0  0  0  0  0  0  0  0  0  0  0  0
    0.4970   10.5720   -2.9640 C   0  0  0  0  0  0  0  0  0  0  0  0
    0.0370   10.5940   -1.6990 C   0  0  0  0  0  0  0  0  0  0  0  0
    0.5860   11.5990   -0.6790 C   0  0  1  0  0  0  0  0  0  0  0  0
    0.9010   10.8660    0.6520 C   0  0  0  0  0  0  0  0  0  0  0  0
   -0.2950   10.0850    1.1870 C   0  0  0  0  0  0  0  0  0  0  0  0
   -0.7750    9.0560    0.1670 C   0  0  2  0  0  0  0  0  0  0  0  0
    0.2360    8.0550    0.0110 O   0  0  0  0  0  0  0  0  0  0  0  0
   -1.1140    9.6770   -1.2170 C   0  0  0  0  0  0  0  0  0  0  0  0
   -2.4010   10.5310   -1.1030 C   0  0  0  0  0  0  0  0  0  0  0  0
   -1.4490    8.5160   -2.1920 C   0  0  0  0  0  0  0  0  0  0  0  0
    1.7920   12.5050   -1.1780 C   0  0  1  0  0  0  0  0  0  0  0  0
    3.1450   11.7660   -0.9430 C   0  0  0  0  0  0  0  0  0  0  0  0
    1.8460   13.8160   -0.3070 C   0  0  0  0  0  0  0  0  0  0  0  0
    0.9890   15.0030   -0.7860 C   0  0  0  0  0  0  0  0  0  0  0  0
    1.2170   15.2790   -2.2760 C   0  0  2  0  0  0  0  0  0  0  0  0
    2.7190   15.6850   -2.4620 C   0  0  0  0  0  0  0  0  0  0  0  0
    2.5385   18.0038   -1.5022 H   0  0  0  0  0  0  0  0  0  0  0  0
    2.7052   17.1175   -3.0557 H   0  0  0  0  0  0  0  0  0  0  0  0
    2.5337   18.9056   -3.0557 H   0  0  0  0  0  0  0  0  0  0  0  0
    0.3557   18.4699   -3.4587 H   0  0  0  0  0  0  0  0  0  0  0  0
   -0.0642   19.4023   -1.3771 H   0  0  0  0  0  0  0  0  0  0  0  0
   -0.9805   17.8212   -1.3196 H   0  0  0  0  0  0  0  0  0  0  0  0
    0.0394   17.3667    0.5918 H   0  0  0  0  0  0  0  0  0  0  0  0
    1.5889   17.2601   -0.3442 H   0  0  0  0  0  0  0  0  0  0  0  0
    0.3534   19.1780    1.2566 H   0  0  0  0  0  0  0  0  0  0  0  0
    4.1767   17.7928    1.6028 H   0  0  0  0  0  0  0  0  0  0  0  0
    3.2788   17.4265    0.0908 H   0  0  0  0  0  0  0  0  0  0  0  0
    4.5630   18.6823    0.0908 H   0  0  0  0  0  0  0  0  0  0  0  0
    2.9051   19.6958    3.1144 H   0  0  0  0  0  0  0  0  0  0  0  0
    4.1579   20.4623    2.0801 H   0  0  0  0  0  0  0  0  0  0  0  0
    2.4791   21.1013    2.0801 H   0  0  0  0  0  0  0  0  0  0  0  0
   -0.6731   16.3548   -2.4880 H   0  0  0  0  0  0  0  0  0  0  0  0
   -0.5894   16.1283   -4.8914 H   0  0  0  0  0  0  0  0  0  0  0  0
    1.0880   16.7092   -4.9652 H   0  0  0  0  0  0  0  0  0  0  0  0
    0.2606   13.9860   -5.2236 H   0  0  0  0  0  0  0  0  0  0  0  0
    1.9217   14.4884   -4.9211 H   0  0  0  0  0  0  0  0  0  0  0  0
   -0.9866   13.5684   -1.8663 H   0  0  0  0  0  0  0  0  0  0  0  0
   -1.3576   14.4012   -3.4140 H   0  0  0  0  0  0  0  0  0  0  0  0
   -0.9192   12.6593   -3.4140 H   0  0  0  0  0  0  0  0  0  0  0  0
    2.6987   13.1900   -3.0301 H   0  0  0  0  0  0  0  0  0  0  0  0
    1.1212   11.8249   -4.5434 H   0  0  0  0  0  0  0  0  0  0  0  0
    2.4466   11.0054   -3.5636 H   0  0  0  0  0  0  0  0  0  0  0  0
    0.1155    9.7796   -3.6247 H   0  0  0  0  0  0  0  0  0  0  0  0
   -0.2137   12.3370   -0.5182 H   0  0  0  0  0  0  0  0  0  0  0  0
    1.7315   10.1654    0.4807 H   0  0  0  0  0  0  0  0  0  0  0  0
    1.1628   11.6293    1.3996 H   0  0  0  0  0  0  0  0  0  0  0  0
   -0.0016    9.5659    2.1114 H   0  0  0  0  0  0  0  0  0  0  0  0
   -1.1148   10.7910    1.3860 H   0  0  0  0  0  0  0  0  0  0  0  0
   -1.7088    8.6206    0.5522 H   0  0  0  0  0  0  0  0  0  0  0  0
    0.9350    8.4290   -0.5520 H   0  0  0  0  0  0  0  0  0  0  0  0
   -2.6421   10.6910   -0.0417 H   0  0  0  0  0  0  0  0  0  0  0  0
   -2.2409   11.5027   -1.5931 H   0  0  0  0  0  0  0  0  0  0  0  0
   -3.2341   10.0059   -1.5931 H   0  0  0  0  0  0  0  0  0  0  0  0
   -1.7087    7.6161   -1.6151 H   0  0  0  0  0  0  0  0  0  0  0  0
   -2.3008    8.8037   -2.8258 H   0  0  0  0  0  0  0  0  0  0  0  0
   -0.5749    8.3057   -2.8258 H   0  0  0  0  0  0  0  0  0  0  0  0
    3.3260   11.6672    0.1375 H   0  0  0  0  0  0  0  0  0  0  0  0
    3.1012   10.7666   -1.4004 H   0  0  0  0  0  0  0  0  0  0  0  0
    3.9622   12.3430   -1.4004 H   0  0  0  0  0  0  0  0  0  0  0  0
    1.5147   13.5547    0.7088 H   0  0  0  0  0  0  0  0  0  0  0  0
    2.8867   14.1654   -0.3764 H   0  0  0  0  0  0  0  0  0  0  0  0
   -0.0732   14.7691   -0.6219 H   0  0  0  0  0  0  0  0  0  0  0  0
    1.2792   15.8976   -0.2155 H   0  0  0  0  0  0  0  0  0  0  0  0
    3.1893   15.8121   -1.4758 H   0  0  0  0  0  0  0  0  0  0  0  0
    3.2454   14.8969   -3.0204 H   0  0  0  0  0  0  0  0  0  0  0  0
    2.7767   16.6310   -3.0204 H   0  0  0  0  0  0  0  0  0  0  0  0
  1  2  1  0
  2  3  1  0
  3  4  1  0
  4  5  1  0
  5  6  1  0
  6  7  1  0
  7  8  1  0
  7  9  1  0
  2 10  1  0
 10 11  1  0
 11 12  1  0
 12 13  1  0
 13 14  1  1
 13 15  1  0
 15 16  1  0
 16 17  1  0
 17 18  2  0
 18 19  1  0
 19 20  1  0
 20 21  1  0
 21 22  1  0
 22 23  1  0
 22 24  1  0
 24 25  1  0
 24 26  1  0
 19 27  1  0
 27 28  1  6
 27 29  1  0
 29 30  1  0
 30 31  1  0
 31 32  1  1
  7  5  1  0
 31 10  1  0
 31 13  1  0
 27 15  1  0
 24 18  1  0
  1 33  1  0
  1 34  1  0
  1 35  1  0
  2 36  1  6
  3 37  1  0
  3 38  1  0
  4 39  1  0
  4 40  1  0
  5 41  1  1
  8 42  1  0
  8 43  1  0
  8 44  1  0
  9 45  1  0
  9 46  1  0
  9 47  1  0
 10 48  1  1
 11 49  1  0
 11 50  1  0
 12 51  1  0
 12 52  1  0
 14 53  1  0
 14 54  1  0
 14 55  1  0
 15 56  1  6
 16 57  1  0
 16 58  1  0
 17 59  1  0
 19 60  1  1
 20 61  1  0
 20 62  1  0
 21 63  1  0
 21 64  1  0
 22 65  1  1
 23 66  1  0
 25 67  1  0
 25 68  1  0
 25 69  1  0
 26 70  1  0
 26 71  1  0
 26 72  1  0
 28 73  1  0
 28 74  1  0
 28 75  1  0
 29 76  1  0
 29 77  1  0
 30 78  1  0
 30 79  1  0
 32 80  1  0
 32 81  1  0
 32 82  1  0
M  END
>  <meeko>  (3) 
{"is_sidechain": [false], "intermolecular_energy": 2.731, "internal_energy": -0.839}

$$$$
EPH_relaxed_0001_pdb2pqr_Repair_119_r2_0001_out
     RDKit          3D

 82 86  0  0  0  0  0  0  0  0999 V2000
    2.2350   18.1720   -2.7900 C   0  0  0  0  0  0  0  0  0  0  0  0
    1.0560   17.7000   -1.9350 C   0  0  2  0  0  0  0  0  0  0  0  0
    1.3910   17.7040   -0.4300 C   0  0  0  0  0  0  0  0  0  0  0  0
    1.3620   19.0970    0.2030 C   0  0  0  0  0  0  0  0  0  0  0  0
    0.0920   19.8260   -0.1170 C   0  0  2  0  0  0  0  0  0  0  0  0
   -0.6910   20.1940    1.0260 O   0  0  0  0  0  0  0  0  0  0  0  0
   -1.2890   19.2470    0.1260 C   0  0  0  0  0  0  0  0  0  0  0  0
   -1.4700   17.8820    0.7130 C   0  0  0  0  0  0  0  0  0  0  0  0
   -2.4430   19.7980   -0.6510 C   0  0  0  0  0  0  0  0  0  0  0  0
    0.6240   16.3040   -2.3700 C   0  0  1  0  0  0  0  0  0  0  0  0
    0.7230   16.0990   -3.9050 C   0  0  0  0  0  0  0  0  0  0  0  0
    1.1420   14.6230   -4.1330 C   0  0  0  0  0  0  0  0  0  0  0  0
    0.9470   13.9460   -2.7560 C   0  0  1  0  0  0  0  0  0  0  0  0
   -0.5800   13.6320   -2.6750 C   0  0  0  0  0  0  0  0  0  0  0  0
    1.8130   12.6730   -2.4840 C   0  0  2  0  0  0  0  0  0  0  0  0
    1.5460   11.4880   -3.4280 C   0  0  0  0  0  0  0  0  0  0  0  0
    0.4980   10.5300   -2.9680 C   0  0  0  0  0  0  0  0  0  0  0  0
    0.0000   10.4540   -1.7200 C   0  0  0  0  0  0  0  0  0  0  0  0
    0.5660   11.3280   -0.5930 C   0  0  1  0  0  0  0  0  0  0  0  0
    0.8040   10.4560    0.6680 C   0  0  0  0  0  0  0  0  0  0  0  0
   -0.4460    9.6910    1.0940 C   0  0  0  0  0  0  0  0  0  0  0  0
   -0.9440    8.7900   -0.0330 C   0  0  2  0  0  0  0  0  0  0  0  0
    0.0200    7.7570   -0.2580 O   0  0  0  0  0  0  0  0  0  0  0  0
   -1.2090    9.5570   -1.3580 C   0  0  0  0  0  0  0  0  0  0  0  0
   -2.4550   10.4630   -1.1960 C   0  0  0  0  0  0  0  0  0  0  0  0
   -1.5700    8.5130   -2.4500 C   0  0  0  0  0  0  0  0  0  0  0  0
    1.8310   12.2130   -0.9700 C   0  0  1  0  0  0  0  0  0  0  0  0
    3.1380   11.3850   -0.7720 C   0  0  0  0  0  0  0  0  0  0  0  0
    1.9220   13.4300    0.0240 C   0  0  0  0  0  0  0  0  0  0  0  0
    1.1410   14.7010   -0.3600 C   0  0  0  0  0  0  0  0  0  0  0  0
    1.4290   15.1050   -1.8090 C   0  0  2  0  0  0  0  0  0  0  0  0
    2.9540   15.4480   -1.9160 C   0  0  0  0  0  0  0  0  0  0  0  0
    3.0551   18.5003   -2.1345 H   0  0  0  0  0  0  0  0  0  0  0  0
    2.5823   17.3436   -3.4249 H   0  0  0  0  0  0  0  0  0  0  0  0
    1.9147   19.0112   -3.4249 H   0  0  0  0  0  0  0  0  0  0  0  0
    0.2299   18.4095   -2.0903 H   0  0  0  0  0  0  0  0  0  0  0  0
    0.6577   17.0706    0.0907 H   0  0  0  0  0  0  0  0  0  0  0  0
    2.4191   17.3261   -0.3285 H   0  0  0  0  0  0  0  0  0  0  0  0
    1.4484   18.9941    1.2948 H   0  0  0  0  0  0  0  0  0  0  0  0
    2.2023   19.6769   -0.2065 H   0  0  0  0  0  0  0  0  0  0  0  0
    0.5527   20.2883   -1.0025 H   0  0  0  0  0  0  0  0  0  0  0  0
   -1.4609   17.9508    1.8108 H   0  0  0  0  0  0  0  0  0  0  0  0
   -2.4314   17.4641    0.3798 H   0  0  0  0  0  0  0  0  0  0  0  0
   -0.6507   17.2280    0.3798 H   0  0  0  0  0  0  0  0  0  0  0  0
   -3.2117   20.1651    0.0449 H   0  0  0  0  0  0  0  0  0  0  0  0
   -2.0958   20.6275   -1.2846 H   0  0  0  0  0  0  0  0  0  0  0  0
   -2.8698   19.0065   -1.2846 H   0  0  0  0  0  0  0  0  0  0  0  0
   -0.3993   16.2927   -1.9665 H   0  0  0  0  0  0  0  0  0  0  0  0
   -0.2515   16.2934   -4.3768 H   0  0  0  0  0  0  0  0  0  0  0  0
    1.4540   16.7904   -4.3496 H   0  0  0  0  0  0  0  0  0  0  0  0
    0.5019   14.1503   -4.8925 H   0  0  0  0  0  0  0  0  0  0  0  0
    2.1754   14.5341   -4.4994 H   0  0  0  0  0  0  0  0  0  0  0  0
   -0.8860   13.5691   -1.6203 H   0  0  0  0  0  0  0  0  0  0  0  0
   -1.1459   14.4326   -3.1738 H   0  0  0  0  0  0  0  0  0  0  0  0
   -0.7841   12.6731   -3.1738 H   0  0  0  0  0  0  0  0  0  0  0  0
    2.8280   13.0228   -2.7238 H   0  0  0  0  0  0  0  0  0  0  0  0
    1.2326   11.8929   -4.4016 H   0  0  0  0  0  0  0  0  0  0  0  0
    2.4842   10.9153   -3.4704 H   0  0  0  0  0  0  0  0  0  0  0  0
    0.0985    9.8259   -3.7127 H   0  0  0  0  0  0  0  0  0  0  0  0
   -0.2013   12.0877   -0.3829 H   0  0  0  0  0  0  0  0  0  0  0  0
    1.6035    9.7324    0.4507 H   0  0  0  0  0  0  0  0  0  0  0  0
    1.0810   11.1293    1.4926 H   0  0  0  0  0  0  0  0  0  0  0  0
   -0.2077    9.0718    1.9714 H   0  0  0  0  0  0  0  0  0  0  0  0
   -1.2357   10.4166    1.3387 H   0  0  0  0  0  0  0  0  0  0  0  0
   -1.9096    8.3687    0.2833 H   0  0  0  0  0  0  0  0  0  0  0  0
   -0.4580    6.9730   -0.5770 H   0  0  0  0  0  0  0  0  0  0  0  0
   -2.6622   10.6137   -0.1263 H   0  0  0  0  0  0  0  0  0  0  0  0
   -2.2656   11.4358   -1.6734 H   0  0  0  0  0  0  0  0  0  0  0  0
   -3.3220    9.9829   -1.6734 H   0  0  0  0  0  0  0  0  0  0  0  0
   -1.8935    7.5775   -1.9702 H   0  0  0  0  0  0  0  0  0  0  0  0
   -2.3849    8.9046   -3.0765 H   0  0  0  0  0  0  0  0  0  0  0  0
   -0.6873    8.3176   -3.0765 H   0  0  0  0  0  0  0  0  0  0  0  0
    3.3340   11.2608    0.3032 H   0  0  0  0  0  0  0  0  0  0  0  0
    3.0202   10.3964   -1.2398 H   0  0  0  0  0  0  0  0  0  0  0  0
    3.9815   11.9138   -1.2398 H   0  0  0  0  0  0  0  0  0  0  0  0
    1.5460   13.0908    1.0005 H   0  0  0  0  0  0  0  0  0  0  0  0
    2.9804   13.7294    0.0159 H   0  0  0  0  0  0  0  0  0  0  0  0
    0.0637   14.5091   -0.2473 H   0  0  0  0  0  0  0  0  0  0  0  0
    1.4576   15.5205    0.3020 H   0  0  0  0  0  0  0  0  0  0  0  0
    3.3800   15.5438   -0.9064 H   0  0  0  0  0  0  0  0  0  0  0  0
    3.4734   14.6442   -2.4584 H   0  0  0  0  0  0  0  0  0  0  0  0
    3.0793   16.3968   -2.4584 H   0  0  0  0  0  0  0  0  0  0  0  0
  1  2  1  0
  2  3  1  0
  3  4  1  0
  4  5  1  0
  5  6  1  0
  6  7  1  0
  7  8  1  0
  7  9  1  0
  2 10  1  0
 10 11  1  0
 11 12  1  0
 12 13  1  0
 13 14  1  1
 13 15  1  0
 15 16  1  0
 16 17  1  0
 17 18  2  0
 18 19  1  0
 19 20  1  0
 20 21  1  0
 21 22  1  0
 22 23  1  0
 22 24  1  0
 24 25  1  0
 24 26  1  0
 19 27  1  0
 27 28  1  6
 27 29  1  0
 29 30  1  0
 30 31  1  0
 31 32  1  1
  7  5  1  0
 31 10  1  0
 31 13  1  0
 27 15  1  0
 24 18  1  0
  1 33  1  0
  1 34  1  0
  1 35  1  0
  2 36  1  1
  3 37  1  0
  3 38  1  0
  4 39  1  0
  4 40  1  0
  5 41  1  6
  8 42  1  0
  8 43  1  0
  8 44  1  0
  9 45  1  0
  9 46  1  0
  9 47  1  0
 10 48  1  1
 11 49  1  0
 11 50  1  0
 12 51  1  0
 12 52  1  0
 14 53  1  0
 14 54  1  0
 14 55  1  0
 15 56  1  6
 16 57  1  0
 16 58  1  0
 17 59  1  0
 19 60  1  1
 20 61  1  0
 20 62  1  0
 21 63  1  0
 21 64  1  0
 22 65  1  1
 23 66  1  0
 25 67  1  0
 25 68  1  0
 25 69  1  0
 26 70  1  0
 26 71  1  0
 26 72  1  0
 28 73  1  0
 28 74  1  0
 28 75  1  0
 29 76  1  0
 29 77  1  0
 30 78  1  0
 30 79  1  0
 32 80  1  0
 32 81  1  0
 32 82  1  0
M  END
>  <meeko>  (4) 
{"is_sidechain": [false], "intermolecular_energy": 2.731, "internal_energy": -0.839}

$$$$
EPH_relaxed_0001_pdb2pqr_Repair_119_r2_0001_out
     RDKit          3D

 82 86  0  0  0  0  0  0  0  0999 V2000
   -0.2570   14.8500   -7.6560 C   0  0  0  0  0  0  0  0  0  0  0  0
    0.6690   13.7370   -8.1520 C   0  0  2  0  0  0  0  0  0  0  0  0
    0.1690   13.1080   -9.4670 C   0  0  0  0  0  0  0  0  0  0  0  0
    0.9360   13.5780  -10.7060 C   0  0  0  0  0  0  0  0  0  0  0  0
    1.0940   15.0680  -10.7270 C   0  0  2  0  0  0  0  0  0  0  0  0
    2.2050   15.5410  -11.5000 O   0  0  0  0  0  0  0  0  0  0  0  0
    2.2620   15.7950  -10.0870 C   0  0  0  0  0  0  0  0  0  0  0  0
    3.3510   15.0510   -9.3790 C   0  0  0  0  0  0  0  0  0  0  0  0
    2.0960   17.2380   -9.7270 C   0  0  0  0  0  0  0  0  0  0  0  0
    0.8100   12.6620   -7.0800 C   0  0  1  0  0  0  0  0  0  0  0  0
    1.8070   11.5430   -7.4830 C   0  0  0  0  0  0  0  0  0  0  0  0
    2.5210   11.0910   -6.1840 C   0  0  0  0  0  0  0  0  0  0  0  0
    1.6880   11.7190   -5.0420 C   0  0  1  0  0  0  0  0  0  0  0  0
    0.4720   10.7570   -4.8570 C   0  0  0  0  0  0  0  0  0  0  0  0
    2.4390   11.9650   -3.6930 C   0  0  2  0  0  0  0  0  0  0  0  0
    2.9680   10.6970   -3.0000 C   0  0  0  0  0  0  0  0  0  0  0  0
    2.0260   10.0580   -2.0350 C   0  0  0  0  0  0  0  0  0  0  0  0
    0.9230   10.6320   -1.5210 C   0  0  0  0  0  0  0  0  0  0  0  0
    0.5800   12.0950   -1.8310 C   0  0  1  0  0  0  0  0  0  0  0  0
    0.1910   12.8250   -0.5190 C   0  0  0  0  0  0  0  0  0  0  0  0
   -0.9250   12.1120    0.2390 C   0  0  0  0  0  0  0  0  0  0  0  0
   -0.5230   10.6790    0.5800 C   0  0  2  0  0  0  0  0  0  0  0  0
    0.5530   10.7140    1.5230 O   0  0  0  0  0  0  0  0  0  0  0  0
   -0.1020    9.8490   -0.6640 C   0  0  0  0  0  0  0  0  0  0  0  0
   -1.3450    9.5550   -1.5400 C   0  0  0  0  0  0  0  0  0  0  0  0
    0.4130    8.4710   -0.1660 C   0  0  0  0  0  0  0  0  0  0  0  0
    1.6600   12.8960   -2.6780 C   0  0  1  0  0  0  0  0  0  0  0  0
    2.7310   13.5120   -1.7270 C   0  0  0  0  0  0  0  0  0  0  0  0
    0.9550   14.1070   -3.3970 C   0  0  0  0  0  0  0  0  0  0  0  0
    0.3370   13.8290   -4.7800 C   0  0  0  0  0  0  0  0  0  0  0  0
    1.3330   13.1060   -5.6910 C   0  0  2  0  0  0  0  0  0  0  0  0
    2.5570   14.0580   -5.9130 C   0  0  0  0  0  0  0  0  0  0  0  0
   -0.2639   14.8583   -6.5561 H   0  0  0  0  0  0  0  0  0  0  0  0
    0.1041   15.8203   -8.0277 H   0  0  0  0  0  0  0  0  0  0  0  0
   -1.2768   14.6714   -8.0277 H   0  0  0  0  0  0  0  0  0  0  0  0
    1.6506   14.1896   -8.3559 H   0  0  0  0  0  0  0  0  0  0  0  0
    0.2705   12.0154   -9.3897 H   0  0  0  0  0  0  0  0  0  0  0  0
   -0.8763   13.4248   -9.5973 H   0  0  0  0  0  0  0  0  0  0  0  0
    1.9332   13.1136  -10.7056 H   0  0  0  0  0  0  0  0  0  0  0  0
    0.3636   13.2810  -11.5971 H   0  0  0  0  0  0  0  0  0  0  0  0
    0.0058   15.2081  -10.6489 H   0  0  0  0  0  0  0  0  0  0  0  0
    3.2127   15.1455   -8.2918 H   0  0  0  0  0  0  0  0  0  0  0  0
    3.3136   13.9888   -9.6625 H   0  0  0  0  0  0  0  0  0  0  0  0
    4.3269   15.4720   -9.6625 H   0  0  0  0  0  0  0  0  0  0  0  0
    2.0838   17.3437   -8.6322 H   0  0  0  0  0  0  0  0  0  0  0  0
    2.9333   17.8181  -10.1421 H   0  0  0  0  0  0  0  0  0  0  0  0
    1.1488   17.6129  -10.1421 H   0  0  0  0  0  0  0  0  0  0  0  0
   -0.2395   12.3420   -7.0018 H   0  0  0  0  0  0  0  0  0  0  0  0
    1.2657   10.6970   -7.9317 H   0  0  0  0  0  0  0  0  0  0  0  0
    2.5318   11.9085   -8.2253 H   0  0  0  0  0  0  0  0  0  0  0  0
    2.5242    9.9939   -6.1043 H   0  0  0  0  0  0  0  0  0  0  0  0
    3.5740   11.4077   -6.1550 H   0  0  0  0  0  0  0  0  0  0  0  0
    0.2828   10.6073   -3.7838 H   0  0  0  0  0  0  0  0  0  0  0  0
   -0.4190   11.1974   -5.3285 H   0  0  0  0  0  0  0  0  0  0  0  0
    0.6955    9.7886   -5.3285 H   0  0  0  0  0  0  0  0  0  0  0  0
    3.3303   12.5220   -4.0175 H   0  0  0  0  0  0  0  0  0  0  0  0
    3.2087    9.9590   -3.7793 H   0  0  0  0  0  0  0  0  0  0  0  0
    3.8400   11.0143   -2.4093 H   0  0  0  0  0  0  0  0  0  0  0  0
    2.2528    9.0298   -1.7167 H   0  0  0  0  0  0  0  0  0  0  0  0
   -0.2831   12.0670   -2.5124 H   0  0  0  0  0  0  0  0  0  0  0  0
    1.0777   12.8810    0.1295 H   0  0  0  0  0  0  0  0  0  0  0  0
   -0.1763   13.8258   -0.7902 H   0  0  0  0  0  0  0  0  0  0  0  0
   -1.1341   12.6587    1.1704 H   0  0  0  0  0  0  0  0  0  0  0  0
   -1.8206   12.0833   -0.3991 H   0  0  0  0  0  0  0  0  0  0  0  0
   -1.4066   10.1802    1.0048 H   0  0  0  0  0  0  0  0  0  0  0  0
    1.3390   11.0480    1.0590 H   0  0  0  0  0  0  0  0  0  0  0  0
   -2.2101    9.3504   -0.8921 H   0  0  0  0  0  0  0  0  0  0  0  0
   -1.5606   10.4269   -2.1750 H   0  0  0  0  0  0  0  0  0  0  0  0
   -1.1471    8.6789   -2.1750 H   0  0  0  0  0  0  0  0  0  0  0  0
    0.4182    8.4572    0.9339 H   0  0  0  0  0  0  0  0  0  0  0  0
   -0.2485    7.6755   -0.5396 H   0  0  0  0  0  0  0  0  0  0  0  0
    1.4341    8.3043   -0.5396 H   0  0  0  0  0  0  0  0  0  0  0  0
    2.4345   13.3415   -0.6815 H   0  0  0  0  0  0  0  0  0  0  0  0
    3.7048   13.0360   -1.9143 H   0  0  0  0  0  0  0  0  0  0  0  0
    2.8093   14.5931   -1.9143 H   0  0  0  0  0  0  0  0  0  0  0  0
    0.1493   14.4622   -2.7377 H   0  0  0  0  0  0  0  0  0  0  0  0
    1.7558   14.8383   -3.5812 H   0  0  0  0  0  0  0  0  0  0  0  0
   -0.5573   13.2009   -4.6547 H   0  0  0  0  0  0  0  0  0  0  0  0
    0.0711   14.7900   -5.2445 H   0  0  0  0  0  0  0  0  0  0  0  0
    2.9595   14.3711   -4.9383 H   0  0  0  0  0  0  0  0  0  0  0  0
    3.3369   13.5268   -6.4783 H   0  0  0  0  0  0  0  0  0  0  0  0
    2.2341   14.9447   -6.4783 H   0  0  0  0  0  0  0  0  0  0  0  0
  1  2  1  0
  2  3  1  0
  3  4  1  0
  4  5  1  0
  5  6  1  0
  6  7  1  0
  7  8  1  0
  7  9  1  0
  2 10  1  0
 10 11  1  0
 11 12  1  0
 12 13  1  0
 13 14  1  1
 13 15  1  0
 15 16  1  0
 16 17  1  0
 17 18  2  0
 18 19  1  0
 19 20  1  0
 20 21  1  0
 21 22  1  0
 22 23  1  0
 22 24  1  0
 24 25  1  0
 24 26  1  0
 19 27  1  0
 27 28  1  1
 27 29  1  0
 29 30  1  0
 30 31  1  0
 31 32  1  6
  7  5  1  0
 31 10  1  0
 31 13  1  0
 27 15  1  0
 24 18  1  0
  1 33  1  0
  1 34  1  0
  1 35  1  0
  2 36  1  6
  3 37  1  0
  3 38  1  0
  4 39  1  0
  4 40  1  0
  5 41  1  6
  8 42  1  0
  8 43  1  0
  8 44  1  0
  9 45  1  0
  9 46  1  0
  9 47  1  0
 10 48  1  1
 11 49  1  0
 11 50  1  0
 12 51  1  0
 12 52  1  0
 14 53  1  0
 14 54  1  0
 14 55  1  0
 15 56  1  6
 16 57  1  0
 16 58  1  0
 17 59  1  0
 19 60  1  6
 20 61  1  0
 20 62  1  0
 21 63  1  0
 21 64  1  0
 22 65  1  1
 23 66  1  0
 25 67  1  0
 25 68  1  0
 25 69  1  0
 26 70  1  0
 26 71  1  0
 26 72  1  0
 28 73  1  0
 28 74  1  0
 28 75  1  0
 29 76  1  0
 29 77  1  0
 30 78  1  0
 30 79  1  0
 32 80  1  0
 32 81  1  0
 32 82  1  0
M  END
>  <meeko>  (5) 
{"is_sidechain": [false], "intermolecular_energy": 2.731, "internal_energy": -0.839}

$$$$
EPH_relaxed_0001_pdb2pqr_Repair_119_r2_0001_out
     RDKit          3D

 82 86  0  0  0  0  0  0  0  0999 V2000
   -0.3490   12.0520   -9.2650 C   0  0  0  0  0  0  0  0  0  0  0  0
    0.6220   12.8450   -8.3860 C   0  0  2  0  0  0  0  0  0  0  0  0
    1.8940   13.2580   -9.1530 C   0  0  0  0  0  0  0  0  0  0  0  0
    1.6220   14.1730  -10.3500 C   0  0  0  0  0  0  0  0  0  0  0  0
    2.0980   15.5710  -10.0980 C   0  0  2  0  0  0  0  0  0  0  0  0
    2.4460   15.8490   -8.7360 O   0  0  0  0  0  0  0  0  0  0  0  0
    1.3280   16.5800   -9.2660 C   0  0  0  0  0  0  0  0  0  0  0  0
    0.0180   16.2320   -8.6340 C   0  0  0  0  0  0  0  0  0  0  0  0
    1.6040   18.0370   -9.4720 C   0  0  0  0  0  0  0  0  0  0  0  0
    0.9970   12.0270   -7.1560 C   0  0  1  0  0  0  0  0  0  0  0  0
    2.3680   11.3160   -7.3080 C   0  0  0  0  0  0  0  0  0  0  0  0
    3.0270   11.3100   -5.9040 C   0  0  0  0  0  0  0  0  0  0  0  0
    1.8880   11.7130   -4.9380 C   0  0  1  0  0  0  0  0  0  0  0  0
    1.0790   10.3990   -4.7020 C   0  0  0  0  0  0  0  0  0  0  0  0
    2.3270   12.3710   -3.5890 C   0  0  2  0  0  0  0  0  0  0  0  0
    3.1790   11.4750   -2.6730 C   0  0  0  0  0  0  0  0  0  0  0  0
    2.4110   10.6480   -1.6960 C   0  0  0  0  0  0  0  0  0  0  0  0
    1.1200   10.8310   -1.3610 C   0  0  0  0  0  0  0  0  0  0  0  0
    0.3230   12.0200   -1.9150 C   0  0  1  0  0  0  0  0  0  0  0  0
   -0.4610   12.7000   -0.7620 C   0  0  0  0  0  0  0  0  0  0  0  0
   -1.3380   11.7180    0.0080 C   0  0  0  0  0  0  0  0  0  0  0  0
   -0.5020   10.5820    0.5930 C   0  0  2  0  0  0  0  0  0  0  0  0
    0.3640   11.1180    1.5980 O   0  0  0  0  0  0  0  0  0  0  0  0
    0.3400    9.8290   -0.4750 C   0  0  0  0  0  0  0  0  0  0  0  0
   -0.5980    9.0010   -1.3880 C   0  0  0  0  0  0  0  0  0  0  0  0
    1.2420    8.8040    0.2640 C   0  0  0  0  0  0  0  0  0  0  0  0
    1.1480   13.0590   -2.7900 C   0  0  1  0  0  0  0  0  0  0  0  0
    1.8030   14.1310   -1.8650 C   0  0  0  0  0  0  0  0  0  0  0  0
    0.1570   13.8350   -3.7360 C   0  0  0  0  0  0  0  0  0  0  0  0
   -0.1440   13.1930   -5.1030 C   0  0  0  0  0  0  0  0  0  0  0  0
    1.1500   12.7880   -5.8160 C   0  0  2  0  0  0  0  0  0  0  0  0
    1.9750   14.0920   -6.0860 C   0  0  0  0  0  0  0  0  0  0  0  0
   -1.0427   11.4855   -8.6263 H   0  0  0  0  0  0  0  0  0  0  0  0
   -0.9191   12.7460   -9.9001 H   0  0  0  0  0  0  0  0  0  0  0  0
    0.2172   11.3548   -9.9001 H   0  0  0  0  0  0  0  0  0  0  0  0
    0.1096   13.7676   -8.0758 H   0  0  0  0  0  0  0  0  0  0  0  0
    2.5628   13.7860   -8.4573 H   0  0  0  0  0  0  0  0  0  0  0  0
    2.3436   12.3357   -9.5495 H   0  0  0  0  0  0  0  0  0  0  0  0
    2.1442   13.7720  -11.2312 H   0  0  0  0  0  0  0  0  0  0  0  0
    0.5352   14.2055  -10.5169 H   0  0  0  0  0  0  0  0  0  0  0  0
    2.5384   15.6272  -11.1044 H   0  0  0  0  0  0  0  0  0  0  0  0
    0.1204   16.2592   -7.5391 H   0  0  0  0  0  0  0  0  0  0  0  0
   -0.7456   16.9585   -8.9490 H   0  0  0  0  0  0  0  0  0  0  0  0
   -0.2844   15.2224   -8.9490 H   0  0  0  0  0  0  0  0  0  0  0  0
    1.6982   18.5340   -8.4952 H   0  0  0  0  0  0  0  0  0  0  0  0
    2.5408   18.1566  -10.0361 H   0  0  0  0  0  0  0  0  0  0  0  0
    0.7759   18.4909  -10.0361 H   0  0  0  0  0  0  0  0  0  0  0  0
    0.1280   11.3542   -7.1091 H   0  0  0  0  0  0  0  0  0  0  0  0
    2.2227   10.2849   -7.6627 H   0  0  0  0  0  0  0  0  0  0  0  0
    3.0034   11.8356   -8.0403 H   0  0  0  0  0  0  0  0  0  0  0  0
    3.4086   10.3080   -5.6582 H   0  0  0  0  0  0  0  0  0  0  0  0
    3.8872   11.9929   -5.8435 H   0  0  0  0  0  0  0  0  0  0  0  0
    0.9712   10.2239   -3.6214 H   0  0  0  0  0  0  0  0  0  0  0  0
    0.0831   10.4945   -5.1592 H   0  0  0  0  0  0  0  0  0  0  0  0
    1.6127    9.5527   -5.1592 H   0  0  0  0  0  0  0  0  0  0  0  0
    2.9965   13.1761   -3.9260 H   0  0  0  0  0  0  0  0  0  0  0  0
    3.7619   10.7940   -3.3105 H   0  0  0  0  0  0  0  0  0  0  0  0
    3.7998   12.1565   -2.0729 H   0  0  0  0  0  0  0  0  0  0  0  0
    2.9450    9.8190   -1.2086 H   0  0  0  0  0  0  0  0  0  0  0  0
   -0.3821   11.6000   -2.6474 H   0  0  0  0  0  0  0  0  0  0  0  0
    0.2594   13.1515   -0.0640 H   0  0  0  0  0  0  0  0  0  0  0  0
   -1.1213   13.4578   -1.2088 H   0  0  0  0  0  0  0  0  0  0  0  0
   -1.8429   12.2518    0.8266 H   0  0  0  0  0  0  0  0  0  0  0  0
   -2.0767   11.2892   -0.6851 H   0  0  0  0  0  0  0  0  0  0  0  0
   -1.1983    9.8453    1.0202 H   0  0  0  0  0  0  0  0  0  0  0  0
    1.2130   10.6490    1.5350 H   0  0  0  0  0  0  0  0  0  0  0  0
   -1.2784    8.4004   -0.7664 H   0  0  0  0  0  0  0  0  0  0  0  0
   -1.1853    9.6806   -2.0230 H   0  0  0  0  0  0  0  0  0  0  0  0
    0.0035    8.3339   -2.0230 H   0  0  0  0  0  0  0  0  0  0  0  0
    1.1289    8.9325    1.3506 H   0  0  0  0  0  0  0  0  0  0  0  0
    0.9438    7.7833   -0.0175 H   0  0  0  0  0  0  0  0  0  0  0  0
    2.2923    8.9700   -0.0175 H   0  0  0  0  0  0  0  0  0  0  0  0
    1.6363   13.8582   -0.8125 H   0  0  0  0  0  0  0  0  0  0  0  0
    2.8837   14.1770   -2.0652 H   0  0  0  0  0  0  0  0  0  0  0  0
    1.3508   15.1136   -2.0652 H   0  0  0  0  0  0  0  0  0  0  0  0
   -0.7982   13.9423   -3.2012 H   0  0  0  0  0  0  0  0  0  0  0  0
    0.6641   14.7830   -3.9686 H   0  0  0  0  0  0  0  0  0  0  0  0
   -0.7662   12.2987   -4.9512 H   0  0  0  0  0  0  0  0  0  0  0  0
   -0.6725   13.9287   -5.7270 H   0  0  0  0  0  0  0  0  0  0  0  0
    2.2637   14.5483   -5.1276 H   0  0  0  0  0  0  0  0  0  0  0  0
    2.8793   13.8415   -6.6600 H   0  0  0  0  0  0  0  0  0  0  0  0
    1.3613   14.8019   -6.6600 H   0  0  0  0  0  0  0  0  0  0  0  0
  1  2  1  0
  2  3  1  0
  3  4  1  0
  4  5  1  0
  5  6  1  0
  6  7  1  0
  7  8  1  0
  7  9  1  0
  2 10  1  0
 10 11  1  0
 11 12  1  0
 12 13  1  0
 13 14  1  1
 13 15  1  0
 15 16  1  0
 16 17  1  0
 17 18  2  0
 18 19  1  0
 19 20  1  0
 20 21  1  0
 21 22  1  0
 22 23  1  0
 22 24  1  0
 24 25  1  0
 24 26  1  0
 19 27  1  0
 27 28  1  1
 27 29  1  0
 29 30  1  0
 30 31  1  0
 31 32  1  6
  7  5  1  0
 31 10  1  0
 31 13  1  0
 27 15  1  0
 24 18  1  0
  1 33  1  0
  1 34  1  0
  1 35  1  0
  2 36  1  1
  3 37  1  0
  3 38  1  0
  4 39  1  0
  4 40  1  0
  5 41  1  6
  8 42  1  0
  8 43  1  0
  8 44  1  0
  9 45  1  0
  9 46  1  0
  9 47  1  0
 10 48  1  1
 11 49  1  0
 11 50  1  0
 12 51  1  0
 12 52  1  0
 14 53  1  0
 14 54  1  0
 14 55  1  0
 15 56  1  6
 16 57  1  0
 16 58  1  0
 17 59  1  0
 19 60  1  6
 20 61  1  0
 20 62  1  0
 21 63  1  0
 21 64  1  0
 22 65  1  1
 23 66  1  0
 25 67  1  0
 25 68  1  0
 25 69  1  0
 26 70  1  0
 26 71  1  0
 26 72  1  0
 28 73  1  0
 28 74  1  0
 28 75  1  0
 29 76  1  0
 29 77  1  0
 30 78  1  0
 30 79  1  0
 32 80  1  0
 32 81  1  0
 32 82  1  0
M  END
>  <meeko>  (6) 
{"is_sidechain": [false], "intermolecular_energy": 2.731, "internal_energy": -0.839}

$$$$
EPH_relaxed_0001_pdb2pqr_Repair_119_r2_0001_out
     RDKit          3D

 82 86  0  0  0  0  0  0  0  0999 V2000
    3.3460   11.3720   -5.4220 C   0  0  0  0  0  0  0  0  0  0  0  0
    1.8380   11.2000   -5.2170 C   0  0  2  0  0  0  0  0  0  0  0  0
    1.0950   10.9550   -6.5450 C   0  0  0  0  0  0  0  0  0  0  0  0
    1.6240   11.7970   -7.7100 C   0  0  0  0  0  0  0  0  0  0  0  0
    0.6620   12.8820   -8.0900 C   0  0  2  0  0  0  0  0  0  0  0  0
    0.5110   13.0800   -9.5020 O   0  0  0  0  0  0  0  0  0  0  0  0
    1.0840   14.1740   -8.7670 C   0  0  0  0  0  0  0  0  0  0  0  0
    2.5160   14.4480   -9.1010 C   0  0  0  0  0  0  0  0  0  0  0  0
    0.1830   15.3650   -8.6590 C   0  0  0  0  0  0  0  0  0  0  0  0
    1.2660   12.4280   -4.5180 C   0  0  1  0  0  0  0  0  0  0  0  0
   -0.2810   12.3800   -4.3990 C   0  0  0  0  0  0  0  0  0  0  0  0
   -0.6470   13.0540   -3.0510 C   0  0  0  0  0  0  0  0  0  0  0  0
    0.6550   13.7560   -2.6000 C   0  0  1  0  0  0  0  0  0  0  0  0
    0.6880   15.0940   -3.4040 C   0  0  0  0  0  0  0  0  0  0  0  0
    0.8120   14.0020   -1.0640 C   0  0  2  0  0  0  0  0  0  0  0  0
   -0.2460   14.9290   -0.4410 C   0  0  0  0  0  0  0  0  0  0  0  0
    0.1070   16.3800   -0.4240 C   0  0  0  0  0  0  0  0  0  0  0  0
    1.3360   16.8880   -0.6280 C   0  0  0  0  0  0  0  0  0  0  0  0
    2.5490   15.9660   -0.8090 C   0  0  1  0  0  0  0  0  0  0  0  0
    3.7220   16.4750    0.0700 C   0  0  0  0  0  0  0  0  0  0  0  0
    4.0580   17.9400   -0.1940 C   0  0  0  0  0  0  0  0  0  0  0  0
    2.8430   18.8300    0.0530 C   0  0  2  0  0  0  0  0  0  0  0  0
    2.5290   18.8050    1.4490 O   0  0  0  0  0  0  0  0  0  0  0  0
    1.5960   18.4080   -0.7710 C   0  0  0  0  0  0  0  0  0  0  0  0
    1.8310   18.7210   -2.2700 C   0  0  0  0  0  0  0  0  0  0  0  0
    0.4040   19.2970   -0.3240 C   0  0  0  0  0  0  0  0  0  0  0  0
    2.2740   14.4120   -0.6190 C   0  0  1  0  0  0  0  0  0  0  0  0
    2.4050   14.0290    0.8870 C   0  0  0  0  0  0  0  0  0  0  0  0
    3.3830   13.5960   -1.3830 C   0  0  0  0  0  0  0  0  0  0  0  0
    3.1160   13.2820   -2.8670 C   0  0  0  0  0  0  0  0  0  0  0  0
    1.7160   12.6900   -3.0590 C   0  0  2  0  0  0  0  0  0  0  0  0
    1.6600   11.3320   -2.2790 C   0  0  0  0  0  0  0  0  0  0  0  0
    3.8449   11.4289   -4.4433 H   0  0  0  0  0  0  0  0  0  0  0  0
    3.7398   10.5130   -5.9850 H   0  0  0  0  0  0  0  0  0  0  0  0
    3.5363   12.2977   -5.9850 H   0  0  0  0  0  0  0  0  0  0  0  0
    1.6887   10.3103   -4.5876 H   0  0  0  0  0  0  0  0  0  0  0  0
    1.1977    9.8923   -6.8097 H   0  0  0  0  0  0  0  0  0  0  0  0
    0.0467   11.2481   -6.3861 H   0  0  0  0  0  0  0  0  0  0  0  0
    2.5794   12.2549   -7.4142 H   0  0  0  0  0  0  0  0  0  0  0  0
    1.7568   11.1359   -8.5791 H   0  0  0  0  0  0  0  0  0  0  0  0
    0.0467   12.6816   -7.2005 H   0  0  0  0  0  0  0  0  0  0  0  0
    3.0945   14.5587   -8.1720 H   0  0  0  0  0  0  0  0  0  0  0  0
    2.9221   13.6113   -9.6883 H   0  0  0  0  0  0  0  0  0  0  0  0
    2.5845   15.3755   -9.6883 H   0  0  0  0  0  0  0  0  0  0  0  0
    0.0075   15.5970   -7.5982 H   0  0  0  0  0  0  0  0  0  0  0  0
    0.6561   16.2284   -9.1497 H   0  0  0  0  0  0  0  0  0  0  0  0
   -0.7765   15.1446   -9.1497 H   0  0  0  0  0  0  0  0  0  0  0  0
    1.6566   13.2158   -5.1790 H   0  0  0  0  0  0  0  0  0  0  0  0
   -0.7424   12.9277   -5.2340 H   0  0  0  0  0  0  0  0  0  0  0  0
   -0.6480   11.3437   -4.4350 H   0  0  0  0  0  0  0  0  0  0  0  0
   -1.4553   13.7870   -3.1901 H   0  0  0  0  0  0  0  0  0  0  0  0
   -1.0096   12.3294   -2.3071 H   0  0  0  0  0  0  0  0  0  0  0  0
    0.7089   15.9421   -2.7038 H   0  0  0  0  0  0  0  0  0  0  0  0
    1.5870   15.1191   -4.0373 H   0  0  0  0  0  0  0  0  0  0  0  0
   -0.2087   15.1634   -4.0373 H   0  0  0  0  0  0  0  0  0  0  0  0
    0.6194   13.0037   -0.6441 H   0  0  0  0  0  0  0  0  0  0  0  0
   -1.1785   14.8128   -1.0127 H   0  0  0  0  0  0  0  0  0  0  0  0
   -0.3340   14.6251    0.6125 H   0  0  0  0  0  0  0  0  0  0  0  0
   -0.7067   17.0938   -0.2281 H   0  0  0  0  0  0  0  0  0  0  0  0
    2.8236   16.0304   -1.8722 H   0  0  0  0  0  0  0  0  0  0  0  0
    3.4444   16.3621    1.1284 H   0  0  0  0  0  0  0  0  0  0  0  0
    4.6111   15.8780   -0.1812 H   0  0  0  0  0  0  0  0  0  0  0  0
    4.8733   18.2491    0.4767 H   0  0  0  0  0  0  0  0  0  0  0  0
    4.3642   18.0467   -1.2451 H   0  0  0  0  0  0  0  0  0  0  0  0
    3.1065   19.8458   -0.2766 H   0  0  0  0  0  0  0  0  0  0  0  0
    1.5840   19.0160    1.5420 H   0  0  0  0  0  0  0  0  0  0  0  0
    2.4891   19.5975   -2.3628 H   0  0  0  0  0  0  0  0  0  0  0  0
    2.3036   17.8546   -2.7558 H   0  0  0  0  0  0  0  0  0  0  0  0
    0.8671   18.9331   -2.7558 H   0  0  0  0  0  0  0  0  0  0  0  0
    0.3618   19.3284    0.7747 H   0  0  0  0  0  0  0  0  0  0  0  0
    0.5398   20.3161   -0.7150 H   0  0  0  0  0  0  0  0  0  0  0  0
   -0.5341   18.8762   -0.7150 H   0  0  0  0  0  0  0  0  0  0  0  0
    2.1117   14.8866    1.5103 H   0  0  0  0  0  0  0  0  0  0  0  0
    1.7481   13.1745    1.1065 H   0  0  0  0  0  0  0  0  0  0  0  0
    3.4477   13.7558    1.1065 H   0  0  0  0  0  0  0  0  0  0  0  0
    4.3179   14.1730   -1.3280 H   0  0  0  0  0  0  0  0  0  0  0  0
    3.4154   12.6167   -0.8830 H   0  0  0  0  0  0  0  0  0  0  0  0
    3.1974   14.2103   -3.4515 H   0  0  0  0  0  0  0  0  0  0  0  0
    3.8581   12.5455   -3.2087 H   0  0  0  0  0  0  0  0  0  0  0  0
    1.6682   11.5300   -1.1970 H   0  0  0  0  0  0  0  0  0  0  0  0
    0.7389   10.7934   -2.5462 H   0  0  0  0  0  0  0  0  0  0  0  0
    2.5336   10.7194   -2.5462 H   0  0  0  0  0  0  0  0  0  0  0  0
  1  2  1  0
  2  3  1  0
  3  4  1  0
  4  5  1  0
  5  6  1  0
  6  7  1  0
  7  8  1  0
  7  9  1  0
  2 10  1  0
 10 11  1  0
 11 12  1  0
 12 13  1  0
 13 14  1  6
 13 15  1  0
 15 16  1  0
 16 17  1  0
 17 18  2  0
 18 19  1  0
 19 20  1  0
 20 21  1  0
 21 22  1  0
 22 23  1  0
 22 24  1  0
 24 25  1  0
 24 26  1  0
 19 27  1  0
 27 28  1  1
 27 29  1  0
 29 30  1  0
 30 31  1  0
 31 32  1  1
  7  5  1  0
 31 10  1  0
 31 13  1  0
 27 15  1  0
 24 18  1  0
  1 33  1  0
  1 34  1  0
  1 35  1  0
  2 36  1  1
  3 37  1  0
  3 38  1  0
  4 39  1  0
  4 40  1  0
  5 41  1  1
  8 42  1  0
  8 43  1  0
  8 44  1  0
  9 45  1  0
  9 46  1  0
  9 47  1  0
 10 48  1  6
 11 49  1  0
 11 50  1  0
 12 51  1  0
 12 52  1  0
 14 53  1  0
 14 54  1  0
 14 55  1  0
 15 56  1  1
 16 57  1  0
 16 58  1  0
 17 59  1  0
 19 60  1  6
 20 61  1  0
 20 62  1  0
 21 63  1  0
 21 64  1  0
 22 65  1  6
 23 66  1  0
 25 67  1  0
 25 68  1  0
 25 69  1  0
 26 70  1  0
 26 71  1  0
 26 72  1  0
 28 73  1  0
 28 74  1  0
 28 75  1  0
 29 76  1  0
 29 77  1  0
 30 78  1  0
 30 79  1  0
 32 80  1  0
 32 81  1  0
 32 82  1  0
M  END
>  <meeko>  (7) 
{"is_sidechain": [false], "intermolecular_energy": 2.731, "internal_energy": -0.839}

$$$$
EPH_relaxed_0001_pdb2pqr_Repair_119_r2_0001_out
     RDKit          3D

 82 86  0  0  0  0  0  0  0  0999 V2000
    0.2030   14.8340   -7.6190 C   0  0  0  0  0  0  0  0  0  0  0  0
    1.5560   14.1220   -7.7060 C   0  0  2  0  0  0  0  0  0  0  0  0
    1.8020   13.5110   -9.1000 C   0  0  0  0  0  0  0  0  0  0  0  0
    1.7420   11.9810   -9.1200 C   0  0  0  0  0  0  0  0  0  0  0  0
    0.4140   11.4850   -9.6070 C   0  0  2  0  0  0  0  0  0  0  0  0
   -0.6900   11.7890   -8.7450 O   0  0  0  0  0  0  0  0  0  0  0  0
   -0.3790   10.3960   -8.9090 C   0  0  0  0  0  0  0  0  0  0  0  0
    0.1290    9.7360   -7.6650 C   0  0  0  0  0  0  0  0  0  0  0  0
   -1.4010    9.6380   -9.6970 C   0  0  0  0  0  0  0  0  0  0  0  0
    1.6410   13.0370   -6.6390 C   0  0  1  0  0  0  0  0  0  0  0  0
    3.0630   12.4280   -6.5180 C   0  0  0  0  0  0  0  0  0  0  0  0
    3.2820   12.0960   -5.0190 C   0  0  0  0  0  0  0  0  0  0  0  0
    1.8750   12.2110   -4.3850 C   0  0  1  0  0  0  0  0  0  0  0  0
    1.1750   10.8550   -4.7140 C   0  0  0  0  0  0  0  0  0  0  0  0
    1.8310   12.5280   -2.8550 C   0  0  2  0  0  0  0  0  0  0  0  0
    2.4690   11.4600   -1.9490 C   0  0  0  0  0  0  0  0  0  0  0  0
    1.5410   10.3930   -1.4700 C   0  0  0  0  0  0  0  0  0  0  0  0
    0.1970   10.4470   -1.5160 C   0  0  0  0  0  0  0  0  0  0  0  0
   -0.5250   11.7100   -2.0050 C   0  0  1  0  0  0  0  0  0  0  0  0
   -1.6770   12.0590   -1.0270 C   0  0  0  0  0  0  0  0  0  0  0  0
   -2.6320   10.8900   -0.8070 C   0  0  0  0  0  0  0  0  0  0  0  0
   -1.8880    9.6710   -0.2670 C   0  0  2  0  0  0  0  0  0  0  0  0
   -1.4130    9.9680    1.0500 O   0  0  0  0  0  0  0  0  0  0  0  0
   -0.6970    9.2330   -1.1650 C   0  0  0  0  0  0  0  0  0  0  0  0
   -1.2370    8.6270   -2.4840 C   0  0  0  0  0  0  0  0  0  0  0  0
    0.0530    8.0850   -0.4360 C   0  0  0  0  0  0  0  0  0  0  0  0
    0.4040   12.9600   -2.3230 C   0  0  1  0  0  0  0  0  0  0  0  0
    0.6450   13.7890   -1.0250 C   0  0  0  0  0  0  0  0  0  0  0  0
   -0.3440   13.9140   -3.3270 C   0  0  0  0  0  0  0  0  0  0  0  0
   -0.1650   13.6220   -4.8290 C   0  0  0  0  0  0  0  0  0  0  0  0
    1.3160   13.4470   -5.1800 C   0  0  2  0  0  0  0  0  0  0  0  0
    2.0420   14.8020   -4.8810 C   0  0  0  0  0  0  0  0  0  0  0  0
   -0.0688   14.9770   -6.5628 H   0  0  0  0  0  0  0  0  0  0  0  0
    0.2712   15.8130   -8.1159 H   0  0  0  0  0  0  0  0  0  0  0  0
   -0.5653   14.2234   -8.1159 H   0  0  0  0  0  0  0  0  0  0  0  0
    2.3387   14.8754   -7.5335 H   0  0  0  0  0  0  0  0  0  0  0  0
    1.0365   13.8977   -9.7888 H   0  0  0  0  0  0  0  0  0  0  0  0
    2.8205   13.7971   -9.4015 H   0  0  0  0  0  0  0  0  0  0  0  0
    2.5305   11.6019   -9.7867 H   0  0  0  0  0  0  0  0  0  0  0  0
    1.8876   11.6185   -8.0917 H   0  0  0  0  0  0  0  0  0  0  0  0
    0.7216   11.6171  -10.6548 H   0  0  0  0  0  0  0  0  0  0  0  0
   -0.2722   10.2573   -6.7834 H   0  0  0  0  0  0  0  0  0  0  0  0
   -0.1955    8.6851   -7.6488 H   0  0  0  0  0  0  0  0  0  0  0  0
    1.2280    9.7807   -7.6488 H   0  0  0  0  0  0  0  0  0  0  0  0
   -2.0899    9.1270   -9.0083 H   0  0  0  0  0  0  0  0  0  0  0  0
   -1.9671   10.3363  -10.3309 H   0  0  0  0  0  0  0  0  0  0  0  0
   -0.8971    8.8936  -10.3309 H   0  0  0  0  0  0  0  0  0  0  0  0
    0.8718   12.3470   -7.0162 H   0  0  0  0  0  0  0  0  0  0  0  0
    3.1356   11.5123   -7.1232 H   0  0  0  0  0  0  0  0  0  0  0  0
    3.8261   13.1317   -6.8821 H   0  0  0  0  0  0  0  0  0  0  0  0
    3.6793   11.0771   -4.9008 H   0  0  0  0  0  0  0  0  0  0  0  0
    4.0102   12.7700   -4.5442 H   0  0  0  0  0  0  0  0  0  0  0  0
    0.9103   10.3423   -3.7775 H   0  0  0  0  0  0  0  0  0  0  0  0
    0.2626   11.0456   -5.2982 H   0  0  0  0  0  0  0  0  0  0  0  0
    1.8588   10.2216   -5.2982 H   0  0  0  0  0  0  0  0  0  0  0  0
    2.4811   13.4121   -2.7784 H   0  0  0  0  0  0  0  0  0  0  0  0
    3.2805   10.9767   -2.5128 H   0  0  0  0  0  0  0  0  0  0  0  0
    2.8131   11.9906   -1.0490 H   0  0  0  0  0  0  0  0  0  0  0  0
    1.9941    9.4860   -1.0434 H   0  0  0  0  0  0  0  0  0  0  0  0
   -0.9370   11.4611   -2.9941 H   0  0  0  0  0  0  0  0  0  0  0  0
   -1.2422   12.3463   -0.0583 H   0  0  0  0  0  0  0  0  0  0  0  0
   -2.2545   12.8828   -1.4718 H   0  0  0  0  0  0  0  0  0  0  0  0
   -3.4058   11.1885   -0.0845 H   0  0  0  0  0  0  0  0  0  0  0  0
   -3.0884   10.6235   -1.7717 H   0  0  0  0  0  0  0  0  0  0  0  0
   -2.5971    8.8302   -0.2541 H   0  0  0  0  0  0  0  0  0  0  0  0
   -2.1860   10.1800    1.6010 H   0  0  0  0  0  0  0  0  0  0  0  0
   -1.9525    7.8241   -2.2527 H   0  0  0  0  0  0  0  0  0  0  0  0
   -1.7416    9.4108   -3.0680 H   0  0  0  0  0  0  0  0  0  0  0  0
   -0.4005    8.2157   -3.0680 H   0  0  0  0  0  0  0  0  0  0  0  0
   -0.0362    8.2215    0.6518 H   0  0  0  0  0  0  0  0  0  0  0  0
   -0.3887    7.1190   -0.7217 H   0  0  0  0  0  0  0  0  0  0  0  0
    1.1151    8.1014   -0.7217 H   0  0  0  0  0  0  0  0  0  0  0  0
    0.4606   13.1548   -0.1454 H   0  0  0  0  0  0  0  0  0  0  0  0
    1.6847   14.1479   -1.0069 H   0  0  0  0  0  0  0  0  0  0  0  0
   -0.0402   14.6493   -1.0069 H   0  0  0  0  0  0  0  0  0  0  0  0
   -1.4193   13.8555   -3.1027 H   0  0  0  0  0  0  0  0  0  0  0  0
    0.1069   14.9052   -3.1714 H   0  0  0  0  0  0  0  0  0  0  0  0
   -0.7068   12.6991   -5.0834 H   0  0  0  0  0  0  0  0  0  0  0  0
   -0.5635   14.4722   -5.4019 H   0  0  0  0  0  0  0  0  0  0  0  0
    2.1185   14.9447   -3.7930 H   0  0  0  0  0  0  0  0  0  0  0  0
    3.0504   14.7824   -5.3200 H   0  0  0  0  0  0  0  0  0  0  0  0
    1.4671   15.6307   -5.3200 H   0  0  0  0  0  0  0  0  0  0  0  0
  1  2  1  0
  2  3  1  0
  3  4  1  0
  4  5  1  0
  5  6  1  0
  6  7  1  0
  7  8  1  0
  7  9  1  0
  2 10  1  0
 10 11  1  0
 11 12  1  0
 12 13  1  0
 13 14  1  1
 13 15  1  0
 15 16  1  0
 16 17  1  0
 17 18  2  0
 18 19  1  0
 19 20  1  0
 20 21  1  0
 21 22  1  0
 22 23  1  0
 22 24  1  0
 24 25  1  0
 24 26  1  0
 19 27  1  0
 27 28  1  1
 27 29  1  0
 29 30  1  0
 30 31  1  0
 31 32  1  1
  7  5  1  0
 31 10  1  0
 31 13  1  0
 27 15  1  0
 24 18  1  0
  1 33  1  0
  1 34  1  0
  1 35  1  0
  2 36  1  1
  3 37  1  0
  3 38  1  0
  4 39  1  0
  4 40  1  0
  5 41  1  6
  8 42  1  0
  8 43  1  0
  8 44  1  0
  9 45  1  0
  9 46  1  0
  9 47  1  0
 10 48  1  6
 11 49  1  0
 11 50  1  0
 12 51  1  0
 12 52  1  0
 14 53  1  0
 14 54  1  0
 14 55  1  0
 15 56  1  6
 16 57  1  0
 16 58  1  0
 17 59  1  0
 19 60  1  6
 20 61  1  0
 20 62  1  0
 21 63  1  0
 21 64  1  0
 22 65  1  1
 23 66  1  0
 25 67  1  0
 25 68  1  0
 25 69  1  0
 26 70  1  0
 26 71  1  0
 26 72  1  0
 28 73  1  0
 28 74  1  0
 28 75  1  0
 29 76  1  0
 29 77  1  0
 30 78  1  0
 30 79  1  0
 32 80  1  0
 32 81  1  0
 32 82  1  0
M  END
>  <meeko>  (8) 
{"is_sidechain": [false], "intermolecular_energy": 2.731, "internal_energy": -0.839}

$$$$
EPH_relaxed_0001_pdb2pqr_Repair_119_r2_0001_out
     RDKit          3D

 82 86  0  0  0  0  0  0  0  0999 V2000
    3.8170   10.9290   -4.0060 C   0  0  0  0  0  0  0  0  0  0  0  0
    2.4580   11.0150   -4.7080 C   0  0  2  0  0  0  0  0  0  0  0  0
    2.6020   11.3010   -6.2170 C   0  0  0  0  0  0  0  0  0  0  0  0
    1.3560   11.9310   -6.8450 C   0  0  0  0  0  0  0  0  0  0  0  0
    0.3990   10.8910   -7.3430 C   0  0  2  0  0  0  0  0  0  0  0  0
    0.9850    9.8990   -8.1970 O   0  0  0  0  0  0  0  0  0  0  0  0
   -0.0010   10.7520   -8.8000 C   0  0  0  0  0  0  0  0  0  0  0  0
    0.5460   11.6670   -9.8500 C   0  0  0  0  0  0  0  0  0  0  0  0
   -1.2850   10.0540   -9.1260 C   0  0  0  0  0  0  0  0  0  0  0  0
    1.6030   12.0930   -4.0530 C   0  0  1  0  0  0  0  0  0  0  0  0
    0.1470   11.6240   -3.7930 C   0  0  0  0  0  0  0  0  0  0  0  0
   -0.3100   12.2940   -2.4710 C   0  0  0  0  0  0  0  0  0  0  0  0
    0.7610   13.3740   -2.1910 C   0  0  1  0  0  0  0  0  0  0  0  0
    0.3550   14.5830   -3.0910 C   0  0  0  0  0  0  0  0  0  0  0  0
    0.9390   13.8000   -0.6980 C   0  0  2  0  0  0  0  0  0  0  0  0
   -0.2990   14.4470   -0.0520 C   0  0  0  0  0  0  0  0  0  0  0  0
   -0.3790   15.9330   -0.1740 C   0  0  0  0  0  0  0  0  0  0  0  0
    0.6370   16.7450   -0.5230 C   0  0  0  0  0  0  0  0  0  0  0  0
    2.0490   16.1890   -0.7440 C   0  0  1  0  0  0  0  0  0  0  0  0
    3.0800   17.0890   -0.0130 C   0  0  0  0  0  0  0  0  0  0  0  0
    2.9620   18.5570   -0.4120 C   0  0  0  0  0  0  0  0  0  0  0  0
    1.5600   19.0890   -0.1240 C   0  0  2  0  0  0  0  0  0  0  0  0
    1.3580   19.1100    1.2920 O   0  0  0  0  0  0  0  0  0  0  0  0
    0.4370   18.2550   -0.8010 C   0  0  0  0  0  0  0  0  0  0  0  0
    0.4750   18.4770   -2.3330 C   0  0  0  0  0  0  0  0  0  0  0  0
   -0.9290   18.8120   -0.3150 C   0  0  0  0  0  0  0  0  0  0  0  0
    2.2460   14.6460   -0.4160 C   0  0  1  0  0  0  0  0  0  0  0  0
    2.5790   14.4610    1.0960 C   0  0  0  0  0  0  0  0  0  0  0  0
    3.4910   14.1060   -1.2140 C   0  0  0  0  0  0  0  0  0  0  0  0
    3.2310   13.5880   -2.6420 C   0  0  0  0  0  0  0  0  0  0  0  0
    2.0520   12.6110   -2.6630 C   0  0  2  0  0  0  0  0  0  0  0  0
    2.4400   11.3730   -1.7840 C   0  0  0  0  0  0  0  0  0  0  0  0
    3.6680   10.9384   -2.9162 H   0  0  0  0  0  0  0  0  0  0  0  0
    4.3227    9.9971   -4.2989 H   0  0  0  0  0  0  0  0  0  0  0  0
    4.4361   11.7898   -4.2989 H   0  0  0  0  0  0  0  0  0  0  0  0
    1.9674   10.0361   -4.6025 H   0  0  0  0  0  0  0  0  0  0  0  0
    3.4489   11.9881   -6.3611 H   0  0  0  0  0  0  0  0  0  0  0  0
    2.7584   10.3325   -6.7145 H   0  0  0  0  0  0  0  0  0  0  0  0
    0.8493   12.5485   -6.0888 H   0  0  0  0  0  0  0  0  0  0  0  0
    1.6759   12.5409   -7.7028 H   0  0  0  0  0  0  0  0  0  0  0  0
   -0.1932   10.9585   -6.4185 H   0  0  0  0  0  0  0  0  0  0  0  0
    1.0535   12.5159   -9.3684 H   0  0  0  0  0  0  0  0  0  0  0  0
    1.2642   11.1180  -10.4767 H   0  0  0  0  0  0  0  0  0  0  0  0
   -0.2776   12.0397  -10.4767 H   0  0  0  0  0  0  0  0  0  0  0  0
   -1.7978    9.7752   -8.1936 H   0  0  0  0  0  0  0  0  0  0  0  0
   -1.9292   10.7261   -9.7119 H   0  0  0  0  0  0  0  0  0  0  0  0
   -1.0713    9.1479   -9.7119 H   0  0  0  0  0  0  0  0  0  0  0  0
    1.7065   12.8911   -4.8029 H   0  0  0  0  0  0  0  0  0  0  0  0
   -0.5054   11.9370   -4.6215 H   0  0  0  0  0  0  0  0  0  0  0  0
    0.0925   10.5278   -3.7195 H   0  0  0  0  0  0  0  0  0  0  0  0
   -1.3024   12.7531   -2.5910 H   0  0  0  0  0  0  0  0  0  0  0  0
   -0.3998   11.5716   -1.6463 H   0  0  0  0  0  0  0  0  0  0  0  0
    0.0693   15.4338   -2.4551 H   0  0  0  0  0  0  0  0  0  0  0  0
    1.2062   14.8695   -3.7261 H   0  0  0  0  0  0  0  0  0  0  0  0
   -0.4966   14.2977   -3.7261 H   0  0  0  0  0  0  0  0  0  0  0  0
    1.0698   12.8324   -0.1913 H   0  0  0  0  0  0  0  0  0  0  0  0
   -1.1936   14.0183   -0.5273 H   0  0  0  0  0  0  0  0  0  0  0  0
   -0.2270   14.2335    1.0247 H   0  0  0  0  0  0  0  0  0  0  0  0
   -1.3498   16.4042    0.0392 H   0  0  0  0  0  0  0  0  0  0  0  0
    2.2238   16.2260   -1.8294 H   0  0  0  0  0  0  0  0  0  0  0  0
    2.9159   17.0041    1.0714 H   0  0  0  0  0  0  0  0  0  0  0  0
    4.0851   16.7451   -0.2986 H   0  0  0  0  0  0  0  0  0  0  0  0
    3.6949   19.1455    0.1594 H   0  0  0  0  0  0  0  0  0  0  0  0
    3.1563   18.6446   -1.4912 H   0  0  0  0  0  0  0  0  0  0  0  0
    1.4968   20.1015   -0.5493 H   0  0  0  0  0  0  0  0  0  0  0  0
    1.4220   20.0350    1.5850 H   0  0  0  0  0  0  0  0  0  0  0  0
    0.6571   19.5409   -2.5449 H   0  0  0  0  0  0  0  0  0  0  0  0
    1.2827   17.8724   -2.7712 H   0  0  0  0  0  0  0  0  0  0  0  0
   -0.4878   18.1754   -2.7712 H   0  0  0  0  0  0  0  0  0  0  0  0
   -0.9510   18.8210    0.7847 H   0  0  0  0  0  0  0  0  0  0  0  0
   -1.0626   19.8364   -0.6928 H   0  0  0  0  0  0  0  0  0  0  0  0
   -1.7408   18.1731   -0.6928 H   0  0  0  0  0  0  0  0  0  0  0  0
    1.7782   14.9059    1.7049 H   0  0  0  0  0  0  0  0  0  0  0  0
    2.6607   13.3882    1.3249 H   0  0  0  0  0  0  0  0  0  0  0  0
    3.5330   14.9584    1.3249 H   0  0  0  0  0  0  0  0  0  0  0  0
    4.2213   14.9255   -1.2853 H   0  0  0  0  0  0  0  0  0  0  0  0
    3.8362   13.2281   -0.6483 H   0  0  0  0  0  0  0  0  0  0  0  0
    3.0037   14.4408   -3.2986 H   0  0  0  0  0  0  0  0  0  0  0  0
    4.1302   13.0611   -2.9937 H   0  0  0  0  0  0  0  0  0  0  0  0
    2.3568   11.6384   -0.7197 H   0  0  0  0  0  0  0  0  0  0  0  0
    1.7607   10.5372   -2.0076 H   0  0  0  0  0  0  0  0  0  0  0  0
    3.4748   11.0744   -2.0076 H   0  0  0  0  0  0  0  0  0  0  0  0
  1  2  1  0
  2  3  1  0
  3  4  1  0
  4  5  1  0
  5  6  1  0
  6  7  1  0
  7  8  1  0
  7  9  1  0
  2 10  1  0
 10 11  1  0
 11 12  1  0
 12 13  1  0
 13 14  1  6
 13 15  1  0
 15 16  1  0
 16 17  1  0
 17 18  2  0
 18 19  1  0
 19 20  1  0
 20 21  1  0
 21 22  1  0
 22 23  1  0
 22 24  1  0
 24 25  1  0
 24 26  1  0
 19 27  1  0
 27 28  1  1
 27 29  1  0
 29 30  1  0
 30 31  1  0
 31 32  1  1
  7  5  1  0
 31 10  1  0
 31 13  1  0
 27 15  1  0
 24 18  1  0
  1 33  1  0
  1 34  1  0
  1 35  1  0
  2 36  1  6
  3 37  1  0
  3 38  1  0
  4 39  1  0
  4 40  1  0
  5 41  1  1
  8 42  1  0
  8 43  1  0
  8 44  1  0
  9 45  1  0
  9 46  1  0
  9 47  1  0
 10 48  1  6
 11 49  1  0
 11 50  1  0
 12 51  1  0
 12 52  1  0
 14 53  1  0
 14 54  1  0
 14 55  1  0
 15 56  1  1
 16 57  1  0
 16 58  1  0
 17 59  1  0
 19 60  1  6
 20 61  1  0
 20 62  1  0
 21 63  1  0
 21 64  1  0
 22 65  1  6
 23 66  1  0
 25 67  1  0
 25 68  1  0
 25 69  1  0
 26 70  1  0
 26 71  1  0
 26 72  1  0
 28 73  1  0
 28 74  1  0
 28 75  1  0
 29 76  1  0
 29 77  1  0
 30 78  1  0
 30 79  1  0
 32 80  1  0
 32 81  1  0
 32 82  1  0
M  END
>  <meeko>  (9) 
{"is_sidechain": [false], "intermolecular_energy": 2.731, "internal_energy": -0.839}

$$$$
EPH_relaxed_0001_pdb2pqr_Repair_119_r2_0001_out
     RDKit          3D

 82 86  0  0  0  0  0  0  0  0999 V2000
   -5.1710    5.8520   -1.5810 C   0  0  0  0  0  0  0  0  0  0  0  0
   -5.4380    7.3530   -1.7340 C   0  0  2  0  0  0  0  0  0  0  0  0
   -5.1930    8.1220   -0.4200 C   0  0  0  0  0  0  0  0  0  0  0  0
   -4.1340    9.2210   -0.5390 C   0  0  0  0  0  0  0  0  0  0  0  0
   -2.7900    8.6590   -0.8950 C   0  0  2  0  0  0  0  0  0  0  0  0
   -1.7660    8.8920    0.0810 O   0  0  0  0  0  0  0  0  0  0  0  0
   -1.5780    9.5190   -1.1990 C   0  0  0  0  0  0  0  0  0  0  0  0
   -1.6510   11.0130   -1.1610 C   0  0  0  0  0  0  0  0  0  0  0  0
   -0.4630    8.9260   -2.0020 C   0  0  0  0  0  0  0  0  0  0  0  0
   -6.8670    7.5800   -2.2130 C   0  0  1  0  0  0  0  0  0  0  0  0
   -7.1590    6.8880   -3.5700 C   0  0  0  0  0  0  0  0  0  0  0  0
   -8.6350    6.4150   -3.5230 C   0  0  0  0  0  0  0  0  0  0  0  0
   -9.2350    7.1340   -2.2920 C   0  0  1  0  0  0  0  0  0  0  0  0
   -9.5800    8.5700   -2.7950 C   0  0  0  0  0  0  0  0  0  0  0  0
  -10.4690    6.4450   -1.6230 C   0  0  2  0  0  0  0  0  0  0  0  0
  -11.7130    6.3210   -2.5200 C   0  0  0  0  0  0  0  0  0  0  0  0
  -12.6680    7.4670   -2.4470 C   0  0  0  0  0  0  0  0  0  0  0  0
  -12.6820    8.4140   -1.4900 C   0  0  0  0  0  0  0  0  0  0  0  0
  -11.7310    8.3340   -0.2890 C   0  0  1  0  0  0  0  0  0  0  0  0
  -12.5210    8.6100    1.0170 C   0  0  0  0  0  0  0  0  0  0  0  0
  -13.2900    9.9270    0.9680 C   0  0  0  0  0  0  0  0  0  0  0  0
  -14.2670    9.9450   -0.2050 C   0  0  2  0  0  0  0  0  0  0  0  0
  -15.2870    8.9700    0.0300 O   0  0  0  0  0  0  0  0  0  0  0  0
  -13.5850    9.6680   -1.5750 C   0  0  0  0  0  0  0  0  0  0  0  0
  -12.7020   10.8780   -1.9700 C   0  0  0  0  0  0  0  0  0  0  0  0
  -14.7000    9.5740   -2.6520 C   0  0  0  0  0  0  0  0  0  0  0  0
  -10.8390    7.0210   -0.1970 C   0  0  1  0  0  0  0  0  0  0  0  0
  -11.6230    5.8980    0.5480 C   0  0  0  0  0  0  0  0  0  0  0  0
   -9.5640    7.3260    0.6750 C   0  0  0  0  0  0  0  0  0  0  0  0
   -8.3370    7.8940   -0.0640 C   0  0  0  0  0  0  0  0  0  0  0  0
   -8.0120    7.0610   -1.3070 C   0  0  2  0  0  0  0  0  0  0  0  0
   -7.6390    5.6160   -0.8310 C   0  0  0  0  0  0  0  0  0  0  0  0
   -5.1252    5.5948   -0.5125 H   0  0  0  0  0  0  0  0  0  0  0  0
   -5.9823    5.2845   -2.0603 H   0  0  0  0  0  0  0  0  0  0  0  0
   -4.2138    5.5991   -2.0603 H   0  0  0  0  0  0  0  0  0  0  0  0
   -4.7301    7.7418   -2.4808 H   0  0  0  0  0  0  0  0  0  0  0  0
   -6.1404    8.5850   -0.1066 H   0  0  0  0  0  0  0  0  0  0  0  0
   -4.8192    7.3932    0.3143 H   0  0  0  0  0  0  0  0  0  0  0  0
   -4.4425    9.9303   -1.3211 H   0  0  0  0  0  0  0  0  0  0  0  0
   -4.0489    9.7226    0.4363 H   0  0  0  0  0  0  0  0  0  0  0  0
   -3.2567    7.8238   -1.4379 H   0  0  0  0  0  0  0  0  0  0  0  0
   -1.6676   11.3528   -0.1149 H   0  0  0  0  0  0  0  0  0  0  0  0
   -0.7725   11.4361   -1.6701 H   0  0  0  0  0  0  0  0  0  0  0  0
   -2.5666   11.3484   -1.6701 H   0  0  0  0  0  0  0  0  0  0  0  0
    0.3015    8.5194   -1.3236 H   0  0  0  0  0  0  0  0  0  0  0  0
   -0.8572    8.1184   -2.6363 H   0  0  0  0  0  0  0  0  0  0  0  0
   -0.0137    9.7043   -2.6363 H   0  0  0  0  0  0  0  0  0  0  0  0
   -6.8793    8.6796   -2.2414 H   0  0  0  0  0  0  0  0  0  0  0  0
   -7.0154    7.5995   -4.3966 H   0  0  0  0  0  0  0  0  0  0  0  0
   -6.4779    6.0403   -3.7355 H   0  0  0  0  0  0  0  0  0  0  0  0
   -9.1661    6.7075   -4.4408 H   0  0  0  0  0  0  0  0  0  0  0  0
   -8.7207    5.3208   -3.4503 H   0  0  0  0  0  0  0  0  0  0  0  0
   -9.7392    9.2326   -1.9315 H   0  0  0  0  0  0  0  0  0  0  0  0
   -8.7487    8.9547   -3.4041 H   0  0  0  0  0  0  0  0  0  0  0  0
  -10.4953    8.5351   -3.4041 H   0  0  0  0  0  0  0  0  0  0  0  0
  -10.1096    5.4170   -1.4678 H   0  0  0  0  0  0  0  0  0  0  0  0
  -11.3730    6.2276   -3.5619 H   0  0  0  0  0  0  0  0  0  0  0  0
  -12.2643    5.4413   -2.1564 H   0  0  0  0  0  0  0  0  0  0  0  0
  -13.4239    7.5439   -3.2424 H   0  0  0  0  0  0  0  0  0  0  0  0
  -10.9793    9.1220   -0.4437 H   0  0  0  0  0  0  0  0  0  0  0  0
  -13.2363    7.7897    1.1766 H   0  0  0  0  0  0  0  0  0  0  0  0
  -11.7936    8.6783    1.8393 H   0  0  0  0  0  0  0  0  0  0  0  0
  -13.8512   10.0513    1.9059 H   0  0  0  0  0  0  0  0  0  0  0  0
  -12.5706   10.7490    0.8384 H   0  0  0  0  0  0  0  0  0  0  0  0
  -14.6917   10.9579   -0.2651 H   0  0  0  0  0  0  0  0  0  0  0  0
  -15.1370    8.2320   -0.5850 H   0  0  0  0  0  0  0  0  0  0  0  0
  -12.3371   11.3780   -1.0607 H   0  0  0  0  0  0  0  0  0  0  0  0
  -11.8454   10.5282   -2.5649 H   0  0  0  0  0  0  0  0  0  0  0  0
  -13.2964   11.5870   -2.5649 H   0  0  0  0  0  0  0  0  0  0  0  0
  -15.6799    9.4914   -2.1591 H   0  0  0  0  0  0  0  0  0  0  0  0
  -14.6804   10.4770   -3.2799 H   0  0  0  0  0  0  0  0  0  0  0  0
  -14.5295    8.6870   -3.2799 H   0  0  0  0  0  0  0  0  0  0  0  0
  -11.5237    6.0402    1.6342 H   0  0  0  0  0  0  0  0  0  0  0  0
  -12.6857    5.9449    0.2677 H   0  0  0  0  0  0  0  0  0  0  0  0
  -11.2128    4.9166    0.2677 H   0  0  0  0  0  0  0  0  0  0  0  0
   -9.8547    8.0545    1.4463 H   0  0  0  0  0  0  0  0  0  0  0  0
   -9.2398    6.3490    1.0628 H   0  0  0  0  0  0  0  0  0  0  0  0
   -8.5485    8.9293   -0.3698 H   0  0  0  0  0  0  0  0  0  0  0  0
   -7.4725    7.8622    0.6155 H   0  0  0  0  0  0  0  0  0  0  0  0
   -7.6305    5.5829    0.2685 H   0  0  0  0  0  0  0  0  0  0  0  0
   -8.3819    4.9007   -1.2136 H   0  0  0  0  0  0  0  0  0  0  0  0
   -6.6427    5.3497   -1.2136 H   0  0  0  0  0  0  0  0  0  0  0  0
  1  2  1  0
  2  3  1  0
  3  4  1  0
  4  5  1  0
  5  6  1  0
  6  7  1  0
  7  8  1  0
  7  9  1  0
  2 10  1  0
 10 11  1  0
 11 12  1  0
 12 13  1  0
 13 14  1  6
 13 15  1  0
 15 16  1  0
 16 17  1  0
 17 18  2  0
 18 19  1  0
 19 20  1  0
 20 21  1  0
 21 22  1  0
 22 23  1  0
 22 24  1  0
 24 25  1  0
 24 26  1  0
 19 27  1  0
 27 28  1  1
 27 29  1  0
 29 30  1  0
 30 31  1  0
 31 32  1  1
  7  5  1  0
 31 10  1  0
 31 13  1  0
 27 15  1  0
 24 18  1  0
  1 33  1  0
  1 34  1  0
  1 35  1  0
  2 36  1  6
  3 37  1  0
  3 38  1  0
  4 39  1  0
  4 40  1  0
  5 41  1  6
  8 42  1  0
  8 43  1  0
  8 44  1  0
  9 45  1  0
  9 46  1  0
  9 47  1  0
 10 48  1  6
 11 49  1  0
 11 50  1  0
 12 51  1  0
 12 52  1  0
 14 53  1  0
 14 54  1  0
 14 55  1  0
 15 56  1  1
 16 57  1  0
 16 58  1  0
 17 59  1  0
 19 60  1  6
 20 61  1  0
 20 62  1  0
 21 63  1  0
 21 64  1  0
 22 65  1  6
 23 66  1  0
 25 67  1  0
 25 68  1  0
 25 69  1  0
 26 70  1  0
 26 71  1  0
 26 72  1  0
 28 73  1  0
 28 74  1  0
 28 75  1  0
 29 76  1  0
 29 77  1  0
 30 78  1  0
 30 79  1  0
 32 80  1  0
 32 81  1  0
 32 82  1  0
M  END
>  <meeko>  (10) 
{"is_sidechain": [false], "intermolecular_energy": 2.731, "internal_energy": -0.839}

$$$$
EPH_relaxed_0001_pdb2pqr_Repair_119_r2_0001_out
     RDKit          3D

 82 86  0  0  0  0  0  0  0  0999 V2000
    2.4280   15.8520   -8.5640 C   0  0  0  0  0  0  0  0  0  0  0  0
    2.1950   14.4530   -7.9870 C   0  0  2  0  0  0  0  0  0  0  0  0
    1.1700   13.6480   -8.8120 C   0  0  0  0  0  0  0  0  0  0  0  0
    1.7150   12.3190   -9.3420 C   0  0  0  0  0  0  0  0  0  0  0  0
    0.6520   11.5220  -10.0370 C   0  0  2  0  0  0  0  0  0  0  0  0
   -0.6720   11.7130   -9.5220 O   0  0  0  0  0  0  0  0  0  0  0  0
   -0.1180   10.3960   -9.3730 C   0  0  0  0  0  0  0  0  0  0  0  0
    0.1440   10.0040   -7.9530 C   0  0  0  0  0  0  0  0  0  0  0  0
   -0.7700    9.3660  -10.2410 C   0  0  0  0  0  0  0  0  0  0  0  0
    1.7300   14.5580   -6.5390 C   0  0  1  0  0  0  0  0  0  0  0  0
    0.4920   15.4800   -6.3750 C   0  0  0  0  0  0  0  0  0  0  0  0
   -0.3720   14.8700   -5.2420 C   0  0  0  0  0  0  0  0  0  0  0  0
    0.5460   13.8210   -4.5720 C   0  0  1  0  0  0  0  0  0  0  0  0
    1.4560   14.6430   -3.6070 C   0  0  0  0  0  0  0  0  0  0  0  0
   -0.1710   12.6480   -3.8290 C   0  0  2  0  0  0  0  0  0  0  0  0
   -1.0460   13.0690   -2.6350 C   0  0  0  0  0  0  0  0  0  0  0  0
   -0.3480   13.1050   -1.3150 C   0  0  0  0  0  0  0  0  0  0  0  0
    0.8440   12.5430   -1.0450 C   0  0  0  0  0  0  0  0  0  0  0  0
    1.5740   11.6990   -2.0980 C   0  0  1  0  0  0  0  0  0  0  0  0
    2.0830   10.3860   -1.4470 C   0  0  0  0  0  0  0  0  0  0  0  0
    2.9380   10.6400   -0.2090 C   0  0  0  0  0  0  0  0  0  0  0  0
    2.1590   11.4320    0.8380 C   0  0  2  0  0  0  0  0  0  0  0  0
    1.0900   10.6180    1.3300 O   0  0  0  0  0  0  0  0  0  0  0  0
    1.5880   12.7710    0.2940 C   0  0  0  0  0  0  0  0  0  0  0  0
    2.7470   13.7670    0.0430 C   0  0  0  0  0  0  0  0  0  0  0  0
    0.7070   13.4020    1.4060 C   0  0  0  0  0  0  0  0  0  0  0  0
    0.7800   11.4410   -3.4510 C   0  0  1  0  0  0  0  0  0  0  0  0
   -0.1310   10.1850   -3.3020 C   0  0  0  0  0  0  0  0  0  0  0  0
    1.8100   11.1100   -4.5960 C   0  0  0  0  0  0  0  0  0  0  0  0
    2.3930   12.3050   -5.3730 C   0  0  0  0  0  0  0  0  0  0  0  0
    1.2820   13.2510   -5.8390 C   0  0  2  0  0  0  0  0  0  0  0  0
    0.3630   12.4580   -6.8290 C   0  0  0  0  0  0  0  0  0  0  0  0
    2.5480   16.5725   -7.7415 H   0  0  0  0  0  0  0  0  0  0  0  0
    3.3376   15.8467   -9.1825 H   0  0  0  0  0  0  0  0  0  0  0  0
    1.5658   16.1418   -9.1825 H   0  0  0  0  0  0  0  0  0  0  0  0
    3.1525   13.9133   -8.0317 H   0  0  0  0  0  0  0  0  0  0  0  0
    0.2994   13.4366   -8.1737 H   0  0  0  0  0  0  0  0  0  0  0  0
    0.9092   14.2608   -9.6875 H   0  0  0  0  0  0  0  0  0  0  0  0
    2.5283   12.5254  -10.0533 H   0  0  0  0  0  0  0  0  0  0  0  0
    2.0797   11.7319   -8.4862 H   0  0  0  0  0  0  0  0  0  0  0  0
    1.1981   11.5805  -10.9901 H   0  0  0  0  0  0  0  0  0  0  0  0
   -0.3387   10.7262   -7.2782 H   0  0  0  0  0  0  0  0  0  0  0  0
   -0.2650    8.9997   -7.7684 H   0  0  0  0  0  0  0  0  0  0  0  0
    1.2284    9.9979   -7.7684 H   0  0  0  0  0  0  0  0  0  0  0  0
   -1.2515    8.6054   -9.6089 H   0  0  0  0  0  0  0  0  0  0  0  0
   -1.5278    9.8481  -10.8761 H   0  0  0  0  0  0  0  0  0  0  0  0
   -0.0100    8.8874  -10.8761 H   0  0  0  0  0  0  0  0  0  0  0  0
    2.6537   14.9347   -6.0755 H   0  0  0  0  0  0  0  0  0  0  0  0
    0.8104   16.4971   -6.1029 H   0  0  0  0  0  0  0  0  0  0  0  0
   -0.0776   15.5476   -7.3136 H   0  0  0  0  0  0  0  0  0  0  0  0
   -0.6680   15.6448   -4.5195 H   0  0  0  0  0  0  0  0  0  0  0  0
   -1.3043   14.4263   -5.6215 H   0  0  0  0  0  0  0  0  0  0  0  0
    1.1939   14.4062   -2.5652 H   0  0  0  0  0  0  0  0  0  0  0  0
    2.5098   14.3846   -3.7877 H   0  0  0  0  0  0  0  0  0  0  0  0
    1.3058   15.7176   -3.7877 H   0  0  0  0  0  0  0  0  0  0  0  0
   -0.8683   12.2769   -4.5945 H   0  0  0  0  0  0  0  0  0  0  0  0
   -1.4388   14.0759   -2.8396 H   0  0  0  0  0  0  0  0  0  0  0  0
   -1.8286   12.3012   -2.5450 H   0  0  0  0  0  0  0  0  0  0  0  0
   -0.8515   13.6362   -0.4938 H   0  0  0  0  0  0  0  0  0  0  0  0
    2.4285   12.3044   -2.4346 H   0  0  0  0  0  0  0  0  0  0  0  0
    1.2145    9.7766   -1.1567 H   0  0  0  0  0  0  0  0  0  0  0  0
    2.7117    9.8685   -2.1866 H   0  0  0  0  0  0  0  0  0  0  0  0
    3.2426    9.6751    0.2225 H   0  0  0  0  0  0  0  0  0  0  0  0
    3.8215   11.2242   -0.5059 H   0  0  0  0  0  0  0  0  0  0  0  0
    2.8615   11.6948    1.6426 H   0  0  0  0  0  0  0  0  0  0  0  0
    0.3100   11.1880    1.4350 H   0  0  0  0  0  0  0  0  0  0  0  0
    3.1489   14.1124    1.0070 H   0  0  0  0  0  0  0  0  0  0  0  0
    3.5430   13.2669   -0.5281 H   0  0  0  0  0  0  0  0  0  0  0  0
    2.3723   14.6292   -0.5281 H   0  0  0  0  0  0  0  0  0  0  0  0
    1.1028   13.1185    2.3924 H   0  0  0  0  0  0  0  0  0  0  0  0
    0.7200   14.4974    1.3067 H   0  0  0  0  0  0  0  0  0  0  0  0
   -0.3259   13.0371    1.3067 H   0  0  0  0  0  0  0  0  0  0  0  0
   -0.2871    9.9698   -2.2346 H   0  0  0  0  0  0  0  0  0  0  0  0
   -1.1014   10.3768   -3.7831 H   0  0  0  0  0  0  0  0  0  0  0  0
    0.3526    9.3221   -3.7831 H   0  0  0  0  0  0  0  0  0  0  0  0
    2.6512   10.5673   -4.1401 H   0  0  0  0  0  0  0  0  0  0  0  0
    1.2386   10.5348   -5.3394 H   0  0  0  0  0  0  0  0  0  0  0  0
    3.0844   12.8566   -4.7190 H   0  0  0  0  0  0  0  0  0  0  0  0
    2.9224   11.9229   -6.2583 H   0  0  0  0  0  0  0  0  0  0  0  0
   -0.3484   11.8441   -6.2571 H   0  0  0  0  0  0  0  0  0  0  0  0
   -0.1908   13.1665   -7.4626 H   0  0  0  0  0  0  0  0  0  0  0  0
    0.9828   11.8065   -7.4626 H   0  0  0  0  0  0  0  0  0  0  0  0
  1  2  1  0
  2  3  1  0
  3  4  1  0
  4  5  1  0
  5  6  1  0
  6  7  1  0
  7  8  1  0
  7  9  1  0
  2 10  1  0
 10 11  1  0
 11 12  1  0
 12 13  1  0
 13 14  1  1
 13 15  1  0
 15 16  1  0
 16 17  1  0
 17 18  2  0
 18 19  1  0
 19 20  1  0
 20 21  1  0
 21 22  1  0
 22 23  1  0
 22 24  1  0
 24 25  1  0
 24 26  1  0
 19 27  1  0
 27 28  1  1
 27 29  1  0
 29 30  1  0
 30 31  1  0
 31 32  1  6
  7  5  1  0
 31 10  1  0
 31 13  1  0
 27 15  1  0
 24 18  1  0
  1 33  1  0
  1 34  1  0
  1 35  1  0
  2 36  1  1
  3 37  1  0
  3 38  1  0
  4 39  1  0
  4 40  1  0
  5 41  1  6
  8 42  1  0
  8 43  1  0
  8 44  1  0
  9 45  1  0
  9 46  1  0
  9 47  1  0
 10 48  1  1
 11 49  1  0
 11 50  1  0
 12 51  1  0
 12 52  1  0
 14 53  1  0
 14 54  1  0
 14 55  1  0
 15 56  1  6
 16 57  1  0
 16 58  1  0
 17 59  1  0
 19 60  1  6
 20 61  1  0
 20 62  1  0
 21 63  1  0
 21 64  1  0
 22 65  1  1
 23 66  1  0
 25 67  1  0
 25 68  1  0
 25 69  1  0
 26 70  1  0
 26 71  1  0
 26 72  1  0
 28 73  1  0
 28 74  1  0
 28 75  1  0
 29 76  1  0
 29 77  1  0
 30 78  1  0
 30 79  1  0
 32 80  1  0
 32 81  1  0
 32 82  1  0
M  END
>  <meeko>  (11) 
{"is_sidechain": [false], "intermolecular_energy": 2.731, "internal_energy": -0.839}

$$$$
EPH_relaxed_0001_pdb2pqr_Repair_119_r2_0001_out
     RDKit          3D

 82 86  0  0  0  0  0  0  0  0999 V2000
    2.5030   15.8770   -8.0640 C   0  0  0  0  0  0  0  0  0  0  0  0
    2.1990   14.4610   -7.5680 C   0  0  2  0  0  0  0  0  0  0  0  0
    1.1850   13.7330   -8.4730 C   0  0  0  0  0  0  0  0  0  0  0  0
    0.3060   14.6790   -9.2970 C   0  0  0  0  0  0  0  0  0  0  0  0
    0.2990   14.3050  -10.7480 C   0  0  2  0  0  0  0  0  0  0  0  0
    1.2860   13.3350  -11.1220 O   0  0  0  0  0  0  0  0  0  0  0  0
    1.4290   14.6410  -11.7040 C   0  0  0  0  0  0  0  0  0  0  0  0
    2.6450   15.3830  -11.2450 C   0  0  0  0  0  0  0  0  0  0  0  0
    1.1360   14.6820  -13.1710 C   0  0  0  0  0  0  0  0  0  0  0  0
    1.6760   14.5130   -6.1370 C   0  0  1  0  0  0  0  0  0  0  0  0
    0.3910   15.3730   -6.0020 C   0  0  0  0  0  0  0  0  0  0  0  0
   -0.4860   14.6990   -4.9150 C   0  0  0  0  0  0  0  0  0  0  0  0
    0.4550   13.6790   -4.2320 C   0  0  1  0  0  0  0  0  0  0  0  0
    1.2890   14.5200   -3.2160 C   0  0  0  0  0  0  0  0  0  0  0  0
   -0.2350   12.4580   -3.5410 C   0  0  2  0  0  0  0  0  0  0  0  0
   -1.1720   12.8130   -2.3730 C   0  0  0  0  0  0  0  0  0  0  0  0
   -0.5270   12.8520   -1.0270 C   0  0  0  0  0  0  0  0  0  0  0  0
    0.6800   12.3380   -0.7230 C   0  0  0  0  0  0  0  0  0  0  0  0
    1.4860   11.5510   -1.7640 C   0  0  1  0  0  0  0  0  0  0  0  0
    2.0310   10.2490   -1.1210 C   0  0  0  0  0  0  0  0  0  0  0  0
    2.8260   10.5150    0.1530 C   0  0  0  0  0  0  0  0  0  0  0  0
    1.9730   11.2470    1.1860 C   0  0  2  0  0  0  0  0  0  0  0  0
    0.9250   10.3740    1.6200 O   0  0  0  0  0  0  0  0  0  0  0  0
    1.3610   12.5700    0.6480 C   0  0  0  0  0  0  0  0  0  0  0  0
    2.4810   13.6230    0.4620 C   0  0  0  0  0  0  0  0  0  0  0  0
    0.4110   13.1350    1.7380 C   0  0  0  0  0  0  0  0  0  0  0  0
    0.7560   11.2880   -3.1520 C   0  0  1  0  0  0  0  0  0  0  0  0
   -0.1010    9.9890   -3.0640 C   0  0  0  0  0  0  0  0  0  0  0  0
    1.8420   11.0290   -4.2620 C   0  0  0  0  0  0  0  0  0  0  0  0
    2.3980   12.2670   -4.9920 C   0  0  0  0  0  0  0  0  0  0  0  0
    1.2630   13.1710   -5.4810 C   0  0  2  0  0  0  0  0  0  0  0  0
    0.4190   12.3590   -6.5220 C   0  0  0  0  0  0  0  0  0  0  0  0
    2.6463   16.5447   -7.2017 H   0  0  0  0  0  0  0  0  0  0  0  0
    3.4187   15.8634   -8.6734 H   0  0  0  0  0  0  0  0  0  0  0  0
    1.6624   16.2404   -8.6734 H   0  0  0  0  0  0  0  0  0  0  0  0
    3.1389   13.8905   -7.6005 H   0  0  0  0  0  0  0  0  0  0  0  0
    1.7409   13.0838   -9.1655 H   0  0  0  0  0  0  0  0  0  0  0  0
    0.5142   13.1643   -7.8122 H   0  0  0  0  0  0  0  0  0  0  0  0
   -0.7236   14.6348   -8.9124 H   0  0  0  0  0  0  0  0  0  0  0  0
    0.7169   15.6953   -9.2065 H   0  0  0  0  0  0  0  0  0  0  0  0
   -0.7884   14.4606  -10.8067 H   0  0  0  0  0  0  0  0  0  0  0  0
    2.6714   15.3991  -10.1454 H   0  0  0  0  0  0  0  0  0  0  0  0
    3.5465   14.8809  -11.6261 H   0  0  0  0  0  0  0  0  0  0  0  0
    2.6108   16.4143  -11.6261 H   0  0  0  0  0  0  0  0  0  0  0  0
    0.0574   14.8329  -13.3254 H   0  0  0  0  0  0  0  0  0  0  0  0
    1.6921   15.5111  -13.6329 H   0  0  0  0  0  0  0  0  0  0  0  0
    1.4432   13.7321  -13.6329 H   0  0  0  0  0  0  0  0  0  0  0  0
    2.5632   14.9215   -5.6311 H   0  0  0  0  0  0  0  0  0  0  0  0
    0.6511   16.3975   -5.6974 H   0  0  0  0  0  0  0  0  0  0  0  0
   -0.1456   15.4347   -6.9603 H   0  0  0  0  0  0  0  0  0  0  0  0
   -0.8447   15.4433   -4.1888 H   0  0  0  0  0  0  0  0  0  0  0  0
   -1.3819   14.2216   -5.3386 H   0  0  0  0  0  0  0  0  0  0  0  0
    1.0095   14.2382   -2.1901 H   0  0  0  0  0  0  0  0  0  0  0  0
    2.3604   14.3249   -3.3708 H   0  0  0  0  0  0  0  0  0  0  0  0
    1.0850   15.5898   -3.3708 H   0  0  0  0  0  0  0  0  0  0  0  0
   -0.8859   12.0722   -4.3394 H   0  0  0  0  0  0  0  0  0  0  0  0
   -1.6027   13.8053   -2.5724 H   0  0  0  0  0  0  0  0  0  0  0  0
   -1.9208   12.0085   -2.3283 H   0  0  0  0  0  0  0  0  0  0  0  0
   -1.0847   13.3419   -0.2153 H   0  0  0  0  0  0  0  0  0  0  0  0
    2.3237   12.2016   -2.0556 H   0  0  0  0  0  0  0  0  0  0  0  0
    1.1817    9.5940   -0.8765 H   0  0  0  0  0  0  0  0  0  0  0  0
    2.7102    9.7770   -1.8463 H   0  0  0  0  0  0  0  0  0  0  0  0
    3.1594    9.5559    0.5760 H   0  0  0  0  0  0  0  0  0  0  0  0
    3.6911   11.1462   -0.0985 H   0  0  0  0  0  0  0  0  0  0  0  0
    2.6321   11.5235    2.0222 H   0  0  0  0  0  0  0  0  0  0  0  0
    1.3320    9.5270    1.8690 H   0  0  0  0  0  0  0  0  0  0  0  0
    2.8370   13.9577    1.4475 H   0  0  0  0  0  0  0  0  0  0  0  0
    3.3160   13.1753   -0.0968 H   0  0  0  0  0  0  0  0  0  0  0  0
    2.0856   14.4840   -0.0968 H   0  0  0  0  0  0  0  0  0  0  0  0
    0.8125   12.8962    2.7339 H   0  0  0  0  0  0  0  0  0  0  0  0
    0.3328   14.2265    1.6262 H   0  0  0  0  0  0  0  0  0  0  0  0
   -0.5854   12.6826    1.6262 H   0  0  0  0  0  0  0  0  0  0  0  0
   -0.2704    9.7323   -2.0079 H   0  0  0  0  0  0  0  0  0  0  0  0
   -1.0684   10.1536   -3.5610 H   0  0  0  0  0  0  0  0  0  0  0  0
    0.4310    9.1644   -3.5610 H   0  0  0  0  0  0  0  0  0  0  0  0
    2.6897   10.5154   -3.7849 H   0  0  0  0  0  0  0  0  0  0  0  0
    1.3266   10.4443   -5.0382 H   0  0  0  0  0  0  0  0  0  0  0  0
    3.0380   12.8350   -4.3008 H   0  0  0  0  0  0  0  0  0  0  0  0
    2.9775   11.9291   -5.8638 H   0  0  0  0  0  0  0  0  0  0  0  0
   -0.2750   11.6913   -5.9904 H   0  0  0  0  0  0  0  0  0  0  0  0
   -0.1529   13.0551   -7.1532 H   0  0  0  0  0  0  0  0  0  0  0  0
    1.0925   11.7606   -7.1532 H   0  0  0  0  0  0  0  0  0  0  0  0
  1  2  1  0
  2  3  1  0
  3  4  1  0
  4  5  1  0
  5  6  1  0
  6  7  1  0
  7  8  1  0
  7  9  1  0
  2 10  1  0
 10 11  1  0
 11 12  1  0
 12 13  1  0
 13 14  1  1
 13 15  1  0
 15 16  1  0
 16 17  1  0
 17 18  2  0
 18 19  1  0
 19 20  1  0
 20 21  1  0
 21 22  1  0
 22 23  1  0
 22 24  1  0
 24 25  1  0
 24 26  1  0
 19 27  1  0
 27 28  1  1
 27 29  1  0
 29 30  1  0
 30 31  1  0
 31 32  1  6
  7  5  1  0
 31 10  1  0
 31 13  1  0
 27 15  1  0
 24 18  1  0
  1 33  1  0
  1 34  1  0
  1 35  1  0
  2 36  1  1
  3 37  1  0
  3 38  1  0
  4 39  1  0
  4 40  1  0
  5 41  1  6
  8 42  1  0
  8 43  1  0
  8 44  1  0
  9 45  1  0
  9 46  1  0
  9 47  1  0
 10 48  1  1
 11 49  1  0
 11 50  1  0
 12 51  1  0
 12 52  1  0
 14 53  1  0
 14 54  1  0
 14 55  1  0
 15 56  1  6
 16 57  1  0
 16 58  1  0
 17 59  1  0
 19 60  1  6
 20 61  1  0
 20 62  1  0
 21 63  1  0
 21 64  1  0
 22 65  1  1
 23 66  1  0
 25 67  1  0
 25 68  1  0
 25 69  1  0
 26 70  1  0
 26 71  1  0
 26 72  1  0
 28 73  1  0
 28 74  1  0
 28 75  1  0
 29 76  1  0
 29 77  1  0
 30 78  1  0
 30 79  1  0
 32 80  1  0
 32 81  1  0
 32 82  1  0
M  END
>  <meeko>  (12) 
{"is_sidechain": [false], "intermolecular_energy": 2.731, "internal_energy": -0.839}

$$$$
EPH_relaxed_0001_pdb2pqr_Repair_119_r2_0001_out
     RDKit          3D

 82 86  0  0  0  0  0  0  0  0999 V2000
    3.3730   18.7620   -1.0150 C   0  0  0  0  0  0  0  0  0  0  0  0
    2.9320   17.7490    0.0460 C   0  0  2  0  0  0  0  0  0  0  0  0
    3.9920   17.5670    1.1500 C   0  0  0  0  0  0  0  0  0  0  0  0
    4.3920   18.8730    1.8420 C   0  0  0  0  0  0  0  0  0  0  0  0
    4.9060   18.6310    3.2290 C   0  0  2  0  0  0  0  0  0  0  0  0
    5.3020   19.8140    3.9350 O   0  0  0  0  0  0  0  0  0  0  0  0
    6.3460   18.8710    3.6420 C   0  0  0  0  0  0  0  0  0  0  0  0
    7.3630   19.3750    2.6660 C   0  0  0  0  0  0  0  0  0  0  0  0
    6.8730   18.1600    4.8480 C   0  0  0  0  0  0  0  0  0  0  0  0
    2.6270   16.4080   -0.6110 C   0  0  1  0  0  0  0  0  0  0  0  0
    2.0570   15.3680    0.3900 C   0  0  0  0  0  0  0  0  0  0  0  0
    1.0310   14.5100   -0.3920 C   0  0  0  0  0  0  0  0  0  0  0  0
    1.2830   14.8580   -1.8780 C   0  0  1  0  0  0  0  0  0  0  0  0
    2.5130   13.9890   -2.2900 C   0  0  0  0  0  0  0  0  0  0  0  0
    0.0770   14.6500   -2.8510 C   0  0  2  0  0  0  0  0  0  0  0  0
   -0.4180   13.1980   -2.9750 C   0  0  0  0  0  0  0  0  0  0  0  0
    0.2290   12.3940   -4.0540 C   0  0  0  0  0  0  0  0  0  0  0  0
    0.9590   12.8920   -5.0700 C   0  0  0  0  0  0  0  0  0  0  0  0
    1.1130   14.4060   -5.2610 C   0  0  1  0  0  0  0  0  0  0  0  0
    0.8780   14.7670   -6.7520 C   0  0  0  0  0  0  0  0  0  0  0  0
    1.7710   13.9660   -7.6950 C   0  0  0  0  0  0  0  0  0  0  0  0
    1.5470   12.4660   -7.5160 C   0  0  2  0  0  0  0  0  0  0  0  0
    0.2230   12.1430   -7.9520 O   0  0  0  0  0  0  0  0  0  0  0  0
    1.7450   11.9880   -6.0500 C   0  0  0  0  0  0  0  0  0  0  0  0
    3.2470   12.0590   -5.6790 C   0  0  0  0  0  0  0  0  0  0  0  0
    1.3520   10.4870   -5.9810 C   0  0  0  0  0  0  0  0  0  0  0  0
    0.2680   15.3190   -4.2720 C   0  0  1  0  0  0  0  0  0  0  0  0
   -1.1620   15.5500   -4.8510 C   0  0  0  0  0  0  0  0  0  0  0  0
    0.9430   16.7390   -4.1790 C   0  0  0  0  0  0  0  0  0  0  0  0
    2.0460   16.9150   -3.1170 C   0  0  0  0  0  0  0  0  0  0  0  0
    1.5800   16.3970   -1.7530 C   0  0  2  0  0  0  0  0  0  0  0  0
    0.3580   17.2660   -1.3020 C   0  0  0  0  0  0  0  0  0  0  0  0
    3.7653   19.6631   -0.5209 H   0  0  0  0  0  0  0  0  0  0  0  0
    4.1587   18.3167   -1.6430 H   0  0  0  0  0  0  0  0  0  0  0  0
    2.5117   19.0337   -1.6430 H   0  0  0  0  0  0  0  0  0  0  0  0
    2.0230   18.1435    0.5236 H   0  0  0  0  0  0  0  0  0  0  0  0
    3.5880   16.8814    1.9094 H   0  0  0  0  0  0  0  0  0  0  0  0
    4.8962   17.1709    0.6647 H   0  0  0  0  0  0  0  0  0  0  0  0
    5.1794   19.3631    1.2506 H   0  0  0  0  0  0  0  0  0  0  0  0
    3.4984   19.5104    1.9140 H   0  0  0  0  0  0  0  0  0  0  0  0
    4.2386   17.7651    3.3505 H   0  0  0  0  0  0  0  0  0  0  0  0
    8.2180   19.7987    3.2133 H   0  0  0  0  0  0  0  0  0  0  0  0
    7.7080   18.5436    2.0338 H   0  0  0  0  0  0  0  0  0  0  0  0
    6.9104   20.1531    2.0338 H   0  0  0  0  0  0  0  0  0  0  0  0
    6.5043   18.6574    5.7572 H   0  0  0  0  0  0  0  0  0  0  0  0
    6.5296   17.1150    4.8368 H   0  0  0  0  0  0  0  0  0  0  0  0
    7.9727   18.1847    4.8368 H   0  0  0  0  0  0  0  0  0  0  0  0
    3.6231   16.1686   -1.0116 H   0  0  0  0  0  0  0  0  0  0  0  0
    2.8665   14.7314    0.7767 H   0  0  0  0  0  0  0  0  0  0  0  0
    1.5826   15.8655    1.2488 H   0  0  0  0  0  0  0  0  0  0  0  0
    1.2016   13.4387   -0.2098 H   0  0  0  0  0  0  0  0  0  0  0  0
   -0.0050   14.7162   -0.0853 H   0  0  0  0  0  0  0  0  0  0  0  0
    3.0254   13.6270   -1.3864 H   0  0  0  0  0  0  0  0  0  0  0  0
    2.1719   13.1303   -2.8869 H   0  0  0  0  0  0  0  0  0  0  0  0
    3.2084   14.5974   -2.8869 H   0  0  0  0  0  0  0  0  0  0  0  0
   -0.7313   15.1992   -2.3460 H   0  0  0  0  0  0  0  0  0  0  0  0
   -0.2318   12.6923   -2.0161 H   0  0  0  0  0  0  0  0  0  0  0  0
   -1.4838   13.2612   -3.2398 H   0  0  0  0  0  0  0  0  0  0  0  0
    0.0983   11.3025   -4.0157 H   0  0  0  0  0  0  0  0  0  0  0  0
    2.1490   14.6440   -4.9782 H   0  0  0  0  0  0  0  0  0  0  0  0
   -0.1733   14.5625   -7.0030 H   0  0  0  0  0  0  0  0  0  0  0  0
    1.1250   15.8311   -6.8812 H   0  0  0  0  0  0  0  0  0  0  0  0
    1.5381   14.2434   -8.7337 H   0  0  0  0  0  0  0  0  0  0  0  0
    2.8216   14.1944   -7.4623 H   0  0  0  0  0  0  0  0  0  0  0  0
    2.3033   11.9446   -8.1211 H   0  0  0  0  0  0  0  0  0  0  0  0
   -0.3120   11.9620   -7.1610 H   0  0  0  0  0  0  0  0  0  0  0  0
    3.3544   12.0641   -4.5843 H   0  0  0  0  0  0  0  0  0  0  0  0
    3.7691   11.1845   -6.0946 H   0  0  0  0  0  0  0  0  0  0  0  0
    3.6843   12.9788   -6.0946 H   0  0  0  0  0  0  0  0  0  0  0  0
    1.2709   10.1772   -4.9286 H   0  0  0  0  0  0  0  0  0  0  0  0
    0.3845   10.3378   -6.4827 H   0  0  0  0  0  0  0  0  0  0  0  0
    2.1222    9.8829   -6.4827 H   0  0  0  0  0  0  0  0  0  0  0  0
   -1.8781   15.6657   -4.0241 H   0  0  0  0  0  0  0  0  0  0  0  0
   -1.1649   16.4603   -5.4686 H   0  0  0  0  0  0  0  0  0  0  0  0
   -1.4513   14.6870   -5.4686 H   0  0  0  0  0  0  0  0  0  0  0  0
    1.3872   16.9614   -5.1604 H   0  0  0  0  0  0  0  0  0  0  0  0
    0.1367   17.4219   -3.8730 H   0  0  0  0  0  0  0  0  0  0  0  0
    2.9392   16.3540   -3.4292 H   0  0  0  0  0  0  0  0  0  0  0  0
    2.2775   17.9865   -3.0253 H   0  0  0  0  0  0  0  0  0  0  0  0
    0.3153   17.2964   -0.2032 H   0  0  0  0  0  0  0  0  0  0  0  0
    0.4706   18.2880   -1.6930 H   0  0  0  0  0  0  0  0  0  0  0  0
   -0.5704   16.8241   -1.6930 H   0  0  0  0  0  0  0  0  0  0  0  0
  1  2  1  0
  2  3  1  0
  3  4  1  0
  4  5  1  0
  5  6  1  0
  6  7  1  0
  7  8  1  0
  7  9  1  0
  2 10  1  0
 10 11  1  0
 11 12  1  0
 12 13  1  0
 13 14  1  6
 13 15  1  0
 15 16  1  0
 16 17  1  0
 17 18  2  0
 18 19  1  0
 19 20  1  0
 20 21  1  0
 21 22  1  0
 22 23  1  0
 22 24  1  0
 24 25  1  0
 24 26  1  0
 19 27  1  0
 27 28  1  6
 27 29  1  0
 29 30  1  0
 30 31  1  0
 31 32  1  1
  7  5  1  0
 31 10  1  0
 31 13  1  0
 27 15  1  0
 24 18  1  0
  1 33  1  0
  1 34  1  0
  1 35  1  0
  2 36  1  1
  3 37  1  0
  3 38  1  0
  4 39  1  0
  4 40  1  0
  5 41  1  1
  8 42  1  0
  8 43  1  0
  8 44  1  0
  9 45  1  0
  9 46  1  0
  9 47  1  0
 10 48  1  6
 11 49  1  0
 11 50  1  0
 12 51  1  0
 12 52  1  0
 14 53  1  0
 14 54  1  0
 14 55  1  0
 15 56  1  1
 16 57  1  0
 16 58  1  0
 17 59  1  0
 19 60  1  1
 20 61  1  0
 20 62  1  0
 21 63  1  0
 21 64  1  0
 22 65  1  6
 23 66  1  0
 25 67  1  0
 25 68  1  0
 25 69  1  0
 26 70  1  0
 26 71  1  0
 26 72  1  0
 28 73  1  0
 28 74  1  0
 28 75  1  0
 29 76  1  0
 29 77  1  0
 30 78  1  0
 30 79  1  0
 32 80  1  0
 32 81  1  0
 32 82  1  0
M  END
>  <meeko>  (13) 
{"is_sidechain": [false], "intermolecular_energy": 2.731, "internal_energy": -0.839}

$$$$
EPH_relaxed_0001_pdb2pqr_Repair_119_r2_0001_out
     RDKit          3D

 82 86  0  0  0  0  0  0  0  0999 V2000
    2.5620   13.4750   -0.9180 C   0  0  0  0  0  0  0  0  0  0  0  0
    2.2530   12.1680   -1.6530 C   0  0  2  0  0  0  0  0  0  0  0  0
    2.8970   10.9480   -0.9630 C   0  0  0  0  0  0  0  0  0  0  0  0
    1.8890    9.8720   -0.5500 C   0  0  0  0  0  0  0  0  0  0  0  0
    0.5290   10.4520   -0.3020 C   0  0  2  0  0  0  0  0  0  0  0  0
   -0.2870    9.6980    0.6040 O   0  0  0  0  0  0  0  0  0  0  0  0
   -0.7590    9.7880   -0.7500 C   0  0  0  0  0  0  0  0  0  0  0  0
   -0.7490    8.4840   -1.4860 C   0  0  0  0  0  0  0  0  0  0  0  0
   -1.9830   10.6340   -0.9070 C   0  0  0  0  0  0  0  0  0  0  0  0
    2.7280   12.2600   -3.0990 C   0  0  1  0  0  0  0  0  0  0  0  0
    3.6840   11.1010   -3.4880 C   0  0  0  0  0  0  0  0  0  0  0  0
    3.3950   10.7620   -4.9730 C   0  0  0  0  0  0  0  0  0  0  0  0
    2.5310   11.9400   -5.4810 C   0  0  1  0  0  0  0  0  0  0  0  0
    3.5520   13.0740   -5.8080 C   0  0  0  0  0  0  0  0  0  0  0  0
    1.5950   11.6370   -6.6960 C   0  0  2  0  0  0  0  0  0  0  0  0
    2.3200   11.2320   -7.9920 C   0  0  0  0  0  0  0  0  0  0  0  0
    2.6730   12.3590   -8.9040 C   0  0  0  0  0  0  0  0  0  0  0  0
    2.1740   13.6070   -8.8350 C   0  0  0  0  0  0  0  0  0  0  0  0
    1.0780   13.9620   -7.8220 C   0  0  1  0  0  0  0  0  0  0  0  0
   -0.0380   14.7750   -8.5290 C   0  0  0  0  0  0  0  0  0  0  0  0
    0.5030   16.0010   -9.2570 C   0  0  0  0  0  0  0  0  0  0  0  0
    1.5470   15.6020  -10.2970 C   0  0  2  0  0  0  0  0  0  0  0  0
    0.9030   14.8540  -11.3330 O   0  0  0  0  0  0  0  0  0  0  0  0
    2.7170   14.7700   -9.7020 C   0  0  0  0  0  0  0  0  0  0  0  0
    3.5960   15.6760   -8.8050 C   0  0  0  0  0  0  0  0  0  0  0  0
    3.6230   14.3130  -10.8770 C   0  0  0  0  0  0  0  0  0  0  0  0
    0.5040   12.7510   -6.9680 C   0  0  1  0  0  0  0  0  0  0  0  0
   -0.6570   12.0570   -7.7440 C   0  0  0  0  0  0  0  0  0  0  0  0
   -0.1230   13.3110   -5.6370 C   0  0  0  0  0  0  0  0  0  0  0  0
    0.8280   13.4750   -4.4360 C   0  0  0  0  0  0  0  0  0  0  0  0
    1.6470   12.2010   -4.2070 C   0  0  2  0  0  0  0  0  0  0  0  0
    0.6480   11.0470   -3.8540 C   0  0  0  0  0  0  0  0  0  0  0  0
    2.5215   13.3035    0.1678 H   0  0  0  0  0  0  0  0  0  0  0  0
    3.5673   13.8236   -1.1969 H   0  0  0  0  0  0  0  0  0  0  0  0
    1.8192   14.2369   -1.1969 H   0  0  0  0  0  0  0  0  0  0  0  0
    1.1628   12.0238   -1.6285 H   0  0  0  0  0  0  0  0  0  0  0  0
    3.6206   10.4975   -1.6583 H   0  0  0  0  0  0  0  0  0  0  0  0
    3.3729   11.3138   -0.0412 H   0  0  0  0  0  0  0  0  0  0  0  0
    1.8165    9.1243   -1.3535 H   0  0  0  0  0  0  0  0  0  0  0  0
    2.2416    9.4128    0.3853 H   0  0  0  0  0  0  0  0  0  0  0  0
    0.9157   11.4736   -0.4315 H   0  0  0  0  0  0  0  0  0  0  0  0
   -0.7426    7.6550   -0.7631 H   0  0  0  0  0  0  0  0  0  0  0  0
   -1.6466    8.4127   -2.1178 H   0  0  0  0  0  0  0  0  0  0  0  0
    0.1496    8.4264   -2.1178 H   0  0  0  0  0  0  0  0  0  0  0  0
   -2.3725   10.9032    0.0859 H   0  0  0  0  0  0  0  0  0  0  0  0
   -1.7275   11.5492   -1.4612 H   0  0  0  0  0  0  0  0  0  0  0  0
   -2.7489   10.0716   -1.4612 H   0  0  0  0  0  0  0  0  0  0  0  0
    3.1920   13.2571   -3.0783 H   0  0  0  0  0  0  0  0  0  0  0  0
    4.7308   11.4171   -3.3684 H   0  0  0  0  0  0  0  0  0  0  0  0
    3.5235   10.2237   -2.8442 H   0  0  0  0  0  0  0  0  0  0  0  0
    4.3320   10.6927   -5.5450 H   0  0  0  0  0  0  0  0  0  0  0  0
    2.8881    9.7926   -5.0886 H   0  0  0  0  0  0  0  0  0  0  0  0
    3.9373   13.5019   -4.8708 H   0  0  0  0  0  0  0  0  0  0  0  0
    4.3867   12.6587   -6.3919 H   0  0  0  0  0  0  0  0  0  0  0  0
    3.0517   13.8607   -6.3919 H   0  0  0  0  0  0  0  0  0  0  0  0
    1.0562   10.7384   -6.3609 H   0  0  0  0  0  0  0  0  0  0  0  0
    3.2506   10.7158   -7.7137 H   0  0  0  0  0  0  0  0  0  0  0  0
    1.6146   10.5987   -8.5500 H   0  0  0  0  0  0  0  0  0  0  0  0
    3.4031   12.1522   -9.7004 H   0  0  0  0  0  0  0  0  0  0  0  0
    1.5632   14.5839   -7.0553 H   0  0  0  0  0  0  0  0  0  0  0  0
   -0.5394   14.1237   -9.2600 H   0  0  0  0  0  0  0  0  0  0  0  0
   -0.7356   15.1273   -7.7549 H   0  0  0  0  0  0  0  0  0  0  0  0
   -0.3281   16.5164   -9.7607 H   0  0  0  0  0  0  0  0  0  0  0  0
    0.9779   16.6655   -8.5201 H   0  0  0  0  0  0  0  0  0  0  0  0
    1.9899   16.5281  -10.6923 H   0  0  0  0  0  0  0  0  0  0  0  0
    1.5700   14.6540  -12.0110 H   0  0  0  0  0  0  0  0  0  0  0  0
    3.3858   15.4594   -7.7472 H   0  0  0  0  0  0  0  0  0  0  0  0
    4.6579   15.4807   -9.0153 H   0  0  0  0  0  0  0  0  0  0  0  0
    3.3687   16.7315   -9.0153 H   0  0  0  0  0  0  0  0  0  0  0  0
    4.5378   13.8516  -10.4767 H   0  0  0  0  0  0  0  0  0  0  0  0
    3.0821   13.5799  -11.4934 H   0  0  0  0  0  0  0  0  0  0  0  0
    3.8911   15.1837  -11.4934 H   0  0  0  0  0  0  0  0  0  0  0  0
   -1.3730   11.6290   -7.0269 H   0  0  0  0  0  0  0  0  0  0  0  0
   -1.1693   12.7971   -8.3762 H   0  0  0  0  0  0  0  0  0  0  0  0
   -0.2477   11.2553   -8.3762 H   0  0  0  0  0  0  0  0  0  0  0  0
   -0.5501   14.2997   -5.8607 H   0  0  0  0  0  0  0  0  0  0  0  0
   -0.8553   12.5527   -5.3227 H   0  0  0  0  0  0  0  0  0  0  0  0
    1.5133   14.3130   -4.6315 H   0  0  0  0  0  0  0  0  0  0  0  0
    0.2262   13.6714   -3.5364 H   0  0  0  0  0  0  0  0  0  0  0  0
    0.5671   10.9536   -2.7610 H   0  0  0  0  0  0  0  0  0  0  0  0
   -0.3413   11.2764   -4.2766 H   0  0  0  0  0  0  0  0  0  0  0  0
    1.0168   10.1007   -4.2766 H   0  0  0  0  0  0  0  0  0  0  0  0
  1  2  1  0
  2  3  1  0
  3  4  1  0
  4  5  1  0
  5  6  1  0
  6  7  1  0
  7  8  1  0
  7  9  1  0
  2 10  1  0
 10 11  1  0
 11 12  1  0
 12 13  1  0
 13 14  1  6
 13 15  1  0
 15 16  1  0
 16 17  1  0
 17 18  2  0
 18 19  1  0
 19 20  1  0
 20 21  1  0
 21 22  1  0
 22 23  1  0
 22 24  1  0
 24 25  1  0
 24 26  1  0
 19 27  1  0
 27 28  1  6
 27 29  1  0
 29 30  1  0
 30 31  1  0
 31 32  1  1
  7  5  1  0
 31 10  1  0
 31 13  1  0
 27 15  1  0
 24 18  1  0
  1 33  1  0
  1 34  1  0
  1 35  1  0
  2 36  1  6
  3 37  1  0
  3 38  1  0
  4 39  1  0
  4 40  1  0
  5 41  1  1
  8 42  1  0
  8 43  1  0
  8 44  1  0
  9 45  1  0
  9 46  1  0
  9 47  1  0
 10 48  1  1
 11 49  1  0
 11 50  1  0
 12 51  1  0
 12 52  1  0
 14 53  1  0
 14 54  1  0
 14 55  1  0
 15 56  1  1
 16 57  1  0
 16 58  1  0
 17 59  1  0
 19 60  1  1
 20 61  1  0
 20 62  1  0
 21 63  1  0
 21 64  1  0
 22 65  1  6
 23 66  1  0
 25 67  1  0
 25 68  1  0
 25 69  1  0
 26 70  1  0
 26 71  1  0
 26 72  1  0
 28 73  1  0
 28 74  1  0
 28 75  1  0
 29 76  1  0
 29 77  1  0
 30 78  1  0
 30 79  1  0
 32 80  1  0
 32 81  1  0
 32 82  1  0
M  END
>  <meeko>  (14) 
{"is_sidechain": [false], "intermolecular_energy": 2.731, "internal_energy": -0.839}

$$$$
EPH_relaxed_0001_pdb2pqr_Repair_119_r2_0001_out
     RDKit          3D

 82 86  0  0  0  0  0  0  0  0999 V2000
    1.4630   14.7300   -7.3500 C   0  0  0  0  0  0  0  0  0  0  0  0
    1.7140   13.2210   -7.4160 C   0  0  2  0  0  0  0  0  0  0  0  0
    1.2240   12.6080   -8.7420 C   0  0  0  0  0  0  0  0  0  0  0  0
    0.5890   13.6260   -9.6940 C   0  0  0  0  0  0  0  0  0  0  0  0
    1.4880   13.9400  -10.8500 C   0  0  2  0  0  0  0  0  0  0  0  0
    2.8580   14.1720  -10.4970 O   0  0  0  0  0  0  0  0  0  0  0  0
    2.1490   15.2910  -11.0530 C   0  0  0  0  0  0  0  0  0  0  0  0
    1.9360   16.4160  -10.0900 C   0  0  0  0  0  0  0  0  0  0  0  0
    2.6000   15.6670  -12.4300 C   0  0  0  0  0  0  0  0  0  0  0  0
    1.0350   12.5300   -6.2390 C   0  0  1  0  0  0  0  0  0  0  0  0
    0.3380   11.2040   -6.6470 C   0  0  0  0  0  0  0  0  0  0  0  0
    0.4910   10.2320   -5.4490 C   0  0  0  0  0  0  0  0  0  0  0  0
    0.9690   11.1250   -4.2810 C   0  0  1  0  0  0  0  0  0  0  0  0
   -0.3280   11.7970   -3.7320 C   0  0  0  0  0  0  0  0  0  0  0  0
    1.7720   10.4070   -3.1470 C   0  0  2  0  0  0  0  0  0  0  0  0
    0.9920    9.3240   -2.3810 C   0  0  0  0  0  0  0  0  0  0  0  0
    0.2560    9.8020   -1.1730 C   0  0  0  0  0  0  0  0  0  0  0  0
    0.4480   10.9830   -0.5570 C   0  0  0  0  0  0  0  0  0  0  0  0
    1.5570   11.9390   -1.0140 C   0  0  1  0  0  0  0  0  0  0  0  0
    2.3380   12.4560    0.2230 C   0  0  0  0  0  0  0  0  0  0  0  0
    1.4240   13.0820    1.2720 C   0  0  0  0  0  0  0  0  0  0  0  0
    0.3720   12.0820    1.7440 C   0  0  2  0  0  0  0  0  0  0  0  0
    1.0250   11.0260    2.4560 O   0  0  0  0  0  0  0  0  0  0  0  0
   -0.4720   11.4860    0.5830 C   0  0  0  0  0  0  0  0  0  0  0  0
   -1.4080   12.5770    0.0060 C   0  0  0  0  0  0  0  0  0  0  0  0
   -1.3970   10.3910    1.1780 C   0  0  0  0  0  0  0  0  0  0  0  0
    2.5170   11.3920   -2.1570 C   0  0  1  0  0  0  0  0  0  0  0  0
    3.6900   10.5830   -1.5240 C   0  0  0  0  0  0  0  0  0  0  0  0
    3.1710   12.6120   -2.9070 C   0  0  0  0  0  0  0  0  0  0  0  0
    2.3850   13.2010   -4.0940 C   0  0  0  0  0  0  0  0  0  0  0  0
    1.9340   12.0960   -5.0540 C   0  0  2  0  0  0  0  0  0  0  0  0
    3.2180   11.4160   -5.6390 C   0  0  0  0  0  0  0  0  0  0  0  0
    1.4102   15.0473   -6.2981 H   0  0  0  0  0  0  0  0  0  0  0  0
    2.2852   15.2608   -7.8523 H   0  0  0  0  0  0  0  0  0  0  0  0
    0.5133   14.9660   -7.8523 H   0  0  0  0  0  0  0  0  0  0  0  0
    2.8014   13.0634   -7.3628 H   0  0  0  0  0  0  0  0  0  0  0  0
    2.0838   12.1469   -9.2500 H   0  0  0  0  0  0  0  0  0  0  0  0
    0.4438   11.8753   -8.4882 H   0  0  0  0  0  0  0  0  0  0  0  0
   -0.3553   13.2134  -10.0787 H   0  0  0  0  0  0  0  0  0  0  0  0
    0.4138   14.5562   -9.1337 H   0  0  0  0  0  0  0  0  0  0  0  0
    0.8901   13.3032  -11.5185 H   0  0  0  0  0  0  0  0  0  0  0  0
    2.0080   16.0358   -9.0603 H   0  0  0  0  0  0  0  0  0  0  0  0
    2.7042   17.1867  -10.2508 H   0  0  0  0  0  0  0  0  0  0  0  0
    0.9392   16.8526  -10.2508 H   0  0  0  0  0  0  0  0  0  0  0  0
    3.4432   16.3700  -12.3605 H   0  0  0  0  0  0  0  0  0  0  0  0
    2.9192   14.7638  -12.9707 H   0  0  0  0  0  0  0  0  0  0  0  0
    1.7690   16.1435  -12.9707 H   0  0  0  0  0  0  0  0  0  0  0  0
    0.3545   13.3334   -5.9203 H   0  0  0  0  0  0  0  0  0  0  0  0
   -0.7270   11.3842   -6.8551 H   0  0  0  0  0  0  0  0  0  0  0  0
    0.7903   10.7836   -7.5573 H   0  0  0  0  0  0  0  0  0  0  0  0
   -0.4722    9.7590   -5.2072 H   0  0  0  0  0  0  0  0  0  0  0  0
    1.1939    9.4134   -5.6630 H   0  0  0  0  0  0  0  0  0  0  0  0
   -0.3088   11.7870   -2.6322 H   0  0  0  0  0  0  0  0  0  0  0  0
   -0.3816   12.8363   -4.0884 H   0  0  0  0  0  0  0  0  0  0  0  0
   -1.2079   11.2414   -4.0884 H   0  0  0  0  0  0  0  0  0  0  0  0
    2.5504    9.8722   -3.7110 H   0  0  0  0  0  0  0  0  0  0  0  0
    0.2598    8.8800   -3.0715 H   0  0  0  0  0  0  0  0  0  0  0  0
    1.7436    8.6086   -2.0160 H   0  0  0  0  0  0  0  0  0  0  0  0
   -0.5077    9.1322   -0.7509 H   0  0  0  0  0  0  0  0  0  0  0  0
    1.0487   12.7780   -1.5117 H   0  0  0  0  0  0  0  0  0  0  0  0
    2.8731   11.6109    0.6807 H   0  0  0  0  0  0  0  0  0  0  0  0
    3.0328   13.2356   -0.1226 H   0  0  0  0  0  0  0  0  0  0  0  0
    2.0296   13.4011    2.1331 H   0  0  0  0  0  0  0  0  0  0  0  0
    0.9116   13.9450    0.8218 H   0  0  0  0  0  0  0  0  0  0  0  0
   -0.3295   12.6247    2.3947 H   0  0  0  0  0  0  0  0  0  0  0  0
    0.5360   10.8830    3.2840 H   0  0  0  0  0  0  0  0  0  0  0  0
   -1.8811   13.1285    0.8319 H   0  0  0  0  0  0  0  0  0  0  0  0
   -0.8221   13.2735   -0.6118 H   0  0  0  0  0  0  0  0  0  0  0  0
   -2.1855   12.1038   -0.6118 H   0  0  0  0  0  0  0  0  0  0  0  0
   -1.3590   10.4360    2.2764 H   0  0  0  0  0  0  0  0  0  0  0  0
   -2.4299   10.5600    0.8396 H   0  0  0  0  0  0  0  0  0  0  0  0
   -1.0577    9.4008    0.8396 H   0  0  0  0  0  0  0  0  0  0  0  0
    3.6192   10.6318   -0.4274 H   0  0  0  0  0  0  0  0  0  0  0  0
    3.6292    9.5339   -1.8490 H   0  0  0  0  0  0  0  0  0  0  0  0
    4.6491   11.0126   -1.8490 H   0  0  0  0  0  0  0  0  0  0  0  0
    3.3145   13.4168   -2.1710 H   0  0  0  0  0  0  0  0  0  0  0  0
    4.0992   12.2162   -3.3449 H   0  0  0  0  0  0  0  0  0  0  0  0
    1.4993   13.7299   -3.7123 H   0  0  0  0  0  0  0  0  0  0  0  0
    3.0413   13.8945   -4.6403 H   0  0  0  0  0  0  0  0  0  0  0  0
    3.8609   11.0755   -4.8139 H   0  0  0  0  0  0  0  0  0  0  0  0
    2.9271   10.5537   -6.2570 H   0  0  0  0  0  0  0  0  0  0  0  0
    3.7678   12.1412   -6.2570 H   0  0  0  0  0  0  0  0  0  0  0  0
  1  2  1  0
  2  3  1  0
  3  4  1  0
  4  5  1  0
  5  6  1  0
  6  7  1  0
  7  8  1  0
  7  9  1  0
  2 10  1  0
 10 11  1  0
 11 12  1  0
 12 13  1  0
 13 14  1  1
 13 15  1  0
 15 16  1  0
 16 17  1  0
 17 18  2  0
 18 19  1  0
 19 20  1  0
 20 21  1  0
 21 22  1  0
 22 23  1  0
 22 24  1  0
 24 25  1  0
 24 26  1  0
 19 27  1  0
 27 28  1  1
 27 29  1  0
 29 30  1  0
 30 31  1  0
 31 32  1  6
  7  5  1  0
 31 10  1  0
 31 13  1  0
 27 15  1  0
 24 18  1  0
  1 33  1  0
  1 34  1  0
  1 35  1  0
  2 36  1  1
  3 37  1  0
  3 38  1  0
  4 39  1  0
  4 40  1  0
  5 41  1  6
  8 42  1  0
  8 43  1  0
  8 44  1  0
  9 45  1  0
  9 46  1  0
  9 47  1  0
 10 48  1  1
 11 49  1  0
 11 50  1  0
 12 51  1  0
 12 52  1  0
 14 53  1  0
 14 54  1  0
 14 55  1  0
 15 56  1  6
 16 57  1  0
 16 58  1  0
 17 59  1  0
 19 60  1  6
 20 61  1  0
 20 62  1  0
 21 63  1  0
 21 64  1  0
 22 65  1  1
 23 66  1  0
 25 67  1  0
 25 68  1  0
 25 69  1  0
 26 70  1  0
 26 71  1  0
 26 72  1  0
 28 73  1  0
 28 74  1  0
 28 75  1  0
 29 76  1  0
 29 77  1  0
 30 78  1  0
 30 79  1  0
 32 80  1  0
 32 81  1  0
 32 82  1  0
M  END
>  <meeko>  (15) 
{"is_sidechain": [false], "intermolecular_energy": 2.731, "internal_energy": -0.839}

$$$$
EPH_relaxed_0001_pdb2pqr_Repair_119_r2_0001_out
     RDKit          3D

 82 86  0  0  0  0  0  0  0  0999 V2000
    2.5530   14.1520   -0.9890 C   0  0  0  0  0  0  0  0  0  0  0  0
    1.9880   12.7880   -1.3960 C   0  0  2  0  0  0  0  0  0  0  0  0
    2.6690   11.6280   -0.6420 C   0  0  0  0  0  0  0  0  0  0  0  0
    1.7750   10.9690    0.4110 C   0  0  0  0  0  0  0  0  0  0  0  0
    0.3260   11.2700    0.1750 C   0  0  2  0  0  0  0  0  0  0  0  0
   -0.5850   10.4360    0.9030 O   0  0  0  0  0  0  0  0  0  0  0  0
   -0.6220   10.3170   -0.5290 C   0  0  0  0  0  0  0  0  0  0  0  0
   -0.1570    8.9910   -1.0420 C   0  0  0  0  0  0  0  0  0  0  0  0
   -1.8670   10.8740   -1.1480 C   0  0  0  0  0  0  0  0  0  0  0  0
    2.1380   12.5900   -2.9000 C   0  0  1  0  0  0  0  0  0  0  0  0
    1.8910   11.1220   -3.3370 C   0  0  0  0  0  0  0  0  0  0  0  0
    1.2080   11.1790   -4.7280 C   0  0  0  0  0  0  0  0  0  0  0  0
    1.3850   12.6450   -5.1900 C   0  0  1  0  0  0  0  0  0  0  0  0
    2.8370   12.7130   -5.7600 C   0  0  0  0  0  0  0  0  0  0  0  0
    0.3360   13.1760   -6.2200 C   0  0  2  0  0  0  0  0  0  0  0  0
    0.3230   12.4470   -7.5750 C   0  0  0  0  0  0  0  0  0  0  0  0
    1.2220   13.0240   -8.6180 C   0  0  0  0  0  0  0  0  0  0  0  0
    1.7910   14.2430   -8.5730 C   0  0  0  0  0  0  0  0  0  0  0  0
    1.4700   15.2200   -7.4340 C   0  0  1  0  0  0  0  0  0  0  0  0
    1.1810   16.6260   -8.0250 C   0  0  0  0  0  0  0  0  0  0  0  0
    2.3080   17.1260   -8.9230 C   0  0  0  0  0  0  0  0  0  0  0  0
    2.5580   16.1570  -10.0750 C   0  0  2  0  0  0  0  0  0  0  0  0
    1.4160   16.1610  -10.9370 O   0  0  0  0  0  0  0  0  0  0  0  0
    2.8510   14.7050   -9.6030 C   0  0  0  0  0  0  0  0  0  0  0  0
    4.2430   14.6490   -8.9260 C   0  0  0  0  0  0  0  0  0  0  0  0
    2.9440   13.8030  -10.8620 C   0  0  0  0  0  0  0  0  0  0  0  0
    0.3520   14.7470   -6.4090 C   0  0  1  0  0  0  0  0  0  0  0  0
   -1.0590   15.1460   -6.9390 C   0  0  0  0  0  0  0  0  0  0  0  0
    0.5470   15.5120   -5.0470 C   0  0  0  0  0  0  0  0  0  0  0  0
    1.5050   14.8740   -4.0230 C   0  0  0  0  0  0  0  0  0  0  0  0
    1.1830   13.3900   -3.8210 C   0  0  2  0  0  0  0  0  0  0  0  0
   -0.2630   13.2910   -3.2280 C   0  0  0  0  0  0  0  0  0  0  0  0
    2.5828   14.2239    0.1082 H   0  0  0  0  0  0  0  0  0  0  0  0
    3.5708   14.2622   -1.3915 H   0  0  0  0  0  0  0  0  0  0  0  0
    1.9112   14.9496   -1.3915 H   0  0  0  0  0  0  0  0  0  0  0  0
    0.9222   12.7780   -1.1241 H   0  0  0  0  0  0  0  0  0  0  0  0
    2.9636   10.8628   -1.3753 H   0  0  0  0  0  0  0  0  0  0  0  0
    3.5322   12.0539   -0.1095 H   0  0  0  0  0  0  0  0  0  0  0  0
    1.9235    9.8797    0.3735 H   0  0  0  0  0  0  0  0  0  0  0  0
    2.0526   11.3710    1.3966 H   0  0  0  0  0  0  0  0  0  0  0  0
    0.5478   12.3366    0.0228 H   0  0  0  0  0  0  0  0  0  0  0  0
    0.0747    8.3304   -0.1935 H   0  0  0  0  0  0  0  0  0  0  0  0
   -0.9494    8.5366   -1.6548 H   0  0  0  0  0  0  0  0  0  0  0  0
    0.7457    9.1310   -1.6548 H   0  0  0  0  0  0  0  0  0  0  0  0
   -2.5630   11.1854   -0.3551 H   0  0  0  0  0  0  0  0  0  0  0  0
   -1.6094   11.7427   -1.7717 H   0  0  0  0  0  0  0  0  0  0  0  0
   -2.3430   10.1030   -1.7717 H   0  0  0  0  0  0  0  0  0  0  0  0
    3.1711   12.9445   -3.0306 H   0  0  0  0  0  0  0  0  0  0  0  0
    2.8464   10.5813   -3.4059 H   0  0  0  0  0  0  0  0  0  0  0  0
    1.2593   10.5935   -2.6079 H   0  0  0  0  0  0  0  0  0  0  0  0
    1.6985   10.4887   -5.4300 H   0  0  0  0  0  0  0  0  0  0  0  0
    0.1503   10.8797   -4.6859 H   0  0  0  0  0  0  0  0  0  0  0  0
    3.5562   12.7467   -4.9283 H   0  0  0  0  0  0  0  0  0  0  0  0
    3.0309   11.8230   -6.3766 H   0  0  0  0  0  0  0  0  0  0  0  0
    2.9469   13.6173   -6.3766 H   0  0  0  0  0  0  0  0  0  0  0  0
   -0.6185   12.9216   -5.7361 H   0  0  0  0  0  0  0  0  0  0  0  0
    0.6275   11.4041   -7.4029 H   0  0  0  0  0  0  0  0  0  0  0  0
   -0.7004   12.5483   -7.9653 H   0  0  0  0  0  0  0  0  0  0  0  0
    1.4377   12.4000   -9.4978 H   0  0  0  0  0  0  0  0  0  0  0  0
    2.3698   15.2578   -6.8024 H   0  0  0  0  0  0  0  0  0  0  0  0
    0.2547   16.5764   -8.6162 H   0  0  0  0  0  0  0  0  0  0  0  0
    1.0874   17.3289   -7.1840 H   0  0  0  0  0  0  0  0  0  0  0  0
    2.0326   18.1090   -9.3327 H   0  0  0  0  0  0  0  0  0  0  0  0
    3.2269   17.2030   -8.3233 H   0  0  0  0  0  0  0  0  0  0  0  0
    3.4579   16.5015  -10.6056 H   0  0  0  0  0  0  0  0  0  0  0  0
    1.1410   17.0860  -11.0580 H   0  0  0  0  0  0  0  0  0  0  0  0
    4.1196   14.6540   -7.8330 H   0  0  0  0  0  0  0  0  0  0  0  0
    4.7629   13.7292   -9.2321 H   0  0  0  0  0  0  0  0  0  0  0  0
    4.8351   15.5241   -9.2321 H   0  0  0  0  0  0  0  0  0  0  0  0
    3.0523   12.7527  -10.5534 H   0  0  0  0  0  0  0  0  0  0  0  0
    2.0294   13.9163  -11.4626 H   0  0  0  0  0  0  0  0  0  0  0  0
    3.8162   14.1005  -11.4626 H   0  0  0  0  0  0  0  0  0  0  0  0
   -1.7300   15.3358   -6.0883 H   0  0  0  0  0  0  0  0  0  0  0  0
   -0.9768   16.0561   -7.5513 H   0  0  0  0  0  0  0  0  0  0  0  0
   -1.4656   14.3276   -7.5513 H   0  0  0  0  0  0  0  0  0  0  0  0
    0.9307   16.5159   -5.2812 H   0  0  0  0  0  0  0  0  0  0  0  0
   -0.4414   15.4973   -4.5645 H   0  0  0  0  0  0  0  0  0  0  0  0
    2.5382   14.9716   -4.3875 H   0  0  0  0  0  0  0  0  0  0  0  0
    1.3855   15.3929   -3.0605 H   0  0  0  0  0  0  0  0  0  0  0  0
   -0.2098   13.2946   -2.1293 H   0  0  0  0  0  0  0  0  0  0  0  0
   -0.8588   14.1505   -3.5691 H   0  0  0  0  0  0  0  0  0  0  0  0
   -0.7361   12.3584   -3.5691 H   0  0  0  0  0  0  0  0  0  0  0  0
  1  2  1  0
  2  3  1  0
  3  4  1  0
  4  5  1  0
  5  6  1  0
  6  7  1  0
  7  8  1  0
  7  9  1  0
  2 10  1  0
 10 11  1  0
 11 12  1  0
 12 13  1  0
 13 14  1  6
 13 15  1  0
 15 16  1  0
 16 17  1  0
 17 18  2  0
 18 19  1  0
 19 20  1  0
 20 21  1  0
 21 22  1  0
 22 23  1  0
 22 24  1  0
 24 25  1  0
 24 26  1  0
 19 27  1  0
 27 28  1  6
 27 29  1  0
 29 30  1  0
 30 31  1  0
 31 32  1  1
  7  5  1  0
 31 10  1  0
 31 13  1  0
 27 15  1  0
 24 18  1  0
  1 33  1  0
  1 34  1  0
  1 35  1  0
  2 36  1  6
  3 37  1  0
  3 38  1  0
  4 39  1  0
  4 40  1  0
  5 41  1  6
  8 42  1  0
  8 43  1  0
  8 44  1  0
  9 45  1  0
  9 46  1  0
  9 47  1  0
 10 48  1  6
 11 49  1  0
 11 50  1  0
 12 51  1  0
 12 52  1  0
 14 53  1  0
 14 54  1  0
 14 55  1  0
 15 56  1  1
 16 57  1  0
 16 58  1  0
 17 59  1  0
 19 60  1  1
 20 61  1  0
 20 62  1  0
 21 63  1  0
 21 64  1  0
 22 65  1  6
 23 66  1  0
 25 67  1  0
 25 68  1  0
 25 69  1  0
 26 70  1  0
 26 71  1  0
 26 72  1  0
 28 73  1  0
 28 74  1  0
 28 75  1  0
 29 76  1  0
 29 77  1  0
 30 78  1  0
 30 79  1  0
 32 80  1  0
 32 81  1  0
 32 82  1  0
M  END
>  <meeko>  (16) 
{"is_sidechain": [false], "intermolecular_energy": 2.731, "internal_energy": -0.839}

$$$$
EPH_relaxed_0001_pdb2pqr_Repair_119_r2_0001_out
     RDKit          3D

 82 86  0  0  0  0  0  0  0  0999 V2000
    0.3880   10.5870   -4.0470 C   0  0  0  0  0  0  0  0  0  0  0  0
    0.4260   10.1660   -2.5760 C   0  0  2  0  0  0  0  0  0  0  0  0
   -0.8360    9.3830   -2.1620 C   0  0  0  0  0  0  0  0  0  0  0  0
   -1.1060    9.4020   -0.6550 C   0  0  0  0  0  0  0  0  0  0  0  0
   -2.4580    9.9690   -0.3410 C   0  0  2  0  0  0  0  0  0  0  0  0
   -3.1020    9.3850    0.7990 O   0  0  0  0  0  0  0  0  0  0  0  0
   -3.7470    9.1780   -0.4680 C   0  0  0  0  0  0  0  0  0  0  0  0
   -3.7460    7.7530   -0.9260 C   0  0  0  0  0  0  0  0  0  0  0  0
   -5.0340    9.9270   -0.6190 C   0  0  0  0  0  0  0  0  0  0  0  0
    0.5920   11.3940   -1.6880 C   0  0  1  0  0  0  0  0  0  0  0  0
    1.6310   11.1760   -0.5560 C   0  0  0  0  0  0  0  0  0  0  0  0
    2.3470   12.5340   -0.3390 C   0  0  0  0  0  0  0  0  0  0  0  0
    1.4810   13.5590   -1.1080 C   0  0  1  0  0  0  0  0  0  0  0  0
    0.2980   13.8870   -0.1450 C   0  0  0  0  0  0  0  0  0  0  0  0
    2.2100   14.8560   -1.5900 C   0  0  2  0  0  0  0  0  0  0  0  0
    2.7750   15.7420   -0.4660 C   0  0  0  0  0  0  0  0  0  0  0  0
    1.8460   16.7920    0.0470 C   0  0  0  0  0  0  0  0  0  0  0  0
    0.7180   17.2030   -0.5620 C   0  0  0  0  0  0  0  0  0  0  0  0
    0.3290   16.6650   -1.9450 C   0  0  1  0  0  0  0  0  0  0  0  0
   -0.0980   17.8450   -2.8580 C   0  0  0  0  0  0  0  0  0  0  0  0
   -1.1970   18.7000   -2.2340 C   0  0  0  0  0  0  0  0  0  0  0  0
   -0.7500   19.2640   -0.8870 C   0  0  2  0  0  0  0  0  0  0  0  0
    0.3140   20.1940   -1.1070 O   0  0  0  0  0  0  0  0  0  0  0  0
   -0.2880   18.1680    0.1130 C   0  0  0  0  0  0  0  0  0  0  0  0
   -1.5110   17.3430    0.5840 C   0  0  0  0  0  0  0  0  0  0  0  0
    0.2690   18.8790    1.3760 C   0  0  0  0  0  0  0  0  0  0  0  0
    1.3900   15.7080   -2.6410 C   0  0  1  0  0  0  0  0  0  0  0  0
    2.4290   16.5550   -3.4360 C   0  0  0  0  0  0  0  0  0  0  0  0
    0.6510   14.8040   -3.6980 C   0  0  0  0  0  0  0  0  0  0  0  0
    0.0560   13.4790   -3.1840 C   0  0  0  0  0  0  0  0  0  0  0  0
    1.0860   12.6980   -2.3630 C   0  0  2  0  0  0  0  0  0  0  0  0
    2.2790   12.3350   -3.3110 C   0  0  0  0  0  0  0  0  0  0  0  0
    0.2893   11.6806   -4.1130 H   0  0  0  0  0  0  0  0  0  0  0  0
    1.3182   10.2722   -4.5426 H   0  0  0  0  0  0  0  0  0  0  0  0
   -0.4708   10.1108   -4.5426 H   0  0  0  0  0  0  0  0  0  0  0  0
    1.2874    9.4943   -2.4469 H   0  0  0  0  0  0  0  0  0  0  0  0
   -1.7027    9.8247   -2.6756 H   0  0  0  0  0  0  0  0  0  0  0  0
   -0.6701    8.3332   -2.4454 H   0  0  0  0  0  0  0  0  0  0  0  0
   -1.0529    8.3728   -0.2703 H   0  0  0  0  0  0  0  0  0  0  0  0
   -0.3473   10.0404   -0.1787 H   0  0  0  0  0  0  0  0  0  0  0  0
   -2.1580   10.9569   -0.7206 H   0  0  0  0  0  0  0  0  0  0  0  0
   -3.7455    7.0866   -0.0508 H   0  0  0  0  0  0  0  0  0  0  0  0
   -4.6440    7.5620   -1.5319 H   0  0  0  0  0  0  0  0  0  0  0  0
   -2.8477    7.5632   -1.5319 H   0  0  0  0  0  0  0  0  0  0  0  0
   -5.4397   10.1631    0.3758 H   0  0  0  0  0  0  0  0  0  0  0  0
   -4.8523   10.8604   -1.1719 H   0  0  0  0  0  0  0  0  0  0  0  0
   -5.7558    9.3079   -1.1719 H   0  0  0  0  0  0  0  0  0  0  0  0
   -0.4465   11.5171   -1.3470 H   0  0  0  0  0  0  0  0  0  0  0  0
    1.1239   10.8631    0.3686 H   0  0  0  0  0  0  0  0  0  0  0  0
    2.3503   10.3888   -0.8261 H   0  0  0  0  0  0  0  0  0  0  0  0
    2.3873   12.7851    0.7312 H   0  0  0  0  0  0  0  0  0  0  0  0
    3.3881   12.5180   -0.6938 H   0  0  0  0  0  0  0  0  0  0  0  0
    0.6368   13.7931    0.8973 H   0  0  0  0  0  0  0  0  0  0  0  0
   -0.0485   14.9151   -0.3267 H   0  0  0  0  0  0  0  0  0  0  0  0
   -0.5284   13.1841   -0.3267 H   0  0  0  0  0  0  0  0  0  0  0  0
    3.0848   14.4520   -2.1206 H   0  0  0  0  0  0  0  0  0  0  0  0
    3.0484   15.0893    0.3762 H   0  0  0  0  0  0  0  0  0  0  0  0
    3.6296   16.2793   -0.9029 H   0  0  0  0  0  0  0  0  0  0  0  0
    2.1050   17.2701    1.0032 H   0  0  0  0  0  0  0  0  0  0  0  0
   -0.5253   15.9920   -1.7800 H   0  0  0  0  0  0  0  0  0  0  0  0
    0.7797   18.4810   -3.0458 H   0  0  0  0  0  0  0  0  0  0  0  0
   -0.4960   17.4184   -3.7905 H   0  0  0  0  0  0  0  0  0  0  0  0
   -1.4342   19.5328   -2.9123 H   0  0  0  0  0  0  0  0  0  0  0  0
   -2.0844   18.0699   -2.0742 H   0  0  0  0  0  0  0  0  0  0  0  0
   -1.6207   19.7576   -0.4307 H   0  0  0  0  0  0  0  0  0  0  0  0
    0.0330   20.8020   -1.8120 H   0  0  0  0  0  0  0  0  0  0  0  0
   -1.5391   17.3241    1.6835 H   0  0  0  0  0  0  0  0  0  0  0  0
   -2.4336   17.8040    0.2015 H   0  0  0  0  0  0  0  0  0  0  0  0
   -1.4291   16.3149    0.2015 H   0  0  0  0  0  0  0  0  0  0  0  0
   -0.1197   18.3828    2.2775 H   0  0  0  0  0  0  0  0  0  0  0  0
    1.3677   18.8251    1.3726 H   0  0  0  0  0  0  0  0  0  0  0  0
   -0.0464   19.9328    1.3726 H   0  0  0  0  0  0  0  0  0  0  0  0
    3.0835   17.0885   -2.7310 H   0  0  0  0  0  0  0  0  0  0  0  0
    3.0359   15.8910   -4.0690 H   0  0  0  0  0  0  0  0  0  0  0  0
    1.9009   17.2833   -4.0690 H   0  0  0  0  0  0  0  0  0  0  0  0
   -0.1728   15.3956   -4.1239 H   0  0  0  0  0  0  0  0  0  0  0  0
    1.4282   14.5100   -4.4188 H   0  0  0  0  0  0  0  0  0  0  0  0
   -0.8171   13.6979   -2.5517 H   0  0  0  0  0  0  0  0  0  0  0  0
   -0.2392   12.8678   -4.0496 H   0  0  0  0  0  0  0  0  0  0  0  0
    3.1587   12.0673   -2.7073 H   0  0  0  0  0  0  0  0  0  0  0  0
    1.9966   11.4821   -3.9457 H   0  0  0  0  0  0  0  0  0  0  0  0
    2.5195   13.2006   -3.9457 H   0  0  0  0  0  0  0  0  0  0  0  0
  1  2  1  0
  2  3  1  0
  3  4  1  0
  4  5  1  0
  5  6  1  0
  6  7  1  0
  7  8  1  0
  7  9  1  0
  2 10  1  0
 10 11  1  0
 11 12  1  0
 12 13  1  0
 13 14  1  1
 13 15  1  0
 15 16  1  0
 16 17  1  0
 17 18  2  0
 18 19  1  0
 19 20  1  0
 20 21  1  0
 21 22  1  0
 22 23  1  0
 22 24  1  0
 24 25  1  0
 24 26  1  0
 19 27  1  0
 27 28  1  6
 27 29  1  0
 29 30  1  0
 30 31  1  0
 31 32  1  6
  7  5  1  0
 31 10  1  0
 31 13  1  0
 27 15  1  0
 24 18  1  0
  1 33  1  0
  1 34  1  0
  1 35  1  0
  2 36  1  6
  3 37  1  0
  3 38  1  0
  4 39  1  0
  4 40  1  0
  5 41  1  1
  8 42  1  0
  8 43  1  0
  8 44  1  0
  9 45  1  0
  9 46  1  0
  9 47  1  0
 10 48  1  1
 11 49  1  0
 11 50  1  0
 12 51  1  0
 12 52  1  0
 14 53  1  0
 14 54  1  0
 14 55  1  0
 15 56  1  6
 16 57  1  0
 16 58  1  0
 17 59  1  0
 19 60  1  1
 20 61  1  0
 20 62  1  0
 21 63  1  0
 21 64  1  0
 22 65  1  1
 23 66  1  0
 25 67  1  0
 25 68  1  0
 25 69  1  0
 26 70  1  0
 26 71  1  0
 26 72  1  0
 28 73  1  0
 28 74  1  0
 28 75  1  0
 29 76  1  0
 29 77  1  0
 30 78  1  0
 30 79  1  0
 32 80  1  0
 32 81  1  0
 32 82  1  0
M  END
>  <meeko>  (17) 
{"is_sidechain": [false], "intermolecular_energy": 2.731, "internal_energy": -0.839}

$$$$
EPH_relaxed_0001_pdb2pqr_Repair_119_r2_0001_out
     RDKit          3D

 82 86  0  0  0  0  0  0  0  0999 V2000
   -2.0600    7.7810   -1.9470 C   0  0  0  0  0  0  0  0  0  0  0  0
   -2.1180    8.5780   -0.6410 C   0  0  2  0  0  0  0  0  0  0  0  0
   -3.5430    8.6300   -0.0540 C   0  0  0  0  0  0  0  0  0  0  0  0
   -4.6470    8.5390   -1.1110 C   0  0  0  0  0  0  0  0  0  0  0  0
   -5.5890    7.4070   -0.8320 C   0  0  2  0  0  0  0  0  0  0  0  0
   -5.7940    6.5140   -1.9340 O   0  0  0  0  0  0  0  0  0  0  0  0
   -6.9430    7.2610   -1.5030 C   0  0  0  0  0  0  0  0  0  0  0  0
   -7.4300    8.2610   -2.5040 C   0  0  0  0  0  0  0  0  0  0  0  0
   -7.9880    6.4260   -0.8300 C   0  0  0  0  0  0  0  0  0  0  0  0
   -1.5990    9.9930   -0.8720 C   0  0  1  0  0  0  0  0  0  0  0  0
   -1.1380   10.6820    0.4400 C   0  0  0  0  0  0  0  0  0  0  0  0
    0.0750   11.5750    0.0730 C   0  0  0  0  0  0  0  0  0  0  0  0
    0.0660   11.6310   -1.4720 C   0  0  1  0  0  0  0  0  0  0  0  0
   -1.0000   12.7150   -1.8280 C   0  0  0  0  0  0  0  0  0  0  0  0
    1.4380   11.9240   -2.1620 C   0  0  2  0  0  0  0  0  0  0  0  0
    2.0580   13.2920   -1.8280 C   0  0  0  0  0  0  0  0  0  0  0  0
    1.6780   14.4050   -2.7470 C   0  0  0  0  0  0  0  0  0  0  0  0
    1.1050   14.2600   -3.9560 C   0  0  0  0  0  0  0  0  0  0  0  0
    0.8710   12.8680   -4.5550 C   0  0  1  0  0  0  0  0  0  0  0  0
    1.3390   12.8540   -6.0340 C   0  0  0  0  0  0  0  0  0  0  0  0
    0.6940   13.9620   -6.8620 C   0  0  0  0  0  0  0  0  0  0  0  0
    0.9970   15.3340   -6.2680 C   0  0  2  0  0  0  0  0  0  0  0  0
    2.3990   15.5930   -6.3970 O   0  0  0  0  0  0  0  0  0  0  0  0
    0.5780   15.4630   -4.7760 C   0  0  0  0  0  0  0  0  0  0  0  0
   -0.9670   15.4840   -4.6700 C   0  0  0  0  0  0  0  0  0  0  0  0
    1.0670   16.8430   -4.2600 C   0  0  0  0  0  0  0  0  0  0  0  0
    1.4530   11.6470   -3.7200 C   0  0  1  0  0  0  0  0  0  0  0  0
    2.9410   11.3940   -4.1130 C   0  0  0  0  0  0  0  0  0  0  0  0
    0.6640   10.3390   -4.1030 C   0  0  0  0  0  0  0  0  0  0  0  0
   -0.6200   10.0430   -3.3050 C   0  0  0  0  0  0  0  0  0  0  0  0
   -0.3670   10.1550   -1.7980 C   0  0  2  0  0  0  0  0  0  0  0  0
    0.6850    9.0620   -1.4070 C   0  0  0  0  0  0  0  0  0  0  0  0
   -1.9819    6.7078   -1.7185 H   0  0  0  0  0  0  0  0  0  0  0  0
   -2.9740    7.9661   -2.5304 H   0  0  0  0  0  0  0  0  0  0  0  0
   -1.1824    8.0965   -2.5304 H   0  0  0  0  0  0  0  0  0  0  0  0
   -1.4786    8.0612    0.0898 H   0  0  0  0  0  0  0  0  0  0  0  0
   -3.6615    7.7893    0.6454 H   0  0  0  0  0  0  0  0  0  0  0  0
   -3.6515    9.6061    0.4414 H   0  0  0  0  0  0  0  0  0  0  0  0
   -5.2140    9.4816   -1.1165 H   0  0  0  0  0  0  0  0  0  0  0  0
   -4.1733    8.3585   -2.0872 H   0  0  0  0  0  0  0  0  0  0  0  0
   -5.2818    7.3798    0.2239 H   0  0  0  0  0  0  0  0  0  0  0  0
   -7.8531    9.1298   -1.9784 H   0  0  0  0  0  0  0  0  0  0  0  0
   -6.5900    8.5874   -3.1347 H   0  0  0  0  0  0  0  0  0  0  0  0
   -8.2049    7.8009   -3.1347 H   0  0  0  0  0  0  0  0  0  0  0  0
   -7.8797    6.5125    0.2612 H   0  0  0  0  0  0  0  0  0  0  0  0
   -8.9866    6.7777   -1.1284 H   0  0  0  0  0  0  0  0  0  0  0  0
   -7.8653    5.3744   -1.1284 H   0  0  0  0  0  0  0  0  0  0  0  0
   -2.4862   10.4410   -1.3434 H   0  0  0  0  0  0  0  0  0  0  0  0
   -1.9516   11.2980    0.8506 H   0  0  0  0  0  0  0  0  0  0  0  0
   -0.8646    9.9377    1.2024 H   0  0  0  0  0  0  0  0  0  0  0  0
   -0.0419   12.5826    0.4986 H   0  0  0  0  0  0  0  0  0  0  0  0
    1.0206   11.1773    0.4701 H   0  0  0  0  0  0  0  0  0  0  0  0
   -1.4161   13.1381   -0.9018 H   0  0  0  0  0  0  0  0  0  0  0  0
   -0.5270   13.5150   -2.4165 H   0  0  0  0  0  0  0  0  0  0  0  0
   -1.8078   12.2555   -2.4165 H   0  0  0  0  0  0  0  0  0  0  0  0
    2.0985   11.1761   -1.6989 H   0  0  0  0  0  0  0  0  0  0  0  0
    1.7436   13.5686   -0.8108 H   0  0  0  0  0  0  0  0  0  0  0  0
    3.1458   13.1674   -1.9340 H   0  0  0  0  0  0  0  0  0  0  0  0
    1.8838   15.4308   -2.4073 H   0  0  0  0  0  0  0  0  0  0  0  0
   -0.2142   12.6952   -4.5055 H   0  0  0  0  0  0  0  0  0  0  0  0
    2.4309   12.9846   -6.0597 H   0  0  0  0  0  0  0  0  0  0  0  0
    1.0363   11.8910   -6.4711 H   0  0  0  0  0  0  0  0  0  0  0  0
    1.0871   13.9195   -7.8885 H   0  0  0  0  0  0  0  0  0  0  0  0
   -0.3957   13.8120   -6.8606 H   0  0  0  0  0  0  0  0  0  0  0  0
    0.4027   16.0727   -6.8258 H   0  0  0  0  0  0  0  0  0  0  0  0
    2.6400   16.2510   -5.7230 H   0  0  0  0  0  0  0  0  0  0  0  0
   -1.2618   15.4880   -3.6102 H   0  0  0  0  0  0  0  0  0  0  0  0
   -1.3561   16.3875   -5.1622 H   0  0  0  0  0  0  0  0  0  0  0  0
   -1.3805   14.5914   -5.1622 H   0  0  0  0  0  0  0  0  0  0  0  0
    1.0674   16.8440   -3.1600 H   0  0  0  0  0  0  0  0  0  0  0  0
    2.0866   17.0314   -4.6272 H   0  0  0  0  0  0  0  0  0  0  0  0
    0.3935   17.6314   -4.6272 H   0  0  0  0  0  0  0  0  0  0  0  0
    3.5484   11.2907   -3.2018 H   0  0  0  0  0  0  0  0  0  0  0  0
    3.0115   10.4710   -4.7072 H   0  0  0  0  0  0  0  0  0  0  0  0
    3.3126   12.2419   -4.7072 H   0  0  0  0  0  0  0  0  0  0  0  0
    0.3855   10.4172   -5.1643 H   0  0  0  0  0  0  0  0  0  0  0  0
    1.3477    9.5107   -3.8653 H   0  0  0  0  0  0  0  0  0  0  0  0
   -1.3978   10.7651   -3.5940 H   0  0  0  0  0  0  0  0  0  0  0  0
   -0.9446    9.0166   -3.5309 H   0  0  0  0  0  0  0  0  0  0  0  0
    0.7517    8.9927   -0.3112 H   0  0  0  0  0  0  0  0  0  0  0  0
    0.3739    8.0901   -1.8176 H   0  0  0  0  0  0  0  0  0  0  0  0
    1.6681    9.3358   -1.8176 H   0  0  0  0  0  0  0  0  0  0  0  0
  1  2  1  0
  2  3  1  0
  3  4  1  0
  4  5  1  0
  5  6  1  0
  6  7  1  0
  7  8  1  0
  7  9  1  0
  2 10  1  0
 10 11  1  0
 11 12  1  0
 12 13  1  0
 13 14  1  1
 13 15  1  0
 15 16  1  0
 16 17  1  0
 17 18  2  0
 18 19  1  0
 19 20  1  0
 20 21  1  0
 21 22  1  0
 22 23  1  0
 22 24  1  0
 24 25  1  0
 24 26  1  0
 19 27  1  0
 27 28  1  6
 27 29  1  0
 29 30  1  0
 30 31  1  0
 31 32  1  1
  7  5  1  0
 31 10  1  0
 31 13  1  0
 27 15  1  0
 24 18  1  0
  1 33  1  0
  1 34  1  0
  1 35  1  0
  2 36  1  1
  3 37  1  0
  3 38  1  0
  4 39  1  0
  4 40  1  0
  5 41  1  1
  8 42  1  0
  8 43  1  0
  8 44  1  0
  9 45  1  0
  9 46  1  0
  9 47  1  0
 10 48  1  6
 11 49  1  0
 11 50  1  0
 12 51  1  0
 12 52  1  0
 14 53  1  0
 14 54  1  0
 14 55  1  0
 15 56  1  1
 16 57  1  0
 16 58  1  0
 17 59  1  0
 19 60  1  6
 20 61  1  0
 20 62  1  0
 21 63  1  0
 21 64  1  0
 22 65  1  6
 23 66  1  0
 25 67  1  0
 25 68  1  0
 25 69  1  0
 26 70  1  0
 26 71  1  0
 26 72  1  0
 28 73  1  0
 28 74  1  0
 28 75  1  0
 29 76  1  0
 29 77  1  0
 30 78  1  0
 30 79  1  0
 32 80  1  0
 32 81  1  0
 32 82  1  0
M  END
>  <meeko>  (18) 
{"is_sidechain": [false], "intermolecular_energy": 2.731, "internal_energy": -0.839}

$$$$
EPH_relaxed_0001_pdb2pqr_Repair_119_r2_0001_out
     RDKit          3D

 82 86  0  0  0  0  0  0  0  0999 V2000
    0.1150   17.7900   -2.5040 C   0  0  0  0  0  0  0  0  0  0  0  0
   -0.1090   16.9040   -1.2760 C   0  0  2  0  0  0  0  0  0  0  0  0
   -0.1430   17.7220    0.0310 C   0  0  0  0  0  0  0  0  0  0  0  0
    0.5040   19.1040   -0.0900 C   0  0  0  0  0  0  0  0  0  0  0  0
    1.6660   19.2560    0.8440 C   0  0  2  0  0  0  0  0  0  0  0  0
    2.6610   20.1940    0.4150 O   0  0  0  0  0  0  0  0  0  0  0  0
    3.0790   18.8220    0.5000 C   0  0  0  0  0  0  0  0  0  0  0  0
    3.4040   18.2020   -0.8220 C   0  0  0  0  0  0  0  0  0  0  0  0
    4.0370   18.5520    1.6180 C   0  0  0  0  0  0  0  0  0  0  0  0
    0.9810   15.8410   -1.1960 C   0  0  1  0  0  0  0  0  0  0  0  0
    1.2180   15.3360    0.2520 C   0  0  0  0  0  0  0  0  0  0  0  0
    1.5720   13.8300    0.1480 C   0  0  0  0  0  0  0  0  0  0  0  0
    1.8510   13.5980   -1.3550 C   0  0  1  0  0  0  0  0  0  0  0  0
    3.3180   14.0860   -1.5710 C   0  0  0  0  0  0  0  0  0  0  0  0
    1.6460   12.1390   -1.8790 C   0  0  2  0  0  0  0  0  0  0  0  0
    2.5700   11.0830   -1.2480 C   0  0  0  0  0  0  0  0  0  0  0  0
    3.8620   10.8580   -1.9620 C   0  0  0  0  0  0  0  0  0  0  0  0
    4.1450   11.2640   -3.2140 C   0  0  0  0  0  0  0  0  0  0  0  0
    3.0780   11.9420   -4.0820 C   0  0  1  0  0  0  0  0  0  0  0  0
    3.0880   11.3130   -5.5000 C   0  0  0  0  0  0  0  0  0  0  0  0
    4.4700   11.3450   -6.1440 C   0  0  0  0  0  0  0  0  0  0  0  0
    5.4920   10.6100   -5.2790 C   0  0  2  0  0  0  0  0  0  0  0  0
    5.1630    9.2180   -5.2600 O   0  0  0  0  0  0  0  0  0  0  0  0
    5.5640   11.1510   -3.8240 C   0  0  0  0  0  0  0  0  0  0  0  0
    6.2070   12.5600   -3.8240 C   0  0  0  0  0  0  0  0  0  0  0  0
    6.5260   10.2340   -3.0210 C   0  0  0  0  0  0  0  0  0  0  0  0
    1.6190   12.0150   -3.4570 C   0  0  1  0  0  0  0  0  0  0  0  0
    0.8330   10.7090   -3.7870 C   0  0  0  0  0  0  0  0  0  0  0  0
    0.8260   13.1930   -4.1360 C   0  0  0  0  0  0  0  0  0  0  0  0
    0.9760   14.5890   -3.5000 C   0  0  0  0  0  0  0  0  0  0  0  0
    0.7520   14.5280   -1.9860 C   0  0  2  0  0  0  0  0  0  0  0  0
   -0.7230   14.0610   -1.7390 C   0  0  0  0  0  0  0  0  0  0  0  0
    0.3726   18.8088   -2.1790 H   0  0  0  0  0  0  0  0  0  0  0  0
    0.9374   17.3788   -3.1077 H   0  0  0  0  0  0  0  0  0  0  0  0
   -0.8041   17.8191   -3.1077 H   0  0  0  0  0  0  0  0  0  0  0  0
   -1.0911   16.4219   -1.3903 H   0  0  0  0  0  0  0  0  0  0  0  0
   -1.1932   17.8554    0.3298 H   0  0  0  0  0  0  0  0  0  0  0  0
    0.4379   17.1597    0.7769 H   0  0  0  0  0  0  0  0  0  0  0  0
    0.8562   19.2435   -1.1227 H   0  0  0  0  0  0  0  0  0  0  0  0
   -0.2500   19.8599    0.1750 H   0  0  0  0  0  0  0  0  0  0  0  0
    1.0231   19.0539    1.7134 H   0  0  0  0  0  0  0  0  0  0  0  0
    3.9092   17.2383   -0.6607 H   0  0  0  0  0  0  0  0  0  0  0  0
    2.4754   18.0389   -1.3887 H   0  0  0  0  0  0  0  0  0  0  0  0
    4.0664   18.8729   -1.3887 H   0  0  0  0  0  0  0  0  0  0  0  0
    3.5261   18.6960    2.5815 H   0  0  0  0  0  0  0  0  0  0  0  0
    4.4008   17.5163    1.5471 H   0  0  0  0  0  0  0  0  0  0  0  0
    4.8881   19.2453    1.5471 H   0  0  0  0  0  0  0  0  0  0  0  0
    1.8194   16.4027   -1.6338 H   0  0  0  0  0  0  0  0  0  0  0  0
    2.0484   15.8892    0.7150 H   0  0  0  0  0  0  0  0  0  0  0  0
    0.3247   15.4897    0.8752 H   0  0  0  0  0  0  0  0  0  0  0  0
    2.4638   13.5983    0.7488 H   0  0  0  0  0  0  0  0  0  0  0  0
    0.7658   13.1848    0.5272 H   0  0  0  0  0  0  0  0  0  0  0  0
    3.7987   14.2459   -0.5946 H   0  0  0  0  0  0  0  0  0  0  0  0
    3.8780   13.3257   -2.1353 H   0  0  0  0  0  0  0  0  0  0  0  0
    3.3110   15.0302   -2.1353 H   0  0  0  0  0  0  0  0  0  0  0  0
    0.6331   11.9004   -1.5224 H   0  0  0  0  0  0  0  0  0  0  0  0
    2.8003   11.4029   -0.2211 H   0  0  0  0  0  0  0  0  0  0  0  0
    2.0233   10.1299   -1.3002 H   0  0  0  0  0  0  0  0  0  0  0  0
    4.6492   10.3145   -1.4190 H   0  0  0  0  0  0  0  0  0  0  0  0
    3.3637   13.0025   -4.1419 H   0  0  0  0  0  0  0  0  0  0  0  0
    2.7586   10.2662   -5.4238 H   0  0  0  0  0  0  0  0  0  0  0  0
    2.4108   11.9054   -6.1329 H   0  0  0  0  0  0  0  0  0  0  0  0
    4.4188   10.8611   -7.1305 H   0  0  0  0  0  0  0  0  0  0  0  0
    4.7857   12.3938   -6.2462 H   0  0  0  0  0  0  0  0  0  0  0  0
    6.4837   10.7772   -5.7247 H   0  0  0  0  0  0  0  0  0  0  0  0
    5.8190    8.7530   -5.8060 H   0  0  0  0  0  0  0  0  0  0  0  0
    6.3592   12.8936   -2.7869 H   0  0  0  0  0  0  0  0  0  0  0  0
    7.1763   12.5207   -4.3425 H   0  0  0  0  0  0  0  0  0  0  0  0
    5.5421   13.2665   -4.3425 H   0  0  0  0  0  0  0  0  0  0  0  0
    6.3650   10.3875   -1.9437 H   0  0  0  0  0  0  0  0  0  0  0  0
    6.3276    9.1823   -3.2752 H   0  0  0  0  0  0  0  0  0  0  0  0
    7.5670   10.4825   -3.2752 H   0  0  0  0  0  0  0  0  0  0  0  0
    0.5351   10.2139   -2.8510 H   0  0  0  0  0  0  0  0  0  0  0  0
   -0.0647   10.9591   -4.3714 H   0  0  0  0  0  0  0  0  0  0  0  0
    1.4743   10.0328   -4.3714 H   0  0  0  0  0  0  0  0  0  0  0  0
    1.1656   13.2646   -5.1798 H   0  0  0  0  0  0  0  0  0  0  0  0
   -0.2359   12.9334   -4.0135 H   0  0  0  0  0  0  0  0  0  0  0  0
    1.9892   14.9682   -3.6990 H   0  0  0  0  0  0  0  0  0  0  0  0
    0.2216   15.2579   -3.9398 H   0  0  0  0  0  0  0  0  0  0  0  0
   -0.9123   14.0011   -0.6571 H   0  0  0  0  0  0  0  0  0  0  0  0
   -1.4172   14.7833   -2.1933 H   0  0  0  0  0  0  0  0  0  0  0  0
   -0.8750   13.0708   -2.1933 H   0  0  0  0  0  0  0  0  0  0  0  0
  1  2  1  0
  2  3  1  0
  3  4  1  0
  4  5  1  0
  5  6  1  0
  6  7  1  0
  7  8  1  0
  7  9  1  0
  2 10  1  0
 10 11  1  0
 11 12  1  0
 12 13  1  0
 13 14  1  1
 13 15  1  0
 15 16  1  0
 16 17  1  0
 17 18  2  0
 18 19  1  0
 19 20  1  0
 20 21  1  0
 21 22  1  0
 22 23  1  0
 22 24  1  0
 24 25  1  0
 24 26  1  0
 19 27  1  0
 27 28  1  1
 27 29  1  0
 29 30  1  0
 30 31  1  0
 31 32  1  6
  7  5  1  0
 31 10  1  0
 31 13  1  0
 27 15  1  0
 24 18  1  0
  1 33  1  0
  1 34  1  0
  1 35  1  0
  2 36  1  6
  3 37  1  0
  3 38  1  0
  4 39  1  0
  4 40  1  0
  5 41  1  1
  8 42  1  0
  8 43  1  0
  8 44  1  0
  9 45  1  0
  9 46  1  0
  9 47  1  0
 10 48  1  6
 11 49  1  0
 11 50  1  0
 12 51  1  0
 12 52  1  0
 14 53  1  0
 14 54  1  0
 14 55  1  0
 15 56  1  1
 16 57  1  0
 16 58  1  0
 17 59  1  0
 19 60  1  6
 20 61  1  0
 20 62  1  0
 21 63  1  0
 21 64  1  0
 22 65  1  6
 23 66  1  0
 25 67  1  0
 25 68  1  0
 25 69  1  0
 26 70  1  0
 26 71  1  0
 26 72  1  0
 28 73  1  0
 28 74  1  0
 28 75  1  0
 29 76  1  0
 29 77  1  0
 30 78  1  0
 30 79  1  0
 32 80  1  0
 32 81  1  0
 32 82  1  0
M  END
>  <meeko>  (19) 
{"is_sidechain": [false], "intermolecular_energy": 2.731, "internal_energy": -0.839}

$$$$
EPH_relaxed_0001_pdb2pqr_Repair_119_r2_0001_out
     RDKit          3D

 82 86  0  0  0  0  0  0  0  0999 V2000
    2.3390   10.6030   -1.1890 C   0  0  0  0  0  0  0  0  0  0  0  0
    2.6750   12.0550   -1.5440 C   0  0  2  0  0  0  0  0  0  0  0  0
    1.5080   13.0140   -1.2320 C   0  0  0  0  0  0  0  0  0  0  0  0
    1.9580   14.3710   -0.6860 C   0  0  0  0  0  0  0  0  0  0  0  0
    0.9920   15.4600   -1.0440 C   0  0  2  0  0  0  0  0  0  0  0  0
    1.4040   16.2890   -2.1390 O   0  0  0  0  0  0  0  0  0  0  0  0
    1.2910   16.9370   -0.8620 C   0  0  0  0  0  0  0  0  0  0  0  0
    2.5960   17.4050   -0.3000 C   0  0  0  0  0  0  0  0  0  0  0  0
    0.1430   17.8930   -0.7700 C   0  0  0  0  0  0  0  0  0  0  0  0
    3.0520   12.1550   -3.0180 C   0  0  1  0  0  0  0  0  0  0  0  0
    3.9670   10.9900   -3.4810 C   0  0  0  0  0  0  0  0  0  0  0  0
    3.5740   10.6680   -4.9460 C   0  0  0  0  0  0  0  0  0  0  0  0
    2.6910   11.8600   -5.3840 C   0  0  1  0  0  0  0  0  0  0  0  0
    3.7000   12.9870   -5.7690 C   0  0  0  0  0  0  0  0  0  0  0  0
    1.6720   11.5780   -6.5360 C   0  0  2  0  0  0  0  0  0  0  0  0
    2.3030   11.1780   -7.8810 C   0  0  0  0  0  0  0  0  0  0  0  0
    2.6060   12.3100   -8.8060 C   0  0  0  0  0  0  0  0  0  0  0  0
    2.1260   13.5620   -8.6920 C   0  0  0  0  0  0  0  0  0  0  0  0
    1.1060   13.9190   -7.6030 C   0  0  1  0  0  0  0  0  0  0  0  0
   -0.0470   14.7490   -8.2270 C   0  0  0  0  0  0  0  0  0  0  0  0
    0.4570   15.9770   -8.9790 C   0  0  0  0  0  0  0  0  0  0  0  0
    1.4240   15.5770  -10.0900 C   0  0  2  0  0  0  0  0  0  0  0  0
    0.7030   14.8450  -11.0870 O   0  0  0  0  0  0  0  0  0  0  0  0
    2.6220   14.7280   -9.5830 C   0  0  0  0  0  0  0  0  0  0  0  0
    3.5700   15.6160   -8.7390 C   0  0  0  0  0  0  0  0  0  0  0  0
    3.4420   14.2720  -10.8210 C   0  0  0  0  0  0  0  0  0  0  0  0
    0.5780   12.7050   -6.7240 C   0  0  1  0  0  0  0  0  0  0  0  0
   -0.6410   12.0300   -7.4250 C   0  0  0  0  0  0  0  0  0  0  0  0
    0.0480   13.2590   -5.3490 C   0  0  0  0  0  0  0  0  0  0  0  0
    1.0790   13.4020   -4.2130 C   0  0  0  0  0  0  0  0  0  0  0  0
    1.8980   12.1180   -4.0510 C   0  0  2  0  0  0  0  0  0  0  0  0
    0.9130   10.9710   -3.6420 C   0  0  0  0  0  0  0  0  0  0  0  0
    2.3128   10.4896   -0.0952 H   0  0  0  0  0  0  0  0  0  0  0  0
    1.3565   10.3409   -1.6085 H   0  0  0  0  0  0  0  0  0  0  0  0
    3.1065    9.9359   -1.6085 H   0  0  0  0  0  0  0  0  0  0  0  0
    3.5282   12.3599   -0.9202 H   0  0  0  0  0  0  0  0  0  0  0  0
    0.9400   13.1833   -2.1587 H   0  0  0  0  0  0  0  0  0  0  0  0
    0.8999   12.5374   -0.4490 H   0  0  0  0  0  0  0  0  0  0  0  0
    2.0336   14.3073    0.4096 H   0  0  0  0  0  0  0  0  0  0  0  0
    2.9322   14.6154   -1.1345 H   0  0  0  0  0  0  0  0  0  0  0  0
    0.1389   14.8366   -0.7379 H   0  0  0  0  0  0  0  0  0  0  0  0
    2.5491   17.3882    0.7989 H   0  0  0  0  0  0  0  0  0  0  0  0
    3.4024   16.7400   -0.6428 H   0  0  0  0  0  0  0  0  0  0  0  0
    2.7960   18.4309   -0.6428 H   0  0  0  0  0  0  0  0  0  0  0  0
   -0.0892   18.0864    0.2877 H   0  0  0  0  0  0  0  0  0  0  0  0
    0.4120   18.8378   -1.2650 H   0  0  0  0  0  0  0  0  0  0  0  0
   -0.7375   17.4574   -1.2650 H   0  0  0  0  0  0  0  0  0  0  0  0
    3.5274   13.1470   -3.0199 H   0  0  0  0  0  0  0  0  0  0  0  0
    5.0228   11.2943   -3.4301 H   0  0  0  0  0  0  0  0  0  0  0  0
    3.8413   10.1083   -2.8353 H   0  0  0  0  0  0  0  0  0  0  0  0
    4.4692   10.5939   -5.5809 H   0  0  0  0  0  0  0  0  0  0  0  0
    3.0494    9.7053   -5.0352 H   0  0  0  0  0  0  0  0  0  0  0  0
    4.1076   13.4423   -4.8544 H   0  0  0  0  0  0  0  0  0  0  0  0
    4.5209   12.5574   -6.3620 H   0  0  0  0  0  0  0  0  0  0  0  0
    3.1826   13.7555   -6.3620 H   0  0  0  0  0  0  0  0  0  0  0  0
    1.1477   10.6817   -6.1730 H   0  0  0  0  0  0  0  0  0  0  0  0
    3.2447   10.6497   -7.6707 H   0  0  0  0  0  0  0  0  0  0  0  0
    1.5544   10.5574   -8.3952 H   0  0  0  0  0  0  0  0  0  0  0  0
    3.2781   12.1033   -9.6519 H   0  0  0  0  0  0  0  0  0  0  0  0
    1.6480   14.5287   -6.8651 H   0  0  0  0  0  0  0  0  0  0  0  0
   -0.6025   14.1092   -8.9285 H   0  0  0  0  0  0  0  0  0  0  0  0
   -0.6882   15.1005   -7.4052 H   0  0  0  0  0  0  0  0  0  0  0  0
   -0.4005   16.5056   -9.4210 H   0  0  0  0  0  0  0  0  0  0  0  0
    0.9872   16.6299   -8.2701 H   0  0  0  0  0  0  0  0  0  0  0  0
    1.8495   16.5021  -10.5061 H   0  0  0  0  0  0  0  0  0  0  0  0
   -0.1860   14.6670  -10.7360 H   0  0  0  0  0  0  0  0  0  0  0  0
    3.3820   15.4399   -7.6696 H   0  0  0  0  0  0  0  0  0  0  0  0
    4.6146   15.3639   -8.9740 H   0  0  0  0  0  0  0  0  0  0  0  0
    3.3866   16.6748   -8.9740 H   0  0  0  0  0  0  0  0  0  0  0  0
    4.3579   13.7627  -10.4868 H   0  0  0  0  0  0  0  0  0  0  0  0
    2.8379   13.5803  -11.4264 H   0  0  0  0  0  0  0  0  0  0  0  0
    3.7109   15.1502  -11.4264 H   0  0  0  0  0  0  0  0  0  0  0  0
   -1.3353   11.6455   -6.6633 H   0  0  0  0  0  0  0  0  0  0  0  0
   -1.1588   12.7699   -8.0530 H   0  0  0  0  0  0  0  0  0  0  0  0
   -0.2886   11.1985   -8.0530 H   0  0  0  0  0  0  0  0  0  0  0  0
   -0.3822   14.2541   -5.5349 H   0  0  0  0  0  0  0  0  0  0  0  0
   -0.6696   12.5053   -4.9928 H   0  0  0  0  0  0  0  0  0  0  0  0
    1.7584   14.2351   -4.4464 H   0  0  0  0  0  0  0  0  0  0  0  0
    0.5409   13.5956   -3.2734 H   0  0  0  0  0  0  0  0  0  0  0  0
    0.8588   10.9079   -2.5451 H   0  0  0  0  0  0  0  0  0  0  0  0
   -0.0872   11.1849   -4.0468 H   0  0  0  0  0  0  0  0  0  0  0  0
    1.2756   10.0146   -4.0468 H   0  0  0  0  0  0  0  0  0  0  0  0
  1  2  1  0
  2  3  1  0
  3  4  1  0
  4  5  1  0
  5  6  1  0
  6  7  1  0
  7  8  1  0
  7  9  1  0
  2 10  1  0
 10 11  1  0
 11 12  1  0
 12 13  1  0
 13 14  1  6
 13 15  1  0
 15 16  1  0
 16 17  1  0
 17 18  2  0
 18 19  1  0
 19 20  1  0
 20 21  1  0
 21 22  1  0
 22 23  1  0
 22 24  1  0
 24 25  1  0
 24 26  1  0
 19 27  1  0
 27 28  1  6
 27 29  1  0
 29 30  1  0
 30 31  1  0
 31 32  1  1
  7  5  1  0
 31 10  1  0
 31 13  1  0
 27 15  1  0
 24 18  1  0
  1 33  1  0
  1 34  1  0
  1 35  1  0
  2 36  1  1
  3 37  1  0
  3 38  1  0
  4 39  1  0
  4 40  1  0
  5 41  1  6
  8 42  1  0
  8 43  1  0
  8 44  1  0
  9 45  1  0
  9 46  1  0
  9 47  1  0
 10 48  1  1
 11 49  1  0
 11 50  1  0
 12 51  1  0
 12 52  1  0
 14 53  1  0
 14 54  1  0
 14 55  1  0
 15 56  1  1
 16 57  1  0
 16 58  1  0
 17 59  1  0
 19 60  1  1
 20 61  1  0
 20 62  1  0
 21 63  1  0
 21 64  1  0
 22 65  1  6
 23 66  1  0
 25 67  1  0
 25 68  1  0
 25 69  1  0
 26 70  1  0
 26 71  1  0
 26 72  1  0
 28 73  1  0
 28 74  1  0
 28 75  1  0
 29 76  1  0
 29 77  1  0
 30 78  1  0
 30 79  1  0
 32 80  1  0
 32 81  1  0
 32 82  1  0
M  END
>  <meeko>  (20) 
{"is_sidechain": [false], "intermolecular_energy": 2.731, "internal_energy": -0.839}

$$$$
