EPH_relaxed_0001_pdb2pqr_Repair_174_r2_0001_out
     RDKit          3D

 82 86  0  0  0  0  0  0  0  0999 V2000
   -1.6060    8.8400   -1.7770 C   0  0  0  0  0  0  0  0  0  0  0  0
   -2.0750    9.3510   -0.4110 C   0  0  2  0  0  0  0  0  0  0  0  0
   -3.5910    9.6310   -0.3850 C   0  0  0  0  0  0  0  0  0  0  0  0
   -4.4480    8.3670   -0.2810 C   0  0  0  0  0  0  0  0  0  0  0  0
   -5.0970    8.0280   -1.5890 C   0  0  2  0  0  0  0  0  0  0  0  0
   -6.3500    8.6840   -1.8240 O   0  0  0  0  0  0  0  0  0  0  0  0
   -6.3960    7.2530   -1.7030 C   0  0  0  0  0  0  0  0  0  0  0  0
   -7.1240    6.7680   -0.4880 C   0  0  0  0  0  0  0  0  0  0  0  0
   -6.6990    6.5480   -2.9880 C   0  0  0  0  0  0  0  0  0  0  0  0
   -1.3050   10.6120   -0.0360 C   0  0  1  0  0  0  0  0  0  0  0  0
   -0.3230   10.3840    1.1430 C   0  0  0  0  0  0  0  0  0  0  0  0
    0.9150   11.2770    0.8730 C   0  0  0  0  0  0  0  0  0  0  0  0
    0.4690   12.2290   -0.2620 C   0  0  1  0  0  0  0  0  0  0  0  0
   -0.3430   13.3540    0.4540 C   0  0  0  0  0  0  0  0  0  0  0  0
    1.6080   12.8200   -1.1560 C   0  0  2  0  0  0  0  0  0  0  0  0
    2.6230   13.7090   -0.4160 C   0  0  0  0  0  0  0  0  0  0  0  0
    2.2860   15.1620   -0.3740 C   0  0  0  0  0  0  0  0  0  0  0  0
    1.3680   15.7750   -1.1450 C   0  0  0  0  0  0  0  0  0  0  0  0
    0.6250   15.0070   -2.2460 C   0  0  1  0  0  0  0  0  0  0  0  0
    0.6220   15.8470   -3.5500 C   0  0  0  0  0  0  0  0  0  0  0  0
    0.0650   17.2510   -3.3410 C   0  0  0  0  0  0  0  0  0  0  0  0
    0.8660   18.0030   -2.2810 C   0  0  2  0  0  0  0  0  0  0  0  0
    2.1860   18.2370   -2.7810 O   0  0  0  0  0  0  0  0  0  0  0  0
    0.9470   17.2490   -0.9240 C   0  0  0  0  0  0  0  0  0  0  0  0
   -0.4420   17.2600   -0.2390 C   0  0  0  0  0  0  0  0  0  0  0  0
    1.8980   18.0450    0.0090 C   0  0  0  0  0  0  0  0  0  0  0  0
    1.0970   13.5090   -2.4850 C   0  0  1  0  0  0  0  0  0  0  0  0
    2.2900   13.4800   -3.4890 C   0  0  0  0  0  0  0  0  0  0  0  0
   -0.0730   12.7040   -3.1640 C   0  0  0  0  0  0  0  0  0  0  0  0
   -1.1000   12.0430   -2.2240 C   0  0  0  0  0  0  0  0  0  0  0  0
   -0.3980   11.2410   -1.1240 C   0  0  2  0  0  0  0  0  0  0  0  0
    0.4090   10.0890   -1.8120 C   0  0  0  0  0  0  0  0  0  0  0  0
   -0.8685    8.0364   -1.6344 H   0  0  0  0  0  0  0  0  0  0  0  0
   -2.4681    8.4510   -2.3387 H   0  0  0  0  0  0  0  0  0  0  0  0
   -1.1447    9.6656   -2.3387 H   0  0  0  0  0  0  0  0  0  0  0  0
   -1.8735    8.5596    0.3259 H   0  0  0  0  0  0  0  0  0  0  0  0
   -3.8110   10.2721    0.4814 H   0  0  0  0  0  0  0  0  0  0  0  0
   -3.8453   10.1144   -1.3398 H   0  0  0  0  0  0  0  0  0  0  0  0
   -3.8084    7.5271    0.0279 H   0  0  0  0  0  0  0  0  0  0  0  0
   -5.2417    8.5507    0.4582 H   0  0  0  0  0  0  0  0  0  0  0  0
   -4.1156    7.8973   -2.0683 H   0  0  0  0  0  0  0  0  0  0  0  0
   -6.6019    7.1159    0.4155 H   0  0  0  0  0  0  0  0  0  0  0  0
   -8.1505    7.1634   -0.4934 H   0  0  0  0  0  0  0  0  0  0  0  0
   -7.1546    5.6684   -0.4934 H   0  0  0  0  0  0  0  0  0  0  0  0
   -7.1248    5.5572   -2.7711 H   0  0  0  0  0  0  0  0  0  0  0  0
   -7.4226    7.1390   -3.5687 H   0  0  0  0  0  0  0  0  0  0  0  0
   -5.7723    6.4297   -3.5687 H   0  0  0  0  0  0  0  0  0  0  0  0
   -2.1475   11.2835    0.1861 H   0  0  0  0  0  0  0  0  0  0  0  0
   -0.7978   10.6719    2.0926 H   0  0  0  0  0  0  0  0  0  0  0  0
   -0.0367    9.3246    1.2194 H   0  0  0  0  0  0  0  0  0  0  0  0
    1.1866   11.8470    1.7737 H   0  0  0  0  0  0  0  0  0  0  0  0
    1.8026   10.6879    0.5989 H   0  0  0  0  0  0  0  0  0  0  0  0
   -0.2553   13.2326    1.5438 H   0  0  0  0  0  0  0  0  0  0  0  0
    0.0554   14.3367    0.1613 H   0  0  0  0  0  0  0  0  0  0  0  0
   -1.4011   13.2854    0.1613 H   0  0  0  0  0  0  0  0  0  0  0  0
    2.1633   11.9194   -1.4570 H   0  0  0  0  0  0  0  0  0  0  0  0
    2.6994   13.3477    0.6202 H   0  0  0  0  0  0  0  0  0  0  0  0
    3.5641   13.6310   -0.9802 H   0  0  0  0  0  0  0  0  0  0  0  0
    2.8340   15.7852    0.3481 H   0  0  0  0  0  0  0  0  0  0  0  0
   -0.4055   14.8759   -1.8844 H   0  0  0  0  0  0  0  0  0  0  0  0
    1.6551   15.9290   -3.9188 H   0  0  0  0  0  0  0  0  0  0  0  0
   -0.0278   15.3350   -4.2750 H   0  0  0  0  0  0  0  0  0  0  0  0
    0.1164   17.8038   -4.2906 H   0  0  0  0  0  0  0  0  0  0  0  0
   -0.9776   17.1682   -3.0003 H   0  0  0  0  0  0  0  0  0  0  0  0
    0.3426   18.9499   -2.0823 H   0  0  0  0  0  0  0  0  0  0  0  0
    2.1690   19.0740   -3.2760 H   0  0  0  0  0  0  0  0  0  0  0  0
   -0.3122   17.2590    0.8533 H   0  0  0  0  0  0  0  0  0  0  0  0
   -0.9931   18.1625   -0.5419 H   0  0  0  0  0  0  0  0  0  0  0  0
   -1.0073   16.3663   -0.5419 H   0  0  0  0  0  0  0  0  0  0  0  0
    1.6446   17.8329    1.0582 H   0  0  0  0  0  0  0  0  0  0  0  0
    2.9382   17.7444   -0.1849 H   0  0  0  0  0  0  0  0  0  0  0  0
    1.7853   19.1219   -0.1849 H   0  0  0  0  0  0  0  0  0  0  0  0
    3.2380   13.4570   -2.9315 H   0  0  0  0  0  0  0  0  0  0  0  0
    2.2149   12.5834   -4.1219 H   0  0  0  0  0  0  0  0  0  0  0  0
    2.2586   14.3792   -4.1219 H   0  0  0  0  0  0  0  0  0  0  0  0
   -0.6198   13.3996   -3.8175 H   0  0  0  0  0  0  0  0  0  0  0  0
    0.4176   11.8693   -3.6861 H   0  0  0  0  0  0  0  0  0  0  0  0
   -1.7190   12.8250   -1.7601 H   0  0  0  0  0  0  0  0  0  0  0  0
   -1.7256   11.3570   -2.8140 H   0  0  0  0  0  0  0  0  0  0  0  0
    0.8594    9.4460   -1.0415 H   0  0  0  0  0  0  0  0  0  0  0  0
   -0.2684    9.4905   -2.4389 H   0  0  0  0  0  0  0  0  0  0  0  0
    1.2029   10.5212   -2.4389 H   0  0  0  0  0  0  0  0  0  0  0  0
  1  2  1  0
  2  3  1  0
  3  4  1  0
  4  5  1  0
  5  6  1  0
  6  7  1  0
  7  8  1  0
  7  9  1  0
  2 10  1  0
 10 11  1  0
 11 12  1  0
 12 13  1  0
 13 14  1  1
 13 15  1  0
 15 16  1  0
 16 17  1  0
 17 18  2  0
 18 19  1  0
 19 20  1  0
 20 21  1  0
 21 22  1  0
 22 23  1  0
 22 24  1  0
 24 25  1  0
 24 26  1  0
 19 27  1  0
 27 28  1  6
 27 29  1  0
 29 30  1  0
 30 31  1  0
 31 32  1  6
  7  5  1  0
 31 10  1  0
 31 13  1  0
 27 15  1  0
 24 18  1  0
  1 33  1  0
  1 34  1  0
  1 35  1  0
  2 36  1  1
  3 37  1  0
  3 38  1  0
  4 39  1  0
  4 40  1  0
  5 41  1  6
  8 42  1  0
  8 43  1  0
  8 44  1  0
  9 45  1  0
  9 46  1  0
  9 47  1  0
 10 48  1  1
 11 49  1  0
 11 50  1  0
 12 51  1  0
 12 52  1  0
 14 53  1  0
 14 54  1  0
 14 55  1  0
 15 56  1  6
 16 57  1  0
 16 58  1  0
 17 59  1  0
 19 60  1  1
 20 61  1  0
 20 62  1  0
 21 63  1  0
 21 64  1  0
 22 65  1  1
 23 66  1  0
 25 67  1  0
 25 68  1  0
 25 69  1  0
 26 70  1  0
 26 71  1  0
 26 72  1  0
 28 73  1  0
 28 74  1  0
 28 75  1  0
 29 76  1  0
 29 77  1  0
 30 78  1  0
 30 79  1  0
 32 80  1  0
 32 81  1  0
 32 82  1  0
M  END
>  <meeko>  (1) 
{"is_sidechain": [false], "intermolecular_energy": 2.731, "internal_energy": -0.839}

$$$$
EPH_relaxed_0001_pdb2pqr_Repair_174_r2_0001_out
     RDKit          3D

 82 86  0  0  0  0  0  0  0  0999 V2000
    4.2540   17.1630   -0.7970 C   0  0  0  0  0  0  0  0  0  0  0  0
    2.8790   17.7790   -0.5220 C   0  0  2  0  0  0  0  0  0  0  0  0
    2.8900   18.6950    0.7180 C   0  0  0  0  0  0  0  0  0  0  0  0
    4.2240   18.6960    1.4700 C   0  0  0  0  0  0  0  0  0  0  0  0
    4.0730   19.2210    2.8660 C   0  0  2  0  0  0  0  0  0  0  0  0
    5.0530   20.1940    3.2490 O   0  0  0  0  0  0  0  0  0  0  0  0
    5.0750   18.9530    3.9730 C   0  0  0  0  0  0  0  0  0  0  0  0
    6.3020   18.1310    3.7330 C   0  0  0  0  0  0  0  0  0  0  0  0
    4.6210   19.0760    5.3940 C   0  0  0  0  0  0  0  0  0  0  0  0
    1.8410   16.6770   -0.3470 C   0  0  1  0  0  0  0  0  0  0  0  0
    0.4110   17.2340   -0.1200 C   0  0  0  0  0  0  0  0  0  0  0  0
   -0.5670   16.2500   -0.8120 C   0  0  0  0  0  0  0  0  0  0  0  0
    0.2910   15.0010   -1.1230 C   0  0  1  0  0  0  0  0  0  0  0  0
    0.3400   14.2050    0.2190 C   0  0  0  0  0  0  0  0  0  0  0  0
   -0.1970   14.1050   -2.3080 C   0  0  2  0  0  0  0  0  0  0  0  0
   -1.5810   13.4620   -2.1130 C   0  0  0  0  0  0  0  0  0  0  0  0
   -1.5750   12.1170   -1.4680 C   0  0  0  0  0  0  0  0  0  0  0  0
   -0.4950   11.3260   -1.3180 C   0  0  0  0  0  0  0  0  0  0  0  0
    0.8620   11.7250   -1.9120 C   0  0  1  0  0  0  0  0  0  0  0  0
    1.4830   10.5090   -2.6470 C   0  0  0  0  0  0  0  0  0  0  0  0
    1.5760    9.2730   -1.7580 C   0  0  0  0  0  0  0  0  0  0  0  0
    0.1990    8.8730   -1.2340 C   0  0  2  0  0  0  0  0  0  0  0  0
   -0.6030    8.4340   -2.3340 O   0  0  0  0  0  0  0  0  0  0  0  0
   -0.5280   10.0230   -0.4830 C   0  0  0  0  0  0  0  0  0  0  0  0
    0.1820   10.2930    0.8670 C   0  0  0  0  0  0  0  0  0  0  0  0
   -1.9590    9.5330   -0.1310 C   0  0  0  0  0  0  0  0  0  0  0  0
    0.8690   13.0440   -2.7990 C   0  0  1  0  0  0  0  0  0  0  0  0
    0.5030   12.6950   -4.2740 C   0  0  0  0  0  0  0  0  0  0  0  0
    2.3290   13.6330   -2.8320 C   0  0  0  0  0  0  0  0  0  0  0  0
    2.7110   14.6060   -1.7000 C   0  0  0  0  0  0  0  0  0  0  0  0
    1.6450   15.6910   -1.5260 C   0  0  2  0  0  0  0  0  0  0  0  0
    1.5870   16.5230   -2.8520 C   0  0  0  0  0  0  0  0  0  0  0  0
    4.7531   16.9394    0.1574 H   0  0  0  0  0  0  0  0  0  0  0  0
    4.1310   16.2339   -1.3730 H   0  0  0  0  0  0  0  0  0  0  0  0
    4.8654   17.8732   -1.3730 H   0  0  0  0  0  0  0  0  0  0  0  0
    2.6165   18.4021   -1.3896 H   0  0  0  0  0  0  0  0  0  0  0  0
    2.6741   19.7232    0.3923 H   0  0  0  0  0  0  0  0  0  0  0  0
    2.1299   18.3065    1.4117 H   0  0  0  0  0  0  0  0  0  0  0  0
    4.6081   17.6663    1.5160 H   0  0  0  0  0  0  0  0  0  0  0  0
    4.9216   19.3531    0.9300 H   0  0  0  0  0  0  0  0  0  0  0  0
    2.9802   19.1060    2.8163 H   0  0  0  0  0  0  0  0  0  0  0  0
    6.7409   17.8370    4.6979 H   0  0  0  0  0  0  0  0  0  0  0  0
    6.0337   17.2297    3.1624 H   0  0  0  0  0  0  0  0  0  0  0  0
    7.0335   18.7220    3.1624 H   0  0  0  0  0  0  0  0  0  0  0  0
    5.4601   18.8487    6.0680 H   0  0  0  0  0  0  0  0  0  0  0  0
    4.2695   20.1018    5.5791 H   0  0  0  0  0  0  0  0  0  0  0  0
    3.7998   18.3680    5.5791 H   0  0  0  0  0  0  0  0  0  0  0  0
    2.2751   16.1500    0.5154 H   0  0  0  0  0  0  0  0  0  0  0  0
    0.1929   17.2905    0.9567 H   0  0  0  0  0  0  0  0  0  0  0  0
    0.3113   18.2477   -0.5353 H   0  0  0  0  0  0  0  0  0  0  0  0
   -1.3987   15.9922   -0.1399 H   0  0  0  0  0  0  0  0  0  0  0  0
   -1.0208   16.6802   -1.7170 H   0  0  0  0  0  0  0  0  0  0  0  0
    0.2967   14.9079    1.0640 H   0  0  0  0  0  0  0  0  0  0  0  0
   -0.5176   13.5179    0.2693 H   0  0  0  0  0  0  0  0  0  0  0  0
    1.2753   13.6283    0.2693 H   0  0  0  0  0  0  0  0  0  0  0  0
   -0.3192   14.8353   -3.1214 H   0  0  0  0  0  0  0  0  0  0  0  0
   -2.1836   14.1363   -1.4867 H   0  0  0  0  0  0  0  0  0  0  0  0
   -1.9915   13.3128   -3.1226 H   0  0  0  0  0  0  0  0  0  0  0  0
   -2.5334   11.7392   -1.0823 H   0  0  0  0  0  0  0  0  0  0  0  0
    1.4963   12.0086   -1.0593 H   0  0  0  0  0  0  0  0  0  0  0  0
    0.8592   10.2688   -3.5206 H   0  0  0  0  0  0  0  0  0  0  0  0
    2.5058   10.7848   -2.9433 H   0  0  0  0  0  0  0  0  0  0  0  0
    1.9948    8.4402   -2.3420 H   0  0  0  0  0  0  0  0  0  0  0  0
    2.2242    9.5054   -0.9002 H   0  0  0  0  0  0  0  0  0  0  0  0
    0.3462    8.0647   -0.5026 H   0  0  0  0  0  0  0  0  0  0  0  0
   -0.0060    8.0560   -3.0020 H   0  0  0  0  0  0  0  0  0  0  0  0
   -0.4948   10.0356    1.6951 H   0  0  0  0  0  0  0  0  0  0  0  0
    1.0917    9.6781    0.9323 H   0  0  0  0  0  0  0  0  0  0  0  0
    0.4532   11.3570    0.9323 H   0  0  0  0  0  0  0  0  0  0  0  0
   -2.0745    9.4935    0.9622 H   0  0  0  0  0  0  0  0  0  0  0  0
   -2.6990   10.2289   -0.5529 H   0  0  0  0  0  0  0  0  0  0  0  0
   -2.1171    8.5295   -0.5529 H   0  0  0  0  0  0  0  0  0  0  0  0
   -0.2930   11.9359   -4.2845 H   0  0  0  0  0  0  0  0  0  0  0  0
    0.1521   13.6014   -4.7890 H   0  0  0  0  0  0  0  0  0  0  0  0
    1.3917   12.3014   -4.7890 H   0  0  0  0  0  0  0  0  0  0  0  0
    3.0304   12.7864   -2.7941 H   0  0  0  0  0  0  0  0  0  0  0  0
    2.3776   14.2307   -3.7541 H   0  0  0  0  0  0  0  0  0  0  0  0
    2.8085   14.0435   -0.7598 H   0  0  0  0  0  0  0  0  0  0  0  0
    3.6640   15.0897   -1.9604 H   0  0  0  0  0  0  0  0  0  0  0  0
    1.5124   17.5935   -2.6102 H   0  0  0  0  0  0  0  0  0  0  0  0
    2.4999   16.3423   -3.4385 H   0  0  0  0  0  0  0  0  0  0  0  0
    0.7080   16.2174   -3.4385 H   0  0  0  0  0  0  0  0  0  0  0  0
  1  2  1  0
  2  3  1  0
  3  4  1  0
  4  5  1  0
  5  6  1  0
  6  7  1  0
  7  8  1  0
  7  9  1  0
  2 10  1  0
 10 11  1  0
 11 12  1  0
 12 13  1  0
 13 14  1  1
 13 15  1  0
 15 16  1  0
 16 17  1  0
 17 18  2  0
 18 19  1  0
 19 20  1  0
 20 21  1  0
 21 22  1  0
 22 23  1  0
 22 24  1  0
 24 25  1  0
 24 26  1  0
 19 27  1  0
 27 28  1  6
 27 29  1  0
 29 30  1  0
 30 31  1  0
 31 32  1  6
  7  5  1  0
 31 10  1  0
 31 13  1  0
 27 15  1  0
 24 18  1  0
  1 33  1  0
  1 34  1  0
  1 35  1  0
  2 36  1  6
  3 37  1  0
  3 38  1  0
  4 39  1  0
  4 40  1  0
  5 41  1  1
  8 42  1  0
  8 43  1  0
  8 44  1  0
  9 45  1  0
  9 46  1  0
  9 47  1  0
 10 48  1  1
 11 49  1  0
 11 50  1  0
 12 51  1  0
 12 52  1  0
 14 53  1  0
 14 54  1  0
 14 55  1  0
 15 56  1  6
 16 57  1  0
 16 58  1  0
 17 59  1  0
 19 60  1  1
 20 61  1  0
 20 62  1  0
 21 63  1  0
 21 64  1  0
 22 65  1  1
 23 66  1  0
 25 67  1  0
 25 68  1  0
 25 69  1  0
 26 70  1  0
 26 71  1  0
 26 72  1  0
 28 73  1  0
 28 74  1  0
 28 75  1  0
 29 76  1  0
 29 77  1  0
 30 78  1  0
 30 79  1  0
 32 80  1  0
 32 81  1  0
 32 82  1  0
M  END
>  <meeko>  (2) 
{"is_sidechain": [false], "intermolecular_energy": 2.731, "internal_energy": -0.839}

$$$$
EPH_relaxed_0001_pdb2pqr_Repair_174_r2_0001_out
     RDKit          3D

 82 86  0  0  0  0  0  0  0  0999 V2000
   -0.9210    9.7630   -2.4680 C   0  0  0  0  0  0  0  0  0  0  0  0
   -1.2550    9.9060   -0.9800 C   0  0  2  0  0  0  0  0  0  0  0  0
   -2.7740    9.8610   -0.7190 C   0  0  0  0  0  0  0  0  0  0  0  0
   -3.3340    8.4430   -0.5890 C   0  0  0  0  0  0  0  0  0  0  0  0
   -4.8280    8.4230   -0.7090 C   0  0  2  0  0  0  0  0  0  0  0  0
   -5.4390    7.1690   -0.3810 O   0  0  0  0  0  0  0  0  0  0  0  0
   -5.5740    7.6030   -1.7440 C   0  0  0  0  0  0  0  0  0  0  0  0
   -4.8470    6.7440   -2.7310 C   0  0  0  0  0  0  0  0  0  0  0  0
   -6.9670    8.0100   -2.1120 C   0  0  0  0  0  0  0  0  0  0  0  0
   -0.6720   11.2070   -0.4400 C   0  0  1  0  0  0  0  0  0  0  0  0
    0.4290   10.9700    0.6280 C   0  0  0  0  0  0  0  0  0  0  0  0
    1.4790   12.0960    0.4460 C   0  0  0  0  0  0  0  0  0  0  0  0
    0.7930   13.1220   -0.4860 C   0  0  1  0  0  0  0  0  0  0  0  0
   -0.1290   13.9620    0.4530 C   0  0  0  0  0  0  0  0  0  0  0  0
    1.7430   14.0340   -1.3280 C   0  0  2  0  0  0  0  0  0  0  0  0
    2.6590   14.9580   -0.5060 C   0  0  0  0  0  0  0  0  0  0  0  0
    2.0950   16.3070   -0.2000 C   0  0  0  0  0  0  0  0  0  0  0  0
    1.0300   16.8640   -0.8050 C   0  0  0  0  0  0  0  0  0  0  0  0
    0.3330   16.1620   -1.9770 C   0  0  1  0  0  0  0  0  0  0  0  0
    0.0860   17.1830   -3.1190 C   0  0  0  0  0  0  0  0  0  0  0  0
   -0.6720   18.4190   -2.6450 C   0  0  0  0  0  0  0  0  0  0  0  0
    0.0820   19.1220   -1.5190 C   0  0  2  0  0  0  0  0  0  0  0  0
    1.3010   19.6570   -2.0430 O   0  0  0  0  0  0  0  0  0  0  0  0
    0.3950   18.1890   -0.3160 C   0  0  0  0  0  0  0  0  0  0  0  0
   -0.9160   17.8520    0.4360 C   0  0  0  0  0  0  0  0  0  0  0  0
    1.2780   18.9820    0.6850 C   0  0  0  0  0  0  0  0  0  0  0  0
    1.0200   14.8250   -2.4920 C   0  0  1  0  0  0  0  0  0  0  0  0
    2.1150   15.1620   -3.5490 C   0  0  0  0  0  0  0  0  0  0  0  0
   -0.0570   13.9460   -3.2320 C   0  0  0  0  0  0  0  0  0  0  0  0
   -0.8820   12.9780   -2.3630 C   0  0  0  0  0  0  0  0  0  0  0  0
    0.0280   12.1470   -1.4530 C   0  0  2  0  0  0  0  0  0  0  0  0
    0.9530   11.2750   -2.3700 C   0  0  0  0  0  0  0  0  0  0  0  0
    0.0851    9.3322   -2.5782 H   0  0  0  0  0  0  0  0  0  0  0  0
   -1.6576    9.1014   -2.9472 H   0  0  0  0  0  0  0  0  0  0  0  0
   -0.9506   10.7527   -2.9472 H   0  0  0  0  0  0  0  0  0  0  0  0
   -0.8047    9.0504   -0.4555 H   0  0  0  0  0  0  0  0  0  0  0  0
   -2.9821   10.4035    0.2150 H   0  0  0  0  0  0  0  0  0  0  0  0
   -3.2636   10.3214   -1.5898 H   0  0  0  0  0  0  0  0  0  0  0  0
   -2.9042    7.8159   -1.3840 H   0  0  0  0  0  0  0  0  0  0  0  0
   -3.0650    8.0583    0.4058 H   0  0  0  0  0  0  0  0  0  0  0  0
   -4.8874    9.4844   -0.4263 H   0  0  0  0  0  0  0  0  0  0  0  0
   -4.2271    6.0116   -2.1931 H   0  0  0  0  0  0  0  0  0  0  0  0
   -5.5754    6.2144   -3.3626 H   0  0  0  0  0  0  0  0  0  0  0  0
   -4.2042    7.3748   -3.3626 H   0  0  0  0  0  0  0  0  0  0  0  0
   -7.5528    8.1812   -1.1968 H   0  0  0  0  0  0  0  0  0  0  0  0
   -6.9339    8.9360   -2.7048 H   0  0  0  0  0  0  0  0  0  0  0  0
   -7.4377    7.2118   -2.7048 H   0  0  0  0  0  0  0  0  0  0  0  0
   -1.5913   11.6783   -0.0622 H   0  0  0  0  0  0  0  0  0  0  0  0
   -0.0059   11.0173    1.6373 H   0  0  0  0  0  0  0  0  0  0  0  0
    0.8889    9.9781    0.5075 H   0  0  0  0  0  0  0  0  0  0  0  0
    1.7271   12.5558    1.4140 H   0  0  0  0  0  0  0  0  0  0  0  0
    2.4251   11.7207    0.0288 H   0  0  0  0  0  0  0  0  0  0  0  0
    0.1156   13.7392    1.5021 H   0  0  0  0  0  0  0  0  0  0  0  0
    0.0288   15.0332    0.2593 H   0  0  0  0  0  0  0  0  0  0  0  0
   -1.1810   13.7054    0.2593 H   0  0  0  0  0  0  0  0  0  0  0  0
    2.4091   13.3008   -1.8062 H   0  0  0  0  0  0  0  0  0  0  0  0
    2.8791   14.4571    0.4483 H   0  0  0  0  0  0  0  0  0  0  0  0
    3.5499   15.1341   -1.1267 H   0  0  0  0  0  0  0  0  0  0  0  0
    2.5921   16.8944    0.5860 H   0  0  0  0  0  0  0  0  0  0  0  0
   -0.6290   15.7994   -1.5858 H   0  0  0  0  0  0  0  0  0  0  0  0
    1.0580   17.4997   -3.5251 H   0  0  0  0  0  0  0  0  0  0  0  0
   -0.5298   16.6864   -3.8833 H   0  0  0  0  0  0  0  0  0  0  0  0
   -0.7898   19.1148   -3.4888 H   0  0  0  0  0  0  0  0  0  0  0  0
   -1.6556   18.1043   -2.2663 H   0  0  0  0  0  0  0  0  0  0  0  0
   -0.5691   19.9212   -1.1352 H   0  0  0  0  0  0  0  0  0  0  0  0
    1.7450   20.1380   -1.3240 H   0  0  0  0  0  0  0  0  0  0  0  0
   -0.7386   17.8976    1.5206 H   0  0  0  0  0  0  0  0  0  0  0  0
   -1.6939   18.5794    0.1608 H   0  0  0  0  0  0  0  0  0  0  0  0
   -1.2467   16.8396    0.1608 H   0  0  0  0  0  0  0  0  0  0  0  0
    0.9891   18.7225    1.7142 H   0  0  0  0  0  0  0  0  0  0  0  0
    2.3354   18.7244    0.5250 H   0  0  0  0  0  0  0  0  0  0  0  0
    1.1352   20.0609    0.5250 H   0  0  0  0  0  0  0  0  0  0  0  0
    3.0447   15.4481   -3.0354 H   0  0  0  0  0  0  0  0  0  0  0  0
    2.3007   14.2794   -4.1788 H   0  0  0  0  0  0  0  0  0  0  0  0
    1.7723   15.9963   -4.1788 H   0  0  0  0  0  0  0  0  0  0  0  0
   -0.7613   14.6304   -3.7275 H   0  0  0  0  0  0  0  0  0  0  0  0
    0.5175   13.3014   -3.9135 H   0  0  0  0  0  0  0  0  0  0  0  0
   -1.5797   13.5582   -1.7413 H   0  0  0  0  0  0  0  0  0  0  0  0
   -1.4336   12.2949   -3.0257 H   0  0  0  0  0  0  0  0  0  0  0  0
    1.6109   10.6548   -1.7434 H   0  0  0  0  0  0  0  0  0  0  0  0
    0.3326   10.6256   -3.0051 H   0  0  0  0  0  0  0  0  0  0  0  0
    1.5647   11.9326   -3.0051 H   0  0  0  0  0  0  0  0  0  0  0  0
  1  2  1  0
  2  3  1  0
  3  4  1  0
  4  5  1  0
  5  6  1  0
  6  7  1  0
  7  8  1  0
  7  9  1  0
  2 10  1  0
 10 11  1  0
 11 12  1  0
 12 13  1  0
 13 14  1  1
 13 15  1  0
 15 16  1  0
 16 17  1  0
 17 18  2  0
 18 19  1  0
 19 20  1  0
 20 21  1  0
 21 22  1  0
 22 23  1  0
 22 24  1  0
 24 25  1  0
 24 26  1  0
 19 27  1  0
 27 28  1  6
 27 29  1  0
 29 30  1  0
 30 31  1  0
 31 32  1  6
  7  5  1  0
 31 10  1  0
 31 13  1  0
 27 15  1  0
 24 18  1  0
  1 33  1  0
  1 34  1  0
  1 35  1  0
  2 36  1  1
  3 37  1  0
  3 38  1  0
  4 39  1  0
  4 40  1  0
  5 41  1  1
  8 42  1  0
  8 43  1  0
  8 44  1  0
  9 45  1  0
  9 46  1  0
  9 47  1  0
 10 48  1  1
 11 49  1  0
 11 50  1  0
 12 51  1  0
 12 52  1  0
 14 53  1  0
 14 54  1  0
 14 55  1  0
 15 56  1  6
 16 57  1  0
 16 58  1  0
 17 59  1  0
 19 60  1  1
 20 61  1  0
 20 62  1  0
 21 63  1  0
 21 64  1  0
 22 65  1  1
 23 66  1  0
 25 67  1  0
 25 68  1  0
 25 69  1  0
 26 70  1  0
 26 71  1  0
 26 72  1  0
 28 73  1  0
 28 74  1  0
 28 75  1  0
 29 76  1  0
 29 77  1  0
 30 78  1  0
 30 79  1  0
 32 80  1  0
 32 81  1  0
 32 82  1  0
M  END
>  <meeko>  (3) 
{"is_sidechain": [false], "intermolecular_energy": 2.731, "internal_energy": -0.839}

$$$$
EPH_relaxed_0001_pdb2pqr_Repair_174_r2_0001_out
     RDKit          3D

 82 86  0  0  0  0  0  0  0  0999 V2000
   -5.1150    5.9250   -1.8560 C   0  0  0  0  0  0  0  0  0  0  0  0
   -5.4550    7.4180   -1.8400 C   0  0  2  0  0  0  0  0  0  0  0  0
   -5.2460    8.0460   -0.4470 C   0  0  0  0  0  0  0  0  0  0  0  0
   -4.1820    9.1460   -0.4210 C   0  0  0  0  0  0  0  0  0  0  0  0
   -2.8220    8.6100   -0.7530 C   0  0  2  0  0  0  0  0  0  0  0  0
   -1.8030    8.9280    0.2040 O   0  0  0  0  0  0  0  0  0  0  0  0
   -1.6390    9.4920   -1.1070 C   0  0  0  0  0  0  0  0  0  0  0  0
   -1.7610   10.9830   -1.1480 C   0  0  0  0  0  0  0  0  0  0  0  0
   -0.5070    8.8930   -1.8830 C   0  0  0  0  0  0  0  0  0  0  0  0
   -6.8940    7.6280   -2.2950 C   0  0  1  0  0  0  0  0  0  0  0  0
   -7.2040    6.9200   -3.6410 C   0  0  0  0  0  0  0  0  0  0  0  0
   -8.6740    6.4340   -3.5630 C   0  0  0  0  0  0  0  0  0  0  0  0
   -9.2590    7.1590   -2.3290 C   0  0  1  0  0  0  0  0  0  0  0  0
   -9.6260    8.5880   -2.8390 C   0  0  0  0  0  0  0  0  0  0  0  0
  -10.4740    6.4650   -1.6320 C   0  0  2  0  0  0  0  0  0  0  0  0
  -11.7330    6.3220   -2.5050 C   0  0  0  0  0  0  0  0  0  0  0  0
  -12.6970    7.4590   -2.4260 C   0  0  0  0  0  0  0  0  0  0  0  0
  -12.7030    8.4150   -1.4780 C   0  0  0  0  0  0  0  0  0  0  0  0
  -11.7300    8.3550   -0.2930 C   0  0  1  0  0  0  0  0  0  0  0  0
  -12.5000    8.6370    1.0240 C   0  0  0  0  0  0  0  0  0  0  0  0
  -13.2820    9.9460    0.9760 C   0  0  0  0  0  0  0  0  0  0  0  0
  -14.2790    9.9440   -0.1790 C   0  0  2  0  0  0  0  0  0  0  0  0
  -15.2860    8.9620    0.0830 O   0  0  0  0  0  0  0  0  0  0  0  0
  -13.6190    9.6610   -1.5580 C   0  0  0  0  0  0  0  0  0  0  0  0
  -12.7550   10.8740   -1.9800 C   0  0  0  0  0  0  0  0  0  0  0  0
  -14.7510    9.5460   -2.6140 C   0  0  0  0  0  0  0  0  0  0  0  0
  -10.8250    7.0520   -0.2040 C   0  0  1  0  0  0  0  0  0  0  0  0
  -11.5840    5.9280    0.5650 C   0  0  0  0  0  0  0  0  0  0  0  0
   -9.5370    7.3770    0.6420 C   0  0  0  0  0  0  0  0  0  0  0  0
   -8.3290    7.9490   -0.1240 C   0  0  0  0  0  0  0  0  0  0  0  0
   -8.0180    7.1070   -1.3650 C   0  0  2  0  0  0  0  0  0  0  0  0
   -7.6230    5.6700   -0.8820 C   0  0  0  0  0  0  0  0  0  0  0  0
   -5.0312    5.5569   -0.8228 H   0  0  0  0  0  0  0  0  0  0  0  0
   -5.9105    5.3734   -2.3783 H   0  0  0  0  0  0  0  0  0  0  0  0
   -4.1591    5.7722   -2.3783 H   0  0  0  0  0  0  0  0  0  0  0  0
   -4.7678    7.9215   -2.5358 H   0  0  0  0  0  0  0  0  0  0  0  0
   -6.2010    8.4788   -0.1144 H   0  0  0  0  0  0  0  0  0  0  0  0
   -4.8946    7.2433    0.2179 H   0  0  0  0  0  0  0  0  0  0  0  0
   -4.4500    9.9186   -1.1567 H   0  0  0  0  0  0  0  0  0  0  0  0
   -4.1467    9.5649    0.5955 H   0  0  0  0  0  0  0  0  0  0  0  0
   -3.2628    7.7326   -1.2487 H   0  0  0  0  0  0  0  0  0  0  0  0
   -1.7932   11.3766   -0.1213 H   0  0  0  0  0  0  0  0  0  0  0  0
   -0.8946   11.4074   -1.6764 H   0  0  0  0  0  0  0  0  0  0  0  0
   -2.6849   11.2609   -1.6764 H   0  0  0  0  0  0  0  0  0  0  0  0
    0.2452    8.4950   -1.1860 H   0  0  0  0  0  0  0  0  0  0  0  0
   -0.8874    8.0782   -2.5165 H   0  0  0  0  0  0  0  0  0  0  0  0
   -0.0473    9.6659   -2.5165 H   0  0  0  0  0  0  0  0  0  0  0  0
   -6.9165    8.7271   -2.3325 H   0  0  0  0  0  0  0  0  0  0  0  0
   -7.0820    7.6249   -4.4766 H   0  0  0  0  0  0  0  0  0  0  0  0
   -6.5180    6.0771   -3.8109 H   0  0  0  0  0  0  0  0  0  0  0  0
   -9.2240    6.7125   -4.4740 H   0  0  0  0  0  0  0  0  0  0  0  0
   -8.7478    5.3398   -3.4780 H   0  0  0  0  0  0  0  0  0  0  0  0
   -9.7965    9.2518   -1.9786 H   0  0  0  0  0  0  0  0  0  0  0  0
   -8.8001    8.9830   -3.4489 H   0  0  0  0  0  0  0  0  0  0  0  0
  -10.5400    8.5362   -3.4489 H   0  0  0  0  0  0  0  0  0  0  0  0
  -10.1017    5.4420   -1.4742 H   0  0  0  0  0  0  0  0  0  0  0  0
  -11.4109    6.2218   -3.5520 H   0  0  0  0  0  0  0  0  0  0  0  0
  -12.2697    5.4413   -2.1226 H   0  0  0  0  0  0  0  0  0  0  0  0
  -13.4676    7.5210   -3.2085 H   0  0  0  0  0  0  0  0  0  0  0  0
  -10.9879    9.1478   -0.4685 H   0  0  0  0  0  0  0  0  0  0  0  0
  -13.2047    7.8118    1.2040 H   0  0  0  0  0  0  0  0  0  0  0  0
  -11.7589    8.7204    1.8326 H   0  0  0  0  0  0  0  0  0  0  0  0
  -13.8278   10.0741    1.9224 H   0  0  0  0  0  0  0  0  0  0  0  0
  -12.5727   10.7732    0.8259 H   0  0  0  0  0  0  0  0  0  0  0  0
  -14.7141   10.9524   -0.2408 H   0  0  0  0  0  0  0  0  0  0  0  0
  -15.2110    8.7050    1.0180 H   0  0  0  0  0  0  0  0  0  0  0  0
  -12.3863   11.3916   -1.0822 H   0  0  0  0  0  0  0  0  0  0  0  0
  -11.9008   10.5251   -2.5789 H   0  0  0  0  0  0  0  0  0  0  0  0
  -13.3639   11.5673   -2.5789 H   0  0  0  0  0  0  0  0  0  0  0  0
  -15.7203    9.4475   -2.1033 H   0  0  0  0  0  0  0  0  0  0  0  0
  -14.7582   10.4480   -3.2435 H   0  0  0  0  0  0  0  0  0  0  0  0
  -14.5767    8.6609   -3.2435 H   0  0  0  0  0  0  0  0  0  0  0  0
  -11.4762    6.0876    1.6480 H   0  0  0  0  0  0  0  0  0  0  0  0
  -12.6500    5.9543    0.2948 H   0  0  0  0  0  0  0  0  0  0  0  0
  -11.1613    4.9491    0.2948 H   0  0  0  0  0  0  0  0  0  0  0  0
   -9.8205    8.1101    1.4116 H   0  0  0  0  0  0  0  0  0  0  0  0
   -9.1968    6.4066    1.0328 H   0  0  0  0  0  0  0  0  0  0  0  0
   -8.5557    8.9793   -0.4357 H   0  0  0  0  0  0  0  0  0  0  0  0
   -7.4524    7.9317    0.5402 H   0  0  0  0  0  0  0  0  0  0  0  0
   -7.6153    5.6420    0.2176 H   0  0  0  0  0  0  0  0  0  0  0  0
   -8.3542    4.9415   -1.2622 H   0  0  0  0  0  0  0  0  0  0  0  0
   -6.6222    5.4176   -1.2622 H   0  0  0  0  0  0  0  0  0  0  0  0
  1  2  1  0
  2  3  1  0
  3  4  1  0
  4  5  1  0
  5  6  1  0
  6  7  1  0
  7  8  1  0
  7  9  1  0
  2 10  1  0
 10 11  1  0
 11 12  1  0
 12 13  1  0
 13 14  1  6
 13 15  1  0
 15 16  1  0
 16 17  1  0
 17 18  2  0
 18 19  1  0
 19 20  1  0
 20 21  1  0
 21 22  1  0
 22 23  1  0
 22 24  1  0
 24 25  1  0
 24 26  1  0
 19 27  1  0
 27 28  1  1
 27 29  1  0
 29 30  1  0
 30 31  1  0
 31 32  1  1
  7  5  1  0
 31 10  1  0
 31 13  1  0
 27 15  1  0
 24 18  1  0
  1 33  1  0
  1 34  1  0
  1 35  1  0
  2 36  1  6
  3 37  1  0
  3 38  1  0
  4 39  1  0
  4 40  1  0
  5 41  1  6
  8 42  1  0
  8 43  1  0
  8 44  1  0
  9 45  1  0
  9 46  1  0
  9 47  1  0
 10 48  1  6
 11 49  1  0
 11 50  1  0
 12 51  1  0
 12 52  1  0
 14 53  1  0
 14 54  1  0
 14 55  1  0
 15 56  1  1
 16 57  1  0
 16 58  1  0
 17 59  1  0
 19 60  1  6
 20 61  1  0
 20 62  1  0
 21 63  1  0
 21 64  1  0
 22 65  1  6
 23 66  1  0
 25 67  1  0
 25 68  1  0
 25 69  1  0
 26 70  1  0
 26 71  1  0
 26 72  1  0
 28 73  1  0
 28 74  1  0
 28 75  1  0
 29 76  1  0
 29 77  1  0
 30 78  1  0
 30 79  1  0
 32 80  1  0
 32 81  1  0
 32 82  1  0
M  END
>  <meeko>  (4) 
{"is_sidechain": [false], "intermolecular_energy": 2.731, "internal_energy": -0.839}

$$$$
EPH_relaxed_0001_pdb2pqr_Repair_174_r2_0001_out
     RDKit          3D

 82 86  0  0  0  0  0  0  0  0999 V2000
    3.4940   17.6240    0.5380 C   0  0  0  0  0  0  0  0  0  0  0  0
    3.1930   16.8220   -0.7320 C   0  0  2  0  0  0  0  0  0  0  0  0
    2.7880   17.7310   -1.9100 C   0  0  0  0  0  0  0  0  0  0  0  0
    2.1100   19.0340   -1.4780 C   0  0  0  0  0  0  0  0  0  0  0  0
    0.6160   18.9360   -1.5640 C   0  0  2  0  0  0  0  0  0  0  0  0
   -0.0570   20.1900   -1.7350 O   0  0  0  0  0  0  0  0  0  0  0  0
   -0.3200   19.4920   -0.5070 C   0  0  0  0  0  0  0  0  0  0  0  0
    0.2020   20.1860    0.7110 C   0  0  0  0  0  0  0  0  0  0  0  0
   -1.7070   18.9360   -0.4160 C   0  0  0  0  0  0  0  0  0  0  0  0
    2.0910   15.8060   -0.4550 C   0  0  1  0  0  0  0  0  0  0  0  0
    0.7630   16.4720   -0.0060 C   0  0  0  0  0  0  0  0  0  0  0  0
   -0.3880   15.6130   -0.5920 C   0  0  0  0  0  0  0  0  0  0  0  0
    0.3000   14.3130   -1.0700 C   0  0  1  0  0  0  0  0  0  0  0  0
    0.4590   13.4470    0.2190 C   0  0  0  0  0  0  0  0  0  0  0  0
   -0.4270   13.5260   -2.2090 C   0  0  2  0  0  0  0  0  0  0  0  0
   -1.8250   12.9950   -1.8460 C   0  0  0  0  0  0  0  0  0  0  0  0
   -1.8540   11.6220   -1.2610 C   0  0  0  0  0  0  0  0  0  0  0  0
   -0.8420   10.7350   -1.2980 C   0  0  0  0  0  0  0  0  0  0  0  0
    0.4510   11.0460   -2.0610 C   0  0  1  0  0  0  0  0  0  0  0  0
    0.8500    9.8210   -2.9250 C   0  0  0  0  0  0  0  0  0  0  0  0
    0.9500    8.5360   -2.1070 C   0  0  0  0  0  0  0  0  0  0  0  0
   -0.3730    8.2300   -1.4100 C   0  0  2  0  0  0  0  0  0  0  0  0
   -1.3560    7.9200   -2.4020 O   0  0  0  0  0  0  0  0  0  0  0  0
   -0.8810    9.3970   -0.5180 C   0  0  0  0  0  0  0  0  0  0  0  0
    0.0290    9.5340    0.7280 C   0  0  0  0  0  0  0  0  0  0  0  0
   -2.2890    9.0150    0.0130 C   0  0  0  0  0  0  0  0  0  0  0  0
    0.4590   12.4040   -2.8880 C   0  0  1  0  0  0  0  0  0  0  0  0
   -0.1370   12.1650   -4.3080 C   0  0  0  0  0  0  0  0  0  0  0  0
    1.9490   12.8660   -3.1030 C   0  0  0  0  0  0  0  0  0  0  0  0
    2.5710   13.7410   -1.9990 C   0  0  0  0  0  0  0  0  0  0  0  0
    1.6440   14.9040   -1.6320 C   0  0  2  0  0  0  0  0  0  0  0  0
    1.4820   15.8050   -2.9040 C   0  0  0  0  0  0  0  0  0  0  0  0
    3.2639   17.0110    1.4219 H   0  0  0  0  0  0  0  0  0  0  0  0
    4.5580   17.9029    0.5520 H   0  0  0  0  0  0  0  0  0  0  0  0
    2.8762   18.5340    0.5520 H   0  0  0  0  0  0  0  0  0  0  0  0
    4.1168   16.2994   -1.0210 H   0  0  0  0  0  0  0  0  0  0  0  0
    3.6937   17.9836   -2.4809 H   0  0  0  0  0  0  0  0  0  0  0  0
    2.0555   17.1715   -2.5103 H   0  0  0  0  0  0  0  0  0  0  0  0
    2.3936   19.2560   -0.4386 H   0  0  0  0  0  0  0  0  0  0  0  0
    2.4411   19.8344   -2.1561 H   0  0  0  0  0  0  0  0  0  0  0  0
    0.6841   17.9484   -2.0437 H   0  0  0  0  0  0  0  0  0  0  0  0
   -0.1776   19.6813    1.6116 H   0  0  0  0  0  0  0  0  0  0  0  0
    1.3015   20.1537    0.7085 H   0  0  0  0  0  0  0  0  0  0  0  0
   -0.1340   21.2334    0.7085 H   0  0  0  0  0  0  0  0  0  0  0  0
   -1.9882   18.8233    0.6415 H   0  0  0  0  0  0  0  0  0  0  0  0
   -2.4102   19.6218   -0.9113 H   0  0  0  0  0  0  0  0  0  0  0  0
   -1.7418   17.9544   -0.9113 H   0  0  0  0  0  0  0  0  0  0  0  0
    2.5888   15.1995    0.3159 H   0  0  0  0  0  0  0  0  0  0  0  0
    0.7007   16.4906    1.0921 H   0  0  0  0  0  0  0  0  0  0  0  0
    0.7017   17.5109   -0.3622 H   0  0  0  0  0  0  0  0  0  0  0  0
   -1.1402   15.3931    0.1799 H   0  0  0  0  0  0  0  0  0  0  0  0
   -0.9196   16.1273   -1.4062 H   0  0  0  0  0  0  0  0  0  0  0  0
    0.3417   14.0859    1.1067 H   0  0  0  0  0  0  0  0  0  0  0  0
   -0.3097   12.6602    0.2293 H   0  0  0  0  0  0  0  0  0  0  0  0
    1.4571   12.9846    0.2293 H   0  0  0  0  0  0  0  0  0  0  0  0
   -0.5917   14.3059   -2.9671 H   0  0  0  0  0  0  0  0  0  0  0  0
   -2.2714   13.6853   -1.1151 H   0  0  0  0  0  0  0  0  0  0  0  0
   -2.3823   12.9341   -2.7924 H   0  0  0  0  0  0  0  0  0  0  0  0
   -2.7803   11.3086   -0.7572 H   0  0  0  0  0  0  0  0  0  0  0  0
    1.2191   11.2290   -1.2951 H   0  0  0  0  0  0  0  0  0  0  0  0
    0.0923    9.6813   -3.7101 H   0  0  0  0  0  0  0  0  0  0  0  0
    1.8432   10.0230   -3.3526 H   0  0  0  0  0  0  0  0  0  0  0  0
    1.2057    7.7017   -2.7767 H   0  0  0  0  0  0  0  0  0  0  0  0
    1.7289    8.6664   -1.3413 H   0  0  0  0  0  0  0  0  0  0  0  0
   -0.2016    7.3750   -0.7394 H   0  0  0  0  0  0  0  0  0  0  0  0
   -0.8860    7.6080   -3.1940 H   0  0  0  0  0  0  0  0  0  0  0  0
   -0.5805    9.4422    1.6391 H   0  0  0  0  0  0  0  0  0  0  0  0
    0.7906    8.7404    0.7149 H   0  0  0  0  0  0  0  0  0  0  0  0
    0.5232   10.5167    0.7149 H   0  0  0  0  0  0  0  0  0  0  0  0
   -2.2792    9.0177    1.1130 H   0  0  0  0  0  0  0  0  0  0  0  0
   -3.0279    9.7452   -0.3489 H   0  0  0  0  0  0  0  0  0  0  0  0
   -2.5575    8.0115   -0.3489 H   0  0  0  0  0  0  0  0  0  0  0  0
   -1.1543   11.7571   -4.2148 H   0  0  0  0  0  0  0  0  0  0  0  0
   -0.1730   13.1182   -4.8558 H   0  0  0  0  0  0  0  0  0  0  0  0
    0.4956   11.4510   -4.8558 H   0  0  0  0  0  0  0  0  0  0  0  0
    2.5674   11.9613   -3.1985 H   0  0  0  0  0  0  0  0  0  0  0  0
    1.9258   13.5052   -3.9979 H   0  0  0  0  0  0  0  0  0  0  0  0
    2.7441   13.1233   -1.1054 H   0  0  0  0  0  0  0  0  0  0  0  0
    3.5198   14.1538   -2.3722 H   0  0  0  0  0  0  0  0  0  0  0  0
    1.2951   16.8443   -2.5958 H   0  0  0  0  0  0  0  0  0  0  0  0
    2.4025   15.7605   -3.5045 H   0  0  0  0  0  0  0  0  0  0  0  0
    0.6346   15.4426   -3.5045 H   0  0  0  0  0  0  0  0  0  0  0  0
  1  2  1  0
  2  3  1  0
  3  4  1  0
  4  5  1  0
  5  6  1  0
  6  7  1  0
  7  8  1  0
  7  9  1  0
  2 10  1  0
 10 11  1  0
 11 12  1  0
 12 13  1  0
 13 14  1  1
 13 15  1  0
 15 16  1  0
 16 17  1  0
 17 18  2  0
 18 19  1  0
 19 20  1  0
 20 21  1  0
 21 22  1  0
 22 23  1  0
 22 24  1  0
 24 25  1  0
 24 26  1  0
 19 27  1  0
 27 28  1  6
 27 29  1  0
 29 30  1  0
 30 31  1  0
 31 32  1  6
  7  5  1  0
 31 10  1  0
 31 13  1  0
 27 15  1  0
 24 18  1  0
  1 33  1  0
  1 34  1  0
  1 35  1  0
  2 36  1  6
  3 37  1  0
  3 38  1  0
  4 39  1  0
  4 40  1  0
  5 41  1  6
  8 42  1  0
  8 43  1  0
  8 44  1  0
  9 45  1  0
  9 46  1  0
  9 47  1  0
 10 48  1  1
 11 49  1  0
 11 50  1  0
 12 51  1  0
 12 52  1  0
 14 53  1  0
 14 54  1  0
 14 55  1  0
 15 56  1  6
 16 57  1  0
 16 58  1  0
 17 59  1  0
 19 60  1  1
 20 61  1  0
 20 62  1  0
 21 63  1  0
 21 64  1  0
 22 65  1  1
 23 66  1  0
 25 67  1  0
 25 68  1  0
 25 69  1  0
 26 70  1  0
 26 71  1  0
 26 72  1  0
 28 73  1  0
 28 74  1  0
 28 75  1  0
 29 76  1  0
 29 77  1  0
 30 78  1  0
 30 79  1  0
 32 80  1  0
 32 81  1  0
 32 82  1  0
M  END
>  <meeko>  (5) 
{"is_sidechain": [false], "intermolecular_energy": 2.731, "internal_energy": -0.839}

$$$$
EPH_relaxed_0001_pdb2pqr_Repair_174_r2_0001_out
     RDKit          3D

 82 86  0  0  0  0  0  0  0  0999 V2000
   -4.9900    8.6290   -0.5140 C   0  0  0  0  0  0  0  0  0  0  0  0
   -5.3350    7.5130   -1.5030 C   0  0  2  0  0  0  0  0  0  0  0  0
   -4.3340    7.4460   -2.6750 C   0  0  0  0  0  0  0  0  0  0  0  0
   -2.9040    7.1090   -2.2440 C   0  0  0  0  0  0  0  0  0  0  0  0
   -1.9310    8.1600   -2.6850 C   0  0  2  0  0  0  0  0  0  0  0  0
   -0.5740    7.9240   -2.2870 O   0  0  0  0  0  0  0  0  0  0  0  0
   -1.2060    9.0850   -1.7250 C   0  0  0  0  0  0  0  0  0  0  0  0
   -1.4250    9.0020   -0.2460 C   0  0  0  0  0  0  0  0  0  0  0  0
   -0.6650   10.3790   -2.2480 C   0  0  0  0  0  0  0  0  0  0  0  0
   -6.7490    7.7090   -2.0370 C   0  0  1  0  0  0  0  0  0  0  0  0
   -6.9680    7.0290   -3.4150 C   0  0  0  0  0  0  0  0  0  0  0  0
   -8.4310    6.5160   -3.4330 C   0  0  0  0  0  0  0  0  0  0  0  0
   -9.0990    7.2010   -2.2180 C   0  0  1  0  0  0  0  0  0  0  0  0
   -9.4630    8.6350   -2.7160 C   0  0  0  0  0  0  0  0  0  0  0  0
  -10.3400    6.4700   -1.6090 C   0  0  2  0  0  0  0  0  0  0  0  0
  -11.5430    6.3270   -2.5570 C   0  0  0  0  0  0  0  0  0  0  0  0
  -12.5310    7.4450   -2.5080 C   0  0  0  0  0  0  0  0  0  0  0  0
  -12.6090    8.3780   -1.5400 C   0  0  0  0  0  0  0  0  0  0  0  0
  -11.7050    8.3060   -0.3030 C   0  0  1  0  0  0  0  0  0  0  0  0
  -12.5550    8.5430    0.9730 C   0  0  0  0  0  0  0  0  0  0  0  0
  -13.3560    9.8400    0.9100 C   0  0  0  0  0  0  0  0  0  0  0  0
  -14.2850    9.8480   -0.3010 C   0  0  2  0  0  0  0  0  0  0  0  0
  -15.2870    8.8430   -0.1200 O   0  0  0  0  0  0  0  0  0  0  0  0
  -13.5420    9.6090   -1.6450 C   0  0  0  0  0  0  0  0  0  0  0  0
  -12.6770   10.8470   -1.9890 C   0  0  0  0  0  0  0  0  0  0  0  0
  -14.6090    9.5000   -2.7680 C   0  0  0  0  0  0  0  0  0  0  0  0
  -10.7830    7.0170   -0.1920 C   0  0  1  0  0  0  0  0  0  0  0  0
  -11.5650    5.8620    0.5060 C   0  0  0  0  0  0  0  0  0  0  0  0
   -9.5520    7.3430    0.7350 C   0  0  0  0  0  0  0  0  0  0  0  0
   -8.3120    7.9540    0.0540 C   0  0  0  0  0  0  0  0  0  0  0  0
   -7.9150    7.1470   -1.1860 C   0  0  2  0  0  0  0  0  0  0  0  0
   -7.5230    5.7050   -0.7130 C   0  0  0  0  0  0  0  0  0  0  0  0
   -5.1053    8.2561    0.5144 H   0  0  0  0  0  0  0  0  0  0  0  0
   -3.9503    8.9512   -0.6728 H   0  0  0  0  0  0  0  0  0  0  0  0
   -5.6665    9.4817   -0.6728 H   0  0  0  0  0  0  0  0  0  0  0  0
   -5.2723    6.5588   -0.9594 H   0  0  0  0  0  0  0  0  0  0  0  0
   -4.6755    6.6736   -3.3798 H   0  0  0  0  0  0  0  0  0  0  0  0
   -4.3051    8.4466   -3.1310 H   0  0  0  0  0  0  0  0  0  0  0  0
   -2.8712    7.0303   -1.1473 H   0  0  0  0  0  0  0  0  0  0  0  0
   -2.6185    6.1572   -2.7158 H   0  0  0  0  0  0  0  0  0  0  0  0
   -2.5169    8.3538   -3.5956 H   0  0  0  0  0  0  0  0  0  0  0  0
   -0.5208    9.3447    0.2784 H   0  0  0  0  0  0  0  0  0  0  0  0
   -2.2758    9.6400    0.0351 H   0  0  0  0  0  0  0  0  0  0  0  0
   -1.6392    7.9603    0.0351 H   0  0  0  0  0  0  0  0  0  0  0  0
   -0.3927   11.0303   -1.4044 H   0  0  0  0  0  0  0  0  0  0  0  0
    0.2263   10.1824   -2.8620 H   0  0  0  0  0  0  0  0  0  0  0  0
   -1.4310   10.8753   -2.8620 H   0  0  0  0  0  0  0  0  0  0  0  0
   -6.7891    8.8082   -2.0511 H   0  0  0  0  0  0  0  0  0  0  0  0
   -6.8115    7.7562   -4.2254 H   0  0  0  0  0  0  0  0  0  0  0  0
   -6.2577    6.2026   -3.5650 H   0  0  0  0  0  0  0  0  0  0  0  0
   -8.9331    6.8069   -4.3675 H   0  0  0  0  0  0  0  0  0  0  0  0
   -8.4893    5.4189   -3.3778 H   0  0  0  0  0  0  0  0  0  0  0  0
   -9.6299    9.2925   -1.8501 H   0  0  0  0  0  0  0  0  0  0  0  0
   -8.6373    9.0325   -3.3244 H   0  0  0  0  0  0  0  0  0  0  0  0
  -10.3783    8.5905   -3.3244 H   0  0  0  0  0  0  0  0  0  0  0  0
   -9.9597    5.4497   -1.4530 H   0  0  0  0  0  0  0  0  0  0  0  0
  -11.1588    6.2580   -3.5854 H   0  0  0  0  0  0  0  0  0  0  0  0
  -12.0846    5.4281   -2.2273 H   0  0  0  0  0  0  0  0  0  0  0  0
  -13.2565    7.5124   -3.3321 H   0  0  0  0  0  0  0  0  0  0  0  0
  -10.9684    9.1150   -0.4166 H   0  0  0  0  0  0  0  0  0  0  0  0
  -13.2542    7.7022    1.0921 H   0  0  0  0  0  0  0  0  0  0  0  0
  -11.8637    8.6186    1.8253 H   0  0  0  0  0  0  0  0  0  0  0  0
  -13.9574    9.9368    1.8259 H   0  0  0  0  0  0  0  0  0  0  0  0
  -12.6544   10.6824    0.8203 H   0  0  0  0  0  0  0  0  0  0  0  0
  -14.7343   10.8500   -0.3652 H   0  0  0  0  0  0  0  0  0  0  0  0
  -15.1540    8.1680   -0.8070 H   0  0  0  0  0  0  0  0  0  0  0  0
  -12.3403   11.3289   -1.0592 H   0  0  0  0  0  0  0  0  0  0  0  0
  -11.8020   10.5312   -2.5760 H   0  0  0  0  0  0  0  0  0  0  0  0
  -13.2744   11.5601   -2.5760 H   0  0  0  0  0  0  0  0  0  0  0  0
  -15.6070    9.3980   -2.3169 H   0  0  0  0  0  0  0  0  0  0  0  0
  -14.5792   10.4059   -3.3913 H   0  0  0  0  0  0  0  0  0  0  0  0
  -14.3966    8.6189   -3.3913 H   0  0  0  0  0  0  0  0  0  0  0  0
  -11.4886    5.9748    1.5975 H   0  0  0  0  0  0  0  0  0  0  0  0
  -12.6227    5.9019    0.2064 H   0  0  0  0  0  0  0  0  0  0  0  0
  -11.1352    4.8948    0.2064 H   0  0  0  0  0  0  0  0  0  0  0  0
   -9.8929    8.0522    1.5037 H   0  0  0  0  0  0  0  0  0  0  0  0
   -9.2173    6.3693    1.1221 H   0  0  0  0  0  0  0  0  0  0  0  0
   -8.5390    8.9875   -0.2466 H   0  0  0  0  0  0  0  0  0  0  0  0
   -7.4750    7.9359    0.7675 H   0  0  0  0  0  0  0  0  0  0  0  0
   -7.5134    5.6697    0.3864 H   0  0  0  0  0  0  0  0  0  0  0  0
   -8.2569    4.9811   -1.0967 H   0  0  0  0  0  0  0  0  0  0  0  0
   -6.5236    5.4523   -1.0967 H   0  0  0  0  0  0  0  0  0  0  0  0
  1  2  1  0
  2  3  1  0
  3  4  1  0
  4  5  1  0
  5  6  1  0
  6  7  1  0
  7  8  1  0
  7  9  1  0
  2 10  1  0
 10 11  1  0
 11 12  1  0
 12 13  1  0
 13 14  1  6
 13 15  1  0
 15 16  1  0
 16 17  1  0
 17 18  2  0
 18 19  1  0
 19 20  1  0
 20 21  1  0
 21 22  1  0
 22 23  1  0
 22 24  1  0
 24 25  1  0
 24 26  1  0
 19 27  1  0
 27 28  1  1
 27 29  1  0
 29 30  1  0
 30 31  1  0
 31 32  1  1
  7  5  1  0
 31 10  1  0
 31 13  1  0
 27 15  1  0
 24 18  1  0
  1 33  1  0
  1 34  1  0
  1 35  1  0
  2 36  1  1
  3 37  1  0
  3 38  1  0
  4 39  1  0
  4 40  1  0
  5 41  1  6
  8 42  1  0
  8 43  1  0
  8 44  1  0
  9 45  1  0
  9 46  1  0
  9 47  1  0
 10 48  1  6
 11 49  1  0
 11 50  1  0
 12 51  1  0
 12 52  1  0
 14 53  1  0
 14 54  1  0
 14 55  1  0
 15 56  1  1
 16 57  1  0
 16 58  1  0
 17 59  1  0
 19 60  1  6
 20 61  1  0
 20 62  1  0
 21 63  1  0
 21 64  1  0
 22 65  1  6
 23 66  1  0
 25 67  1  0
 25 68  1  0
 25 69  1  0
 26 70  1  0
 26 71  1  0
 26 72  1  0
 28 73  1  0
 28 74  1  0
 28 75  1  0
 29 76  1  0
 29 77  1  0
 30 78  1  0
 30 79  1  0
 32 80  1  0
 32 81  1  0
 32 82  1  0
M  END
>  <meeko>  (6) 
{"is_sidechain": [false], "intermolecular_energy": 2.731, "internal_energy": -0.839}

$$$$
EPH_relaxed_0001_pdb2pqr_Repair_174_r2_0001_out
     RDKit          3D

 82 86  0  0  0  0  0  0  0  0999 V2000
   -4.5030    6.9290   -3.0510 C   0  0  0  0  0  0  0  0  0  0  0  0
   -4.4460    7.1590   -1.5380 C   0  0  2  0  0  0  0  0  0  0  0  0
   -5.8450    7.1100   -0.8910 C   0  0  0  0  0  0  0  0  0  0  0  0
   -6.7860    6.0890   -1.5360 C   0  0  0  0  0  0  0  0  0  0  0  0
   -8.0100    6.7430   -2.1010 C   0  0  2  0  0  0  0  0  0  0  0  0
   -8.1580    8.1290   -1.7640 O   0  0  0  0  0  0  0  0  0  0  0  0
   -9.1620    7.2410   -1.2480 C   0  0  0  0  0  0  0  0  0  0  0  0
   -9.1450    7.1040    0.2430 C   0  0  0  0  0  0  0  0  0  0  0  0
  -10.5050    7.4120   -1.8870 C   0  0  0  0  0  0  0  0  0  0  0  0
   -3.7820    8.4990   -1.2410 C   0  0  1  0  0  0  0  0  0  0  0  0
   -4.1450    9.0470    0.1650 C   0  0  0  0  0  0  0  0  0  0  0  0
   -2.8880    9.7820    0.6970 C   0  0  0  0  0  0  0  0  0  0  0  0
   -1.9660    9.9210   -0.5380 C   0  0  1  0  0  0  0  0  0  0  0  0
   -2.5170   11.1590   -1.3120 C   0  0  0  0  0  0  0  0  0  0  0  0
   -0.4360   10.0570   -0.2460 C   0  0  2  0  0  0  0  0  0  0  0  0
   -0.0340   11.3070    0.5570 C   0  0  0  0  0  0  0  0  0  0  0  0
    0.3010   12.5100   -0.2620 C   0  0  0  0  0  0  0  0  0  0  0  0
    0.5570   12.5100   -1.5830 C   0  0  0  0  0  0  0  0  0  0  0  0
    0.6180   11.1970   -2.3740 C   0  0  1  0  0  0  0  0  0  0  0  0
    1.8760   11.1980   -3.2830 C   0  0  0  0  0  0  0  0  0  0  0  0
    1.9440   12.4260   -4.1850 C   0  0  0  0  0  0  0  0  0  0  0  0
    1.9390   13.7100   -3.3600 C   0  0  2  0  0  0  0  0  0  0  0  0
    3.1540   13.7790   -2.6080 O   0  0  0  0  0  0  0  0  0  0  0  0
    0.7230   13.8160   -2.3990 C   0  0  0  0  0  0  0  0  0  0  0  0
   -0.5710   14.0450   -3.2190 C   0  0  0  0  0  0  0  0  0  0  0  0
    0.9130   15.0860   -1.5260 C   0  0  0  0  0  0  0  0  0  0  0  0
    0.4860    9.8650   -1.5170 C   0  0  1  0  0  0  0  0  0  0  0  0
    1.8870    9.4300   -0.9890 C   0  0  0  0  0  0  0  0  0  0  0  0
   -0.0170    8.7010   -2.4500 C   0  0  0  0  0  0  0  0  0  0  0  0
   -1.5420    8.5430   -2.6040 C   0  0  0  0  0  0  0  0  0  0  0  0
   -2.2330    8.5390   -1.2370 C   0  0  2  0  0  0  0  0  0  0  0  0
   -1.7150    7.2910   -0.4430 C   0  0  0  0  0  0  0  0  0  0  0  0
   -4.7631    5.8794   -3.2528 H   0  0  0  0  0  0  0  0  0  0  0  0
   -5.2652    7.5872   -3.4935 H   0  0  0  0  0  0  0  0  0  0  0  0
   -3.5216    7.1551   -3.4935 H   0  0  0  0  0  0  0  0  0  0  0  0
   -3.8507    6.3438   -1.1009 H   0  0  0  0  0  0  0  0  0  0  0  0
   -5.7273    6.8510    0.1716 H   0  0  0  0  0  0  0  0  0  0  0  0
   -6.2999    8.1013   -1.0335 H   0  0  0  0  0  0  0  0  0  0  0  0
   -6.2507    5.5735   -2.3470 H   0  0  0  0  0  0  0  0  0  0  0  0
   -7.1046    5.3779   -0.7595 H   0  0  0  0  0  0  0  0  0  0  0  0
   -7.9756    6.0942   -2.9886 H   0  0  0  0  0  0  0  0  0  0  0  0
   -9.2680    8.0953    0.7037 H   0  0  0  0  0  0  0  0  0  0  0  0
   -9.9686    6.4474    0.5603 H   0  0  0  0  0  0  0  0  0  0  0  0
   -8.1859    6.6686    0.5603 H   0  0  0  0  0  0  0  0  0  0  0  0
  -11.2730    7.5098   -1.1056 H   0  0  0  0  0  0  0  0  0  0  0  0
  -10.5009    8.3169   -2.5124 H   0  0  0  0  0  0  0  0  0  0  0  0
  -10.7278    6.5350   -2.5124 H   0  0  0  0  0  0  0  0  0  0  0  0
   -4.1719    9.0892   -2.0834 H   0  0  0  0  0  0  0  0  0  0  0  0
   -4.9905    9.7469    0.0920 H   0  0  0  0  0  0  0  0  0  0  0  0
   -4.4420    8.2323    0.8418 H   0  0  0  0  0  0  0  0  0  0  0  0
   -3.1561   10.7718    1.0949 H   0  0  0  0  0  0  0  0  0  0  0  0
   -2.4033    9.2373    1.5206 H   0  0  0  0  0  0  0  0  0  0  0  0
   -2.8556   11.9198   -0.5933 H   0  0  0  0  0  0  0  0  0  0  0  0
   -1.7213   11.5801   -1.9441 H   0  0  0  0  0  0  0  0  0  0  0  0
   -3.3624   10.8497   -1.9441 H   0  0  0  0  0  0  0  0  0  0  0  0
   -0.2453    9.2011    0.4181 H   0  0  0  0  0  0  0  0  0  0  0  0
   -0.8718   11.5694    1.2197 H   0  0  0  0  0  0  0  0  0  0  0  0
    0.8867   11.0396    1.0962 H   0  0  0  0  0  0  0  0  0  0  0  0
    0.3419   13.4781    0.2587 H   0  0  0  0  0  0  0  0  0  0  0  0
   -0.2905   11.1726   -2.9937 H   0  0  0  0  0  0  0  0  0  0  0  0
    2.7720   11.1787   -2.6452 H   0  0  0  0  0  0  0  0  0  0  0  0
    1.8212   10.3104   -3.9304 H   0  0  0  0  0  0  0  0  0  0  0  0
    2.8679   12.3844   -4.7806 H   0  0  0  0  0  0  0  0  0  0  0  0
    1.0621   12.4278   -4.8425 H   0  0  0  0  0  0  0  0  0  0  0  0
    1.8578   14.5529   -4.0621 H   0  0  0  0  0  0  0  0  0  0  0  0
    3.7260   13.0510   -2.9040 H   0  0  0  0  0  0  0  0  0  0  0  0
   -1.4179   14.1949   -2.5333 H   0  0  0  0  0  0  0  0  0  0  0  0
   -0.4505   14.9358   -3.8530 H   0  0  0  0  0  0  0  0  0  0  0  0
   -0.7635   13.1670   -3.8530 H   0  0  0  0  0  0  0  0  0  0  0  0
    0.8716   14.8092   -0.4622 H   0  0  0  0  0  0  0  0  0  0  0  0
    1.8893   15.5413   -1.7487 H   0  0  0  0  0  0  0  0  0  0  0  0
    0.1127   15.8071   -1.7487 H   0  0  0  0  0  0  0  0  0  0  0  0
    1.8811    9.4318    0.1110 H   0  0  0  0  0  0  0  0  0  0  0  0
    2.1179    8.4179   -1.3527 H   0  0  0  0  0  0  0  0  0  0  0  0
    2.6505   10.1334   -1.3527 H   0  0  0  0  0  0  0  0  0  0  0  0
    0.4025    8.8731   -3.4522 H   0  0  0  0  0  0  0  0  0  0  0  0
    0.3202    7.7749   -1.9616 H   0  0  0  0  0  0  0  0  0  0  0  0
   -1.9320    9.3798   -3.2020 H   0  0  0  0  0  0  0  0  0  0  0  0
   -1.7469    7.5847   -3.1037 H   0  0  0  0  0  0  0  0  0  0  0  0
   -1.7952    7.4843    0.6369 H   0  0  0  0  0  0  0  0  0  0  0  0
   -2.3226    6.4121   -0.7043 H   0  0  0  0  0  0  0  0  0  0  0  0
   -0.6636    7.1007   -0.7043 H   0  0  0  0  0  0  0  0  0  0  0  0
  1  2  1  0
  2  3  1  0
  3  4  1  0
  4  5  1  0
  5  6  1  0
  6  7  1  0
  7  8  1  0
  7  9  1  0
  2 10  1  0
 10 11  1  0
 11 12  1  0
 12 13  1  0
 13 14  1  6
 13 15  1  0
 15 16  1  0
 16 17  1  0
 17 18  2  0
 18 19  1  0
 19 20  1  0
 20 21  1  0
 21 22  1  0
 22 23  1  0
 22 24  1  0
 24 25  1  0
 24 26  1  0
 19 27  1  0
 27 28  1  1
 27 29  1  0
 29 30  1  0
 30 31  1  0
 31 32  1  1
  7  5  1  0
 31 10  1  0
 31 13  1  0
 27 15  1  0
 24 18  1  0
  1 33  1  0
  1 34  1  0
  1 35  1  0
  2 36  1  1
  3 37  1  0
  3 38  1  0
  4 39  1  0
  4 40  1  0
  5 41  1  6
  8 42  1  0
  8 43  1  0
  8 44  1  0
  9 45  1  0
  9 46  1  0
  9 47  1  0
 10 48  1  6
 11 49  1  0
 11 50  1  0
 12 51  1  0
 12 52  1  0
 14 53  1  0
 14 54  1  0
 14 55  1  0
 15 56  1  1
 16 57  1  0
 16 58  1  0
 17 59  1  0
 19 60  1  6
 20 61  1  0
 20 62  1  0
 21 63  1  0
 21 64  1  0
 22 65  1  6
 23 66  1  0
 25 67  1  0
 25 68  1  0
 25 69  1  0
 26 70  1  0
 26 71  1  0
 26 72  1  0
 28 73  1  0
 28 74  1  0
 28 75  1  0
 29 76  1  0
 29 77  1  0
 30 78  1  0
 30 79  1  0
 32 80  1  0
 32 81  1  0
 32 82  1  0
M  END
>  <meeko>  (7) 
{"is_sidechain": [false], "intermolecular_energy": 2.731, "internal_energy": -0.839}

$$$$
EPH_relaxed_0001_pdb2pqr_Repair_174_r2_0001_out
     RDKit          3D

 82 86  0  0  0  0  0  0  0  0999 V2000
    1.9060   18.0850   -2.8640 C   0  0  0  0  0  0  0  0  0  0  0  0
    0.7370   17.5380   -2.0410 C   0  0  2  0  0  0  0  0  0  0  0  0
    1.0270   17.5700   -0.5270 C   0  0  0  0  0  0  0  0  0  0  0  0
    0.7600   18.9310    0.1220 C   0  0  0  0  0  0  0  0  0  0  0  0
   -0.6700   19.0700    0.5500 C   0  0  2  0  0  0  0  0  0  0  0  0
   -1.5900   18.2240   -0.1520 O   0  0  0  0  0  0  0  0  0  0  0  0
   -1.7580   19.6380   -0.3410 C   0  0  0  0  0  0  0  0  0  0  0  0
   -1.4640   20.1050   -1.7320 C   0  0  0  0  0  0  0  0  0  0  0  0
   -2.9930   20.1890    0.3010 C   0  0  0  0  0  0  0  0  0  0  0  0
    0.4140   16.1140   -2.4790 C   0  0  1  0  0  0  0  0  0  0  0  0
    0.8930   15.8100   -3.9230 C   0  0  0  0  0  0  0  0  0  0  0  0
    1.3400   14.3250   -3.9430 C   0  0  0  0  0  0  0  0  0  0  0  0
    0.7980   13.7370   -2.6190 C   0  0  1  0  0  0  0  0  0  0  0  0
   -0.7030   13.4210   -2.9050 C   0  0  0  0  0  0  0  0  0  0  0  0
    1.5550   12.4900   -2.0570 C   0  0  2  0  0  0  0  0  0  0  0  0
    1.5210   11.2450   -2.9600 C   0  0  0  0  0  0  0  0  0  0  0  0
    0.3810   10.3120   -2.7180 C   0  0  0  0  0  0  0  0  0  0  0  0
   -0.4150   10.3150   -1.6320 C   0  0  0  0  0  0  0  0  0  0  0  0
   -0.1420   11.2630   -0.4580 C   0  0  1  0  0  0  0  0  0  0  0  0
   -0.2390   10.4760    0.8760 C   0  0  0  0  0  0  0  0  0  0  0  0
   -1.5630    9.7330    1.0220 C   0  0  0  0  0  0  0  0  0  0  0  0
   -1.7720    8.7580   -0.1340 C   0  0  2  0  0  0  0  0  0  0  0  0
   -0.7920    7.7190   -0.0430 O   0  0  0  0  0  0  0  0  0  0  0  0
   -1.6860    9.4360   -1.5300 C   0  0  0  0  0  0  0  0  0  0  0  0
   -2.9230   10.3420   -1.7450 C   0  0  0  0  0  0  0  0  0  0  0  0
   -1.7720    8.3210   -2.6080 C   0  0  0  0  0  0  0  0  0  0  0  0
    1.1870   12.1290   -0.5600 C   0  0  1  0  0  0  0  0  0  0  0  0
    2.3930   11.3240    0.0130 C   0  0  0  0  0  0  0  0  0  0  0  0
    1.0370   13.4090    0.3440 C   0  0  0  0  0  0  0  0  0  0  0  0
    0.3910   14.6470   -0.3050 C   0  0  0  0  0  0  0  0  0  0  0  0
    1.0390   14.9580   -1.6580 C   0  0  2  0  0  0  0  0  0  0  0  0
    2.5450   15.3030   -1.3990 C   0  0  0  0  0  0  0  0  0  0  0  0
    2.6911   18.4523   -2.1867 H   0  0  0  0  0  0  0  0  0  0  0  0
    2.3142   17.2844   -3.4984 H   0  0  0  0  0  0  0  0  0  0  0  0
    1.5529   18.9114   -3.4984 H   0  0  0  0  0  0  0  0  0  0  0  0
   -0.1300   18.1895   -2.2249 H   0  0  0  0  0  0  0  0  0  0  0  0
    0.3901   16.8199   -0.0354 H   0  0  0  0  0  0  0  0  0  0  0  0
    2.0989   17.3581   -0.4004 H   0  0  0  0  0  0  0  0  0  0  0  0
    1.4082   19.0386    1.0042 H   0  0  0  0  0  0  0  0  0  0  0  0
    0.9731   19.7132   -0.6215 H   0  0  0  0  0  0  0  0  0  0  0  0
   -0.3636   19.3032    1.5804 H   0  0  0  0  0  0  0  0  0  0  0  0
   -0.8784   21.0352   -1.6904 H   0  0  0  0  0  0  0  0  0  0  0  0
   -0.8887   19.3330   -2.2640 H   0  0  0  0  0  0  0  0  0  0  0  0
   -2.4088   20.2900   -2.2640 H   0  0  0  0  0  0  0  0  0  0  0  0
   -2.8893   20.1427    1.3951 H   0  0  0  0  0  0  0  0  0  0  0  0
   -3.1326   21.2348   -0.0102 H   0  0  0  0  0  0  0  0  0  0  0  0
   -3.8645   19.5944   -0.0102 H   0  0  0  0  0  0  0  0  0  0  0  0
   -0.6777   16.1233   -2.3448 H   0  0  0  0  0  0  0  0  0  0  0  0
    0.0703   15.9676   -4.6360 H   0  0  0  0  0  0  0  0  0  0  0  0
    1.7197   16.4752   -4.2131 H   0  0  0  0  0  0  0  0  0  0  0  0
    0.9064   13.8005   -4.8072 H   0  0  0  0  0  0  0  0  0  0  0  0
    2.4313   14.2188   -4.0310 H   0  0  0  0  0  0  0  0  0  0  0  0
   -1.2417   13.3076   -1.9527 H   0  0  0  0  0  0  0  0  0  0  0  0
   -1.1477   14.2452   -3.4820 H   0  0  0  0  0  0  0  0  0  0  0  0
   -0.7777   12.4874   -3.4820 H   0  0  0  0  0  0  0  0  0  0  0  0
    2.6013   12.8294   -2.0556 H   0  0  0  0  0  0  0  0  0  0  0  0
    1.4663   11.5845   -4.0049 H   0  0  0  0  0  0  0  0  0  0  0  0
    2.4337   10.6764   -2.7284 H   0  0  0  0  0  0  0  0  0  0  0  0
    0.1738    9.5585   -3.4922 H   0  0  0  0  0  0  0  0  0  0  0  0
   -0.9292   12.0303   -0.4974 H   0  0  0  0  0  0  0  0  0  0  0  0
    0.5818    9.7447    0.9144 H   0  0  0  0  0  0  0  0  0  0  0  0
   -0.1720   11.2035    1.6984 H   0  0  0  0  0  0  0  0  0  0  0  0
   -1.5591    9.1732    1.9689 H   0  0  0  0  0  0  0  0  0  0  0  0
   -2.3810   10.4684    1.0133 H   0  0  0  0  0  0  0  0  0  0  0  0
   -2.7907    8.3528   -0.0442 H   0  0  0  0  0  0  0  0  0  0  0  0
   -0.3780    7.7810    0.8350 H   0  0  0  0  0  0  0  0  0  0  0  0
   -3.3321   10.6417   -0.7689 H   0  0  0  0  0  0  0  0  0  0  0  0
   -2.6272   11.2386   -2.3094 H   0  0  0  0  0  0  0  0  0  0  0  0
   -3.6886    9.7894   -2.3094 H   0  0  0  0  0  0  0  0  0  0  0  0
   -1.8477    7.3402   -2.1158 H   0  0  0  0  0  0  0  0  0  0  0  0
   -2.6601    8.4857   -3.2358 H   0  0  0  0  0  0  0  0  0  0  0  0
   -0.8691    8.3475   -3.2358 H   0  0  0  0  0  0  0  0  0  0  0  0
    2.3596   11.3463    1.1123 H   0  0  0  0  0  0  0  0  0  0  0  0
    2.3365   10.2819   -0.3345 H   0  0  0  0  0  0  0  0  0  0  0  0
    3.3338   11.7759   -0.3345 H   0  0  0  0  0  0  0  0  0  0  0  0
    0.4239   13.1316    1.2141 H   0  0  0  0  0  0  0  0  0  0  0  0
    2.0664   13.7141    0.5830 H   0  0  0  0  0  0  0  0  0  0  0  0
   -0.6818   14.4560   -0.4553 H   0  0  0  0  0  0  0  0  0  0  0  0
    0.5389   15.5097    0.3613 H   0  0  0  0  0  0  0  0  0  0  0  0
    2.7304   15.3455   -0.3156 H   0  0  0  0  0  0  0  0  0  0  0  0
    3.1816   14.5274   -1.8498 H   0  0  0  0  0  0  0  0  0  0  0  0
    2.7805   16.2784   -1.8498 H   0  0  0  0  0  0  0  0  0  0  0  0
  1  2  1  0
  2  3  1  0
  3  4  1  0
  4  5  1  0
  5  6  1  0
  6  7  1  0
  7  8  1  0
  7  9  1  0
  2 10  1  0
 10 11  1  0
 11 12  1  0
 12 13  1  0
 13 14  1  6
 13 15  1  0
 15 16  1  0
 16 17  1  0
 17 18  2  0
 18 19  1  0
 19 20  1  0
 20 21  1  0
 21 22  1  0
 22 23  1  0
 22 24  1  0
 24 25  1  0
 24 26  1  0
 19 27  1  0
 27 28  1  1
 27 29  1  0
 29 30  1  0
 30 31  1  0
 31 32  1  1
  7  5  1  0
 31 10  1  0
 31 13  1  0
 27 15  1  0
 24 18  1  0
  1 33  1  0
  1 34  1  0
  1 35  1  0
  2 36  1  1
  3 37  1  0
  3 38  1  0
  4 39  1  0
  4 40  1  0
  5 41  1  1
  8 42  1  0
  8 43  1  0
  8 44  1  0
  9 45  1  0
  9 46  1  0
  9 47  1  0
 10 48  1  6
 11 49  1  0
 11 50  1  0
 12 51  1  0
 12 52  1  0
 14 53  1  0
 14 54  1  0
 14 55  1  0
 15 56  1  1
 16 57  1  0
 16 58  1  0
 17 59  1  0
 19 60  1  1
 20 61  1  0
 20 62  1  0
 21 63  1  0
 21 64  1  0
 22 65  1  1
 23 66  1  0
 25 67  1  0
 25 68  1  0
 25 69  1  0
 26 70  1  0
 26 71  1  0
 26 72  1  0
 28 73  1  0
 28 74  1  0
 28 75  1  0
 29 76  1  0
 29 77  1  0
 30 78  1  0
 30 79  1  0
 32 80  1  0
 32 81  1  0
 32 82  1  0
M  END
>  <meeko>  (8) 
{"is_sidechain": [false], "intermolecular_energy": 2.731, "internal_energy": -0.839}

$$$$
EPH_relaxed_0001_pdb2pqr_Repair_174_r2_0001_out
     RDKit          3D

 82 86  0  0  0  0  0  0  0  0999 V2000
    0.8250   14.8410   -2.6160 C   0  0  0  0  0  0  0  0  0  0  0  0
    1.1340   14.1500   -3.9470 C   0  0  2  0  0  0  0  0  0  0  0  0
    0.4700   14.8640   -5.1410 C   0  0  0  0  0  0  0  0  0  0  0  0
    1.1670   14.6050   -6.4790 C   0  0  0  0  0  0  0  0  0  0  0  0
    0.8980   15.7010   -7.4660 C   0  0  2  0  0  0  0  0  0  0  0  0
    0.4070   15.2540   -8.7370 O   0  0  0  0  0  0  0  0  0  0  0  0
    1.6950   15.8910   -8.7430 C   0  0  0  0  0  0  0  0  0  0  0  0
    2.8240   14.9770   -9.1010 C   0  0  0  0  0  0  0  0  0  0  0  0
    1.6970   17.2410   -9.3900 C   0  0  0  0  0  0  0  0  0  0  0  0
    0.6830   12.6950   -3.8940 C   0  0  1  0  0  0  0  0  0  0  0  0
    1.8240   11.7020   -4.2410 C   0  0  0  0  0  0  0  0  0  0  0  0
    1.6030   10.4430   -3.3640 C   0  0  0  0  0  0  0  0  0  0  0  0
    0.1750   10.6100   -2.7940 C   0  0  1  0  0  0  0  0  0  0  0  0
   -0.7720   10.1330   -3.9390 C   0  0  0  0  0  0  0  0  0  0  0  0
   -0.1230    9.8680   -1.4500 C   0  0  2  0  0  0  0  0  0  0  0  0
   -0.0160    8.3340   -1.5140 C   0  0  0  0  0  0  0  0  0  0  0  0
   -1.2800    7.6210   -1.8640 C   0  0  0  0  0  0  0  0  0  0  0  0
   -2.5140    8.1570   -1.8380 C   0  0  0  0  0  0  0  0  0  0  0  0
   -2.7400    9.5880   -1.3330 C   0  0  1  0  0  0  0  0  0  0  0  0
   -3.9450    9.6080   -0.3550 C   0  0  0  0  0  0  0  0  0  0  0  0
   -5.2030    8.9990   -0.9660 C   0  0  0  0  0  0  0  0  0  0  0  0
   -4.9550    7.5580   -1.4030 C   0  0  2  0  0  0  0  0  0  0  0  0
   -4.7250    6.7560   -0.2400 O   0  0  0  0  0  0  0  0  0  0  0  0
   -3.7580    7.4120   -2.3830 C   0  0  0  0  0  0  0  0  0  0  0  0
   -4.1300    8.0260   -3.7550 C   0  0  0  0  0  0  0  0  0  0  0  0
   -3.5270    5.8970   -2.6330 C   0  0  0  0  0  0  0  0  0  0  0  0
   -1.4620   10.3250   -0.7410 C   0  0  1  0  0  0  0  0  0  0  0  0
   -1.3040    9.9820    0.7720 C   0  0  0  0  0  0  0  0  0  0  0  0
   -1.6820   11.8810   -0.8240 C   0  0  0  0  0  0  0  0  0  0  0  0
   -1.2560   12.5750   -2.1320 C   0  0  0  0  0  0  0  0  0  0  0  0
    0.1620   12.1600   -2.5360 C   0  0  2  0  0  0  0  0  0  0  0  0
    1.1410   12.6470   -1.4130 C   0  0  0  0  0  0  0  0  0  0  0  0
    1.1190   14.1835   -1.7846 H   0  0  0  0  0  0  0  0  0  0  0  0
    1.3869   15.7846   -2.5536 H   0  0  0  0  0  0  0  0  0  0  0  0
   -0.2529   15.0513   -2.5536 H   0  0  0  0  0  0  0  0  0  0  0  0
    2.2225   14.1970   -4.0988 H   0  0  0  0  0  0  0  0  0  0  0  0
   -0.5706   14.5160   -5.2186 H   0  0  0  0  0  0  0  0  0  0  0  0
    0.5383   15.9447   -4.9473 H   0  0  0  0  0  0  0  0  0  0  0  0
    2.2516   14.5371   -6.3086 H   0  0  0  0  0  0  0  0  0  0  0  0
    0.7734   13.6655   -6.8943 H   0  0  0  0  0  0  0  0  0  0  0  0
    0.6241   16.3946   -6.6574 H   0  0  0  0  0  0  0  0  0  0  0  0
    3.2936   14.5968   -8.1818 H   0  0  0  0  0  0  0  0  0  0  0  0
    2.4391   14.1330   -9.6922 H   0  0  0  0  0  0  0  0  0  0  0  0
    3.5694   15.5291   -9.6922 H   0  0  0  0  0  0  0  0  0  0  0  0
    1.6982   18.0199   -8.6132 H   0  0  0  0  0  0  0  0  0  0  0  0
    2.5953   17.3462  -10.0161 H   0  0  0  0  0  0  0  0  0  0  0  0
    0.7990   17.3489  -10.0161 H   0  0  0  0  0  0  0  0  0  0  0  0
   -0.1386   12.7310   -4.6245 H   0  0  0  0  0  0  0  0  0  0  0  0
    1.7814   11.4335   -5.3069 H   0  0  0  0  0  0  0  0  0  0  0  0
    2.8099   12.1499   -4.0478 H   0  0  0  0  0  0  0  0  0  0  0  0
    1.6740    9.5290   -3.9719 H   0  0  0  0  0  0  0  0  0  0  0  0
    2.3600   10.3487   -2.5715 H   0  0  0  0  0  0  0  0  0  0  0  0
   -1.6741    9.6786   -3.5034 H   0  0  0  0  0  0  0  0  0  0  0  0
   -1.0587   10.9942   -4.5604 H   0  0  0  0  0  0  0  0  0  0  0  0
   -0.2507    9.3899   -4.5604 H   0  0  0  0  0  0  0  0  0  0  0  0
    0.7071   10.1987   -0.8084 H   0  0  0  0  0  0  0  0  0  0  0  0
    0.7399    8.0772   -2.2708 H   0  0  0  0  0  0  0  0  0  0  0  0
    0.2481    8.0046   -0.4983 H   0  0  0  0  0  0  0  0  0  0  0  0
   -1.1954    6.5676   -2.1692 H   0  0  0  0  0  0  0  0  0  0  0  0
   -2.9712   10.1912   -2.2233 H   0  0  0  0  0  0  0  0  0  0  0  0
   -3.6778    9.0360    0.5458 H   0  0  0  0  0  0  0  0  0  0  0  0
   -4.1644   10.6591   -0.1162 H   0  0  0  0  0  0  0  0  0  0  0  0
   -6.0100    9.0146   -0.2186 H   0  0  0  0  0  0  0  0  0  0  0  0
   -5.4854    9.5900   -1.8497 H   0  0  0  0  0  0  0  0  0  0  0  0
   -5.8491    7.2206   -1.9477 H   0  0  0  0  0  0  0  0  0  0  0  0
   -4.1300    7.2530    0.3470 H   0  0  0  0  0  0  0  0  0  0  0  0
   -4.6942    8.9573   -3.5991 H   0  0  0  0  0  0  0  0  0  0  0  0
   -3.2119    8.2438   -4.3203 H   0  0  0  0  0  0  0  0  0  0  0  0
   -4.7482    7.3130   -4.3203 H   0  0  0  0  0  0  0  0  0  0  0  0
   -3.4473    5.3742   -1.6685 H   0  0  0  0  0  0  0  0  0  0  0  0
   -4.3729    5.4864   -3.2038 H   0  0  0  0  0  0  0  0  0  0  0  0
   -2.5972    5.7572   -3.2038 H   0  0  0  0  0  0  0  0  0  0  0  0
   -1.6878   10.8153    1.3789 H   0  0  0  0  0  0  0  0  0  0  0  0
   -1.8721    9.0686    1.0022 H   0  0  0  0  0  0  0  0  0  0  0  0
   -0.2406    9.8202    1.0022 H   0  0  0  0  0  0  0  0  0  0  0  0
   -2.7554   12.0733   -0.6798 H   0  0  0  0  0  0  0  0  0  0  0  0
   -1.0287   12.3055   -0.0475 H   0  0  0  0  0  0  0  0  0  0  0  0
   -1.9553   12.2935   -2.9330 H   0  0  0  0  0  0  0  0  0  0  0  0
   -1.2710   13.6633   -1.9727 H   0  0  0  0  0  0  0  0  0  0  0  0
    0.7047   12.4300   -0.4268 H   0  0  0  0  0  0  0  0  0  0  0  0
    2.1027   12.1223   -1.5120 H   0  0  0  0  0  0  0  0  0  0  0  0
    1.3026   13.7305   -1.5120 H   0  0  0  0  0  0  0  0  0  0  0  0
  1  2  1  0
  2  3  1  0
  3  4  1  0
  4  5  1  0
  5  6  1  0
  6  7  1  0
  7  8  1  0
  7  9  1  0
  2 10  1  0
 10 11  1  0
 11 12  1  0
 12 13  1  0
 13 14  1  6
 13 15  1  0
 15 16  1  0
 16 17  1  0
 17 18  2  0
 18 19  1  0
 19 20  1  0
 20 21  1  0
 21 22  1  0
 22 23  1  0
 22 24  1  0
 24 25  1  0
 24 26  1  0
 19 27  1  0
 27 28  1  1
 27 29  1  0
 29 30  1  0
 30 31  1  0
 31 32  1  1
  7  5  1  0
 31 10  1  0
 31 13  1  0
 27 15  1  0
 24 18  1  0
  1 33  1  0
  1 34  1  0
  1 35  1  0
  2 36  1  6
  3 37  1  0
  3 38  1  0
  4 39  1  0
  4 40  1  0
  5 41  1  1
  8 42  1  0
  8 43  1  0
  8 44  1  0
  9 45  1  0
  9 46  1  0
  9 47  1  0
 10 48  1  6
 11 49  1  0
 11 50  1  0
 12 51  1  0
 12 52  1  0
 14 53  1  0
 14 54  1  0
 14 55  1  0
 15 56  1  1
 16 57  1  0
 16 58  1  0
 17 59  1  0
 19 60  1  6
 20 61  1  0
 20 62  1  0
 21 63  1  0
 21 64  1  0
 22 65  1  6
 23 66  1  0
 25 67  1  0
 25 68  1  0
 25 69  1  0
 26 70  1  0
 26 71  1  0
 26 72  1  0
 28 73  1  0
 28 74  1  0
 28 75  1  0
 29 76  1  0
 29 77  1  0
 30 78  1  0
 30 79  1  0
 32 80  1  0
 32 81  1  0
 32 82  1  0
M  END
>  <meeko>  (9) 
{"is_sidechain": [false], "intermolecular_energy": 2.731, "internal_energy": -0.839}

$$$$
EPH_relaxed_0001_pdb2pqr_Repair_174_r2_0001_out
     RDKit          3D

 82 86  0  0  0  0  0  0  0  0999 V2000
   -2.2270    7.8160   -2.2020 C   0  0  0  0  0  0  0  0  0  0  0  0
   -2.3730    8.5160   -0.8480 C   0  0  2  0  0  0  0  0  0  0  0  0
   -3.8360    8.5400   -0.3620 C   0  0  0  0  0  0  0  0  0  0  0  0
   -4.8260    7.9320   -1.3580 C   0  0  0  0  0  0  0  0  0  0  0  0
   -5.9370    7.2050   -0.6630 C   0  0  2  0  0  0  0  0  0  0  0  0
   -6.4430    6.0660   -1.3710 O   0  0  0  0  0  0  0  0  0  0  0  0
   -7.3610    7.1560   -1.1850 C   0  0  0  0  0  0  0  0  0  0  0  0
   -7.7500    7.8460   -2.4550 C   0  0  0  0  0  0  0  0  0  0  0  0
   -8.4670    6.8550   -0.2220 C   0  0  0  0  0  0  0  0  0  0  0  0
   -1.8310    9.9380   -0.9380 C   0  0  1  0  0  0  0  0  0  0  0  0
   -1.3720   10.4900    0.4380 C   0  0  0  0  0  0  0  0  0  0  0  0
   -0.1430   11.3960    0.1690 C   0  0  0  0  0  0  0  0  0  0  0  0
   -0.1370   11.6010   -1.3630 C   0  0  1  0  0  0  0  0  0  0  0  0
   -1.1840   12.7300   -1.6210 C   0  0  0  0  0  0  0  0  0  0  0  0
    1.2460   11.9370   -2.0110 C   0  0  2  0  0  0  0  0  0  0  0  0
    1.8820   13.2570   -1.5410 C   0  0  0  0  0  0  0  0  0  0  0  0
    1.5270   14.4600   -2.3510 C   0  0  0  0  0  0  0  0  0  0  0  0
    0.9630   14.4410   -3.5730 C   0  0  0  0  0  0  0  0  0  0  0  0
    0.7140   13.1170   -4.3060 C   0  0  1  0  0  0  0  0  0  0  0  0
    1.1960   13.2400   -5.7750 C   0  0  0  0  0  0  0  0  0  0  0  0
    0.5740   14.4310   -6.4970 C   0  0  0  0  0  0  0  0  0  0  0  0
    0.8930   15.7360   -5.7700 C   0  0  2  0  0  0  0  0  0  0  0  0
    2.2990   15.9840   -5.8640 O   0  0  0  0  0  0  0  0  0  0  0  0
    0.4610   15.7260   -4.2770 C   0  0  0  0  0  0  0  0  0  0  0  0
   -1.0840   15.7610   -4.1810 C   0  0  0  0  0  0  0  0  0  0  0  0
    0.9660   17.0420   -3.6260 C   0  0  0  0  0  0  0  0  0  0  0  0
    1.2710   11.8120   -3.5880 C   0  0  1  0  0  0  0  0  0  0  0  0
    2.7580   11.5760   -3.9930 C   0  0  0  0  0  0  0  0  0  0  0  0
    0.4660   10.5600   -4.1020 C   0  0  0  0  0  0  0  0  0  0  0  0
   -0.8300   10.2090   -3.3460 C   0  0  0  0  0  0  0  0  0  0  0  0
   -0.5890   10.1700   -1.8340 C   0  0  2  0  0  0  0  0  0  0  0  0
    0.4430    9.0280   -1.5430 C   0  0  0  0  0  0  0  0  0  0  0  0
   -2.0048    6.7506   -2.0419 H   0  0  0  0  0  0  0  0  0  0  0  0
   -3.1649    7.9139   -2.7684 H   0  0  0  0  0  0  0  0  0  0  0  0
   -1.4064    8.2806   -2.7684 H   0  0  0  0  0  0  0  0  0  0  0  0
   -1.7903    7.9412   -0.1131 H   0  0  0  0  0  0  0  0  0  0  0  0
   -3.8985    7.9738    0.5790 H   0  0  0  0  0  0  0  0  0  0  0  0
   -4.1152    9.5965   -0.2360 H   0  0  0  0  0  0  0  0  0  0  0  0
   -5.2560    8.7384   -1.9702 H   0  0  0  0  0  0  0  0  0  0  0  0
   -4.2821    7.2088   -1.9834 H   0  0  0  0  0  0  0  0  0  0  0  0
   -5.5208    7.4636    0.3218 H   0  0  0  0  0  0  0  0  0  0  0  0
   -8.2774    8.7816   -2.2173 H   0  0  0  0  0  0  0  0  0  0  0  0
   -6.8468    8.0728   -3.0405 H   0  0  0  0  0  0  0  0  0  0  0  0
   -8.4116    7.1907   -3.0405 H   0  0  0  0  0  0  0  0  0  0  0  0
   -8.0942    6.9565    0.8079 H   0  0  0  0  0  0  0  0  0  0  0  0
   -9.2956    7.5603   -0.3832 H   0  0  0  0  0  0  0  0  0  0  0  0
   -8.8239    5.8271   -0.3832 H   0  0  0  0  0  0  0  0  0  0  0  0
   -2.7071   10.4425   -1.3715 H   0  0  0  0  0  0  0  0  0  0  0  0
   -2.1804   11.0756    0.9000 H   0  0  0  0  0  0  0  0  0  0  0  0
   -1.1160    9.6713    1.1266 H   0  0  0  0  0  0  0  0  0  0  0  0
   -0.2495   12.3593    0.6892 H   0  0  0  0  0  0  0  0  0  0  0  0
    0.7931   10.9478    0.5334 H   0  0  0  0  0  0  0  0  0  0  0  0
   -1.5464   13.1208   -0.6588 H   0  0  0  0  0  0  0  0  0  0  0  0
   -0.7131   13.5430   -2.1930 H   0  0  0  0  0  0  0  0  0  0  0  0
   -2.0302   12.3216   -2.1930 H   0  0  0  0  0  0  0  0  0  0  0  0
    1.8914   11.1375   -1.6184 H   0  0  0  0  0  0  0  0  0  0  0  0
    1.5616   13.4385   -0.5045 H   0  0  0  0  0  0  0  0  0  0  0  0
    2.9688   13.1268   -1.6498 H   0  0  0  0  0  0  0  0  0  0  0  0
    1.7447   15.4449   -1.9121 H   0  0  0  0  0  0  0  0  0  0  0  0
   -0.3739   12.9559   -4.2826 H   0  0  0  0  0  0  0  0  0  0  0  0
    2.2897   13.3575   -5.7786 H   0  0  0  0  0  0  0  0  0  0  0  0
    0.8850   12.3282   -6.3059 H   0  0  0  0  0  0  0  0  0  0  0  0
    0.9748   14.4814   -7.5201 H   0  0  0  0  0  0  0  0  0  0  0  0
   -0.5177   14.2982   -6.5183 H   0  0  0  0  0  0  0  0  0  0  0  0
    0.3161   16.5358   -6.2574 H   0  0  0  0  0  0  0  0  0  0  0  0
    2.7440   15.1240   -5.9510 H   0  0  0  0  0  0  0  0  0  0  0  0
   -1.3856   15.7678   -3.1232 H   0  0  0  0  0  0  0  0  0  0  0  0
   -1.4617   16.6679   -4.6758 H   0  0  0  0  0  0  0  0  0  0  0  0
   -1.5024   14.8721   -4.6758 H   0  0  0  0  0  0  0  0  0  0  0  0
    0.9295   16.9468   -2.5307 H   0  0  0  0  0  0  0  0  0  0  0  0
    2.0017   17.2340   -3.9430 H   0  0  0  0  0  0  0  0  0  0  0  0
    0.3246   17.8775   -3.9430 H   0  0  0  0  0  0  0  0  0  0  0  0
    3.3738   11.4783   -3.0868 H   0  0  0  0  0  0  0  0  0  0  0  0
    2.8339   10.6546   -4.5890 H   0  0  0  0  0  0  0  0  0  0  0  0
    3.1155   12.4287   -4.5890 H   0  0  0  0  0  0  0  0  0  0  0  0
    0.1986   10.7448   -5.1529 H   0  0  0  0  0  0  0  0  0  0  0  0
    1.1348    9.7017   -3.9406 H   0  0  0  0  0  0  0  0  0  0  0  0
   -1.5938   10.9685   -3.5692 H   0  0  0  0  0  0  0  0  0  0  0  0
   -1.1686    9.2148   -3.6730 H   0  0  0  0  0  0  0  0  0  0  0  0
    0.5554    8.9036   -0.4558 H   0  0  0  0  0  0  0  0  0  0  0  0
    0.0828    8.0870   -1.9844 H   0  0  0  0  0  0  0  0  0  0  0  0
    1.4155    9.2914   -1.9844 H   0  0  0  0  0  0  0  0  0  0  0  0
  1  2  1  0
  2  3  1  0
  3  4  1  0
  4  5  1  0
  5  6  1  0
  6  7  1  0
  7  8  1  0
  7  9  1  0
  2 10  1  0
 10 11  1  0
 11 12  1  0
 12 13  1  0
 13 14  1  1
 13 15  1  0
 15 16  1  0
 16 17  1  0
 17 18  2  0
 18 19  1  0
 19 20  1  0
 20 21  1  0
 21 22  1  0
 22 23  1  0
 22 24  1  0
 24 25  1  0
 24 26  1  0
 19 27  1  0
 27 28  1  6
 27 29  1  0
 29 30  1  0
 30 31  1  0
 31 32  1  6
  7  5  1  0
 31 10  1  0
 31 13  1  0
 27 15  1  0
 24 18  1  0
  1 33  1  0
  1 34  1  0
  1 35  1  0
  2 36  1  1
  3 37  1  0
  3 38  1  0
  4 39  1  0
  4 40  1  0
  5 41  1  1
  8 42  1  0
  8 43  1  0
  8 44  1  0
  9 45  1  0
  9 46  1  0
  9 47  1  0
 10 48  1  6
 11 49  1  0
 11 50  1  0
 12 51  1  0
 12 52  1  0
 14 53  1  0
 14 54  1  0
 14 55  1  0
 15 56  1  1
 16 57  1  0
 16 58  1  0
 17 59  1  0
 19 60  1  6
 20 61  1  0
 20 62  1  0
 21 63  1  0
 21 64  1  0
 22 65  1  6
 23 66  1  0
 25 67  1  0
 25 68  1  0
 25 69  1  0
 26 70  1  0
 26 71  1  0
 26 72  1  0
 28 73  1  0
 28 74  1  0
 28 75  1  0
 29 76  1  0
 29 77  1  0
 30 78  1  0
 30 79  1  0
 32 80  1  0
 32 81  1  0
 32 82  1  0
M  END
>  <meeko>  (10) 
{"is_sidechain": [false], "intermolecular_energy": 2.731, "internal_energy": -0.839}

$$$$
EPH_relaxed_0001_pdb2pqr_Repair_174_r2_0001_out
     RDKit          3D

 82 86  0  0  0  0  0  0  0  0999 V2000
    3.4970   18.3550   -2.4280 C   0  0  0  0  0  0  0  0  0  0  0  0
    2.2220   17.5560   -2.7130 C   0  0  2  0  0  0  0  0  0  0  0  0
    0.9480   18.3500   -2.3620 C   0  0  0  0  0  0  0  0  0  0  0  0
    1.0110   19.0420   -0.9980 C   0  0  0  0  0  0  0  0  0  0  0  0
   -0.2370   19.8240   -0.7140 C   0  0  2  0  0  0  0  0  0  0  0  0
   -0.4120   20.1940    0.6590 O   0  0  0  0  0  0  0  0  0  0  0  0
   -1.3880   19.2890    0.1170 C   0  0  0  0  0  0  0  0  0  0  0  0
   -1.3460   17.9190    0.7170 C   0  0  0  0  0  0  0  0  0  0  0  0
   -2.7430   19.8990   -0.0610 C   0  0  0  0  0  0  0  0  0  0  0  0
    2.2470   16.2440   -1.9380 C   0  0  1  0  0  0  0  0  0  0  0  0
    2.5770   16.4440   -0.4350 C   0  0  0  0  0  0  0  0  0  0  0  0
    1.7610   15.3820    0.3470 C   0  0  0  0  0  0  0  0  0  0  0  0
    1.2550   14.4030   -0.7370 C   0  0  1  0  0  0  0  0  0  0  0  0
    2.4620   13.4530   -1.0160 C   0  0  0  0  0  0  0  0  0  0  0  0
   -0.0430   13.6010   -0.3930 C   0  0  2  0  0  0  0  0  0  0  0  0
    0.0750   12.6560    0.8150 C   0  0  0  0  0  0  0  0  0  0  0  0
    0.5130   11.2650    0.4970 C   0  0  0  0  0  0  0  0  0  0  0  0
    0.5270   10.7110   -0.7300 C   0  0  0  0  0  0  0  0  0  0  0  0
   -0.0220   11.4710   -1.9440 C   0  0  1  0  0  0  0  0  0  0  0  0
   -0.9400   10.5330   -2.7710 C   0  0  0  0  0  0  0  0  0  0  0  0
   -0.2460    9.2320   -3.1620 C   0  0  0  0  0  0  0  0  0  0  0  0
    0.2340    8.4760   -1.9260 C   0  0  2  0  0  0  0  0  0  0  0  0
   -0.9070    8.0370   -1.1820 O   0  0  0  0  0  0  0  0  0  0  0  0
    1.1590    9.3250   -1.0100 C   0  0  0  0  0  0  0  0  0  0  0  0
    2.5230    9.5460   -1.7100 C   0  0  0  0  0  0  0  0  0  0  0  0
    1.4570    8.4960    0.2690 C   0  0  0  0  0  0  0  0  0  0  0  0
   -0.7030   12.8730   -1.6340 C   0  0  1  0  0  0  0  0  0  0  0  0
   -2.2080   12.6670   -1.2800 C   0  0  0  0  0  0  0  0  0  0  0  0
   -0.6710   13.7600   -2.9340 C   0  0  0  0  0  0  0  0  0  0  0  0
    0.5880   14.6200   -3.1580 C   0  0  0  0  0  0  0  0  0  0  0  0
    0.9380   15.4160   -1.8970 C   0  0  2  0  0  0  0  0  0  0  0  0
   -0.2490   16.3960   -1.6050 C   0  0  0  0  0  0  0  0  0  0  0  0
    3.6387   18.4438   -1.3408 H   0  0  0  0  0  0  0  0  0  0  0  0
    4.3610   17.8365   -2.8692 H   0  0  0  0  0  0  0  0  0  0  0  0
    3.4071   19.3586   -2.8692 H   0  0  0  0  0  0  0  0  0  0  0  0
    2.1956   17.3500   -3.7932 H   0  0  0  0  0  0  0  0  0  0  0  0
    0.7935   19.1179   -3.1343 H   0  0  0  0  0  0  0  0  0  0  0  0
    0.1202   17.6269   -2.3179 H   0  0  0  0  0  0  0  0  0  0  0  0
    1.1387   18.2784   -0.2165 H   0  0  0  0  0  0  0  0  0  0  0  0
    1.8594   19.7421   -1.0078 H   0  0  0  0  0  0  0  0  0  0  0  0
   -0.2001   20.2897   -1.7099 H   0  0  0  0  0  0  0  0  0  0  0  0
   -1.3485   17.9990    1.8141 H   0  0  0  0  0  0  0  0  0  0  0  0
   -2.2271   17.3479    0.3890 H   0  0  0  0  0  0  0  0  0  0  0  0
   -0.4316   17.4029    0.3890 H   0  0  0  0  0  0  0  0  0  0  0  0
   -3.1874   20.0991    0.9251 H   0  0  0  0  0  0  0  0  0  0  0  0
   -2.6500   20.8421   -0.6195 H   0  0  0  0  0  0  0  0  0  0  0  0
   -3.3874   19.2042   -0.6195 H   0  0  0  0  0  0  0  0  0  0  0  0
    3.0142   15.7053   -2.5135 H   0  0  0  0  0  0  0  0  0  0  0  0
    3.6533   16.2985   -0.2608 H   0  0  0  0  0  0  0  0  0  0  0  0
    2.3192   17.4615   -0.1059 H   0  0  0  0  0  0  0  0  0  0  0  0
    2.3999   14.8596    1.0743 H   0  0  0  0  0  0  0  0  0  0  0  0
    0.9371   15.8295    0.9222 H   0  0  0  0  0  0  0  0  0  0  0  0
    2.8911   13.1152   -0.0611 H   0  0  0  0  0  0  0  0  0  0  0  0
    2.1172   12.5814   -1.5917 H   0  0  0  0  0  0  0  0  0  0  0  0
    3.2282   13.9929   -1.5917 H   0  0  0  0  0  0  0  0  0  0  0  0
   -0.7367   14.3965   -0.0833 H   0  0  0  0  0  0  0  0  0  0  0  0
    0.8036   13.0898    1.5157 H   0  0  0  0  0  0  0  0  0  0  0  0
   -0.9391   12.5675    1.2318 H   0  0  0  0  0  0  0  0  0  0  0  0
    0.8530   10.6398    1.3358 H   0  0  0  0  0  0  0  0  0  0  0  0
    0.8540   11.7592   -2.5437 H   0  0  0  0  0  0  0  0  0  0  0  0
   -1.8298   10.2916   -2.1711 H   0  0  0  0  0  0  0  0  0  0  0  0
   -1.2082   11.0604   -3.6983 H   0  0  0  0  0  0  0  0  0  0  0  0
   -0.9537    8.5997   -3.7183 H   0  0  0  0  0  0  0  0  0  0  0  0
    0.6269    9.4739   -3.7861 H   0  0  0  0  0  0  0  0  0  0  0  0
    0.8341    7.6223   -2.2739 H   0  0  0  0  0  0  0  0  0  0  0  0
   -1.2290    7.2170   -1.5940 H   0  0  0  0  0  0  0  0  0  0  0  0
    3.3085    9.6733   -0.9505 H   0  0  0  0  0  0  0  0  0  0  0  0
    2.7582    8.6743   -2.3383 H   0  0  0  0  0  0  0  0  0  0  0  0
    2.4709   10.4474   -2.3383 H   0  0  0  0  0  0  0  0  0  0  0  0
    1.2384    9.1040    1.1592 H   0  0  0  0  0  0  0  0  0  0  0  0
    0.8266    7.5946    0.2768 H   0  0  0  0  0  0  0  0  0  0  0  0
    2.5170    8.2022    0.2768 H   0  0  0  0  0  0  0  0  0  0  0  0
   -2.3286   12.6505   -0.1868 H   0  0  0  0  0  0  0  0  0  0  0  0
   -2.8002   13.4925   -1.7018 H   0  0  0  0  0  0  0  0  0  0  0  0
   -2.5566   11.7128   -1.7018 H   0  0  0  0  0  0  0  0  0  0  0  0
   -0.7725   13.0873   -3.7984 H   0  0  0  0  0  0  0  0  0  0  0  0
   -1.4933   14.4803   -2.8111 H   0  0  0  0  0  0  0  0  0  0  0  0
    1.4319   13.9629   -3.4148 H   0  0  0  0  0  0  0  0  0  0  0  0
    0.3890   15.3277   -3.9763 H   0  0  0  0  0  0  0  0  0  0  0  0
   -0.3777   16.5023   -0.5177 H   0  0  0  0  0  0  0  0  0  0  0  0
   -0.0295   17.3795   -2.0461 H   0  0  0  0  0  0  0  0  0  0  0  0
   -1.1731   15.9943   -2.0461 H   0  0  0  0  0  0  0  0  0  0  0  0
  1  2  1  0
  2  3  1  0
  3  4  1  0
  4  5  1  0
  5  6  1  0
  6  7  1  0
  7  8  1  0
  7  9  1  0
  2 10  1  0
 10 11  1  0
 11 12  1  0
 12 13  1  0
 13 14  1  6
 13 15  1  0
 15 16  1  0
 16 17  1  0
 17 18  2  0
 18 19  1  0
 19 20  1  0
 20 21  1  0
 21 22  1  0
 22 23  1  0
 22 24  1  0
 24 25  1  0
 24 26  1  0
 19 27  1  0
 27 28  1  1
 27 29  1  0
 29 30  1  0
 30 31  1  0
 31 32  1  1
  7  5  1  0
 31 10  1  0
 31 13  1  0
 27 15  1  0
 24 18  1  0
  1 33  1  0
  1 34  1  0
  1 35  1  0
  2 36  1  6
  3 37  1  0
  3 38  1  0
  4 39  1  0
  4 40  1  0
  5 41  1  6
  8 42  1  0
  8 43  1  0
  8 44  1  0
  9 45  1  0
  9 46  1  0
  9 47  1  0
 10 48  1  6
 11 49  1  0
 11 50  1  0
 12 51  1  0
 12 52  1  0
 14 53  1  0
 14 54  1  0
 14 55  1  0
 15 56  1  1
 16 57  1  0
 16 58  1  0
 17 59  1  0
 19 60  1  6
 20 61  1  0
 20 62  1  0
 21 63  1  0
 21 64  1  0
 22 65  1  6
 23 66  1  0
 25 67  1  0
 25 68  1  0
 25 69  1  0
 26 70  1  0
 26 71  1  0
 26 72  1  0
 28 73  1  0
 28 74  1  0
 28 75  1  0
 29 76  1  0
 29 77  1  0
 30 78  1  0
 30 79  1  0
 32 80  1  0
 32 81  1  0
 32 82  1  0
M  END
>  <meeko>  (11) 
{"is_sidechain": [false], "intermolecular_energy": 2.731, "internal_energy": -0.839}

$$$$
EPH_relaxed_0001_pdb2pqr_Repair_174_r2_0001_out
     RDKit          3D

 82 86  0  0  0  0  0  0  0  0999 V2000
   -0.4540   16.0660   -5.7150 C   0  0  0  0  0  0  0  0  0  0  0  0
    0.7610   15.3460   -6.3070 C   0  0  2  0  0  0  0  0  0  0  0  0
    0.7130   15.2970   -7.8470 C   0  0  0  0  0  0  0  0  0  0  0  0
    1.8570   16.0560   -8.5240 C   0  0  0  0  0  0  0  0  0  0  0  0
    1.6910   16.0990  -10.0120 C   0  0  2  0  0  0  0  0  0  0  0  0
    1.0900   14.9280  -10.5810 O   0  0  0  0  0  0  0  0  0  0  0  0
    2.4490   15.1940  -10.9650 C   0  0  0  0  0  0  0  0  0  0  0  0
    3.4320   14.1820  -10.4640 C   0  0  0  0  0  0  0  0  0  0  0  0
    2.6000   15.6220  -12.3920 C   0  0  0  0  0  0  0  0  0  0  0  0
    0.8540   13.9330   -5.7430 C   0  0  1  0  0  0  0  0  0  0  0  0
    2.2130   13.2530   -6.0570 C   0  0  0  0  0  0  0  0  0  0  0  0
    2.5600   12.3630   -4.8360 C   0  0  0  0  0  0  0  0  0  0  0  0
    1.2510   12.2990   -4.0150 C   0  0  1  0  0  0  0  0  0  0  0  0
    0.3870   11.2090   -4.7230 C   0  0  0  0  0  0  0  0  0  0  0  0
    1.4080   12.0090   -2.4870 C   0  0  2  0  0  0  0  0  0  0  0  0
    2.0310   10.6450   -2.1420 C   0  0  0  0  0  0  0  0  0  0  0  0
    1.0600    9.5260   -1.9680 C   0  0  0  0  0  0  0  0  0  0  0  0
   -0.2690    9.6620   -1.8030 C   0  0  0  0  0  0  0  0  0  0  0  0
   -0.9100   11.0500   -1.6800 C   0  0  1  0  0  0  0  0  0  0  0  0
   -1.9060   11.0580   -0.4920 C   0  0  0  0  0  0  0  0  0  0  0  0
   -2.9440    9.9440   -0.5910 C   0  0  0  0  0  0  0  0  0  0  0  0
   -2.2700    8.5750   -0.6530 C   0  0  2  0  0  0  0  0  0  0  0  0
   -1.6260    8.3220    0.6000 O   0  0  0  0  0  0  0  0  0  0  0  0
   -1.2360    8.4520   -1.8060 C   0  0  0  0  0  0  0  0  0  0  0  0
   -1.9760    8.4250   -3.1670 C   0  0  0  0  0  0  0  0  0  0  0  0
   -0.5290    7.0770   -1.6690 C   0  0  0  0  0  0  0  0  0  0  0  0
    0.0990   12.2780   -1.6390 C   0  0  1  0  0  0  0  0  0  0  0  0
    0.5640   12.5350   -0.1720 C   0  0  0  0  0  0  0  0  0  0  0  0
   -0.6560   13.5800   -2.1000 C   0  0  0  0  0  0  0  0  0  0  0  0
   -0.6730   13.8740   -3.6120 C   0  0  0  0  0  0  0  0  0  0  0  0
    0.7340   13.7710   -4.2070 C   0  0  2  0  0  0  0  0  0  0  0  0
    1.6210   14.8710   -3.5300 C   0  0  0  0  0  0  0  0  0  0  0  0
   -0.4000   16.0340   -4.6168 H   0  0  0  0  0  0  0  0  0  0  0  0
   -0.4595   17.1133   -6.0515 H   0  0  0  0  0  0  0  0  0  0  0  0
   -1.3752   15.5679   -6.0515 H   0  0  0  0  0  0  0  0  0  0  0  0
    1.6561   15.9188   -6.0228 H   0  0  0  0  0  0  0  0  0  0  0  0
    0.7605   14.2442   -8.1624 H   0  0  0  0  0  0  0  0  0  0  0  0
   -0.2230   15.7862   -8.1546 H   0  0  0  0  0  0  0  0  0  0  0  0
    1.8788   17.0859   -8.1381 H   0  0  0  0  0  0  0  0  0  0  0  0
    2.7967   15.5302   -8.2995 H   0  0  0  0  0  0  0  0  0  0  0  0
    1.5463   17.1892   -9.9882 H   0  0  0  0  0  0  0  0  0  0  0  0
    3.4309   14.1831   -9.3640 H   0  0  0  0  0  0  0  0  0  0  0  0
    3.1494   13.1839  -10.8299 H   0  0  0  0  0  0  0  0  0  0  0  0
    4.4379   14.4355  -10.8299 H   0  0  0  0  0  0  0  0  0  0  0  0
    2.9658   16.6588  -12.4271 H   0  0  0  0  0  0  0  0  0  0  0  0
    3.3195   14.9620  -12.8986 H   0  0  0  0  0  0  0  0  0  0  0  0
    1.6256   15.5596  -12.8986 H   0  0  0  0  0  0  0  0  0  0  0  0
   -0.0171   13.4791   -6.2382 H   0  0  0  0  0  0  0  0  0  0  0  0
    2.1273   12.6359   -6.9635 H   0  0  0  0  0  0  0  0  0  0  0  0
    2.9980   14.0026   -6.2354 H   0  0  0  0  0  0  0  0  0  0  0  0
    2.8632   11.3572   -5.1623 H   0  0  0  0  0  0  0  0  0  0  0  0
    3.3998   12.7663   -4.2512 H   0  0  0  0  0  0  0  0  0  0  0  0
   -0.1082   10.5842   -3.9651 H   0  0  0  0  0  0  0  0  0  0  0  0
   -0.3737   11.6952   -5.3515 H   0  0  0  0  0  0  0  0  0  0  0  0
    1.0340   10.5794   -5.3515 H   0  0  0  0  0  0  0  0  0  0  0  0
    2.1487   12.7615   -2.1788 H   0  0  0  0  0  0  0  0  0  0  0  0
    2.7220   10.3722   -2.9532 H   0  0  0  0  0  0  0  0  0  0  0  0
    2.5242   10.7739   -1.1673 H   0  0  0  0  0  0  0  0  0  0  0  0
    1.4643    8.5030   -1.9751 H   0  0  0  0  0  0  0  0  0  0  0  0
   -1.4526   11.2186   -2.6219 H   0  0  0  0  0  0  0  0  0  0  0  0
   -1.3406   10.9310    0.4430 H   0  0  0  0  0  0  0  0  0  0  0  0
   -2.4432   12.0177   -0.5132 H   0  0  0  0  0  0  0  0  0  0  0  0
   -3.5995    9.9831    0.2915 H   0  0  0  0  0  0  0  0  0  0  0  0
   -3.5291   10.0896   -1.5110 H   0  0  0  0  0  0  0  0  0  0  0  0
   -3.0539    7.8302   -0.8552 H   0  0  0  0  0  0  0  0  0  0  0  0
   -2.2300    7.7830    1.1380 H   0  0  0  0  0  0  0  0  0  0  0  0
   -3.0615    8.3854   -2.9934 H   0  0  0  0  0  0  0  0  0  0  0  0
   -1.7287    9.3328   -3.7369 H   0  0  0  0  0  0  0  0  0  0  0  0
   -1.6632    7.5377   -3.7369 H   0  0  0  0  0  0  0  0  0  0  0  0
   -0.4038    6.8336   -0.6036 H   0  0  0  0  0  0  0  0  0  0  0  0
   -1.1398    6.3008   -2.1532 H   0  0  0  0  0  0  0  0  0  0  0  0
    0.4577    7.1222   -2.1532 H   0  0  0  0  0  0  0  0  0  0  0  0
   -0.1802   12.1237    0.5259 H   0  0  0  0  0  0  0  0  0  0  0  0
    1.5345   12.0452   -0.0038 H   0  0  0  0  0  0  0  0  0  0  0  0
    0.6655   13.6173   -0.0038 H   0  0  0  0  0  0  0  0  0  0  0  0
   -1.7005   13.4951   -1.7657 H   0  0  0  0  0  0  0  0  0  0  0  0
   -0.0947   14.4127   -1.6510 H   0  0  0  0  0  0  0  0  0  0  0  0
   -1.3293   13.1468   -4.1125 H   0  0  0  0  0  0  0  0  0  0  0  0
   -1.0443   14.8980   -3.7657 H   0  0  0  0  0  0  0  0  0  0  0  0
    1.5473   14.7796   -2.4363 H   0  0  0  0  0  0  0  0  0  0  0  0
    2.6684   14.7390   -3.8392 H   0  0  0  0  0  0  0  0  0  0  0  0
    1.2700   15.8666   -3.8392 H   0  0  0  0  0  0  0  0  0  0  0  0
  1  2  1  0
  2  3  1  0
  3  4  1  0
  4  5  1  0
  5  6  1  0
  6  7  1  0
  7  8  1  0
  7  9  1  0
  2 10  1  0
 10 11  1  0
 11 12  1  0
 12 13  1  0
 13 14  1  6
 13 15  1  0
 15 16  1  0
 16 17  1  0
 17 18  2  0
 18 19  1  0
 19 20  1  0
 20 21  1  0
 21 22  1  0
 22 23  1  0
 22 24  1  0
 24 25  1  0
 24 26  1  0
 19 27  1  0
 27 28  1  1
 27 29  1  0
 29 30  1  0
 30 31  1  0
 31 32  1  1
  7  5  1  0
 31 10  1  0
 31 13  1  0
 27 15  1  0
 24 18  1  0
  1 33  1  0
  1 34  1  0
  1 35  1  0
  2 36  1  6
  3 37  1  0
  3 38  1  0
  4 39  1  0
  4 40  1  0
  5 41  1  6
  8 42  1  0
  8 43  1  0
  8 44  1  0
  9 45  1  0
  9 46  1  0
  9 47  1  0
 10 48  1  6
 11 49  1  0
 11 50  1  0
 12 51  1  0
 12 52  1  0
 14 53  1  0
 14 54  1  0
 14 55  1  0
 15 56  1  1
 16 57  1  0
 16 58  1  0
 17 59  1  0
 19 60  1  6
 20 61  1  0
 20 62  1  0
 21 63  1  0
 21 64  1  0
 22 65  1  6
 23 66  1  0
 25 67  1  0
 25 68  1  0
 25 69  1  0
 26 70  1  0
 26 71  1  0
 26 72  1  0
 28 73  1  0
 28 74  1  0
 28 75  1  0
 29 76  1  0
 29 77  1  0
 30 78  1  0
 30 79  1  0
 32 80  1  0
 32 81  1  0
 32 82  1  0
M  END
>  <meeko>  (12) 
{"is_sidechain": [false], "intermolecular_energy": 2.731, "internal_energy": -0.839}

$$$$
EPH_relaxed_0001_pdb2pqr_Repair_174_r2_0001_out
     RDKit          3D

 82 86  0  0  0  0  0  0  0  0999 V2000
    0.8430   14.7010   -4.8290 C   0  0  0  0  0  0  0  0  0  0  0  0
    0.5920   14.1650   -3.4160 C   0  0  2  0  0  0  0  0  0  0  0  0
    1.8100   14.3690   -2.4930 C   0  0  0  0  0  0  0  0  0  0  0  0
    1.5850   15.4180   -1.4000 C   0  0  0  0  0  0  0  0  0  0  0  0
    1.1950   16.7450   -1.9780 C   0  0  2  0  0  0  0  0  0  0  0  0
    2.1640   17.3200   -2.8640 O   0  0  0  0  0  0  0  0  0  0  0  0
    1.9090   18.0430   -1.6490 C   0  0  0  0  0  0  0  0  0  0  0  0
    3.0700   18.0770   -0.7060 C   0  0  0  0  0  0  0  0  0  0  0  0
    1.1790   19.3330   -1.8570 C   0  0  0  0  0  0  0  0  0  0  0  0
    0.2260   12.6870   -3.4780 C   0  0  1  0  0  0  0  0  0  0  0  0
    1.4520   11.7800   -3.7670 C   0  0  0  0  0  0  0  0  0  0  0  0
    1.2310   10.4640   -2.9780 C   0  0  0  0  0  0  0  0  0  0  0  0
   -0.2500   10.5190   -2.5360 C   0  0  1  0  0  0  0  0  0  0  0  0
   -1.0610   10.0540   -3.7860 C   0  0  0  0  0  0  0  0  0  0  0  0
   -0.6230    9.6880   -1.2650 C   0  0  2  0  0  0  0  0  0  0  0  0
   -0.4180    8.1690   -1.3950 C   0  0  0  0  0  0  0  0  0  0  0  0
   -1.6000    7.4070   -1.8960 C   0  0  0  0  0  0  0  0  0  0  0  0
   -2.8620    7.8720   -1.9580 C   0  0  0  0  0  0  0  0  0  0  0  0
   -3.2180    9.2580   -1.4050 C   0  0  1  0  0  0  0  0  0  0  0  0
   -4.5050    9.1560   -0.5440 C   0  0  0  0  0  0  0  0  0  0  0  0
   -5.6640    8.5130   -1.2980 C   0  0  0  0  0  0  0  0  0  0  0  0
   -5.2910    7.1140   -1.7820 C   0  0  2  0  0  0  0  0  0  0  0  0
   -5.1190    6.2630   -0.6440 O   0  0  0  0  0  0  0  0  0  0  0  0
   -4.0040    7.0890   -2.6520 C   0  0  0  0  0  0  0  0  0  0  0  0
   -4.2880    7.7560   -4.0210 C   0  0  0  0  0  0  0  0  0  0  0  0
   -3.6600    5.6060   -2.9550 C   0  0  0  0  0  0  0  0  0  0  0  0
   -2.0460   10.0300   -0.6610 C   0  0  1  0  0  0  0  0  0  0  0  0
   -2.0030    9.6140    0.8410 C   0  0  0  0  0  0  0  0  0  0  0  0
   -2.3510   11.5740   -0.6860 C   0  0  0  0  0  0  0  0  0  0  0  0
   -1.8520   12.3620   -1.9120 C   0  0  0  0  0  0  0  0  0  0  0  0
   -0.3810   12.0500   -2.2030 C   0  0  2  0  0  0  0  0  0  0  0  0
    0.4620   12.5270   -0.9710 C   0  0  0  0  0  0  0  0  0  0  0  0
    1.3087   15.6956   -4.7665 H   0  0  0  0  0  0  0  0  0  0  0  0
    1.5136   14.0153   -5.3675 H   0  0  0  0  0  0  0  0  0  0  0  0
   -0.1131   14.7770   -5.3675 H   0  0  0  0  0  0  0  0  0  0  0  0
   -0.2449   14.7369   -2.9887 H   0  0  0  0  0  0  0  0  0  0  0  0
    2.0444   13.4089   -2.0100 H   0  0  0  0  0  0  0  0  0  0  0  0
    2.6341   14.7336   -3.1239 H   0  0  0  0  0  0  0  0  0  0  0  0
    0.7832   15.0705   -0.7319 H   0  0  0  0  0  0  0  0  0  0  0  0
    2.5283   15.5474   -0.8491 H   0  0  0  0  0  0  0  0  0  0  0  0
    0.1315   16.4643   -1.9661 H   0  0  0  0  0  0  0  0  0  0  0  0
    2.7011   18.0662    0.3303 H   0  0  0  0  0  0  0  0  0  0  0  0
    3.7075   17.1971   -0.8775 H   0  0  0  0  0  0  0  0  0  0  0  0
    3.6550   18.9927   -0.8775 H   0  0  0  0  0  0  0  0  0  0  0  0
    0.9292   19.7744   -0.8809 H   0  0  0  0  0  0  0  0  0  0  0  0
    1.8173   20.0286   -2.4215 H   0  0  0  0  0  0  0  0  0  0  0  0
    0.2540   19.1440   -2.4215 H   0  0  0  0  0  0  0  0  0  0  0  0
   -0.5279   12.7173   -4.2784 H   0  0  0  0  0  0  0  0  0  0  0  0
    1.5212   11.5687   -4.8443 H   0  0  0  0  0  0  0  0  0  0  0  0
    2.3875   12.2713   -3.4612 H   0  0  0  0  0  0  0  0  0  0  0  0
    1.4122    9.5903   -3.6213 H   0  0  0  0  0  0  0  0  0  0  0  0
    1.9181   10.3687   -2.1243 H   0  0  0  0  0  0  0  0  0  0  0  0
   -1.9720    9.5317   -3.4585 H   0  0  0  0  0  0  0  0  0  0  0  0
   -1.3380   10.9305   -4.3902 H   0  0  0  0  0  0  0  0  0  0  0  0
   -0.4445    9.3722   -4.3902 H   0  0  0  0  0  0  0  0  0  0  0  0
    0.1245   10.0285   -0.5333 H   0  0  0  0  0  0  0  0  0  0  0  0
    0.4170    7.9969   -2.0901 H   0  0  0  0  0  0  0  0  0  0  0  0
   -0.2267    7.7993   -0.3768 H   0  0  0  0  0  0  0  0  0  0  0  0
   -1.4250    6.3783   -2.2440 H   0  0  0  0  0  0  0  0  0  0  0  0
   -3.4038    9.8967   -2.2811 H   0  0  0  0  0  0  0  0  0  0  0  0
   -4.2855    8.5506    0.3478 H   0  0  0  0  0  0  0  0  0  0  0  0
   -4.8083   10.1785   -0.2748 H   0  0  0  0  0  0  0  0  0  0  0  0
   -6.5339    8.4422   -0.6285 H   0  0  0  0  0  0  0  0  0  0  0  0
   -5.9018    9.1354   -2.1732 H   0  0  0  0  0  0  0  0  0  0  0  0
   -6.1101    6.7583   -2.4242 H   0  0  0  0  0  0  0  0  0  0  0  0
   -5.7220    6.5770    0.0510 H   0  0  0  0  0  0  0  0  0  0  0  0
   -4.7143    8.7571   -3.8597 H   0  0  0  0  0  0  0  0  0  0  0  0
   -3.3493    7.8441   -4.5877 H   0  0  0  0  0  0  0  0  0  0  0  0
   -5.0021    7.1404   -4.5877 H   0  0  0  0  0  0  0  0  0  0  0  0
   -3.5330    5.0585   -2.0094 H   0  0  0  0  0  0  0  0  0  0  0  0
   -4.4765    5.1513   -3.5351 H   0  0  0  0  0  0  0  0  0  0  0  0
   -2.7267    5.5572   -3.5351 H   0  0  0  0  0  0  0  0  0  0  0  0
   -2.0956   10.5100    1.4724 H   0  0  0  0  0  0  0  0  0  0  0  0
   -2.8349    8.9269    1.0551 H   0  0  0  0  0  0  0  0  0  0  0  0
   -1.0481    9.1116    1.0551 H   0  0  0  0  0  0  0  0  0  0  0  0
   -3.4427   11.6982   -0.6326 H   0  0  0  0  0  0  0  0  0  0  0  0
   -1.7967   11.9902    0.1681 H   0  0  0  0  0  0  0  0  0  0  0  0
   -2.4582   12.0868   -2.7877 H   0  0  0  0  0  0  0  0  0  0  0  0
   -1.9471   13.4372   -1.7002 H   0  0  0  0  0  0  0  0  0  0  0  0
   -0.0503   12.2371   -0.0418 H   0  0  0  0  0  0  0  0  0  0  0  0
    1.4563   12.0577   -1.0032 H   0  0  0  0  0  0  0  0  0  0  0  0
    0.5717   13.6210   -1.0032 H   0  0  0  0  0  0  0  0  0  0  0  0
  1  2  1  0
  2  3  1  0
  3  4  1  0
  4  5  1  0
  5  6  1  0
  6  7  1  0
  7  8  1  0
  7  9  1  0
  2 10  1  0
 10 11  1  0
 11 12  1  0
 12 13  1  0
 13 14  1  6
 13 15  1  0
 15 16  1  0
 16 17  1  0
 17 18  2  0
 18 19  1  0
 19 20  1  0
 20 21  1  0
 21 22  1  0
 22 23  1  0
 22 24  1  0
 24 25  1  0
 24 26  1  0
 19 27  1  0
 27 28  1  1
 27 29  1  0
 29 30  1  0
 30 31  1  0
 31 32  1  1
  7  5  1  0
 31 10  1  0
 31 13  1  0
 27 15  1  0
 24 18  1  0
  1 33  1  0
  1 34  1  0
  1 35  1  0
  2 36  1  1
  3 37  1  0
  3 38  1  0
  4 39  1  0
  4 40  1  0
  5 41  1  6
  8 42  1  0
  8 43  1  0
  8 44  1  0
  9 45  1  0
  9 46  1  0
  9 47  1  0
 10 48  1  6
 11 49  1  0
 11 50  1  0
 12 51  1  0
 12 52  1  0
 14 53  1  0
 14 54  1  0
 14 55  1  0
 15 56  1  1
 16 57  1  0
 16 58  1  0
 17 59  1  0
 19 60  1  6
 20 61  1  0
 20 62  1  0
 21 63  1  0
 21 64  1  0
 22 65  1  6
 23 66  1  0
 25 67  1  0
 25 68  1  0
 25 69  1  0
 26 70  1  0
 26 71  1  0
 26 72  1  0
 28 73  1  0
 28 74  1  0
 28 75  1  0
 29 76  1  0
 29 77  1  0
 30 78  1  0
 30 79  1  0
 32 80  1  0
 32 81  1  0
 32 82  1  0
M  END
>  <meeko>  (13) 
{"is_sidechain": [false], "intermolecular_energy": 2.731, "internal_energy": -0.839}

$$$$
EPH_relaxed_0001_pdb2pqr_Repair_174_r2_0001_out
     RDKit          3D

 82 86  0  0  0  0  0  0  0  0999 V2000
    3.1930   20.1130   -0.6450 C   0  0  0  0  0  0  0  0  0  0  0  0
    1.8970   19.9660    0.1560 C   0  0  2  0  0  0  0  0  0  0  0  0
    2.1620   19.7950    1.6650 C   0  0  0  0  0  0  0  0  0  0  0  0
    3.5780   20.1930    2.0900 C   0  0  0  0  0  0  0  0  0  0  0  0
    4.1880   19.1780    3.0080 C   0  0  2  0  0  0  0  0  0  0  0  0
    4.9620   19.7290    4.0810 O   0  0  0  0  0  0  0  0  0  0  0  0
    5.6820   18.9410    3.1200 C   0  0  0  0  0  0  0  0  0  0  0  0
    6.6600   19.7240    2.3000 C   0  0  0  0  0  0  0  0  0  0  0  0
    6.1610   17.6270    3.6550 C   0  0  0  0  0  0  0  0  0  0  0  0
    1.0940   18.7810   -0.3690 C   0  0  1  0  0  0  0  0  0  0  0  0
    0.2850   19.1280   -1.6470 C   0  0  0  0  0  0  0  0  0  0  0  0
    0.2780   17.8540   -2.5310 C   0  0  0  0  0  0  0  0  0  0  0  0
    0.7890   16.7300   -1.6000 C   0  0  1  0  0  0  0  0  0  0  0  0
   -0.4580   16.3070   -0.7610 C   0  0  0  0  0  0  0  0  0  0  0  0
    1.4570   15.5020   -2.3000 C   0  0  2  0  0  0  0  0  0  0  0  0
    0.5330   14.7030   -3.2360 C   0  0  0  0  0  0  0  0  0  0  0  0
   -0.2070   13.5770   -2.5930 C   0  0  0  0  0  0  0  0  0  0  0  0
    0.0750   13.0410   -1.3910 C   0  0  0  0  0  0  0  0  0  0  0  0
    1.2980   13.5050   -0.5890 C   0  0  1  0  0  0  0  0  0  0  0  0
    2.0670   12.2680   -0.0550 C   0  0  0  0  0  0  0  0  0  0  0  0
    1.1730   11.3220    0.7400 C   0  0  0  0  0  0  0  0  0  0  0  0
    0.0010   10.8360   -0.1100 C   0  0  2  0  0  0  0  0  0  0  0  0
    0.5070   10.0130   -1.1650 O   0  0  0  0  0  0  0  0  0  0  0  0
   -0.8420   11.9960   -0.7100 C   0  0  0  0  0  0  0  0  0  0  0  0
   -1.6320   12.7040    0.4180 C   0  0  0  0  0  0  0  0  0  0  0  0
   -1.9030   11.3730   -1.6580 C   0  0  0  0  0  0  0  0  0  0  0  0
    2.2500   14.5480   -1.3180 C   0  0  1  0  0  0  0  0  0  0  0  0
    3.3020   13.7920   -2.1860 C   0  0  0  0  0  0  0  0  0  0  0  0
    3.0620   15.3490   -0.2330 C   0  0  0  0  0  0  0  0  0  0  0  0
    2.4000   16.6190    0.3340 C   0  0  0  0  0  0  0  0  0  0  0  0
    1.8840   17.5180   -0.7930 C   0  0  2  0  0  0  0  0  0  0  0  0
    3.1190   17.9770   -1.6420 C   0  0  0  0  0  0  0  0  0  0  0  0
    4.0427   20.2094    0.0469 H   0  0  0  0  0  0  0  0  0  0  0  0
    3.3351   19.2252   -1.2788 H   0  0  0  0  0  0  0  0  0  0  0  0
    3.1326   21.0101   -1.2788 H   0  0  0  0  0  0  0  0  0  0  0  0
    1.3207   20.8939    0.0257 H   0  0  0  0  0  0  0  0  0  0  0  0
    1.4450   20.4208    2.2166 H   0  0  0  0  0  0  0  0  0  0  0  0
    2.0468   18.7250    1.8925 H   0  0  0  0  0  0  0  0  0  0  0  0
    4.2069   20.2849    1.1922 H   0  0  0  0  0  0  0  0  0  0  0  0
    3.5175   21.1499    2.6292 H   0  0  0  0  0  0  0  0  0  0  0  0
    3.3422   18.4928    2.8492 H   0  0  0  0  0  0  0  0  0  0  0  0
    7.3429   20.2707    2.9669 H   0  0  0  0  0  0  0  0  0  0  0  0
    7.2391   19.0371    1.6653 H   0  0  0  0  0  0  0  0  0  0  0  0
    6.1165   20.4394    1.6653 H   0  0  0  0  0  0  0  0  0  0  0  0
    6.1514   17.6534    4.7546 H   0  0  0  0  0  0  0  0  0  0  0  0
    5.4979   16.8236    3.3017 H   0  0  0  0  0  0  0  0  0  0  0  0
    7.1856   17.4388    3.3017 H   0  0  0  0  0  0  0  0  0  0  0  0
    0.4851   18.5620    0.5205 H   0  0  0  0  0  0  0  0  0  0  0  0
   -0.7442   19.4090   -1.3792 H   0  0  0  0  0  0  0  0  0  0  0  0
    0.7355   19.9774   -2.1814 H   0  0  0  0  0  0  0  0  0  0  0  0
   -0.7397   17.6325   -2.8848 H   0  0  0  0  0  0  0  0  0  0  0  0
    0.9018   17.9667   -3.4299 H   0  0  0  0  0  0  0  0  0  0  0  0
   -0.2231   16.3867    0.3107 H   0  0  0  0  0  0  0  0  0  0  0  0
   -1.3032   16.9687   -1.0013 H   0  0  0  0  0  0  0  0  0  0  0  0
   -0.7262   15.2676   -1.0013 H   0  0  0  0  0  0  0  0  0  0  0  0
    2.2032   15.9792   -2.9522 H   0  0  0  0  0  0  0  0  0  0  0  0
   -0.2070   15.3988   -3.6583 H   0  0  0  0  0  0  0  0  0  0  0  0
    1.1880   14.2445   -3.9915 H   0  0  0  0  0  0  0  0  0  0  0  0
   -1.0545   13.1492   -3.1487 H   0  0  0  0  0  0  0  0  0  0  0  0
    0.9042   14.0917    0.2540 H   0  0  0  0  0  0  0  0  0  0  0  0
    2.4892   11.7192   -0.9098 H   0  0  0  0  0  0  0  0  0  0  0  0
    2.8545   12.6310    0.6219 H   0  0  0  0  0  0  0  0  0  0  0  0
    1.7660   10.4545    1.0653 H   0  0  0  0  0  0  0  0  0  0  0  0
    0.7747   11.8637    1.6106 H   0  0  0  0  0  0  0  0  0  0  0  0
   -0.6718   10.2674    0.5489 H   0  0  0  0  0  0  0  0  0  0  0  0
    1.3800    9.6850   -0.8890 H   0  0  0  0  0  0  0  0  0  0  0  0
   -1.2565   12.3674    1.3956 H   0  0  0  0  0  0  0  0  0  0  0  0
   -1.5009   13.7926    0.3299 H   0  0  0  0  0  0  0  0  0  0  0  0
   -2.6998   12.4549    0.3299 H   0  0  0  0  0  0  0  0  0  0  0  0
   -2.6993   10.9054   -1.0603 H   0  0  0  0  0  0  0  0  0  0  0  0
   -2.3353   12.1607   -2.2926 H   0  0  0  0  0  0  0  0  0  0  0  0
   -1.4258   10.6117   -2.2926 H   0  0  0  0  0  0  0  0  0  0  0  0
    4.0181   13.2774   -1.5285 H   0  0  0  0  0  0  0  0  0  0  0  0
    2.7908   13.0533   -2.8209 H   0  0  0  0  0  0  0  0  0  0  0  0
    3.8391   14.5120   -2.8209 H   0  0  0  0  0  0  0  0  0  0  0  0
    3.2519   14.6683    0.6099 H   0  0  0  0  0  0  0  0  0  0  0  0
    3.9645   15.7030   -0.7528 H   0  0  0  0  0  0  0  0  0  0  0  0
    1.5564   16.3285    0.9774 H   0  0  0  0  0  0  0  0  0  0  0  0
    3.1508   17.1775    0.9123 H   0  0  0  0  0  0  0  0  0  0  0  0
    3.9345   18.2801   -0.9688 H   0  0  0  0  0  0  0  0  0  0  0  0
    3.4575   17.1446   -2.2765 H   0  0  0  0  0  0  0  0  0  0  0  0
    2.8317   18.8284   -2.2765 H   0  0  0  0  0  0  0  0  0  0  0  0
  1  2  1  0
  2  3  1  0
  3  4  1  0
  4  5  1  0
  5  6  1  0
  6  7  1  0
  7  8  1  0
  7  9  1  0
  2 10  1  0
 10 11  1  0
 11 12  1  0
 12 13  1  0
 13 14  1  1
 13 15  1  0
 15 16  1  0
 16 17  1  0
 17 18  2  0
 18 19  1  0
 19 20  1  0
 20 21  1  0
 21 22  1  0
 22 23  1  0
 22 24  1  0
 24 25  1  0
 24 26  1  0
 19 27  1  0
 27 28  1  6
 27 29  1  0
 29 30  1  0
 30 31  1  0
 31 32  1  6
  7  5  1  0
 31 10  1  0
 31 13  1  0
 27 15  1  0
 24 18  1  0
  1 33  1  0
  1 34  1  0
  1 35  1  0
  2 36  1  1
  3 37  1  0
  3 38  1  0
  4 39  1  0
  4 40  1  0
  5 41  1  1
  8 42  1  0
  8 43  1  0
  8 44  1  0
  9 45  1  0
  9 46  1  0
  9 47  1  0
 10 48  1  1
 11 49  1  0
 11 50  1  0
 12 51  1  0
 12 52  1  0
 14 53  1  0
 14 54  1  0
 14 55  1  0
 15 56  1  6
 16 57  1  0
 16 58  1  0
 17 59  1  0
 19 60  1  1
 20 61  1  0
 20 62  1  0
 21 63  1  0
 21 64  1  0
 22 65  1  1
 23 66  1  0
 25 67  1  0
 25 68  1  0
 25 69  1  0
 26 70  1  0
 26 71  1  0
 26 72  1  0
 28 73  1  0
 28 74  1  0
 28 75  1  0
 29 76  1  0
 29 77  1  0
 30 78  1  0
 30 79  1  0
 32 80  1  0
 32 81  1  0
 32 82  1  0
M  END
>  <meeko>  (14) 
{"is_sidechain": [false], "intermolecular_energy": 2.731, "internal_energy": -0.839}

$$$$
EPH_relaxed_0001_pdb2pqr_Repair_174_r2_0001_out
     RDKit          3D

 82 86  0  0  0  0  0  0  0  0999 V2000
    0.0890    7.8980   -2.3180 C   0  0  0  0  0  0  0  0  0  0  0  0
   -1.2830    8.3430   -1.8040 C   0  0  2  0  0  0  0  0  0  0  0  0
   -2.4350    7.7750   -2.6570 C   0  0  0  0  0  0  0  0  0  0  0  0
   -3.6610    7.3610   -1.8380 C   0  0  0  0  0  0  0  0  0  0  0  0
   -4.6790    6.6550   -2.6820 C   0  0  2  0  0  0  0  0  0  0  0  0
   -5.2570    7.4580   -3.7190 O   0  0  0  0  0  0  0  0  0  0  0  0
   -6.1530    7.0120   -2.6880 C   0  0  0  0  0  0  0  0  0  0  0  0
   -6.6930    8.1150   -1.8320 C   0  0  0  0  0  0  0  0  0  0  0  0
   -7.1370    5.9820   -3.1480 C   0  0  0  0  0  0  0  0  0  0  0  0
   -1.3580    9.8650   -1.7750 C   0  0  1  0  0  0  0  0  0  0  0  0
   -2.8020   10.3880   -1.5480 C   0  0  0  0  0  0  0  0  0  0  0  0
   -2.6820   11.6770   -0.6950 C   0  0  0  0  0  0  0  0  0  0  0  0
   -1.1780   12.0360   -0.7400 C   0  0  1  0  0  0  0  0  0  0  0  0
   -0.9820   12.7690   -2.1040 C   0  0  0  0  0  0  0  0  0  0  0  0
   -0.6340   12.8850    0.4550 C   0  0  2  0  0  0  0  0  0  0  0  0
   -1.2590   14.2830    0.6000 C   0  0  0  0  0  0  0  0  0  0  0  0
   -0.5540   15.3770   -0.1320 C   0  0  0  0  0  0  0  0  0  0  0  0
    0.6900   15.3010   -0.6410 C   0  0  0  0  0  0  0  0  0  0  0  0
    1.5590   14.0570   -0.4170 C   0  0  1  0  0  0  0  0  0  0  0  0
    2.9850   14.4920    0.0130 C   0  0  0  0  0  0  0  0  0  0  0  0
    3.6160   15.4760   -0.9670 C   0  0  0  0  0  0  0  0  0  0  0  0
    2.7520   16.7250   -1.1190 C   0  0  2  0  0  0  0  0  0  0  0  0
    2.7530   17.4400    0.1210 O   0  0  0  0  0  0  0  0  0  0  0  0
    1.2890   16.4110   -1.5400 C   0  0  0  0  0  0  0  0  0  0  0  0
    1.2650   15.9140   -3.0060 C   0  0  0  0  0  0  0  0  0  0  0  0
    0.4900   17.7420   -1.5190 C   0  0  0  0  0  0  0  0  0  0  0  0
    0.9450   12.9460    0.5400 C   0  0  1  0  0  0  0  0  0  0  0  0
    1.2990   13.2680    2.0240 C   0  0  0  0  0  0  0  0  0  0  0  0
    1.6160   11.5600    0.2140 C   0  0  0  0  0  0  0  0  0  0  0  0
    0.9610   10.7140   -0.8950 C   0  0  0  0  0  0  0  0  0  0  0  0
   -0.5500   10.5970   -0.6740 C   0  0  2  0  0  0  0  0  0  0  0  0
   -0.7780    9.8430    0.6800 C   0  0  0  0  0  0  0  0  0  0  0  0
    0.7487    7.6840   -1.4642 H   0  0  0  0  0  0  0  0  0  0  0  0
   -0.0251    6.9908   -2.9295 H   0  0  0  0  0  0  0  0  0  0  0  0
    0.5291    8.6995   -2.9295 H   0  0  0  0  0  0  0  0  0  0  0  0
   -1.3997    7.9452   -0.7851 H   0  0  0  0  0  0  0  0  0  0  0  0
   -2.7439    8.5444   -3.3799 H   0  0  0  0  0  0  0  0  0  0  0  0
   -2.0544    6.8670   -3.1475 H   0  0  0  0  0  0  0  0  0  0  0  0
   -3.3391    6.6877   -1.0299 H   0  0  0  0  0  0  0  0  0  0  0  0
   -4.1250    8.2716   -1.4311 H   0  0  0  0  0  0  0  0  0  0  0  0
   -4.1526    5.6972   -2.5576 H   0  0  0  0  0  0  0  0  0  0  0  0
   -6.5645    7.8525   -0.7715 H   0  0  0  0  0  0  0  0  0  0  0  0
   -6.1490    9.0464   -2.0477 H   0  0  0  0  0  0  0  0  0  0  0  0
   -7.7623    8.2566   -2.0477 H   0  0  0  0  0  0  0  0  0  0  0  0
   -7.5982    5.4993   -2.2738 H   0  0  0  0  0  0  0  0  0  0  0  0
   -7.9174    6.4653   -3.7541 H   0  0  0  0  0  0  0  0  0  0  0  0
   -6.6185    5.2245   -3.7541 H   0  0  0  0  0  0  0  0  0  0  0  0
   -0.9333   10.0887   -2.7648 H   0  0  0  0  0  0  0  0  0  0  0  0
   -3.2786   10.6154   -2.5130 H   0  0  0  0  0  0  0  0  0  0  0  0
   -3.4198    9.6336   -1.0389 H   0  0  0  0  0  0  0  0  0  0  0  0
   -3.2877   12.4869   -1.1278 H   0  0  0  0  0  0  0  0  0  0  0  0
   -3.0458   11.5324    0.3330 H   0  0  0  0  0  0  0  0  0  0  0  0
   -0.7018   13.8167   -1.9203 H   0  0  0  0  0  0  0  0  0  0  0  0
   -0.1854   12.2714   -2.6765 H   0  0  0  0  0  0  0  0  0  0  0  0
   -1.9207   12.7354   -2.6765 H   0  0  0  0  0  0  0  0  0  0  0  0
   -0.9791   12.3120    1.3282 H   0  0  0  0  0  0  0  0  0  0  0  0
   -2.2919   14.2339    0.2248 H   0  0  0  0  0  0  0  0  0  0  0  0
   -1.1892   14.5378    1.6678 H   0  0  0  0  0  0  0  0  0  0  0  0
   -1.0966   16.3244   -0.2666 H   0  0  0  0  0  0  0  0  0  0  0  0
    1.6036   13.5382   -1.3860 H   0  0  0  0  0  0  0  0  0  0  0  0
    2.9250   14.9690    1.0024 H   0  0  0  0  0  0  0  0  0  0  0  0
    3.6165   13.5916    0.0357 H   0  0  0  0  0  0  0  0  0  0  0  0
    4.6088   15.7683   -0.5944 H   0  0  0  0  0  0  0  0  0  0  0  0
    3.7019   14.9872   -1.9487 H   0  0  0  0  0  0  0  0  0  0  0  0
    3.1875   17.3307   -1.9274 H   0  0  0  0  0  0  0  0  0  0  0  0
    2.2570   16.9090    0.7670 H   0  0  0  0  0  0  0  0  0  0  0  0
    1.2119   14.8154   -3.0199 H   0  0  0  0  0  0  0  0  0  0  0  0
    0.3859   16.3301   -3.5199 H   0  0  0  0  0  0  0  0  0  0  0  0
    2.1801   16.2434   -3.5199 H   0  0  0  0  0  0  0  0  0  0  0  0
    0.3085   18.0443   -0.4770 H   0  0  0  0  0  0  0  0  0  0  0  0
    1.0677   18.5246   -2.0325 H   0  0  0  0  0  0  0  0  0  0  0  0
   -0.4724   17.6001   -2.0325 H   0  0  0  0  0  0  0  0  0  0  0  0
    0.6521   12.6796    2.6913 H   0  0  0  0  0  0  0  0  0  0  0  0
    2.3517   13.0114    2.2138 H   0  0  0  0  0  0  0  0  0  0  0  0
    1.1430   14.3402    2.2138 H   0  0  0  0  0  0  0  0  0  0  0  0
    2.6555   11.7564   -0.0875 H   0  0  0  0  0  0  0  0  0  0  0  0
    1.5067   10.9645    1.1324 H   0  0  0  0  0  0  0  0  0  0  0  0
    1.1465   11.1910   -1.8687 H   0  0  0  0  0  0  0  0  0  0  0  0
    1.3984    9.7050   -0.8714 H   0  0  0  0  0  0  0  0  0  0  0  0
   -0.5719   10.5246    1.5184 H   0  0  0  0  0  0  0  0  0  0  0  0
   -1.8208    9.4974    0.7362 H   0  0  0  0  0  0  0  0  0  0  0  0
   -0.1014    8.9775    0.7362 H   0  0  0  0  0  0  0  0  0  0  0  0
  1  2  1  0
  2  3  1  0
  3  4  1  0
  4  5  1  0
  5  6  1  0
  6  7  1  0
  7  8  1  0
  7  9  1  0
  2 10  1  0
 10 11  1  0
 11 12  1  0
 12 13  1  0
 13 14  1  6
 13 15  1  0
 15 16  1  0
 16 17  1  0
 17 18  2  0
 18 19  1  0
 19 20  1  0
 20 21  1  0
 21 22  1  0
 22 23  1  0
 22 24  1  0
 24 25  1  0
 24 26  1  0
 19 27  1  0
 27 28  1  1
 27 29  1  0
 29 30  1  0
 30 31  1  0
 31 32  1  1
  7  5  1  0
 31 10  1  0
 31 13  1  0
 27 15  1  0
 24 18  1  0
  1 33  1  0
  1 34  1  0
  1 35  1  0
  2 36  1  1
  3 37  1  0
  3 38  1  0
  4 39  1  0
  4 40  1  0
  5 41  1  6
  8 42  1  0
  8 43  1  0
  8 44  1  0
  9 45  1  0
  9 46  1  0
  9 47  1  0
 10 48  1  6
 11 49  1  0
 11 50  1  0
 12 51  1  0
 12 52  1  0
 14 53  1  0
 14 54  1  0
 14 55  1  0
 15 56  1  1
 16 57  1  0
 16 58  1  0
 17 59  1  0
 19 60  1  6
 20 61  1  0
 20 62  1  0
 21 63  1  0
 21 64  1  0
 22 65  1  6
 23 66  1  0
 25 67  1  0
 25 68  1  0
 25 69  1  0
 26 70  1  0
 26 71  1  0
 26 72  1  0
 28 73  1  0
 28 74  1  0
 28 75  1  0
 29 76  1  0
 29 77  1  0
 30 78  1  0
 30 79  1  0
 32 80  1  0
 32 81  1  0
 32 82  1  0
M  END
>  <meeko>  (15) 
{"is_sidechain": [false], "intermolecular_energy": 2.731, "internal_energy": -0.839}

$$$$
EPH_relaxed_0001_pdb2pqr_Repair_174_r2_0001_out
     RDKit          3D

 82 86  0  0  0  0  0  0  0  0999 V2000
   -0.3390    9.3990   -4.1580 C   0  0  0  0  0  0  0  0  0  0  0  0
   -0.1580    9.6110   -2.6530 C   0  0  2  0  0  0  0  0  0  0  0  0
   -0.9650    8.5940   -1.8220 C   0  0  0  0  0  0  0  0  0  0  0  0
   -2.4650    8.6000   -2.1300 C   0  0  0  0  0  0  0  0  0  0  0  0
   -2.9190    7.2890   -2.6980 C   0  0  2  0  0  0  0  0  0  0  0  0
   -3.9550    7.3910   -3.6840 O   0  0  0  0  0  0  0  0  0  0  0  0
   -4.3030    6.7110   -2.4670 C   0  0  0  0  0  0  0  0  0  0  0  0
   -5.3200    7.4310   -1.6380 C   0  0  0  0  0  0  0  0  0  0  0  0
   -4.5000    5.2370   -2.6350 C   0  0  0  0  0  0  0  0  0  0  0  0
   -0.5640   11.0310   -2.2750 C   0  0  1  0  0  0  0  0  0  0  0  0
   -1.7340   11.0670   -1.2560 C   0  0  0  0  0  0  0  0  0  0  0  0
   -1.4840   12.2850   -0.3310 C   0  0  0  0  0  0  0  0  0  0  0  0
   -0.3770   13.0960   -1.0430 C   0  0  1  0  0  0  0  0  0  0  0  0
   -1.1240   13.9210   -2.1380 C   0  0  0  0  0  0  0  0  0  0  0  0
    0.5050   14.0110   -0.1320 C   0  0  2  0  0  0  0  0  0  0  0  0
   -0.2550   15.1360    0.5920 C   0  0  0  0  0  0  0  0  0  0  0  0
   -0.3360   16.4300   -0.1490 C   0  0  0  0  0  0  0  0  0  0  0  0
    0.4160   16.7710   -1.2120 C   0  0  0  0  0  0  0  0  0  0  0  0
    1.5340   15.8490   -1.7140 C   0  0  1  0  0  0  0  0  0  0  0  0
    2.8160   16.6830   -1.9720 C   0  0  0  0  0  0  0  0  0  0  0  0
    2.5680   17.8620   -2.9080 C   0  0  0  0  0  0  0  0  0  0  0  0
    1.4910   18.7870   -2.3460 C   0  0  2  0  0  0  0  0  0  0  0  0
    1.9880   19.4040   -1.1550 O   0  0  0  0  0  0  0  0  0  0  0  0
    0.1550   18.0550   -2.0380 C   0  0  0  0  0  0  0  0  0  0  0  0
   -0.5340   17.6490   -3.3640 C   0  0  0  0  0  0  0  0  0  0  0  0
   -0.7960   19.0690   -1.3460 C   0  0  0  0  0  0  0  0  0  0  0  0
    1.8140   14.5560   -0.8340 C   0  0  1  0  0  0  0  0  0  0  0  0
    2.8220   14.8970    0.3070 C   0  0  0  0  0  0  0  0  0  0  0  0
    2.5110   13.4650   -1.7300 C   0  0  0  0  0  0  0  0  0  0  0  0
    1.5860   12.5140   -2.5130 C   0  0  0  0  0  0  0  0  0  0  0  0
    0.5090   11.9210   -1.5990 C   0  0  2  0  0  0  0  0  0  0  0  0
    1.2300   11.0680   -0.5010 C   0  0  0  0  0  0  0  0  0  0  0  0
   -1.0445    8.5727   -4.3297 H   0  0  0  0  0  0  0  0  0  0  0  0
   -0.7344   10.3192   -4.6130 H   0  0  0  0  0  0  0  0  0  0  0  0
    0.6318    9.1528   -4.6130 H   0  0  0  0  0  0  0  0  0  0  0  0
    0.9063    9.4549   -2.4230 H   0  0  0  0  0  0  0  0  0  0  0  0
   -0.5721    7.5874   -2.0281 H   0  0  0  0  0  0  0  0  0  0  0  0
   -0.8524    8.8802   -0.7659 H   0  0  0  0  0  0  0  0  0  0  0  0
   -3.0191    8.7969   -1.2004 H   0  0  0  0  0  0  0  0  0  0  0  0
   -2.6587    9.3834   -2.8775 H   0  0  0  0  0  0  0  0  0  0  0  0
   -1.9122    6.8620   -2.5796 H   0  0  0  0  0  0  0  0  0  0  0  0
   -5.1003    7.2755   -0.5714 H   0  0  0  0  0  0  0  0  0  0  0  0
   -5.2846    8.5064   -1.8666 H   0  0  0  0  0  0  0  0  0  0  0  0
   -6.3225    7.0403   -1.8666 H   0  0  0  0  0  0  0  0  0  0  0  0
   -4.5637    4.7605   -1.6456 H   0  0  0  0  0  0  0  0  0  0  0  0
   -5.4308    5.0525   -3.1914 H   0  0  0  0  0  0  0  0  0  0  0  0
   -3.6503    4.8146   -3.1914 H   0  0  0  0  0  0  0  0  0  0  0  0
   -0.8061   11.4253   -3.2730 H   0  0  0  0  0  0  0  0  0  0  0  0
   -2.6923   11.1824   -1.7835 H   0  0  0  0  0  0  0  0  0  0  0  0
   -1.7813   10.1336   -0.6759 H   0  0  0  0  0  0  0  0  0  0  0  0
   -2.3989   12.8865   -0.2255 H   0  0  0  0  0  0  0  0  0  0  0  0
   -1.1912   11.9832    0.6855 H   0  0  0  0  0  0  0  0  0  0  0  0
   -1.7876   14.6539   -1.6559 H   0  0  0  0  0  0  0  0  0  0  0  0
   -0.3896   14.4480   -2.7648 H   0  0  0  0  0  0  0  0  0  0  0  0
   -1.7211   13.2423   -2.7648 H   0  0  0  0  0  0  0  0  0  0  0  0
    0.8319   13.3160    0.6555 H   0  0  0  0  0  0  0  0  0  0  0  0
   -1.2811   14.7869    0.7798 H   0  0  0  0  0  0  0  0  0  0  0  0
    0.3136   15.3458    1.5099 H   0  0  0  0  0  0  0  0  0  0  0  0
   -1.0726   17.1669    0.2038 H   0  0  0  0  0  0  0  0  0  0  0  0
    1.1719   15.4189   -2.6595 H   0  0  0  0  0  0  0  0  0  0  0  0
    3.1858   17.0680   -1.0102 H   0  0  0  0  0  0  0  0  0  0  0  0
    3.5525   16.0231   -2.4538 H   0  0  0  0  0  0  0  0  0  0  0  0
    3.5028   18.4291   -3.0283 H   0  0  0  0  0  0  0  0  0  0  0  0
    2.2262   17.4740   -3.8789 H   0  0  0  0  0  0  0  0  0  0  0  0
    1.2661   19.5383   -3.1174 H   0  0  0  0  0  0  0  0  0  0  0  0
    2.6390   20.0750   -1.4200 H   0  0  0  0  0  0  0  0  0  0  0  0
   -1.4623   17.1020   -3.1424 H   0  0  0  0  0  0  0  0  0  0  0  0
   -0.7706   18.5521   -3.9458 H   0  0  0  0  0  0  0  0  0  0  0  0
    0.1414   17.0045   -3.9458 H   0  0  0  0  0  0  0  0  0  0  0  0
   -0.7044   18.9713   -0.2542 H   0  0  0  0  0  0  0  0  0  0  0  0
   -0.5235   20.0914   -1.6468 H   0  0  0  0  0  0  0  0  0  0  0  0
   -1.8337   18.8626   -1.6468 H   0  0  0  0  0  0  0  0  0  0  0  0
    2.3404   14.7341    1.2825 H   0  0  0  0  0  0  0  0  0  0  0  0
    3.7059   14.2479    0.2215 H   0  0  0  0  0  0  0  0  0  0  0  0
    3.1303   15.9494    0.2215 H   0  0  0  0  0  0  0  0  0  0  0  0
    3.1443   13.9895   -2.4607 H   0  0  0  0  0  0  0  0  0  0  0  0
    3.0567   12.8201   -1.0256 H   0  0  0  0  0  0  0  0  0  0  0  0
    1.1000   13.0732   -3.3261 H   0  0  0  0  0  0  0  0  0  0  0  0
    2.1922   11.6915   -2.9203 H   0  0  0  0  0  0  0  0  0  0  0  0
    0.9294   11.4236    0.4956 H   0  0  0  0  0  0  0  0  0  0  0  0
    0.9475   10.0109   -0.6137 H   0  0  0  0  0  0  0  0  0  0  0  0
    2.3194   11.1705   -0.6137 H   0  0  0  0  0  0  0  0  0  0  0  0
  1  2  1  0
  2  3  1  0
  3  4  1  0
  4  5  1  0
  5  6  1  0
  6  7  1  0
  7  8  1  0
  7  9  1  0
  2 10  1  0
 10 11  1  0
 11 12  1  0
 12 13  1  0
 13 14  1  6
 13 15  1  0
 15 16  1  0
 16 17  1  0
 17 18  2  0
 18 19  1  0
 19 20  1  0
 20 21  1  0
 21 22  1  0
 22 23  1  0
 22 24  1  0
 24 25  1  0
 24 26  1  0
 19 27  1  0
 27 28  1  1
 27 29  1  0
 29 30  1  0
 30 31  1  0
 31 32  1  1
  7  5  1  0
 31 10  1  0
 31 13  1  0
 27 15  1  0
 24 18  1  0
  1 33  1  0
  1 34  1  0
  1 35  1  0
  2 36  1  6
  3 37  1  0
  3 38  1  0
  4 39  1  0
  4 40  1  0
  5 41  1  6
  8 42  1  0
  8 43  1  0
  8 44  1  0
  9 45  1  0
  9 46  1  0
  9 47  1  0
 10 48  1  6
 11 49  1  0
 11 50  1  0
 12 51  1  0
 12 52  1  0
 14 53  1  0
 14 54  1  0
 14 55  1  0
 15 56  1  1
 16 57  1  0
 16 58  1  0
 17 59  1  0
 19 60  1  6
 20 61  1  0
 20 62  1  0
 21 63  1  0
 21 64  1  0
 22 65  1  6
 23 66  1  0
 25 67  1  0
 25 68  1  0
 25 69  1  0
 26 70  1  0
 26 71  1  0
 26 72  1  0
 28 73  1  0
 28 74  1  0
 28 75  1  0
 29 76  1  0
 29 77  1  0
 30 78  1  0
 30 79  1  0
 32 80  1  0
 32 81  1  0
 32 82  1  0
M  END
>  <meeko>  (16) 
{"is_sidechain": [false], "intermolecular_energy": 2.731, "internal_energy": -0.839}

$$$$
