EPH_relaxed_0001_pdb2pqr_Repair_32_r2_0001_out
     RDKit          3D

 82 86  0  0  0  0  0  0  0  0999 V2000
   -1.7130    8.5750   -1.8650 C   0  0  0  0  0  0  0  0  0  0  0  0
   -2.1020    9.1040   -0.4820 C   0  0  2  0  0  0  0  0  0  0  0  0
   -3.5960    9.4750   -0.4020 C   0  0  0  0  0  0  0  0  0  0  0  0
   -4.5230    8.2670   -0.2390 C   0  0  0  0  0  0  0  0  0  0  0  0
   -5.2160    7.9240   -1.5230 C   0  0  2  0  0  0  0  0  0  0  0  0
   -6.3240    8.7730   -1.8500 O   0  0  0  0  0  0  0  0  0  0  0  0
   -6.6370    7.3950   -1.5900 C   0  0  0  0  0  0  0  0  0  0  0  0
   -7.4480    7.1770   -0.3520 C   0  0  0  0  0  0  0  0  0  0  0  0
   -7.0590    6.6330   -2.8080 C   0  0  0  0  0  0  0  0  0  0  0  0
   -1.2450   10.3140   -0.1290 C   0  0  1  0  0  0  0  0  0  0  0  0
   -0.2220   10.0120    0.9990 C   0  0  0  0  0  0  0  0  0  0  0  0
    1.0510   10.8390    0.6810 C   0  0  0  0  0  0  0  0  0  0  0  0
    0.6060   11.8320   -0.4190 C   0  0  1  0  0  0  0  0  0  0  0  0
   -0.1060   12.9890    0.3500 C   0  0  0  0  0  0  0  0  0  0  0  0
    1.7330   12.3720   -1.3590 C   0  0  2  0  0  0  0  0  0  0  0  0
    2.8310   13.1900   -0.6580 C   0  0  0  0  0  0  0  0  0  0  0  0
    2.5800   14.6600   -0.5810 C   0  0  0  0  0  0  0  0  0  0  0  0
    1.6630   15.3350   -1.2980 C   0  0  0  0  0  0  0  0  0  0  0  0
    0.8250   14.6280   -2.3710 C   0  0  1  0  0  0  0  0  0  0  0  0
    0.8080   15.4870   -3.6630 C   0  0  0  0  0  0  0  0  0  0  0  0
    0.3420   16.9170   -3.4090 C   0  0  0  0  0  0  0  0  0  0  0  0
    1.2340   17.6060   -2.3790 C   0  0  2  0  0  0  0  0  0  0  0  0
    2.5400   17.7730   -2.9390 O   0  0  0  0  0  0  0  0  0  0  0  0
    1.3370   16.8270   -1.0380 C   0  0  0  0  0  0  0  0  0  0  0  0
   -0.0150   16.9050   -0.2860 C   0  0  0  0  0  0  0  0  0  0  0  0
    2.3750   17.5540   -0.1420 C   0  0  0  0  0  0  0  0  0  0  0  0
    1.1990   13.1090   -2.6530 C   0  0  1  0  0  0  0  0  0  0  0  0
    2.3390   13.0300   -3.7130 C   0  0  0  0  0  0  0  0  0  0  0  0
   -0.0470   12.3820   -3.2850 C   0  0  0  0  0  0  0  0  0  0  0  0
   -1.0630   11.7660   -2.3050 C   0  0  0  0  0  0  0  0  0  0  0  0
   -0.3570   10.9080   -1.2500 C   0  0  2  0  0  0  0  0  0  0  0  0
    0.3510    9.7230   -1.9920 C   0  0  0  0  0  0  0  0  0  0  0  0
   -1.0648    7.6935   -1.7514 H   0  0  0  0  0  0  0  0  0  0  0  0
   -2.6209    8.2936   -2.4186 H   0  0  0  0  0  0  0  0  0  0  0  0
   -1.1738    9.3578   -2.4186 H   0  0  0  0  0  0  0  0  0  0  0  0
   -1.9230    8.2971    0.2439 H   0  0  0  0  0  0  0  0  0  0  0  0
   -3.7421   10.1434    0.4593 H   0  0  0  0  0  0  0  0  0  0  0  0
   -3.8592    9.9554   -1.3559 H   0  0  0  0  0  0  0  0  0  0  0  0
   -3.9272    7.4017    0.0870 H   0  0  0  0  0  0  0  0  0  0  0  0
   -5.2897    8.5209    0.5078 H   0  0  0  0  0  0  0  0  0  0  0  0
   -4.2739    7.5670   -1.9646 H   0  0  0  0  0  0  0  0  0  0  0  0
   -6.8179    7.3464    0.5336 H   0  0  0  0  0  0  0  0  0  0  0  0
   -8.2943    7.8795   -0.3397 H   0  0  0  0  0  0  0  0  0  0  0  0
   -7.8281    6.1448   -0.3397 H   0  0  0  0  0  0  0  0  0  0  0  0
   -7.5710    5.7085   -2.5030 H   0  0  0  0  0  0  0  0  0  0  0  0
   -7.7437    7.2505   -3.4079 H   0  0  0  0  0  0  0  0  0  0  0  0
   -6.1723    6.3803   -3.4079 H   0  0  0  0  0  0  0  0  0  0  0  0
   -2.0365   11.0284    0.1414 H   0  0  0  0  0  0  0  0  0  0  0  0
   -0.6341   10.3107    1.9742 H   0  0  0  0  0  0  0  0  0  0  0  0
    0.0069    8.9372    1.0475 H   0  0  0  0  0  0  0  0  0  0  0  0
    1.3968   11.3789    1.5748 H   0  0  0  0  0  0  0  0  0  0  0  0
    1.8900   10.2057    0.3569 H   0  0  0  0  0  0  0  0  0  0  0  0
   -0.0055   12.8257    1.4332 H   0  0  0  0  0  0  0  0  0  0  0  0
    0.3578   13.9490    0.0794 H   0  0  0  0  0  0  0  0  0  0  0  0
   -1.1720   13.0076    0.0794 H   0  0  0  0  0  0  0  0  0  0  0  0
    2.2216   11.4466   -1.6979 H   0  0  0  0  0  0  0  0  0  0  0  0
    2.9358   12.8088    0.3685 H   0  0  0  0  0  0  0  0  0  0  0  0
    3.7381   13.0676   -1.2681 H   0  0  0  0  0  0  0  0  0  0  0  0
    3.1968   15.2401    0.1212 H   0  0  0  0  0  0  0  0  0  0  0  0
   -0.1927   14.5502   -1.9607 H   0  0  0  0  0  0  0  0  0  0  0  0
    1.8254   15.5166   -4.0801 H   0  0  0  0  0  0  0  0  0  0  0  0
    0.0968   15.0235   -4.3626 H   0  0  0  0  0  0  0  0  0  0  0  0
    0.3796   17.4810   -4.3527 H   0  0  0  0  0  0  0  0  0  0  0  0
   -0.6864   16.8875   -3.0196 H   0  0  0  0  0  0  0  0  0  0  0  0
    0.7751   18.5774   -2.1428 H   0  0  0  0  0  0  0  0  0  0  0  0
    2.5790   17.2500   -3.7580 H   0  0  0  0  0  0  0  0  0  0  0  0
    0.1676   16.8945    0.7987 H   0  0  0  0  0  0  0  0  0  0  0  0
   -0.5346   17.8346   -0.5613 H   0  0  0  0  0  0  0  0  0  0  0  0
   -0.6381   16.0413   -0.5613 H   0  0  0  0  0  0  0  0  0  0  0  0
    2.1298   17.3823    0.9165 H   0  0  0  0  0  0  0  0  0  0  0  0
    3.3807   17.1618   -0.3537 H   0  0  0  0  0  0  0  0  0  0  0  0
    2.3502   18.6331   -0.3537 H   0  0  0  0  0  0  0  0  0  0  0  0
    3.3108   12.9627   -3.2020 H   0  0  0  0  0  0  0  0  0  0  0  0
    2.1933   12.1398   -4.3425 H   0  0  0  0  0  0  0  0  0  0  0  0
    2.3175   13.9318   -4.3425 H   0  0  0  0  0  0  0  0  0  0  0  0
   -0.5838   13.1177   -3.9020 H   0  0  0  0  0  0  0  0  0  0  0  0
    0.3692   11.5293   -3.8415 H   0  0  0  0  0  0  0  0  0  0  0  0
   -1.6132   12.5747   -1.8017 H   0  0  0  0  0  0  0  0  0  0  0  0
   -1.7538   11.1254   -2.8728 H   0  0  0  0  0  0  0  0  0  0  0  0
    0.7685    9.0242   -1.2521 H   0  0  0  0  0  0  0  0  0  0  0  0
   -0.3803    9.1959   -2.6223 H   0  0  0  0  0  0  0  0  0  0  0  0
    1.1617   10.1172   -2.6223 H   0  0  0  0  0  0  0  0  0  0  0  0
  1  2  1  0
  2  3  1  0
  3  4  1  0
  4  5  1  0
  5  6  1  0
  6  7  1  0
  7  8  1  0
  7  9  1  0
  2 10  1  0
 10 11  1  0
 11 12  1  0
 12 13  1  0
 13 14  1  1
 13 15  1  0
 15 16  1  0
 16 17  1  0
 17 18  2  0
 18 19  1  0
 19 20  1  0
 20 21  1  0
 21 22  1  0
 22 23  1  0
 22 24  1  0
 24 25  1  0
 24 26  1  0
 19 27  1  0
 27 28  1  6
 27 29  1  0
 29 30  1  0
 30 31  1  0
 31 32  1  6
  7  5  1  0
 31 10  1  0
 31 13  1  0
 27 15  1  0
 24 18  1  0
  1 33  1  0
  1 34  1  0
  1 35  1  0
  2 36  1  1
  3 37  1  0
  3 38  1  0
  4 39  1  0
  4 40  1  0
  5 41  1  6
  8 42  1  0
  8 43  1  0
  8 44  1  0
  9 45  1  0
  9 46  1  0
  9 47  1  0
 10 48  1  1
 11 49  1  0
 11 50  1  0
 12 51  1  0
 12 52  1  0
 14 53  1  0
 14 54  1  0
 14 55  1  0
 15 56  1  6
 16 57  1  0
 16 58  1  0
 17 59  1  0
 19 60  1  1
 20 61  1  0
 20 62  1  0
 21 63  1  0
 21 64  1  0
 22 65  1  1
 23 66  1  0
 25 67  1  0
 25 68  1  0
 25 69  1  0
 26 70  1  0
 26 71  1  0
 26 72  1  0
 28 73  1  0
 28 74  1  0
 28 75  1  0
 29 76  1  0
 29 77  1  0
 30 78  1  0
 30 79  1  0
 32 80  1  0
 32 81  1  0
 32 82  1  0
M  END
>  <meeko>  (1) 
{"is_sidechain": [false], "intermolecular_energy": 2.731, "internal_energy": -0.839}

$$$$
EPH_relaxed_0001_pdb2pqr_Repair_32_r2_0001_out
     RDKit          3D

 82 86  0  0  0  0  0  0  0  0999 V2000
    0.4190   18.3760   -0.0120 C   0  0  0  0  0  0  0  0  0  0  0  0
    1.5070   17.3240   -0.2480 C   0  0  2  0  0  0  0  0  0  0  0  0
    2.7070   17.8960   -1.0280 C   0  0  0  0  0  0  0  0  0  0  0  0
    3.9400   18.1550   -0.1570 C   0  0  0  0  0  0  0  0  0  0  0  0
    3.5610   18.6260    1.2140 C   0  0  2  0  0  0  0  0  0  0  0  0
    3.8080   20.0170    1.4590 O   0  0  0  0  0  0  0  0  0  0  0  0
    4.5700   19.0890    2.2480 C   0  0  0  0  0  0  0  0  0  0  0  0
    6.0380   19.1030    1.9550 C   0  0  0  0  0  0  0  0  0  0  0  0
    4.1780   19.0630    3.6930 C   0  0  0  0  0  0  0  0  0  0  0  0
    0.9220   16.1300   -0.9940 C   0  0  1  0  0  0  0  0  0  0  0  0
    0.7840   16.3880   -2.5180 C   0  0  0  0  0  0  0  0  0  0  0  0
    1.0620   15.0370   -3.2270 C   0  0  0  0  0  0  0  0  0  0  0  0
    1.0230   13.9860   -2.0930 C   0  0  1  0  0  0  0  0  0  0  0  0
   -0.4940   13.6980   -1.8650 C   0  0  0  0  0  0  0  0  0  0  0  0
    1.8300   12.6700   -2.3420 C   0  0  2  0  0  0  0  0  0  0  0  0
    1.3480   11.8260   -3.5350 C   0  0  0  0  0  0  0  0  0  0  0  0
    0.3140   10.7980   -3.2120 C   0  0  0  0  0  0  0  0  0  0  0  0
   -0.0010   10.3670   -1.9760 C   0  0  0  0  0  0  0  0  0  0  0  0
    0.7810   10.8530   -0.7490 C   0  0  1  0  0  0  0  0  0  0  0  0
    1.1380    9.6410    0.1510 C   0  0  0  0  0  0  0  0  0  0  0  0
   -0.0860    8.8130    0.5300 C   0  0  0  0  0  0  0  0  0  0  0  0
   -0.8030    8.2990   -0.7160 C   0  0  2  0  0  0  0  0  0  0  0  0
    0.0450    7.3580   -1.3810 O   0  0  0  0  0  0  0  0  0  0  0  0
   -1.2040    9.4310   -1.7030 C   0  0  0  0  0  0  0  0  0  0  0  0
   -2.3480   10.2760   -1.0900 C   0  0  0  0  0  0  0  0  0  0  0  0
   -1.7900    8.7670   -2.9780 C   0  0  0  0  0  0  0  0  0  0  0  0
    2.0360   11.7810   -1.0490 C   0  0  1  0  0  0  0  0  0  0  0  0
    3.2970   10.9020   -1.3100 C   0  0  0  0  0  0  0  0  0  0  0  0
    2.3530   12.6460    0.2270 C   0  0  0  0  0  0  0  0  0  0  0  0
    1.6130   13.9910    0.3570 C   0  0  0  0  0  0  0  0  0  0  0  0
    1.7150   14.8000   -0.9400 C   0  0  2  0  0  0  0  0  0  0  0  0
    3.2290   15.1250   -1.1830 C   0  0  0  0  0  0  0  0  0  0  0  0
    0.2734   18.5168    1.0692 H   0  0  0  0  0  0  0  0  0  0  0  0
    0.7254   19.3290   -0.4679 H   0  0  0  0  0  0  0  0  0  0  0  0
   -0.5232   18.0377   -0.4679 H   0  0  0  0  0  0  0  0  0  0  0  0
    1.8763   17.0023    0.7369 H   0  0  0  0  0  0  0  0  0  0  0  0
    2.9826   17.1795   -1.8159 H   0  0  0  0  0  0  0  0  0  0  0  0
    2.3917   18.8676   -1.4362 H   0  0  0  0  0  0  0  0  0  0  0  0
    4.5153   17.2217   -0.0670 H   0  0  0  0  0  0  0  0  0  0  0  0
    4.5394   18.9428   -0.6367 H   0  0  0  0  0  0  0  0  0  0  0  0
    2.7365   17.8993    1.2613 H   0  0  0  0  0  0  0  0  0  0  0  0
    6.6005   19.1084    2.9003 H   0  0  0  0  0  0  0  0  0  0  0  0
    6.3046   18.2074    1.3747 H   0  0  0  0  0  0  0  0  0  0  0  0
    6.2875   20.0036    1.3747 H   0  0  0  0  0  0  0  0  0  0  0  0
    5.0806   19.1229    4.3189 H   0  0  0  0  0  0  0  0  0  0  0  0
    3.5233   19.9197    3.9108 H   0  0  0  0  0  0  0  0  0  0  0  0
    3.6422   18.1273    3.9108 H   0  0  0  0  0  0  0  0  0  0  0  0
   -0.0300   16.0226   -0.4535 H   0  0  0  0  0  0  0  0  0  0  0  0
   -0.2325   16.7369   -2.7527 H   0  0  0  0  0  0  0  0  0  0  0  0
    1.4895   17.1626   -2.8531 H   0  0  0  0  0  0  0  0  0  0  0  0
    0.2870   14.8262   -3.9786 H   0  0  0  0  0  0  0  0  0  0  0  0
    2.0226   15.0370   -3.7629 H   0  0  0  0  0  0  0  0  0  0  0  0
   -0.7015   13.6586   -0.7855 H   0  0  0  0  0  0  0  0  0  0  0  0
   -1.0923   14.4986   -2.3244 H   0  0  0  0  0  0  0  0  0  0  0  0
   -0.7573   12.7338   -2.3244 H   0  0  0  0  0  0  0  0  0  0  0  0
    2.8217   13.0510   -2.6271 H   0  0  0  0  0  0  0  0  0  0  0  0
    0.9251   12.5093   -4.2861 H   0  0  0  0  0  0  0  0  0  0  0  0
    2.2285   11.2710   -3.8910 H   0  0  0  0  0  0  0  0  0  0  0  0
   -0.2368   10.3556   -4.0551 H   0  0  0  0  0  0  0  0  0  0  0  0
    0.1063   11.5333   -0.2087 H   0  0  0  0  0  0  0  0  0  0  0  0
    1.8460    8.9963   -0.3904 H   0  0  0  0  0  0  0  0  0  0  0  0
    1.5766   10.0331    1.0804 H   0  0  0  0  0  0  0  0  0  0  0  0
    0.2340    7.9559    1.1407 H   0  0  0  0  0  0  0  0  0  0  0  0
   -0.7801    9.4509    1.0969 H   0  0  0  0  0  0  0  0  0  0  0  0
   -1.7392    7.8251   -0.3859 H   0  0  0  0  0  0  0  0  0  0  0  0
    0.6110    7.8560   -1.9960 H   0  0  0  0  0  0  0  0  0  0  0  0
   -2.2887   10.2322    0.0075 H   0  0  0  0  0  0  0  0  0  0  0  0
   -2.2503   11.3204   -1.4211 H   0  0  0  0  0  0  0  0  0  0  0  0
   -3.3176    9.8756   -1.4211 H   0  0  0  0  0  0  0  0  0  0  0  0
   -2.4920    7.9715   -2.6875 H   0  0  0  0  0  0  0  0  0  0  0  0
   -2.3200    9.5238   -3.5750 H   0  0  0  0  0  0  0  0  0  0  0  0
   -0.9732    8.3352   -3.5750 H   0  0  0  0  0  0  0  0  0  0  0  0
    3.7360   10.5960   -0.3489 H   0  0  0  0  0  0  0  0  0  0  0  0
    3.0087   10.0081   -1.8826 H   0  0  0  0  0  0  0  0  0  0  0  0
    4.0359   11.4817   -1.8826 H   0  0  0  0  0  0  0  0  0  0  0  0
    2.1006   12.0408    1.1102 H   0  0  0  0  0  0  0  0  0  0  0  0
    3.4169   12.9108    0.1377 H   0  0  0  0  0  0  0  0  0  0  0  0
    0.5529   13.7986    0.5788 H   0  0  0  0  0  0  0  0  0  0  0  0
    2.0771   14.5699    1.1691 H   0  0  0  0  0  0  0  0  0  0  0  0
    3.7404   15.2348   -0.2153 H   0  0  0  0  0  0  0  0  0  0  0  0
    3.6931   14.3060   -1.7521 H   0  0  0  0  0  0  0  0  0  0  0  0
    3.3161   16.0623   -1.7521 H   0  0  0  0  0  0  0  0  0  0  0  0
  1  2  1  0
  2  3  1  0
  3  4  1  0
  4  5  1  0
  5  6  1  0
  6  7  1  0
  7  8  1  0
  7  9  1  0
  2 10  1  0
 10 11  1  0
 11 12  1  0
 12 13  1  0
 13 14  1  1
 13 15  1  0
 15 16  1  0
 16 17  1  0
 17 18  2  0
 18 19  1  0
 19 20  1  0
 20 21  1  0
 21 22  1  0
 22 23  1  0
 22 24  1  0
 24 25  1  0
 24 26  1  0
 19 27  1  0
 27 28  1  6
 27 29  1  0
 29 30  1  0
 30 31  1  0
 31 32  1  6
  7  5  1  0
 31 10  1  0
 31 13  1  0
 27 15  1  0
 24 18  1  0
  1 33  1  0
  1 34  1  0
  1 35  1  0
  2 36  1  1
  3 37  1  0
  3 38  1  0
  4 39  1  0
  4 40  1  0
  5 41  1  1
  8 42  1  0
  8 43  1  0
  8 44  1  0
  9 45  1  0
  9 46  1  0
  9 47  1  0
 10 48  1  1
 11 49  1  0
 11 50  1  0
 12 51  1  0
 12 52  1  0
 14 53  1  0
 14 54  1  0
 14 55  1  0
 15 56  1  6
 16 57  1  0
 16 58  1  0
 17 59  1  0
 19 60  1  1
 20 61  1  0
 20 62  1  0
 21 63  1  0
 21 64  1  0
 22 65  1  1
 23 66  1  0
 25 67  1  0
 25 68  1  0
 25 69  1  0
 26 70  1  0
 26 71  1  0
 26 72  1  0
 28 73  1  0
 28 74  1  0
 28 75  1  0
 29 76  1  0
 29 77  1  0
 30 78  1  0
 30 79  1  0
 32 80  1  0
 32 81  1  0
 32 82  1  0
M  END
>  <meeko>  (2) 
{"is_sidechain": [false], "intermolecular_energy": 2.731, "internal_energy": -0.839}

$$$$
EPH_relaxed_0001_pdb2pqr_Repair_32_r2_0001_out
     RDKit          3D

 82 86  0  0  0  0  0  0  0  0999 V2000
    2.4640   18.0260   -2.7080 C   0  0  0  0  0  0  0  0  0  0  0  0
    1.1580   17.6710   -1.9930 C   0  0  2  0  0  0  0  0  0  0  0  0
    1.2980   17.7360   -0.4590 C   0  0  0  0  0  0  0  0  0  0  0  0
    0.9860   19.1140    0.1300 C   0  0  0  0  0  0  0  0  0  0  0  0
   -0.4540   19.2330    0.5280 C   0  0  2  0  0  0  0  0  0  0  0  0
   -1.3220   18.2580   -0.0640 O   0  0  0  0  0  0  0  0  0  0  0  0
   -1.5590   19.6260   -0.4350 C   0  0  0  0  0  0  0  0  0  0  0  0
   -1.2710   19.9250   -1.8720 C   0  0  0  0  0  0  0  0  0  0  0  0
   -2.8270   20.1910    0.1240 C   0  0  0  0  0  0  0  0  0  0  0  0
    0.6950   16.2820   -2.4160 C   0  0  1  0  0  0  0  0  0  0  0  0
    0.7940   16.0600   -3.9490 C   0  0  0  0  0  0  0  0  0  0  0  0
    1.1790   14.5730   -4.1620 C   0  0  0  0  0  0  0  0  0  0  0  0
    0.9650   13.9130   -2.7790 C   0  0  1  0  0  0  0  0  0  0  0  0
   -0.5690   13.6350   -2.7010 C   0  0  0  0  0  0  0  0  0  0  0  0
    1.8000   12.6230   -2.4930 C   0  0  2  0  0  0  0  0  0  0  0  0
    1.5090   11.4350   -3.4270 C   0  0  0  0  0  0  0  0  0  0  0  0
    0.4370   10.5060   -2.9610 C   0  0  0  0  0  0  0  0  0  0  0  0
   -0.0660   10.4540   -1.7140 C   0  0  0  0  0  0  0  0  0  0  0  0
    0.5170   11.3250   -0.5930 C   0  0  1  0  0  0  0  0  0  0  0  0
    0.7300   10.4590    0.6770 C   0  0  0  0  0  0  0  0  0  0  0  0
   -0.5370    9.7270    1.1060 C   0  0  0  0  0  0  0  0  0  0  0  0
   -1.0530    8.8280   -0.0140 C   0  0  2  0  0  0  0  0  0  0  0  0
   -0.1120    7.7710   -0.2270 O   0  0  0  0  0  0  0  0  0  0  0  0
   -1.2960    9.5880   -1.3480 C   0  0  0  0  0  0  0  0  0  0  0  0
   -2.5210   10.5240   -1.1980 C   0  0  0  0  0  0  0  0  0  0  0  0
   -1.6780    8.5430   -2.4310 C   0  0  0  0  0  0  0  0  0  0  0  0
    1.8030   12.1760   -0.9740 C   0  0  1  0  0  0  0  0  0  0  0  0
    3.0900   11.3200   -0.7650 C   0  0  0  0  0  0  0  0  0  0  0  0
    1.9190   13.4010    0.0090 C   0  0  0  0  0  0  0  0  0  0  0  0
    1.1680   14.6850   -0.3900 C   0  0  0  0  0  0  0  0  0  0  0  0
    1.4700   15.0690   -1.8420 C   0  0  2  0  0  0  0  0  0  0  0  0
    3.0030   15.3760   -1.9470 C   0  0  0  0  0  0  0  0  0  0  0  0
    3.2443   18.2381   -1.9623 H   0  0  0  0  0  0  0  0  0  0  0  0
    2.7787   17.1808   -3.3378 H   0  0  0  0  0  0  0  0  0  0  0  0
    2.3075   18.9142   -3.3378 H   0  0  0  0  0  0  0  0  0  0  0  0
    0.4067   18.4189   -2.2867 H   0  0  0  0  0  0  0  0  0  0  0  0
    0.6063   17.0044   -0.0159 H   0  0  0  0  0  0  0  0  0  0  0  0
    2.3496   17.5163   -0.2228 H   0  0  0  0  0  0  0  0  0  0  0  0
    1.6157   19.2732    1.0178 H   0  0  0  0  0  0  0  0  0  0  0  0
    1.1928   19.8713   -0.6405 H   0  0  0  0  0  0  0  0  0  0  0  0
   -0.1719   19.6118    1.5215 H   0  0  0  0  0  0  0  0  0  0  0  0
   -0.5092   20.7159   -1.9364 H   0  0  0  0  0  0  0  0  0  0  0  0
   -0.8991   19.0164   -2.3682 H   0  0  0  0  0  0  0  0  0  0  0  0
   -2.1929   20.2626   -2.3682 H   0  0  0  0  0  0  0  0  0  0  0  0
   -2.7838   20.1718    1.2230 H   0  0  0  0  0  0  0  0  0  0  0  0
   -2.9491   21.2287   -0.2200 H   0  0  0  0  0  0  0  0  0  0  0  0
   -3.6802   19.5879   -0.2200 H   0  0  0  0  0  0  0  0  0  0  0  0
   -0.3292   16.2990   -2.0150 H   0  0  0  0  0  0  0  0  0  0  0  0
   -0.1742   16.2726   -4.4258 H   0  0  0  0  0  0  0  0  0  0  0  0
    1.5425   16.7298   -4.3975 H   0  0  0  0  0  0  0  0  0  0  0  0
    0.5299   14.1083   -4.9188 H   0  0  0  0  0  0  0  0  0  0  0  0
    2.2110   14.4569   -4.5246 H   0  0  0  0  0  0  0  0  0  0  0  0
   -0.8783   13.5789   -1.6469 H   0  0  0  0  0  0  0  0  0  0  0  0
   -1.1150   14.4488   -3.2006 H   0  0  0  0  0  0  0  0  0  0  0  0
   -0.7947   12.6813   -3.2006 H   0  0  0  0  0  0  0  0  0  0  0  0
    2.8231   12.9477   -2.7333 H   0  0  0  0  0  0  0  0  0  0  0  0
    1.2084   11.8375   -4.4056 H   0  0  0  0  0  0  0  0  0  0  0  0
    2.4339   10.8404   -3.4609 H   0  0  0  0  0  0  0  0  0  0  0  0
    0.0231    9.8043   -3.7001 H   0  0  0  0  0  0  0  0  0  0  0  0
   -0.2325   12.1047   -0.3922 H   0  0  0  0  0  0  0  0  0  0  0  0
    1.5134    9.7153    0.4692 H   0  0  0  0  0  0  0  0  0  0  0  0
    1.0188   11.1339    1.4962 H   0  0  0  0  0  0  0  0  0  0  0  0
   -0.3149    9.1102    1.9893 H   0  0  0  0  0  0  0  0  0  0  0  0
   -1.3104   10.4726    1.3423 H   0  0  0  0  0  0  0  0  0  0  0  0
   -2.0293    8.4332    0.3037 H   0  0  0  0  0  0  0  0  0  0  0  0
   -0.5790    7.0480   -0.6800 H   0  0  0  0  0  0  0  0  0  0  0  0
   -2.7312   10.6846   -0.1303 H   0  0  0  0  0  0  0  0  0  0  0  0
   -2.3056   11.4897   -1.6786 H   0  0  0  0  0  0  0  0  0  0  0  0
   -3.3962   10.0624   -1.6786 H   0  0  0  0  0  0  0  0  0  0  0  0
   -2.0166    7.6168   -1.9436 H   0  0  0  0  0  0  0  0  0  0  0  0
   -2.4876    8.9443   -3.0583 H   0  0  0  0  0  0  0  0  0  0  0  0
   -0.8005    8.3276   -3.0583 H   0  0  0  0  0  0  0  0  0  0  0  0
    3.2768   11.1957    0.3119 H   0  0  0  0  0  0  0  0  0  0  0  0
    2.9530   10.3325   -1.2297 H   0  0  0  0  0  0  0  0  0  0  0  0
    3.9478   11.8281   -1.2297 H   0  0  0  0  0  0  0  0  0  0  0  0
    1.5328   13.0801    0.9877 H   0  0  0  0  0  0  0  0  0  0  0  0
    2.9840   13.6763    0.0014 H   0  0  0  0  0  0  0  0  0  0  0  0
    0.0864   14.5181   -0.2796 H   0  0  0  0  0  0  0  0  0  0  0  0
    1.5006   15.5035    0.2654 H   0  0  0  0  0  0  0  0  0  0  0  0
    3.4299   15.4615   -0.9368 H   0  0  0  0  0  0  0  0  0  0  0  0
    3.5040   14.5604   -2.4890 H   0  0  0  0  0  0  0  0  0  0  0  0
    3.1513   16.3217   -2.4890 H   0  0  0  0  0  0  0  0  0  0  0  0
  1  2  1  0
  2  3  1  0
  3  4  1  0
  4  5  1  0
  5  6  1  0
  6  7  1  0
  7  8  1  0
  7  9  1  0
  2 10  1  0
 10 11  1  0
 11 12  1  0
 12 13  1  0
 13 14  1  1
 13 15  1  0
 15 16  1  0
 16 17  1  0
 17 18  2  0
 18 19  1  0
 19 20  1  0
 20 21  1  0
 21 22  1  0
 22 23  1  0
 22 24  1  0
 24 25  1  0
 24 26  1  0
 19 27  1  0
 27 28  1  6
 27 29  1  0
 29 30  1  0
 30 31  1  0
 31 32  1  1
  7  5  1  0
 31 10  1  0
 31 13  1  0
 27 15  1  0
 24 18  1  0
  1 33  1  0
  1 34  1  0
  1 35  1  0
  2 36  1  6
  3 37  1  0
  3 38  1  0
  4 39  1  0
  4 40  1  0
  5 41  1  1
  8 42  1  0
  8 43  1  0
  8 44  1  0
  9 45  1  0
  9 46  1  0
  9 47  1  0
 10 48  1  1
 11 49  1  0
 11 50  1  0
 12 51  1  0
 12 52  1  0
 14 53  1  0
 14 54  1  0
 14 55  1  0
 15 56  1  6
 16 57  1  0
 16 58  1  0
 17 59  1  0
 19 60  1  1
 20 61  1  0
 20 62  1  0
 21 63  1  0
 21 64  1  0
 22 65  1  1
 23 66  1  0
 25 67  1  0
 25 68  1  0
 25 69  1  0
 26 70  1  0
 26 71  1  0
 26 72  1  0
 28 73  1  0
 28 74  1  0
 28 75  1  0
 29 76  1  0
 29 77  1  0
 30 78  1  0
 30 79  1  0
 32 80  1  0
 32 81  1  0
 32 82  1  0
M  END
>  <meeko>  (3) 
{"is_sidechain": [false], "intermolecular_energy": 2.731, "internal_energy": -0.839}

$$$$
EPH_relaxed_0001_pdb2pqr_Repair_32_r2_0001_out
     RDKit          3D

 82 86  0  0  0  0  0  0  0  0999 V2000
    4.2070   17.5710   -0.0470 C   0  0  0  0  0  0  0  0  0  0  0  0
    2.7970   18.1640   -0.1200 C   0  0  2  0  0  0  0  0  0  0  0  0
    2.5160   19.1370    1.0430 C   0  0  0  0  0  0  0  0  0  0  0  0
    3.7740   19.8040    1.6050 C   0  0  0  0  0  0  0  0  0  0  0  0
    4.2140   19.1650    2.8880 C   0  0  2  0  0  0  0  0  0  0  0  0
    4.4630   20.0840    3.9600 O   0  0  0  0  0  0  0  0  0  0  0  0
    5.5990   19.3460    3.4800 C   0  0  0  0  0  0  0  0  0  0  0  0
    6.6330   20.1910    2.8040 C   0  0  0  0  0  0  0  0  0  0  0  0
    6.1030   18.3200    4.4470 C   0  0  0  0  0  0  0  0  0  0  0  0
    1.7620   17.0450   -0.1250 C   0  0  1  0  0  0  0  0  0  0  0  0
    0.3340   17.5540   -0.4560 C   0  0  0  0  0  0  0  0  0  0  0  0
   -0.3630   16.4350   -1.2710 C   0  0  0  0  0  0  0  0  0  0  0  0
    0.5530   15.2000   -1.1000 C   0  0  1  0  0  0  0  0  0  0  0  0
    0.1660   14.6030    0.2900 C   0  0  0  0  0  0  0  0  0  0  0  0
    0.4800   14.1240   -2.2310 C   0  0  2  0  0  0  0  0  0  0  0  0
   -0.8900   13.4440   -2.3980 C   0  0  0  0  0  0  0  0  0  0  0  0
   -1.0900   12.2040   -1.5920 C   0  0  0  0  0  0  0  0  0  0  0  0
   -0.1150   11.4990   -0.9880 C   0  0  0  0  0  0  0  0  0  0  0  0
    1.3600   11.8800   -1.1670 C   0  0  1  0  0  0  0  0  0  0  0  0
    2.1900   10.6060   -1.4740 C   0  0  0  0  0  0  0  0  0  0  0  0
    1.9930    9.5130   -0.4280 C   0  0  0  0  0  0  0  0  0  0  0  0
    0.5220    9.1200   -0.3210 C   0  0  2  0  0  0  0  0  0  0  0  0
    0.1220    8.4910   -1.5420 O   0  0  0  0  0  0  0  0  0  0  0  0
   -0.4140   10.3250   -0.0230 C   0  0  0  0  0  0  0  0  0  0  0  0
   -0.1830   10.8170    1.4280 C   0  0  0  0  0  0  0  0  0  0  0  0
   -1.8800    9.8170   -0.0800 C   0  0  0  0  0  0  0  0  0  0  0  0
    1.6510   13.0600   -2.1900 C   0  0  1  0  0  0  0  0  0  0  0  0
    1.7860   12.4900   -3.6360 C   0  0  0  0  0  0  0  0  0  0  0  0
    3.0410   13.7130   -1.8400 C   0  0  0  0  0  0  0  0  0  0  0  0
    3.0310   14.8530   -0.8030 C   0  0  0  0  0  0  0  0  0  0  0  0
    1.9620   15.8960   -1.1440 C   0  0  2  0  0  0  0  0  0  0  0  0
    2.3370   16.5300   -2.5270 C   0  0  0  0  0  0  0  0  0  0  0  0
    4.4990   17.4482    1.0064 H   0  0  0  0  0  0  0  0  0  0  0  0
    4.2192   16.5915   -0.5475 H   0  0  0  0  0  0  0  0  0  0  0  0
    4.9156   18.2473   -0.5475 H   0  0  0  0  0  0  0  0  0  0  0  0
    2.7273   18.7385   -1.0555 H   0  0  0  0  0  0  0  0  0  0  0  0
    1.8378   19.9239    0.6813 H   0  0  0  0  0  0  0  0  0  0  0  0
    2.0748   18.5447    1.8582 H   0  0  0  0  0  0  0  0  0  0  0  0
    4.5845   19.7159    0.8665 H   0  0  0  0  0  0  0  0  0  0  0  0
    3.5405   20.8592    1.8097 H   0  0  0  0  0  0  0  0  0  0  0  0
    3.6143   18.2679    2.6746 H   0  0  0  0  0  0  0  0  0  0  0  0
    7.2490   20.6944    3.5637 H   0  0  0  0  0  0  0  0  0  0  0  0
    7.2733   19.5544    2.1757 H   0  0  0  0  0  0  0  0  0  0  0  0
    6.1366   20.9453    2.1757 H   0  0  0  0  0  0  0  0  0  0  0  0
    5.9311   18.6699    5.4756 H   0  0  0  0  0  0  0  0  0  0  0  0
    5.5680   17.3722    4.2879 H   0  0  0  0  0  0  0  0  0  0  0  0
    7.1802   18.1641    4.2879 H   0  0  0  0  0  0  0  0  0  0  0  0
    1.8943   16.6670    0.8995 H   0  0  0  0  0  0  0  0  0  0  0  0
   -0.2230   17.7493    0.4723 H   0  0  0  0  0  0  0  0  0  0  0  0
    0.3725   18.4929   -1.0278 H   0  0  0  0  0  0  0  0  0  0  0  0
   -1.3676   16.2318   -0.8715 H   0  0  0  0  0  0  0  0  0  0  0  0
   -0.4988   16.7108   -2.3272 H   0  0  0  0  0  0  0  0  0  0  0  0
    0.5773   15.2375    1.0889 H   0  0  0  0  0  0  0  0  0  0  0  0
   -0.9296   14.5640    0.3801 H   0  0  0  0  0  0  0  0  0  0  0  0
    0.5777   13.5869    0.3801 H   0  0  0  0  0  0  0  0  0  0  0  0
    0.6271   14.7270   -3.1391 H   0  0  0  0  0  0  0  0  0  0  0  0
   -1.6659   14.1673   -2.1068 H   0  0  0  0  0  0  0  0  0  0  0  0
   -0.9489   13.1341   -3.4518 H   0  0  0  0  0  0  0  0  0  0  0  0
   -2.1205   11.8351   -1.4822 H   0  0  0  0  0  0  0  0  0  0  0  0
    1.6818   12.3123   -0.2080 H   0  0  0  0  0  0  0  0  0  0  0  0
    1.8844   10.2141   -2.4553 H   0  0  0  0  0  0  0  0  0  0  0  0
    3.2528   10.8896   -1.4643 H   0  0  0  0  0  0  0  0  0  0  0  0
    2.5818    8.6294   -0.7152 H   0  0  0  0  0  0  0  0  0  0  0  0
    2.3262    9.8963    0.5477 H   0  0  0  0  0  0  0  0  0  0  0  0
    0.4265    8.4302    0.5305 H   0  0  0  0  0  0  0  0  0  0  0  0
   -0.6950    8.9240   -1.8430 H   0  0  0  0  0  0  0  0  0  0  0  0
   -0.5411   10.0543    2.1352 H   0  0  0  0  0  0  0  0  0  0  0  0
    0.8910   10.9913    1.5895 H   0  0  0  0  0  0  0  0  0  0  0  0
   -0.7350   11.7547    1.5895 H   0  0  0  0  0  0  0  0  0  0  0  0
   -2.2622    9.6846    0.9429 H   0  0  0  0  0  0  0  0  0  0  0  0
   -2.5023   10.5519   -0.6117 H   0  0  0  0  0  0  0  0  0  0  0  0
   -1.9142    8.8546   -0.6117 H   0  0  0  0  0  0  0  0  0  0  0  0
    2.0393   11.4207   -3.5865 H   0  0  0  0  0  0  0  0  0  0  0  0
    0.8330   12.6167   -4.1705 H   0  0  0  0  0  0  0  0  0  0  0  0
    2.5809   13.0307   -4.1705 H   0  0  0  0  0  0  0  0  0  0  0  0
    3.6948   12.9172   -1.4536 H   0  0  0  0  0  0  0  0  0  0  0  0
    3.3848   14.1778   -2.7758 H   0  0  0  0  0  0  0  0  0  0  0  0
    2.8194   14.4329    0.1914 H   0  0  0  0  0  0  0  0  0  0  0  0
    4.0153   15.3440   -0.8125 H   0  0  0  0  0  0  0  0  0  0  0  0
    2.8908   17.4662   -2.3631 H   0  0  0  0  0  0  0  0  0  0  0  0
    2.9648   15.8272   -3.0944 H   0  0  0  0  0  0  0  0  0  0  0  0
    1.4187   16.7417   -3.0944 H   0  0  0  0  0  0  0  0  0  0  0  0
  1  2  1  0
  2  3  1  0
  3  4  1  0
  4  5  1  0
  5  6  1  0
  6  7  1  0
  7  8  1  0
  7  9  1  0
  2 10  1  0
 10 11  1  0
 11 12  1  0
 12 13  1  0
 13 14  1  1
 13 15  1  0
 15 16  1  0
 16 17  1  0
 17 18  2  0
 18 19  1  0
 19 20  1  0
 20 21  1  0
 21 22  1  0
 22 23  1  0
 22 24  1  0
 24 25  1  0
 24 26  1  0
 19 27  1  0
 27 28  1  6
 27 29  1  0
 29 30  1  0
 30 31  1  0
 31 32  1  6
  7  5  1  0
 31 10  1  0
 31 13  1  0
 27 15  1  0
 24 18  1  0
  1 33  1  0
  1 34  1  0
  1 35  1  0
  2 36  1  6
  3 37  1  0
  3 38  1  0
  4 39  1  0
  4 40  1  0
  5 41  1  1
  8 42  1  0
  8 43  1  0
  8 44  1  0
  9 45  1  0
  9 46  1  0
  9 47  1  0
 10 48  1  1
 11 49  1  0
 11 50  1  0
 12 51  1  0
 12 52  1  0
 14 53  1  0
 14 54  1  0
 14 55  1  0
 15 56  1  6
 16 57  1  0
 16 58  1  0
 17 59  1  0
 19 60  1  1
 20 61  1  0
 20 62  1  0
 21 63  1  0
 21 64  1  0
 22 65  1  1
 23 66  1  0
 25 67  1  0
 25 68  1  0
 25 69  1  0
 26 70  1  0
 26 71  1  0
 26 72  1  0
 28 73  1  0
 28 74  1  0
 28 75  1  0
 29 76  1  0
 29 77  1  0
 30 78  1  0
 30 79  1  0
 32 80  1  0
 32 81  1  0
 32 82  1  0
M  END
>  <meeko>  (4) 
{"is_sidechain": [false], "intermolecular_energy": 2.731, "internal_energy": -0.839}

$$$$
EPH_relaxed_0001_pdb2pqr_Repair_32_r2_0001_out
     RDKit          3D

 82 86  0  0  0  0  0  0  0  0999 V2000
    2.2260   17.9530   -2.5850 C   0  0  0  0  0  0  0  0  0  0  0  0
    0.7030   17.8020   -2.6390 C   0  0  2  0  0  0  0  0  0  0  0  0
    0.0270   18.2700   -1.3340 C   0  0  0  0  0  0  0  0  0  0  0  0
    0.7870   17.8680   -0.0680 C   0  0  0  0  0  0  0  0  0  0  0  0
    1.2850   19.0650    0.6840 C   0  0  2  0  0  0  0  0  0  0  0  0
    2.1620   19.9180   -0.0630 O   0  0  0  0  0  0  0  0  0  0  0  0
    2.7370   19.2610    1.0780 C   0  0  0  0  0  0  0  0  0  0  0  0
    3.7830   18.2470    0.7340 C   0  0  0  0  0  0  0  0  0  0  0  0
    3.0520   20.1860    2.2110 C   0  0  0  0  0  0  0  0  0  0  0  0
    0.3340   16.3500   -2.9240 C   0  0  1  0  0  0  0  0  0  0  0  0
    0.4200   15.9980   -4.4330 C   0  0  0  0  0  0  0  0  0  0  0  0
    0.9070   14.5290   -4.5230 C   0  0  0  0  0  0  0  0  0  0  0  0
    0.7670   13.9830   -3.0820 C   0  0  1  0  0  0  0  0  0  0  0  0
   -0.7410   13.6070   -2.9410 C   0  0  0  0  0  0  0  0  0  0  0  0
    1.6990   12.7860   -2.7030 C   0  0  2  0  0  0  0  0  0  0  0  0
    1.4760   11.5020   -3.5200 C   0  0  0  0  0  0  0  0  0  0  0  0
    0.4830   10.5450   -2.9470 C   0  0  0  0  0  0  0  0  0  0  0  0
    0.0090   10.5710   -1.6880 C   0  0  0  0  0  0  0  0  0  0  0  0
    0.5480   11.5780   -0.6640 C   0  0  1  0  0  0  0  0  0  0  0  0
    0.8470   10.8490    0.6720 C   0  0  0  0  0  0  0  0  0  0  0  0
   -0.3570   10.0710    1.1960 C   0  0  0  0  0  0  0  0  0  0  0  0
   -0.8270    9.0400    0.1730 C   0  0  2  0  0  0  0  0  0  0  0  0
    0.1830    8.0370    0.0320 O   0  0  0  0  0  0  0  0  0  0  0  0
   -1.1490    9.6580   -1.2160 C   0  0  0  0  0  0  0  0  0  0  0  0
   -2.4360   10.5150   -1.1200 C   0  0  0  0  0  0  0  0  0  0  0  0
   -1.4750    8.4950   -2.1920 C   0  0  0  0  0  0  0  0  0  0  0  0
    1.7620   12.4800   -1.1520 C   0  0  1  0  0  0  0  0  0  0  0  0
    3.1110   11.7390   -0.8990 C   0  0  0  0  0  0  0  0  0  0  0  0
    1.8080   13.7940   -0.2840 C   0  0  0  0  0  0  0  0  0  0  0  0
    0.9590   14.9810   -0.7770 C   0  0  0  0  0  0  0  0  0  0  0  0
    1.2050   15.2520   -2.2640 C   0  0  2  0  0  0  0  0  0  0  0  0
    2.7100   15.6550   -2.4340 C   0  0  0  0  0  0  0  0  0  0  0  0
    2.5543   17.9855   -1.5356 H   0  0  0  0  0  0  0  0  0  0  0  0
    2.6975   17.0972   -3.0903 H   0  0  0  0  0  0  0  0  0  0  0  0
    2.5202   18.8847   -3.0903 H   0  0  0  0  0  0  0  0  0  0  0  0
    0.3353   18.4457   -3.4516 H   0  0  0  0  0  0  0  0  0  0  0  0
   -0.0518   19.3669   -1.3580 H   0  0  0  0  0  0  0  0  0  0  0  0
   -0.9562   17.7790   -1.2878 H   0  0  0  0  0  0  0  0  0  0  0  0
    0.1138   17.2922    0.5841 H   0  0  0  0  0  0  0  0  0  0  0  0
    1.6570   17.2652   -0.3675 H   0  0  0  0  0  0  0  0  0  0  0  0
    0.3502   19.1212    1.2610 H   0  0  0  0  0  0  0  0  0  0  0  0
    4.2103   17.8327    1.6591 H   0  0  0  0  0  0  0  0  0  0  0  0
    3.3285   17.4367    0.1451 H   0  0  0  0  0  0  0  0  0  0  0  0
    4.5788   18.7264    0.1451 H   0  0  0  0  0  0  0  0  0  0  0  0
    2.8760   19.6693    3.1660 H   0  0  0  0  0  0  0  0  0  0  0  0
    4.1060   20.4949    2.1500 H   0  0  0  0  0  0  0  0  0  0  0  0
    2.4056   21.0739    2.1500 H   0  0  0  0  0  0  0  0  0  0  0  0
   -0.6807   16.3305   -2.4997 H   0  0  0  0  0  0  0  0  0  0  0  0
   -0.5698   16.0983   -4.9023 H   0  0  0  0  0  0  0  0  0  0  0  0
    1.1098   16.6754   -4.9577 H   0  0  0  0  0  0  0  0  0  0  0  0
    0.2791   13.9536   -5.2191 H   0  0  0  0  0  0  0  0  0  0  0  0
    1.9377   14.4533   -4.8997 H   0  0  0  0  0  0  0  0  0  0  0  0
   -1.0044   13.5413   -1.8750 H   0  0  0  0  0  0  0  0  0  0  0  0
   -1.3581   14.3788   -3.4243 H   0  0  0  0  0  0  0  0  0  0  0  0
   -0.9235   12.6359   -3.4243 H   0  0  0  0  0  0  0  0  0  0  0  0
    2.6919   13.1580   -2.9958 H   0  0  0  0  0  0  0  0  0  0  0  0
    1.1282   11.7930   -4.5222 H   0  0  0  0  0  0  0  0  0  0  0  0
    2.4405   10.9731   -3.5244 H   0  0  0  0  0  0  0  0  0  0  0  0
    0.1074    9.7519   -3.6102 H   0  0  0  0  0  0  0  0  0  0  0  0
   -0.2527   12.3172   -0.5142 H   0  0  0  0  0  0  0  0  0  0  0  0
    1.6783   10.1466    0.5121 H   0  0  0  0  0  0  0  0  0  0  0  0
    1.1018   11.6140    1.4202 H   0  0  0  0  0  0  0  0  0  0  0  0
   -0.0750    9.5538    2.1250 H   0  0  0  0  0  0  0  0  0  0  0  0
   -1.1778   10.7787    1.3841 H   0  0  0  0  0  0  0  0  0  0  0  0
   -1.7661    8.6072    0.5481 H   0  0  0  0  0  0  0  0  0  0  0  0
    0.3790    7.6900    0.9180 H   0  0  0  0  0  0  0  0  0  0  0  0
   -2.6871   10.6822   -0.0622 H   0  0  0  0  0  0  0  0  0  0  0  0
   -2.2696   11.4832   -1.6148 H   0  0  0  0  0  0  0  0  0  0  0  0
   -3.2652    9.9881   -1.6148 H   0  0  0  0  0  0  0  0  0  0  0  0
   -1.7279    7.5928   -1.6158 H   0  0  0  0  0  0  0  0  0  0  0  0
   -2.3288    8.7766   -2.8258 H   0  0  0  0  0  0  0  0  0  0  0  0
   -0.5992    8.2918   -2.8258 H   0  0  0  0  0  0  0  0  0  0  0  0
    3.2807   11.6458    0.1838 H   0  0  0  0  0  0  0  0  0  0  0  0
    3.0694   10.7371   -1.3512 H   0  0  0  0  0  0  0  0  0  0  0  0
    3.9342   12.3115   -1.3512 H   0  0  0  0  0  0  0  0  0  0  0  0
    1.4640   13.5364    0.7286 H   0  0  0  0  0  0  0  0  0  0  0  0
    2.8501   14.1413   -0.3418 H   0  0  0  0  0  0  0  0  0  0  0  0
   -0.1056   14.7495   -0.6249 H   0  0  0  0  0  0  0  0  0  0  0  0
    1.2442   15.8768   -0.2058 H   0  0  0  0  0  0  0  0  0  0  0  0
    3.1708   15.7784   -1.4428 H   0  0  0  0  0  0  0  0  0  0  0  0
    3.2401   14.8672   -2.9893 H   0  0  0  0  0  0  0  0  0  0  0  0
    2.7755   16.6023   -2.9893 H   0  0  0  0  0  0  0  0  0  0  0  0
  1  2  1  0
  2  3  1  0
  3  4  1  0
  4  5  1  0
  5  6  1  0
  6  7  1  0
  7  8  1  0
  7  9  1  0
  2 10  1  0
 10 11  1  0
 11 12  1  0
 12 13  1  0
 13 14  1  1
 13 15  1  0
 15 16  1  0
 16 17  1  0
 17 18  2  0
 18 19  1  0
 19 20  1  0
 20 21  1  0
 21 22  1  0
 22 23  1  0
 22 24  1  0
 24 25  1  0
 24 26  1  0
 19 27  1  0
 27 28  1  6
 27 29  1  0
 29 30  1  0
 30 31  1  0
 31 32  1  1
  7  5  1  0
 31 10  1  0
 31 13  1  0
 27 15  1  0
 24 18  1  0
  1 33  1  0
  1 34  1  0
  1 35  1  0
  2 36  1  6
  3 37  1  0
  3 38  1  0
  4 39  1  0
  4 40  1  0
  5 41  1  1
  8 42  1  0
  8 43  1  0
  8 44  1  0
  9 45  1  0
  9 46  1  0
  9 47  1  0
 10 48  1  1
 11 49  1  0
 11 50  1  0
 12 51  1  0
 12 52  1  0
 14 53  1  0
 14 54  1  0
 14 55  1  0
 15 56  1  6
 16 57  1  0
 16 58  1  0
 17 59  1  0
 19 60  1  1
 20 61  1  0
 20 62  1  0
 21 63  1  0
 21 64  1  0
 22 65  1  1
 23 66  1  0
 25 67  1  0
 25 68  1  0
 25 69  1  0
 26 70  1  0
 26 71  1  0
 26 72  1  0
 28 73  1  0
 28 74  1  0
 28 75  1  0
 29 76  1  0
 29 77  1  0
 30 78  1  0
 30 79  1  0
 32 80  1  0
 32 81  1  0
 32 82  1  0
M  END
>  <meeko>  (5) 
{"is_sidechain": [false], "intermolecular_energy": 2.731, "internal_energy": -0.839}

$$$$
EPH_relaxed_0001_pdb2pqr_Repair_32_r2_0001_out
     RDKit          3D

 82 86  0  0  0  0  0  0  0  0999 V2000
   -3.4010    9.2980    0.5180 C   0  0  0  0  0  0  0  0  0  0  0  0
   -2.5710    9.6610   -0.7160 C   0  0  2  0  0  0  0  0  0  0  0  0
   -1.9030    8.4250   -1.3500 C   0  0  0  0  0  0  0  0  0  0  0  0
   -2.8210    7.6450   -2.2940 C   0  0  0  0  0  0  0  0  0  0  0  0
   -4.2570    7.7400   -1.8740 C   0  0  2  0  0  0  0  0  0  0  0  0
   -4.8060    6.5290   -1.3380 O   0  0  0  0  0  0  0  0  0  0  0  0
   -5.3830    6.9950   -2.5680 C   0  0  0  0  0  0  0  0  0  0  0  0
   -5.1210    6.1020   -3.7400 C   0  0  0  0  0  0  0  0  0  0  0  0
   -6.7800    7.5120   -2.4210 C   0  0  0  0  0  0  0  0  0  0  0  0
   -1.5130   10.6930   -0.3450 C   0  0  1  0  0  0  0  0  0  0  0  0
   -0.4100   10.1130    0.5800 C   0  0  0  0  0  0  0  0  0  0  0  0
    0.9170   10.8100    0.1860 C   0  0  0  0  0  0  0  0  0  0  0  0
    0.4850   11.9940   -0.7110 C   0  0  1  0  0  0  0  0  0  0  0  0
    0.0470   13.1120    0.2860 C   0  0  0  0  0  0  0  0  0  0  0  0
    1.5500   12.5130   -1.7300 C   0  0  2  0  0  0  0  0  0  0  0  0
    2.8330   13.0830   -1.1000 C   0  0  0  0  0  0  0  0  0  0  0  0
    2.8050   14.5470   -0.8110 C   0  0  0  0  0  0  0  0  0  0  0  0
    1.9110   15.4250   -1.3030 C   0  0  0  0  0  0  0  0  0  0  0  0
    0.8540   14.9840   -2.3230 C   0  0  1  0  0  0  0  0  0  0  0  0
    0.7970   16.0090   -3.4860 C   0  0  0  0  0  0  0  0  0  0  0  0
    0.5760   17.4370   -2.9960 C   0  0  0  0  0  0  0  0  0  0  0  0
    1.6790   17.8590   -2.0290 C   0  0  2  0  0  0  0  0  0  0  0  0
    2.9150   17.9380   -2.7460 O   0  0  0  0  0  0  0  0  0  0  0  0
    1.8370   16.8950   -0.8210 C   0  0  0  0  0  0  0  0  0  0  0  0
    0.6150   17.0370    0.1210 C   0  0  0  0  0  0  0  0  0  0  0  0
    3.0720   17.3550   -0.0010 C   0  0  0  0  0  0  0  0  0  0  0  0
    0.9680   13.4850   -2.8360 C   0  0  1  0  0  0  0  0  0  0  0  0
    1.9440   13.4110   -4.0510 C   0  0  0  0  0  0  0  0  0  0  0  0
   -0.4370   13.0140   -3.3670 C   0  0  0  0  0  0  0  0  0  0  0  0
   -1.4000   12.3990   -2.3330 C   0  0  0  0  0  0  0  0  0  0  0  0
   -0.6970   11.3220   -1.5020 C   0  0  2  0  0  0  0  0  0  0  0  0
   -0.2650   10.1730   -2.4750 C   0  0  0  0  0  0  0  0  0  0  0  0
   -2.8339    9.5460    1.4273 H   0  0  0  0  0  0  0  0  0  0  0  0
   -4.3427    9.8664    0.5067 H   0  0  0  0  0  0  0  0  0  0  0  0
   -3.6229    8.2207    0.5067 H   0  0  0  0  0  0  0  0  0  0  0  0
   -3.2571   10.0849   -1.4640 H   0  0  0  0  0  0  0  0  0  0  0  0
   -1.0232    8.7596   -1.9192 H   0  0  0  0  0  0  0  0  0  0  0  0
   -1.6372    7.7458   -0.5266 H   0  0  0  0  0  0  0  0  0  0  0  0
   -2.7187    8.0544   -3.3098 H   0  0  0  0  0  0  0  0  0  0  0  0
   -2.5241    6.5862   -2.2643 H   0  0  0  0  0  0  0  0  0  0  0  0
   -4.1309    8.7976   -1.5992 H   0  0  0  0  0  0  0  0  0  0  0  0
   -4.8282    5.1039   -3.3822 H   0  0  0  0  0  0  0  0  0  0  0  0
   -6.0330    6.0200   -4.3496 H   0  0  0  0  0  0  0  0  0  0  0  0
   -4.3093    6.5257   -4.3496 H   0  0  0  0  0  0  0  0  0  0  0  0
   -7.0267    7.6033   -1.3529 H   0  0  0  0  0  0  0  0  0  0  0  0
   -6.8583    8.4986   -2.9010 H   0  0  0  0  0  0  0  0  0  0  0  0
   -7.4817    6.8140   -2.9010 H   0  0  0  0  0  0  0  0  0  0  0  0
   -2.1548   11.4552    0.1209 H   0  0  0  0  0  0  0  0  0  0  0  0
   -0.6498   10.3227    1.6328 H   0  0  0  0  0  0  0  0  0  0  0  0
   -0.3320    9.0218    0.4650 H   0  0  0  0  0  0  0  0  0  0  0  0
    1.4453   11.1728    1.0800 H   0  0  0  0  0  0  0  0  0  0  0  0
    1.6095   10.1278   -0.3288 H   0  0  0  0  0  0  0  0  0  0  0  0
    0.1858   12.7578    1.3181 H   0  0  0  0  0  0  0  0  0  0  0  0
    0.6595   14.0107    0.1213 H   0  0  0  0  0  0  0  0  0  0  0  0
   -1.0130   13.3555    0.1213 H   0  0  0  0  0  0  0  0  0  0  0  0
    1.8549   11.5895   -2.2439 H   0  0  0  0  0  0  0  0  0  0  0  0
    3.0111   12.5529   -0.1528 H   0  0  0  0  0  0  0  0  0  0  0  0
    3.6294   12.9348   -1.8442 H   0  0  0  0  0  0  0  0  0  0  0  0
    3.5809   14.9422   -0.1388 H   0  0  0  0  0  0  0  0  0  0  0  0
   -0.1046   14.9779   -1.7835 H   0  0  0  0  0  0  0  0  0  0  0  0
    1.7473   15.9688   -4.0386 H   0  0  0  0  0  0  0  0  0  0  0  0
   -0.0554   15.7400   -4.1272 H   0  0  0  0  0  0  0  0  0  0  0  0
    0.5748   18.1179   -3.8599 H   0  0  0  0  0  0  0  0  0  0  0  0
   -0.3887   17.4820   -2.4693 H   0  0  0  0  0  0  0  0  0  0  0  0
    1.3967   18.8378   -1.6139 H   0  0  0  0  0  0  0  0  0  0  0  0
    3.6360   17.8400   -2.1010 H   0  0  0  0  0  0  0  0  0  0  0  0
    0.9521   16.9978    1.1673 H   0  0  0  0  0  0  0  0  0  0  0  0
    0.1163   17.9991   -0.0678 H   0  0  0  0  0  0  0  0  0  0  0  0
   -0.0910   16.2149   -0.0678 H   0  0  0  0  0  0  0  0  0  0  0  0
    2.8503   17.2724    1.0733 H   0  0  0  0  0  0  0  0  0  0  0  0
    3.9340   16.7176   -0.2476 H   0  0  0  0  0  0  0  0  0  0  0  0
    3.3070   18.4009   -0.2476 H   0  0  0  0  0  0  0  0  0  0  0  0
    2.9787   13.3326   -3.6859 H   0  0  0  0  0  0  0  0  0  0  0  0
    1.7028   12.5286   -4.6618 H   0  0  0  0  0  0  0  0  0  0  0  0
    1.8386   14.3197   -4.6618 H   0  0  0  0  0  0  0  0  0  0  0  0
   -0.9367   13.8892   -3.8078 H   0  0  0  0  0  0  0  0  0  0  0  0
   -0.2192   12.2019   -4.0762 H   0  0  0  0  0  0  0  0  0  0  0  0
   -1.7619   13.1920   -1.6621 H   0  0  0  0  0  0  0  0  0  0  0  0
   -2.2408   11.9350   -2.8694 H   0  0  0  0  0  0  0  0  0  0  0  0
    0.0628    9.3010   -1.8900 H   0  0  0  0  0  0  0  0  0  0  0  0
   -1.1179    9.8895   -3.1091 H   0  0  0  0  0  0  0  0  0  0  0  0
    0.5635   10.5216   -3.1091 H   0  0  0  0  0  0  0  0  0  0  0  0
  1  2  1  0
  2  3  1  0
  3  4  1  0
  4  5  1  0
  5  6  1  0
  6  7  1  0
  7  8  1  0
  7  9  1  0
  2 10  1  0
 10 11  1  0
 11 12  1  0
 12 13  1  0
 13 14  1  1
 13 15  1  0
 15 16  1  0
 16 17  1  0
 17 18  2  0
 18 19  1  0
 19 20  1  0
 20 21  1  0
 21 22  1  0
 22 23  1  0
 22 24  1  0
 24 25  1  0
 24 26  1  0
 19 27  1  0
 27 28  1  6
 27 29  1  0
 29 30  1  0
 30 31  1  0
 31 32  1  6
  7  5  1  0
 31 10  1  0
 31 13  1  0
 27 15  1  0
 24 18  1  0
  1 33  1  0
  1 34  1  0
  1 35  1  0
  2 36  1  6
  3 37  1  0
  3 38  1  0
  4 39  1  0
  4 40  1  0
  5 41  1  1
  8 42  1  0
  8 43  1  0
  8 44  1  0
  9 45  1  0
  9 46  1  0
  9 47  1  0
 10 48  1  1
 11 49  1  0
 11 50  1  0
 12 51  1  0
 12 52  1  0
 14 53  1  0
 14 54  1  0
 14 55  1  0
 15 56  1  6
 16 57  1  0
 16 58  1  0
 17 59  1  0
 19 60  1  1
 20 61  1  0
 20 62  1  0
 21 63  1  0
 21 64  1  0
 22 65  1  1
 23 66  1  0
 25 67  1  0
 25 68  1  0
 25 69  1  0
 26 70  1  0
 26 71  1  0
 26 72  1  0
 28 73  1  0
 28 74  1  0
 28 75  1  0
 29 76  1  0
 29 77  1  0
 30 78  1  0
 30 79  1  0
 32 80  1  0
 32 81  1  0
 32 82  1  0
M  END
>  <meeko>  (6) 
{"is_sidechain": [false], "intermolecular_energy": 2.731, "internal_energy": -0.839}

$$$$
EPH_relaxed_0001_pdb2pqr_Repair_32_r2_0001_out
     RDKit          3D

 82 86  0  0  0  0  0  0  0  0999 V2000
    3.9220   17.4230    0.3560 C   0  0  0  0  0  0  0  0  0  0  0  0
    2.8650   17.7560   -0.7000 C   0  0  2  0  0  0  0  0  0  0  0  0
    2.2430   19.1500   -0.4810 C   0  0  0  0  0  0  0  0  0  0  0  0
    1.2790   19.2140    0.7060 C   0  0  0  0  0  0  0  0  0  0  0  0
    0.0390   19.9870    0.3730 C   0  0  2  0  0  0  0  0  0  0  0  0
   -0.8520   20.1940    1.4760 O   0  0  0  0  0  0  0  0  0  0  0  0
   -1.3540   19.3860    0.3990 C   0  0  0  0  0  0  0  0  0  0  0  0
   -1.5790   17.9530    0.7680 C   0  0  0  0  0  0  0  0  0  0  0  0
   -2.4340   20.0480   -0.3990 C   0  0  0  0  0  0  0  0  0  0  0  0
    1.7730   16.6920   -0.6960 C   0  0  1  0  0  0  0  0  0  0  0  0
    0.4220   17.2200   -1.2490 C   0  0  0  0  0  0  0  0  0  0  0  0
   -0.2440   16.0410   -2.0040 C   0  0  0  0  0  0  0  0  0  0  0  0
    0.5740   14.7970   -1.5840 C   0  0  1  0  0  0  0  0  0  0  0  0
    0.0010   14.3930   -0.1890 C   0  0  0  0  0  0  0  0  0  0  0  0
    0.5640   13.5950   -2.5830 C   0  0  2  0  0  0  0  0  0  0  0  0
   -0.8170   12.9620   -2.8290 C   0  0  0  0  0  0  0  0  0  0  0  0
   -1.1770   11.8400   -1.9120 C   0  0  0  0  0  0  0  0  0  0  0  0
   -0.3180   11.1710   -1.1200 C   0  0  0  0  0  0  0  0  0  0  0  0
    1.1870   11.4610   -1.1680 C   0  0  1  0  0  0  0  0  0  0  0  0
    1.9710   10.1240   -1.2250 C   0  0  0  0  0  0  0  0  0  0  0  0
    1.5950    9.1770   -0.0900 C   0  0  0  0  0  0  0  0  0  0  0  0
    0.1010    8.8660   -0.1100 C   0  0  2  0  0  0  0  0  0  0  0  0
   -0.1970    8.1110   -1.2880 O   0  0  0  0  0  0  0  0  0  0  0  0
   -0.7900   10.1390   -0.0660 C   0  0  0  0  0  0  0  0  0  0  0  0
   -0.6930   10.7940    1.3330 C   0  0  0  0  0  0  0  0  0  0  0  0
   -2.2680    9.6940   -0.2360 C   0  0  0  0  0  0  0  0  0  0  0  0
    1.6590   12.4930   -2.2810 C   0  0  1  0  0  0  0  0  0  0  0  0
    1.9190   11.7450   -3.6240 C   0  0  0  0  0  0  0  0  0  0  0  0
    3.0370   13.1210   -1.8490 C   0  0  0  0  0  0  0  0  0  0  0  0
    2.9790   14.3780   -0.9600 C   0  0  0  0  0  0  0  0  0  0  0  0
    2.0170   15.4180   -1.5440 C   0  0  2  0  0  0  0  0  0  0  0  0
    2.5800   15.8610   -2.9380 C   0  0  0  0  0  0  0  0  0  0  0  0
    3.4928   17.5582    1.3597 H   0  0  0  0  0  0  0  0  0  0  0  0
    4.2465   16.3791    0.2335 H   0  0  0  0  0  0  0  0  0  0  0  0
    4.7862   18.0924    0.2335 H   0  0  0  0  0  0  0  0  0  0  0  0
    3.3680   17.7694   -1.6782 H   0  0  0  0  0  0  0  0  0  0  0  0
    3.0564   19.8698   -0.3070 H   0  0  0  0  0  0  0  0  0  0  0  0
    1.6589   19.3866   -1.3826 H   0  0  0  0  0  0  0  0  0  0  0  0
    0.9950   18.1899    0.9900 H   0  0  0  0  0  0  0  0  0  0  0  0
    1.7897   19.7261    1.5348 H   0  0  0  0  0  0  0  0  0  0  0  0
    0.5779   20.5675   -0.3903 H   0  0  0  0  0  0  0  0  0  0  0  0
   -1.5945   17.8545    1.8635 H   0  0  0  0  0  0  0  0  0  0  0  0
   -2.5412   17.6150    0.3559 H   0  0  0  0  0  0  0  0  0  0  0  0
   -0.7667   17.3363    0.3559 H   0  0  0  0  0  0  0  0  0  0  0  0
   -3.1698   20.4990    0.2831 H   0  0  0  0  0  0  0  0  0  0  0  0
   -1.9935   20.8314   -1.0332 H   0  0  0  0  0  0  0  0  0  0  0  0
   -2.9322   19.3000   -1.0332 H   0  0  0  0  0  0  0  0  0  0  0  0
    1.7690   16.4370    0.3740 H   0  0  0  0  0  0  0  0  0  0  0  0
   -0.2222   17.5520   -0.4215 H   0  0  0  0  0  0  0  0  0  0  0  0
    0.5779   18.0794   -1.9177 H   0  0  0  0  0  0  0  0  0  0  0  0
   -1.2968   15.9329   -1.7040 H   0  0  0  0  0  0  0  0  0  0  0  0
   -0.2454   16.1910   -3.0937 H   0  0  0  0  0  0  0  0  0  0  0  0
    0.6238   14.8321    0.6043 H   0  0  0  0  0  0  0  0  0  0  0  0
   -1.0298   14.7652   -0.0942 H   0  0  0  0  0  0  0  0  0  0  0  0
    0.0053   13.2971   -0.0942 H   0  0  0  0  0  0  0  0  0  0  0  0
    0.8459   14.0745   -3.5320 H   0  0  0  0  0  0  0  0  0  0  0  0
   -1.5767   13.7496   -2.7169 H   0  0  0  0  0  0  0  0  0  0  0  0
   -0.7774   12.5285   -3.8392 H   0  0  0  0  0  0  0  0  0  0  0  0
   -2.2332   11.5342   -1.8809 H   0  0  0  0  0  0  0  0  0  0  0  0
    1.4238   11.9926   -0.2346 H   0  0  0  0  0  0  0  0  0  0  0  0
    1.7551    9.6291   -2.1834 H   0  0  0  0  0  0  0  0  0  0  0  0
    3.0407   10.3594   -1.1231 H   0  0  0  0  0  0  0  0  0  0  0  0
    2.1592    8.2394   -0.2019 H   0  0  0  0  0  0  0  0  0  0  0  0
    1.8395    9.6618    0.8667 H   0  0  0  0  0  0  0  0  0  0  0  0
   -0.1285    8.2907    0.7990 H   0  0  0  0  0  0  0  0  0  0  0  0
    0.0420    8.6570   -2.0560 H   0  0  0  0  0  0  0  0  0  0  0  0
   -0.8073   10.0219    2.1081 H   0  0  0  0  0  0  0  0  0  0  0  0
    0.2871   11.2812    1.4426 H   0  0  0  0  0  0  0  0  0  0  0  0
   -1.4898   11.5444    1.4426 H   0  0  0  0  0  0  0  0  0  0  0  0
   -2.7257    9.5562    0.7547 H   0  0  0  0  0  0  0  0  0  0  0  0
   -2.8216   10.4653   -0.7916 H   0  0  0  0  0  0  0  0  0  0  0  0
   -2.3037    8.7453   -0.7916 H   0  0  0  0  0  0  0  0  0  0  0  0
    2.2735   10.7253   -3.4131 H   0  0  0  0  0  0  0  0  0  0  0  0
    0.9851   11.6961   -4.2032 H   0  0  0  0  0  0  0  0  0  0  0  0
    2.6818   12.2859   -4.2032 H   0  0  0  0  0  0  0  0  0  0  0  0
    3.5964   12.3499   -1.2990 H   0  0  0  0  0  0  0  0  0  0  0  0
    3.5087   13.4524   -2.7858 H   0  0  0  0  0  0  0  0  0  0  0  0
    2.6340   14.0927    0.0448 H   0  0  0  0  0  0  0  0  0  0  0  0
    3.9853   14.8195   -0.9102 H   0  0  0  0  0  0  0  0  0  0  0  0
    3.4366   16.5350   -2.7901 H   0  0  0  0  0  0  0  0  0  0  0  0
    2.9047   14.9736   -3.5011 H   0  0  0  0  0  0  0  0  0  0  0  0
    1.7939   16.3853   -3.5011 H   0  0  0  0  0  0  0  0  0  0  0  0
  1  2  1  0
  2  3  1  0
  3  4  1  0
  4  5  1  0
  5  6  1  0
  6  7  1  0
  7  8  1  0
  7  9  1  0
  2 10  1  0
 10 11  1  0
 11 12  1  0
 12 13  1  0
 13 14  1  1
 13 15  1  0
 15 16  1  0
 16 17  1  0
 17 18  2  0
 18 19  1  0
 19 20  1  0
 20 21  1  0
 21 22  1  0
 22 23  1  0
 22 24  1  0
 24 25  1  0
 24 26  1  0
 19 27  1  0
 27 28  1  6
 27 29  1  0
 29 30  1  0
 30 31  1  0
 31 32  1  6
  7  5  1  0
 31 10  1  0
 31 13  1  0
 27 15  1  0
 24 18  1  0
  1 33  1  0
  1 34  1  0
  1 35  1  0
  2 36  1  6
  3 37  1  0
  3 38  1  0
  4 39  1  0
  4 40  1  0
  5 41  1  6
  8 42  1  0
  8 43  1  0
  8 44  1  0
  9 45  1  0
  9 46  1  0
  9 47  1  0
 10 48  1  1
 11 49  1  0
 11 50  1  0
 12 51  1  0
 12 52  1  0
 14 53  1  0
 14 54  1  0
 14 55  1  0
 15 56  1  6
 16 57  1  0
 16 58  1  0
 17 59  1  0
 19 60  1  1
 20 61  1  0
 20 62  1  0
 21 63  1  0
 21 64  1  0
 22 65  1  1
 23 66  1  0
 25 67  1  0
 25 68  1  0
 25 69  1  0
 26 70  1  0
 26 71  1  0
 26 72  1  0
 28 73  1  0
 28 74  1  0
 28 75  1  0
 29 76  1  0
 29 77  1  0
 30 78  1  0
 30 79  1  0
 32 80  1  0
 32 81  1  0
 32 82  1  0
M  END
>  <meeko>  (7) 
{"is_sidechain": [false], "intermolecular_energy": 2.731, "internal_energy": -0.839}

$$$$
EPH_relaxed_0001_pdb2pqr_Repair_32_r2_0001_out
     RDKit          3D

 82 86  0  0  0  0  0  0  0  0999 V2000
   -5.0350    6.1050   -1.7410 C   0  0  0  0  0  0  0  0  0  0  0  0
   -5.3930    7.5930   -1.8020 C   0  0  2  0  0  0  0  0  0  0  0  0
   -5.1980    8.2930   -0.4420 C   0  0  0  0  0  0  0  0  0  0  0  0
   -4.0780    9.3370   -0.4420 C   0  0  0  0  0  0  0  0  0  0  0  0
   -2.7570    8.7320   -0.8090 C   0  0  2  0  0  0  0  0  0  0  0  0
   -1.6990    8.9950    0.1230 O   0  0  0  0  0  0  0  0  0  0  0  0
   -1.5390    9.5520   -1.1920 C   0  0  0  0  0  0  0  0  0  0  0  0
   -1.5850   11.0480   -1.2290 C   0  0  0  0  0  0  0  0  0  0  0  0
   -0.4600    8.8970   -1.9970 C   0  0  0  0  0  0  0  0  0  0  0  0
   -6.8320    7.7620   -2.2740 C   0  0  1  0  0  0  0  0  0  0  0  0
   -7.1060    7.0500   -3.6250 C   0  0  0  0  0  0  0  0  0  0  0  0
   -8.5620    6.5210   -3.5650 C   0  0  0  0  0  0  0  0  0  0  0  0
   -9.1820    7.2250   -2.3350 C   0  0  1  0  0  0  0  0  0  0  0  0
   -9.5850    8.6440   -2.8460 C   0  0  0  0  0  0  0  0  0  0  0  0
  -10.3850    6.4940   -1.6540 C   0  0  2  0  0  0  0  0  0  0  0  0
  -11.6290    6.3160   -2.5430 C   0  0  0  0  0  0  0  0  0  0  0  0
  -12.6260    7.4250   -2.4720 C   0  0  0  0  0  0  0  0  0  0  0  0
  -12.6710    8.3770   -1.5210 C   0  0  0  0  0  0  0  0  0  0  0  0
  -11.7100    8.3420   -0.3260 C   0  0  1  0  0  0  0  0  0  0  0  0
  -12.5030    8.5980    0.9830 C   0  0  0  0  0  0  0  0  0  0  0  0
  -13.3220    9.8840    0.9300 C   0  0  0  0  0  0  0  0  0  0  0  0
  -14.3060    9.8560   -0.2370 C   0  0  2  0  0  0  0  0  0  0  0  0
  -15.2870    8.8440    0.0110 O   0  0  0  0  0  0  0  0  0  0  0  0
  -13.6220    9.5960   -1.6090 C   0  0  0  0  0  0  0  0  0  0  0  0
  -12.7880   10.8350   -2.0180 C   0  0  0  0  0  0  0  0  0  0  0  0
  -14.7380    9.4510   -2.6780 C   0  0  0  0  0  0  0  0  0  0  0  0
  -10.7690    7.0660   -0.2300 C   0  0  1  0  0  0  0  0  0  0  0  0
  -11.5040    5.9180    0.5280 C   0  0  0  0  0  0  0  0  0  0  0  0
   -9.5010    7.4260    0.6320 C   0  0  0  0  0  0  0  0  0  0  0  0
   -8.3010    8.0350   -0.1180 C   0  0  0  0  0  0  0  0  0  0  0  0
   -7.9510    7.2060   -1.3580 C   0  0  2  0  0  0  0  0  0  0  0  0
   -7.5200    5.7790   -0.8740 C   0  0  0  0  0  0  0  0  0  0  0  0
   -4.9590    5.7889   -0.6901 H   0  0  0  0  0  0  0  0  0  0  0  0
   -5.8177    5.5186   -2.2445 H   0  0  0  0  0  0  0  0  0  0  0  0
   -4.0712    5.9388   -2.2445 H   0  0  0  0  0  0  0  0  0  0  0  0
   -4.7085    8.0695   -2.5192 H   0  0  0  0  0  0  0  0  0  0  0  0
   -6.1393    8.7935   -0.1709 H   0  0  0  0  0  0  0  0  0  0  0  0
   -4.9125    7.5154    0.2817 H   0  0  0  0  0  0  0  0  0  0  0  0
   -4.3242   10.1241   -1.1699 H   0  0  0  0  0  0  0  0  0  0  0  0
   -3.9953    9.7515    0.5736 H   0  0  0  0  0  0  0  0  0  0  0  0
   -3.2550    7.8798   -1.2945 H   0  0  0  0  0  0  0  0  0  0  0  0
   -1.5971   11.4400   -0.2013 H   0  0  0  0  0  0  0  0  0  0  0  0
   -0.6982   11.4292   -1.7564 H   0  0  0  0  0  0  0  0  0  0  0  0
   -2.4936   11.3740   -1.7564 H   0  0  0  0  0  0  0  0  0  0  0  0
    0.2810    8.4472   -1.3198 H   0  0  0  0  0  0  0  0  0  0  0  0
   -0.9001    8.1135   -2.6314 H   0  0  0  0  0  0  0  0  0  0  0  0
    0.0320    9.6490   -2.6314 H   0  0  0  0  0  0  0  0  0  0  0  0
   -6.8858    8.8601   -2.3097 H   0  0  0  0  0  0  0  0  0  0  0  0
   -6.9953    7.7609   -4.4571 H   0  0  0  0  0  0  0  0  0  0  0  0
   -6.3938    6.2280   -3.7897 H   0  0  0  0  0  0  0  0  0  0  0  0
   -9.1097    6.7862   -4.4814 H   0  0  0  0  0  0  0  0  0  0  0  0
   -8.6048    5.4248   -3.4840 H   0  0  0  0  0  0  0  0  0  0  0  0
   -9.7724    9.3038   -1.9861 H   0  0  0  0  0  0  0  0  0  0  0  0
   -8.7693    9.0594   -3.4560 H   0  0  0  0  0  0  0  0  0  0  0  0
  -10.4973    8.5686   -3.4560 H   0  0  0  0  0  0  0  0  0  0  0  0
   -9.9855    5.4817   -1.4939 H   0  0  0  0  0  0  0  0  0  0  0  0
  -11.2917    6.2281   -3.5863 H   0  0  0  0  0  0  0  0  0  0  0  0
  -12.1443    5.4185   -2.1702 H   0  0  0  0  0  0  0  0  0  0  0  0
  -13.3884    7.4679   -3.2638 H   0  0  0  0  0  0  0  0  0  0  0  0
  -10.9890    9.1562   -0.4913 H   0  0  0  0  0  0  0  0  0  0  0  0
  -13.1855    7.7522    1.1527 H   0  0  0  0  0  0  0  0  0  0  0  0
  -11.7737    8.7006    1.8001 H   0  0  0  0  0  0  0  0  0  0  0  0
  -13.8819    9.9934    1.8705 H   0  0  0  0  0  0  0  0  0  0  0  0
  -12.6356   10.7321    0.7904 H   0  0  0  0  0  0  0  0  0  0  0  0
  -14.7698   10.8514   -0.3013 H   0  0  0  0  0  0  0  0  0  0  0  0
  -14.8290    8.0800    0.4010 H   0  0  0  0  0  0  0  0  0  0  0  0
  -12.4376   11.3556   -1.1146 H   0  0  0  0  0  0  0  0  0  0  0  0
  -11.9219   10.5132   -2.6150 H   0  0  0  0  0  0  0  0  0  0  0  0
  -13.4121   11.5163   -2.6150 H   0  0  0  0  0  0  0  0  0  0  0  0
  -15.7099    9.3247   -2.1786 H   0  0  0  0  0  0  0  0  0  0  0  0
  -14.7632   10.3534   -3.3065 H   0  0  0  0  0  0  0  0  0  0  0  0
  -14.5318    8.5721   -3.3065 H   0  0  0  0  0  0  0  0  0  0  0  0
  -11.4050    6.0726    1.6126 H   0  0  0  0  0  0  0  0  0  0  0  0
  -12.5691    5.9202    0.2530 H   0  0  0  0  0  0  0  0  0  0  0  0
  -11.0563    4.9516    0.2530 H   0  0  0  0  0  0  0  0  0  0  0  0
   -9.8148    8.1484    1.3999 H   0  0  0  0  0  0  0  0  0  0  0  0
   -9.1374    6.4648    1.0243 H   0  0  0  0  0  0  0  0  0  0  0  0
   -8.5536    9.0593   -0.4295 H   0  0  0  0  0  0  0  0  0  0  0  0
   -7.4322    8.0408    0.5566 H   0  0  0  0  0  0  0  0  0  0  0  0
   -7.5118    5.7517    0.2256 H   0  0  0  0  0  0  0  0  0  0  0  0
   -8.2327    5.0322   -1.2540 H   0  0  0  0  0  0  0  0  0  0  0  0
   -6.5131    5.5515   -1.2540 H   0  0  0  0  0  0  0  0  0  0  0  0
  1  2  1  0
  2  3  1  0
  3  4  1  0
  4  5  1  0
  5  6  1  0
  6  7  1  0
  7  8  1  0
  7  9  1  0
  2 10  1  0
 10 11  1  0
 11 12  1  0
 12 13  1  0
 13 14  1  6
 13 15  1  0
 15 16  1  0
 16 17  1  0
 17 18  2  0
 18 19  1  0
 19 20  1  0
 20 21  1  0
 21 22  1  0
 22 23  1  0
 22 24  1  0
 24 25  1  0
 24 26  1  0
 19 27  1  0
 27 28  1  1
 27 29  1  0
 29 30  1  0
 30 31  1  0
 31 32  1  1
  7  5  1  0
 31 10  1  0
 31 13  1  0
 27 15  1  0
 24 18  1  0
  1 33  1  0
  1 34  1  0
  1 35  1  0
  2 36  1  6
  3 37  1  0
  3 38  1  0
  4 39  1  0
  4 40  1  0
  5 41  1  6
  8 42  1  0
  8 43  1  0
  8 44  1  0
  9 45  1  0
  9 46  1  0
  9 47  1  0
 10 48  1  6
 11 49  1  0
 11 50  1  0
 12 51  1  0
 12 52  1  0
 14 53  1  0
 14 54  1  0
 14 55  1  0
 15 56  1  1
 16 57  1  0
 16 58  1  0
 17 59  1  0
 19 60  1  6
 20 61  1  0
 20 62  1  0
 21 63  1  0
 21 64  1  0
 22 65  1  6
 23 66  1  0
 25 67  1  0
 25 68  1  0
 25 69  1  0
 26 70  1  0
 26 71  1  0
 26 72  1  0
 28 73  1  0
 28 74  1  0
 28 75  1  0
 29 76  1  0
 29 77  1  0
 30 78  1  0
 30 79  1  0
 32 80  1  0
 32 81  1  0
 32 82  1  0
M  END
>  <meeko>  (8) 
{"is_sidechain": [false], "intermolecular_energy": 2.731, "internal_energy": -0.839}

$$$$
EPH_relaxed_0001_pdb2pqr_Repair_32_r2_0001_out
     RDKit          3D

 82 86  0  0  0  0  0  0  0  0999 V2000
    0.4350    8.8090   -2.4000 C   0  0  0  0  0  0  0  0  0  0  0  0
    1.1810    9.9550   -3.0890 C   0  0  2  0  0  0  0  0  0  0  0  0
    2.6800    9.9720   -2.7300 C   0  0  0  0  0  0  0  0  0  0  0  0
    3.5670   10.5820   -3.8180 C   0  0  0  0  0  0  0  0  0  0  0  0
    4.9630   10.8200   -3.3270 C   0  0  2  0  0  0  0  0  0  0  0  0
    5.5600   12.0390   -3.7880 O   0  0  0  0  0  0  0  0  0  0  0  0
    6.1800   10.8220   -4.2330 C   0  0  0  0  0  0  0  0  0  0  0  0
    6.0570   10.5800   -5.7050 C   0  0  0  0  0  0  0  0  0  0  0  0
    7.5250   10.5740   -3.6250 C   0  0  0  0  0  0  0  0  0  0  0  0
    0.5410   11.2880   -2.7180 C   0  0  1  0  0  0  0  0  0  0  0  0
   -0.8350   11.1170   -2.0210 C   0  0  0  0  0  0  0  0  0  0  0  0
   -0.9500   12.2550   -0.9740 C   0  0  0  0  0  0  0  0  0  0  0  0
    0.1990   13.2280   -1.3270 C   0  0  1  0  0  0  0  0  0  0  0  0
   -0.3530   14.0880   -2.5070 C   0  0  0  0  0  0  0  0  0  0  0  0
    0.7300   14.1230   -0.1600 C   0  0  2  0  0  0  0  0  0  0  0  0
   -0.3010   15.0980    0.4360 C   0  0  0  0  0  0  0  0  0  0  0  0
   -0.3460   16.4460   -0.2020 C   0  0  0  0  0  0  0  0  0  0  0  0
    0.5950   16.9580   -1.0180 C   0  0  0  0  0  0  0  0  0  0  0  0
    1.8960   16.1940   -1.2950 C   0  0  1  0  0  0  0  0  0  0  0  0
    3.1020   17.1610   -1.1650 C   0  0  0  0  0  0  0  0  0  0  0  0
    2.9550   18.4010   -2.0410 C   0  0  0  0  0  0  0  0  0  0  0  0
    1.6790   19.1650   -1.6960 C   0  0  2  0  0  0  0  0  0  0  0  0
    1.8060   19.7010   -0.3750 O   0  0  0  0  0  0  0  0  0  0  0  0
    0.3980   18.2890   -1.7830 C   0  0  0  0  0  0  0  0  0  0  0  0
    0.0940   17.9580   -3.2650 C   0  0  0  0  0  0  0  0  0  0  0  0
   -0.7980   19.1400   -1.2750 C   0  0  0  0  0  0  0  0  0  0  0  0
    2.1000   14.8500   -0.4720 C   0  0  1  0  0  0  0  0  0  0  0  0
    2.7620   15.1640    0.9040 C   0  0  0  0  0  0  0  0  0  0  0  0
    3.1080   13.9200   -1.2470 C   0  0  0  0  0  0  0  0  0  0  0  0
    2.5070   12.9740   -2.3040 C   0  0  0  0  0  0  0  0  0  0  0  0
    1.3160   12.1990   -1.7330 C   0  0  2  0  0  0  0  0  0  0  0  0
    1.8440   11.3080   -0.5580 C   0  0  0  0  0  0  0  0  0  0  0  0
    0.5110    8.9257   -1.3088 H   0  0  0  0  0  0  0  0  0  0  0  0
   -0.6237    8.8290   -2.6981 H   0  0  0  0  0  0  0  0  0  0  0  0
    0.8818    7.8490   -2.6981 H   0  0  0  0  0  0  0  0  0  0  0  0
    1.1043    9.7945   -4.1745 H   0  0  0  0  0  0  0  0  0  0  0  0
    2.8095   10.5575   -1.8078 H   0  0  0  0  0  0  0  0  0  0  0  0
    2.9934    8.9244   -2.6100 H   0  0  0  0  0  0  0  0  0  0  0  0
    3.6033    9.8940   -4.6755 H   0  0  0  0  0  0  0  0  0  0  0  0
    3.1358   11.5515   -4.1081 H   0  0  0  0  0  0  0  0  0  0  0  0
    4.7458   10.2960   -2.3845 H   0  0  0  0  0  0  0  0  0  0  0  0
    5.5648    9.6115   -5.8775 H   0  0  0  0  0  0  0  0  0  0  0  0
    5.4573   11.3823   -6.1596 H   0  0  0  0  0  0  0  0  0  0  0  0
    7.0586   10.5684   -6.1596 H   0  0  0  0  0  0  0  0  0  0  0  0
    7.4402   10.5896   -2.5284 H   0  0  0  0  0  0  0  0  0  0  0  0
    7.8988    9.5918   -3.9499 H   0  0  0  0  0  0  0  0  0  0  0  0
    8.2245   11.3583   -3.9499 H   0  0  0  0  0  0  0  0  0  0  0  0
    0.5016   11.7567   -3.7124 H   0  0  0  0  0  0  0  0  0  0  0  0
   -1.6464   11.1980   -2.7593 H   0  0  0  0  0  0  0  0  0  0  0  0
   -0.9155   10.1299   -1.5423 H   0  0  0  0  0  0  0  0  0  0  0  0
   -1.9243   12.7593   -1.0542 H   0  0  0  0  0  0  0  0  0  0  0  0
   -0.8775   11.8811    0.0580 H   0  0  0  0  0  0  0  0  0  0  0  0
   -0.9061   14.9498   -2.1052 H   0  0  0  0  0  0  0  0  0  0  0  0
    0.4849   14.4453   -3.1236 H   0  0  0  0  0  0  0  0  0  0  0  0
   -1.0268   13.4750   -3.1236 H   0  0  0  0  0  0  0  0  0  0  0  0
    0.9336   13.3844    0.6293 H   0  0  0  0  0  0  0  0  0  0  0  0
   -1.2970   14.6417    0.3373 H   0  0  0  0  0  0  0  0  0  0  0  0
    0.0055   15.2650    1.4792 H   0  0  0  0  0  0  0  0  0  0  0  0
   -1.2225   17.0752    0.0124 H   0  0  0  0  0  0  0  0  0  0  0  0
    1.8197   15.8293   -2.3300 H   0  0  0  0  0  0  0  0  0  0  0  0
    3.1874   17.4789   -0.1154 H   0  0  0  0  0  0  0  0  0  0  0  0
    4.0002   16.6210   -1.4990 H   0  0  0  0  0  0  0  0  0  0  0  0
    3.8223   19.0587   -1.8823 H   0  0  0  0  0  0  0  0  0  0  0  0
    2.9003   18.0833   -3.0927 H   0  0  0  0  0  0  0  0  0  0  0  0
    1.5624   19.9661   -2.4408 H   0  0  0  0  0  0  0  0  0  0  0  0
    1.0600   20.3090   -0.2310 H   0  0  0  0  0  0  0  0  0  0  0  0
   -0.6493   17.1487   -3.3149 H   0  0  0  0  0  0  0  0  0  0  0  0
   -0.3038   18.8526   -3.7664 H   0  0  0  0  0  0  0  0  0  0  0  0
    1.0192   17.6376   -3.7664 H   0  0  0  0  0  0  0  0  0  0  0  0
   -0.8040   19.1442   -0.1750 H   0  0  0  0  0  0  0  0  0  0  0  0
   -0.6978   20.1710   -1.6451 H   0  0  0  0  0  0  0  0  0  0  0  0
   -1.7392   18.7074   -1.6451 H   0  0  0  0  0  0  0  0  0  0  0  0
    2.0906   14.8456    1.7151 H   0  0  0  0  0  0  0  0  0  0  0  0
    3.7162   14.6225    0.9839 H   0  0  0  0  0  0  0  0  0  0  0  0
    2.9463   16.2455    0.9839 H   0  0  0  0  0  0  0  0  0  0  0  0
    3.8355   14.5691   -1.7563 H   0  0  0  0  0  0  0  0  0  0  0  0
    3.5382   13.2591   -0.4801 H   0  0  0  0  0  0  0  0  0  0  0  0
    2.1700   13.5667   -3.1672 H   0  0  0  0  0  0  0  0  0  0  0  0
    3.2800   12.2535   -2.6095 H   0  0  0  0  0  0  0  0  0  0  0  0
    1.5710   11.7687    0.4028 H   0  0  0  0  0  0  0  0  0  0  0  0
    1.3933   10.3069   -0.6258 H   0  0  0  0  0  0  0  0  0  0  0  0
    2.9386   11.2226   -0.6258 H   0  0  0  0  0  0  0  0  0  0  0  0
  1  2  1  0
  2  3  1  0
  3  4  1  0
  4  5  1  0
  5  6  1  0
  6  7  1  0
  7  8  1  0
  7  9  1  0
  2 10  1  0
 10 11  1  0
 11 12  1  0
 12 13  1  0
 13 14  1  6
 13 15  1  0
 15 16  1  0
 16 17  1  0
 17 18  2  0
 18 19  1  0
 19 20  1  0
 20 21  1  0
 21 22  1  0
 22 23  1  0
 22 24  1  0
 24 25  1  0
 24 26  1  0
 19 27  1  0
 27 28  1  1
 27 29  1  0
 29 30  1  0
 30 31  1  0
 31 32  1  1
  7  5  1  0
 31 10  1  0
 31 13  1  0
 27 15  1  0
 24 18  1  0
  1 33  1  0
  1 34  1  0
  1 35  1  0
  2 36  1  6
  3 37  1  0
  3 38  1  0
  4 39  1  0
  4 40  1  0
  5 41  1  1
  8 42  1  0
  8 43  1  0
  8 44  1  0
  9 45  1  0
  9 46  1  0
  9 47  1  0
 10 48  1  6
 11 49  1  0
 11 50  1  0
 12 51  1  0
 12 52  1  0
 14 53  1  0
 14 54  1  0
 14 55  1  0
 15 56  1  1
 16 57  1  0
 16 58  1  0
 17 59  1  0
 19 60  1  6
 20 61  1  0
 20 62  1  0
 21 63  1  0
 21 64  1  0
 22 65  1  6
 23 66  1  0
 25 67  1  0
 25 68  1  0
 25 69  1  0
 26 70  1  0
 26 71  1  0
 26 72  1  0
 28 73  1  0
 28 74  1  0
 28 75  1  0
 29 76  1  0
 29 77  1  0
 30 78  1  0
 30 79  1  0
 32 80  1  0
 32 81  1  0
 32 82  1  0
M  END
>  <meeko>  (9) 
{"is_sidechain": [false], "intermolecular_energy": 2.731, "internal_energy": -0.839}

$$$$
EPH_relaxed_0001_pdb2pqr_Repair_32_r2_0001_out
     RDKit          3D

 82 86  0  0  0  0  0  0  0  0999 V2000
    0.1010   10.5280   -3.8910 C   0  0  0  0  0  0  0  0  0  0  0  0
    1.0550   10.2640   -2.7220 C   0  0  2  0  0  0  0  0  0  0  0  0
    0.6590    9.0070   -1.9220 C   0  0  0  0  0  0  0  0  0  0  0  0
   -0.7530    8.5010   -2.2300 C   0  0  0  0  0  0  0  0  0  0  0  0
   -1.6220    8.5050   -1.0090 C   0  0  2  0  0  0  0  0  0  0  0  0
   -3.0090    8.7650   -1.2620 O   0  0  0  0  0  0  0  0  0  0  0  0
   -2.3120    9.7470   -0.4780 C   0  0  0  0  0  0  0  0  0  0  0  0
   -2.1630   11.0730   -1.1560 C   0  0  0  0  0  0  0  0  0  0  0  0
   -2.7280    9.7750    0.9600 C   0  0  0  0  0  0  0  0  0  0  0  0
    1.0950   11.4770   -1.8010 C   0  0  1  0  0  0  0  0  0  0  0  0
    2.1370   11.3270   -0.6600 C   0  0  0  0  0  0  0  0  0  0  0  0
    2.7200   12.7400   -0.3990 C   0  0  0  0  0  0  0  0  0  0  0  0
    1.7700   13.7000   -1.1520 C   0  0  1  0  0  0  0  0  0  0  0  0
    0.5500   13.8890   -0.1970 C   0  0  0  0  0  0  0  0  0  0  0  0
    2.3790   15.0720   -1.5900 C   0  0  2  0  0  0  0  0  0  0  0  0
    2.8460   15.9760   -0.4360 C   0  0  0  0  0  0  0  0  0  0  0  0
    1.8170   16.9200    0.0910 C   0  0  0  0  0  0  0  0  0  0  0  0
    0.6620   17.2400   -0.5220 C   0  0  0  0  0  0  0  0  0  0  0  0
    0.3400   16.7060   -1.9230 C   0  0  1  0  0  0  0  0  0  0  0  0
   -0.1860   17.8650   -2.8110 C   0  0  0  0  0  0  0  0  0  0  0  0
   -1.3660   18.5960   -2.1790 C   0  0  0  0  0  0  0  0  0  0  0  0
   -0.9900   19.1630   -0.8130 C   0  0  2  0  0  0  0  0  0  0  0  0
   -0.0150   20.1940   -0.9940 O   0  0  0  0  0  0  0  0  0  0  0  0
   -0.4370   18.0880    0.1650 C   0  0  0  0  0  0  0  0  0  0  0  0
   -1.5830   17.1400    0.5970 C   0  0  0  0  0  0  0  0  0  0  0  0
    0.0360   18.8130    1.4530 C   0  0  0  0  0  0  0  0  0  0  0  0
    1.4940   15.8720   -2.6290 C   0  0  1  0  0  0  0  0  0  0  0  0
    2.4580   16.8340   -3.3880 C   0  0  0  0  0  0  0  0  0  0  0  0
    0.8550   14.9320   -3.7200 C   0  0  0  0  0  0  0  0  0  0  0  0
    0.3820   13.5440   -3.2490 C   0  0  0  0  0  0  0  0  0  0  0  0
    1.4710   12.8400   -2.4340 C   0  0  2  0  0  0  0  0  0  0  0  0
    2.7040   12.6160   -3.3760 C   0  0  0  0  0  0  0  0  0  0  0  0
   -0.8902   10.8023   -3.5006 H   0  0  0  0  0  0  0  0  0  0  0  0
    0.4936   11.3513   -4.5059 H   0  0  0  0  0  0  0  0  0  0  0  0
    0.0145    9.6200   -4.5059 H   0  0  0  0  0  0  0  0  0  0  0  0
    2.0548   10.0845   -3.1441 H   0  0  0  0  0  0  0  0  0  0  0  0
    1.3744    8.2054   -2.1581 H   0  0  0  0  0  0  0  0  0  0  0  0
    0.6760    9.2846   -0.8577 H   0  0  0  0  0  0  0  0  0  0  0  0
   -1.2064    9.1516   -2.9923 H   0  0  0  0  0  0  0  0  0  0  0  0
   -0.6747    7.4651   -2.5917 H   0  0  0  0  0  0  0  0  0  0  0  0
   -0.9849    7.7507   -0.5242 H   0  0  0  0  0  0  0  0  0  0  0  0
   -2.0740   11.8647   -0.3975 H   0  0  0  0  0  0  0  0  0  0  0  0
   -1.2602   11.0641   -1.7844 H   0  0  0  0  0  0  0  0  0  0  0  0
   -3.0453   11.2647   -1.7844 H   0  0  0  0  0  0  0  0  0  0  0  0
   -1.8361    9.7150    1.6010 H   0  0  0  0  0  0  0  0  0  0  0  0
   -3.2665   10.7114    1.1678 H   0  0  0  0  0  0  0  0  0  0  0  0
   -3.3871    8.9192    1.1678 H   0  0  0  0  0  0  0  0  0  0  0  0
    0.0454   11.4923   -1.4721 H   0  0  0  0  0  0  0  0  0  0  0  0
    1.6508   10.9438    0.2493 H   0  0  0  0  0  0  0  0  0  0  0  0
    2.9299   10.6177   -0.9396 H   0  0  0  0  0  0  0  0  0  0  0  0
    2.7256   12.9648    0.6778 H   0  0  0  0  0  0  0  0  0  0  0  0
    3.7615   12.8309   -0.7411 H   0  0  0  0  0  0  0  0  0  0  0  0
    0.8905   13.8363    0.8477 H   0  0  0  0  0  0  0  0  0  0  0  0
    0.0874   14.8695   -0.3828 H   0  0  0  0  0  0  0  0  0  0  0  0
   -0.1876   13.0944   -0.3828 H   0  0  0  0  0  0  0  0  0  0  0  0
    3.2935   14.7661   -2.1192 H   0  0  0  0  0  0  0  0  0  0  0  0
    3.1700   15.3292    0.3927 H   0  0  0  0  0  0  0  0  0  0  0  0
    3.6515   16.6024   -0.8470 H   0  0  0  0  0  0  0  0  0  0  0  0
    2.0196   17.3944    1.0625 H   0  0  0  0  0  0  0  0  0  0  0  0
   -0.4494   15.9521   -1.7871 H   0  0  0  0  0  0  0  0  0  0  0  0
    0.6301   18.5849   -2.9712 H   0  0  0  0  0  0  0  0  0  0  0  0
   -0.5324   17.4286   -3.7594 H   0  0  0  0  0  0  0  0  0  0  0  0
   -1.6733   19.4209   -2.8387 H   0  0  0  0  0  0  0  0  0  0  0  0
   -2.1911   17.8807   -2.0465 H   0  0  0  0  0  0  0  0  0  0  0  0
   -1.9087   19.5605   -0.3568 H   0  0  0  0  0  0  0  0  0  0  0  0
    0.8490   19.7650   -1.1140 H   0  0  0  0  0  0  0  0  0  0  0  0
   -1.6314   17.1000    1.6952 H   0  0  0  0  0  0  0  0  0  0  0  0
   -2.5382   17.5154    0.2013 H   0  0  0  0  0  0  0  0  0  0  0  0
   -1.3933   16.1313    0.2013 H   0  0  0  0  0  0  0  0  0  0  0  0
   -0.3226   18.2634    2.3358 H   0  0  0  0  0  0  0  0  0  0  0  0
    1.1351   18.8540    1.4681 H   0  0  0  0  0  0  0  0  0  0  0  0
   -0.3693   19.8355    1.4681 H   0  0  0  0  0  0  0  0  0  0  0  0
    3.0421   17.4169   -2.6606 H   0  0  0  0  0  0  0  0  0  0  0  0
    3.1405   16.2462   -4.0195 H   0  0  0  0  0  0  0  0  0  0  0  0
    1.8716   17.5177   -4.0195 H   0  0  0  0  0  0  0  0  0  0  0  0
   -0.0160   15.4552   -4.1414 H   0  0  0  0  0  0  0  0  0  0  0  0
    1.6641   14.7323   -4.4379 H   0  0  0  0  0  0  0  0  0  0  0  0
   -0.5151   13.6629   -2.6236 H   0  0  0  0  0  0  0  0  0  0  0  0
    0.1563   12.9317   -4.1345 H   0  0  0  0  0  0  0  0  0  0  0  0
    3.6055   12.4522   -2.7673 H   0  0  0  0  0  0  0  0  0  0  0  0
    2.5253   11.7356   -4.0108 H   0  0  0  0  0  0  0  0  0  0  0  0
    2.8464   13.5030   -4.0108 H   0  0  0  0  0  0  0  0  0  0  0  0
  1  2  1  0
  2  3  1  0
  3  4  1  0
  4  5  1  0
  5  6  1  0
  6  7  1  0
  7  8  1  0
  7  9  1  0
  2 10  1  0
 10 11  1  0
 11 12  1  0
 12 13  1  0
 13 14  1  1
 13 15  1  0
 15 16  1  0
 16 17  1  0
 17 18  2  0
 18 19  1  0
 19 20  1  0
 20 21  1  0
 21 22  1  0
 22 23  1  0
 22 24  1  0
 24 25  1  0
 24 26  1  0
 19 27  1  0
 27 28  1  6
 27 29  1  0
 29 30  1  0
 30 31  1  0
 31 32  1  6
  7  5  1  0
 31 10  1  0
 31 13  1  0
 27 15  1  0
 24 18  1  0
  1 33  1  0
  1 34  1  0
  1 35  1  0
  2 36  1  6
  3 37  1  0
  3 38  1  0
  4 39  1  0
  4 40  1  0
  5 41  1  1
  8 42  1  0
  8 43  1  0
  8 44  1  0
  9 45  1  0
  9 46  1  0
  9 47  1  0
 10 48  1  1
 11 49  1  0
 11 50  1  0
 12 51  1  0
 12 52  1  0
 14 53  1  0
 14 54  1  0
 14 55  1  0
 15 56  1  6
 16 57  1  0
 16 58  1  0
 17 59  1  0
 19 60  1  1
 20 61  1  0
 20 62  1  0
 21 63  1  0
 21 64  1  0
 22 65  1  1
 23 66  1  0
 25 67  1  0
 25 68  1  0
 25 69  1  0
 26 70  1  0
 26 71  1  0
 26 72  1  0
 28 73  1  0
 28 74  1  0
 28 75  1  0
 29 76  1  0
 29 77  1  0
 30 78  1  0
 30 79  1  0
 32 80  1  0
 32 81  1  0
 32 82  1  0
M  END
>  <meeko>  (10) 
{"is_sidechain": [false], "intermolecular_energy": 2.731, "internal_energy": -0.839}

$$$$
EPH_relaxed_0001_pdb2pqr_Repair_32_r2_0001_out
     RDKit          3D

 82 86  0  0  0  0  0  0  0  0999 V2000
    0.1560   17.7920   -2.5440 C   0  0  0  0  0  0  0  0  0  0  0  0
   -0.0880   16.8910   -1.3300 C   0  0  2  0  0  0  0  0  0  0  0  0
   -0.1480   17.6920   -0.0140 C   0  0  0  0  0  0  0  0  0  0  0  0
    0.4660   19.0910   -0.1170 C   0  0  0  0  0  0  0  0  0  0  0  0
    1.6230   19.2580    0.8210 C   0  0  2  0  0  0  0  0  0  0  0  0
    2.6170   20.1940    0.3850 O   0  0  0  0  0  0  0  0  0  0  0  0
    3.0380   18.8250    0.4890 C   0  0  0  0  0  0  0  0  0  0  0  0
    3.3720   18.1890   -0.8240 C   0  0  0  0  0  0  0  0  0  0  0  0
    3.9920   18.5720    1.6150 C   0  0  0  0  0  0  0  0  0  0  0  0
    1.0020   15.8290   -1.2440 C   0  0  1  0  0  0  0  0  0  0  0  0
    1.2290   15.3220    0.2050 C   0  0  0  0  0  0  0  0  0  0  0  0
    1.5850   13.8170    0.1020 C   0  0  0  0  0  0  0  0  0  0  0  0
    1.8760   13.5870   -1.4000 C   0  0  1  0  0  0  0  0  0  0  0  0
    3.3430   14.0770   -1.6040 C   0  0  0  0  0  0  0  0  0  0  0  0
    1.6760   12.1280   -1.9260 C   0  0  2  0  0  0  0  0  0  0  0  0
    2.5960   11.0730   -1.2900 C   0  0  0  0  0  0  0  0  0  0  0  0
    3.8940   10.8490   -1.9940 C   0  0  0  0  0  0  0  0  0  0  0  0
    4.1860   11.2570   -3.2430 C   0  0  0  0  0  0  0  0  0  0  0  0
    3.1240   11.9360   -4.1190 C   0  0  1  0  0  0  0  0  0  0  0  0
    3.1450   11.3080   -5.5370 C   0  0  0  0  0  0  0  0  0  0  0  0
    4.5320   11.3420   -6.1710 C   0  0  0  0  0  0  0  0  0  0  0  0
    5.5480   10.6070   -5.3000 C   0  0  2  0  0  0  0  0  0  0  0  0
    5.2200    9.2150   -5.2840 O   0  0  0  0  0  0  0  0  0  0  0  0
    5.6090   11.1470   -3.8430 C   0  0  0  0  0  0  0  0  0  0  0  0
    6.2500   12.5560   -3.8370 C   0  0  0  0  0  0  0  0  0  0  0  0
    6.5660   10.2300   -3.0350 C   0  0  0  0  0  0  0  0  0  0  0  0
    1.6600   12.0060   -3.5040 C   0  0  1  0  0  0  0  0  0  0  0  0
    0.8780   10.6990   -3.8410 C   0  0  0  0  0  0  0  0  0  0  0  0
    0.8710   13.1840   -4.1880 C   0  0  0  0  0  0  0  0  0  0  0  0
    1.0150   14.5790   -3.5500 C   0  0  0  0  0  0  0  0  0  0  0  0
    0.7800   14.5160   -2.0370 C   0  0  2  0  0  0  0  0  0  0  0  0
   -0.6960   14.0470   -1.8010 C   0  0  0  0  0  0  0  0  0  0  0  0
    0.4293   18.8013   -2.2025 H   0  0  0  0  0  0  0  0  0  0  0  0
    0.9739   17.3762   -3.1508 H   0  0  0  0  0  0  0  0  0  0  0  0
   -0.7599   17.8457   -3.1508 H   0  0  0  0  0  0  0  0  0  0  0  0
   -1.0672   16.4091   -1.4674 H   0  0  0  0  0  0  0  0  0  0  0  0
   -1.2024   17.7963    0.2814 H   0  0  0  0  0  0  0  0  0  0  0  0
    0.4425   17.1354    0.7286 H   0  0  0  0  0  0  0  0  0  0  0  0
    0.8161   19.2519   -1.1473 H   0  0  0  0  0  0  0  0  0  0  0  0
   -0.3059   19.8256    0.1558 H   0  0  0  0  0  0  0  0  0  0  0  0
    0.9768   19.0643    1.6898 H   0  0  0  0  0  0  0  0  0  0  0  0
    3.8768   17.2277   -0.6479 H   0  0  0  0  0  0  0  0  0  0  0  0
    2.4472   18.0184   -1.3946 H   0  0  0  0  0  0  0  0  0  0  0  0
    4.0375   18.8535   -1.3946 H   0  0  0  0  0  0  0  0  0  0  0  0
    3.4718   18.7100    2.5743 H   0  0  0  0  0  0  0  0  0  0  0  0
    4.3723   17.5420    1.5489 H   0  0  0  0  0  0  0  0  0  0  0  0
    4.8328   19.2782    1.5489 H   0  0  0  0  0  0  0  0  0  0  0  0
    1.8425   16.3922   -1.6756 H   0  0  0  0  0  0  0  0  0  0  0  0
    2.0555   15.8754    0.6747 H   0  0  0  0  0  0  0  0  0  0  0  0
    0.3309   15.4739    0.8217 H   0  0  0  0  0  0  0  0  0  0  0  0
    2.4723   13.5853    0.7094 H   0  0  0  0  0  0  0  0  0  0  0  0
    0.7765   13.1706    0.4741 H   0  0  0  0  0  0  0  0  0  0  0  0
    3.8164   14.2351   -0.6238 H   0  0  0  0  0  0  0  0  0  0  0  0
    3.9080   13.3188   -2.1660 H   0  0  0  0  0  0  0  0  0  0  0  0
    3.3389   15.0226   -2.1660 H   0  0  0  0  0  0  0  0  0  0  0  0
    0.6613   11.8875   -1.5761 H   0  0  0  0  0  0  0  0  0  0  0  0
    2.8183   11.3922   -0.2611 H   0  0  0  0  0  0  0  0  0  0  0  0
    2.0505   10.1196   -1.3481 H   0  0  0  0  0  0  0  0  0  0  0  0
    4.6772   10.3049   -1.4457 H   0  0  0  0  0  0  0  0  0  0  0  0
    3.4089   12.9969   -4.1762 H   0  0  0  0  0  0  0  0  0  0  0  0
    2.8163   10.2608   -5.4638 H   0  0  0  0  0  0  0  0  0  0  0  0
    2.4718   11.8999   -6.1745 H   0  0  0  0  0  0  0  0  0  0  0  0
    4.4884   10.8594   -7.1585 H   0  0  0  0  0  0  0  0  0  0  0  0
    4.8476   12.3912   -6.2694 H   0  0  0  0  0  0  0  0  0  0  0  0
    6.5425   10.7751   -5.7390 H   0  0  0  0  0  0  0  0  0  0  0  0
    4.4390    9.0900   -5.8490 H   0  0  0  0  0  0  0  0  0  0  0  0
    6.4002   12.8861   -2.7985 H   0  0  0  0  0  0  0  0  0  0  0  0
    7.2202   12.5197   -4.3541 H   0  0  0  0  0  0  0  0  0  0  0  0
    5.5851   13.2635   -4.3541 H   0  0  0  0  0  0  0  0  0  0  0  0
    6.4023   10.3869   -1.9586 H   0  0  0  0  0  0  0  0  0  0  0  0
    6.3656    9.1782   -3.2869 H   0  0  0  0  0  0  0  0  0  0  0  0
    7.6083   10.4751   -3.2869 H   0  0  0  0  0  0  0  0  0  0  0  0
    0.5792   10.1995   -2.9076 H   0  0  0  0  0  0  0  0  0  0  0  0
   -0.0190   10.9491   -4.4265 H   0  0  0  0  0  0  0  0  0  0  0  0
    1.5224   10.0268   -4.4265 H   0  0  0  0  0  0  0  0  0  0  0  0
    1.2183   13.2568   -5.2292 H   0  0  0  0  0  0  0  0  0  0  0  0
   -0.1916   12.9234   -4.0737 H   0  0  0  0  0  0  0  0  0  0  0  0
    2.0293   14.9594   -3.7413 H   0  0  0  0  0  0  0  0  0  0  0  0
    0.2633   15.2478   -3.9946 H   0  0  0  0  0  0  0  0  0  0  0  0
   -0.8926   13.9845   -0.7205 H   0  0  0  0  0  0  0  0  0  0  0  0
   -1.3879   14.7695   -2.2584 H   0  0  0  0  0  0  0  0  0  0  0  0
   -0.8439   13.0576   -2.2584 H   0  0  0  0  0  0  0  0  0  0  0  0
  1  2  1  0
  2  3  1  0
  3  4  1  0
  4  5  1  0
  5  6  1  0
  6  7  1  0
  7  8  1  0
  7  9  1  0
  2 10  1  0
 10 11  1  0
 11 12  1  0
 12 13  1  0
 13 14  1  1
 13 15  1  0
 15 16  1  0
 16 17  1  0
 17 18  2  0
 18 19  1  0
 19 20  1  0
 20 21  1  0
 21 22  1  0
 22 23  1  0
 22 24  1  0
 24 25  1  0
 24 26  1  0
 19 27  1  0
 27 28  1  1
 27 29  1  0
 29 30  1  0
 30 31  1  0
 31 32  1  6
  7  5  1  0
 31 10  1  0
 31 13  1  0
 27 15  1  0
 24 18  1  0
  1 33  1  0
  1 34  1  0
  1 35  1  0
  2 36  1  6
  3 37  1  0
  3 38  1  0
  4 39  1  0
  4 40  1  0
  5 41  1  1
  8 42  1  0
  8 43  1  0
  8 44  1  0
  9 45  1  0
  9 46  1  0
  9 47  1  0
 10 48  1  6
 11 49  1  0
 11 50  1  0
 12 51  1  0
 12 52  1  0
 14 53  1  0
 14 54  1  0
 14 55  1  0
 15 56  1  1
 16 57  1  0
 16 58  1  0
 17 59  1  0
 19 60  1  6
 20 61  1  0
 20 62  1  0
 21 63  1  0
 21 64  1  0
 22 65  1  6
 23 66  1  0
 25 67  1  0
 25 68  1  0
 25 69  1  0
 26 70  1  0
 26 71  1  0
 26 72  1  0
 28 73  1  0
 28 74  1  0
 28 75  1  0
 29 76  1  0
 29 77  1  0
 30 78  1  0
 30 79  1  0
 32 80  1  0
 32 81  1  0
 32 82  1  0
M  END
>  <meeko>  (11) 
{"is_sidechain": [false], "intermolecular_energy": 2.731, "internal_energy": -0.839}

$$$$
EPH_relaxed_0001_pdb2pqr_Repair_32_r2_0001_out
     RDKit          3D

 82 86  0  0  0  0  0  0  0  0999 V2000
   -3.6910    7.1950   -3.4370 C   0  0  0  0  0  0  0  0  0  0  0  0
   -3.7280    7.2680   -1.9080 C   0  0  2  0  0  0  0  0  0  0  0  0
   -5.1470    7.0440   -1.3500 C   0  0  0  0  0  0  0  0  0  0  0  0
   -6.2540    7.2190   -2.3940 C   0  0  0  0  0  0  0  0  0  0  0  0
   -7.5790    7.5040   -1.7540 C   0  0  2  0  0  0  0  0  0  0  0  0
   -8.2020    6.3710   -1.1370 O   0  0  0  0  0  0  0  0  0  0  0  0
   -8.8920    6.9380   -2.2620 C   0  0  0  0  0  0  0  0  0  0  0  0
   -8.9440    6.0410   -3.4590 C   0  0  0  0  0  0  0  0  0  0  0  0
  -10.1630    7.6410   -1.8990 C   0  0  0  0  0  0  0  0  0  0  0  0
   -3.1910    8.6160   -1.4390 C   0  0  1  0  0  0  0  0  0  0  0  0
   -3.8090    9.0690   -0.0900 C   0  0  0  0  0  0  0  0  0  0  0  0
   -2.6970    9.8260    0.6800 C   0  0  0  0  0  0  0  0  0  0  0  0
   -1.5910   10.0720   -0.3730 C   0  0  1  0  0  0  0  0  0  0  0  0
   -2.0680   11.3270   -1.1700 C   0  0  0  0  0  0  0  0  0  0  0  0
   -0.1400   10.2560    0.1790 C   0  0  2  0  0  0  0  0  0  0  0  0
    0.0600   11.4750    1.0960 C   0  0  0  0  0  0  0  0  0  0  0  0
    0.4650   12.7340    0.4040 C   0  0  0  0  0  0  0  0  0  0  0  0
    0.9360   12.8180   -0.8540 C   0  0  0  0  0  0  0  0  0  0  0  0
    1.1940   11.5550   -1.6850 C   0  0  1  0  0  0  0  0  0  0  0  0
    2.5830   11.6590   -2.3680 C   0  0  0  0  0  0  0  0  0  0  0  0
    2.7380   12.9370   -3.1860 C   0  0  0  0  0  0  0  0  0  0  0  0
    2.5320   14.1720   -2.3130 C   0  0  2  0  0  0  0  0  0  0  0  0
    3.6000   14.2500   -1.3650 O   0  0  0  0  0  0  0  0  0  0  0  0
    1.1680   14.1740   -1.5660 C   0  0  0  0  0  0  0  0  0  0  0  0
    0.0190   14.3930   -2.5810 C   0  0  0  0  0  0  0  0  0  0  0  0
    1.1470   15.4000   -0.6140 C   0  0  0  0  0  0  0  0  0  0  0  0
    0.9890   10.1730   -0.9270 C   0  0  1  0  0  0  0  0  0  0  0  0
    2.3040    9.7690   -0.1920 C   0  0  0  0  0  0  0  0  0  0  0  0
    0.7080    9.0430   -1.9860 C   0  0  0  0  0  0  0  0  0  0  0  0
   -0.7610    8.8300   -2.4020 C   0  0  0  0  0  0  0  0  0  0  0  0
   -1.6680    8.7200   -1.1730 C   0  0  2  0  0  0  0  0  0  0  0  0
   -1.2260    7.4540   -0.3630 C   0  0  0  0  0  0  0  0  0  0  0  0
   -3.2139    6.2538   -3.7477 H   0  0  0  0  0  0  0  0  0  0  0  0
   -4.7174    7.2333   -3.8309 H   0  0  0  0  0  0  0  0  0  0  0  0
   -3.1151    8.0454   -3.8309 H   0  0  0  0  0  0  0  0  0  0  0  0
   -3.0903    6.4587   -1.5227 H   0  0  0  0  0  0  0  0  0  0  0  0
   -5.2054    6.0209   -0.9501 H   0  0  0  0  0  0  0  0  0  0  0  0
   -5.3120    7.8075   -0.5755 H   0  0  0  0  0  0  0  0  0  0  0  0
   -5.9903    8.0568   -3.0562 H   0  0  0  0  0  0  0  0  0  0  0  0
   -6.3418    6.2808   -2.9615 H   0  0  0  0  0  0  0  0  0  0  0  0
   -7.2643    8.5279   -1.5036 H   0  0  0  0  0  0  0  0  0  0  0  0
   -9.0047    4.9932   -3.1297 H   0  0  0  0  0  0  0  0  0  0  0  0
   -9.8294    6.2872   -4.0635 H   0  0  0  0  0  0  0  0  0  0  0  0
   -8.0361    6.1833   -4.0635 H   0  0  0  0  0  0  0  0  0  0  0  0
  -10.2542    7.6915   -0.8040 H   0  0  0  0  0  0  0  0  0  0  0  0
  -10.1496    8.6600   -2.3132 H   0  0  0  0  0  0  0  0  0  0  0  0
  -11.0190    7.0881   -2.3132 H   0  0  0  0  0  0  0  0  0  0  0  0
   -3.4654    9.2358   -2.3053 H   0  0  0  0  0  0  0  0  0  0  0  0
   -4.6654    9.7353   -0.2705 H   0  0  0  0  0  0  0  0  0  0  0  0
   -4.1718    8.2060    0.4876 H   0  0  0  0  0  0  0  0  0  0  0  0
   -3.0777   10.7801    1.0734 H   0  0  0  0  0  0  0  0  0  0  0  0
   -2.3287    9.2574    1.5466 H   0  0  0  0  0  0  0  0  0  0  0  0
   -2.3681   12.1166   -0.4654 H   0  0  0  0  0  0  0  0  0  0  0  0
   -1.2464   11.6934   -1.8031 H   0  0  0  0  0  0  0  0  0  0  0  0
   -2.9255   11.0552   -1.8031 H   0  0  0  0  0  0  0  0  0  0  0  0
   -0.0198    9.3740    0.8252 H   0  0  0  0  0  0  0  0  0  0  0  0
   -0.8882   11.6652    1.6202 H   0  0  0  0  0  0  0  0  0  0  0  0
    0.8912   11.2166    1.7686 H   0  0  0  0  0  0  0  0  0  0  0  0
    0.3705   13.6725    0.9700 H   0  0  0  0  0  0  0  0  0  0  0  0
    0.4035   11.5272   -2.4494 H   0  0  0  0  0  0  0  0  0  0  0  0
    3.3606   11.6416   -1.5902 H   0  0  0  0  0  0  0  0  0  0  0  0
    2.6809   10.8073   -3.0573 H   0  0  0  0  0  0  0  0  0  0  0  0
    3.7487   12.9668   -3.6191 H   0  0  0  0  0  0  0  0  0  0  0  0
    1.9784   12.9388   -3.9816 H   0  0  0  0  0  0  0  0  0  0  0  0
    2.5266   15.0485   -2.9777 H   0  0  0  0  0  0  0  0  0  0  0  0
    4.4150   13.9720   -1.8160 H   0  0  0  0  0  0  0  0  0  0  0  0
   -0.9207   14.5721   -2.0380 H   0  0  0  0  0  0  0  0  0  0  0  0
    0.2490   15.2635   -3.2130 H   0  0  0  0  0  0  0  0  0  0  0  0
   -0.0874   13.4990   -3.2130 H   0  0  0  0  0  0  0  0  0  0  0  0
    1.1529   15.0537    0.4300 H   0  0  0  0  0  0  0  0  0  0  0  0
    2.0346   16.0229   -0.7987 H   0  0  0  0  0  0  0  0  0  0  0  0
    0.2386   15.9922   -0.7987 H   0  0  0  0  0  0  0  0  0  0  0  0
    2.1460    9.8176    0.8955 H   0  0  0  0  0  0  0  0  0  0  0  0
    2.5830    8.7437   -0.4766 H   0  0  0  0  0  0  0  0  0  0  0  0
    3.1105   10.4608   -0.4766 H   0  0  0  0  0  0  0  0  0  0  0  0
    1.2787    9.2883   -2.8938 H   0  0  0  0  0  0  0  0  0  0  0  0
    1.0063    8.1060   -1.4931 H   0  0  0  0  0  0  0  0  0  0  0  0
   -1.0884    9.6821   -3.0158 H   0  0  0  0  0  0  0  0  0  0  0  0
   -0.8312    7.8935   -2.9748 H   0  0  0  0  0  0  0  0  0  0  0  0
   -1.2993    7.6639    0.7143 H   0  0  0  0  0  0  0  0  0  0  0  0
   -1.8821    6.6085   -0.6173 H   0  0  0  0  0  0  0  0  0  0  0  0
   -0.1862    7.2006   -0.6173 H   0  0  0  0  0  0  0  0  0  0  0  0
  1  2  1  0
  2  3  1  0
  3  4  1  0
  4  5  1  0
  5  6  1  0
  6  7  1  0
  7  8  1  0
  7  9  1  0
  2 10  1  0
 10 11  1  0
 11 12  1  0
 12 13  1  0
 13 14  1  6
 13 15  1  0
 15 16  1  0
 16 17  1  0
 17 18  2  0
 18 19  1  0
 19 20  1  0
 20 21  1  0
 21 22  1  0
 22 23  1  0
 22 24  1  0
 24 25  1  0
 24 26  1  0
 19 27  1  0
 27 28  1  1
 27 29  1  0
 29 30  1  0
 30 31  1  0
 31 32  1  1
  7  5  1  0
 31 10  1  0
 31 13  1  0
 27 15  1  0
 24 18  1  0
  1 33  1  0
  1 34  1  0
  1 35  1  0
  2 36  1  1
  3 37  1  0
  3 38  1  0
  4 39  1  0
  4 40  1  0
  5 41  1  1
  8 42  1  0
  8 43  1  0
  8 44  1  0
  9 45  1  0
  9 46  1  0
  9 47  1  0
 10 48  1  6
 11 49  1  0
 11 50  1  0
 12 51  1  0
 12 52  1  0
 14 53  1  0
 14 54  1  0
 14 55  1  0
 15 56  1  1
 16 57  1  0
 16 58  1  0
 17 59  1  0
 19 60  1  6
 20 61  1  0
 20 62  1  0
 21 63  1  0
 21 64  1  0
 22 65  1  6
 23 66  1  0
 25 67  1  0
 25 68  1  0
 25 69  1  0
 26 70  1  0
 26 71  1  0
 26 72  1  0
 28 73  1  0
 28 74  1  0
 28 75  1  0
 29 76  1  0
 29 77  1  0
 30 78  1  0
 30 79  1  0
 32 80  1  0
 32 81  1  0
 32 82  1  0
M  END
>  <meeko>  (12) 
{"is_sidechain": [false], "intermolecular_energy": 2.731, "internal_energy": -0.839}

$$$$
EPH_relaxed_0001_pdb2pqr_Repair_32_r2_0001_out
     RDKit          3D

 82 86  0  0  0  0  0  0  0  0999 V2000
    3.3120   18.5810   -2.4760 C   0  0  0  0  0  0  0  0  0  0  0  0
    2.0620   17.7280   -2.7070 C   0  0  2  0  0  0  0  0  0  0  0  0
    0.7740   18.4520   -2.2650 C   0  0  0  0  0  0  0  0  0  0  0  0
    0.9390   19.2720   -0.9830 C   0  0  0  0  0  0  0  0  0  0  0  0
   -0.3330   19.9660   -0.6020 C   0  0  2  0  0  0  0  0  0  0  0  0
   -0.4940   20.1920    0.8050 O   0  0  0  0  0  0  0  0  0  0  0  0
   -1.4430   19.3030    0.1930 C   0  0  0  0  0  0  0  0  0  0  0  0
   -1.3310   17.8830    0.6530 C   0  0  0  0  0  0  0  0  0  0  0  0
   -2.8260   19.8680    0.1000 C   0  0  0  0  0  0  0  0  0  0  0  0
    2.1930   16.4010   -1.9680 C   0  0  1  0  0  0  0  0  0  0  0  0
    2.6040   16.5840   -0.4830 C   0  0  0  0  0  0  0  0  0  0  0  0
    1.8860   15.4690    0.3200 C   0  0  0  0  0  0  0  0  0  0  0  0
    1.3590   14.4910   -0.7560 C   0  0  1  0  0  0  0  0  0  0  0  0
    2.5890   13.6040   -1.1290 C   0  0  0  0  0  0  0  0  0  0  0  0
    0.1220   13.6230   -0.3540 C   0  0  2  0  0  0  0  0  0  0  0  0
    0.3560   12.6580    0.8220 C   0  0  0  0  0  0  0  0  0  0  0  0
    0.8360   11.2960    0.4430 C   0  0  0  0  0  0  0  0  0  0  0  0
    0.7990   10.7700   -0.7950 C   0  0  0  0  0  0  0  0  0  0  0  0
    0.1440   11.5300   -1.9550 C   0  0  1  0  0  0  0  0  0  0  0  0
   -0.7800   10.5690   -2.7480 C   0  0  0  0  0  0  0  0  0  0  0  0
   -0.0530    9.3100   -3.2130 C   0  0  0  0  0  0  0  0  0  0  0  0
    0.5350    8.5510   -2.0260 C   0  0  2  0  0  0  0  0  0  0  0  0
   -0.5380    8.0430   -1.2260 O   0  0  0  0  0  0  0  0  0  0  0  0
    1.4750    9.4210   -1.1470 C   0  0  0  0  0  0  0  0  0  0  0  0
    2.7830    9.7200   -1.9210 C   0  0  0  0  0  0  0  0  0  0  0  0
    1.8870    8.5790    0.0910 C   0  0  0  0  0  0  0  0  0  0  0  0
   -0.5790   12.8920   -1.5700 C   0  0  1  0  0  0  0  0  0  0  0  0
   -2.0490   12.6090   -1.1320 C   0  0  0  0  0  0  0  0  0  0  0  0
   -0.6660   13.8070   -2.8480 C   0  0  0  0  0  0  0  0  0  0  0  0
    0.5370   14.7300   -3.1250 C   0  0  0  0  0  0  0  0  0  0  0  0
    0.9270   15.5140   -1.8690 C   0  0  2  0  0  0  0  0  0  0  0  0
   -0.2820   16.4310   -1.4820 C   0  0  0  0  0  0  0  0  0  0  0  0
    3.4821   18.6971   -1.3955 H   0  0  0  0  0  0  0  0  0  0  0  0
    4.1823   18.0875   -2.9333 H   0  0  0  0  0  0  0  0  0  0  0  0
    3.1698   19.5713   -2.9333 H   0  0  0  0  0  0  0  0  0  0  0  0
    1.9830   17.5447   -3.7887 H   0  0  0  0  0  0  0  0  0  0  0  0
    0.4617   19.1298   -3.0731 H   0  0  0  0  0  0  0  0  0  0  0  0
    0.0238   17.6752   -2.0558 H   0  0  0  0  0  0  0  0  0  0  0  0
    1.2368   18.5992   -0.1653 H   0  0  0  0  0  0  0  0  0  0  0  0
    1.7075   20.0383   -1.1624 H   0  0  0  0  0  0  0  0  0  0  0  0
   -0.3371   20.5275   -1.5479 H   0  0  0  0  0  0  0  0  0  0  0  0
   -1.3286   17.8529    1.7526 H   0  0  0  0  0  0  0  0  0  0  0  0
   -2.1864   17.3057    0.2722 H   0  0  0  0  0  0  0  0  0  0  0  0
   -0.3957   17.4469    0.2722 H   0  0  0  0  0  0  0  0  0  0  0  0
   -3.2244   20.0308    1.1123 H   0  0  0  0  0  0  0  0  0  0  0  0
   -2.7953   20.8257   -0.4403 H   0  0  0  0  0  0  0  0  0  0  0  0
   -3.4746   19.1628   -0.4403 H   0  0  0  0  0  0  0  0  0  0  0  0
    2.9468   15.9101   -2.6012 H   0  0  0  0  0  0  0  0  0  0  0  0
    3.6944   16.4852   -0.3767 H   0  0  0  0  0  0  0  0  0  0  0  0
    2.3208   17.5811   -0.1146 H   0  0  0  0  0  0  0  0  0  0  0  0
    2.5909   14.9610    0.9946 H   0  0  0  0  0  0  0  0  0  0  0  0
    1.0795   15.8652    0.9545 H   0  0  0  0  0  0  0  0  0  0  0  0
    3.0787   13.2509   -0.2095 H   0  0  0  0  0  0  0  0  0  0  0  0
    2.2520   12.7397   -1.7201 H   0  0  0  0  0  0  0  0  0  0  0  0
    3.3027   14.1967   -1.7201 H   0  0  0  0  0  0  0  0  0  0  0  0
   -0.5862   14.3789    0.0162 H   0  0  0  0  0  0  0  0  0  0  0  0
    1.1058   13.1095    1.4883 H   0  0  0  0  0  0  0  0  0  0  0  0
   -0.6254   12.5136    1.2973 H   0  0  0  0  0  0  0  0  0  0  0  0
    1.2555   10.6693    1.2438 H   0  0  0  0  0  0  0  0  0  0  0  0
    0.9680   11.8711   -2.5990 H   0  0  0  0  0  0  0  0  0  0  0  0
   -1.6194   10.2732   -2.1015 H   0  0  0  0  0  0  0  0  0  0  0  0
   -1.1284   11.1038   -3.6439 H   0  0  0  0  0  0  0  0  0  0  0  0
   -0.7641    8.6577   -3.7411 H   0  0  0  0  0  0  0  0  0  0  0  0
    0.7679    9.6053   -3.8830 H   0  0  0  0  0  0  0  0  0  0  0  0
    1.1510    7.7340   -2.4298 H   0  0  0  0  0  0  0  0  0  0  0  0
   -0.1980    7.2810   -0.7270 H   0  0  0  0  0  0  0  0  0  0  0  0
    3.5978    9.9063   -1.2059 H   0  0  0  0  0  0  0  0  0  0  0  0
    3.0402    8.8575   -2.5534 H   0  0  0  0  0  0  0  0  0  0  0  0
    2.6399   10.6086   -2.5534 H   0  0  0  0  0  0  0  0  0  0  0  0
    1.6209    9.1229    1.0094 H   0  0  0  0  0  0  0  0  0  0  0  0
    1.3592    7.6141    0.0703 H   0  0  0  0  0  0  0  0  0  0  0  0
    2.9727    8.4036    0.0703 H   0  0  0  0  0  0  0  0  0  0  0  0
   -2.1086   12.5975   -0.0337 H   0  0  0  0  0  0  0  0  0  0  0  0
   -2.7073   13.3969   -1.5267 H   0  0  0  0  0  0  0  0  0  0  0  0
   -2.3678   11.6330   -1.5267 H   0  0  0  0  0  0  0  0  0  0  0  0
   -0.7884   13.1488   -3.7208 H   0  0  0  0  0  0  0  0  0  0  0  0
   -1.5116   14.4849   -2.6597 H   0  0  0  0  0  0  0  0  0  0  0  0
    1.3927   14.1188   -3.4478 H   0  0  0  0  0  0  0  0  0  0  0  0
    0.2562   15.4455   -3.9119 H   0  0  0  0  0  0  0  0  0  0  0  0
   -0.3609   16.4908   -0.3865 H   0  0  0  0  0  0  0  0  0  0  0  0
   -0.1244   17.4387   -1.8938 H   0  0  0  0  0  0  0  0  0  0  0  0
   -1.2099   16.0076   -1.8938 H   0  0  0  0  0  0  0  0  0  0  0  0
  1  2  1  0
  2  3  1  0
  3  4  1  0
  4  5  1  0
  5  6  1  0
  6  7  1  0
  7  8  1  0
  7  9  1  0
  2 10  1  0
 10 11  1  0
 11 12  1  0
 12 13  1  0
 13 14  1  6
 13 15  1  0
 15 16  1  0
 16 17  1  0
 17 18  2  0
 18 19  1  0
 19 20  1  0
 20 21  1  0
 21 22  1  0
 22 23  1  0
 22 24  1  0
 24 25  1  0
 24 26  1  0
 19 27  1  0
 27 28  1  1
 27 29  1  0
 29 30  1  0
 30 31  1  0
 31 32  1  1
  7  5  1  0
 31 10  1  0
 31 13  1  0
 27 15  1  0
 24 18  1  0
  1 33  1  0
  1 34  1  0
  1 35  1  0
  2 36  1  6
  3 37  1  0
  3 38  1  0
  4 39  1  0
  4 40  1  0
  5 41  1  6
  8 42  1  0
  8 43  1  0
  8 44  1  0
  9 45  1  0
  9 46  1  0
  9 47  1  0
 10 48  1  6
 11 49  1  0
 11 50  1  0
 12 51  1  0
 12 52  1  0
 14 53  1  0
 14 54  1  0
 14 55  1  0
 15 56  1  1
 16 57  1  0
 16 58  1  0
 17 59  1  0
 19 60  1  6
 20 61  1  0
 20 62  1  0
 21 63  1  0
 21 64  1  0
 22 65  1  6
 23 66  1  0
 25 67  1  0
 25 68  1  0
 25 69  1  0
 26 70  1  0
 26 71  1  0
 26 72  1  0
 28 73  1  0
 28 74  1  0
 28 75  1  0
 29 76  1  0
 29 77  1  0
 30 78  1  0
 30 79  1  0
 32 80  1  0
 32 81  1  0
 32 82  1  0
M  END
>  <meeko>  (13) 
{"is_sidechain": [false], "intermolecular_energy": 2.731, "internal_energy": -0.839}

$$$$
EPH_relaxed_0001_pdb2pqr_Repair_32_r2_0001_out
     RDKit          3D

 82 86  0  0  0  0  0  0  0  0999 V2000
   -0.8820   16.3560   -5.8490 C   0  0  0  0  0  0  0  0  0  0  0  0
    0.2130   15.6600   -6.6620 C   0  0  2  0  0  0  0  0  0  0  0  0
   -0.1870   15.4800   -8.1400 C   0  0  0  0  0  0  0  0  0  0  0  0
    0.4560   16.5030   -9.0810 C   0  0  0  0  0  0  0  0  0  0  0  0
    1.8580   16.1180   -9.4450 C   0  0  2  0  0  0  0  0  0  0  0  0
    2.3320   16.6780  -10.6760 O   0  0  0  0  0  0  0  0  0  0  0  0
    2.2030   15.2470  -10.6380 C   0  0  0  0  0  0  0  0  0  0  0  0
    1.1410   14.7080  -11.5440 C   0  0  0  0  0  0  0  0  0  0  0  0
    3.5140   14.5240  -10.6410 C   0  0  0  0  0  0  0  0  0  0  0  0
    0.5410   14.3070   -6.0420 C   0  0  1  0  0  0  0  0  0  0  0  0
    1.7990   13.6510   -6.6700 C   0  0  0  0  0  0  0  0  0  0  0  0
    2.5200   12.8860   -5.5300 C   0  0  0  0  0  0  0  0  0  0  0  0
    1.4930   12.8470   -4.3750 C   0  0  1  0  0  0  0  0  0  0  0  0
    0.5340   11.6680   -4.7310 C   0  0  0  0  0  0  0  0  0  0  0  0
    2.0790   12.7000   -2.9330 C   0  0  2  0  0  0  0  0  0  0  0  0
    2.8530   11.3950   -2.6740 C   0  0  0  0  0  0  0  0  0  0  0  0
    2.0340   10.2610   -2.1540 C   0  0  0  0  0  0  0  0  0  0  0  0
    0.7950   10.3630   -1.6360 C   0  0  0  0  0  0  0  0  0  0  0  0
    0.1320   11.7330   -1.4450 C   0  0  1  0  0  0  0  0  0  0  0  0
   -0.5000   11.8090   -0.0300 C   0  0  0  0  0  0  0  0  0  0  0  0
   -1.4570   10.6540    0.2460 C   0  0  0  0  0  0  0  0  0  0  0  0
   -0.7460    9.3100    0.1030 C   0  0  2  0  0  0  0  0  0  0  0  0
    0.2300    9.1920    1.1420 O   0  0  0  0  0  0  0  0  0  0  0  0
   -0.0630    9.1230   -1.2800 C   0  0  0  0  0  0  0  0  0  0  0  0
   -1.1430    8.9490   -2.3760 C   0  0  0  0  0  0  0  0  0  0  0  0
    0.7350    7.7920   -1.2420 C   0  0  0  0  0  0  0  0  0  0  0  0
    1.0390   12.9940   -1.7770 C   0  0  1  0  0  0  0  0  0  0  0  0
    1.8710   13.3970   -0.5220 C   0  0  0  0  0  0  0  0  0  0  0  0
    0.1100   14.2230   -2.1070 C   0  0  0  0  0  0  0  0  0  0  0  0
   -0.3380   14.3810   -3.5720 C   0  0  0  0  0  0  0  0  0  0  0  0
    0.8570   14.2770   -4.5260 C   0  0  2  0  0  0  0  0  0  0  0  0
    1.8280   15.4640   -4.2060 C   0  0  0  0  0  0  0  0  0  0  0  0
   -0.6795   16.2273   -4.7755 H   0  0  0  0  0  0  0  0  0  0  0  0
   -0.8948   17.4284   -6.0937 H   0  0  0  0  0  0  0  0  0  0  0  0
   -1.8584   15.9124   -6.0937 H   0  0  0  0  0  0  0  0  0  0  0  0
    1.1037   16.3051   -6.6375 H   0  0  0  0  0  0  0  0  0  0  0  0
    0.1170   14.4730   -8.4618 H   0  0  0  0  0  0  0  0  0  0  0  0
   -1.2753   15.6288   -8.1988 H   0  0  0  0  0  0  0  0  0  0  0  0
   -0.1453   16.5693   -9.9997 H   0  0  0  0  0  0  0  0  0  0  0  0
    0.4908   17.4719   -8.5614 H   0  0  0  0  0  0  0  0  0  0  0  0
    2.1433   16.0624   -8.3841 H   0  0  0  0  0  0  0  0  0  0  0  0
    0.3209   14.2917  -10.9406 H   0  0  0  0  0  0  0  0  0  0  0  0
    0.7543   15.5189  -12.1787 H   0  0  0  0  0  0  0  0  0  0  0  0
    1.5672   13.9171  -12.1787 H   0  0  0  0  0  0  0  0  0  0  0  0
    3.8369   14.3459   -9.6046 H   0  0  0  0  0  0  0  0  0  0  0  0
    3.4004   13.5610  -11.1603 H   0  0  0  0  0  0  0  0  0  0  0  0
    4.2679   15.1339  -11.1603 H   0  0  0  0  0  0  0  0  0  0  0  0
   -0.4042   13.7802   -6.2396 H   0  0  0  0  0  0  0  0  0  0  0  0
    1.5043   12.9530   -7.4674 H   0  0  0  0  0  0  0  0  0  0  0  0
    2.4591   14.4093   -7.1163 H   0  0  0  0  0  0  0  0  0  0  0  0
    2.7817   11.8670   -5.8513 H   0  0  0  0  0  0  0  0  0  0  0  0
    3.4622   13.3704   -5.2338 H   0  0  0  0  0  0  0  0  0  0  0  0
    0.1595   11.2076   -3.8049 H   0  0  0  0  0  0  0  0  0  0  0  0
   -0.3134   12.0495   -5.3195 H   0  0  0  0  0  0  0  0  0  0  0  0
    1.0801   10.9161   -5.3195 H   0  0  0  0  0  0  0  0  0  0  0  0
    2.8284   13.5045   -2.8996 H   0  0  0  0  0  0  0  0  0  0  0  0
    3.3104   11.0771   -3.6225 H   0  0  0  0  0  0  0  0  0  0  0  0
    3.5862   11.6268   -1.8874 H   0  0  0  0  0  0  0  0  0  0  0  0
    2.4802    9.2565   -2.1975 H   0  0  0  0  0  0  0  0  0  0  0  0
   -0.6559   11.7995   -2.2098 H   0  0  0  0  0  0  0  0  0  0  0  0
    0.3062   11.7853    0.7180 H   0  0  0  0  0  0  0  0  0  0  0  0
   -1.0784   12.7429    0.0276 H   0  0  0  0  0  0  0  0  0  0  0  0
   -1.8480   10.7473    1.2699 H   0  0  0  0  0  0  0  0  0  0  0  0
   -2.2782   10.6962   -0.4846 H   0  0  0  0  0  0  0  0  0  0  0  0
   -1.5095    8.5223    0.1845 H   0  0  0  0  0  0  0  0  0  0  0  0
    0.4330   10.0890    1.4580 H   0  0  0  0  0  0  0  0  0  0  0  0
   -2.1234    8.7910   -1.9029 H   0  0  0  0  0  0  0  0  0  0  0  0
   -1.1792    9.8529   -3.0018 H   0  0  0  0  0  0  0  0  0  0  0  0
   -0.8935    8.0795   -3.0018 H   0  0  0  0  0  0  0  0  0  0  0  0
    0.9104    7.4994   -0.1962 H   0  0  0  0  0  0  0  0  0  0  0  0
    0.1597    7.0049   -1.7514 H   0  0  0  0  0  0  0  0  0  0  0  0
    1.7003    7.9286   -1.7514 H   0  0  0  0  0  0  0  0  0  0  0  0
    1.3152   13.1278    0.3883 H   0  0  0  0  0  0  0  0  0  0  0  0
    2.8340   12.8655   -0.5343 H   0  0  0  0  0  0  0  0  0  0  0  0
    2.0509   14.4821   -0.5343 H   0  0  0  0  0  0  0  0  0  0  0  0
   -0.7960   14.1305   -1.4901 H   0  0  0  0  0  0  0  0  0  0  0  0
    0.7226   15.1119   -1.8958 H   0  0  0  0  0  0  0  0  0  0  0  0
   -1.0617   13.5888   -3.8143 H   0  0  0  0  0  0  0  0  0  0  0  0
   -0.7977   15.3730   -3.6929 H   0  0  0  0  0  0  0  0  0  0  0  0
    1.9211   15.5778   -3.1159 H   0  0  0  0  0  0  0  0  0  0  0  0
    2.8175   15.2551   -4.6387 H   0  0  0  0  0  0  0  0  0  0  0  0
    1.4272   16.3925   -4.6387 H   0  0  0  0  0  0  0  0  0  0  0  0
  1  2  1  0
  2  3  1  0
  3  4  1  0
  4  5  1  0
  5  6  1  0
  6  7  1  0
  7  8  1  0
  7  9  1  0
  2 10  1  0
 10 11  1  0
 11 12  1  0
 12 13  1  0
 13 14  1  6
 13 15  1  0
 15 16  1  0
 16 17  1  0
 17 18  2  0
 18 19  1  0
 19 20  1  0
 20 21  1  0
 21 22  1  0
 22 23  1  0
 22 24  1  0
 24 25  1  0
 24 26  1  0
 19 27  1  0
 27 28  1  1
 27 29  1  0
 29 30  1  0
 30 31  1  0
 31 32  1  1
  7  5  1  0
 31 10  1  0
 31 13  1  0
 27 15  1  0
 24 18  1  0
  1 33  1  0
  1 34  1  0
  1 35  1  0
  2 36  1  6
  3 37  1  0
  3 38  1  0
  4 39  1  0
  4 40  1  0
  5 41  1  1
  8 42  1  0
  8 43  1  0
  8 44  1  0
  9 45  1  0
  9 46  1  0
  9 47  1  0
 10 48  1  1
 11 49  1  0
 11 50  1  0
 12 51  1  0
 12 52  1  0
 14 53  1  0
 14 54  1  0
 14 55  1  0
 15 56  1  6
 16 57  1  0
 16 58  1  0
 17 59  1  0
 19 60  1  6
 20 61  1  0
 20 62  1  0
 21 63  1  0
 21 64  1  0
 22 65  1  1
 23 66  1  0
 25 67  1  0
 25 68  1  0
 25 69  1  0
 26 70  1  0
 26 71  1  0
 26 72  1  0
 28 73  1  0
 28 74  1  0
 28 75  1  0
 29 76  1  0
 29 77  1  0
 30 78  1  0
 30 79  1  0
 32 80  1  0
 32 81  1  0
 32 82  1  0
M  END
>  <meeko>  (14) 
{"is_sidechain": [false], "intermolecular_energy": 2.731, "internal_energy": -0.839}

$$$$
EPH_relaxed_0001_pdb2pqr_Repair_32_r2_0001_out
     RDKit          3D

 82 86  0  0  0  0  0  0  0  0999 V2000
   -0.1650    9.3360   -2.1830 C   0  0  0  0  0  0  0  0  0  0  0  0
    0.9600   10.2690   -2.6410 C   0  0  2  0  0  0  0  0  0  0  0  0
    2.3260    9.5560   -2.6780 C   0  0  0  0  0  0  0  0  0  0  0  0
    3.2580   10.0670   -3.7810 C   0  0  0  0  0  0  0  0  0  0  0  0
    4.6180   10.3990   -3.2470 C   0  0  2  0  0  0  0  0  0  0  0  0
    5.0560   11.7380   -3.5140 O   0  0  0  0  0  0  0  0  0  0  0  0
    5.8160   10.6880   -4.1330 C   0  0  0  0  0  0  0  0  0  0  0  0
    5.7090   10.6570   -5.6250 C   0  0  0  0  0  0  0  0  0  0  0  0
    7.1880   10.5180   -3.5580 C   0  0  0  0  0  0  0  0  0  0  0  0
    1.0310   11.4860   -1.7260 C   0  0  1  0  0  0  0  0  0  0  0  0
    2.1260   11.3500   -0.6360 C   0  0  0  0  0  0  0  0  0  0  0  0
    2.7080   12.7680   -0.4060 C   0  0  0  0  0  0  0  0  0  0  0  0
    1.7140   13.7170   -1.1180 C   0  0  1  0  0  0  0  0  0  0  0  0
    0.5390   13.8980   -0.1070 C   0  0  0  0  0  0  0  0  0  0  0  0
    2.2890   15.0930   -1.5880 C   0  0  2  0  0  0  0  0  0  0  0  0
    2.8000   16.0060   -0.4600 C   0  0  0  0  0  0  0  0  0  0  0  0
    1.7870   16.9420    0.1120 C   0  0  0  0  0  0  0  0  0  0  0  0
    0.6020   17.2490   -0.4470 C   0  0  0  0  0  0  0  0  0  0  0  0
    0.2210   16.7070   -1.8310 C   0  0  1  0  0  0  0  0  0  0  0  0
   -0.3570   17.8570   -2.6960 C   0  0  0  0  0  0  0  0  0  0  0  0
   -1.5140   18.5790   -2.0130 C   0  0  0  0  0  0  0  0  0  0  0  0
   -1.0800   19.1540   -0.6670 C   0  0  2  0  0  0  0  0  0  0  0  0
   -0.1240   20.1940   -0.8970 O   0  0  0  0  0  0  0  0  0  0  0  0
   -0.4720   18.0880    0.2870 C   0  0  0  0  0  0  0  0  0  0  0  0
   -1.5870   17.1310    0.7760 C   0  0  0  0  0  0  0  0  0  0  0  0
    0.0540   18.8220    1.5500 C   0  0  0  0  0  0  0  0  0  0  0  0
    1.3480   15.8810   -2.5870 C   0  0  1  0  0  0  0  0  0  0  0  0
    2.2670   16.8490   -3.3930 C   0  0  0  0  0  0  0  0  0  0  0  0
    0.6690   14.9310   -3.6430 C   0  0  0  0  0  0  0  0  0  0  0  0
    0.2310   13.5400   -3.1470 C   0  0  0  0  0  0  0  0  0  0  0  0
    1.3640   12.8490   -2.3810 C   0  0  2  0  0  0  0  0  0  0  0  0
    2.5530   12.6340   -3.3790 C   0  0  0  0  0  0  0  0  0  0  0  0
   -0.1956    9.3106   -1.0837 H   0  0  0  0  0  0  0  0  0  0  0  0
   -1.1270    9.7050   -2.5682 H   0  0  0  0  0  0  0  0  0  0  0  0
    0.0197    8.3223   -2.5682 H   0  0  0  0  0  0  0  0  0  0  0  0
    0.7275   10.5895   -3.6673 H   0  0  0  0  0  0  0  0  0  0  0  0
    2.8220    9.7053   -1.7076 H   0  0  0  0  0  0  0  0  0  0  0  0
    2.1289    8.4948   -2.8900 H   0  0  0  0  0  0  0  0  0  0  0  0
    3.3579    9.2890   -4.5522 H   0  0  0  0  0  0  0  0  0  0  0  0
    2.8211   10.9848   -4.2015 H   0  0  0  0  0  0  0  0  0  0  0  0
    4.4766    9.7168   -2.3957 H   0  0  0  0  0  0  0  0  0  0  0  0
    4.6894   10.3616   -5.9134 H   0  0  0  0  0  0  0  0  0  0  0  0
    5.9295   11.6560   -6.0293 H   0  0  0  0  0  0  0  0  0  0  0  0
    6.4294    9.9306   -6.0293 H   0  0  0  0  0  0  0  0  0  0  0  0
    7.1287   10.5253   -2.4596 H   0  0  0  0  0  0  0  0  0  0  0  0
    7.6112    9.5606   -3.8960 H   0  0  0  0  0  0  0  0  0  0  0  0
    7.8320   11.3432   -3.8960 H   0  0  0  0  0  0  0  0  0  0  0  0
   -0.0018   11.4929   -1.3474 H   0  0  0  0  0  0  0  0  0  0  0  0
    1.6866   10.9653    0.2962 H   0  0  0  0  0  0  0  0  0  0  0  0
    2.9115   10.6475   -0.9514 H   0  0  0  0  0  0  0  0  0  0  0  0
    2.7613   12.9965    0.6687 H   0  0  0  0  0  0  0  0  0  0  0  0
    3.7320   12.8673   -0.7954 H   0  0  0  0  0  0  0  0  0  0  0  0
    0.9270   13.8382    0.9206 H   0  0  0  0  0  0  0  0  0  0  0  0
    0.0677   14.8793   -0.2645 H   0  0  0  0  0  0  0  0  0  0  0  0
   -0.2058   13.1040   -0.2645 H   0  0  0  0  0  0  0  0  0  0  0  0
    3.1811   14.7938   -2.1578 H   0  0  0  0  0  0  0  0  0  0  0  0
    3.1690   15.3655    0.3546 H   0  0  0  0  0  0  0  0  0  0  0  0
    3.5787   16.6390   -0.9104 H   0  0  0  0  0  0  0  0  0  0  0  0
    2.0300   17.4213    1.0718 H   0  0  0  0  0  0  0  0  0  0  0  0
   -0.5536   15.9457   -1.6566 H   0  0  0  0  0  0  0  0  0  0  0  0
    0.4436   18.5844   -2.8958 H   0  0  0  0  0  0  0  0  0  0  0  0
   -0.7429   17.4135   -3.6257 H   0  0  0  0  0  0  0  0  0  0  0  0
   -1.8591   19.3988   -2.6602 H   0  0  0  0  0  0  0  0  0  0  0  0
   -2.3258   17.8569   -1.8410 H   0  0  0  0  0  0  0  0  0  0  0  0
   -1.9800   19.5440   -0.1691 H   0  0  0  0  0  0  0  0  0  0  0  0
   -0.2240   20.8490   -0.1850 H   0  0  0  0  0  0  0  0  0  0  0  0
   -1.6025   17.1177    1.8758 H   0  0  0  0  0  0  0  0  0  0  0  0
   -2.5602   17.4793    0.3998 H   0  0  0  0  0  0  0  0  0  0  0  0
   -1.3903   16.1162    0.3998 H   0  0  0  0  0  0  0  0  0  0  0  0
   -0.3132   18.3096    2.4515 H   0  0  0  0  0  0  0  0  0  0  0  0
    1.1540   18.8151    1.5467 H   0  0  0  0  0  0  0  0  0  0  0  0
   -0.3061   19.8614    1.5467 H   0  0  0  0  0  0  0  0  0  0  0  0
    2.8522   17.4654   -2.6947 H   0  0  0  0  0  0  0  0  0  0  0  0
    2.9499   16.2639   -4.0264 H   0  0  0  0  0  0  0  0  0  0  0  0
    1.6472   17.5006   -4.0264 H   0  0  0  0  0  0  0  0  0  0  0  0
   -0.2254   15.4445   -4.0257 H   0  0  0  0  0  0  0  0  0  0  0  0
    1.4468   14.7358   -4.3959 H   0  0  0  0  0  0  0  0  0  0  0  0
   -0.6373   13.6524   -2.4811 H   0  0  0  0  0  0  0  0  0  0  0  0
   -0.0300   12.9228   -4.0193 H   0  0  0  0  0  0  0  0  0  0  0  0
    3.4811   12.4662   -2.8129 H   0  0  0  0  0  0  0  0  0  0  0  0
    2.3464   11.7586   -4.0123 H   0  0  0  0  0  0  0  0  0  0  0  0
    2.6661   13.5263   -4.0123 H   0  0  0  0  0  0  0  0  0  0  0  0
  1  2  1  0
  2  3  1  0
  3  4  1  0
  4  5  1  0
  5  6  1  0
  6  7  1  0
  7  8  1  0
  7  9  1  0
  2 10  1  0
 10 11  1  0
 11 12  1  0
 12 13  1  0
 13 14  1  1
 13 15  1  0
 15 16  1  0
 16 17  1  0
 17 18  2  0
 18 19  1  0
 19 20  1  0
 20 21  1  0
 21 22  1  0
 22 23  1  0
 22 24  1  0
 24 25  1  0
 24 26  1  0
 19 27  1  0
 27 28  1  6
 27 29  1  0
 29 30  1  0
 30 31  1  0
 31 32  1  6
  7  5  1  0
 31 10  1  0
 31 13  1  0
 27 15  1  0
 24 18  1  0
  1 33  1  0
  1 34  1  0
  1 35  1  0
  2 36  1  6
  3 37  1  0
  3 38  1  0
  4 39  1  0
  4 40  1  0
  5 41  1  1
  8 42  1  0
  8 43  1  0
  8 44  1  0
  9 45  1  0
  9 46  1  0
  9 47  1  0
 10 48  1  1
 11 49  1  0
 11 50  1  0
 12 51  1  0
 12 52  1  0
 14 53  1  0
 14 54  1  0
 14 55  1  0
 15 56  1  6
 16 57  1  0
 16 58  1  0
 17 59  1  0
 19 60  1  1
 20 61  1  0
 20 62  1  0
 21 63  1  0
 21 64  1  0
 22 65  1  1
 23 66  1  0
 25 67  1  0
 25 68  1  0
 25 69  1  0
 26 70  1  0
 26 71  1  0
 26 72  1  0
 28 73  1  0
 28 74  1  0
 28 75  1  0
 29 76  1  0
 29 77  1  0
 30 78  1  0
 30 79  1  0
 32 80  1  0
 32 81  1  0
 32 82  1  0
M  END
>  <meeko>  (15) 
{"is_sidechain": [false], "intermolecular_energy": 2.731, "internal_energy": -0.839}

$$$$
EPH_relaxed_0001_pdb2pqr_Repair_32_r2_0001_out
     RDKit          3D

 82 86  0  0  0  0  0  0  0  0999 V2000
   -2.2890    7.7760   -2.2700 C   0  0  0  0  0  0  0  0  0  0  0  0
   -2.2240    8.3590   -0.8560 C   0  0  2  0  0  0  0  0  0  0  0  0
   -3.5890    8.3080   -0.1420 C   0  0  0  0  0  0  0  0  0  0  0  0
   -4.7730    8.6460   -1.0530 C   0  0  0  0  0  0  0  0  0  0  0  0
   -5.9010    7.6740   -0.8800 C   0  0  2  0  0  0  0  0  0  0  0  0
   -5.5090    6.2950   -0.8880 O   0  0  0  0  0  0  0  0  0  0  0  0
   -6.3570    6.7200   -1.9670 C   0  0  0  0  0  0  0  0  0  0  0  0
   -5.6940    6.6910   -3.3090 C   0  0  0  0  0  0  0  0  0  0  0  0
   -7.7460    6.1660   -1.8970 C   0  0  0  0  0  0  0  0  0  0  0  0
   -1.7180    9.7960   -0.9090 C   0  0  1  0  0  0  0  0  0  0  0  0
   -1.3240   10.3430    0.4890 C   0  0  0  0  0  0  0  0  0  0  0  0
   -0.1110   11.2850    0.2750 C   0  0  0  0  0  0  0  0  0  0  0  0
   -0.0570   11.5100   -1.2540 C   0  0  1  0  0  0  0  0  0  0  0  0
   -1.1240   12.6130   -1.5360 C   0  0  0  0  0  0  0  0  0  0  0  0
    1.3390   11.8910   -1.8470 C   0  0  2  0  0  0  0  0  0  0  0  0
    1.9220   13.2220   -1.3400 C   0  0  0  0  0  0  0  0  0  0  0  0
    1.5630   14.4250   -2.1480 C   0  0  0  0  0  0  0  0  0  0  0  0
    1.0430   14.4060   -3.3890 C   0  0  0  0  0  0  0  0  0  0  0  0
    0.8570   13.0850   -4.1460 C   0  0  1  0  0  0  0  0  0  0  0  0
    1.3880   13.2390   -5.5960 C   0  0  0  0  0  0  0  0  0  0  0  0
    0.7600   14.4230   -6.3250 C   0  0  0  0  0  0  0  0  0  0  0  0
    1.0160   15.7260   -5.5730 C   0  0  2  0  0  0  0  0  0  0  0  0
    2.4170   16.0130   -5.6120 O   0  0  0  0  0  0  0  0  0  0  0  0
    0.5320   15.6860   -4.0960 C   0  0  0  0  0  0  0  0  0  0  0  0
   -1.0160   15.6770   -4.0560 C   0  0  0  0  0  0  0  0  0  0  0  0
    0.9770   17.0070   -3.4120 C   0  0  0  0  0  0  0  0  0  0  0  0
    1.4240   11.7870   -3.4240 C   0  0  1  0  0  0  0  0  0  0  0  0
    2.9300   11.5960   -3.7770 C   0  0  0  0  0  0  0  0  0  0  0  0
    0.6730   10.5200   -3.9810 C   0  0  0  0  0  0  0  0  0  0  0  0
   -0.6390   10.1240   -3.2760 C   0  0  0  0  0  0  0  0  0  0  0  0
   -0.4510   10.0730   -1.7570 C   0  0  2  0  0  0  0  0  0  0  0  0
    0.6010    8.9560   -1.4420 C   0  0  0  0  0  0  0  0  0  0  0  0
   -2.4107    6.6843   -2.2113 H   0  0  0  0  0  0  0  0  0  0  0  0
   -3.1441    8.2119   -2.8074 H   0  0  0  0  0  0  0  0  0  0  0  0
   -1.3589    8.0129   -2.8074 H   0  0  0  0  0  0  0  0  0  0  0  0
   -1.5250    7.7391   -0.2754 H   0  0  0  0  0  0  0  0  0  0  0  0
   -3.7353    7.2928    0.2555 H   0  0  0  0  0  0  0  0  0  0  0  0
   -3.5657    9.0698    0.6512 H   0  0  0  0  0  0  0  0  0  0  0  0
   -5.1328    9.6566   -0.8097 H   0  0  0  0  0  0  0  0  0  0  0  0
   -4.4295    8.5904   -2.0965 H   0  0  0  0  0  0  0  0  0  0  0  0
   -6.4494    8.3867   -0.2465 H   0  0  0  0  0  0  0  0  0  0  0  0
   -4.6029    6.6433   -3.1780 H   0  0  0  0  0  0  0  0  0  0  0  0
   -6.0352    5.8069   -3.8675 H   0  0  0  0  0  0  0  0  0  0  0  0
   -5.9567    7.6015   -3.8675 H   0  0  0  0  0  0  0  0  0  0  0  0
   -8.0412    6.0483   -0.8439 H   0  0  0  0  0  0  0  0  0  0  0  0
   -8.4415    6.8556   -2.3978 H   0  0  0  0  0  0  0  0  0  0  0  0
   -7.7760    5.1871   -2.3978 H   0  0  0  0  0  0  0  0  0  0  0  0
   -2.5917   10.2821   -1.3677 H   0  0  0  0  0  0  0  0  0  0  0  0
   -2.1642   10.9010    0.9280 H   0  0  0  0  0  0  0  0  0  0  0  0
   -1.0708    9.5230    1.1771 H   0  0  0  0  0  0  0  0  0  0  0  0
   -0.2618   12.2383    0.8027 H   0  0  0  0  0  0  0  0  0  0  0  0
    0.8236   10.8574    0.6670 H   0  0  0  0  0  0  0  0  0  0  0  0
   -1.5051   13.0069   -0.5823 H   0  0  0  0  0  0  0  0  0  0  0  0
   -0.6640   13.4293   -2.1123 H   0  0  0  0  0  0  0  0  0  0  0  0
   -1.9551   12.1804   -2.1123 H   0  0  0  0  0  0  0  0  0  0  0  0
    1.9907   11.1042   -1.4394 H   0  0  0  0  0  0  0  0  0  0  0  0
    1.5608   13.3820   -0.3134 H   0  0  0  0  0  0  0  0  0  0  0  0
    3.0151   13.1223   -1.4123 H   0  0  0  0  0  0  0  0  0  0  0  0
    1.7383   15.4098   -1.6904 H   0  0  0  0  0  0  0  0  0  0  0  0
   -0.2263   12.8947   -4.1635 H   0  0  0  0  0  0  0  0  0  0  0  0
    2.4776   13.3850   -5.5591 H   0  0  0  0  0  0  0  0  0  0  0  0
    1.1210   12.3262   -6.1487 H   0  0  0  0  0  0  0  0  0  0  0  0
    1.1956   14.4974   -7.3323 H   0  0  0  0  0  0  0  0  0  0  0  0
   -0.3263   14.2610   -6.3861 H   0  0  0  0  0  0  0  0  0  0  0  0
    0.4347   16.5150   -6.0726 H   0  0  0  0  0  0  0  0  0  0  0  0
    2.8680   15.2300   -5.9710 H   0  0  0  0  0  0  0  0  0  0  0  0
   -1.3557   15.6750   -3.0098 H   0  0  0  0  0  0  0  0  0  0  0  0
   -1.4012   16.5729   -4.5649 H   0  0  0  0  0  0  0  0  0  0  0  0
   -1.3907   14.7767   -4.5649 H   0  0  0  0  0  0  0  0  0  0  0  0
    0.9362   16.8860   -2.3194 H   0  0  0  0  0  0  0  0  0  0  0  0
    2.0062   17.2487   -3.7160 H   0  0  0  0  0  0  0  0  0  0  0  0
    0.3039   17.8221   -3.7160 H   0  0  0  0  0  0  0  0  0  0  0  0
    3.5173   11.5215   -2.8499 H   0  0  0  0  0  0  0  0  0  0  0  0
    3.0548   10.6748   -4.3651 H   0  0  0  0  0  0  0  0  0  0  0  0
    3.2808   12.4568   -4.3651 H   0  0  0  0  0  0  0  0  0  0  0  0
    0.4381   10.7106   -5.0386 H   0  0  0  0  0  0  0  0  0  0  0  0
    1.3593    9.6784   -3.8056 H   0  0  0  0  0  0  0  0  0  0  0  0
   -1.4153   10.8648   -3.5179 H   0  0  0  0  0  0  0  0  0  0  0  0
   -0.9378    9.1250   -3.6263 H   0  0  0  0  0  0  0  0  0  0  0  0
    0.7043    8.8464   -0.3524 H   0  0  0  0  0  0  0  0  0  0  0  0
    0.2649    8.0028   -1.8762 H   0  0  0  0  0  0  0  0  0  0  0  0
    1.5726    9.2344   -1.8762 H   0  0  0  0  0  0  0  0  0  0  0  0
  1  2  1  0
  2  3  1  0
  3  4  1  0
  4  5  1  0
  5  6  1  0
  6  7  1  0
  7  8  1  0
  7  9  1  0
  2 10  1  0
 10 11  1  0
 11 12  1  0
 12 13  1  0
 13 14  1  1
 13 15  1  0
 15 16  1  0
 16 17  1  0
 17 18  2  0
 18 19  1  0
 19 20  1  0
 20 21  1  0
 21 22  1  0
 22 23  1  0
 22 24  1  0
 24 25  1  0
 24 26  1  0
 19 27  1  0
 27 28  1  1
 27 29  1  0
 29 30  1  0
 30 31  1  0
 31 32  1  6
  7  5  1  0
 31 10  1  0
 31 13  1  0
 27 15  1  0
 24 18  1  0
  1 33  1  0
  1 34  1  0
  1 35  1  0
  2 36  1  1
  3 37  1  0
  3 38  1  0
  4 39  1  0
  4 40  1  0
  5 41  1  1
  8 42  1  0
  8 43  1  0
  8 44  1  0
  9 45  1  0
  9 46  1  0
  9 47  1  0
 10 48  1  6
 11 49  1  0
 11 50  1  0
 12 51  1  0
 12 52  1  0
 14 53  1  0
 14 54  1  0
 14 55  1  0
 15 56  1  1
 16 57  1  0
 16 58  1  0
 17 59  1  0
 19 60  1  6
 20 61  1  0
 20 62  1  0
 21 63  1  0
 21 64  1  0
 22 65  1  6
 23 66  1  0
 25 67  1  0
 25 68  1  0
 25 69  1  0
 26 70  1  0
 26 71  1  0
 26 72  1  0
 28 73  1  0
 28 74  1  0
 28 75  1  0
 29 76  1  0
 29 77  1  0
 30 78  1  0
 30 79  1  0
 32 80  1  0
 32 81  1  0
 32 82  1  0
M  END
>  <meeko>  (16) 
{"is_sidechain": [false], "intermolecular_energy": 2.731, "internal_energy": -0.839}

$$$$
EPH_relaxed_0001_pdb2pqr_Repair_32_r2_0001_out
     RDKit          3D

 82 86  0  0  0  0  0  0  0  0999 V2000
    2.8350   11.3630   -5.3990 C   0  0  0  0  0  0  0  0  0  0  0  0
    1.8510   11.0570   -4.2660 C   0  0  2  0  0  0  0  0  0  0  0  0
    0.7320   10.0940   -4.7120 C   0  0  0  0  0  0  0  0  0  0  0  0
   -0.3340    9.8510   -3.6410 C   0  0  0  0  0  0  0  0  0  0  0  0
    0.2020    9.0440   -2.4980 C   0  0  2  0  0  0  0  0  0  0  0  0
   -0.6330    7.9510   -2.0940 O   0  0  0  0  0  0  0  0  0  0  0  0
   -0.4500    8.9990   -1.1280 C   0  0  0  0  0  0  0  0  0  0  0  0
   -1.6940    9.7750   -0.8300 C   0  0  0  0  0  0  0  0  0  0  0  0
    0.3840    8.5960    0.0480 C   0  0  0  0  0  0  0  0  0  0  0  0
    1.2440   12.3520   -3.7400 C   0  0  1  0  0  0  0  0  0  0  0  0
   -0.2960   12.2650   -3.5720 C   0  0  0  0  0  0  0  0  0  0  0  0
   -0.6590   13.1180   -2.3290 C   0  0  0  0  0  0  0  0  0  0  0  0
    0.6230   13.9280   -2.0240 C   0  0  1  0  0  0  0  0  0  0  0  0
    0.5830   15.1310   -3.0170 C   0  0  0  0  0  0  0  0  0  0  0  0
    0.8040   14.4050   -0.5460 C   0  0  2  0  0  0  0  0  0  0  0  0
   -0.2770   15.3740   -0.0360 C   0  0  0  0  0  0  0  0  0  0  0  0
    0.0160   16.8230   -0.2440 C   0  0  0  0  0  0  0  0  0  0  0  0
    1.2190   17.3410   -0.5550 C   0  0  0  0  0  0  0  0  0  0  0  0
    2.4640   16.4480   -0.6320 C   0  0  1  0  0  0  0  0  0  0  0  0
    3.6350   17.1260    0.1280 C   0  0  0  0  0  0  0  0  0  0  0  0
    3.9040   18.5460   -0.3580 C   0  0  0  0  0  0  0  0  0  0  0  0
    2.6600   19.4180   -0.2110 C   0  0  2  0  0  0  0  0  0  0  0  0
    2.3780   19.5880    1.1810 O   0  0  0  0  0  0  0  0  0  0  0  0
    1.4120   18.8310   -0.9290 C   0  0  0  0  0  0  0  0  0  0  0  0
    1.6010   18.9270   -2.4630 C   0  0  0  0  0  0  0  0  0  0  0  0
    0.1950   19.7320   -0.5850 C   0  0  0  0  0  0  0  0  0  0  0  0
    2.2570   14.9310   -0.2070 C   0  0  1  0  0  0  0  0  0  0  0  0
    2.4380   14.7810    1.3340 C   0  0  0  0  0  0  0  0  0  0  0  0
    3.3810   14.0530   -0.8740 C   0  0  0  0  0  0  0  0  0  0  0  0
    3.0940   13.5110   -2.2870 C   0  0  0  0  0  0  0  0  0  0  0  0
    1.7160   12.8460   -2.3500 C   0  0  2  0  0  0  0  0  0  0  0  0
    1.7330   11.6180   -1.3770 C   0  0  0  0  0  0  0  0  0  0  0  0
    3.8032   11.6641   -4.9724 H   0  0  0  0  0  0  0  0  0  0  0  0
    2.9710   10.4647   -6.0192 H   0  0  0  0  0  0  0  0  0  0  0  0
    2.4376   12.1800   -6.0192 H   0  0  0  0  0  0  0  0  0  0  0  0
    2.4155   10.5585   -3.4642 H   0  0  0  0  0  0  0  0  0  0  0  0
    0.2414   10.5192   -5.6000 H   0  0  0  0  0  0  0  0  0  0  0  0
    1.2067    9.1235   -4.9189 H   0  0  0  0  0  0  0  0  0  0  0  0
   -0.6833   10.8217   -3.2591 H   0  0  0  0  0  0  0  0  0  0  0  0
   -1.1595    9.2878   -4.1007 H   0  0  0  0  0  0  0  0  0  0  0  0
    1.2373    9.2356   -2.8166 H   0  0  0  0  0  0  0  0  0  0  0  0
   -1.8236    9.8558    0.2593 H   0  0  0  0  0  0  0  0  0  0  0  0
   -1.6111   10.7819   -1.2651 H   0  0  0  0  0  0  0  0  0  0  0  0
   -2.5619    9.2578   -1.2651 H   0  0  0  0  0  0  0  0  0  0  0  0
   -0.1453    8.8518    0.9778 H   0  0  0  0  0  0  0  0  0  0  0  0
    0.5643    7.5114    0.0152 H   0  0  0  0  0  0  0  0  0  0  0  0
    1.3458    9.1287    0.0152 H   0  0  0  0  0  0  0  0  0  0  0  0
    1.5864   13.0463   -4.5214 H   0  0  0  0  0  0  0  0  0  0  0  0
   -0.7978   12.6648   -4.4655 H   0  0  0  0  0  0  0  0  0  0  0  0
   -0.6212   11.2220   -3.4440 H   0  0  0  0  0  0  0  0  0  0  0  0
   -1.4999   13.7912   -2.5521 H   0  0  0  0  0  0  0  0  0  0  0  0
   -0.9744   12.4992   -1.4760 H   0  0  0  0  0  0  0  0  0  0  0  0
    0.5517   16.0733   -2.4503 H   0  0  0  0  0  0  0  0  0  0  0  0
    1.4822   15.1137   -3.6503 H   0  0  0  0  0  0  0  0  0  0  0  0
   -0.3131   15.0540   -3.6503 H   0  0  0  0  0  0  0  0  0  0  0  0
    0.6620   13.4729    0.0207 H   0  0  0  0  0  0  0  0  0  0  0  0
   -1.2170   15.1391   -0.5568 H   0  0  0  0  0  0  0  0  0  0  0  0
   -0.3280   15.2271    1.0530 H   0  0  0  0  0  0  0  0  0  0  0  0
   -0.8220   17.5270   -0.1338 H   0  0  0  0  0  0  0  0  0  0  0  0
    2.7118   16.3630   -1.7003 H   0  0  0  0  0  0  0  0  0  0  0  0
    3.3867   17.1611    1.1990 H   0  0  0  0  0  0  0  0  0  0  0  0
    4.5420   16.5322   -0.0584 H   0  0  0  0  0  0  0  0  0  0  0  0
    4.7209   18.9812    0.2364 H   0  0  0  0  0  0  0  0  0  0  0  0
    4.1811   18.5063   -1.4218 H   0  0  0  0  0  0  0  0  0  0  0  0
    2.8748   20.3829   -0.6935 H   0  0  0  0  0  0  0  0  0  0  0  0
    3.0110   19.0430    1.6780 H   0  0  0  0  0  0  0  0  0  0  0  0
    2.5617   19.4150   -2.6842 H   0  0  0  0  0  0  0  0  0  0  0  0
    1.5945   17.9163   -2.8972 H   0  0  0  0  0  0  0  0  0  0  0  0
    0.7810   19.5179   -2.8972 H   0  0  0  0  0  0  0  0  0  0  0  0
    0.0923   19.8080    0.5076 H   0  0  0  0  0  0  0  0  0  0  0  0
    0.3497   20.7350   -1.0094 H   0  0  0  0  0  0  0  0  0  0  0  0
   -0.7191   19.2913   -1.0094 H   0  0  0  0  0  0  0  0  0  0  0  0
    1.6912   15.3999    1.8529 H   0  0  0  0  0  0  0  0  0  0  0  0
    2.3022   13.7271    1.6183 H   0  0  0  0  0  0  0  0  0  0  0  0
    3.4484   15.1102    1.6183 H   0  0  0  0  0  0  0  0  0  0  0  0
    4.2919   14.6669   -0.9320 H   0  0  0  0  0  0  0  0  0  0  0  0
    3.4652   13.1610   -0.2359 H   0  0  0  0  0  0  0  0  0  0  0  0
    3.1247   14.3439   -3.0049 H   0  0  0  0  0  0  0  0  0  0  0  0
    3.8577   12.7594   -2.5360 H   0  0  0  0  0  0  0  0  0  0  0  0
    1.7281   11.9746   -0.3364 H   0  0  0  0  0  0  0  0  0  0  0  0
    0.8434   10.9962   -1.5557 H   0  0  0  0  0  0  0  0  0  0  0  0
    2.6395   11.0211   -1.5557 H   0  0  0  0  0  0  0  0  0  0  0  0
  1  2  1  0
  2  3  1  0
  3  4  1  0
  4  5  1  0
  5  6  1  0
  6  7  1  0
  7  8  1  0
  7  9  1  0
  2 10  1  0
 10 11  1  0
 11 12  1  0
 12 13  1  0
 13 14  1  6
 13 15  1  0
 15 16  1  0
 16 17  1  0
 17 18  2  0
 18 19  1  0
 19 20  1  0
 20 21  1  0
 21 22  1  0
 22 23  1  0
 22 24  1  0
 24 25  1  0
 24 26  1  0
 19 27  1  0
 27 28  1  1
 27 29  1  0
 29 30  1  0
 30 31  1  0
 31 32  1  1
  7  5  1  0
 31 10  1  0
 31 13  1  0
 27 15  1  0
 24 18  1  0
  1 33  1  0
  1 34  1  0
  1 35  1  0
  2 36  1  1
  3 37  1  0
  3 38  1  0
  4 39  1  0
  4 40  1  0
  5 41  1  1
  8 42  1  0
  8 43  1  0
  8 44  1  0
  9 45  1  0
  9 46  1  0
  9 47  1  0
 10 48  1  6
 11 49  1  0
 11 50  1  0
 12 51  1  0
 12 52  1  0
 14 53  1  0
 14 54  1  0
 14 55  1  0
 15 56  1  1
 16 57  1  0
 16 58  1  0
 17 59  1  0
 19 60  1  6
 20 61  1  0
 20 62  1  0
 21 63  1  0
 21 64  1  0
 22 65  1  6
 23 66  1  0
 25 67  1  0
 25 68  1  0
 25 69  1  0
 26 70  1  0
 26 71  1  0
 26 72  1  0
 28 73  1  0
 28 74  1  0
 28 75  1  0
 29 76  1  0
 29 77  1  0
 30 78  1  0
 30 79  1  0
 32 80  1  0
 32 81  1  0
 32 82  1  0
M  END
>  <meeko>  (17) 
{"is_sidechain": [false], "intermolecular_energy": 2.731, "internal_energy": -0.839}

$$$$
EPH_relaxed_0001_pdb2pqr_Repair_32_r2_0001_out
     RDKit          3D

 82 86  0  0  0  0  0  0  0  0999 V2000
    0.9360   14.8610   -2.6630 C   0  0  0  0  0  0  0  0  0  0  0  0
    1.1920   14.1750   -4.0080 C   0  0  2  0  0  0  0  0  0  0  0  0
    0.4860   14.8980   -5.1720 C   0  0  0  0  0  0  0  0  0  0  0  0
    1.1020   14.6050   -6.5430 C   0  0  0  0  0  0  0  0  0  0  0  0
    0.8730   15.7300   -7.5060 C   0  0  2  0  0  0  0  0  0  0  0  0
    0.3780   15.3280   -8.7900 O   0  0  0  0  0  0  0  0  0  0  0  0
    1.6840   15.9250   -8.7730 C   0  0  0  0  0  0  0  0  0  0  0  0
    2.7880   14.9850   -9.1450 C   0  0  0  0  0  0  0  0  0  0  0  0
    1.7320   17.2880   -9.3900 C   0  0  0  0  0  0  0  0  0  0  0  0
    0.7370   12.7220   -3.9440 C   0  0  1  0  0  0  0  0  0  0  0  0
    1.8680   11.7250   -4.3130 C   0  0  0  0  0  0  0  0  0  0  0  0
    1.6610   10.4670   -3.4310 C   0  0  0  0  0  0  0  0  0  0  0  0
    0.2450   10.6390   -2.8320 C   0  0  1  0  0  0  0  0  0  0  0  0
   -0.7270   10.1650   -3.9570 C   0  0  0  0  0  0  0  0  0  0  0  0
   -0.0280    9.9000   -1.4820 C   0  0  2  0  0  0  0  0  0  0  0  0
    0.0720    8.3660   -1.5470 C   0  0  0  0  0  0  0  0  0  0  0  0
   -1.2010    7.6560   -1.8710 C   0  0  0  0  0  0  0  0  0  0  0  0
   -2.4320    8.1970   -1.8200 C   0  0  0  0  0  0  0  0  0  0  0  0
   -2.6430    9.6290   -1.3120 C   0  0  1  0  0  0  0  0  0  0  0  0
   -3.8280    9.6530   -0.3100 C   0  0  0  0  0  0  0  0  0  0  0  0
   -5.1010    9.0480   -0.8940 C   0  0  0  0  0  0  0  0  0  0  0  0
   -4.8660    7.6050   -1.3350 C   0  0  2  0  0  0  0  0  0  0  0  0
   -4.6160    6.8040   -0.1760 O   0  0  0  0  0  0  0  0  0  0  0  0
   -3.6890    7.4550   -2.3390 C   0  0  0  0  0  0  0  0  0  0  0  0
   -4.0870    8.0690   -3.7040 C   0  0  0  0  0  0  0  0  0  0  0  0
   -3.4680    5.9390   -2.5920 C   0  0  0  0  0  0  0  0  0  0  0  0
   -1.3510   10.3610   -0.7470 C   0  0  1  0  0  0  0  0  0  0  0  0
   -1.1630   10.0200    0.7630 C   0  0  0  0  0  0  0  0  0  0  0  0
   -1.5670   11.9190   -0.8260 C   0  0  0  0  0  0  0  0  0  0  0  0
   -1.1660   12.6100   -2.1440 C   0  0  0  0  0  0  0  0  0  0  0  0
    0.2420   12.1910   -2.5760 C   0  0  2  0  0  0  0  0  0  0  0  0
    1.2450   12.6750   -1.4740 C   0  0  0  0  0  0  0  0  0  0  0  0
    1.1932   14.1719   -1.8451 H   0  0  0  0  0  0  0  0  0  0  0  0
    1.5569   15.7660   -2.5889 H   0  0  0  0  0  0  0  0  0  0  0  0
   -0.1260   15.1379   -2.5889 H   0  0  0  0  0  0  0  0  0  0  0  0
    2.2740   14.2177   -4.2014 H   0  0  0  0  0  0  0  0  0  0  0  0
   -0.5673   14.5813   -5.1897 H   0  0  0  0  0  0  0  0  0  0  0  0
    0.5967   15.9778   -4.9940 H   0  0  0  0  0  0  0  0  0  0  0  0
    2.1849   14.4541   -6.4222 H   0  0  0  0  0  0  0  0  0  0  0  0
    0.6209   13.7030   -6.9491 H   0  0  0  0  0  0  0  0  0  0  0  0
    0.6142   16.4125   -6.6831 H   0  0  0  0  0  0  0  0  0  0  0  0
    3.2546   14.5877   -8.2316 H   0  0  0  0  0  0  0  0  0  0  0  0
    2.3780   14.1544   -9.7384 H   0  0  0  0  0  0  0  0  0  0  0  0
    3.5426   15.5221   -9.7384 H   0  0  0  0  0  0  0  0  0  0  0  0
    1.7588   18.0491   -8.5962 H   0  0  0  0  0  0  0  0  0  0  0  0
    2.6338   17.3767  -10.0136 H   0  0  0  0  0  0  0  0  0  0  0  0
    0.8386   17.4399  -10.0136 H   0  0  0  0  0  0  0  0  0  0  0  0
   -0.0994   12.7595   -4.6575 H   0  0  0  0  0  0  0  0  0  0  0  0
    1.8033   11.4560   -5.3776 H   0  0  0  0  0  0  0  0  0  0  0  0
    2.8589   12.1701   -4.1396 H   0  0  0  0  0  0  0  0  0  0  0  0
    1.7167    9.5525   -4.0398 H   0  0  0  0  0  0  0  0  0  0  0  0
    2.4337   10.3705   -2.6541 H   0  0  0  0  0  0  0  0  0  0  0  0
   -1.6274    9.7259   -3.5026 H   0  0  0  0  0  0  0  0  0  0  0  0
   -1.0130   11.0248   -4.5807 H   0  0  0  0  0  0  0  0  0  0  0  0
   -0.2257    9.4102   -4.5807 H   0  0  0  0  0  0  0  0  0  0  0  0
    0.8157   10.2293   -0.8578 H   0  0  0  0  0  0  0  0  0  0  0  0
    0.8117    8.1062   -2.3186 H   0  0  0  0  0  0  0  0  0  0  0  0
    0.3547    8.0368   -0.5362 H   0  0  0  0  0  0  0  0  0  0  0  0
   -1.1262    6.6021   -2.1771 H   0  0  0  0  0  0  0  0  0  0  0  0
   -2.8904   10.2332   -2.1973 H   0  0  0  0  0  0  0  0  0  0  0  0
   -3.5442    9.0805    0.5854 H   0  0  0  0  0  0  0  0  0  0  0  0
   -4.0391   10.7051   -0.0681 H   0  0  0  0  0  0  0  0  0  0  0  0
   -5.8921    9.0668   -0.1299 H   0  0  0  0  0  0  0  0  0  0  0  0
   -5.4006    9.6394   -1.7718 H   0  0  0  0  0  0  0  0  0  0  0  0
   -5.7713    7.2692   -1.8619 H   0  0  0  0  0  0  0  0  0  0  0  0
   -5.4700    6.6360    0.2550 H   0  0  0  0  0  0  0  0  0  0  0  0
   -4.6784    8.9814   -3.5372 H   0  0  0  0  0  0  0  0  0  0  0  0
   -3.1790    8.3194   -4.2722 H   0  0  0  0  0  0  0  0  0  0  0  0
   -4.6863    7.3423   -4.2722 H   0  0  0  0  0  0  0  0  0  0  0  0
   -3.3914    5.4138   -1.6285 H   0  0  0  0  0  0  0  0  0  0  0  0
   -4.3168    5.5351   -3.1634 H   0  0  0  0  0  0  0  0  0  0  0  0
   -2.5393    5.7942   -3.1634 H   0  0  0  0  0  0  0  0  0  0  0  0
   -1.6036   10.8193    1.3770 H   0  0  0  0  0  0  0  0  0  0  0  0
   -1.6629    9.0665    0.9886 H   0  0  0  0  0  0  0  0  0  0  0  0
   -0.0898    9.9337    0.9886 H   0  0  0  0  0  0  0  0  0  0  0  0
   -2.6363   12.1156   -0.6591 H   0  0  0  0  0  0  0  0  0  0  0  0
   -0.8961   12.3417   -0.0636 H   0  0  0  0  0  0  0  0  0  0  0  0
   -1.8822   12.3289   -2.9301 H   0  0  0  0  0  0  0  0  0  0  0  0
   -1.1752   13.6986   -1.9863 H   0  0  0  0  0  0  0  0  0  0  0  0
    0.8228   12.4712   -0.4789 H   0  0  0  0  0  0  0  0  0  0  0  0
    2.1986   12.1379   -1.5847 H   0  0  0  0  0  0  0  0  0  0  0  0
    1.4179   13.7557   -1.5847 H   0  0  0  0  0  0  0  0  0  0  0  0
  1  2  1  0
  2  3  1  0
  3  4  1  0
  4  5  1  0
  5  6  1  0
  6  7  1  0
  7  8  1  0
  7  9  1  0
  2 10  1  0
 10 11  1  0
 11 12  1  0
 12 13  1  0
 13 14  1  6
 13 15  1  0
 15 16  1  0
 16 17  1  0
 17 18  2  0
 18 19  1  0
 19 20  1  0
 20 21  1  0
 21 22  1  0
 22 23  1  0
 22 24  1  0
 24 25  1  0
 24 26  1  0
 19 27  1  0
 27 28  1  1
 27 29  1  0
 29 30  1  0
 30 31  1  0
 31 32  1  1
  7  5  1  0
 31 10  1  0
 31 13  1  0
 27 15  1  0
 24 18  1  0
  1 33  1  0
  1 34  1  0
  1 35  1  0
  2 36  1  6
  3 37  1  0
  3 38  1  0
  4 39  1  0
  4 40  1  0
  5 41  1  1
  8 42  1  0
  8 43  1  0
  8 44  1  0
  9 45  1  0
  9 46  1  0
  9 47  1  0
 10 48  1  6
 11 49  1  0
 11 50  1  0
 12 51  1  0
 12 52  1  0
 14 53  1  0
 14 54  1  0
 14 55  1  0
 15 56  1  1
 16 57  1  0
 16 58  1  0
 17 59  1  0
 19 60  1  6
 20 61  1  0
 20 62  1  0
 21 63  1  0
 21 64  1  0
 22 65  1  6
 23 66  1  0
 25 67  1  0
 25 68  1  0
 25 69  1  0
 26 70  1  0
 26 71  1  0
 26 72  1  0
 28 73  1  0
 28 74  1  0
 28 75  1  0
 29 76  1  0
 29 77  1  0
 30 78  1  0
 30 79  1  0
 32 80  1  0
 32 81  1  0
 32 82  1  0
M  END
>  <meeko>  (18) 
{"is_sidechain": [false], "intermolecular_energy": 2.731, "internal_energy": -0.839}

$$$$
EPH_relaxed_0001_pdb2pqr_Repair_32_r2_0001_out
     RDKit          3D

 82 86  0  0  0  0  0  0  0  0999 V2000
   -0.0590    9.3200   -4.2010 C   0  0  0  0  0  0  0  0  0  0  0  0
    0.1170    9.5300   -2.6940 C   0  0  2  0  0  0  0  0  0  0  0  0
   -0.6670    8.4900   -1.8680 C   0  0  0  0  0  0  0  0  0  0  0  0
   -2.1850    8.5810   -2.0440 C   0  0  0  0  0  0  0  0  0  0  0  0
   -2.7480    7.3330   -2.6530 C   0  0  2  0  0  0  0  0  0  0  0  0
   -3.7860    7.5520   -3.6170 O   0  0  0  0  0  0  0  0  0  0  0  0
   -4.1700    6.8560   -2.4200 C   0  0  0  0  0  0  0  0  0  0  0  0
   -5.1160    7.6210   -1.5480 C   0  0  0  0  0  0  0  0  0  0  0  0
   -4.4840    5.4090   -2.6380 C   0  0  0  0  0  0  0  0  0  0  0  0
   -0.3230   10.9380   -2.3110 C   0  0  1  0  0  0  0  0  0  0  0  0
   -1.5370   10.9430   -1.3450 C   0  0  0  0  0  0  0  0  0  0  0  0
   -1.3430   12.1480   -0.3890 C   0  0  0  0  0  0  0  0  0  0  0  0
   -0.2150   12.9830   -1.0370 C   0  0  1  0  0  0  0  0  0  0  0  0
   -0.9230   13.8180   -2.1500 C   0  0  0  0  0  0  0  0  0  0  0  0
    0.6140   13.8920   -0.0730 C   0  0  2  0  0  0  0  0  0  0  0  0
   -0.1900   14.9960    0.6360 C   0  0  0  0  0  0  0  0  0  0  0  0
   -0.2540   16.3010   -0.0860 C   0  0  0  0  0  0  0  0  0  0  0  0
    0.5390   16.6690   -1.1090 C   0  0  0  0  0  0  0  0  0  0  0  0
    1.6900   15.7690   -1.5760 C   0  0  1  0  0  0  0  0  0  0  0  0
    2.9720   16.6220   -1.7630 C   0  0  0  0  0  0  0  0  0  0  0  0
    2.7510   17.8150   -2.6880 C   0  0  0  0  0  0  0  0  0  0  0  0
    1.6390   18.7170   -2.1600 C   0  0  2  0  0  0  0  0  0  0  0  0
    2.0760   19.3180   -0.9370 O   0  0  0  0  0  0  0  0  0  0  0  0
    0.3000   17.9640   -1.9230 C   0  0  0  0  0  0  0  0  0  0  0  0
   -0.3250   17.5740   -3.2850 C   0  0  0  0  0  0  0  0  0  0  0  0
   -0.6930   18.9550   -1.2580 C   0  0  0  0  0  0  0  0  0  0  0  0
    1.9470   14.4640   -0.7060 C   0  0  1  0  0  0  0  0  0  0  0  0
    2.8980   14.7970    0.4840 C   0  0  0  0  0  0  0  0  0  0  0  0
    2.6960   13.3970   -1.5880 C   0  0  0  0  0  0  0  0  0  0  0  0
    1.8170   12.4490   -2.4280 C   0  0  0  0  0  0  0  0  0  0  0  0
    0.7080   11.8290   -1.5730 C   0  0  2  0  0  0  0  0  0  0  0  0
    1.3900   10.9640   -0.4580 C   0  0  0  0  0  0  0  0  0  0  0  0
   -0.7565    8.4877   -4.3762 H   0  0  0  0  0  0  0  0  0  0  0  0
   -0.4618   10.2377   -4.6545 H   0  0  0  0  0  0  0  0  0  0  0  0
    0.9149    9.0838   -4.6545 H   0  0  0  0  0  0  0  0  0  0  0  0
    1.1845    9.3984   -2.4634 H   0  0  0  0  0  0  0  0  0  0  0  0
   -0.3414    7.4854   -2.1758 H   0  0  0  0  0  0  0  0  0  0  0  0
   -0.4537    8.6945   -0.8084 H   0  0  0  0  0  0  0  0  0  0  0  0
   -2.6493    8.7379   -1.0592 H   0  0  0  0  0  0  0  0  0  0  0  0
   -2.4021    9.4208   -2.7204 H   0  0  0  0  0  0  0  0  0  0  0  0
   -1.7759    6.8252   -2.5678 H   0  0  0  0  0  0  0  0  0  0  0  0
   -4.8779    7.4285   -0.4915 H   0  0  0  0  0  0  0  0  0  0  0  0
   -5.0179    8.6967   -1.7559 H   0  0  0  0  0  0  0  0  0  0  0  0
   -6.1474    7.3000   -1.7559 H   0  0  0  0  0  0  0  0  0  0  0  0
   -4.5930    4.9069   -1.6654 H   0  0  0  0  0  0  0  0  0  0  0  0
   -5.4226    5.3188   -3.2044 H   0  0  0  0  0  0  0  0  0  0  0  0
   -3.6672    4.9378   -3.2044 H   0  0  0  0  0  0  0  0  0  0  0  0
   -0.5256   11.3463   -3.3121 H   0  0  0  0  0  0  0  0  0  0  0  0
   -2.4723   11.0566   -1.9127 H   0  0  0  0  0  0  0  0  0  0  0  0
   -1.5987    9.9992   -0.7833 H   0  0  0  0  0  0  0  0  0  0  0  0
   -2.2687   12.7375   -0.3147 H   0  0  0  0  0  0  0  0  0  0  0  0
   -1.0925   11.8321    0.6345 H   0  0  0  0  0  0  0  0  0  0  0  0
   -1.5674   14.5780   -1.6842 H   0  0  0  0  0  0  0  0  0  0  0  0
   -0.1652   14.3130   -2.7750 H   0  0  0  0  0  0  0  0  0  0  0  0
   -1.5352   13.1513   -2.7750 H   0  0  0  0  0  0  0  0  0  0  0  0
    0.9129   13.1863    0.7161 H   0  0  0  0  0  0  0  0  0  0  0  0
   -1.2191   14.6324    0.7731 H   0  0  0  0  0  0  0  0  0  0  0  0
    0.3357   15.1963    1.5813 H   0  0  0  0  0  0  0  0  0  0  0  0
   -1.0141   17.0233    0.2465 H   0  0  0  0  0  0  0  0  0  0  0  0
    1.3753   15.3514   -2.5438 H   0  0  0  0  0  0  0  0  0  0  0  0
    3.2949   16.9936   -0.7793 H   0  0  0  0  0  0  0  0  0  0  0  0
    3.7365   15.9792   -2.2238 H   0  0  0  0  0  0  0  0  0  0  0  0
    3.6831   18.3951   -2.7560 H   0  0  0  0  0  0  0  0  0  0  0  0
    2.4575   17.4403   -3.6797 H   0  0  0  0  0  0  0  0  0  0  0  0
    1.4385   19.4785   -2.9280 H   0  0  0  0  0  0  0  0  0  0  0  0
    1.5150   20.0950   -0.7740 H   0  0  0  0  0  0  0  0  0  0  0  0
   -1.2469   16.9987   -3.1141 H   0  0  0  0  0  0  0  0  0  0  0  0
   -0.5615   18.4851   -3.8542 H   0  0  0  0  0  0  0  0  0  0  0  0
    0.3894   16.9611   -3.8542 H   0  0  0  0  0  0  0  0  0  0  0  0
   -0.6131   18.8753   -0.1638 H   0  0  0  0  0  0  0  0  0  0  0  0
   -0.4503   19.9817   -1.5695 H   0  0  0  0  0  0  0  0  0  0  0  0
   -1.7192   18.7102   -1.5695 H   0  0  0  0  0  0  0  0  0  0  0  0
    2.3746   14.6137    1.4340 H   0  0  0  0  0  0  0  0  0  0  0  0
    3.7920   14.1584    0.4287 H   0  0  0  0  0  0  0  0  0  0  0  0
    3.1983   15.8538    0.4287 H   0  0  0  0  0  0  0  0  0  0  0  0
    3.3548   13.9412   -2.2807 H   0  0  0  0  0  0  0  0  0  0  0  0
    3.2178   12.7461   -0.8711 H   0  0  0  0  0  0  0  0  0  0  0  0
    1.3610   13.0169   -3.2523 H   0  0  0  0  0  0  0  0  0  0  0  0
    2.4501   11.6403   -2.8219 H   0  0  0  0  0  0  0  0  0  0  0  0
    1.0928   11.3410    0.5317 H   0  0  0  0  0  0  0  0  0  0  0  0
    1.0727    9.9159   -0.5616 H   0  0  0  0  0  0  0  0  0  0  0  0
    2.4832   11.0280   -0.5616 H   0  0  0  0  0  0  0  0  0  0  0  0
  1  2  1  0
  2  3  1  0
  3  4  1  0
  4  5  1  0
  5  6  1  0
  6  7  1  0
  7  8  1  0
  7  9  1  0
  2 10  1  0
 10 11  1  0
 11 12  1  0
 12 13  1  0
 13 14  1  6
 13 15  1  0
 15 16  1  0
 16 17  1  0
 17 18  2  0
 18 19  1  0
 19 20  1  0
 20 21  1  0
 21 22  1  0
 22 23  1  0
 22 24  1  0
 24 25  1  0
 24 26  1  0
 19 27  1  0
 27 28  1  1
 27 29  1  0
 29 30  1  0
 30 31  1  0
 31 32  1  1
  7  5  1  0
 31 10  1  0
 31 13  1  0
 27 15  1  0
 24 18  1  0
  1 33  1  0
  1 34  1  0
  1 35  1  0
  2 36  1  6
  3 37  1  0
  3 38  1  0
  4 39  1  0
  4 40  1  0
  5 41  1  6
  8 42  1  0
  8 43  1  0
  8 44  1  0
  9 45  1  0
  9 46  1  0
  9 47  1  0
 10 48  1  6
 11 49  1  0
 11 50  1  0
 12 51  1  0
 12 52  1  0
 14 53  1  0
 14 54  1  0
 14 55  1  0
 15 56  1  1
 16 57  1  0
 16 58  1  0
 17 59  1  0
 19 60  1  6
 20 61  1  0
 20 62  1  0
 21 63  1  0
 21 64  1  0
 22 65  1  6
 23 66  1  0
 25 67  1  0
 25 68  1  0
 25 69  1  0
 26 70  1  0
 26 71  1  0
 26 72  1  0
 28 73  1  0
 28 74  1  0
 28 75  1  0
 29 76  1  0
 29 77  1  0
 30 78  1  0
 30 79  1  0
 32 80  1  0
 32 81  1  0
 32 82  1  0
M  END
>  <meeko>  (19) 
{"is_sidechain": [false], "intermolecular_energy": 2.731, "internal_energy": -0.839}

$$$$
EPH_relaxed_0001_pdb2pqr_Repair_32_r2_0001_out
     RDKit          3D

 82 86  0  0  0  0  0  0  0  0999 V2000
   -2.4710    7.8290   -0.0330 C   0  0  0  0  0  0  0  0  0  0  0  0
   -3.0910    9.2290   -0.0390 C   0  0  2  0  0  0  0  0  0  0  0  0
   -4.5790    9.2030   -0.4390 C   0  0  0  0  0  0  0  0  0  0  0  0
   -5.0590    7.8390   -0.9410 C   0  0  0  0  0  0  0  0  0  0  0  0
   -6.5390    7.8220   -1.1740 C   0  0  2  0  0  0  0  0  0  0  0  0
   -7.1650    6.5510   -0.9600 O   0  0  0  0  0  0  0  0  0  0  0  0
   -7.1990    7.0560   -2.3050 C   0  0  0  0  0  0  0  0  0  0  0  0
   -6.3940    6.2520   -3.2770 C   0  0  0  0  0  0  0  0  0  0  0  0
   -8.5630    7.4780   -2.7560 C   0  0  0  0  0  0  0  0  0  0  0  0
   -2.3130   10.1370   -0.9850 C   0  0  1  0  0  0  0  0  0  0  0  0
   -2.9400   11.5520   -1.1050 C   0  0  0  0  0  0  0  0  0  0  0  0
   -1.7650   12.5490   -1.2730 C   0  0  0  0  0  0  0  0  0  0  0  0
   -0.5380   11.6580   -1.5760 C   0  0  1  0  0  0  0  0  0  0  0  0
   -0.6440   11.3320   -3.0990 C   0  0  0  0  0  0  0  0  0  0  0  0
    0.8590   12.2580   -1.2110 C   0  0  2  0  0  0  0  0  0  0  0  0
    1.2380   13.5400   -1.9730 C   0  0  0  0  0  0  0  0  0  0  0  0
    1.9780   13.3260   -3.2520 C   0  0  0  0  0  0  0  0  0  0  0  0
    2.5730   12.1790   -3.6290 C   0  0  0  0  0  0  0  0  0  0  0  0
    2.6200   10.9690   -2.6860 C   0  0  1  0  0  0  0  0  0  0  0  0
    4.0560   10.3820   -2.6700 C   0  0  0  0  0  0  0  0  0  0  0  0
    4.5690   10.0520   -4.0680 C   0  0  0  0  0  0  0  0  0  0  0  0
    4.5610   11.2920   -4.9580 C   0  0  2  0  0  0  0  0  0  0  0  0
    5.5250   12.2240   -4.4590 O   0  0  0  0  0  0  0  0  0  0  0  0
    3.1680   11.9760   -5.0440 C   0  0  0  0  0  0  0  0  0  0  0  0
    2.1990   11.0830   -5.8560 C   0  0  0  0  0  0  0  0  0  0  0  0
    3.3310   13.2900   -5.8560 C   0  0  0  0  0  0  0  0  0  0  0  0
    2.0410   11.2060   -1.2250 C   0  0  1  0  0  0  0  0  0  0  0  0
    3.1560   11.7760   -0.2970 C   0  0  0  0  0  0  0  0  0  0  0  0
    1.6160    9.8200   -0.6100 C   0  0  0  0  0  0  0  0  0  0  0  0
    0.1830    9.3380   -0.9080 C   0  0  0  0  0  0  0  0  0  0  0  0
   -0.8380   10.4430   -0.6240 C   0  0  2  0  0  0  0  0  0  0  0  0
   -0.7690   10.7760    0.9050 C   0  0  0  0  0  0  0  0  0  0  0  0
   -2.3242    7.4975    1.0055 H   0  0  0  0  0  0  0  0  0  0  0  0
   -3.1429    7.1282   -0.5501 H   0  0  0  0  0  0  0  0  0  0  0  0
   -1.5005    7.8556   -0.5501 H   0  0  0  0  0  0  0  0  0  0  0  0
   -3.0320    9.6220    0.9867 H   0  0  0  0  0  0  0  0  0  0  0  0
   -5.1795    9.4802    0.4400 H   0  0  0  0  0  0  0  0  0  0  0  0
   -4.6999    9.9119   -1.2714 H   0  0  0  0  0  0  0  0  0  0  0  0
   -4.5469    7.6070   -1.8865 H   0  0  0  0  0  0  0  0  0  0  0  0
   -4.8252    7.0892   -0.1708 H   0  0  0  0  0  0  0  0  0  0  0  0
   -6.6266    8.8666   -0.8406 H   0  0  0  0  0  0  0  0  0  0  0  0
   -5.7201    5.5789   -2.7267 H   0  0  0  0  0  0  0  0  0  0  0  0
   -7.0698    5.6575   -3.9094 H   0  0  0  0  0  0  0  0  0  0  0  0
   -5.8004    6.9285   -3.9094 H   0  0  0  0  0  0  0  0  0  0  0  0
   -9.1954    7.6737   -1.8775 H   0  0  0  0  0  0  0  0  0  0  0  0
   -8.4824    8.3932   -3.3609 H   0  0  0  0  0  0  0  0  0  0  0  0
   -9.0133    6.6772   -3.3609 H   0  0  0  0  0  0  0  0  0  0  0  0
   -2.3579    9.5306   -1.9016 H   0  0  0  0  0  0  0  0  0  0  0  0
   -3.6046   11.5988   -1.9803 H   0  0  0  0  0  0  0  0  0  0  0  0
   -3.5400   11.7949   -0.2156 H   0  0  0  0  0  0  0  0  0  0  0  0
   -1.9583   13.2402   -2.1066 H   0  0  0  0  0  0  0  0  0  0  0  0
   -1.6167   13.1735   -0.3797 H   0  0  0  0  0  0  0  0  0  0  0  0
   -0.9818   10.2932   -3.2290 H   0  0  0  0  0  0  0  0  0  0  0  0
   -1.3666   12.0142   -3.5706 H   0  0  0  0  0  0  0  0  0  0  0  0
    0.3417   11.4588   -3.5706 H   0  0  0  0  0  0  0  0  0  0  0  0
    0.7173   12.5638   -0.1639 H   0  0  0  0  0  0  0  0  0  0  0  0
    0.3108   14.0850   -2.2038 H   0  0  0  0  0  0  0  0  0  0  0  0
    1.9225   14.0946   -1.3143 H   0  0  0  0  0  0  0  0  0  0  0  0
    2.0424   14.1779   -3.9449 H   0  0  0  0  0  0  0  0  0  0  0  0
    1.9191   10.2305   -3.1023 H   0  0  0  0  0  0  0  0  0  0  0  0
    4.7325   11.1178   -2.2108 H   0  0  0  0  0  0  0  0  0  0  0  0
    4.0269    9.4445   -2.0953 H   0  0  0  0  0  0  0  0  0  0  0  0
    5.5975    9.6691   -3.9931 H   0  0  0  0  0  0  0  0  0  0  0  0
    3.9085    9.2944   -4.5149 H   0  0  0  0  0  0  0  0  0  0  0  0
    4.8138   10.9672   -5.9781 H   0  0  0  0  0  0  0  0  0  0  0  0
    5.0510   13.0380   -4.2190 H   0  0  0  0  0  0  0  0  0  0  0  0
    1.5694   10.5028   -5.1654 H   0  0  0  0  0  0  0  0  0  0  0  0
    1.5608   11.7163   -6.4898 H   0  0  0  0  0  0  0  0  0  0  0  0
    2.7781   10.3953   -6.4898 H   0  0  0  0  0  0  0  0  0  0  0  0
    3.4362   14.1382   -5.1636 H   0  0  0  0  0  0  0  0  0  0  0  0
    4.2274   13.2206   -6.4897 H   0  0  0  0  0  0  0  0  0  0  0  0
    2.4448   13.4417   -6.4897 H   0  0  0  0  0  0  0  0  0  0  0  0
    2.8685   11.6290    0.7545 H   0  0  0  0  0  0  0  0  0  0  0  0
    4.1020   11.2509   -0.4953 H   0  0  0  0  0  0  0  0  0  0  0  0
    3.2844   12.8503   -0.4953 H   0  0  0  0  0  0  0  0  0  0  0  0
    2.3101    9.0583   -0.9947 H   0  0  0  0  0  0  0  0  0  0  0  0
    1.6499    9.9660    0.4797 H   0  0  0  0  0  0  0  0  0  0  0  0
    0.1140    9.0480   -1.9668 H   0  0  0  0  0  0  0  0  0  0  0  0
   -0.0401    8.4793   -0.2578 H   0  0  0  0  0  0  0  0  0  0  0  0
   -0.9583    9.8627    1.4881 H   0  0  0  0  0  0  0  0  0  0  0  0
    0.2293   11.1674    1.1503 H   0  0  0  0  0  0  0  0  0  0  0  0
   -1.5296   11.5318    1.1503 H   0  0  0  0  0  0  0  0  0  0  0  0
  1  2  1  0
  2  3  1  0
  3  4  1  0
  4  5  1  0
  5  6  1  0
  6  7  1  0
  7  8  1  0
  7  9  1  0
  2 10  1  0
 10 11  1  0
 11 12  1  0
 12 13  1  0
 13 14  1  6
 13 15  1  0
 15 16  1  0
 16 17  1  0
 17 18  2  0
 18 19  1  0
 19 20  1  0
 20 21  1  0
 21 22  1  0
 22 23  1  0
 22 24  1  0
 24 25  1  0
 24 26  1  0
 19 27  1  0
 27 28  1  1
 27 29  1  0
 29 30  1  0
 30 31  1  0
 31 32  1  1
  7  5  1  0
 31 10  1  0
 31 13  1  0
 27 15  1  0
 24 18  1  0
  1 33  1  0
  1 34  1  0
  1 35  1  0
  2 36  1  1
  3 37  1  0
  3 38  1  0
  4 39  1  0
  4 40  1  0
  5 41  1  1
  8 42  1  0
  8 43  1  0
  8 44  1  0
  9 45  1  0
  9 46  1  0
  9 47  1  0
 10 48  1  6
 11 49  1  0
 11 50  1  0
 12 51  1  0
 12 52  1  0
 14 53  1  0
 14 54  1  0
 14 55  1  0
 15 56  1  1
 16 57  1  0
 16 58  1  0
 17 59  1  0
 19 60  1  6
 20 61  1  0
 20 62  1  0
 21 63  1  0
 21 64  1  0
 22 65  1  6
 23 66  1  0
 25 67  1  0
 25 68  1  0
 25 69  1  0
 26 70  1  0
 26 71  1  0
 26 72  1  0
 28 73  1  0
 28 74  1  0
 28 75  1  0
 29 76  1  0
 29 77  1  0
 30 78  1  0
 30 79  1  0
 32 80  1  0
 32 81  1  0
 32 82  1  0
M  END
>  <meeko>  (20) 
{"is_sidechain": [false], "intermolecular_energy": 2.731, "internal_energy": -0.839}

$$$$
