EPH_relaxed_0001_pdb2pqr_Repair_202_r2_0001_out
     RDKit          3D

 82 86  0  0  0  0  0  0  0  0999 V2000
   -1.6010    8.4710   -1.8040 C   0  0  0  0  0  0  0  0  0  0  0  0
   -1.8950    9.0980   -0.4380 C   0  0  2  0  0  0  0  0  0  0  0  0
   -3.3240    9.6720   -0.3580 C   0  0  0  0  0  0  0  0  0  0  0  0
   -4.4080    8.6030   -0.1930 C   0  0  0  0  0  0  0  0  0  0  0  0
   -5.0240    8.2290   -1.5070 C   0  0  2  0  0  0  0  0  0  0  0  0
   -6.3330    8.7690   -1.7300 O   0  0  0  0  0  0  0  0  0  0  0  0
   -6.2450    7.3380   -1.6350 C   0  0  0  0  0  0  0  0  0  0  0  0
   -6.9230    6.7650   -0.4310 C   0  0  0  0  0  0  0  0  0  0  0  0
   -6.4830    6.6330   -2.9340 C   0  0  0  0  0  0  0  0  0  0  0  0
   -0.8780   10.1930   -0.1390 C   0  0  1  0  0  0  0  0  0  0  0  0
    0.3970    9.6480    0.5600 C   0  0  0  0  0  0  0  0  0  0  0  0
    1.5880   10.4910    0.0360 C   0  0  0  0  0  0  0  0  0  0  0  0
    0.9310   11.6930   -0.6810 C   0  0  1  0  0  0  0  0  0  0  0  0
    0.5650   12.6910    0.4620 C   0  0  0  0  0  0  0  0  0  0  0  0
    1.7820   12.3810   -1.7970 C   0  0  2  0  0  0  0  0  0  0  0  0
    3.0980   13.0180   -1.3160 C   0  0  0  0  0  0  0  0  0  0  0  0
    3.0000   14.4480   -0.9000 C   0  0  0  0  0  0  0  0  0  0  0  0
    1.9740   15.2740   -1.1770 C   0  0  0  0  0  0  0  0  0  0  0  0
    0.8100   14.8150   -2.0650 C   0  0  1  0  0  0  0  0  0  0  0  0
    0.4940   15.9140   -3.1140 C   0  0  0  0  0  0  0  0  0  0  0  0
    0.2390   17.2760   -2.4760 C   0  0  0  0  0  0  0  0  0  0  0  0
    1.4410   17.7240   -1.6490 C   0  0  2  0  0  0  0  0  0  0  0  0
    2.5420   17.9680   -2.5300 O   0  0  0  0  0  0  0  0  0  0  0  0
    1.8580   16.6920   -0.5640 C   0  0  0  0  0  0  0  0  0  0  0  0
    0.7890   16.6520    0.5550 C   0  0  0  0  0  0  0  0  0  0  0  0
    3.1650   17.2010    0.1020 C   0  0  0  0  0  0  0  0  0  0  0  0
    0.9630   13.3740   -2.7180 C   0  0  1  0  0  0  0  0  0  0  0  0
    1.7430   13.4800   -4.0640 C   0  0  0  0  0  0  0  0  0  0  0  0
   -0.4660   12.8180   -3.0750 C   0  0  0  0  0  0  0  0  0  0  0  0
   -1.2070   12.0430   -1.9680 C   0  0  0  0  0  0  0  0  0  0  0  0
   -0.3010   10.9770   -1.3450 C   0  0  2  0  0  0  0  0  0  0  0  0
    0.0660    9.9460   -2.4660 C   0  0  0  0  0  0  0  0  0  0  0  0
   -1.1379    7.4834   -1.6621 H   0  0  0  0  0  0  0  0  0  0  0  0
   -2.5402    8.3583   -2.3655 H   0  0  0  0  0  0  0  0  0  0  0  0
   -0.9138    9.1209   -2.3655 H   0  0  0  0  0  0  0  0  0  0  0  0
   -1.8161    8.3006    0.3156 H   0  0  0  0  0  0  0  0  0  0  0  0
   -3.3762   10.3553    0.5024 H   0  0  0  0  0  0  0  0  0  0  0  0
   -3.5191   10.1833   -1.3122 H   0  0  0  0  0  0  0  0  0  0  0  0
   -3.9581    7.7061    0.2577 H   0  0  0  0  0  0  0  0  0  0  0  0
   -5.1991    9.0142    0.4513 H   0  0  0  0  0  0  0  0  0  0  0  0
   -4.0355    8.1996   -1.9886 H   0  0  0  0  0  0  0  0  0  0  0  0
   -6.4516    7.1634    0.4796 H   0  0  0  0  0  0  0  0  0  0  0  0
   -7.9877    7.0411   -0.4436 H   0  0  0  0  0  0  0  0  0  0  0  0
   -6.8282    5.6692   -0.4436 H   0  0  0  0  0  0  0  0  0  0  0  0
   -6.8291    5.6077   -2.7367 H   0  0  0  0  0  0  0  0  0  0  0  0
   -7.2483    7.1739   -3.5099 H   0  0  0  0  0  0  0  0  0  0  0  0
   -5.5464    6.5994   -3.5099 H   0  0  0  0  0  0  0  0  0  0  0  0
   -1.4987   10.8580    0.4795 H   0  0  0  0  0  0  0  0  0  0  0  0
    0.3068    9.7565    1.6509 H   0  0  0  0  0  0  0  0  0  0  0  0
    0.5420    8.5798    0.3410 H   0  0  0  0  0  0  0  0  0  0  0  0
    2.2178   10.8336    0.8703 H   0  0  0  0  0  0  0  0  0  0  0  0
    2.2441    9.9147   -0.6329 H   0  0  0  0  0  0  0  0  0  0  0  0
    0.7405   12.2124    1.4368 H   0  0  0  0  0  0  0  0  0  0  0  0
    1.1915   13.5912    0.3774 H   0  0  0  0  0  0  0  0  0  0  0  0
   -0.4949   12.9727    0.3774 H   0  0  0  0  0  0  0  0  0  0  0  0
    2.0754   11.5287   -2.4275 H   0  0  0  0  0  0  0  0  0  0  0  0
    3.4616   12.4378   -0.4551 H   0  0  0  0  0  0  0  0  0  0  0  0
    3.7787   12.9986   -2.1798 H   0  0  0  0  0  0  0  0  0  0  0  0
    3.8367   14.8617   -0.3180 H   0  0  0  0  0  0  0  0  0  0  0  0
   -0.0509   14.6818   -1.3934 H   0  0  0  0  0  0  0  0  0  0  0  0
    1.3482   16.0011   -3.8016 H   0  0  0  0  0  0  0  0  0  0  0  0
   -0.4232   15.6164   -3.6433 H   0  0  0  0  0  0  0  0  0  0  0  0
    0.0514   18.0154   -3.2685 H   0  0  0  0  0  0  0  0  0  0  0  0
   -0.6339   17.1948   -1.8116 H   0  0  0  0  0  0  0  0  0  0  0  0
    1.1499   18.6401   -1.1142 H   0  0  0  0  0  0  0  0  0  0  0  0
    2.3350   17.5490   -3.3820 H   0  0  0  0  0  0  0  0  0  0  0  0
    1.2849   16.6706    1.5367 H   0  0  0  0  0  0  0  0  0  0  0  0
    0.1277   17.5260    0.4617 H   0  0  0  0  0  0  0  0  0  0  0  0
    0.1948   15.7310    0.4617 H   0  0  0  0  0  0  0  0  0  0  0  0
    3.0591   17.1598    1.1961 H   0  0  0  0  0  0  0  0  0  0  0  0
    4.0068   16.5650   -0.2091 H   0  0  0  0  0  0  0  0  0  0  0  0
    3.3550   18.2388   -0.2091 H   0  0  0  0  0  0  0  0  0  0  0  0
    2.8135   13.6255   -3.8570 H   0  0  0  0  0  0  0  0  0  0  0  0
    1.6038   12.5547   -4.6423 H   0  0  0  0  0  0  0  0  0  0  0  0
    1.3619   14.3346   -4.6423 H   0  0  0  0  0  0  0  0  0  0  0  0
   -1.0948   13.6746   -3.3594 H   0  0  0  0  0  0  0  0  0  0  0  0
   -0.2970   12.0837   -3.8764 H   0  0  0  0  0  0  0  0  0  0  0  0
   -1.5238   12.7481   -1.1854 H   0  0  0  0  0  0  0  0  0  0  0  0
   -2.0805   11.5443   -2.4134 H   0  0  0  0  0  0  0  0  0  0  0  0
    0.4008    9.0056   -2.0039 H   0  0  0  0  0  0  0  0  0  0  0  0
   -0.8187    9.7531   -3.0906 H   0  0  0  0  0  0  0  0  0  0  0  0
    0.8736   10.3554   -3.0906 H   0  0  0  0  0  0  0  0  0  0  0  0
  1  2  1  0
  2  3  1  0
  3  4  1  0
  4  5  1  0
  5  6  1  0
  6  7  1  0
  7  8  1  0
  7  9  1  0
  2 10  1  0
 10 11  1  0
 11 12  1  0
 12 13  1  0
 13 14  1  1
 13 15  1  0
 15 16  1  0
 16 17  1  0
 17 18  2  0
 18 19  1  0
 19 20  1  0
 20 21  1  0
 21 22  1  0
 22 23  1  0
 22 24  1  0
 24 25  1  0
 24 26  1  0
 19 27  1  0
 27 28  1  6
 27 29  1  0
 29 30  1  0
 30 31  1  0
 31 32  1  6
  7  5  1  0
 31 10  1  0
 31 13  1  0
 27 15  1  0
 24 18  1  0
  1 33  1  0
  1 34  1  0
  1 35  1  0
  2 36  1  1
  3 37  1  0
  3 38  1  0
  4 39  1  0
  4 40  1  0
  5 41  1  6
  8 42  1  0
  8 43  1  0
  8 44  1  0
  9 45  1  0
  9 46  1  0
  9 47  1  0
 10 48  1  1
 11 49  1  0
 11 50  1  0
 12 51  1  0
 12 52  1  0
 14 53  1  0
 14 54  1  0
 14 55  1  0
 15 56  1  6
 16 57  1  0
 16 58  1  0
 17 59  1  0
 19 60  1  1
 20 61  1  0
 20 62  1  0
 21 63  1  0
 21 64  1  0
 22 65  1  1
 23 66  1  0
 25 67  1  0
 25 68  1  0
 25 69  1  0
 26 70  1  0
 26 71  1  0
 26 72  1  0
 28 73  1  0
 28 74  1  0
 28 75  1  0
 29 76  1  0
 29 77  1  0
 30 78  1  0
 30 79  1  0
 32 80  1  0
 32 81  1  0
 32 82  1  0
M  END
>  <meeko>  (1) 
{"is_sidechain": [false], "intermolecular_energy": 2.731, "internal_energy": -0.839}

$$$$
EPH_relaxed_0001_pdb2pqr_Repair_202_r2_0001_out
     RDKit          3D

 82 86  0  0  0  0  0  0  0  0999 V2000
    4.1480   17.8210    0.1200 C   0  0  0  0  0  0  0  0  0  0  0  0
    2.7580   18.3090    0.5390 C   0  0  2  0  0  0  0  0  0  0  0  0
    2.7600   18.9230    1.9530 C   0  0  0  0  0  0  0  0  0  0  0  0
    3.8480   18.3560    2.8690 C   0  0  0  0  0  0  0  0  0  0  0  0
    4.6980   19.4420    3.4560 C   0  0  2  0  0  0  0  0  0  0  0  0
    5.7810   19.8730    2.6210 O   0  0  0  0  0  0  0  0  0  0  0  0
    6.1480   19.2430    3.8590 C   0  0  0  0  0  0  0  0  0  0  0  0
    6.8300   17.9220    3.6910 C   0  0  0  0  0  0  0  0  0  0  0  0
    6.7480   20.1820    4.8580 C   0  0  0  0  0  0  0  0  0  0  0  0
    1.7620   17.1570    0.4730 C   0  0  1  0  0  0  0  0  0  0  0  0
    0.3080   17.6380    0.2180 C   0  0  0  0  0  0  0  0  0  0  0  0
   -0.3720   16.5600   -0.6640 C   0  0  0  0  0  0  0  0  0  0  0  0
    0.5900   15.3500   -0.6120 C   0  0  1  0  0  0  0  0  0  0  0  0
    0.2620   14.6340    0.7360 C   0  0  0  0  0  0  0  0  0  0  0  0
    0.5230   14.3610   -1.8210 C   0  0  2  0  0  0  0  0  0  0  0  0
   -0.8280   13.6470   -2.0060 C   0  0  0  0  0  0  0  0  0  0  0  0
   -0.9630   12.3430   -1.2930 C   0  0  0  0  0  0  0  0  0  0  0  0
    0.0510   11.6290   -0.7700 C   0  0  0  0  0  0  0  0  0  0  0  0
    1.5070   12.0750   -0.9560 C   0  0  1  0  0  0  0  0  0  0  0  0
    2.3710   10.8600   -1.3810 C   0  0  0  0  0  0  0  0  0  0  0  0
    2.2400    9.6830   -0.4180 C   0  0  0  0  0  0  0  0  0  0  0  0
    0.7870    9.2310   -0.3050 C   0  0  2  0  0  0  0  0  0  0  0  0
    0.3750    8.6830   -1.5620 O   0  0  0  0  0  0  0  0  0  0  0  0
   -0.1810   10.3750    0.1080 C   0  0  0  0  0  0  0  0  0  0  0  0
    0.0730   10.7620    1.5860 C   0  0  0  0  0  0  0  0  0  0  0  0
   -1.6300    9.8200    0.0480 C   0  0  0  0  0  0  0  0  0  0  0  0
    1.7300   13.3400   -1.8920 C   0  0  1  0  0  0  0  0  0  0  0  0
    1.8440   12.8880   -3.3790 C   0  0  0  0  0  0  0  0  0  0  0  0
    3.1050   14.0140   -1.5260 C   0  0  0  0  0  0  0  0  0  0  0  0
    3.0850   15.0700   -0.4040 C   0  0  0  0  0  0  0  0  0  0  0  0
    1.9730   16.0970   -0.6370 C   0  0  2  0  0  0  0  0  0  0  0  0
    2.2880   16.8480   -1.9760 C   0  0  0  0  0  0  0  0  0  0  0  0
    4.7485   17.6102    1.0172 H   0  0  0  0  0  0  0  0  0  0  0  0
    4.0494   16.9037   -0.4791 H   0  0  0  0  0  0  0  0  0  0  0  0
    4.6444   18.5986   -0.4791 H   0  0  0  0  0  0  0  0  0  0  0  0
    2.4590   19.1005   -0.1639 H   0  0  0  0  0  0  0  0  0  0  0  0
    2.9150   20.0081    1.8602 H   0  0  0  0  0  0  0  0  0  0  0  0
    1.7918   18.6750    2.4124 H   0  0  0  0  0  0  0  0  0  0  0  0
    3.3701   17.7960    3.6863 H   0  0  0  0  0  0  0  0  0  0  0  0
    4.4952   17.7000    2.2683 H   0  0  0  0  0  0  0  0  0  0  0  0
    3.8337   19.8616    3.9916 H   0  0  0  0  0  0  0  0  0  0  0  0
    7.0506   17.4948    4.6804 H   0  0  0  0  0  0  0  0  0  0  0  0
    6.1724   17.2380    3.1346 H   0  0  0  0  0  0  0  0  0  0  0  0
    7.7685   18.0620    3.1346 H   0  0  0  0  0  0  0  0  0  0  0  0
    6.5222   19.8287    5.8750 H   0  0  0  0  0  0  0  0  0  0  0  0
    7.8382   20.2201    4.7167 H   0  0  0  0  0  0  0  0  0  0  0  0
    6.3245   21.1873    4.7167 H   0  0  0  0  0  0  0  0  0  0  0  0
    1.9354   16.7068    1.4616 H   0  0  0  0  0  0  0  0  0  0  0  0
   -0.2296   17.7410    1.1721 H   0  0  0  0  0  0  0  0  0  0  0  0
    0.2983   18.6189   -0.2797 H   0  0  0  0  0  0  0  0  0  0  0  0
   -1.3577   16.2903   -0.2569 H   0  0  0  0  0  0  0  0  0  0  0  0
   -0.5460   16.9109   -1.6919 H   0  0  0  0  0  0  0  0  0  0  0  0
    0.5579   15.2799    1.5758 H   0  0  0  0  0  0  0  0  0  0  0  0
   -0.8181   14.4328    0.7910 H   0  0  0  0  0  0  0  0  0  0  0  0
    0.8150   13.6847    0.7910 H   0  0  0  0  0  0  0  0  0  0  0  0
    0.6253   15.0364   -2.6832 H   0  0  0  0  0  0  0  0  0  0  0  0
   -1.6197   14.3177   -1.6406 H   0  0  0  0  0  0  0  0  0  0  0  0
   -0.9059   13.4166   -3.0788 H   0  0  0  0  0  0  0  0  0  0  0  0
   -1.9771   11.9304   -1.1858 H   0  0  0  0  0  0  0  0  0  0  0  0
    1.8397   12.4436    0.0256 H   0  0  0  0  0  0  0  0  0  0  0  0
    2.0524   10.5337   -2.3820 H   0  0  0  0  0  0  0  0  0  0  0  0
    3.4233   11.1804   -1.3754 H   0  0  0  0  0  0  0  0  0  0  0  0
    2.8500    8.8456   -0.7877 H   0  0  0  0  0  0  0  0  0  0  0  0
    2.5872   10.0018    0.5759 H   0  0  0  0  0  0  0  0  0  0  0  0
    0.7384    8.4757    0.4932 H   0  0  0  0  0  0  0  0  0  0  0  0
    1.1600    8.2930   -1.9830 H   0  0  0  0  0  0  0  0  0  0  0  0
   -0.4099   10.0262    2.2459 H   0  0  0  0  0  0  0  0  0  0  0  0
    1.1555   10.7745    1.7809 H   0  0  0  0  0  0  0  0  0  0  0  0
   -0.3462   11.7601    1.7809 H   0  0  0  0  0  0  0  0  0  0  0  0
   -2.0096    9.6746    1.0701 H   0  0  0  0  0  0  0  0  0  0  0  0
   -2.2747   10.5348   -0.4843 H   0  0  0  0  0  0  0  0  0  0  0  0
   -1.6322    8.8574   -0.4843 H   0  0  0  0  0  0  0  0  0  0  0  0
    2.1128   11.8221   -3.4186 H   0  0  0  0  0  0  0  0  0  0  0  0
    0.8789   13.0418   -3.8840 H   0  0  0  0  0  0  0  0  0  0  0  0
    2.6207   13.4811   -3.8840 H   0  0  0  0  0  0  0  0  0  0  0  0
    3.7957   13.2150   -1.2185 H   0  0  0  0  0  0  0  0  0  0  0  0
    3.4067   14.5617   -2.4310 H   0  0  0  0  0  0  0  0  0  0  0  0
    2.9147   14.5678    0.5597 H   0  0  0  0  0  0  0  0  0  0  0  0
    4.0517   15.5949   -0.3994 H   0  0  0  0  0  0  0  0  0  0  0  0
    2.7044   17.8408   -1.7504 H   0  0  0  0  0  0  0  0  0  0  0  0
    3.0186   16.2678   -2.5587 H   0  0  0  0  0  0  0  0  0  0  0  0
    1.3621   16.9625   -2.5587 H   0  0  0  0  0  0  0  0  0  0  0  0
  1  2  1  0
  2  3  1  0
  3  4  1  0
  4  5  1  0
  5  6  1  0
  6  7  1  0
  7  8  1  0
  7  9  1  0
  2 10  1  0
 10 11  1  0
 11 12  1  0
 12 13  1  0
 13 14  1  1
 13 15  1  0
 15 16  1  0
 16 17  1  0
 17 18  2  0
 18 19  1  0
 19 20  1  0
 20 21  1  0
 21 22  1  0
 22 23  1  0
 22 24  1  0
 24 25  1  0
 24 26  1  0
 19 27  1  0
 27 28  1  6
 27 29  1  0
 29 30  1  0
 30 31  1  0
 31 32  1  6
  7  5  1  0
 31 10  1  0
 31 13  1  0
 27 15  1  0
 24 18  1  0
  1 33  1  0
  1 34  1  0
  1 35  1  0
  2 36  1  6
  3 37  1  0
  3 38  1  0
  4 39  1  0
  4 40  1  0
  5 41  1  1
  8 42  1  0
  8 43  1  0
  8 44  1  0
  9 45  1  0
  9 46  1  0
  9 47  1  0
 10 48  1  1
 11 49  1  0
 11 50  1  0
 12 51  1  0
 12 52  1  0
 14 53  1  0
 14 54  1  0
 14 55  1  0
 15 56  1  6
 16 57  1  0
 16 58  1  0
 17 59  1  0
 19 60  1  1
 20 61  1  0
 20 62  1  0
 21 63  1  0
 21 64  1  0
 22 65  1  1
 23 66  1  0
 25 67  1  0
 25 68  1  0
 25 69  1  0
 26 70  1  0
 26 71  1  0
 26 72  1  0
 28 73  1  0
 28 74  1  0
 28 75  1  0
 29 76  1  0
 29 77  1  0
 30 78  1  0
 30 79  1  0
 32 80  1  0
 32 81  1  0
 32 82  1  0
M  END
>  <meeko>  (2) 
{"is_sidechain": [false], "intermolecular_energy": 2.731, "internal_energy": -0.839}

$$$$
EPH_relaxed_0001_pdb2pqr_Repair_202_r2_0001_out
     RDKit          3D

 82 86  0  0  0  0  0  0  0  0999 V2000
    2.9830   10.0170   -0.5580 C   0  0  0  0  0  0  0  0  0  0  0  0
    1.7650   10.6860   -1.2010 C   0  0  2  0  0  0  0  0  0  0  0  0
    1.4300   10.0810   -2.5790 C   0  0  0  0  0  0  0  0  0  0  0  0
    0.1020    9.3190   -2.6100 C   0  0  0  0  0  0  0  0  0  0  0  0
   -0.6730    9.5050   -1.3410 C   0  0  2  0  0  0  0  0  0  0  0  0
   -0.7750    8.3320   -0.5240 O   0  0  0  0  0  0  0  0  0  0  0  0
   -2.0060    8.8330   -1.0690 C   0  0  0  0  0  0  0  0  0  0  0  0
   -2.6410    7.9240   -2.0740 C   0  0  0  0  0  0  0  0  0  0  0  0
   -2.9170    9.4370   -0.0460 C   0  0  0  0  0  0  0  0  0  0  0  0
    2.0070   12.1850   -1.3360 C   0  0  1  0  0  0  0  0  0  0  0  0
    2.0460   12.6540   -2.8150 C   0  0  0  0  0  0  0  0  0  0  0  0
    1.4180   14.0710   -2.8510 C   0  0  0  0  0  0  0  0  0  0  0  0
    1.3450   14.5040   -1.3680 C   0  0  1  0  0  0  0  0  0  0  0  0
    2.7820   15.0110   -1.0280 C   0  0  0  0  0  0  0  0  0  0  0  0
    0.2570   15.5690   -1.0120 C   0  0  2  0  0  0  0  0  0  0  0  0
    0.4290   16.9330   -1.7020 C   0  0  0  0  0  0  0  0  0  0  0  0
    1.2480   17.9290   -0.9500 C   0  0  0  0  0  0  0  0  0  0  0  0
    1.5850   17.8430    0.3500 C   0  0  0  0  0  0  0  0  0  0  0  0
    1.0500   16.7050    1.2290 C   0  0  1  0  0  0  0  0  0  0  0  0
    0.5340   17.2870    2.5710 C   0  0  0  0  0  0  0  0  0  0  0  0
    1.5860   18.1300    3.2860 C   0  0  0  0  0  0  0  0  0  0  0  0
    2.0520   19.2850    2.4020 C   0  0  2  0  0  0  0  0  0  0  0  0
    0.9610   20.1940    2.2190 O   0  0  0  0  0  0  0  0  0  0  0  0
    2.5830   18.8210    1.0170 C   0  0  0  0  0  0  0  0  0  0  0  0
    3.9350   18.0880    1.1980 C   0  0  0  0  0  0  0  0  0  0  0  0
    2.8860   20.0890    0.1740 C   0  0  0  0  0  0  0  0  0  0  0  0
   -0.0030   15.7350    0.5400 C   0  0  1  0  0  0  0  0  0  0  0  0
   -1.4420   16.3170    0.6900 C   0  0  0  0  0  0  0  0  0  0  0  0
   -0.0020   14.3540    1.2980 C   0  0  0  0  0  0  0  0  0  0  0  0
    1.0150   13.3010    0.8210 C   0  0  0  0  0  0  0  0  0  0  0  0
    0.9590   13.1340   -0.7010 C   0  0  2  0  0  0  0  0  0  0  0  0
   -0.4670   12.6030   -1.0720 C   0  0  0  0  0  0  0  0  0  0  0  0
    2.8929   10.0665    0.5372 H   0  0  0  0  0  0  0  0  0  0  0  0
    3.0331    8.9648   -0.8746 H   0  0  0  0  0  0  0  0  0  0  0  0
    3.8979   10.5392   -0.8746 H   0  0  0  0  0  0  0  0  0  0  0  0
    0.9024   10.5057   -0.5427 H   0  0  0  0  0  0  0  0  0  0  0  0
    1.3790   10.8979   -3.3139 H   0  0  0  0  0  0  0  0  0  0  0  0
    2.2228    9.3552   -2.8129 H   0  0  0  0  0  0  0  0  0  0  0  0
   -0.5008    9.6873   -3.4532 H   0  0  0  0  0  0  0  0  0  0  0  0
    0.3238    8.2475   -2.7226 H   0  0  0  0  0  0  0  0  0  0  0  0
   -0.3460   10.5527   -1.2673 H   0  0  0  0  0  0  0  0  0  0  0  0
   -3.1954    7.1303   -1.5518 H   0  0  0  0  0  0  0  0  0  0  0  0
   -3.3334    8.5011   -2.7045 H   0  0  0  0  0  0  0  0  0  0  0  0
   -1.8609    7.4724   -2.7045 H   0  0  0  0  0  0  0  0  0  0  0  0
   -2.5495    9.1933    0.9617 H   0  0  0  0  0  0  0  0  0  0  0  0
   -2.9391   10.5293   -0.1740 H   0  0  0  0  0  0  0  0  0  0  0  0
   -3.9318    9.0322   -0.1740 H   0  0  0  0  0  0  0  0  0  0  0  0
    2.9635   12.2663   -0.7990 H   0  0  0  0  0  0  0  0  0  0  0  0
    3.0853   12.6909   -3.1735 H   0  0  0  0  0  0  0  0  0  0  0  0
    1.4925   11.9598   -3.4644 H   0  0  0  0  0  0  0  0  0  0  0  0
    2.0516   14.7619   -3.4264 H   0  0  0  0  0  0  0  0  0  0  0  0
    0.4308   14.0772   -3.3362 H   0  0  0  0  0  0  0  0  0  0  0  0
    2.9065   15.0549    0.0640 H   0  0  0  0  0  0  0  0  0  0  0  0
    3.5248   14.3207   -1.4543 H   0  0  0  0  0  0  0  0  0  0  0  0
    2.9271   16.0146   -1.4543 H   0  0  0  0  0  0  0  0  0  0  0  0
   -0.6543   15.1292   -1.4434 H   0  0  0  0  0  0  0  0  0  0  0  0
    0.9108   16.7628   -2.6761 H   0  0  0  0  0  0  0  0  0  0  0  0
   -0.5799   17.3645   -1.7790 H   0  0  0  0  0  0  0  0  0  0  0  0
    1.6065   18.8080   -1.5057 H   0  0  0  0  0  0  0  0  0  0  0  0
    1.9035   16.0366    1.4156 H   0  0  0  0  0  0  0  0  0  0  0  0
   -0.3443   17.9172    2.3676 H   0  0  0  0  0  0  0  0  0  0  0  0
    0.2818   16.4408    3.2270 H   0  0  0  0  0  0  0  0  0  0  0  0
    1.1531   18.5370    4.2117 H   0  0  0  0  0  0  0  0  0  0  0  0
    2.4518   17.4913    3.5151 H   0  0  0  0  0  0  0  0  0  0  0  0
    2.8949   19.7729    2.9134 H   0  0  0  0  0  0  0  0  0  0  0  0
    1.3240   21.0180    1.8530 H   0  0  0  0  0  0  0  0  0  0  0  0
    4.1486   17.9722    2.2708 H   0  0  0  0  0  0  0  0  0  0  0  0
    3.8803   17.0960    0.7259 H   0  0  0  0  0  0  0  0  0  0  0  0
    4.7365   18.6751    0.7259 H   0  0  0  0  0  0  0  0  0  0  0  0
    3.0884   20.9362    0.8458 H   0  0  0  0  0  0  0  0  0  0  0  0
    3.7657   19.9059   -0.4605 H   0  0  0  0  0  0  0  0  0  0  0  0
    2.0186   20.3234   -0.4605 H   0  0  0  0  0  0  0  0  0  0  0  0
   -1.6879   16.4164    1.7576 H   0  0  0  0  0  0  0  0  0  0  0  0
   -1.4898   17.3052    0.2091 H   0  0  0  0  0  0  0  0  0  0  0  0
   -2.1633   15.6399    0.2091 H   0  0  0  0  0  0  0  0  0  0  0  0
    0.2025   14.5572    2.3596 H   0  0  0  0  0  0  0  0  0  0  0  0
   -0.9892   13.9134    1.0948 H   0  0  0  0  0  0  0  0  0  0  0  0
    2.0268   13.6208    1.1109 H   0  0  0  0  0  0  0  0  0  0  0  0
    0.7669   12.3369    1.2888 H   0  0  0  0  0  0  0  0  0  0  0  0
   -1.0311   12.3930   -0.1513 H   0  0  0  0  0  0  0  0  0  0  0  0
   -0.9991   13.3632   -1.6626 H   0  0  0  0  0  0  0  0  0  0  0  0
   -0.3723   11.6799   -1.6626 H   0  0  0  0  0  0  0  0  0  0  0  0
  1  2  1  0
  2  3  1  0
  3  4  1  0
  4  5  1  0
  5  6  1  0
  6  7  1  0
  7  8  1  0
  7  9  1  0
  2 10  1  0
 10 11  1  0
 11 12  1  0
 12 13  1  0
 13 14  1  1
 13 15  1  0
 15 16  1  0
 16 17  1  0
 17 18  2  0
 18 19  1  0
 19 20  1  0
 20 21  1  0
 21 22  1  0
 22 23  1  0
 22 24  1  0
 24 25  1  0
 24 26  1  0
 19 27  1  0
 27 28  1  6
 27 29  1  0
 29 30  1  0
 30 31  1  0
 31 32  1  1
  7  5  1  0
 31 10  1  0
 31 13  1  0
 27 15  1  0
 24 18  1  0
  1 33  1  0
  1 34  1  0
  1 35  1  0
  2 36  1  1
  3 37  1  0
  3 38  1  0
  4 39  1  0
  4 40  1  0
  5 41  1  1
  8 42  1  0
  8 43  1  0
  8 44  1  0
  9 45  1  0
  9 46  1  0
  9 47  1  0
 10 48  1  1
 11 49  1  0
 11 50  1  0
 12 51  1  0
 12 52  1  0
 14 53  1  0
 14 54  1  0
 14 55  1  0
 15 56  1  6
 16 57  1  0
 16 58  1  0
 17 59  1  0
 19 60  1  1
 20 61  1  0
 20 62  1  0
 21 63  1  0
 21 64  1  0
 22 65  1  1
 23 66  1  0
 25 67  1  0
 25 68  1  0
 25 69  1  0
 26 70  1  0
 26 71  1  0
 26 72  1  0
 28 73  1  0
 28 74  1  0
 28 75  1  0
 29 76  1  0
 29 77  1  0
 30 78  1  0
 30 79  1  0
 32 80  1  0
 32 81  1  0
 32 82  1  0
M  END
>  <meeko>  (3) 
{"is_sidechain": [false], "intermolecular_energy": 2.731, "internal_energy": -0.839}

$$$$
EPH_relaxed_0001_pdb2pqr_Repair_202_r2_0001_out
     RDKit          3D

 82 86  0  0  0  0  0  0  0  0999 V2000
   -0.2780   11.0030   -3.7620 C   0  0  0  0  0  0  0  0  0  0  0  0
    0.9870   10.6540   -2.9740 C   0  0  2  0  0  0  0  0  0  0  0  0
    0.8900    9.2710   -2.3010 C   0  0  0  0  0  0  0  0  0  0  0  0
    0.4030    9.3250   -0.8500 C   0  0  0  0  0  0  0  0  0  0  0  0
   -0.9810    8.7680   -0.7080 C   0  0  2  0  0  0  0  0  0  0  0  0
   -1.8100    8.9230   -1.8680 O   0  0  0  0  0  0  0  0  0  0  0  0
   -2.2310    9.6280   -0.6890 C   0  0  0  0  0  0  0  0  0  0  0  0
   -2.1550   11.1180   -0.8110 C   0  0  0  0  0  0  0  0  0  0  0  0
   -3.4730    9.0720   -0.0650 C   0  0  0  0  0  0  0  0  0  0  0  0
    1.2580   11.7260   -1.9240 C   0  0  1  0  0  0  0  0  0  0  0  0
    2.5550   11.4570   -1.1160 C   0  0  0  0  0  0  0  0  0  0  0  0
    3.1830   12.8400   -0.8050 C   0  0  0  0  0  0  0  0  0  0  0  0
    2.0720   13.8590   -1.1480 C   0  0  1  0  0  0  0  0  0  0  0  0
    1.1340   13.8640    0.0990 C   0  0  0  0  0  0  0  0  0  0  0  0
    2.5480   15.3020   -1.5180 C   0  0  2  0  0  0  0  0  0  0  0  0
    3.2910   16.0510   -0.3990 C   0  0  0  0  0  0  0  0  0  0  0  0
    2.4270   16.8710    0.5020 C   0  0  0  0  0  0  0  0  0  0  0  0
    1.1540   17.2300    0.2510 C   0  0  0  0  0  0  0  0  0  0  0  0
    0.4880   16.8870   -1.0880 C   0  0  1  0  0  0  0  0  0  0  0  0
   -0.2470   18.1380   -1.6360 C   0  0  0  0  0  0  0  0  0  0  0  0
   -1.2300   18.7270   -0.6290 C   0  0  0  0  0  0  0  0  0  0  0  0
   -0.5200   19.1090    0.6670 C   0  0  2  0  0  0  0  0  0  0  0  0
    0.3750   20.1930    0.4010 O   0  0  0  0  0  0  0  0  0  0  0  0
    0.2630   17.9290    1.3070 C   0  0  0  0  0  0  0  0  0  0  0  0
   -0.7340   16.8860    1.8700 C   0  0  0  0  0  0  0  0  0  0  0  0
    1.0470   18.4830    2.5280 C   0  0  0  0  0  0  0  0  0  0  0  0
    1.4270   16.2060   -2.1740 C   0  0  1  0  0  0  0  0  0  0  0  0
    2.1660   17.3020   -3.0010 C   0  0  0  0  0  0  0  0  0  0  0  0
    0.5340   15.4050   -3.1950 C   0  0  0  0  0  0  0  0  0  0  0  0
    0.1980   13.9470   -2.8300 C   0  0  0  0  0  0  0  0  0  0  0  0
    1.4590   13.1780   -2.4260 C   0  0  2  0  0  0  0  0  0  0  0  0
    2.4130   13.1370   -3.6680 C   0  0  0  0  0  0  0  0  0  0  0  0
   -1.0957   11.2286   -3.0617 H   0  0  0  0  0  0  0  0  0  0  0  0
   -0.0848   11.8814   -4.3953 H   0  0  0  0  0  0  0  0  0  0  0  0
   -0.5626   10.1498   -4.3953 H   0  0  0  0  0  0  0  0  0  0  0  0
    1.8214   10.6146   -3.6898 H   0  0  0  0  0  0  0  0  0  0  0  0
    0.1890    8.6516   -2.8797 H   0  0  0  0  0  0  0  0  0  0  0  0
    1.9062    8.8501   -2.2835 H   0  0  0  0  0  0  0  0  0  0  0  0
    1.0894    8.7384   -0.2217 H   0  0  0  0  0  0  0  0  0  0  0  0
    0.3823   10.3786   -0.5346 H   0  0  0  0  0  0  0  0  0  0  0  0
   -0.6195    7.9770   -0.0345 H   0  0  0  0  0  0  0  0  0  0  0  0
   -2.1321   11.5674    0.1928 H   0  0  0  0  0  0  0  0  0  0  0  0
   -1.2416   11.3950   -1.3577 H   0  0  0  0  0  0  0  0  0  0  0  0
   -3.0355   11.4865   -1.3577 H   0  0  0  0  0  0  0  0  0  0  0  0
   -3.3826    9.1124    1.0305 H   0  0  0  0  0  0  0  0  0  0  0  0
   -4.3415    9.6673   -0.3835 H   0  0  0  0  0  0  0  0  0  0  0  0
   -3.6075    8.0278   -0.3835 H   0  0  0  0  0  0  0  0  0  0  0  0
    0.3269   11.6542   -1.3428 H   0  0  0  0  0  0  0  0  0  0  0  0
    2.3160   10.9304   -0.1803 H   0  0  0  0  0  0  0  0  0  0  0  0
    3.2522   10.8259   -1.6867 H   0  0  0  0  0  0  0  0  0  0  0  0
    3.4602   12.9106    0.2572 H   0  0  0  0  0  0  0  0  0  0  0  0
    4.1042   13.0184   -1.3790 H   0  0  0  0  0  0  0  0  0  0  0  0
    1.7424   13.8608    1.0154 H   0  0  0  0  0  0  0  0  0  0  0  0
    0.5040   14.7655    0.0803 H   0  0  0  0  0  0  0  0  0  0  0  0
    0.4944   12.9693    0.0803 H   0  0  0  0  0  0  0  0  0  0  0  0
    3.2995   15.1096   -2.2979 H   0  0  0  0  0  0  0  0  0  0  0  0
    3.8158   15.3067    0.2180 H   0  0  0  0  0  0  0  0  0  0  0  0
    3.9650   16.7597   -0.9024 H   0  0  0  0  0  0  0  0  0  0  0  0
    2.8681   17.2103    1.4509 H   0  0  0  0  0  0  0  0  0  0  0  0
   -0.2405   16.0918   -0.8711 H   0  0  0  0  0  0  0  0  0  0  0  0
    0.5010   18.9041   -1.8881 H   0  0  0  0  0  0  0  0  0  0  0  0
   -0.8218   17.8266   -2.5207 H   0  0  0  0  0  0  0  0  0  0  0  0
   -1.6952   19.6245   -1.0627 H   0  0  0  0  0  0  0  0  0  0  0  0
   -1.9945   17.9698   -0.4005 H   0  0  0  0  0  0  0  0  0  0  0  0
   -1.2932   19.4022    1.3924 H   0  0  0  0  0  0  0  0  0  0  0  0
    1.0900   20.1520    1.0580 H   0  0  0  0  0  0  0  0  0  0  0  0
   -0.7095   16.9116    2.9694 H   0  0  0  0  0  0  0  0  0  0  0  0
   -1.7495   17.1234    1.5202 H   0  0  0  0  0  0  0  0  0  0  0  0
   -0.4510   15.8822    1.5202 H   0  0  0  0  0  0  0  0  0  0  0  0
    0.5663   18.1433    3.4572 H   0  0  0  0  0  0  0  0  0  0  0  0
    2.0833   18.1155    2.4957 H   0  0  0  0  0  0  0  0  0  0  0  0
    1.0467   19.5825    2.4957 H   0  0  0  0  0  0  0  0  0  0  0  0
    2.6473   18.0158   -2.3163 H   0  0  0  0  0  0  0  0  0  0  0  0
    2.9307   16.8296   -3.6351 H   0  0  0  0  0  0  0  0  0  0  0  0
    1.4413   17.8338   -3.6351 H   0  0  0  0  0  0  0  0  0  0  0  0
   -0.4163   15.9483   -3.3032 H   0  0  0  0  0  0  0  0  0  0  0  0
    1.1356   15.3400   -4.1136 H   0  0  0  0  0  0  0  0  0  0  0  0
   -0.5118   13.9410   -1.9896 H   0  0  0  0  0  0  0  0  0  0  0  0
   -0.2436   13.4580   -3.7108 H   0  0  0  0  0  0  0  0  0  0  0  0
    3.4577   13.0921   -3.3266 H   0  0  0  0  0  0  0  0  0  0  0  0
    2.1870   12.2477   -4.2747 H   0  0  0  0  0  0  0  0  0  0  0  0
    2.2641   14.0424   -4.2747 H   0  0  0  0  0  0  0  0  0  0  0  0
  1  2  1  0
  2  3  1  0
  3  4  1  0
  4  5  1  0
  5  6  1  0
  6  7  1  0
  7  8  1  0
  7  9  1  0
  2 10  1  0
 10 11  1  0
 11 12  1  0
 12 13  1  0
 13 14  1  1
 13 15  1  0
 15 16  1  0
 16 17  1  0
 17 18  2  0
 18 19  1  0
 19 20  1  0
 20 21  1  0
 21 22  1  0
 22 23  1  0
 22 24  1  0
 24 25  1  0
 24 26  1  0
 19 27  1  0
 27 28  1  6
 27 29  1  0
 29 30  1  0
 30 31  1  0
 31 32  1  6
  7  5  1  0
 31 10  1  0
 31 13  1  0
 27 15  1  0
 24 18  1  0
  1 33  1  0
  1 34  1  0
  1 35  1  0
  2 36  1  6
  3 37  1  0
  3 38  1  0
  4 39  1  0
  4 40  1  0
  5 41  1  1
  8 42  1  0
  8 43  1  0
  8 44  1  0
  9 45  1  0
  9 46  1  0
  9 47  1  0
 10 48  1  1
 11 49  1  0
 11 50  1  0
 12 51  1  0
 12 52  1  0
 14 53  1  0
 14 54  1  0
 14 55  1  0
 15 56  1  6
 16 57  1  0
 16 58  1  0
 17 59  1  0
 19 60  1  1
 20 61  1  0
 20 62  1  0
 21 63  1  0
 21 64  1  0
 22 65  1  1
 23 66  1  0
 25 67  1  0
 25 68  1  0
 25 69  1  0
 26 70  1  0
 26 71  1  0
 26 72  1  0
 28 73  1  0
 28 74  1  0
 28 75  1  0
 29 76  1  0
 29 77  1  0
 30 78  1  0
 30 79  1  0
 32 80  1  0
 32 81  1  0
 32 82  1  0
M  END
>  <meeko>  (4) 
{"is_sidechain": [false], "intermolecular_energy": 2.731, "internal_energy": -0.839}

$$$$
EPH_relaxed_0001_pdb2pqr_Repair_202_r2_0001_out
     RDKit          3D

 82 86  0  0  0  0  0  0  0  0999 V2000
   -0.9400   20.1760   -0.7550 C   0  0  0  0  0  0  0  0  0  0  0  0
   -0.4550   19.1010    0.2210 C   0  0  2  0  0  0  0  0  0  0  0  0
    0.4390   19.6860    1.3330 C   0  0  0  0  0  0  0  0  0  0  0  0
    1.9030   19.8560    0.9200 C   0  0  0  0  0  0  0  0  0  0  0  0
    2.7790   20.1610    2.0970 C   0  0  2  0  0  0  0  0  0  0  0  0
    4.1830   20.1940    1.8070 O   0  0  0  0  0  0  0  0  0  0  0  0
    3.7460   19.1600    2.7020 C   0  0  0  0  0  0  0  0  0  0  0  0
    3.8850   17.7760    2.1480 C   0  0  0  0  0  0  0  0  0  0  0  0
    4.1910   19.3600    4.1180 C   0  0  0  0  0  0  0  0  0  0  0  0
    0.3000   18.0140   -0.5360 C   0  0  1  0  0  0  0  0  0  0  0  0
    1.7820   18.3900   -0.8010 C   0  0  0  0  0  0  0  0  0  0  0  0
    2.6000   17.0770   -0.7120 C   0  0  0  0  0  0  0  0  0  0  0  0
    1.5370   15.9530   -0.7300 C   0  0  1  0  0  0  0  0  0  0  0  0
    1.1710   15.7710   -2.2370 C   0  0  0  0  0  0  0  0  0  0  0  0
    1.9520   14.5980   -0.0700 C   0  0  2  0  0  0  0  0  0  0  0  0
    3.1390   13.8830   -0.7390 C   0  0  0  0  0  0  0  0  0  0  0  0
    2.7760   12.9210   -1.8210 C   0  0  0  0  0  0  0  0  0  0  0  0
    1.5440   12.4290   -2.0490 C   0  0  0  0  0  0  0  0  0  0  0  0
    0.3760   12.7610   -1.1100 C   0  0  1  0  0  0  0  0  0  0  0  0
   -0.4030   11.4630   -0.7730 C   0  0  0  0  0  0  0  0  0  0  0  0
   -0.8540   10.7110   -2.0210 C   0  0  0  0  0  0  0  0  0  0  0  0
    0.3400   10.3460   -2.8990 C   0  0  2  0  0  0  0  0  0  0  0  0
    1.1480    9.3910   -2.2060 O   0  0  0  0  0  0  0  0  0  0  0  0
    1.2060   11.5740   -3.2960 C   0  0  0  0  0  0  0  0  0  0  0  0
    0.4250   12.4620   -4.2960 C   0  0  0  0  0  0  0  0  0  0  0  0
    2.4530   11.0530   -4.0600 C   0  0  0  0  0  0  0  0  0  0  0  0
    0.7470   13.6050    0.1850 C   0  0  1  0  0  0  0  0  0  0  0  0
    1.1930   12.6490    1.3330 C   0  0  0  0  0  0  0  0  0  0  0  0
   -0.5420   14.3480    0.7000 C   0  0  0  0  0  0  0  0  0  0  0  0
   -0.8330   15.7350    0.0960 C   0  0  0  0  0  0  0  0  0  0  0  0
    0.4130   16.6250    0.1400 C   0  0  2  0  0  0  0  0  0  0  0  0
    0.7920   16.8430    1.6450 C   0  0  0  0  0  0  0  0  0  0  0  0
   -1.3281   21.0362   -0.1898 H   0  0  0  0  0  0  0  0  0  0  0  0
   -0.1015   20.5015   -1.3883 H   0  0  0  0  0  0  0  0  0  0  0  0
   -1.7389   19.7628   -1.3883 H   0  0  0  0  0  0  0  0  0  0  0  0
   -1.3434   18.6690    0.7049 H   0  0  0  0  0  0  0  0  0  0  0  0
    0.0412   20.6718    1.6157 H   0  0  0  0  0  0  0  0  0  0  0  0
    0.4218   18.9710    2.1687 H   0  0  0  0  0  0  0  0  0  0  0  0
    2.2508   18.9250    0.4485 H   0  0  0  0  0  0  0  0  0  0  0  0
    1.9654   20.7006    0.2180 H   0  0  0  0  0  0  0  0  0  0  0  0
    1.9990   20.7961    2.5423 H   0  0  0  0  0  0  0  0  0  0  0  0
    3.9574   17.0552    2.9758 H   0  0  0  0  0  0  0  0  0  0  0  0
    3.0062   17.5382    1.5306 H   0  0  0  0  0  0  0  0  0  0  0  0
    4.7935   17.7177    1.5306 H   0  0  0  0  0  0  0  0  0  0  0  0
    3.4056   19.0070    4.8025 H   0  0  0  0  0  0  0  0  0  0  0  0
    5.1153   18.7907    4.2958 H   0  0  0  0  0  0  0  0  0  0  0  0
    4.3789   20.4292    4.2958 H   0  0  0  0  0  0  0  0  0  0  0  0
   -0.3290   17.9450   -1.4358 H   0  0  0  0  0  0  0  0  0  0  0  0
    1.8868   18.8343   -1.8018 H   0  0  0  0  0  0  0  0  0  0  0  0
    2.1391   19.1279   -0.0675 H   0  0  0  0  0  0  0  0  0  0  0  0
    3.2788   16.9833   -1.5725 H   0  0  0  0  0  0  0  0  0  0  0  0
    3.2318   17.0393    0.1877 H   0  0  0  0  0  0  0  0  0  0  0  0
    0.1888   15.2826   -2.3194 H   0  0  0  0  0  0  0  0  0  0  0  0
    1.1333   16.7553   -2.7266 H   0  0  0  0  0  0  0  0  0  0  0  0
    1.9331   15.1469   -2.7266 H   0  0  0  0  0  0  0  0  0  0  0  0
    2.3150   14.9182    0.9178 H   0  0  0  0  0  0  0  0  0  0  0  0
    3.7972   14.6501   -1.1729 H   0  0  0  0  0  0  0  0  0  0  0  0
    3.6190   13.2861    0.0505 H   0  0  0  0  0  0  0  0  0  0  0  0
    3.5835   12.5858   -2.4885 H   0  0  0  0  0  0  0  0  0  0  0  0
   -0.2749   13.4519   -1.6659 H   0  0  0  0  0  0  0  0  0  0  0  0
    0.2490   10.8042   -0.1806 H   0  0  0  0  0  0  0  0  0  0  0  0
   -1.3046   11.7507   -0.2124 H   0  0  0  0  0  0  0  0  0  0  0  0
   -1.3732    9.7897   -1.7182 H   0  0  0  0  0  0  0  0  0  0  0  0
   -1.5285   11.3607   -2.5979 H   0  0  0  0  0  0  0  0  0  0  0  0
   -0.0557    9.9253   -3.8352 H   0  0  0  0  0  0  0  0  0  0  0  0
    2.0000    9.8150   -2.0060 H   0  0  0  0  0  0  0  0  0  0  0  0
   -0.2022   13.1751   -3.7408 H   0  0  0  0  0  0  0  0  0  0  0  0
    1.1356   13.0140   -4.9287 H   0  0  0  0  0  0  0  0  0  0  0  0
   -0.2132   11.8277   -4.9287 H   0  0  0  0  0  0  0  0  0  0  0  0
    3.2184   10.7332   -3.3376 H   0  0  0  0  0  0  0  0  0  0  0  0
    2.1658   10.1996   -4.6919 H   0  0  0  0  0  0  0  0  0  0  0  0
    2.8583   11.8570   -4.6919 H   0  0  0  0  0  0  0  0  0  0  0  0
    0.9750   13.1162    2.3047 H   0  0  0  0  0  0  0  0  0  0  0  0
    0.6454   11.6984    1.2521 H   0  0  0  0  0  0  0  0  0  0  0  0
    2.2732   12.4579    1.2521 H   0  0  0  0  0  0  0  0  0  0  0  0
   -1.4065   13.7030    0.4838 H   0  0  0  0  0  0  0  0  0  0  0  0
   -0.3598   14.5324    1.7690 H   0  0  0  0  0  0  0  0  0  0  0  0
   -1.1508   15.6124   -0.9499 H   0  0  0  0  0  0  0  0  0  0  0  0
   -1.6275   16.2148    0.6864 H   0  0  0  0  0  0  0  0  0  0  0  0
    0.0174   16.3974    2.2864 H   0  0  0  0  0  0  0  0  0  0  0  0
    1.7601   16.3637    1.8524 H   0  0  0  0  0  0  0  0  0  0  0  0
    0.8645   17.9208    1.8524 H   0  0  0  0  0  0  0  0  0  0  0  0
  1  2  1  0
  2  3  1  0
  3  4  1  0
  4  5  1  0
  5  6  1  0
  6  7  1  0
  7  8  1  0
  7  9  1  0
  2 10  1  0
 10 11  1  0
 11 12  1  0
 12 13  1  0
 13 14  1  6
 13 15  1  0
 15 16  1  0
 16 17  1  0
 17 18  2  0
 18 19  1  0
 19 20  1  0
 20 21  1  0
 21 22  1  0
 22 23  1  0
 22 24  1  0
 24 25  1  0
 24 26  1  0
 19 27  1  0
 27 28  1  1
 27 29  1  0
 29 30  1  0
 30 31  1  0
 31 32  1  1
  7  5  1  0
 31 10  1  0
 31 13  1  0
 27 15  1  0
 24 18  1  0
  1 33  1  0
  1 34  1  0
  1 35  1  0
  2 36  1  1
  3 37  1  0
  3 38  1  0
  4 39  1  0
  4 40  1  0
  5 41  1  1
  8 42  1  0
  8 43  1  0
  8 44  1  0
  9 45  1  0
  9 46  1  0
  9 47  1  0
 10 48  1  6
 11 49  1  0
 11 50  1  0
 12 51  1  0
 12 52  1  0
 14 53  1  0
 14 54  1  0
 14 55  1  0
 15 56  1  1
 16 57  1  0
 16 58  1  0
 17 59  1  0
 19 60  1  6
 20 61  1  0
 20 62  1  0
 21 63  1  0
 21 64  1  0
 22 65  1  6
 23 66  1  0
 25 67  1  0
 25 68  1  0
 25 69  1  0
 26 70  1  0
 26 71  1  0
 26 72  1  0
 28 73  1  0
 28 74  1  0
 28 75  1  0
 29 76  1  0
 29 77  1  0
 30 78  1  0
 30 79  1  0
 32 80  1  0
 32 81  1  0
 32 82  1  0
M  END
>  <meeko>  (5) 
{"is_sidechain": [false], "intermolecular_energy": 2.731, "internal_energy": -0.839}

$$$$
EPH_relaxed_0001_pdb2pqr_Repair_202_r2_0001_out
     RDKit          3D

 82 86  0  0  0  0  0  0  0  0999 V2000
    1.3190   10.4850   -0.2420 C   0  0  0  0  0  0  0  0  0  0  0  0
    1.5450   10.9340   -1.6880 C   0  0  2  0  0  0  0  0  0  0  0  0
    2.7050   10.1720   -2.3590 C   0  0  0  0  0  0  0  0  0  0  0  0
    3.3910   10.9570   -3.4800 C   0  0  0  0  0  0  0  0  0  0  0  0
    4.8680   11.0680   -3.2560 C   0  0  2  0  0  0  0  0  0  0  0  0
    5.5050   12.1320   -3.9740 O   0  0  0  0  0  0  0  0  0  0  0  0
    5.9010   10.7990   -4.3340 C   0  0  0  0  0  0  0  0  0  0  0  0
    5.4970   10.3970   -5.7180 C   0  0  0  0  0  0  0  0  0  0  0  0
    7.2960   10.4520   -3.9180 C   0  0  0  0  0  0  0  0  0  0  0  0
    1.8130   12.4340   -1.7310 C   0  0  1  0  0  0  0  0  0  0  0  0
    1.7950   13.0040   -3.1740 C   0  0  0  0  0  0  0  0  0  0  0  0
    1.1990   14.4320   -3.0840 C   0  0  0  0  0  0  0  0  0  0  0  0
    1.2040   14.7620   -1.5730 C   0  0  1  0  0  0  0  0  0  0  0  0
    2.6660   15.2160   -1.2670 C   0  0  0  0  0  0  0  0  0  0  0  0
    0.1580   15.8200   -1.0930 C   0  0  2  0  0  0  0  0  0  0  0  0
    0.3290   17.2260   -1.6950 C   0  0  0  0  0  0  0  0  0  0  0  0
    1.2050   18.1510   -0.9160 C   0  0  0  0  0  0  0  0  0  0  0  0
    1.5990   17.9680    0.3580 C   0  0  0  0  0  0  0  0  0  0  0  0
    1.0790   16.7820    1.1810 C   0  0  1  0  0  0  0  0  0  0  0  0
    0.6400   17.2790    2.5830 C   0  0  0  0  0  0  0  0  0  0  0  0
    1.7420   18.0500    3.3030 C   0  0  0  0  0  0  0  0  0  0  0  0
    2.1920   19.2540    2.4800 C   0  0  2  0  0  0  0  0  0  0  0  0
    1.1160   20.1940    2.4120 O   0  0  0  0  0  0  0  0  0  0  0  0
    2.6490   18.8770    1.0420 C   0  0  0  0  0  0  0  0  0  0  0  0
    3.9910   18.1070    1.1080 C   0  0  0  0  0  0  0  0  0  0  0  0
    2.9420   20.1940    0.2740 C   0  0  0  0  0  0  0  0  0  0  0  0
   -0.0270   15.8830    0.4780 C   0  0  1  0  0  0  0  0  0  0  0  0
   -1.4430   16.4820    0.7360 C   0  0  0  0  0  0  0  0  0  0  0  0
   -0.0220   14.4530    1.1380 C   0  0  0  0  0  0  0  0  0  0  0  0
    0.9480   13.4160    0.5420 C   0  0  0  0  0  0  0  0  0  0  0  0
    0.8180   13.3560   -0.9830 C   0  0  2  0  0  0  0  0  0  0  0  0
   -0.6360   12.8810   -1.3210 C   0  0  0  0  0  0  0  0  0  0  0  0
    1.7053   11.2525    0.4449 H   0  0  0  0  0  0  0  0  0  0  0  0
    0.2424   10.3438   -0.0659 H   0  0  0  0  0  0  0  0  0  0  0  0
    1.8469    9.5362   -0.0659 H   0  0  0  0  0  0  0  0  0  0  0  0
    0.6293   10.7036   -2.2523 H   0  0  0  0  0  0  0  0  0  0  0  0
    3.4559    9.9362   -1.5906 H   0  0  0  0  0  0  0  0  0  0  0  0
    2.2741    9.2691   -2.8164 H   0  0  0  0  0  0  0  0  0  0  0  0
    3.2132   10.4424   -4.4358 H   0  0  0  0  0  0  0  0  0  0  0  0
    2.9694   11.9729   -3.4945 H   0  0  0  0  0  0  0  0  0  0  0  0
    4.7625   10.6964   -2.2261 H   0  0  0  0  0  0  0  0  0  0  0  0
    4.7183    9.6221   -5.6621 H   0  0  0  0  0  0  0  0  0  0  0  0
    5.1044   11.2734   -6.2545 H   0  0  0  0  0  0  0  0  0  0  0  0
    6.3714   10.0001   -6.2545 H   0  0  0  0  0  0  0  0  0  0  0  0
    7.3580   10.4366   -2.8199 H   0  0  0  0  0  0  0  0  0  0  0  0
    7.5609    9.4606   -4.3142 H   0  0  0  0  0  0  0  0  0  0  0  0
    7.9945   11.2038   -4.3142 H   0  0  0  0  0  0  0  0  0  0  0  0
    2.7947   12.4594   -1.2354 H   0  0  0  0  0  0  0  0  0  0  0  0
    2.8174   13.0451   -3.5777 H   0  0  0  0  0  0  0  0  0  0  0  0
    1.1962   12.3678   -3.8423 H   0  0  0  0  0  0  0  0  0  0  0  0
    1.8215   15.1484   -3.6401 H   0  0  0  0  0  0  0  0  0  0  0  0
    0.1912   14.4918   -3.5208 H   0  0  0  0  0  0  0  0  0  0  0  0
    2.8152   15.2623   -0.1782 H   0  0  0  0  0  0  0  0  0  0  0  0
    3.3728   14.4950   -1.7036 H   0  0  0  0  0  0  0  0  0  0  0  0
    2.8401   16.2105   -1.7036 H   0  0  0  0  0  0  0  0  0  0  0  0
   -0.7816   15.4282   -1.5096 H   0  0  0  0  0  0  0  0  0  0  0  0
    0.7609   17.1150   -2.7005 H   0  0  0  0  0  0  0  0  0  0  0  0
   -0.6722   17.6816   -1.6935 H   0  0  0  0  0  0  0  0  0  0  0  0
    1.5583   19.0590   -1.4266 H   0  0  0  0  0  0  0  0  0  0  0  0
    1.9243   16.0851    1.2797 H   0  0  0  0  0  0  0  0  0  0  0  0
   -0.2327   17.9384    2.4659 H   0  0  0  0  0  0  0  0  0  0  0  0
    0.4006   16.3939    3.1907 H   0  0  0  0  0  0  0  0  0  0  0  0
    1.3614   18.3996    4.2740 H   0  0  0  0  0  0  0  0  0  0  0  0
    2.6031   17.3806    3.4460 H   0  0  0  0  0  0  0  0  0  0  0  0
    3.0679   19.6890    2.9834 H   0  0  0  0  0  0  0  0  0  0  0  0
    0.2860   19.6890    2.3740 H   0  0  0  0  0  0  0  0  0  0  0  0
    4.2704   17.9467    2.1598 H   0  0  0  0  0  0  0  0  0  0  0  0
    3.8809   17.1347    0.6056 H   0  0  0  0  0  0  0  0  0  0  0  0
    4.7749   18.6927    0.6056 H   0  0  0  0  0  0  0  0  0  0  0  0
    3.1226   21.0059    0.9939 H   0  0  0  0  0  0  0  0  0  0  0  0
    3.8322   20.0596   -0.3580 H   0  0  0  0  0  0  0  0  0  0  0  0
    2.0788   20.4497   -0.3580 H   0  0  0  0  0  0  0  0  0  0  0  0
   -1.6180   16.5560    1.8195 H   0  0  0  0  0  0  0  0  0  0  0  0
   -1.5052   17.4835    0.2853 H   0  0  0  0  0  0  0  0  0  0  0  0
   -2.2050   15.8291    0.2853 H   0  0  0  0  0  0  0  0  0  0  0  0
    0.2357   14.5777    2.2001 H   0  0  0  0  0  0  0  0  0  0  0  0
   -1.0272   14.0468    0.9519 H   0  0  0  0  0  0  0  0  0  0  0  0
    1.9791   13.6954    0.8044 H   0  0  0  0  0  0  0  0  0  0  0  0
    0.7001   12.4267    0.9541 H   0  0  0  0  0  0  0  0  0  0  0  0
   -1.1890   12.7003   -0.3874 H   0  0  0  0  0  0  0  0  0  0  0  0
   -1.1489   13.6583   -1.9064 H   0  0  0  0  0  0  0  0  0  0  0  0
   -0.5911   11.9508   -1.9064 H   0  0  0  0  0  0  0  0  0  0  0  0
  1  2  1  0
  2  3  1  0
  3  4  1  0
  4  5  1  0
  5  6  1  0
  6  7  1  0
  7  8  1  0
  7  9  1  0
  2 10  1  0
 10 11  1  0
 11 12  1  0
 12 13  1  0
 13 14  1  1
 13 15  1  0
 15 16  1  0
 16 17  1  0
 17 18  2  0
 18 19  1  0
 19 20  1  0
 20 21  1  0
 21 22  1  0
 22 23  1  0
 22 24  1  0
 24 25  1  0
 24 26  1  0
 19 27  1  0
 27 28  1  6
 27 29  1  0
 29 30  1  0
 30 31  1  0
 31 32  1  1
  7  5  1  0
 31 10  1  0
 31 13  1  0
 27 15  1  0
 24 18  1  0
  1 33  1  0
  1 34  1  0
  1 35  1  0
  2 36  1  6
  3 37  1  0
  3 38  1  0
  4 39  1  0
  4 40  1  0
  5 41  1  1
  8 42  1  0
  8 43  1  0
  8 44  1  0
  9 45  1  0
  9 46  1  0
  9 47  1  0
 10 48  1  1
 11 49  1  0
 11 50  1  0
 12 51  1  0
 12 52  1  0
 14 53  1  0
 14 54  1  0
 14 55  1  0
 15 56  1  6
 16 57  1  0
 16 58  1  0
 17 59  1  0
 19 60  1  1
 20 61  1  0
 20 62  1  0
 21 63  1  0
 21 64  1  0
 22 65  1  1
 23 66  1  0
 25 67  1  0
 25 68  1  0
 25 69  1  0
 26 70  1  0
 26 71  1  0
 26 72  1  0
 28 73  1  0
 28 74  1  0
 28 75  1  0
 29 76  1  0
 29 77  1  0
 30 78  1  0
 30 79  1  0
 32 80  1  0
 32 81  1  0
 32 82  1  0
M  END
>  <meeko>  (6) 
{"is_sidechain": [false], "intermolecular_energy": 2.731, "internal_energy": -0.839}

$$$$
EPH_relaxed_0001_pdb2pqr_Repair_202_r2_0001_out
     RDKit          3D

 82 86  0  0  0  0  0  0  0  0999 V2000
    2.0600   18.3080   -2.6800 C   0  0  0  0  0  0  0  0  0  0  0  0
    0.7050   17.9250   -2.0790 C   0  0  2  0  0  0  0  0  0  0  0  0
    0.6930   18.0580   -0.5430 C   0  0  0  0  0  0  0  0  0  0  0  0
    1.5100   19.2430   -0.0210 C   0  0  0  0  0  0  0  0  0  0  0  0
    2.8250   18.8020    0.5470 C   0  0  2  0  0  0  0  0  0  0  0  0
    2.8250   17.4780    1.0970 O   0  0  0  0  0  0  0  0  0  0  0  0
    3.0550   18.5500    2.0260 C   0  0  0  0  0  0  0  0  0  0  0  0
    1.9580   18.7330    3.0280 C   0  0  0  0  0  0  0  0  0  0  0  0
    4.4550   18.6030    2.5510 C   0  0  0  0  0  0  0  0  0  0  0  0
    0.3420   16.5010   -2.4820 C   0  0  1  0  0  0  0  0  0  0  0  0
    0.4530   16.2650   -4.0120 C   0  0  0  0  0  0  0  0  0  0  0  0
    0.9420   14.8070   -4.2060 C   0  0  0  0  0  0  0  0  0  0  0  0
    0.7780   14.1520   -2.8140 C   0  0  1  0  0  0  0  0  0  0  0  0
   -0.7330   13.7680   -2.7270 C   0  0  0  0  0  0  0  0  0  0  0  0
    1.7030   12.9290   -2.5120 C   0  0  2  0  0  0  0  0  0  0  0  0
    1.4940   11.7110   -3.4300 C   0  0  0  0  0  0  0  0  0  0  0  0
    0.4920   10.7150   -2.9490 C   0  0  0  0  0  0  0  0  0  0  0  0
   -0.0030   10.6440   -1.6990 C   0  0  0  0  0  0  0  0  0  0  0  0
    0.5180   11.5690   -0.5920 C   0  0  1  0  0  0  0  0  0  0  0  0
    0.7950   10.7390    0.6890 C   0  0  0  0  0  0  0  0  0  0  0  0
   -0.4170    9.9250    1.1320 C   0  0  0  0  0  0  0  0  0  0  0  0
   -0.8700    8.9760    0.0250 C   0  0  2  0  0  0  0  0  0  0  0  0
    0.1430    7.9850   -0.1760 O   0  0  0  0  0  0  0  0  0  0  0  0
   -1.1690    9.6980   -1.3180 C   0  0  0  0  0  0  0  0  0  0  0  0
   -2.4570   10.5470   -1.1770 C   0  0  0  0  0  0  0  0  0  0  0  0
   -1.4780    8.6140   -2.3850 C   0  0  0  0  0  0  0  0  0  0  0  0
    1.7410   12.5040   -0.9880 C   0  0  1  0  0  0  0  0  0  0  0  0
    3.0850   11.7450   -0.7710 C   0  0  0  0  0  0  0  0  0  0  0  0
    1.7710   13.7470   -0.0220 C   0  0  0  0  0  0  0  0  0  0  0  0
    0.9300   14.9700   -0.4350 C   0  0  0  0  0  0  0  0  0  0  0  0
    1.2020   15.3540   -1.8930 C   0  0  2  0  0  0  0  0  0  0  0  0
    2.7090   15.7670   -2.0070 C   0  0  0  0  0  0  0  0  0  0  0  0
    2.7763   18.5105   -1.8701 H   0  0  0  0  0  0  0  0  0  0  0  0
    2.4329   17.4801   -3.3009 H   0  0  0  0  0  0  0  0  0  0  0  0
    1.9443   19.2086   -3.3009 H   0  0  0  0  0  0  0  0  0  0  0  0
   -0.0439   18.6259   -2.4765 H   0  0  0  0  0  0  0  0  0  0  0  0
   -0.3490   18.1827   -0.2134 H   0  0  0  0  0  0  0  0  0  0  0  0
    1.1553   17.1457   -0.1379 H   0  0  0  0  0  0  0  0  0  0  0  0
    1.6960   19.9409   -0.8507 H   0  0  0  0  0  0  0  0  0  0  0  0
    0.9354   19.7289    0.7813 H   0  0  0  0  0  0  0  0  0  0  0  0
    3.3736   19.4031   -0.1930 H   0  0  0  0  0  0  0  0  0  0  0  0
    2.3740   18.6636    4.0439 H   0  0  0  0  0  0  0  0  0  0  0  0
    1.4947   19.7208    2.8882 H   0  0  0  0  0  0  0  0  0  0  0  0
    1.1992   17.9490    2.8882 H   0  0  0  0  0  0  0  0  0  0  0  0
    4.4344   18.6022    3.6508 H   0  0  0  0  0  0  0  0  0  0  0  0
    5.0139   17.7254    2.1941 H   0  0  0  0  0  0  0  0  0  0  0  0
    4.9460   19.5204    2.1941 H   0  0  0  0  0  0  0  0  0  0  0  0
   -0.6801   16.4509   -2.0786 H   0  0  0  0  0  0  0  0  0  0  0  0
   -0.5290   16.4016   -4.4884 H   0  0  0  0  0  0  0  0  0  0  0  0
    1.1511   16.9799   -4.4720 H   0  0  0  0  0  0  0  0  0  0  0  0
    0.3262   14.2872   -4.9547 H   0  0  0  0  0  0  0  0  0  0  0  0
    1.9790   14.7597   -4.5698 H   0  0  0  0  0  0  0  0  0  0  0  0
   -1.0318   13.6921   -1.6711 H   0  0  0  0  0  0  0  0  0  0  0  0
   -1.3370   14.5412   -3.2243 H   0  0  0  0  0  0  0  0  0  0  0  0
   -0.8946   12.8002   -3.2243 H   0  0  0  0  0  0  0  0  0  0  0  0
    2.7005   13.3220   -2.7579 H   0  0  0  0  0  0  0  0  0  0  0  0
    1.1632   12.0786   -4.4126 H   0  0  0  0  0  0  0  0  0  0  0  0
    2.4584   11.1828   -3.4593 H   0  0  0  0  0  0  0  0  0  0  0  0
    0.1269    9.9762   -3.6776 H   0  0  0  0  0  0  0  0  0  0  0  0
   -0.2855   12.2954   -0.4003 H   0  0  0  0  0  0  0  0  0  0  0  0
    1.6288   10.0498    0.4892 H   0  0  0  0  0  0  0  0  0  0  0  0
    1.0375   11.4440    1.4978 H   0  0  0  0  0  0  0  0  0  0  0  0
   -0.1503    9.3377    2.0231 H   0  0  0  0  0  0  0  0  0  0  0  0
   -1.2408   10.6172    1.3605 H   0  0  0  0  0  0  0  0  0  0  0  0
   -1.8154    8.5175    0.3507 H   0  0  0  0  0  0  0  0  0  0  0  0
    0.5470    8.1510   -1.0450 H   0  0  0  0  0  0  0  0  0  0  0  0
   -2.6831   10.6960   -0.1108 H   0  0  0  0  0  0  0  0  0  0  0  0
   -2.3070   11.5238   -1.6600 H   0  0  0  0  0  0  0  0  0  0  0  0
   -3.2956   10.0240   -1.6600 H   0  0  0  0  0  0  0  0  0  0  0  0
   -1.7464    7.6723   -1.8839 H   0  0  0  0  0  0  0  0  0  0  0  0
   -2.3170    8.9469   -3.0137 H   0  0  0  0  0  0  0  0  0  0  0  0
   -0.5895    8.4545   -3.0137 H   0  0  0  0  0  0  0  0  0  0  0  0
    3.2754   11.6375    0.3070 H   0  0  0  0  0  0  0  0  0  0  0  0
    3.0224   10.7489   -1.2334 H   0  0  0  0  0  0  0  0  0  0  0  0
    3.9057   12.3130   -1.2334 H   0  0  0  0  0  0  0  0  0  0  0  0
    1.4103   13.4123    0.9618 H   0  0  0  0  0  0  0  0  0  0  0  0
    2.8137   14.0972   -0.0369 H   0  0  0  0  0  0  0  0  0  0  0  0
   -0.1370   14.7290   -0.3192 H   0  0  0  0  0  0  0  0  0  0  0  0
    1.2045   15.8186    0.2088 H   0  0  0  0  0  0  0  0  0  0  0  0
    3.1345   15.8836   -0.9993 H   0  0  0  0  0  0  0  0  0  0  0  0
    3.2627   14.9875   -2.5509 H   0  0  0  0  0  0  0  0  0  0  0  0
    2.7879   16.7199   -2.5509 H   0  0  0  0  0  0  0  0  0  0  0  0
  1  2  1  0
  2  3  1  0
  3  4  1  0
  4  5  1  0
  5  6  1  0
  6  7  1  0
  7  8  1  0
  7  9  1  0
  2 10  1  0
 10 11  1  0
 11 12  1  0
 12 13  1  0
 13 14  1  1
 13 15  1  0
 15 16  1  0
 16 17  1  0
 17 18  2  0
 18 19  1  0
 19 20  1  0
 20 21  1  0
 21 22  1  0
 22 23  1  0
 22 24  1  0
 24 25  1  0
 24 26  1  0
 19 27  1  0
 27 28  1  6
 27 29  1  0
 29 30  1  0
 30 31  1  0
 31 32  1  1
  7  5  1  0
 31 10  1  0
 31 13  1  0
 27 15  1  0
 24 18  1  0
  1 33  1  0
  1 34  1  0
  1 35  1  0
  2 36  1  6
  3 37  1  0
  3 38  1  0
  4 39  1  0
  4 40  1  0
  5 41  1  6
  8 42  1  0
  8 43  1  0
  8 44  1  0
  9 45  1  0
  9 46  1  0
  9 47  1  0
 10 48  1  1
 11 49  1  0
 11 50  1  0
 12 51  1  0
 12 52  1  0
 14 53  1  0
 14 54  1  0
 14 55  1  0
 15 56  1  6
 16 57  1  0
 16 58  1  0
 17 59  1  0
 19 60  1  1
 20 61  1  0
 20 62  1  0
 21 63  1  0
 21 64  1  0
 22 65  1  1
 23 66  1  0
 25 67  1  0
 25 68  1  0
 25 69  1  0
 26 70  1  0
 26 71  1  0
 26 72  1  0
 28 73  1  0
 28 74  1  0
 28 75  1  0
 29 76  1  0
 29 77  1  0
 30 78  1  0
 30 79  1  0
 32 80  1  0
 32 81  1  0
 32 82  1  0
M  END
>  <meeko>  (7) 
{"is_sidechain": [false], "intermolecular_energy": 2.731, "internal_energy": -0.839}

$$$$
EPH_relaxed_0001_pdb2pqr_Repair_202_r2_0001_out
     RDKit          3D

 82 86  0  0  0  0  0  0  0  0999 V2000
    1.8820   17.9550   -1.5060 C   0  0  0  0  0  0  0  0  0  0  0  0
    0.7870   17.9330   -2.5770 C   0  0  2  0  0  0  0  0  0  0  0  0
   -0.4450   18.7630   -2.1640 C   0  0  0  0  0  0  0  0  0  0  0  0
   -0.5040   19.0740   -0.6660 C   0  0  0  0  0  0  0  0  0  0  0  0
   -1.2980   18.0480    0.0830 C   0  0  2  0  0  0  0  0  0  0  0  0
   -1.6770   18.4350    1.4100 O   0  0  0  0  0  0  0  0  0  0  0  0
   -0.7790   17.3180    1.3080 C   0  0  0  0  0  0  0  0  0  0  0  0
    0.5890   17.5850    1.8530 C   0  0  0  0  0  0  0  0  0  0  0  0
   -1.4010   16.0080    1.6780 C   0  0  0  0  0  0  0  0  0  0  0  0
    0.3740   16.4950   -2.8680 C   0  0  1  0  0  0  0  0  0  0  0  0
    0.3680   16.1720   -4.3860 C   0  0  0  0  0  0  0  0  0  0  0  0
    0.8190   14.6950   -4.5300 C   0  0  0  0  0  0  0  0  0  0  0  0
    0.7480   14.1240   -3.0950 C   0  0  1  0  0  0  0  0  0  0  0  0
   -0.7570   13.7740   -2.8750 C   0  0  0  0  0  0  0  0  0  0  0  0
    1.6750   12.9020   -2.7910 C   0  0  2  0  0  0  0  0  0  0  0  0
    1.3800   11.6380   -3.6180 C   0  0  0  0  0  0  0  0  0  0  0  0
    0.4010   10.6900   -3.0080 C   0  0  0  0  0  0  0  0  0  0  0  0
   -0.0010   10.7000   -1.7240 C   0  0  0  0  0  0  0  0  0  0  0  0
    0.6150   11.6760   -0.7130 C   0  0  1  0  0  0  0  0  0  0  0  0
    0.9730   10.9150    0.5900 C   0  0  0  0  0  0  0  0  0  0  0  0
   -0.2150   10.1510    1.1660 C   0  0  0  0  0  0  0  0  0  0  0  0
   -0.7630    9.1490    0.1530 C   0  0  2  0  0  0  0  0  0  0  0  0
    0.2170    8.1300   -0.0640 O   0  0  0  0  0  0  0  0  0  0  0  0
   -1.1490    9.8010   -1.2050 C   0  0  0  0  0  0  0  0  0  0  0  0
   -2.4100   10.6800   -1.0190 C   0  0  0  0  0  0  0  0  0  0  0  0
   -1.5530    8.6640   -2.1820 C   0  0  0  0  0  0  0  0  0  0  0  0
    1.8190   12.5640   -1.2520 C   0  0  1  0  0  0  0  0  0  0  0  0
    3.1640   11.7920   -1.0890 C   0  0  0  0  0  0  0  0  0  0  0  0
    1.9400   13.8590   -0.3640 C   0  0  0  0  0  0  0  0  0  0  0  0
    1.0890   15.0720   -0.7850 C   0  0  0  0  0  0  0  0  0  0  0  0
    1.2570   15.3680   -2.2790 C   0  0  2  0  0  0  0  0  0  0  0  0
    2.7580   15.7440   -2.5260 C   0  0  0  0  0  0  0  0  0  0  0  0
    1.4192   17.9457   -0.5082 H   0  0  0  0  0  0  0  0  0  0  0  0
    2.5246   17.0696   -1.6204 H   0  0  0  0  0  0  0  0  0  0  0  0
    2.4885   18.8655   -1.6204 H   0  0  0  0  0  0  0  0  0  0  0  0
    1.2032   18.3909   -3.4864 H   0  0  0  0  0  0  0  0  0  0  0  0
   -0.4234   19.7145   -2.7156 H   0  0  0  0  0  0  0  0  0  0  0  0
   -1.3334   18.1597   -2.4021 H   0  0  0  0  0  0  0  0  0  0  0  0
    0.5203   19.0938   -0.2656 H   0  0  0  0  0  0  0  0  0  0  0  0
   -0.9968   20.0490   -0.5378 H   0  0  0  0  0  0  0  0  0  0  0  0
   -1.7577   17.6895   -0.8498 H   0  0  0  0  0  0  0  0  0  0  0  0
    0.5535   17.5781    2.9524 H   0  0  0  0  0  0  0  0  0  0  0  0
    1.2816   16.8051    1.5036 H   0  0  0  0  0  0  0  0  0  0  0  0
    0.9375   18.5681    1.5036 H   0  0  0  0  0  0  0  0  0  0  0  0
   -1.4434   15.9187    2.7735 H   0  0  0  0  0  0  0  0  0  0  0  0
   -2.4197   15.9565    1.2662 H   0  0  0  0  0  0  0  0  0  0  0  0
   -0.7970   15.1860    1.2662 H   0  0  0  0  0  0  0  0  0  0  0  0
   -0.6155   16.4863   -2.3875 H   0  0  0  0  0  0  0  0  0  0  0  0
   -0.6442   16.3009   -4.7969 H   0  0  0  0  0  0  0  0  0  0  0  0
    1.0407   16.8462   -4.9363 H   0  0  0  0  0  0  0  0  0  0  0  0
    0.1417   14.1457   -5.2005 H   0  0  0  0  0  0  0  0  0  0  0  0
    1.8255   14.6066   -4.9648 H   0  0  0  0  0  0  0  0  0  0  0  0
   -0.9682   13.7249   -1.7966 H   0  0  0  0  0  0  0  0  0  0  0  0
   -1.3852   14.5500   -3.3367 H   0  0  0  0  0  0  0  0  0  0  0  0
   -0.9783   12.8004   -3.3367 H   0  0  0  0  0  0  0  0  0  0  0  0
    2.6572   13.2609   -3.1322 H   0  0  0  0  0  0  0  0  0  0  0  0
    0.9831   11.9553   -4.5936 H   0  0  0  0  0  0  0  0  0  0  0  0
    2.3315   11.0903   -3.6861 H   0  0  0  0  0  0  0  0  0  0  0  0
   -0.0279    9.9180   -3.6638 H   0  0  0  0  0  0  0  0  0  0  0  0
   -0.1606   12.4276   -0.5045 H   0  0  0  0  0  0  0  0  0  0  0  0
    1.7794   10.1998    0.3705 H   0  0  0  0  0  0  0  0  0  0  0  0
    1.2850   11.6599    1.3369 H   0  0  0  0  0  0  0  0  0  0  0  0
    0.1078    9.6107    2.0682 H   0  0  0  0  0  0  0  0  0  0  0  0
   -1.0093   10.8711    1.4121 H   0  0  0  0  0  0  0  0  0  0  0  0
   -1.6879    8.7269    0.5730 H   0  0  0  0  0  0  0  0  0  0  0  0
    0.3400    7.6550    0.7750 H   0  0  0  0  0  0  0  0  0  0  0  0
   -2.6064   10.8169    0.0546 H   0  0  0  0  0  0  0  0  0  0  0  0
   -2.2461   11.6606   -1.4897 H   0  0  0  0  0  0  0  0  0  0  0  0
   -3.2733   10.1870   -1.4897 H   0  0  0  0  0  0  0  0  0  0  0  0
   -1.8669    7.7805   -1.6067 H   0  0  0  0  0  0  0  0  0  0  0  0
   -2.3855    9.0037   -2.8157 H   0  0  0  0  0  0  0  0  0  0  0  0
   -0.6929    8.4022   -2.8157 H   0  0  0  0  0  0  0  0  0  0  0  0
    3.3862   11.6644   -0.0193 H   0  0  0  0  0  0  0  0  0  0  0  0
    3.0802   10.8045   -1.5664 H   0  0  0  0  0  0  0  0  0  0  0  0
    3.9744   12.3624   -1.5664 H   0  0  0  0  0  0  0  0  0  0  0  0
    1.6484   13.5878    0.6614 H   0  0  0  0  0  0  0  0  0  0  0  0
    2.9839   14.1875   -0.4749 H   0  0  0  0  0  0  0  0  0  0  0  0
    0.0302   14.8581   -0.5774 H   0  0  0  0  0  0  0  0  0  0  0  0
    1.4237   15.9504   -0.2137 H   0  0  0  0  0  0  0  0  0  0  0  0
    3.2678   15.8717   -1.5597 H   0  0  0  0  0  0  0  0  0  0  0  0
    3.2482   14.9409   -3.0959 H   0  0  0  0  0  0  0  0  0  0  0  0
    2.8117   16.6833   -3.0959 H   0  0  0  0  0  0  0  0  0  0  0  0
  1  2  1  0
  2  3  1  0
  3  4  1  0
  4  5  1  0
  5  6  1  0
  6  7  1  0
  7  8  1  0
  7  9  1  0
  2 10  1  0
 10 11  1  0
 11 12  1  0
 12 13  1  0
 13 14  1  1
 13 15  1  0
 15 16  1  0
 16 17  1  0
 17 18  2  0
 18 19  1  0
 19 20  1  0
 20 21  1  0
 21 22  1  0
 22 23  1  0
 22 24  1  0
 24 25  1  0
 24 26  1  0
 19 27  1  0
 27 28  1  6
 27 29  1  0
 29 30  1  0
 30 31  1  0
 31 32  1  1
  7  5  1  0
 31 10  1  0
 31 13  1  0
 27 15  1  0
 24 18  1  0
  1 33  1  0
  1 34  1  0
  1 35  1  0
  2 36  1  6
  3 37  1  0
  3 38  1  0
  4 39  1  0
  4 40  1  0
  5 41  1  6
  8 42  1  0
  8 43  1  0
  8 44  1  0
  9 45  1  0
  9 46  1  0
  9 47  1  0
 10 48  1  1
 11 49  1  0
 11 50  1  0
 12 51  1  0
 12 52  1  0
 14 53  1  0
 14 54  1  0
 14 55  1  0
 15 56  1  6
 16 57  1  0
 16 58  1  0
 17 59  1  0
 19 60  1  1
 20 61  1  0
 20 62  1  0
 21 63  1  0
 21 64  1  0
 22 65  1  1
 23 66  1  0
 25 67  1  0
 25 68  1  0
 25 69  1  0
 26 70  1  0
 26 71  1  0
 26 72  1  0
 28 73  1  0
 28 74  1  0
 28 75  1  0
 29 76  1  0
 29 77  1  0
 30 78  1  0
 30 79  1  0
 32 80  1  0
 32 81  1  0
 32 82  1  0
M  END
>  <meeko>  (8) 
{"is_sidechain": [false], "intermolecular_energy": 2.731, "internal_energy": -0.839}

$$$$
EPH_relaxed_0001_pdb2pqr_Repair_202_r2_0001_out
     RDKit          3D

 82 86  0  0  0  0  0  0  0  0999 V2000
   -0.2010    9.9440   -3.0030 C   0  0  0  0  0  0  0  0  0  0  0  0
    0.9430   10.9080   -3.3280 C   0  0  2  0  0  0  0  0  0  0  0  0
    2.2680   10.1680   -3.6010 C   0  0  0  0  0  0  0  0  0  0  0  0
    3.2540   10.9660   -4.4570 C   0  0  0  0  0  0  0  0  0  0  0  0
    4.6050   11.0500   -3.8130 C   0  0  2  0  0  0  0  0  0  0  0  0
    5.4320   12.1180   -4.2930 O   0  0  0  0  0  0  0  0  0  0  0  0
    5.9030   10.7860   -4.5540 C   0  0  0  0  0  0  0  0  0  0  0  0
    5.9120   10.4170   -6.0040 C   0  0  0  0  0  0  0  0  0  0  0  0
    7.1150   10.4100   -3.7610 C   0  0  0  0  0  0  0  0  0  0  0  0
    1.1270   11.9010   -2.1860 C   0  0  1  0  0  0  0  0  0  0  0  0
    2.3460   11.5590   -1.2880 C   0  0  0  0  0  0  0  0  0  0  0  0
    2.9540   12.9090   -0.8270 C   0  0  0  0  0  0  0  0  0  0  0  0
    1.8830   13.9640   -1.1930 C   0  0  1  0  0  0  0  0  0  0  0  0
    0.8390   13.8940   -0.0350 C   0  0  0  0  0  0  0  0  0  0  0  0
    2.3990   15.4230   -1.4170 C   0  0  2  0  0  0  0  0  0  0  0  0
    3.0450   16.0830   -0.1870 C   0  0  0  0  0  0  0  0  0  0  0  0
    2.1110   16.8480    0.6910 C   0  0  0  0  0  0  0  0  0  0  0  0
    0.8670   17.2400    0.3560 C   0  0  0  0  0  0  0  0  0  0  0  0
    0.3200   17.0000   -1.0570 C   0  0  1  0  0  0  0  0  0  0  0  0
   -0.3560   18.2950   -1.5770 C   0  0  0  0  0  0  0  0  0  0  0  0
   -1.4210   18.8240   -0.6210 C   0  0  0  0  0  0  0  0  0  0  0  0
   -0.8250   19.1060    0.7560 C   0  0  2  0  0  0  0  0  0  0  0  0
    0.0970   20.1940    0.6460 O   0  0  0  0  0  0  0  0  0  0  0  0
   -0.1080   17.8740    1.3770 C   0  0  0  0  0  0  0  0  0  0  0  0
   -1.1580   16.8070    1.7750 C   0  0  0  0  0  0  0  0  0  0  0  0
    0.5680   18.3310    2.6980 C   0  0  0  0  0  0  0  0  0  0  0  0
    1.3460   16.3840   -2.1030 C   0  0  1  0  0  0  0  0  0  0  0  0
    2.1620   17.5260   -2.7830 C   0  0  0  0  0  0  0  0  0  0  0  0
    0.5420   15.6680   -3.2520 C   0  0  0  0  0  0  0  0  0  0  0  0
    0.1650   14.1930   -3.0210 C   0  0  0  0  0  0  0  0  0  0  0  0
    1.3810   13.3810   -2.5640 C   0  0  2  0  0  0  0  0  0  0  0  0
    2.4400   13.4150   -3.7180 C   0  0  0  0  0  0  0  0  0  0  0  0
   -0.3066    9.8550   -1.9117 H   0  0  0  0  0  0  0  0  0  0  0  0
   -1.1379   10.3290   -3.4319 H   0  0  0  0  0  0  0  0  0  0  0  0
    0.0196    8.9554   -3.4319 H   0  0  0  0  0  0  0  0  0  0  0  0
    0.6700   11.4455   -4.2481 H   0  0  0  0  0  0  0  0  0  0  0  0
    2.7468    9.9459   -2.6359 H   0  0  0  0  0  0  0  0  0  0  0  0
    2.0170    9.2574   -4.1648 H   0  0  0  0  0  0  0  0  0  0  0  0
    3.3555   10.4744   -5.4358 H   0  0  0  0  0  0  0  0  0  0  0  0
    2.8628   11.9881   -4.5681 H   0  0  0  0  0  0  0  0  0  0  0  0
    4.2036   10.6606   -2.8658 H   0  0  0  0  0  0  0  0  0  0  0  0
    5.9387    9.3218   -6.1035 H   0  0  0  0  0  0  0  0  0  0  0  0
    5.0041   10.8070   -6.4873 H   0  0  0  0  0  0  0  0  0  0  0  0
    6.7998   10.8508   -6.4873 H   0  0  0  0  0  0  0  0  0  0  0  0
    6.8871   10.4807   -2.6872 H   0  0  0  0  0  0  0  0  0  0  0  0
    7.4083    9.3786   -4.0064 H   0  0  0  0  0  0  0  0  0  0  0  0
    7.9406   11.0943   -4.0064 H   0  0  0  0  0  0  0  0  0  0  0  0
    0.1473   11.8016   -1.6958 H   0  0  0  0  0  0  0  0  0  0  0  0
    2.0215   10.9722   -0.4160 H   0  0  0  0  0  0  0  0  0  0  0  0
    3.0863   10.9595   -1.8381 H   0  0  0  0  0  0  0  0  0  0  0  0
    3.1377   12.9021    0.2575 H   0  0  0  0  0  0  0  0  0  0  0  0
    3.9232   13.1151   -1.3047 H   0  0  0  0  0  0  0  0  0  0  0  0
    1.3615   13.9290    0.9324 H   0  0  0  0  0  0  0  0  0  0  0  0
    0.1498   14.7479   -0.1106 H   0  0  0  0  0  0  0  0  0  0  0  0
    0.2699   12.9557   -0.1106 H   0  0  0  0  0  0  0  0  0  0  0  0
    3.2154   15.2762   -2.1394 H   0  0  0  0  0  0  0  0  0  0  0  0
    3.5092   15.2910    0.4191 H   0  0  0  0  0  0  0  0  0  0  0  0
    3.7644   16.8173   -0.5786 H   0  0  0  0  0  0  0  0  0  0  0  0
    2.4692   17.1139    1.6965 H   0  0  0  0  0  0  0  0  0  0  0  0
   -0.4294   16.2005   -0.9612 H   0  0  0  0  0  0  0  0  0  0  0  0
    0.4159   19.0678   -1.7073 H   0  0  0  0  0  0  0  0  0  0  0  0
   -0.8521   18.0535   -2.5286 H   0  0  0  0  0  0  0  0  0  0  0  0
   -1.8410   19.7551   -1.0292 H   0  0  0  0  0  0  0  0  0  0  0  0
   -2.2074   18.0622   -0.5144 H   0  0  0  0  0  0  0  0  0  0  0  0
   -1.6571   19.3577    1.4300 H   0  0  0  0  0  0  0  0  0  0  0  0
   -0.1870   20.7460   -0.1030 H   0  0  0  0  0  0  0  0  0  0  0  0
   -1.2196   16.7444    2.8715 H   0  0  0  0  0  0  0  0  0  0  0  0
   -2.1402   17.0894    1.3681 H   0  0  0  0  0  0  0  0  0  0  0  0
   -0.8598   15.8295    1.3681 H   0  0  0  0  0  0  0  0  0  0  0  0
   -0.0033   17.9448    3.5550 H   0  0  0  0  0  0  0  0  0  0  0  0
    1.5961   17.9419    2.7374 H   0  0  0  0  0  0  0  0  0  0  0  0
    0.5901   19.4301    2.7374 H   0  0  0  0  0  0  0  0  0  0  0  0
    2.6167   18.1624   -2.0095 H   0  0  0  0  0  0  0  0  0  0  0  0
    2.9532   17.0884   -3.4095 H   0  0  0  0  0  0  0  0  0  0  0  0
    1.4916   18.1327   -3.4095 H   0  0  0  0  0  0  0  0  0  0  0  0
   -0.3912   16.2299   -3.4051 H   0  0  0  0  0  0  0  0  0  0  0  0
    1.2221   15.6591   -4.1165 H   0  0  0  0  0  0  0  0  0  0  0  0
   -0.6156   14.1380   -2.2479 H   0  0  0  0  0  0  0  0  0  0  0  0
   -0.2014   13.7722   -3.9690 H   0  0  0  0  0  0  0  0  0  0  0  0
    3.4514   13.4475   -3.2867 H   0  0  0  0  0  0  0  0  0  0  0  0
    2.3349   12.5130   -4.3388 H   0  0  0  0  0  0  0  0  0  0  0  0
    2.2773   14.3084   -4.3388 H   0  0  0  0  0  0  0  0  0  0  0  0
  1  2  1  0
  2  3  1  0
  3  4  1  0
  4  5  1  0
  5  6  1  0
  6  7  1  0
  7  8  1  0
  7  9  1  0
  2 10  1  0
 10 11  1  0
 11 12  1  0
 12 13  1  0
 13 14  1  1
 13 15  1  0
 15 16  1  0
 16 17  1  0
 17 18  2  0
 18 19  1  0
 19 20  1  0
 20 21  1  0
 21 22  1  0
 22 23  1  0
 22 24  1  0
 24 25  1  0
 24 26  1  0
 19 27  1  0
 27 28  1  6
 27 29  1  0
 29 30  1  0
 30 31  1  0
 31 32  1  6
  7  5  1  0
 31 10  1  0
 31 13  1  0
 27 15  1  0
 24 18  1  0
  1 33  1  0
  1 34  1  0
  1 35  1  0
  2 36  1  6
  3 37  1  0
  3 38  1  0
  4 39  1  0
  4 40  1  0
  5 41  1  1
  8 42  1  0
  8 43  1  0
  8 44  1  0
  9 45  1  0
  9 46  1  0
  9 47  1  0
 10 48  1  1
 11 49  1  0
 11 50  1  0
 12 51  1  0
 12 52  1  0
 14 53  1  0
 14 54  1  0
 14 55  1  0
 15 56  1  6
 16 57  1  0
 16 58  1  0
 17 59  1  0
 19 60  1  1
 20 61  1  0
 20 62  1  0
 21 63  1  0
 21 64  1  0
 22 65  1  1
 23 66  1  0
 25 67  1  0
 25 68  1  0
 25 69  1  0
 26 70  1  0
 26 71  1  0
 26 72  1  0
 28 73  1  0
 28 74  1  0
 28 75  1  0
 29 76  1  0
 29 77  1  0
 30 78  1  0
 30 79  1  0
 32 80  1  0
 32 81  1  0
 32 82  1  0
M  END
>  <meeko>  (9) 
{"is_sidechain": [false], "intermolecular_energy": 2.731, "internal_energy": -0.839}

$$$$
EPH_relaxed_0001_pdb2pqr_Repair_202_r2_0001_out
     RDKit          3D

 82 86  0  0  0  0  0  0  0  0999 V2000
    2.1620   18.0570   -2.8120 C   0  0  0  0  0  0  0  0  0  0  0  0
    0.9600   17.6050   -1.9780 C   0  0  2  0  0  0  0  0  0  0  0  0
    1.2650   17.6130   -0.4670 C   0  0  0  0  0  0  0  0  0  0  0  0
    1.2680   19.0130    0.1530 C   0  0  0  0  0  0  0  0  0  0  0  0
   -0.0320   19.7240   -0.0770 C   0  0  2  0  0  0  0  0  0  0  0  0
   -0.6750   20.1940    1.1150 O   0  0  0  0  0  0  0  0  0  0  0  0
   -1.3740   19.1800    0.3750 C   0  0  0  0  0  0  0  0  0  0  0  0
   -1.4840   17.8710    1.0930 C   0  0  0  0  0  0  0  0  0  0  0  0
   -2.6120   19.6750   -0.3050 C   0  0  0  0  0  0  0  0  0  0  0  0
    0.5200   16.2120   -2.4140 C   0  0  1  0  0  0  0  0  0  0  0  0
    0.5860   16.0180   -3.9520 C   0  0  0  0  0  0  0  0  0  0  0  0
    1.0000   14.5450   -4.2000 C   0  0  0  0  0  0  0  0  0  0  0  0
    0.8360   13.8570   -2.8250 C   0  0  1  0  0  0  0  0  0  0  0  0
   -0.6890   13.5410   -2.7140 C   0  0  0  0  0  0  0  0  0  0  0  0
    1.7080   12.5820   -2.5810 C   0  0  2  0  0  0  0  0  0  0  0  0
    1.4210   11.4040   -3.5290 C   0  0  0  0  0  0  0  0  0  0  0  0
    0.3840   10.4420   -3.0540 C   0  0  0  0  0  0  0  0  0  0  0  0
   -0.0860   10.3570   -1.7950 C   0  0  0  0  0  0  0  0  0  0  0  0
    0.5030   11.2220   -0.6740 C   0  0  1  0  0  0  0  0  0  0  0  0
    0.7690   10.3410    0.5750 C   0  0  0  0  0  0  0  0  0  0  0  0
   -0.4710    9.5720    1.0220 C   0  0  0  0  0  0  0  0  0  0  0  0
   -0.9930    8.6790   -0.1010 C   0  0  2  0  0  0  0  0  0  0  0  0
   -0.0330    7.6490   -0.3550 O   0  0  0  0  0  0  0  0  0  0  0  0
   -1.2870    9.4560   -1.4150 C   0  0  0  0  0  0  0  0  0  0  0  0
   -2.5290   10.3590   -1.2190 C   0  0  0  0  0  0  0  0  0  0  0  0
   -1.6710    8.4200   -2.5060 C   0  0  0  0  0  0  0  0  0  0  0  0
    1.7600   12.1110   -1.0720 C   0  0  1  0  0  0  0  0  0  0  0  0
    3.0710   11.2820   -0.9080 C   0  0  0  0  0  0  0  0  0  0  0  0
    1.8710   13.3210   -0.0700 C   0  0  0  0  0  0  0  0  0  0  0  0
    1.0810   14.5940   -0.4280 C   0  0  0  0  0  0  0  0  0  0  0  0
    1.3370   15.0090   -1.8800 C   0  0  2  0  0  0  0  0  0  0  0  0
    2.8590   15.3540   -2.0170 C   0  0  0  0  0  0  0  0  0  0  0  0
    2.9785   18.3641   -2.1419 H   0  0  0  0  0  0  0  0  0  0  0  0
    2.5016   17.2252   -3.4466 H   0  0  0  0  0  0  0  0  0  0  0  0
    1.8693   18.9065   -3.4466 H   0  0  0  0  0  0  0  0  0  0  0  0
    0.1462   18.3240   -2.1533 H   0  0  0  0  0  0  0  0  0  0  0  0
    0.5017   17.0083    0.0445 H   0  0  0  0  0  0  0  0  0  0  0  0
    2.2783   17.2037   -0.3415 H   0  0  0  0  0  0  0  0  0  0  0  0
    1.4384   18.9229    1.2360 H   0  0  0  0  0  0  0  0  0  0  0  0
    2.0680   19.5979   -0.3245 H   0  0  0  0  0  0  0  0  0  0  0  0
    0.3204   20.1057   -1.0466 H   0  0  0  0  0  0  0  0  0  0  0  0
   -1.4693   18.0460    2.1789 H   0  0  0  0  0  0  0  0  0  0  0  0
   -2.4268   17.3778    0.8138 H   0  0  0  0  0  0  0  0  0  0  0  0
   -0.6368   17.2273    0.8138 H   0  0  0  0  0  0  0  0  0  0  0  0
   -3.3528   19.9712    0.4523 H   0  0  0  0  0  0  0  0  0  0  0  0
   -2.3631   20.5428   -0.9335 H   0  0  0  0  0  0  0  0  0  0  0  0
   -3.0300   18.8748   -0.9335 H   0  0  0  0  0  0  0  0  0  0  0  0
   -0.4941   16.1977   -1.9881 H   0  0  0  0  0  0  0  0  0  0  0  0
   -0.3985   16.2155   -4.4012 H   0  0  0  0  0  0  0  0  0  0  0  0
    1.3073   16.7128   -4.4070 H   0  0  0  0  0  0  0  0  0  0  0  0
    0.3434   14.0779   -4.9487 H   0  0  0  0  0  0  0  0  0  0  0  0
    2.0252   14.4597   -4.5895 H   0  0  0  0  0  0  0  0  0  0  0  0
   -0.9749   13.4818   -1.6535 H   0  0  0  0  0  0  0  0  0  0  0  0
   -1.2655   14.3388   -3.2052 H   0  0  0  0  0  0  0  0  0  0  0  0
   -0.9010   12.5798   -3.2052 H   0  0  0  0  0  0  0  0  0  0  0  0
    2.7176   12.9339   -2.8395 H   0  0  0  0  0  0  0  0  0  0  0  0
    1.0862   11.8166   -4.4922 H   0  0  0  0  0  0  0  0  0  0  0  0
    2.3584   10.8323   -3.5967 H   0  0  0  0  0  0  0  0  0  0  0  0
   -0.0317    9.7432   -3.7949 H   0  0  0  0  0  0  0  0  0  0  0  0
   -0.2605   11.9789   -0.4412 H   0  0  0  0  0  0  0  0  0  0  0  0
    1.5641    9.6197    0.3352 H   0  0  0  0  0  0  0  0  0  0  0  0
    1.0635   11.0083    1.3984 H   0  0  0  0  0  0  0  0  0  0  0  0
   -0.2135    8.9464    1.8893 H   0  0  0  0  0  0  0  0  0  0  0  0
   -1.2556   10.2953    1.2891 H   0  0  0  0  0  0  0  0  0  0  0  0
   -1.9513    8.2546    0.2331 H   0  0  0  0  0  0  0  0  0  0  0  0
   -0.5000    6.9100   -0.7800 H   0  0  0  0  0  0  0  0  0  0  0  0
   -2.7170   10.4957   -0.1438 H   0  0  0  0  0  0  0  0  0  0  0  0
   -2.3481   11.3379   -1.6869 H   0  0  0  0  0  0  0  0  0  0  0  0
   -3.4044    9.8851   -1.6869 H   0  0  0  0  0  0  0  0  0  0  0  0
   -2.0149    7.4921   -2.0257 H   0  0  0  0  0  0  0  0  0  0  0  0
   -2.4772    8.8291   -3.1326 H   0  0  0  0  0  0  0  0  0  0  0  0
   -0.7929    8.2048   -3.1326 H   0  0  0  0  0  0  0  0  0  0  0  0
    3.2870   11.1454    0.1619 H   0  0  0  0  0  0  0  0  0  0  0  0
    2.9453   10.2989   -1.3851 H   0  0  0  0  0  0  0  0  0  0  0  0
    3.9053   11.8171   -1.3851 H   0  0  0  0  0  0  0  0  0  0  0  0
    1.5158   12.9739    0.9115 H   0  0  0  0  0  0  0  0  0  0  0  0
    2.9288   13.6214   -0.0976 H   0  0  0  0  0  0  0  0  0  0  0  0
    0.0066   14.4003   -0.2934 H   0  0  0  0  0  0  0  0  0  0  0  0
    1.4116   15.4089    0.2328 H   0  0  0  0  0  0  0  0  0  0  0  0
    3.3037   15.4548   -1.0159 H   0  0  0  0  0  0  0  0  0  0  0  0
    3.3696   14.5488   -2.5656 H   0  0  0  0  0  0  0  0  0  0  0  0
    2.9725   16.3006   -2.5656 H   0  0  0  0  0  0  0  0  0  0  0  0
  1  2  1  0
  2  3  1  0
  3  4  1  0
  4  5  1  0
  5  6  1  0
  6  7  1  0
  7  8  1  0
  7  9  1  0
  2 10  1  0
 10 11  1  0
 11 12  1  0
 12 13  1  0
 13 14  1  1
 13 15  1  0
 15 16  1  0
 16 17  1  0
 17 18  2  0
 18 19  1  0
 19 20  1  0
 20 21  1  0
 21 22  1  0
 22 23  1  0
 22 24  1  0
 24 25  1  0
 24 26  1  0
 19 27  1  0
 27 28  1  6
 27 29  1  0
 29 30  1  0
 30 31  1  0
 31 32  1  1
  7  5  1  0
 31 10  1  0
 31 13  1  0
 27 15  1  0
 24 18  1  0
  1 33  1  0
  1 34  1  0
  1 35  1  0
  2 36  1  1
  3 37  1  0
  3 38  1  0
  4 39  1  0
  4 40  1  0
  5 41  1  6
  8 42  1  0
  8 43  1  0
  8 44  1  0
  9 45  1  0
  9 46  1  0
  9 47  1  0
 10 48  1  1
 11 49  1  0
 11 50  1  0
 12 51  1  0
 12 52  1  0
 14 53  1  0
 14 54  1  0
 14 55  1  0
 15 56  1  6
 16 57  1  0
 16 58  1  0
 17 59  1  0
 19 60  1  1
 20 61  1  0
 20 62  1  0
 21 63  1  0
 21 64  1  0
 22 65  1  1
 23 66  1  0
 25 67  1  0
 25 68  1  0
 25 69  1  0
 26 70  1  0
 26 71  1  0
 26 72  1  0
 28 73  1  0
 28 74  1  0
 28 75  1  0
 29 76  1  0
 29 77  1  0
 30 78  1  0
 30 79  1  0
 32 80  1  0
 32 81  1  0
 32 82  1  0
M  END
>  <meeko>  (10) 
{"is_sidechain": [false], "intermolecular_energy": 2.731, "internal_energy": -0.839}

$$$$
EPH_relaxed_0001_pdb2pqr_Repair_202_r2_0001_out
     RDKit          3D

 82 86  0  0  0  0  0  0  0  0999 V2000
    4.2740   17.3510   -0.0970 C   0  0  0  0  0  0  0  0  0  0  0  0
    2.8630   17.9400   -0.1910 C   0  0  2  0  0  0  0  0  0  0  0  0
    2.6120   19.0190    0.8800 C   0  0  0  0  0  0  0  0  0  0  0  0
    3.8370   19.3240    1.7460 C   0  0  0  0  0  0  0  0  0  0  0  0
    3.4480   19.8990    3.0750 C   0  0  2  0  0  0  0  0  0  0  0  0
    3.7580   19.0680    4.2010 O   0  0  0  0  0  0  0  0  0  0  0  0
    2.3630   19.3090    3.9560 C   0  0  0  0  0  0  0  0  0  0  0  0
    1.5980   18.0910    3.5430 C   0  0  0  0  0  0  0  0  0  0  0  0
    1.7150   20.1890    4.9790 C   0  0  0  0  0  0  0  0  0  0  0  0
    1.8270   16.8290   -0.0640 C   0  0  1  0  0  0  0  0  0  0  0  0
    0.3700   17.3620   -0.1150 C   0  0  0  0  0  0  0  0  0  0  0  0
   -0.4750   16.2860   -0.8440 C   0  0  0  0  0  0  0  0  0  0  0  0
    0.4390   15.0390   -0.8930 C   0  0  1  0  0  0  0  0  0  0  0  0
    0.2940   14.3800    0.5150 C   0  0  0  0  0  0  0  0  0  0  0  0
    0.1540   14.0170   -2.0410 C   0  0  2  0  0  0  0  0  0  0  0  0
   -1.2340   13.3550   -1.9940 C   0  0  0  0  0  0  0  0  0  0  0  0
   -1.3070   12.0790   -1.2220 C   0  0  0  0  0  0  0  0  0  0  0  0
   -0.2520   11.3400   -0.8310 C   0  0  0  0  0  0  0  0  0  0  0  0
    1.1740   11.7210   -1.2500 C   0  0  1  0  0  0  0  0  0  0  0  0
    1.9200   10.4570   -1.7560 C   0  0  0  0  0  0  0  0  0  0  0  0
    1.8940    9.3180   -0.7420 C   0  0  0  0  0  0  0  0  0  0  0  0
    0.4590    8.9290   -0.3950 C   0  0  2  0  0  0  0  0  0  0  0  0
   -0.1580    8.3610   -1.5540 O   0  0  0  0  0  0  0  0  0  0  0  0
   -0.3930   10.1250    0.1170 C   0  0  0  0  0  0  0  0  0  0  0  0
    0.0970   10.5470    1.5250 C   0  0  0  0  0  0  0  0  0  0  0  0
   -1.8530    9.6280    0.2960 C   0  0  0  0  0  0  0  0  0  0  0  0
    1.2980   12.9460   -2.2550 C   0  0  1  0  0  0  0  0  0  0  0  0
    1.1680   12.4430   -3.7250 C   0  0  0  0  0  0  0  0  0  0  0  0
    2.7370   13.5730   -2.1260 C   0  0  0  0  0  0  0  0  0  0  0  0
    2.9260   14.6630   -1.0530 C   0  0  0  0  0  0  0  0  0  0  0  0
    1.8290   15.7270   -1.1530 C   0  0  2  0  0  0  0  0  0  0  0  0
    1.9640   16.4230   -2.5510 C   0  0  0  0  0  0  0  0  0  0  0  0
    4.5530   17.2345    0.9606 H   0  0  0  0  0  0  0  0  0  0  0  0
    4.2951   16.3689   -0.5921 H   0  0  0  0  0  0  0  0  0  0  0  0
    4.9871   18.0266   -0.5921 H   0  0  0  0  0  0  0  0  0  0  0  0
    2.7710   18.4238   -1.1746 H   0  0  0  0  0  0  0  0  0  0  0  0
    2.3053   19.9461    0.3736 H   0  0  0  0  0  0  0  0  0  0  0  0
    1.8327   18.6297    1.5517 H   0  0  0  0  0  0  0  0  0  0  0  0
    4.3976   18.3921    1.9112 H   0  0  0  0  0  0  0  0  0  0  0  0
    4.4533   20.0668    1.2184 H   0  0  0  0  0  0  0  0  0  0  0  0
    3.6291   20.9215    2.7121 H   0  0  0  0  0  0  0  0  0  0  0  0
    1.2583   17.5502    4.4386 H   0  0  0  0  0  0  0  0  0  0  0  0
    0.7261   18.3914    2.9434 H   0  0  0  0  0  0  0  0  0  0  0  0
    2.2472   17.4360    2.9434 H   0  0  0  0  0  0  0  0  0  0  0  0
    1.9765   19.8338    5.9867 H   0  0  0  0  0  0  0  0  0  0  0  0
    2.0694   21.2225    4.8510 H   0  0  0  0  0  0  0  0  0  0  0  0
    0.6229   20.1573    4.8510 H   0  0  0  0  0  0  0  0  0  0  0  0
    2.1314   16.4028    0.9033 H   0  0  0  0  0  0  0  0  0  0  0  0
   -0.0124   17.5172    0.9046 H   0  0  0  0  0  0  0  0  0  0  0  0
    0.3206   18.3264   -0.6417 H   0  0  0  0  0  0  0  0  0  0  0  0
   -1.3964   16.0703   -0.2833 H   0  0  0  0  0  0  0  0  0  0  0  0
   -0.7902   16.6117   -1.8463 H   0  0  0  0  0  0  0  0  0  0  0  0
    0.4609   15.1386    1.2939 H   0  0  0  0  0  0  0  0  0  0  0  0
   -0.7177   13.9615    0.6216 H   0  0  0  0  0  0  0  0  0  0  0  0
    1.0366   13.5755    0.6216 H   0  0  0  0  0  0  0  0  0  0  0  0
    0.1491   14.6600   -2.9335 H   0  0  0  0  0  0  0  0  0  0  0  0
   -1.9356   14.0688   -1.5377 H   0  0  0  0  0  0  0  0  0  0  0  0
   -1.4826   13.0959   -3.0337 H   0  0  0  0  0  0  0  0  0  0  0  0
   -2.3075   11.7118   -0.9498 H   0  0  0  0  0  0  0  0  0  0  0  0
    1.6644   12.1067   -0.3440 H   0  0  0  0  0  0  0  0  0  0  0  0
    1.4415   10.1132   -2.6849 H   0  0  0  0  0  0  0  0  0  0  0  0
    2.9718   10.7335   -1.9210 H   0  0  0  0  0  0  0  0  0  0  0  0
    2.4107    8.4452   -1.1677 H   0  0  0  0  0  0  0  0  0  0  0  0
    2.3985    9.6536    0.1760 H   0  0  0  0  0  0  0  0  0  0  0  0
    0.5046    8.2006    0.4280 H   0  0  0  0  0  0  0  0  0  0  0  0
   -0.9860    8.8450   -1.7140 H   0  0  0  0  0  0  0  0  0  0  0  0
   -0.5012   10.0319    2.2910 H   0  0  0  0  0  0  0  0  0  0  0  0
    1.1561   10.2738    1.6418 H   0  0  0  0  0  0  0  0  0  0  0  0
   -0.0161   11.6349    1.6418 H   0  0  0  0  0  0  0  0  0  0  0  0
   -2.0846    9.5492    1.3684 H   0  0  0  0  0  0  0  0  0  0  0  0
   -2.5438   10.3416   -0.1768 H   0  0  0  0  0  0  0  0  0  0  0  0
   -1.9650    8.6411   -0.1768 H   0  0  0  0  0  0  0  0  0  0  0  0
    0.8928   11.3780   -3.7251 H   0  0  0  0  0  0  0  0  0  0  0  0
    0.3902   13.0228   -4.2435 H   0  0  0  0  0  0  0  0  0  0  0  0
    2.1293   12.5733   -4.2435 H   0  0  0  0  0  0  0  0  0  0  0  0
    3.4369   12.7558   -1.8972 H   0  0  0  0  0  0  0  0  0  0  0  0
    2.9177   14.0792   -3.0857 H   0  0  0  0  0  0  0  0  0  0  0  0
    2.8865   14.1980   -0.0569 H   0  0  0  0  0  0  0  0  0  0  0  0
    3.9003   15.1477   -1.2134 H   0  0  0  0  0  0  0  0  0  0  0  0
    2.1717   17.4938   -2.4089 H   0  0  0  0  0  0  0  0  0  0  0  0
    2.7892   15.9608   -3.1126 H   0  0  0  0  0  0  0  0  0  0  0  0
    1.0258   16.3028   -3.1126 H   0  0  0  0  0  0  0  0  0  0  0  0
  1  2  1  0
  2  3  1  0
  3  4  1  0
  4  5  1  0
  5  6  1  0
  6  7  1  0
  7  8  1  0
  7  9  1  0
  2 10  1  0
 10 11  1  0
 11 12  1  0
 12 13  1  0
 13 14  1  1
 13 15  1  0
 15 16  1  0
 16 17  1  0
 17 18  2  0
 18 19  1  0
 19 20  1  0
 20 21  1  0
 21 22  1  0
 22 23  1  0
 22 24  1  0
 24 25  1  0
 24 26  1  0
 19 27  1  0
 27 28  1  6
 27 29  1  0
 29 30  1  0
 30 31  1  0
 31 32  1  6
  7  5  1  0
 31 10  1  0
 31 13  1  0
 27 15  1  0
 24 18  1  0
  1 33  1  0
  1 34  1  0
  1 35  1  0
  2 36  1  6
  3 37  1  0
  3 38  1  0
  4 39  1  0
  4 40  1  0
  5 41  1  1
  8 42  1  0
  8 43  1  0
  8 44  1  0
  9 45  1  0
  9 46  1  0
  9 47  1  0
 10 48  1  1
 11 49  1  0
 11 50  1  0
 12 51  1  0
 12 52  1  0
 14 53  1  0
 14 54  1  0
 14 55  1  0
 15 56  1  6
 16 57  1  0
 16 58  1  0
 17 59  1  0
 19 60  1  1
 20 61  1  0
 20 62  1  0
 21 63  1  0
 21 64  1  0
 22 65  1  1
 23 66  1  0
 25 67  1  0
 25 68  1  0
 25 69  1  0
 26 70  1  0
 26 71  1  0
 26 72  1  0
 28 73  1  0
 28 74  1  0
 28 75  1  0
 29 76  1  0
 29 77  1  0
 30 78  1  0
 30 79  1  0
 32 80  1  0
 32 81  1  0
 32 82  1  0
M  END
>  <meeko>  (11) 
{"is_sidechain": [false], "intermolecular_energy": 2.731, "internal_energy": -0.839}

$$$$
EPH_relaxed_0001_pdb2pqr_Repair_202_r2_0001_out
     RDKit          3D

 82 86  0  0  0  0  0  0  0  0999 V2000
    0.5110    9.1830   -1.9310 C   0  0  0  0  0  0  0  0  0  0  0  0
    1.1280   10.3470   -2.7100 C   0  0  2  0  0  0  0  0  0  0  0  0
    2.6520   10.4460   -2.4970 C   0  0  0  0  0  0  0  0  0  0  0  0
    3.4190   10.9120   -3.7380 C   0  0  0  0  0  0  0  0  0  0  0  0
    4.8710   11.1330   -3.4420 C   0  0  2  0  0  0  0  0  0  0  0  0
    5.5040   12.1270   -4.2580 O   0  0  0  0  0  0  0  0  0  0  0  0
    5.9850   10.7820   -4.4100 C   0  0  0  0  0  0  0  0  0  0  0  0
    5.6950   10.1780   -5.7480 C   0  0  0  0  0  0  0  0  0  0  0  0
    7.3640   10.5700   -3.8670 C   0  0  0  0  0  0  0  0  0  0  0  0
    0.4600   11.6560   -2.3050 C   0  0  1  0  0  0  0  0  0  0  0  0
   -0.8190   11.4350   -1.4540 C   0  0  0  0  0  0  0  0  0  0  0  0
   -0.8820   12.5970   -0.4300 C   0  0  0  0  0  0  0  0  0  0  0  0
    0.1650   13.6180   -0.9350 C   0  0  1  0  0  0  0  0  0  0  0  0
   -0.5600   14.4100   -2.0680 C   0  0  0  0  0  0  0  0  0  0  0  0
    0.7710   14.5760    0.1420 C   0  0  2  0  0  0  0  0  0  0  0  0
   -0.2410   15.5140    0.8240 C   0  0  0  0  0  0  0  0  0  0  0  0
   -0.4310   16.8380    0.1600 C   0  0  0  0  0  0  0  0  0  0  0  0
    0.3840   17.3710   -0.7690 C   0  0  0  0  0  0  0  0  0  0  0  0
    1.6870   16.6690   -1.1700 C   0  0  1  0  0  0  0  0  0  0  0  0
    2.8440   17.7020   -1.2000 C   0  0  0  0  0  0  0  0  0  0  0  0
    2.5320   18.9040   -2.0860 C   0  0  0  0  0  0  0  0  0  0  0  0
    1.2610   19.6100   -1.6200 C   0  0  2  0  0  0  0  0  0  0  0  0
    1.5030   20.1940   -0.3360 O   0  0  0  0  0  0  0  0  0  0  0  0
    0.0290   18.6660   -1.5410 C   0  0  0  0  0  0  0  0  0  0  0  0
   -0.4170   18.2720   -2.9710 C   0  0  0  0  0  0  0  0  0  0  0  0
   -1.1480   19.4680   -0.9250 C   0  0  0  0  0  0  0  0  0  0  0  0
    2.0550   15.3640   -0.3400 C   0  0  1  0  0  0  0  0  0  0  0  0
    2.8460   15.7570    0.9450 C   0  0  0  0  0  0  0  0  0  0  0  0
    3.0220   14.4650   -1.1990 C   0  0  0  0  0  0  0  0  0  0  0  0
    2.3620   13.4550   -2.1570 C   0  0  0  0  0  0  0  0  0  0  0  0
    1.2870   12.6370   -1.4360 C   0  0  2  0  0  0  0  0  0  0  0  0
    1.9900   11.8130   -0.3050 C   0  0  0  0  0  0  0  0  0  0  0  0
    0.6104    9.3705   -0.8517 H   0  0  0  0  0  0  0  0  0  0  0  0
   -0.5540    9.0916   -2.1907 H   0  0  0  0  0  0  0  0  0  0  0  0
    1.0331    8.2503   -2.1907 H   0  0  0  0  0  0  0  0  0  0  0  0
    0.9558   10.1567   -3.7796 H   0  0  0  0  0  0  0  0  0  0  0  0
    2.8430   11.1602   -1.6824 H   0  0  0  0  0  0  0  0  0  0  0  0
    3.0096    9.4331   -2.2602 H   0  0  0  0  0  0  0  0  0  0  0  0
    3.3277   10.1458   -4.5220 H   0  0  0  0  0  0  0  0  0  0  0  0
    2.9873   11.8681   -4.0687 H   0  0  0  0  0  0  0  0  0  0  0  0
    4.7146   10.8951   -2.3795 H   0  0  0  0  0  0  0  0  0  0  0  0
    5.2226    9.1940   -5.6115 H   0  0  0  0  0  0  0  0  0  0  0  0
    5.0150   10.8367   -6.3080 H   0  0  0  0  0  0  0  0  0  0  0  0
    6.6343   10.0592   -6.3080 H   0  0  0  0  0  0  0  0  0  0  0  0
    7.3300   10.5752   -2.7675 H   0  0  0  0  0  0  0  0  0  0  0  0
    7.7511    9.6018   -4.2173 H   0  0  0  0  0  0  0  0  0  0  0  0
    8.0241   11.3772   -4.2173 H   0  0  0  0  0  0  0  0  0  0  0  0
    0.2855   12.0904   -3.3004 H   0  0  0  0  0  0  0  0  0  0  0  0
   -1.7101   11.4498   -2.0988 H   0  0  0  0  0  0  0  0  0  0  0  0
   -0.7903   10.4607   -0.9441 H   0  0  0  0  0  0  0  0  0  0  0  0
   -1.8860   13.0461   -0.4133 H   0  0  0  0  0  0  0  0  0  0  0  0
   -0.6756   12.2604    0.5967 H   0  0  0  0  0  0  0  0  0  0  0  0
   -1.2386   15.1513   -1.6208 H   0  0  0  0  0  0  0  0  0  0  0  0
    0.1863   14.9249   -2.6908 H   0  0  0  0  0  0  0  0  0  0  0  0
   -1.1387   13.7120   -2.6908 H   0  0  0  0  0  0  0  0  0  0  0  0
    1.1017   13.8745    0.9221 H   0  0  0  0  0  0  0  0  0  0  0  0
   -1.2149   15.0032    0.8487 H   0  0  0  0  0  0  0  0  0  0  0  0
    0.1685   15.7298    1.8219 H   0  0  0  0  0  0  0  0  0  0  0  0
   -1.3115   17.4275    0.4551 H   0  0  0  0  0  0  0  0  0  0  0  0
    1.5183   16.2686   -2.1806 H   0  0  0  0  0  0  0  0  0  0  0  0
    3.0262   18.0573   -0.1750 H   0  0  0  0  0  0  0  0  0  0  0  0
    3.7291   17.2000   -1.6178 H   0  0  0  0  0  0  0  0  0  0  0  0
    3.3733   19.6113   -2.0425 H   0  0  0  0  0  0  0  0  0  0  0  0
    2.3796   18.5505   -3.1165 H   0  0  0  0  0  0  0  0  0  0  0  0
    1.0182   20.3796   -2.3675 H   0  0  0  0  0  0  0  0  0  0  0  0
    0.6400   20.3540    0.0810 H   0  0  0  0  0  0  0  0  0  0  0  0
   -1.2402   17.5448   -2.9111 H   0  0  0  0  0  0  0  0  0  0  0  0
   -0.7584   19.1688   -3.5088 H   0  0  0  0  0  0  0  0  0  0  0  0
    0.4308   17.8226   -3.5088 H   0  0  0  0  0  0  0  0  0  0  0  0
   -1.0859   19.4257    0.1724 H   0  0  0  0  0  0  0  0  0  0  0  0
   -1.0905   20.5156   -1.2554 H   0  0  0  0  0  0  0  0  0  0  0  0
   -2.1020   19.0312   -1.2554 H   0  0  0  0  0  0  0  0  0  0  0  0
    2.2666   15.4691    1.8346 H   0  0  0  0  0  0  0  0  0  0  0  0
    3.8143   15.2352    0.9534 H   0  0  0  0  0  0  0  0  0  0  0  0
    3.0151   16.8439    0.9534 H   0  0  0  0  0  0  0  0  0  0  0  0
    3.6507   15.1354   -1.8034 H   0  0  0  0  0  0  0  0  0  0  0  0
    3.5713   13.8529   -0.4686 H   0  0  0  0  0  0  0  0  0  0  0  0
    1.8989   14.0010   -2.9921 H   0  0  0  0  0  0  0  0  0  0  0  0
    3.1357   12.7670   -2.5285 H   0  0  0  0  0  0  0  0  0  0  0  0
    1.6685   12.1899    0.6771 H   0  0  0  0  0  0  0  0  0  0  0  0
    1.7144   10.7522   -0.3988 H   0  0  0  0  0  0  0  0  0  0  0  0
    3.0809   11.9181   -0.3988 H   0  0  0  0  0  0  0  0  0  0  0  0
  1  2  1  0
  2  3  1  0
  3  4  1  0
  4  5  1  0
  5  6  1  0
  6  7  1  0
  7  8  1  0
  7  9  1  0
  2 10  1  0
 10 11  1  0
 11 12  1  0
 12 13  1  0
 13 14  1  6
 13 15  1  0
 15 16  1  0
 16 17  1  0
 17 18  2  0
 18 19  1  0
 19 20  1  0
 20 21  1  0
 21 22  1  0
 22 23  1  0
 22 24  1  0
 24 25  1  0
 24 26  1  0
 19 27  1  0
 27 28  1  1
 27 29  1  0
 29 30  1  0
 30 31  1  0
 31 32  1  1
  7  5  1  0
 31 10  1  0
 31 13  1  0
 27 15  1  0
 24 18  1  0
  1 33  1  0
  1 34  1  0
  1 35  1  0
  2 36  1  6
  3 37  1  0
  3 38  1  0
  4 39  1  0
  4 40  1  0
  5 41  1  1
  8 42  1  0
  8 43  1  0
  8 44  1  0
  9 45  1  0
  9 46  1  0
  9 47  1  0
 10 48  1  6
 11 49  1  0
 11 50  1  0
 12 51  1  0
 12 52  1  0
 14 53  1  0
 14 54  1  0
 14 55  1  0
 15 56  1  1
 16 57  1  0
 16 58  1  0
 17 59  1  0
 19 60  1  6
 20 61  1  0
 20 62  1  0
 21 63  1  0
 21 64  1  0
 22 65  1  6
 23 66  1  0
 25 67  1  0
 25 68  1  0
 25 69  1  0
 26 70  1  0
 26 71  1  0
 26 72  1  0
 28 73  1  0
 28 74  1  0
 28 75  1  0
 29 76  1  0
 29 77  1  0
 30 78  1  0
 30 79  1  0
 32 80  1  0
 32 81  1  0
 32 82  1  0
M  END
>  <meeko>  (12) 
{"is_sidechain": [false], "intermolecular_energy": 2.731, "internal_energy": -0.839}

$$$$
EPH_relaxed_0001_pdb2pqr_Repair_202_r2_0001_out
     RDKit          3D

 82 86  0  0  0  0  0  0  0  0999 V2000
    3.8770   17.9160    0.8120 C   0  0  0  0  0  0  0  0  0  0  0  0
    2.7870   18.4400   -0.1270 C   0  0  2  0  0  0  0  0  0  0  0  0
    2.0770   19.6840    0.4430 C   0  0  0  0  0  0  0  0  0  0  0  0
    0.7860   19.3630    1.2010 C   0  0  0  0  0  0  0  0  0  0  0  0
   -0.3820   20.1270    0.6550 C   0  0  2  0  0  0  0  0  0  0  0  0
   -1.5230   20.1760    1.5220 O   0  0  0  0  0  0  0  0  0  0  0  0
   -1.7020   19.4810    0.2770 C   0  0  0  0  0  0  0  0  0  0  0  0
   -1.9210   18.0080    0.4290 C   0  0  0  0  0  0  0  0  0  0  0  0
   -2.5970   20.1930   -0.6880 C   0  0  0  0  0  0  0  0  0  0  0  0
    1.7680   17.3410   -0.4050 C   0  0  1  0  0  0  0  0  0  0  0  0
    0.6200   17.8110   -1.3370 C   0  0  0  0  0  0  0  0  0  0  0  0
    0.2300   16.5950   -2.2160 C   0  0  0  0  0  0  0  0  0  0  0  0
    0.9250   15.3890   -1.5420 C   0  0  1  0  0  0  0  0  0  0  0  0
   -0.0140   14.9940   -0.3590 C   0  0  0  0  0  0  0  0  0  0  0  0
    1.2340   14.1660   -2.4660 C   0  0  2  0  0  0  0  0  0  0  0  0
   -0.0000   13.4820   -3.0790 C   0  0  0  0  0  0  0  0  0  0  0  0
   -0.5790   12.3680   -2.2710 C   0  0  0  0  0  0  0  0  0  0  0  0
    0.0330   11.7450   -1.2460 C   0  0  0  0  0  0  0  0  0  0  0  0
    1.4800   12.0840   -0.8700 C   0  0  1  0  0  0  0  0  0  0  0  0
    2.2820   10.7730   -0.6600 C   0  0  0  0  0  0  0  0  0  0  0  0
    1.6210    9.8380    0.3480 C   0  0  0  0  0  0  0  0  0  0  0  0
    0.2040    9.4770   -0.0910 C   0  0  2  0  0  0  0  0  0  0  0  0
    0.2780    8.6870   -1.2820 O   0  0  0  0  0  0  0  0  0  0  0  0
   -0.6950   10.7200   -0.3420 C   0  0  0  0  0  0  0  0  0  0  0  0
   -1.0220   11.4070    1.0070 C   0  0  0  0  0  0  0  0  0  0  0  0
   -2.0490   10.2210   -0.9150 C   0  0  0  0  0  0  0  0  0  0  0  0
    2.2250   13.1080   -1.8310 C   0  0  1  0  0  0  0  0  0  0  0  0
    2.8800   12.3410   -3.0200 C   0  0  0  0  0  0  0  0  0  0  0  0
    3.4030   13.7910   -1.0400 C   0  0  0  0  0  0  0  0  0  0  0  0
    3.0590   15.0640   -0.2430 C   0  0  0  0  0  0  0  0  0  0  0  0
    2.2790   16.0580   -1.1080 C   0  0  2  0  0  0  0  0  0  0  0  0
    3.2070   16.4900   -2.2950 C   0  0  0  0  0  0  0  0  0  0  0  0
    3.5648   18.0661    1.8560 H   0  0  0  0  0  0  0  0  0  0  0  0
    4.0355   16.8433    0.6273 H   0  0  0  0  0  0  0  0  0  0  0  0
    4.8138   18.4622    0.6273 H   0  0  0  0  0  0  0  0  0  0  0  0
    3.2760   18.7404   -1.0654 H   0  0  0  0  0  0  0  0  0  0  0  0
    2.7672   20.1923    1.1324 H   0  0  0  0  0  0  0  0  0  0  0  0
    1.7982   20.3155   -0.4134 H   0  0  0  0  0  0  0  0  0  0  0  0
    0.5798   18.2860    1.1137 H   0  0  0  0  0  0  0  0  0  0  0  0
    0.9246   19.6539    2.2528 H   0  0  0  0  0  0  0  0  0  0  0  0
    0.2882   20.8086    0.1106 H   0  0  0  0  0  0  0  0  0  0  0  0
   -1.9592   17.7514    1.4980 H   0  0  0  0  0  0  0  0  0  0  0  0
   -2.8708   17.7272   -0.0496 H   0  0  0  0  0  0  0  0  0  0  0  0
   -1.0940   17.4630   -0.0496 H   0  0  0  0  0  0  0  0  0  0  0  0
   -3.3397   20.7838   -0.1318 H   0  0  0  0  0  0  0  0  0  0  0  0
   -1.9955   20.8621   -1.3208 H   0  0  0  0  0  0  0  0  0  0  0  0
   -3.1138   19.4564   -1.3208 H   0  0  0  0  0  0  0  0  0  0  0  0
    1.4625   17.1093    0.6260 H   0  0  0  0  0  0  0  0  0  0  0  0
   -0.2433   18.1383   -0.7390 H   0  0  0  0  0  0  0  0  0  0  0  0
    0.9390   18.6608   -1.9583 H   0  0  0  0  0  0  0  0  0  0  0  0
   -0.8614   16.4579   -2.2274 H   0  0  0  0  0  0  0  0  0  0  0  0
    0.5376   16.7218   -3.2645 H   0  0  0  0  0  0  0  0  0  0  0  0
    0.4899   15.2060    0.5956 H   0  0  0  0  0  0  0  0  0  0  0  0
   -0.9450   15.5767   -0.4195 H   0  0  0  0  0  0  0  0  0  0  0  0
   -0.2485   13.9210   -0.4195 H   0  0  0  0  0  0  0  0  0  0  0  0
    1.7639   14.6354   -3.3079 H   0  0  0  0  0  0  0  0  0  0  0  0
   -0.7803   14.2456   -3.2133 H   0  0  0  0  0  0  0  0  0  0  0  0
    0.3402   13.0291   -4.0219 H   0  0  0  0  0  0  0  0  0  0  0  0
   -1.5910   12.0274   -2.5353 H   0  0  0  0  0  0  0  0  0  0  0  0
    1.4247   12.6429    0.0758 H   0  0  0  0  0  0  0  0  0  0  0  0
    2.3631   10.2509   -1.6248 H   0  0  0  0  0  0  0  0  0  0  0  0
    3.2709   11.0464   -0.2633 H   0  0  0  0  0  0  0  0  0  0  0  0
    2.2178    8.9177    0.4307 H   0  0  0  0  0  0  0  0  0  0  0  0
    1.5679   10.3503    1.3200 H   0  0  0  0  0  0  0  0  0  0  0  0
   -0.2630    8.9139    0.7305 H   0  0  0  0  0  0  0  0  0  0  0  0
    0.7640    9.2030   -1.9470 H   0  0  0  0  0  0  0  0  0  0  0  0
   -0.7112   10.7540    1.8359 H   0  0  0  0  0  0  0  0  0  0  0  0
   -0.4826   12.3635    1.0716 H   0  0  0  0  0  0  0  0  0  0  0  0
   -2.1045   11.5915    1.0716 H   0  0  0  0  0  0  0  0  0  0  0  0
   -2.7279    9.9708   -0.0864 H   0  0  0  0  0  0  0  0  0  0  0  0
   -2.4998   11.0121   -1.5323 H   0  0  0  0  0  0  0  0  0  0  0  0
   -1.8786    9.3266   -1.5323 H   0  0  0  0  0  0  0  0  0  0  0  0
    3.5476   11.5592   -2.6287 H   0  0  0  0  0  0  0  0  0  0  0  0
    2.0942   11.8781   -3.6351 H   0  0  0  0  0  0  0  0  0  0  0  0
    3.4602   13.0446   -3.6351 H   0  0  0  0  0  0  0  0  0  0  0  0
    3.7999   13.0508   -0.3296 H   0  0  0  0  0  0  0  0  0  0  0  0
    4.1157   14.1183   -1.8113 H   0  0  0  0  0  0  0  0  0  0  0  0
    2.4475   14.7885    0.6288 H   0  0  0  0  0  0  0  0  0  0  0  0
    3.9967   15.5401    0.0795 H   0  0  0  0  0  0  0  0  0  0  0  0
    4.1361   16.9225   -1.8954 H   0  0  0  0  0  0  0  0  0  0  0  0
    3.4471   15.6111   -2.9113 H   0  0  0  0  0  0  0  0  0  0  0  0
    2.6890   17.2396   -2.9113 H   0  0  0  0  0  0  0  0  0  0  0  0
  1  2  1  0
  2  3  1  0
  3  4  1  0
  4  5  1  0
  5  6  1  0
  6  7  1  0
  7  8  1  0
  7  9  1  0
  2 10  1  0
 10 11  1  0
 11 12  1  0
 12 13  1  0
 13 14  1  1
 13 15  1  0
 15 16  1  0
 16 17  1  0
 17 18  2  0
 18 19  1  0
 19 20  1  0
 20 21  1  0
 21 22  1  0
 22 23  1  0
 22 24  1  0
 24 25  1  0
 24 26  1  0
 19 27  1  0
 27 28  1  6
 27 29  1  0
 29 30  1  0
 30 31  1  0
 31 32  1  6
  7  5  1  0
 31 10  1  0
 31 13  1  0
 27 15  1  0
 24 18  1  0
  1 33  1  0
  1 34  1  0
  1 35  1  0
  2 36  1  6
  3 37  1  0
  3 38  1  0
  4 39  1  0
  4 40  1  0
  5 41  1  6
  8 42  1  0
  8 43  1  0
  8 44  1  0
  9 45  1  0
  9 46  1  0
  9 47  1  0
 10 48  1  1
 11 49  1  0
 11 50  1  0
 12 51  1  0
 12 52  1  0
 14 53  1  0
 14 54  1  0
 14 55  1  0
 15 56  1  6
 16 57  1  0
 16 58  1  0
 17 59  1  0
 19 60  1  1
 20 61  1  0
 20 62  1  0
 21 63  1  0
 21 64  1  0
 22 65  1  1
 23 66  1  0
 25 67  1  0
 25 68  1  0
 25 69  1  0
 26 70  1  0
 26 71  1  0
 26 72  1  0
 28 73  1  0
 28 74  1  0
 28 75  1  0
 29 76  1  0
 29 77  1  0
 30 78  1  0
 30 79  1  0
 32 80  1  0
 32 81  1  0
 32 82  1  0
M  END
>  <meeko>  (13) 
{"is_sidechain": [false], "intermolecular_energy": 2.731, "internal_energy": -0.839}

$$$$
EPH_relaxed_0001_pdb2pqr_Repair_202_r2_0001_out
     RDKit          3D

 82 86  0  0  0  0  0  0  0  0999 V2000
    3.2270   10.3800   -3.3530 C   0  0  0  0  0  0  0  0  0  0  0  0
    2.0250   10.5340   -2.4180 C   0  0  2  0  0  0  0  0  0  0  0  0
    0.9110    9.5150   -2.7310 C   0  0  0  0  0  0  0  0  0  0  0  0
    0.4260    8.7360   -1.5050 C   0  0  0  0  0  0  0  0  0  0  0  0
   -1.0630    8.5730   -1.5060 C   0  0  2  0  0  0  0  0  0  0  0  0
   -1.7950    9.7550   -1.8560 O   0  0  0  0  0  0  0  0  0  0  0  0
   -1.9810    9.2680   -0.5180 C   0  0  0  0  0  0  0  0  0  0  0  0
   -1.4430   10.1780    0.5410 C   0  0  0  0  0  0  0  0  0  0  0  0
   -3.3390    8.6860   -0.2710 C   0  0  0  0  0  0  0  0  0  0  0  0
    1.4730   11.9520   -2.5100 C   0  0  1  0  0  0  0  0  0  0  0  0
    0.0020   11.9910   -3.0010 C   0  0  0  0  0  0  0  0  0  0  0  0
   -0.6870   13.1660   -2.2600 C   0  0  0  0  0  0  0  0  0  0  0  0
    0.4780   13.9640   -1.6280 C   0  0  1  0  0  0  0  0  0  0  0  0
    1.0310   14.8520   -2.7860 C   0  0  0  0  0  0  0  0  0  0  0  0
    0.1260   14.8150   -0.3650 C   0  0  2  0  0  0  0  0  0  0  0  0
   -0.8990   15.9390   -0.6000 C   0  0  0  0  0  0  0  0  0  0  0  0
   -0.3200   17.2600   -0.9830 C   0  0  0  0  0  0  0  0  0  0  0  0
    0.9730   17.6140   -0.8580 C   0  0  0  0  0  0  0  0  0  0  0  0
    1.9860   16.6740   -0.1920 C   0  0  1  0  0  0  0  0  0  0  0  0
    2.8460   17.4730    0.8210 C   0  0  0  0  0  0  0  0  0  0  0  0
    3.5100   18.6930    0.1900 C   0  0  0  0  0  0  0  0  0  0  0  0
    2.4670   19.6320   -0.4100 C   0  0  2  0  0  0  0  0  0  0  0  0
    1.6840   20.1890    0.6500 O   0  0  0  0  0  0  0  0  0  0  0  0
    1.5350   18.9350   -1.4390 C   0  0  0  0  0  0  0  0  0  0  0  0
    2.3340   18.6000   -2.7230 C   0  0  0  0  0  0  0  0  0  0  0  0
    0.4420   19.9540   -1.8610 C   0  0  0  0  0  0  0  0  0  0  0  0
    1.3870   15.3410    0.4340 C   0  0  1  0  0  0  0  0  0  0  0  0
    0.9100   15.6070    1.8940 C   0  0  0  0  0  0  0  0  0  0  0  0
    2.5280   14.2600    0.5300 C   0  0  0  0  0  0  0  0  0  0  0  0
    2.7470   13.3700   -0.7080 C   0  0  0  0  0  0  0  0  0  0  0  0
    1.4220   12.7810   -1.2020 C   0  0  2  0  0  0  0  0  0  0  0  0
    0.8530   11.8650   -0.0660 C   0  0  0  0  0  0  0  0  0  0  0  0
    4.1433   10.2626   -2.7559 H   0  0  0  0  0  0  0  0  0  0  0  0
    3.0866    9.4925   -3.9875 H   0  0  0  0  0  0  0  0  0  0  0  0
    3.3149   11.2742   -3.9875 H   0  0  0  0  0  0  0  0  0  0  0  0
    2.3755   10.3365   -1.3942 H   0  0  0  0  0  0  0  0  0  0  0  0
    0.0548   10.0572   -3.1588 H   0  0  0  0  0  0  0  0  0  0  0  0
    1.3353    8.7803   -3.4311 H   0  0  0  0  0  0  0  0  0  0  0  0
    0.8937    7.7404   -1.5073 H   0  0  0  0  0  0  0  0  0  0  0  0
    0.7085    9.3020   -0.6051 H   0  0  0  0  0  0  0  0  0  0  0  0
   -0.9711    7.5211   -1.8143 H   0  0  0  0  0  0  0  0  0  0  0  0
   -1.6847    9.7692    1.5332 H   0  0  0  0  0  0  0  0  0  0  0  0
   -0.3513   10.2598    0.4342 H   0  0  0  0  0  0  0  0  0  0  0  0
   -1.8975   11.1740    0.4342 H   0  0  0  0  0  0  0  0  0  0  0  0
   -3.5142    8.6109    0.8124 H   0  0  0  0  0  0  0  0  0  0  0  0
   -4.1038    9.3354   -0.7220 H   0  0  0  0  0  0  0  0  0  0  0  0
   -3.3962    7.6843   -0.7220 H   0  0  0  0  0  0  0  0  0  0  0  0
    2.2048   12.3894   -3.2051 H   0  0  0  0  0  0  0  0  0  0  0  0
   -0.0301   12.1579   -4.0878 H   0  0  0  0  0  0  0  0  0  0  0  0
   -0.5089   11.0394   -2.7927 H   0  0  0  0  0  0  0  0  0  0  0  0
   -1.2500   13.7940   -2.9662 H   0  0  0  0  0  0  0  0  0  0  0  0
   -1.4112   12.8185   -1.5085 H   0  0  0  0  0  0  0  0  0  0  0  0
    1.5677   15.7139   -2.3629 H   0  0  0  0  0  0  0  0  0  0  0  0
    1.7199   14.2592   -3.4057 H   0  0  0  0  0  0  0  0  0  0  0  0
    0.1951   15.2088   -3.4057 H   0  0  0  0  0  0  0  0  0  0  0  0
   -0.3783   14.0810    0.2808 H   0  0  0  0  0  0  0  0  0  0  0  0
   -1.5763   15.6184   -1.4053 H   0  0  0  0  0  0  0  0  0  0  0  0
   -1.4044   16.0964    0.3643 H   0  0  0  0  0  0  0  0  0  0  0  0
   -1.0082   18.0082   -1.4032 H   0  0  0  0  0  0  0  0  0  0  0  0
    2.6238   16.2911   -1.0023 H   0  0  0  0  0  0  0  0  0  0  0  0
    2.1990   17.8100    1.6443 H   0  0  0  0  0  0  0  0  0  0  0  0
    3.6441   16.8067    1.1802 H   0  0  0  0  0  0  0  0  0  0  0  0
    4.0789   19.2326    0.9615 H   0  0  0  0  0  0  0  0  0  0  0  0
    4.1795   18.3523   -0.6135 H   0  0  0  0  0  0  0  0  0  0  0  0
    3.0071   20.4174   -0.9591 H   0  0  0  0  0  0  0  0  0  0  0  0
    0.8960   19.6300    0.7580 H   0  0  0  0  0  0  0  0  0  0  0  0
    3.3160   18.1883   -2.4469 H   0  0  0  0  0  0  0  0  0  0  0  0
    1.7794   17.8586   -3.3170 H   0  0  0  0  0  0  0  0  0  0  0  0
    2.4740   19.5152   -3.3170 H   0  0  0  0  0  0  0  0  0  0  0  0
   -0.0223   20.3868   -0.9626 H   0  0  0  0  0  0  0  0  0  0  0  0
    0.8994   20.7555   -2.4597 H   0  0  0  0  0  0  0  0  0  0  0  0
   -0.3255   19.4416   -2.4597 H   0  0  0  0  0  0  0  0  0  0  0  0
    1.6462   15.1965    2.6008 H   0  0  0  0  0  0  0  0  0  0  0  0
    0.8111   16.6905    2.0557 H   0  0  0  0  0  0  0  0  0  0  0  0
   -0.0638   15.1217    2.0557 H   0  0  0  0  0  0  0  0  0  0  0  0
    3.4714   14.7888    0.7309 H   0  0  0  0  0  0  0  0  0  0  0  0
    2.2068   13.5721    1.3260 H   0  0  0  0  0  0  0  0  0  0  0  0
    3.1936   13.9745   -1.5112 H   0  0  0  0  0  0  0  0  0  0  0  0
    3.4166   12.5425   -0.4307 H   0  0  0  0  0  0  0  0  0  0  0  0
    1.1167   12.2895    0.9139 H   0  0  0  0  0  0  0  0  0  0  0  0
   -0.2416   11.8050   -0.1571 H   0  0  0  0  0  0  0  0  0  0  0  0
    1.2843   10.8572   -0.1571 H   0  0  0  0  0  0  0  0  0  0  0  0
  1  2  1  0
  2  3  1  0
  3  4  1  0
  4  5  1  0
  5  6  1  0
  6  7  1  0
  7  8  1  0
  7  9  1  0
  2 10  1  0
 10 11  1  0
 11 12  1  0
 12 13  1  0
 13 14  1  6
 13 15  1  0
 15 16  1  0
 16 17  1  0
 17 18  2  0
 18 19  1  0
 19 20  1  0
 20 21  1  0
 21 22  1  0
 22 23  1  0
 22 24  1  0
 24 25  1  0
 24 26  1  0
 19 27  1  0
 27 28  1  1
 27 29  1  0
 29 30  1  0
 30 31  1  0
 31 32  1  1
  7  5  1  0
 31 10  1  0
 31 13  1  0
 27 15  1  0
 24 18  1  0
  1 33  1  0
  1 34  1  0
  1 35  1  0
  2 36  1  1
  3 37  1  0
  3 38  1  0
  4 39  1  0
  4 40  1  0
  5 41  1  6
  8 42  1  0
  8 43  1  0
  8 44  1  0
  9 45  1  0
  9 46  1  0
  9 47  1  0
 10 48  1  6
 11 49  1  0
 11 50  1  0
 12 51  1  0
 12 52  1  0
 14 53  1  0
 14 54  1  0
 14 55  1  0
 15 56  1  1
 16 57  1  0
 16 58  1  0
 17 59  1  0
 19 60  1  6
 20 61  1  0
 20 62  1  0
 21 63  1  0
 21 64  1  0
 22 65  1  6
 23 66  1  0
 25 67  1  0
 25 68  1  0
 25 69  1  0
 26 70  1  0
 26 71  1  0
 26 72  1  0
 28 73  1  0
 28 74  1  0
 28 75  1  0
 29 76  1  0
 29 77  1  0
 30 78  1  0
 30 79  1  0
 32 80  1  0
 32 81  1  0
 32 82  1  0
M  END
>  <meeko>  (14) 
{"is_sidechain": [false], "intermolecular_energy": 2.731, "internal_energy": -0.839}

$$$$
EPH_relaxed_0001_pdb2pqr_Repair_202_r2_0001_out
     RDKit          3D

 82 86  0  0  0  0  0  0  0  0999 V2000
    0.3480   18.5950   -2.5380 C   0  0  0  0  0  0  0  0  0  0  0  0
    0.6900   17.8160   -1.2650 C   0  0  2  0  0  0  0  0  0  0  0  0
    1.8410   18.4710   -0.4750 C   0  0  0  0  0  0  0  0  0  0  0  0
    1.3670   19.4220    0.6270 C   0  0  0  0  0  0  0  0  0  0  0  0
   -0.0270   19.9120    0.3760 C   0  0  2  0  0  0  0  0  0  0  0  0
   -0.7860   20.1910    1.5600 O   0  0  0  0  0  0  0  0  0  0  0  0
   -1.2700   19.1190    0.7350 C   0  0  0  0  0  0  0  0  0  0  0  0
   -1.1760   17.7690    1.3740 C   0  0  0  0  0  0  0  0  0  0  0  0
   -2.5490   19.4350    0.0250 C   0  0  0  0  0  0  0  0  0  0  0  0
    1.0520   16.3780   -1.6170 C   0  0  1  0  0  0  0  0  0  0  0  0
    2.5290   16.2280   -2.0710 C   0  0  0  0  0  0  0  0  0  0  0  0
    3.0170   14.8490   -1.5560 C   0  0  0  0  0  0  0  0  0  0  0  0
    1.7270   14.1170   -1.1180 C   0  0  1  0  0  0  0  0  0  0  0  0
    1.1200   13.5500   -2.4400 C   0  0  0  0  0  0  0  0  0  0  0  0
    1.8980   13.0020   -0.0360 C   0  0  2  0  0  0  0  0  0  0  0  0
    2.7750   11.8110   -0.4600 C   0  0  0  0  0  0  0  0  0  0  0  0
    2.0460   10.6800   -1.1060 C   0  0  0  0  0  0  0  0  0  0  0  0
    0.7140   10.4930   -1.0830 C   0  0  0  0  0  0  0  0  0  0  0  0
   -0.1980   11.4230   -0.2710 C   0  0  1  0  0  0  0  0  0  0  0  0
   -1.2070   10.5740    0.5460 C   0  0  0  0  0  0  0  0  0  0  0  0
   -1.9940    9.6010   -0.3250 C   0  0  0  0  0  0  0  0  0  0  0  0
   -1.0560    8.6550   -1.0710 C   0  0  2  0  0  0  0  0  0  0  0  0
   -0.4070    7.8050   -0.1200 O   0  0  0  0  0  0  0  0  0  0  0  0
    0.0120    9.3970   -1.9230 C   0  0  0  0  0  0  0  0  0  0  0  0
   -0.6700   10.0770   -3.1360 C   0  0  0  0  0  0  0  0  0  0  0  0
    0.9790    8.3330   -2.5080 C   0  0  0  0  0  0  0  0  0  0  0  0
    0.5400   12.5160    0.6150 C   0  0  1  0  0  0  0  0  0  0  0  0
    0.9040   11.9150    2.0070 C   0  0  0  0  0  0  0  0  0  0  0  0
   -0.4510   13.7080    0.8910 C   0  0  0  0  0  0  0  0  0  0  0  0
   -0.4870   14.8380   -0.1550 C   0  0  0  0  0  0  0  0  0  0  0  0
    0.9270   15.3180   -0.4940 C   0  0  2  0  0  0  0  0  0  0  0  0
    1.5550   15.9150    0.8120 C   0  0  0  0  0  0  0  0  0  0  0  0
   -0.0805   19.5711   -2.2666 H   0  0  0  0  0  0  0  0  0  0  0  0
    1.2618   18.7478   -3.1310 H   0  0  0  0  0  0  0  0  0  0  0  0
   -0.3830   18.0257   -3.1310 H   0  0  0  0  0  0  0  0  0  0  0  0
   -0.2013   17.8277   -0.6204 H   0  0  0  0  0  0  0  0  0  0  0  0
    2.4418   17.6745   -0.0118 H   0  0  0  0  0  0  0  0  0  0  0  0
    2.4215   19.0717   -1.1907 H   0  0  0  0  0  0  0  0  0  0  0  0
    1.3900   18.8910    1.5901 H   0  0  0  0  0  0  0  0  0  0  0  0
    2.0389   20.2928    0.6402 H   0  0  0  0  0  0  0  0  0  0  0  0
    0.2894   20.4072   -0.5539 H   0  0  0  0  0  0  0  0  0  0  0  0
   -1.1837   17.8800    2.4684 H   0  0  0  0  0  0  0  0  0  0  0  0
   -2.0336   17.1550    1.0617 H   0  0  0  0  0  0  0  0  0  0  0  0
   -0.2416   17.2797    1.0617 H   0  0  0  0  0  0  0  0  0  0  0  0
   -3.3400   19.6304    0.7640 H   0  0  0  0  0  0  0  0  0  0  0  0
   -2.4081   20.3253   -0.6054 H   0  0  0  0  0  0  0  0  0  0  0  0
   -2.8390   18.5815   -0.6054 H   0  0  0  0  0  0  0  0  0  0  0  0
    0.3042   16.1858   -2.4005 H   0  0  0  0  0  0  0  0  0  0  0  0
    2.5939   16.2672   -3.1684 H   0  0  0  0  0  0  0  0  0  0  0  0
    3.1504   17.0422   -1.6697 H   0  0  0  0  0  0  0  0  0  0  0  0
    3.5258   14.2931   -2.3573 H   0  0  0  0  0  0  0  0  0  0  0  0
    3.7423   14.9435   -0.7344 H   0  0  0  0  0  0  0  0  0  0  0  0
    0.3357   12.8174   -2.1987 H   0  0  0  0  0  0  0  0  0  0  0  0
    0.6852   14.3729   -3.0263 H   0  0  0  0  0  0  0  0  0  0  0  0
    1.9114   13.0602   -3.0263 H   0  0  0  0  0  0  0  0  0  0  0  0
    2.4612   13.5231    0.7522 H   0  0  0  0  0  0  0  0  0  0  0  0
    3.5285   12.1801   -1.1713 H   0  0  0  0  0  0  0  0  0  0  0  0
    3.2057   11.4051    0.4672 H   0  0  0  0  0  0  0  0  0  0  0  0
    2.6493    9.9361   -1.6469 H   0  0  0  0  0  0  0  0  0  0  0  0
   -0.7380   12.0385   -1.0056 H   0  0  0  0  0  0  0  0  0  0  0  0
   -0.6528   10.0001    1.3033 H   0  0  0  0  0  0  0  0  0  0  0  0
   -1.9271   11.2653    1.0081 H   0  0  0  0  0  0  0  0  0  0  0  0
   -2.6678    9.0106    0.3132 H   0  0  0  0  0  0  0  0  0  0  0  0
   -2.5706   10.1779   -1.0630 H   0  0  0  0  0  0  0  0  0  0  0  0
   -1.6674    8.0705   -1.7742 H   0  0  0  0  0  0  0  0  0  0  0  0
   -0.9010    6.9680   -0.0890 H   0  0  0  0  0  0  0  0  0  0  0  0
   -1.4066   10.8115   -2.7783 H   0  0  0  0  0  0  0  0  0  0  0  0
    0.0903   10.5873   -3.7456 H   0  0  0  0  0  0  0  0  0  0  0  0
   -1.1780    9.3152   -3.7456 H   0  0  0  0  0  0  0  0  0  0  0  0
    1.4703    7.7924   -1.6856 H   0  0  0  0  0  0  0  0  0  0  0  0
    0.4113    7.6222   -3.1265 H   0  0  0  0  0  0  0  0  0  0  0  0
    1.7406    8.8303   -3.1265 H   0  0  0  0  0  0  0  0  0  0  0  0
    0.5100   12.5656    2.8017 H   0  0  0  0  0  0  0  0  0  0  0  0
    0.4612   10.9124    2.1007 H   0  0  0  0  0  0  0  0  0  0  0  0
    1.9976   11.8430    2.1007 H   0  0  0  0  0  0  0  0  0  0  0  0
   -1.4651   13.2879    0.9620 H   0  0  0  0  0  0  0  0  0  0  0  0
   -0.0822   14.1811    1.8130 H   0  0  0  0  0  0  0  0  0  0  0  0
   -0.9694   14.4652   -1.0706 H   0  0  0  0  0  0  0  0  0  0  0  0
   -1.0532   15.6837    0.2624 H   0  0  0  0  0  0  0  0  0  0  0  0
    1.0756   15.4592    1.6909 H   0  0  0  0  0  0  0  0  0  0  0  0
    2.6339   15.7014    0.8309 H   0  0  0  0  0  0  0  0  0  0  0  0
    1.3963   17.0033    0.8309 H   0  0  0  0  0  0  0  0  0  0  0  0
  1  2  1  0
  2  3  1  0
  3  4  1  0
  4  5  1  0
  5  6  1  0
  6  7  1  0
  7  8  1  0
  7  9  1  0
  2 10  1  0
 10 11  1  0
 11 12  1  0
 12 13  1  0
 13 14  1  6
 13 15  1  0
 15 16  1  0
 16 17  1  0
 17 18  2  0
 18 19  1  0
 19 20  1  0
 20 21  1  0
 21 22  1  0
 22 23  1  0
 22 24  1  0
 24 25  1  0
 24 26  1  0
 19 27  1  0
 27 28  1  1
 27 29  1  0
 29 30  1  0
 30 31  1  0
 31 32  1  1
  7  5  1  0
 31 10  1  0
 31 13  1  0
 27 15  1  0
 24 18  1  0
  1 33  1  0
  1 34  1  0
  1 35  1  0
  2 36  1  1
  3 37  1  0
  3 38  1  0
  4 39  1  0
  4 40  1  0
  5 41  1  6
  8 42  1  0
  8 43  1  0
  8 44  1  0
  9 45  1  0
  9 46  1  0
  9 47  1  0
 10 48  1  6
 11 49  1  0
 11 50  1  0
 12 51  1  0
 12 52  1  0
 14 53  1  0
 14 54  1  0
 14 55  1  0
 15 56  1  1
 16 57  1  0
 16 58  1  0
 17 59  1  0
 19 60  1  6
 20 61  1  0
 20 62  1  0
 21 63  1  0
 21 64  1  0
 22 65  1  6
 23 66  1  0
 25 67  1  0
 25 68  1  0
 25 69  1  0
 26 70  1  0
 26 71  1  0
 26 72  1  0
 28 73  1  0
 28 74  1  0
 28 75  1  0
 29 76  1  0
 29 77  1  0
 30 78  1  0
 30 79  1  0
 32 80  1  0
 32 81  1  0
 32 82  1  0
M  END
>  <meeko>  (15) 
{"is_sidechain": [false], "intermolecular_energy": 2.731, "internal_energy": -0.839}

$$$$
EPH_relaxed_0001_pdb2pqr_Repair_202_r2_0001_out
     RDKit          3D

 82 86  0  0  0  0  0  0  0  0999 V2000
   -0.1450   17.2610   -0.8490 C   0  0  0  0  0  0  0  0  0  0  0  0
   -0.3900   16.0640    0.0740 C   0  0  2  0  0  0  0  0  0  0  0  0
   -0.4470   16.4780    1.5590 C   0  0  0  0  0  0  0  0  0  0  0  0
    0.0300   17.9090    1.8180 C   0  0  0  0  0  0  0  0  0  0  0  0
    1.4430   17.9400    2.3170 C   0  0  2  0  0  0  0  0  0  0  0  0
    1.8390   19.1810    2.9170 O   0  0  0  0  0  0  0  0  0  0  0  0
    2.5260   18.8130    1.7100 C   0  0  0  0  0  0  0  0  0  0  0  0
    2.2420   19.7150    0.5500 C   0  0  0  0  0  0  0  0  0  0  0  0
    3.9570   18.4300    1.9240 C   0  0  0  0  0  0  0  0  0  0  0  0
    0.6970   15.0160   -0.1330 C   0  0  1  0  0  0  0  0  0  0  0  0
    0.9350   14.1440    1.1280 C   0  0  0  0  0  0  0  0  0  0  0  0
    1.2850   12.7190    0.6270 C   0  0  0  0  0  0  0  0  0  0  0  0
    1.5630   12.8950   -0.8840 C   0  0  1  0  0  0  0  0  0  0  0  0
    3.0310   13.4200   -0.9640 C   0  0  0  0  0  0  0  0  0  0  0  0
    1.3550   11.6280   -1.7770 C   0  0  2  0  0  0  0  0  0  0  0  0
    2.2770   10.4400   -1.4500 C   0  0  0  0  0  0  0  0  0  0  0  0
    3.5680   10.4110   -2.2000 C   0  0  0  0  0  0  0  0  0  0  0  0
    3.8510   11.1350   -3.2990 C   0  0  0  0  0  0  0  0  0  0  0  0
    2.7840   12.0210   -3.9540 C   0  0  1  0  0  0  0  0  0  0  0  0
    2.7920   11.7920   -5.4880 C   0  0  0  0  0  0  0  0  0  0  0  0
    4.1740   11.9910   -6.1030 C   0  0  0  0  0  0  0  0  0  0  0  0
    5.1940   11.0510   -5.4660 C   0  0  2  0  0  0  0  0  0  0  0  0
    4.8630    9.7040   -5.8160 O   0  0  0  0  0  0  0  0  0  0  0  0
    5.2690   11.1850   -3.9190 C   0  0  0  0  0  0  0  0  0  0  0  0
    5.9150   12.5420   -3.5450 C   0  0  0  0  0  0  0  0  0  0  0  0
    6.2300   10.0870   -3.3900 C   0  0  0  0  0  0  0  0  0  0  0  0
    1.3260   11.9270   -3.3300 C   0  0  1  0  0  0  0  0  0  0  0  0
    0.5370   10.7570   -3.9940 C   0  0  0  0  0  0  0  0  0  0  0  0
    0.5350   13.2460   -3.6710 C   0  0  0  0  0  0  0  0  0  0  0  0
    0.6880   14.4210   -2.6870 C   0  0  0  0  0  0  0  0  0  0  0  0
    0.4650   13.9610   -1.2430 C   0  0  2  0  0  0  0  0  0  0  0  0
   -1.0100   13.4470   -1.1270 C   0  0  0  0  0  0  0  0  0  0  0  0
    0.0390   18.1601   -0.2425 H   0  0  0  0  0  0  0  0  0  0  0  0
    0.7309   17.0613   -1.4838 H   0  0  0  0  0  0  0  0  0  0  0  0
   -1.0289   17.4215   -1.4838 H   0  0  0  0  0  0  0  0  0  0  0  0
   -1.3701   15.6392   -0.1885 H   0  0  0  0  0  0  0  0  0  0  0  0
   -1.4879   16.3912    1.9039 H   0  0  0  0  0  0  0  0  0  0  0  0
    0.2337   15.8086    2.1055 H   0  0  0  0  0  0  0  0  0  0  0  0
   -0.0294   18.4800    0.8797 H   0  0  0  0  0  0  0  0  0  0  0  0
   -0.6164   18.3517    2.5901 H   0  0  0  0  0  0  0  0  0  0  0  0
    1.4075   16.8666    2.5548 H   0  0  0  0  0  0  0  0  0  0  0  0
    1.9310   20.7027    0.9211 H   0  0  0  0  0  0  0  0  0  0  0  0
    3.1498   19.8224   -0.0618 H   0  0  0  0  0  0  0  0  0  0  0  0
    1.4364   19.2829   -0.0618 H   0  0  0  0  0  0  0  0  0  0  0  0
    4.1643   18.3745    3.0029 H   0  0  0  0  0  0  0  0  0  0  0  0
    4.1470   17.4494    1.4632 H   0  0  0  0  0  0  0  0  0  0  0  0
    4.6114   19.1846    1.4632 H   0  0  0  0  0  0  0  0  0  0  0  0
    1.5358   15.6727   -0.4072 H   0  0  0  0  0  0  0  0  0  0  0  0
    1.7675   14.5527    1.7195 H   0  0  0  0  0  0  0  0  0  0  0  0
    0.0430   14.1284    1.7715 H   0  0  0  0  0  0  0  0  0  0  0  0
    2.1764   12.3336    1.1437 H   0  0  0  0  0  0  0  0  0  0  0  0
    0.4774   11.9979    0.8217 H   0  0  0  0  0  0  0  0  0  0  0  0
    3.4258   13.5612    0.0529 H   0  0  0  0  0  0  0  0  0  0  0  0
    3.6532   12.6887   -1.5007 H   0  0  0  0  0  0  0  0  0  0  0  0
    3.0483   14.3801   -1.5007 H   0  0  0  0  0  0  0  0  0  0  0  0
    0.3417   11.3055   -1.4954 H   0  0  0  0  0  0  0  0  0  0  0  0
    2.5087   10.4750   -0.3752 H   0  0  0  0  0  0  0  0  0  0  0  0
    1.7283    9.5359   -1.7524 H   0  0  0  0  0  0  0  0  0  0  0  0
    4.3545    9.7411   -1.8223 H   0  0  0  0  0  0  0  0  0  0  0  0
    3.0710   13.0590   -3.7301 H   0  0  0  0  0  0  0  0  0  0  0  0
    2.4600   10.7634   -5.6925 H   0  0  0  0  0  0  0  0  0  0  0  0
    2.1162   12.5334   -5.9394 H   0  0  0  0  0  0  0  0  0  0  0  0
    4.1207   11.7864   -7.1825 H   0  0  0  0  0  0  0  0  0  0  0  0
    4.4923   13.0286   -5.9239 H   0  0  0  0  0  0  0  0  0  0  0  0
    6.1849   11.3298   -5.8537 H   0  0  0  0  0  0  0  0  0  0  0  0
    5.6880    9.1910   -5.8260 H   0  0  0  0  0  0  0  0  0  0  0  0
    5.9603   12.6371   -2.4501 H   0  0  0  0  0  0  0  0  0  0  0  0
    6.9327   12.5903   -3.9597 H   0  0  0  0  0  0  0  0  0  0  0  0
    5.3108   13.3624   -3.9597 H   0  0  0  0  0  0  0  0  0  0  0  0
    6.2242   10.0936   -2.2900 H   0  0  0  0  0  0  0  0  0  0  0  0
    5.8976    9.1031   -3.7525 H   0  0  0  0  0  0  0  0  0  0  0  0
    7.2493   10.2861   -3.7525 H   0  0  0  0  0  0  0  0  0  0  0  0
    0.1046   10.1158   -3.2117 H   0  0  0  0  0  0  0  0  0  0  0  0
   -0.2697   11.1671   -4.6193 H   0  0  0  0  0  0  0  0  0  0  0  0
    1.2196   10.1628   -4.6193 H   0  0  0  0  0  0  0  0  0  0  0  0
    0.8749   13.5922   -4.6582 H   0  0  0  0  0  0  0  0  0  0  0  0
   -0.5275   12.9656   -3.6218 H   0  0  0  0  0  0  0  0  0  0  0  0
    1.7019   14.8376   -2.7792 H   0  0  0  0  0  0  0  0  0  0  0  0
   -0.0660   15.1835   -2.9321 H   0  0  0  0  0  0  0  0  0  0  0  0
   -1.2828   13.3519   -0.0656 H   0  0  0  0  0  0  0  0  0  0  0  0
   -1.6871   14.1622   -1.6170 H   0  0  0  0  0  0  0  0  0  0  0  0
   -1.0960   12.4659   -1.6170 H   0  0  0  0  0  0  0  0  0  0  0  0
  1  2  1  0
  2  3  1  0
  3  4  1  0
  4  5  1  0
  5  6  1  0
  6  7  1  0
  7  8  1  0
  7  9  1  0
  2 10  1  0
 10 11  1  0
 11 12  1  0
 12 13  1  0
 13 14  1  1
 13 15  1  0
 15 16  1  0
 16 17  1  0
 17 18  2  0
 18 19  1  0
 19 20  1  0
 20 21  1  0
 21 22  1  0
 22 23  1  0
 22 24  1  0
 24 25  1  0
 24 26  1  0
 19 27  1  0
 27 28  1  6
 27 29  1  0
 29 30  1  0
 30 31  1  0
 31 32  1  6
  7  5  1  0
 31 10  1  0
 31 13  1  0
 27 15  1  0
 24 18  1  0
  1 33  1  0
  1 34  1  0
  1 35  1  0
  2 36  1  6
  3 37  1  0
  3 38  1  0
  4 39  1  0
  4 40  1  0
  5 41  1  1
  8 42  1  0
  8 43  1  0
  8 44  1  0
  9 45  1  0
  9 46  1  0
  9 47  1  0
 10 48  1  6
 11 49  1  0
 11 50  1  0
 12 51  1  0
 12 52  1  0
 14 53  1  0
 14 54  1  0
 14 55  1  0
 15 56  1  1
 16 57  1  0
 16 58  1  0
 17 59  1  0
 19 60  1  6
 20 61  1  0
 20 62  1  0
 21 63  1  0
 21 64  1  0
 22 65  1  6
 23 66  1  0
 25 67  1  0
 25 68  1  0
 25 69  1  0
 26 70  1  0
 26 71  1  0
 26 72  1  0
 28 73  1  0
 28 74  1  0
 28 75  1  0
 29 76  1  0
 29 77  1  0
 30 78  1  0
 30 79  1  0
 32 80  1  0
 32 81  1  0
 32 82  1  0
M  END
>  <meeko>  (16) 
{"is_sidechain": [false], "intermolecular_energy": 2.731, "internal_energy": -0.839}

$$$$
EPH_relaxed_0001_pdb2pqr_Repair_202_r2_0001_out
     RDKit          3D

 82 86  0  0  0  0  0  0  0  0999 V2000
   -5.1300    5.9140   -1.6820 C   0  0  0  0  0  0  0  0  0  0  0  0
   -5.4300    7.4120   -1.7940 C   0  0  2  0  0  0  0  0  0  0  0  0
   -5.1990    8.1510   -0.4610 C   0  0  0  0  0  0  0  0  0  0  0  0
   -4.1370    9.2510   -0.5420 C   0  0  0  0  0  0  0  0  0  0  0  0
   -2.7780    8.6890   -0.8310 C   0  0  2  0  0  0  0  0  0  0  0  0
   -1.7820    8.9940    0.1530 O   0  0  0  0  0  0  0  0  0  0  0  0
   -1.5690    9.5470   -1.1560 C   0  0  0  0  0  0  0  0  0  0  0  0
   -1.6640   11.0390   -1.2100 C   0  0  0  0  0  0  0  0  0  0  0  0
   -0.4270    8.9230   -1.8950 C   0  0  0  0  0  0  0  0  0  0  0  0
   -6.8640    7.6210   -2.2650 C   0  0  1  0  0  0  0  0  0  0  0  0
   -7.1560    6.9230   -3.6200 C   0  0  0  0  0  0  0  0  0  0  0  0
   -8.6250    6.4320   -3.5620 C   0  0  0  0  0  0  0  0  0  0  0  0
   -9.2270    7.1450   -2.3290 C   0  0  1  0  0  0  0  0  0  0  0  0
   -9.5930    8.5770   -2.8320 C   0  0  0  0  0  0  0  0  0  0  0  0
  -10.4480    6.4420   -1.6510 C   0  0  2  0  0  0  0  0  0  0  0  0
  -11.6960    6.3020   -2.5400 C   0  0  0  0  0  0  0  0  0  0  0  0
  -12.6650    7.4360   -2.4630 C   0  0  0  0  0  0  0  0  0  0  0  0
  -12.6840    8.3830   -1.5080 C   0  0  0  0  0  0  0  0  0  0  0  0
  -11.7250    8.3170   -0.3120 C   0  0  1  0  0  0  0  0  0  0  0  0
  -12.5110    8.5860    0.9980 C   0  0  0  0  0  0  0  0  0  0  0  0
  -13.2960    9.8930    0.9520 C   0  0  0  0  0  0  0  0  0  0  0  0
  -14.2800    9.8970   -0.2150 C   0  0  2  0  0  0  0  0  0  0  0  0
  -15.2870    8.9100    0.0280 O   0  0  0  0  0  0  0  0  0  0  0  0
  -13.6040    9.6270   -1.5880 C   0  0  0  0  0  0  0  0  0  0  0  0
  -12.7380   10.8460   -1.9910 C   0  0  0  0  0  0  0  0  0  0  0  0
  -14.7230    9.5170   -2.6580 C   0  0  0  0  0  0  0  0  0  0  0  0
  -10.8170    7.0160   -0.2240 C   0  0  1  0  0  0  0  0  0  0  0  0
  -11.5820    5.8840    0.5280 C   0  0  0  0  0  0  0  0  0  0  0  0
   -9.5400    7.3380    0.6400 C   0  0  0  0  0  0  0  0  0  0  0  0
   -8.3250    7.9200   -0.1070 C   0  0  0  0  0  0  0  0  0  0  0  0
   -7.9970    7.0890   -1.3520 C   0  0  2  0  0  0  0  0  0  0  0  0
   -7.6030    5.6490   -0.8750 C   0  0  0  0  0  0  0  0  0  0  0  0
   -5.0731    5.6298   -0.6209 H   0  0  0  0  0  0  0  0  0  0  0  0
   -5.9314    5.3419   -2.1723 H   0  0  0  0  0  0  0  0  0  0  0  0
   -4.1701    5.6946   -2.1723 H   0  0  0  0  0  0  0  0  0  0  0  0
   -4.7320    7.8356   -2.5311 H   0  0  0  0  0  0  0  0  0  0  0  0
   -6.1493    8.6084   -0.1485 H   0  0  0  0  0  0  0  0  0  0  0  0
   -4.8343    7.4051    0.2606 H   0  0  0  0  0  0  0  0  0  0  0  0
   -4.4107    9.9524   -1.3440 H   0  0  0  0  0  0  0  0  0  0  0  0
   -4.0971    9.7616    0.4315 H   0  0  0  0  0  0  0  0  0  0  0  0
   -3.2205    7.8167   -1.3343 H   0  0  0  0  0  0  0  0  0  0  0  0
   -1.6897   11.4420   -0.1868 H   0  0  0  0  0  0  0  0  0  0  0  0
   -0.7898   11.4431   -1.7414 H   0  0  0  0  0  0  0  0  0  0  0  0
   -2.5824   11.3289   -1.7414 H   0  0  0  0  0  0  0  0  0  0  0  0
    0.3022    8.5246   -1.1742 H   0  0  0  0  0  0  0  0  0  0  0  0
   -0.8026    8.1047   -2.5270 H   0  0  0  0  0  0  0  0  0  0  0  0
    0.0588    9.6811   -2.5270 H   0  0  0  0  0  0  0  0  0  0  0  0
   -6.8896    8.7203   -2.2949 H   0  0  0  0  0  0  0  0  0  0  0  0
   -7.0269    7.6349   -4.4485 H   0  0  0  0  0  0  0  0  0  0  0  0
   -6.4652    6.0838   -3.7892 H   0  0  0  0  0  0  0  0  0  0  0  0
   -9.1656    6.7159   -4.4770 H   0  0  0  0  0  0  0  0  0  0  0  0
   -8.6958    5.3369   -3.4861 H   0  0  0  0  0  0  0  0  0  0  0  0
   -9.7617    9.2370   -1.9683 H   0  0  0  0  0  0  0  0  0  0  0  0
   -8.7674    8.9739   -3.4410 H   0  0  0  0  0  0  0  0  0  0  0  0
  -10.5078    8.5290   -3.4410 H   0  0  0  0  0  0  0  0  0  0  0  0
  -10.0744    5.4190   -1.4961 H   0  0  0  0  0  0  0  0  0  0  0  0
  -11.3612    6.2114   -3.5839 H   0  0  0  0  0  0  0  0  0  0  0  0
  -12.2343    5.4164   -2.1713 H   0  0  0  0  0  0  0  0  0  0  0  0
  -13.4270    7.5023   -3.2536 H   0  0  0  0  0  0  0  0  0  0  0  0
  -10.9837    9.1140   -0.4713 H   0  0  0  0  0  0  0  0  0  0  0  0
  -13.2154    7.7574    1.1629 H   0  0  0  0  0  0  0  0  0  0  0  0
  -11.7795    8.6648    1.8157 H   0  0  0  0  0  0  0  0  0  0  0  0
  -13.8530   10.0118    1.8931 H   0  0  0  0  0  0  0  0  0  0  0  0
  -12.5876   10.7237    0.8171 H   0  0  0  0  0  0  0  0  0  0  0  0
  -14.7172   10.9046   -0.2741 H   0  0  0  0  0  0  0  0  0  0  0  0
  -15.7100    8.7050   -0.8240 H   0  0  0  0  0  0  0  0  0  0  0  0
  -12.3767   11.3546   -1.0851 H   0  0  0  0  0  0  0  0  0  0  0  0
  -11.8789   10.5045   -2.5871 H   0  0  0  0  0  0  0  0  0  0  0  0
  -13.3433   11.5448   -2.5871 H   0  0  0  0  0  0  0  0  0  0  0  0
  -15.6988    9.4211   -2.1595 H   0  0  0  0  0  0  0  0  0  0  0  0
  -14.7195   10.4198   -3.2864 H   0  0  0  0  0  0  0  0  0  0  0  0
  -14.5437    8.6321   -3.2864 H   0  0  0  0  0  0  0  0  0  0  0  0
  -11.4819    6.0322    1.6134 H   0  0  0  0  0  0  0  0  0  0  0  0
  -12.6460    5.9136    0.2505 H   0  0  0  0  0  0  0  0  0  0  0  0
  -11.1577    4.9078    0.2505 H   0  0  0  0  0  0  0  0  0  0  0  0
   -9.8349    8.0638    1.4122 H   0  0  0  0  0  0  0  0  0  0  0  0
   -9.2014    6.3656    1.0269 H   0  0  0  0  0  0  0  0  0  0  0  0
   -8.5511    8.9522   -0.4126 H   0  0  0  0  0  0  0  0  0  0  0  0
   -7.4561    7.8997    0.5672 H   0  0  0  0  0  0  0  0  0  0  0  0
   -7.5941    5.6166    0.2245 H   0  0  0  0  0  0  0  0  0  0  0  0
   -8.3355    4.9229   -1.2574 H   0  0  0  0  0  0  0  0  0  0  0  0
   -6.6029    5.3969   -1.2574 H   0  0  0  0  0  0  0  0  0  0  0  0
  1  2  1  0
  2  3  1  0
  3  4  1  0
  4  5  1  0
  5  6  1  0
  6  7  1  0
  7  8  1  0
  7  9  1  0
  2 10  1  0
 10 11  1  0
 11 12  1  0
 12 13  1  0
 13 14  1  6
 13 15  1  0
 15 16  1  0
 16 17  1  0
 17 18  2  0
 18 19  1  0
 19 20  1  0
 20 21  1  0
 21 22  1  0
 22 23  1  0
 22 24  1  0
 24 25  1  0
 24 26  1  0
 19 27  1  0
 27 28  1  1
 27 29  1  0
 29 30  1  0
 30 31  1  0
 31 32  1  1
  7  5  1  0
 31 10  1  0
 31 13  1  0
 27 15  1  0
 24 18  1  0
  1 33  1  0
  1 34  1  0
  1 35  1  0
  2 36  1  6
  3 37  1  0
  3 38  1  0
  4 39  1  0
  4 40  1  0
  5 41  1  6
  8 42  1  0
  8 43  1  0
  8 44  1  0
  9 45  1  0
  9 46  1  0
  9 47  1  0
 10 48  1  6
 11 49  1  0
 11 50  1  0
 12 51  1  0
 12 52  1  0
 14 53  1  0
 14 54  1  0
 14 55  1  0
 15 56  1  1
 16 57  1  0
 16 58  1  0
 17 59  1  0
 19 60  1  6
 20 61  1  0
 20 62  1  0
 21 63  1  0
 21 64  1  0
 22 65  1  6
 23 66  1  0
 25 67  1  0
 25 68  1  0
 25 69  1  0
 26 70  1  0
 26 71  1  0
 26 72  1  0
 28 73  1  0
 28 74  1  0
 28 75  1  0
 29 76  1  0
 29 77  1  0
 30 78  1  0
 30 79  1  0
 32 80  1  0
 32 81  1  0
 32 82  1  0
M  END
>  <meeko>  (17) 
{"is_sidechain": [false], "intermolecular_energy": 2.731, "internal_energy": -0.839}

$$$$
EPH_relaxed_0001_pdb2pqr_Repair_202_r2_0001_out
     RDKit          3D

 82 86  0  0  0  0  0  0  0  0999 V2000
   -0.2830   18.7250    1.6750 C   0  0  0  0  0  0  0  0  0  0  0  0
    0.8200   17.8030    2.2020 C   0  0  2  0  0  0  0  0  0  0  0  0
    2.2050   18.1730    1.6340 C   0  0  0  0  0  0  0  0  0  0  0  0
    2.1900   19.4080    0.7290 C   0  0  0  0  0  0  0  0  0  0  0  0
    2.6880   19.0910   -0.6490 C   0  0  2  0  0  0  0  0  0  0  0  0
    2.6580   20.1940   -1.5640 O   0  0  0  0  0  0  0  0  0  0  0  0
    1.7990   19.0860   -1.8790 C   0  0  0  0  0  0  0  0  0  0  0  0
    0.3390   19.4030   -1.7880 C   0  0  0  0  0  0  0  0  0  0  0  0
    2.2390   18.3030   -3.0760 C   0  0  0  0  0  0  0  0  0  0  0  0
    0.4900   16.3530    1.8660 C   0  0  1  0  0  0  0  0  0  0  0  0
   -0.9230   15.9350    2.3510 C   0  0  0  0  0  0  0  0  0  0  0  0
   -1.4800   14.9400    1.3000 C   0  0  0  0  0  0  0  0  0  0  0  0
   -0.2570   14.5650    0.4310 C   0  0  1  0  0  0  0  0  0  0  0  0
    0.4970   13.4710    1.2520 C   0  0  0  0  0  0  0  0  0  0  0  0
   -0.5640   14.0850   -1.0240 C   0  0  2  0  0  0  0  0  0  0  0  0
   -1.3950   12.7940   -1.1240 C   0  0  0  0  0  0  0  0  0  0  0  0
   -0.6040   11.5290   -1.1740 C   0  0  0  0  0  0  0  0  0  0  0  0
    0.7150   11.4400   -1.4270 C   0  0  0  0  0  0  0  0  0  0  0  0
    1.5320   12.6860   -1.7940 C   0  0  1  0  0  0  0  0  0  0  0  0
    2.4300   12.3740   -3.0190 C   0  0  0  0  0  0  0  0  0  0  0  0
    3.3060   11.1440   -2.8050 C   0  0  0  0  0  0  0  0  0  0  0  0
    2.4550    9.9140   -2.5000 C   0  0  2  0  0  0  0  0  0  0  0  0
    1.6920    9.5830   -3.6640 O   0  0  0  0  0  0  0  0  0  0  0  0
    1.5020   10.1140   -1.2890 C   0  0  0  0  0  0  0  0  0  0  0  0
    2.3280   10.1730    0.0200 C   0  0  0  0  0  0  0  0  0  0  0  0
    0.6020    8.8540   -1.1770 C   0  0  0  0  0  0  0  0  0  0  0  0
    0.7030   14.0310   -1.9700 C   0  0  1  0  0  0  0  0  0  0  0  0
    0.1720   14.1410   -3.4320 C   0  0  0  0  0  0  0  0  0  0  0  0
    1.6640   15.2590   -1.7530 C   0  0  0  0  0  0  0  0  0  0  0  0
    1.8340   15.7620   -0.3070 C   0  0  0  0  0  0  0  0  0  0  0  0
    0.4730   15.9560    0.3690 C   0  0  2  0  0  0  0  0  0  0  0  0
   -0.3000   17.0670   -0.4210 C   0  0  0  0  0  0  0  0  0  0  0  0
   -0.8210   19.1747    2.5225 H   0  0  0  0  0  0  0  0  0  0  0  0
    0.1658   19.5204    1.0619 H   0  0  0  0  0  0  0  0  0  0  0  0
   -0.9862   18.1422    1.0619 H   0  0  0  0  0  0  0  0  0  0  0  0
    0.8652   17.9305    3.2936 H   0  0  0  0  0  0  0  0  0  0  0  0
    2.8848   18.3682    2.4764 H   0  0  0  0  0  0  0  0  0  0  0  0
    2.5352   17.3255    1.0154 H   0  0  0  0  0  0  0  0  0  0  0  0
    1.1592   19.7853    0.6576 H   0  0  0  0  0  0  0  0  0  0  0  0
    2.8566   20.1642    1.1693 H   0  0  0  0  0  0  0  0  0  0  0  0
    3.3977   18.3520   -0.2487 H   0  0  0  0  0  0  0  0  0  0  0  0
    0.0430   19.4673   -0.7305 H   0  0  0  0  0  0  0  0  0  0  0  0
    0.1411   20.3650   -2.2833 H   0  0  0  0  0  0  0  0  0  0  0  0
   -0.2400   18.6096   -2.2833 H   0  0  0  0  0  0  0  0  0  0  0  0
    2.7532   17.3880   -2.7468 H   0  0  0  0  0  0  0  0  0  0  0  0
    1.3606   18.0327   -3.6805 H   0  0  0  0  0  0  0  0  0  0  0  0
    2.9266   18.9127   -3.6805 H   0  0  0  0  0  0  0  0  0  0  0  0
    1.3236   15.8504    2.3783 H   0  0  0  0  0  0  0  0  0  0  0  0
   -0.8572   15.4488    3.3355 H   0  0  0  0  0  0  0  0  0  0  0  0
   -1.5807   16.8107    2.4536 H   0  0  0  0  0  0  0  0  0  0  0  0
   -1.8952   14.0479    1.7917 H   0  0  0  0  0  0  0  0  0  0  0  0
   -2.2965   15.3753    0.7052 H   0  0  0  0  0  0  0  0  0  0  0  0
    0.3646   13.6630    2.3270 H   0  0  0  0  0  0  0  0  0  0  0  0
    0.0892   12.4800    1.0036 H   0  0  0  0  0  0  0  0  0  0  0  0
    1.5682   13.4994    1.0036 H   0  0  0  0  0  0  0  0  0  0  0  0
   -1.2125   14.8879   -1.4045 H   0  0  0  0  0  0  0  0  0  0  0  0
   -2.0566   12.7468   -0.2465 H   0  0  0  0  0  0  0  0  0  0  0  0
   -1.9353   12.8531   -2.0803 H   0  0  0  0  0  0  0  0  0  0  0  0
   -1.1452   10.5895   -0.9883 H   0  0  0  0  0  0  0  0  0  0  0  0
    2.1602   12.9072   -0.9186 H   0  0  0  0  0  0  0  0  0  0  0  0
    1.7855   12.1999   -3.8932 H   0  0  0  0  0  0  0  0  0  0  0  0
    3.0965   13.2356   -3.1720 H   0  0  0  0  0  0  0  0  0  0  0  0
    3.8940   10.9580   -3.7159 H   0  0  0  0  0  0  0  0  0  0  0  0
    3.9711   11.3315   -1.9492 H   0  0  0  0  0  0  0  0  0  0  0  0
    3.1395    9.0970   -2.2279 H   0  0  0  0  0  0  0  0  0  0  0  0
    2.0150    8.7270   -3.9930 H   0  0  0  0  0  0  0  0  0  0  0  0
    1.6493   10.1245    0.8843 H   0  0  0  0  0  0  0  0  0  0  0  0
    3.0246    9.3223    0.0526 H   0  0  0  0  0  0  0  0  0  0  0  0
    2.8966   11.1141    0.0526 H   0  0  0  0  0  0  0  0  0  0  0  0
    0.4329    8.6173   -0.1162 H   0  0  0  0  0  0  0  0  0  0  0  0
   -0.3632    9.0480   -1.6677 H   0  0  0  0  0  0  0  0  0  0  0  0
    1.0985    8.0039   -1.6677 H   0  0  0  0  0  0  0  0  0  0  0  0
   -0.9050   14.3641   -3.4151 H   0  0  0  0  0  0  0  0  0  0  0  0
    0.7054   14.9477   -3.9561 H   0  0  0  0  0  0  0  0  0  0  0  0
    0.3410   13.1888   -3.9561 H   0  0  0  0  0  0  0  0  0  0  0  0
    2.6589   14.9725   -2.1246 H   0  0  0  0  0  0  0  0  0  0  0  0
    1.1918   16.0925   -2.2936 H   0  0  0  0  0  0  0  0  0  0  0  0
    2.4178   15.0251    0.2641 H   0  0  0  0  0  0  0  0  0  0  0  0
    2.3551   16.7304   -0.3312 H   0  0  0  0  0  0  0  0  0  0  0  0
   -0.7794   17.7561    0.2898 H   0  0  0  0  0  0  0  0  0  0  0  0
    0.4057   17.6253   -1.0537 H   0  0  0  0  0  0  0  0  0  0  0  0
   -1.0688   16.5994   -1.0537 H   0  0  0  0  0  0  0  0  0  0  0  0
  1  2  1  0
  2  3  1  0
  3  4  1  0
  4  5  1  0
  5  6  1  0
  6  7  1  0
  7  8  1  0
  7  9  1  0
  2 10  1  0
 10 11  1  0
 11 12  1  0
 12 13  1  0
 13 14  1  1
 13 15  1  0
 15 16  1  0
 16 17  1  0
 17 18  2  0
 18 19  1  0
 19 20  1  0
 20 21  1  0
 21 22  1  0
 22 23  1  0
 22 24  1  0
 24 25  1  0
 24 26  1  0
 19 27  1  0
 27 28  1  6
 27 29  1  0
 29 30  1  0
 30 31  1  0
 31 32  1  6
  7  5  1  0
 31 10  1  0
 31 13  1  0
 27 15  1  0
 24 18  1  0
  1 33  1  0
  1 34  1  0
  1 35  1  0
  2 36  1  1
  3 37  1  0
  3 38  1  0
  4 39  1  0
  4 40  1  0
  5 41  1  1
  8 42  1  0
  8 43  1  0
  8 44  1  0
  9 45  1  0
  9 46  1  0
  9 47  1  0
 10 48  1  1
 11 49  1  0
 11 50  1  0
 12 51  1  0
 12 52  1  0
 14 53  1  0
 14 54  1  0
 14 55  1  0
 15 56  1  6
 16 57  1  0
 16 58  1  0
 17 59  1  0
 19 60  1  1
 20 61  1  0
 20 62  1  0
 21 63  1  0
 21 64  1  0
 22 65  1  1
 23 66  1  0
 25 67  1  0
 25 68  1  0
 25 69  1  0
 26 70  1  0
 26 71  1  0
 26 72  1  0
 28 73  1  0
 28 74  1  0
 28 75  1  0
 29 76  1  0
 29 77  1  0
 30 78  1  0
 30 79  1  0
 32 80  1  0
 32 81  1  0
 32 82  1  0
M  END
>  <meeko>  (18) 
{"is_sidechain": [false], "intermolecular_energy": 2.731, "internal_energy": -0.839}

$$$$
