EPH_relaxed_0001_pdb2pqr_Repair_329_r2_0001_out
     RDKit          3D

 82 86  0  0  0  0  0  0  0  0999 V2000
    4.5600   18.1820   -0.7590 C   0  0  0  0  0  0  0  0  0  0  0  0
    3.1750   18.6660   -0.3200 C   0  0  2  0  0  0  0  0  0  0  0  0
    3.1580   19.1160    1.1540 C   0  0  0  0  0  0  0  0  0  0  0  0
    4.4100   18.7110    1.9360 C   0  0  0  0  0  0  0  0  0  0  0  0
    4.4310   19.3210    3.3050 C   0  0  2  0  0  0  0  0  0  0  0  0
    5.5390   20.1940    3.5550 O   0  0  0  0  0  0  0  0  0  0  0  0
    5.4840   18.9980    4.3490 C   0  0  0  0  0  0  0  0  0  0  0  0
    6.5900   18.0300    4.0690 C   0  0  0  0  0  0  0  0  0  0  0  0
    5.1620   19.2460    5.7900 C   0  0  0  0  0  0  0  0  0  0  0  0
    2.1450   17.5640   -0.5400 C   0  0  1  0  0  0  0  0  0  0  0  0
    0.8610   18.0780   -1.2430 C   0  0  0  0  0  0  0  0  0  0  0  0
    0.3630   16.9310   -2.1600 C   0  0  0  0  0  0  0  0  0  0  0  0
    1.1730   15.6920   -1.7100 C   0  0  1  0  0  0  0  0  0  0  0  0
    0.4320   15.1680   -0.4400 C   0  0  0  0  0  0  0  0  0  0  0  0
    1.3600   14.5640   -2.7760 C   0  0  2  0  0  0  0  0  0  0  0  0
    0.0580   13.8980   -3.2560 C   0  0  0  0  0  0  0  0  0  0  0  0
   -0.3710   12.7010   -2.4750 C   0  0  0  0  0  0  0  0  0  0  0  0
    0.4000   12.0110   -1.6140 C   0  0  0  0  0  0  0  0  0  0  0  0
    1.8820   12.3610   -1.4290 C   0  0  1  0  0  0  0  0  0  0  0  0
    2.7290   11.0620   -1.4620 C   0  0  0  0  0  0  0  0  0  0  0  0
    2.2450   10.0230   -0.4550 C   0  0  0  0  0  0  0  0  0  0  0  0
    0.7850    9.6580   -0.7070 C   0  0  2  0  0  0  0  0  0  0  0  0
    0.6900    8.9770   -1.9620 O   0  0  0  0  0  0  0  0  0  0  0  0
   -0.1630   10.8890   -0.7070 C   0  0  0  0  0  0  0  0  0  0  0  0
   -0.2930   11.4470    0.7320 C   0  0  0  0  0  0  0  0  0  0  0  0
   -1.5800   10.4010   -1.1130 C   0  0  0  0  0  0  0  0  0  0  0  0
    2.4540   13.4870   -2.3950 C   0  0  1  0  0  0  0  0  0  0  0  0
    2.9340   12.8460   -3.7330 C   0  0  0  0  0  0  0  0  0  0  0  0
    3.7270   14.1350   -1.7320 C   0  0  0  0  0  0  0  0  0  0  0  0
    3.4860   15.3220   -0.7800 C   0  0  0  0  0  0  0  0  0  0  0  0
    2.5660   16.3640   -1.4250 C   0  0  2  0  0  0  0  0  0  0  0  0
    3.2950   16.9250   -2.6940 C   0  0  0  0  0  0  0  0  0  0  0  0
    5.1723   17.9680    0.1295 H   0  0  0  0  0  0  0  0  0  0  0  0
    4.4550   17.2673   -1.3609 H   0  0  0  0  0  0  0  0  0  0  0  0
    5.0476   18.9630   -1.3609 H   0  0  0  0  0  0  0  0  0  0  0  0
    2.9200   19.5412   -0.9356 H   0  0  0  0  0  0  0  0  0  0  0  0
    3.0711   20.2122    1.1814 H   0  0  0  0  0  0  0  0  0  0  0  0
    2.3039   18.6149    1.6330 H   0  0  0  0  0  0  0  0  0  0  0  0
    4.4303   17.6155    2.0337 H   0  0  0  0  0  0  0  0  0  0  0  0
    5.2902   19.0745    1.3855 H   0  0  0  0  0  0  0  0  0  0  0  0
    3.3317   19.3289    3.3435 H   0  0  0  0  0  0  0  0  0  0  0  0
    7.0071   17.6650    5.0192 H   0  0  0  0  0  0  0  0  0  0  0  0
    6.1965   17.1808    3.4910 H   0  0  0  0  0  0  0  0  0  0  0  0
    7.3795   18.5325    3.4910 H   0  0  0  0  0  0  0  0  0  0  0  0
    5.8739   18.6977    6.4244 H   0  0  0  0  0  0  0  0  0  0  0  0
    5.2358   20.3228    6.0021 H   0  0  0  0  0  0  0  0  0  0  0  0
    4.1397   18.8997    6.0021 H   0  0  0  0  0  0  0  0  0  0  0  0
    2.0035   17.2336    0.4996 H   0  0  0  0  0  0  0  0  0  0  0  0
    0.0931   18.3257   -0.4953 H   0  0  0  0  0  0  0  0  0  0  0  0
    1.0672   18.9880   -1.8256 H   0  0  0  0  0  0  0  0  0  0  0  0
   -0.7149   16.7621   -2.0200 H   0  0  0  0  0  0  0  0  0  0  0  0
    0.5059   17.1579   -3.2268 H   0  0  0  0  0  0  0  0  0  0  0  0
    0.9469   15.5321    0.4613 H   0  0  0  0  0  0  0  0  0  0  0  0
   -0.6051   15.5346   -0.4432 H   0  0  0  0  0  0  0  0  0  0  0  0
    0.4320   14.0680   -0.4432 H   0  0  0  0  0  0  0  0  0  0  0  0
    1.7483   15.1198   -3.6422 H   0  0  0  0  0  0  0  0  0  0  0  0
   -0.7467   14.6460   -3.2011 H   0  0  0  0  0  0  0  0  0  0  0  0
    0.2577   13.5399   -4.2767 H   0  0  0  0  0  0  0  0  0  0  0  0
   -1.4051   12.3530   -2.6148 H   0  0  0  0  0  0  0  0  0  0  0  0
    1.9617   12.8333   -0.4388 H   0  0  0  0  0  0  0  0  0  0  0  0
    2.6710   10.6287   -2.4714 H   0  0  0  0  0  0  0  0  0  0  0  0
    3.7621   11.3298   -1.1955 H   0  0  0  0  0  0  0  0  0  0  0  0
    2.8633    9.1178   -0.5464 H   0  0  0  0  0  0  0  0  0  0  0  0
    2.3313   10.4473    0.5562 H   0  0  0  0  0  0  0  0  0  0  0  0
    0.4589    9.0116    0.1212 H   0  0  0  0  0  0  0  0  0  0  0  0
    0.3630    9.6150   -2.6190 H   0  0  0  0  0  0  0  0  0  0  0  0
   -0.1052   10.6407    1.4563 H   0  0  0  0  0  0  0  0  0  0  0  0
    0.4416   12.2521    0.8808 H   0  0  0  0  0  0  0  0  0  0  0  0
   -1.3078   11.8445    0.8808 H   0  0  0  0  0  0  0  0  0  0  0  0
   -2.1710   10.1975   -0.2079 H   0  0  0  0  0  0  0  0  0  0  0  0
   -2.0789   11.1791   -1.7094 H   0  0  0  0  0  0  0  0  0  0  0  0
   -1.4940    9.4807   -1.7094 H   0  0  0  0  0  0  0  0  0  0  0  0
    3.5803   11.9830   -3.5150 H   0  0  0  0  0  0  0  0  0  0  0  0
    2.0613   12.5131   -4.3139 H   0  0  0  0  0  0  0  0  0  0  0  0
    3.4991   13.5898   -4.3139 H   0  0  0  0  0  0  0  0  0  0  0  0
    4.2411   13.3486   -1.1599 H   0  0  0  0  0  0  0  0  0  0  0  0
    4.3076   14.5504   -2.5689 H   0  0  0  0  0  0  0  0  0  0  0  0
    3.0187   14.9526    0.1447 H   0  0  0  0  0  0  0  0  0  0  0  0
    4.4534   15.7968   -0.5593 H   0  0  0  0  0  0  0  0  0  0  0  0
    4.1310   17.5683   -2.3822 H   0  0  0  0  0  0  0  0  0  0  0  0
    3.6806   16.0884   -3.2952 H   0  0  0  0  0  0  0  0  0  0  0  0
    2.5851   17.5120   -3.2952 H   0  0  0  0  0  0  0  0  0  0  0  0
  1  2  1  0
  2  3  1  0
  3  4  1  0
  4  5  1  0
  5  6  1  0
  6  7  1  0
  7  8  1  0
  7  9  1  0
  2 10  1  0
 10 11  1  0
 11 12  1  0
 12 13  1  0
 13 14  1  1
 13 15  1  0
 15 16  1  0
 16 17  1  0
 17 18  2  0
 18 19  1  0
 19 20  1  0
 20 21  1  0
 21 22  1  0
 22 23  1  0
 22 24  1  0
 24 25  1  0
 24 26  1  0
 19 27  1  0
 27 28  1  6
 27 29  1  0
 29 30  1  0
 30 31  1  0
 31 32  1  6
  7  5  1  0
 31 10  1  0
 31 13  1  0
 27 15  1  0
 24 18  1  0
  1 33  1  0
  1 34  1  0
  1 35  1  0
  2 36  1  6
  3 37  1  0
  3 38  1  0
  4 39  1  0
  4 40  1  0
  5 41  1  1
  8 42  1  0
  8 43  1  0
  8 44  1  0
  9 45  1  0
  9 46  1  0
  9 47  1  0
 10 48  1  1
 11 49  1  0
 11 50  1  0
 12 51  1  0
 12 52  1  0
 14 53  1  0
 14 54  1  0
 14 55  1  0
 15 56  1  6
 16 57  1  0
 16 58  1  0
 17 59  1  0
 19 60  1  1
 20 61  1  0
 20 62  1  0
 21 63  1  0
 21 64  1  0
 22 65  1  1
 23 66  1  0
 25 67  1  0
 25 68  1  0
 25 69  1  0
 26 70  1  0
 26 71  1  0
 26 72  1  0
 28 73  1  0
 28 74  1  0
 28 75  1  0
 29 76  1  0
 29 77  1  0
 30 78  1  0
 30 79  1  0
 32 80  1  0
 32 81  1  0
 32 82  1  0
M  END
>  <meeko>  (1) 
{"is_sidechain": [false], "intermolecular_energy": 2.731, "internal_energy": -0.839}

$$$$
EPH_relaxed_0001_pdb2pqr_Repair_329_r2_0001_out
     RDKit          3D

 82 86  0  0  0  0  0  0  0  0999 V2000
    4.2380   18.3420   -0.0530 C   0  0  0  0  0  0  0  0  0  0  0  0
    3.0460   18.8110   -0.8920 C   0  0  2  0  0  0  0  0  0  0  0  0
    2.3320   20.0230   -0.2600 C   0  0  0  0  0  0  0  0  0  0  0  0
    1.2580   19.6410    0.7620 C   0  0  0  0  0  0  0  0  0  0  0  0
   -0.0840   20.1940    0.3890 C   0  0  2  0  0  0  0  0  0  0  0  0
   -1.0510   20.1810    1.4470 O   0  0  0  0  0  0  0  0  0  0  0  0
   -1.3440   19.3530    0.3100 C   0  0  0  0  0  0  0  0  0  0  0  0
   -1.3210   17.8860    0.6050 C   0  0  0  0  0  0  0  0  0  0  0  0
   -2.4850   19.8490   -0.5210 C   0  0  0  0  0  0  0  0  0  0  0  0
    2.0600   17.6650   -1.0790 C   0  0  1  0  0  0  0  0  0  0  0  0
    0.8450   18.0600   -1.9620 C   0  0  0  0  0  0  0  0  0  0  0  0
    0.4590   16.8010   -2.7800 C   0  0  0  0  0  0  0  0  0  0  0  0
    1.2360   15.6450   -2.1080 C   0  0  1  0  0  0  0  0  0  0  0  0
    0.3790   15.2540   -0.8640 C   0  0  0  0  0  0  0  0  0  0  0  0
    1.5450   14.4050   -3.0090 C   0  0  2  0  0  0  0  0  0  0  0  0
    0.3090   13.6540   -3.5320 C   0  0  0  0  0  0  0  0  0  0  0  0
   -0.1810   12.5460   -2.6600 C   0  0  0  0  0  0  0  0  0  0  0  0
    0.5090   11.9820   -1.6510 C   0  0  0  0  0  0  0  0  0  0  0  0
    1.9600   12.3890   -1.3640 C   0  0  1  0  0  0  0  0  0  0  0  0
    2.8240   11.1170   -1.1580 C   0  0  0  0  0  0  0  0  0  0  0  0
    2.2550   10.1910   -0.0870 C   0  0  0  0  0  0  0  0  0  0  0  0
    0.8330    9.7610   -0.4370 C   0  0  2  0  0  0  0  0  0  0  0  0
    0.8750    8.9360   -1.6050 O   0  0  0  0  0  0  0  0  0  0  0  0
   -0.1280   10.9600   -0.6770 C   0  0  0  0  0  0  0  0  0  0  0  0
   -0.4100   11.6780    0.6650 C   0  0  0  0  0  0  0  0  0  0  0  0
   -1.4890   10.3900   -1.1590 C   0  0  0  0  0  0  0  0  0  0  0  0
    2.6110   13.4080   -2.3960 C   0  0  1  0  0  0  0  0  0  0  0  0
    3.2320   12.6280   -3.5950 C   0  0  0  0  0  0  0  0  0  0  0  0
    3.8000   14.1620   -1.6920 C   0  0  0  0  0  0  0  0  0  0  0  0
    3.4480   15.4460   -0.9180 C   0  0  0  0  0  0  0  0  0  0  0  0
    2.5840   16.3810   -1.7700 C   0  0  2  0  0  0  0  0  0  0  0  0
    3.4290   16.8090   -3.0180 C   0  0  0  0  0  0  0  0  0  0  0  0
    3.9946   18.4377    1.0155 H   0  0  0  0  0  0  0  0  0  0  0  0
    4.4590   17.2899   -0.2859 H   0  0  0  0  0  0  0  0  0  0  0  0
    5.1167   18.9614   -0.2859 H   0  0  0  0  0  0  0  0  0  0  0  0
    3.4347   19.1304   -1.8702 H   0  0  0  0  0  0  0  0  0  0  0  0
    3.0855   20.6456    0.2445 H   0  0  0  0  0  0  0  0  0  0  0  0
    1.8235   20.5576   -1.0758 H   0  0  0  0  0  0  0  0  0  0  0  0
    1.1896   18.5444    0.8142 H   0  0  0  0  0  0  0  0  0  0  0  0
    1.5450   20.0650    1.7356 H   0  0  0  0  0  0  0  0  0  0  0  0
    0.3772   20.8992   -0.3181 H   0  0  0  0  0  0  0  0  0  0  0  0
   -1.3186   17.7310    1.6940 H   0  0  0  0  0  0  0  0  0  0  0  0
   -2.2118   17.4103    0.1689 H   0  0  0  0  0  0  0  0  0  0  0  0
   -0.4157   17.4384    0.1689 H   0  0  0  0  0  0  0  0  0  0  0  0
   -3.2929   20.2002    0.1378 H   0  0  0  0  0  0  0  0  0  0  0  0
   -2.1424   20.6794   -1.1559 H   0  0  0  0  0  0  0  0  0  0  0  0
   -2.8586   19.0321   -1.1559 H   0  0  0  0  0  0  0  0  0  0  0  0
    1.8202   17.4549   -0.0262 H   0  0  0  0  0  0  0  0  0  0  0  0
    0.0021   18.3733   -1.3284 H   0  0  0  0  0  0  0  0  0  0  0  0
    1.0955   18.9008   -2.6255 H   0  0  0  0  0  0  0  0  0  0  0  0
   -0.6251   16.6218   -2.7283 H   0  0  0  0  0  0  0  0  0  0  0  0
    0.7064   16.9049   -3.8468 H   0  0  0  0  0  0  0  0  0  0  0  0
    0.9298   15.5053    0.0544 H   0  0  0  0  0  0  0  0  0  0  0  0
   -0.5713   15.8076   -0.8847 H   0  0  0  0  0  0  0  0  0  0  0  0
    0.1743   14.1734   -0.8847 H   0  0  0  0  0  0  0  0  0  0  0  0
    2.0100   14.8659   -3.8929 H   0  0  0  0  0  0  0  0  0  0  0  0
   -0.5074   14.3821   -3.6472 H   0  0  0  0  0  0  0  0  0  0  0  0
    0.6168   13.1834   -4.4774 H   0  0  0  0  0  0  0  0  0  0  0  0
   -1.1908   12.1577   -2.8586 H   0  0  0  0  0  0  0  0  0  0  0  0
    1.9328   12.9761   -0.4342 H   0  0  0  0  0  0  0  0  0  0  0  0
    2.8744   10.5670   -2.1093 H   0  0  0  0  0  0  0  0  0  0  0  0
    3.8210   11.4407   -0.8245 H   0  0  0  0  0  0  0  0  0  0  0  0
    2.8920    9.2977   -0.0080 H   0  0  0  0  0  0  0  0  0  0  0  0
    2.2323   10.7331    0.8699 H   0  0  0  0  0  0  0  0  0  0  0  0
    0.4338    9.2072    0.4256 H   0  0  0  0  0  0  0  0  0  0  0  0
    1.1200    9.5020   -2.3560 H   0  0  0  0  0  0  0  0  0  0  0  0
   -0.1481   11.0112    1.4997 H   0  0  0  0  0  0  0  0  0  0  0  0
    0.1948   12.5949    0.7245 H   0  0  0  0  0  0  0  0  0  0  0  0
   -1.4771   11.9382    0.7245 H   0  0  0  0  0  0  0  0  0  0  0  0
   -2.1075   10.1310   -0.2870 H   0  0  0  0  0  0  0  0  0  0  0  0
   -2.0089   11.1460   -1.7658 H   0  0  0  0  0  0  0  0  0  0  0  0
   -1.3150    9.4891   -1.7658 H   0  0  0  0  0  0  0  0  0  0  0  0
    3.8747   11.8207   -3.2138 H   0  0  0  0  0  0  0  0  0  0  0  0
    2.4270   12.1971   -4.2085 H   0  0  0  0  0  0  0  0  0  0  0  0
    3.8323   13.3159   -4.2085 H   0  0  0  0  0  0  0  0  0  0  0  0
    4.2636   13.4619   -0.9814 H   0  0  0  0  0  0  0  0  0  0  0  0
    4.4567   14.4909   -2.5108 H   0  0  0  0  0  0  0  0  0  0  0  0
    2.8948   15.1762   -0.0063 H   0  0  0  0  0  0  0  0  0  0  0  0
    4.3818   15.9680   -0.6619 H   0  0  0  0  0  0  0  0  0  0  0  0
    4.3637   17.2824   -2.6831 H   0  0  0  0  0  0  0  0  0  0  0  0
    3.6641   15.9213   -3.6236 H   0  0  0  0  0  0  0  0  0  0  0  0
    2.8524   17.5238   -3.6236 H   0  0  0  0  0  0  0  0  0  0  0  0
  1  2  1  0
  2  3  1  0
  3  4  1  0
  4  5  1  0
  5  6  1  0
  6  7  1  0
  7  8  1  0
  7  9  1  0
  2 10  1  0
 10 11  1  0
 11 12  1  0
 12 13  1  0
 13 14  1  1
 13 15  1  0
 15 16  1  0
 16 17  1  0
 17 18  2  0
 18 19  1  0
 19 20  1  0
 20 21  1  0
 21 22  1  0
 22 23  1  0
 22 24  1  0
 24 25  1  0
 24 26  1  0
 19 27  1  0
 27 28  1  6
 27 29  1  0
 29 30  1  0
 30 31  1  0
 31 32  1  6
  7  5  1  0
 31 10  1  0
 31 13  1  0
 27 15  1  0
 24 18  1  0
  1 33  1  0
  1 34  1  0
  1 35  1  0
  2 36  1  6
  3 37  1  0
  3 38  1  0
  4 39  1  0
  4 40  1  0
  5 41  1  6
  8 42  1  0
  8 43  1  0
  8 44  1  0
  9 45  1  0
  9 46  1  0
  9 47  1  0
 10 48  1  1
 11 49  1  0
 11 50  1  0
 12 51  1  0
 12 52  1  0
 14 53  1  0
 14 54  1  0
 14 55  1  0
 15 56  1  6
 16 57  1  0
 16 58  1  0
 17 59  1  0
 19 60  1  1
 20 61  1  0
 20 62  1  0
 21 63  1  0
 21 64  1  0
 22 65  1  1
 23 66  1  0
 25 67  1  0
 25 68  1  0
 25 69  1  0
 26 70  1  0
 26 71  1  0
 26 72  1  0
 28 73  1  0
 28 74  1  0
 28 75  1  0
 29 76  1  0
 29 77  1  0
 30 78  1  0
 30 79  1  0
 32 80  1  0
 32 81  1  0
 32 82  1  0
M  END
>  <meeko>  (2) 
{"is_sidechain": [false], "intermolecular_energy": 2.731, "internal_energy": -0.839}

$$$$
EPH_relaxed_0001_pdb2pqr_Repair_329_r2_0001_out
     RDKit          3D

 82 86  0  0  0  0  0  0  0  0999 V2000
    2.5630    9.6870   -0.7970 C   0  0  0  0  0  0  0  0  0  0  0  0
    1.2990   10.3050   -1.4010 C   0  0  2  0  0  0  0  0  0  0  0  0
    0.6020    9.3490   -2.3900 C   0  0  0  0  0  0  0  0  0  0  0  0
   -0.1640    8.2110   -1.7090 C   0  0  0  0  0  0  0  0  0  0  0  0
   -1.6270    8.5160   -1.5980 C   0  0  2  0  0  0  0  0  0  0  0  0
   -1.9690    9.8940   -1.7980 O   0  0  0  0  0  0  0  0  0  0  0  0
   -2.2250    9.3610   -0.4890 C   0  0  0  0  0  0  0  0  0  0  0  0
   -1.3700    9.9530    0.5870 C   0  0  0  0  0  0  0  0  0  0  0  0
   -3.6800    9.2050   -0.1750 C   0  0  0  0  0  0  0  0  0  0  0  0
    1.6440   11.6150   -2.0990 C   0  0  1  0  0  0  0  0  0  0  0  0
    1.0290   11.7140   -3.5210 C   0  0  0  0  0  0  0  0  0  0  0  0
    0.6570   13.2020   -3.7450 C   0  0  0  0  0  0  0  0  0  0  0  0
    1.3640   13.9580   -2.5950 C   0  0  1  0  0  0  0  0  0  0  0  0
    2.8410   14.1250   -3.0740 C   0  0  0  0  0  0  0  0  0  0  0  0
    0.7340   15.3270   -2.1780 C   0  0  2  0  0  0  0  0  0  0  0  0
    0.7340   16.4060   -3.2750 C   0  0  0  0  0  0  0  0  0  0  0  0
    1.9380   17.2880   -3.3030 C   0  0  0  0  0  0  0  0  0  0  0  0
    2.8430   17.4070   -2.3140 C   0  0  0  0  0  0  0  0  0  0  0  0
    2.6490   16.6800   -0.9770 C   0  0  1  0  0  0  0  0  0  0  0  0
    2.9260   17.6620    0.1910 C   0  0  0  0  0  0  0  0  0  0  0  0
    4.2930   18.3300    0.0830 C   0  0  0  0  0  0  0  0  0  0  0  0
    4.4260   19.0910   -1.2330 C   0  0  2  0  0  0  0  0  0  0  0  0
    3.5140   20.1940   -1.2230 O   0  0  0  0  0  0  0  0  0  0  0  0
    4.1600   18.2050   -2.4820 C   0  0  0  0  0  0  0  0  0  0  0  0
    5.3210   17.1960   -2.6620 C   0  0  0  0  0  0  0  0  0  0  0  0
    4.1860   19.1240   -3.7340 C   0  0  0  0  0  0  0  0  0  0  0  0
    1.2760   15.8980   -0.8050 C   0  0  1  0  0  0  0  0  0  0  0  0
    0.1790   16.8630   -0.2610 C   0  0  0  0  0  0  0  0  0  0  0  0
    1.4570   14.7730    0.2810 C   0  0  0  0  0  0  0  0  0  0  0  0
    1.9690   13.4070   -0.2120 C   0  0  0  0  0  0  0  0  0  0  0  0
    1.1670   12.9260   -1.4260 C   0  0  2  0  0  0  0  0  0  0  0  0
   -0.3180   12.7280   -0.9690 C   0  0  0  0  0  0  0  0  0  0  0  0
    2.4982    9.7187    0.3006 H   0  0  0  0  0  0  0  0  0  0  0  0
    2.6550    8.6423   -1.1289 H   0  0  0  0  0  0  0  0  0  0  0  0
    3.4440   10.2560   -1.1289 H   0  0  0  0  0  0  0  0  0  0  0  0
    0.5970   10.4969   -0.5761 H   0  0  0  0  0  0  0  0  0  0  0  0
   -0.1077    9.9321   -2.9952 H   0  0  0  0  0  0  0  0  0  0  0  0
    1.3914    8.8856   -3.0001 H   0  0  0  0  0  0  0  0  0  0  0  0
   -0.0353    7.2916   -2.2990 H   0  0  0  0  0  0  0  0  0  0  0  0
    0.2384    8.0869   -0.6928 H   0  0  0  0  0  0  0  0  0  0  0  0
   -1.8869    7.5214   -1.9895 H   0  0  0  0  0  0  0  0  0  0  0  0
   -1.7736    9.6735    1.5714 H   0  0  0  0  0  0  0  0  0  0  0  0
   -0.3427    9.5719    0.4903 H   0  0  0  0  0  0  0  0  0  0  0  0
   -1.3652   11.0487    0.4903 H   0  0  0  0  0  0  0  0  0  0  0  0
   -3.8201    9.1900    0.9159 H   0  0  0  0  0  0  0  0  0  0  0  0
   -4.2404   10.0482   -0.6051 H   0  0  0  0  0  0  0  0  0  0  0  0
   -4.0489    8.2622   -0.6051 H   0  0  0  0  0  0  0  0  0  0  0  0
    2.7420   11.5554   -2.0713 H   0  0  0  0  0  0  0  0  0  0  0  0
    1.7621   11.3893   -4.2741 H   0  0  0  0  0  0  0  0  0  0  0  0
    0.1440   11.0674   -3.6144 H   0  0  0  0  0  0  0  0  0  0  0  0
    1.0229   13.5510   -4.7219 H   0  0  0  0  0  0  0  0  0  0  0  0
   -0.4309   13.3648   -3.7447 H   0  0  0  0  0  0  0  0  0  0  0  0
    3.5039   14.1999   -2.1994 H   0  0  0  0  0  0  0  0  0  0  0  0
    3.1307   13.2539   -3.6800 H   0  0  0  0  0  0  0  0  0  0  0  0
    2.9288   15.0388   -3.6800 H   0  0  0  0  0  0  0  0  0  0  0  0
   -0.3219   15.0628   -2.0192 H   0  0  0  0  0  0  0  0  0  0  0  0
    0.6607   15.9002   -4.2490 H   0  0  0  0  0  0  0  0  0  0  0  0
   -0.1196   17.0638   -3.0543 H   0  0  0  0  0  0  0  0  0  0  0  0
    2.0991   17.8916   -4.2084 H   0  0  0  0  0  0  0  0  0  0  0  0
    3.3886   15.8659   -0.9636 H   0  0  0  0  0  0  0  0  0  0  0  0
    2.1510   18.4426    0.1865 H   0  0  0  0  0  0  0  0  0  0  0  0
    2.9113   17.0816    1.1253 H   0  0  0  0  0  0  0  0  0  0  0  0
    4.4170   19.0333    0.9196 H   0  0  0  0  0  0  0  0  0  0  0  0
    5.0683   17.5504    0.1175 H   0  0  0  0  0  0  0  0  0  0  0  0
    5.4672   19.4376   -1.3095 H   0  0  0  0  0  0  0  0  0  0  0  0
    2.8460   20.0310   -1.9100 H   0  0  0  0  0  0  0  0  0  0  0  0
    5.6869   16.8780   -1.6746 H   0  0  0  0  0  0  0  0  0  0  0  0
    4.9612   16.3187   -3.2196 H   0  0  0  0  0  0  0  0  0  0  0  0
    6.1395   17.6745   -3.2196 H   0  0  0  0  0  0  0  0  0  0  0  0
    4.2158   20.1765   -3.4157 H   0  0  0  0  0  0  0  0  0  0  0  0
    5.0781   18.8977   -4.3365 H   0  0  0  0  0  0  0  0  0  0  0  0
    3.2825   18.9485   -4.3365 H   0  0  0  0  0  0  0  0  0  0  0  0
    0.1927   16.8509    0.8388 H   0  0  0  0  0  0  0  0  0  0  0  0
    0.3784   17.8838   -0.6190 H   0  0  0  0  0  0  0  0  0  0  0  0
   -0.8081   16.5351   -0.6190 H   0  0  0  0  0  0  0  0  0  0  0  0
    2.1714   15.1455    1.0299 H   0  0  0  0  0  0  0  0  0  0  0  0
    0.4448   14.5790    0.6654 H   0  0  0  0  0  0  0  0  0  0  0  0
    3.0280   13.5003   -0.4944 H   0  0  0  0  0  0  0  0  0  0  0  0
    1.8499   12.6742    0.5996 H   0  0  0  0  0  0  0  0  0  0  0  0
   -0.3657   12.7216    0.1299 H   0  0  0  0  0  0  0  0  0  0  0  0
   -0.9343   13.5519   -1.3580 H   0  0  0  0  0  0  0  0  0  0  0  0
   -0.6969   11.7714   -1.3580 H   0  0  0  0  0  0  0  0  0  0  0  0
  1  2  1  0
  2  3  1  0
  3  4  1  0
  4  5  1  0
  5  6  1  0
  6  7  1  0
  7  8  1  0
  7  9  1  0
  2 10  1  0
 10 11  1  0
 11 12  1  0
 12 13  1  0
 13 14  1  6
 13 15  1  0
 15 16  1  0
 16 17  1  0
 17 18  2  0
 18 19  1  0
 19 20  1  0
 20 21  1  0
 21 22  1  0
 22 23  1  0
 22 24  1  0
 24 25  1  0
 24 26  1  0
 19 27  1  0
 27 28  1  1
 27 29  1  0
 29 30  1  0
 30 31  1  0
 31 32  1  1
  7  5  1  0
 31 10  1  0
 31 13  1  0
 27 15  1  0
 24 18  1  0
  1 33  1  0
  1 34  1  0
  1 35  1  0
  2 36  1  1
  3 37  1  0
  3 38  1  0
  4 39  1  0
  4 40  1  0
  5 41  1  6
  8 42  1  0
  8 43  1  0
  8 44  1  0
  9 45  1  0
  9 46  1  0
  9 47  1  0
 10 48  1  6
 11 49  1  0
 11 50  1  0
 12 51  1  0
 12 52  1  0
 14 53  1  0
 14 54  1  0
 14 55  1  0
 15 56  1  1
 16 57  1  0
 16 58  1  0
 17 59  1  0
 19 60  1  6
 20 61  1  0
 20 62  1  0
 21 63  1  0
 21 64  1  0
 22 65  1  6
 23 66  1  0
 25 67  1  0
 25 68  1  0
 25 69  1  0
 26 70  1  0
 26 71  1  0
 26 72  1  0
 28 73  1  0
 28 74  1  0
 28 75  1  0
 29 76  1  0
 29 77  1  0
 30 78  1  0
 30 79  1  0
 32 80  1  0
 32 81  1  0
 32 82  1  0
M  END
>  <meeko>  (3) 
{"is_sidechain": [false], "intermolecular_energy": 2.731, "internal_energy": -0.839}

$$$$
EPH_relaxed_0001_pdb2pqr_Repair_329_r2_0001_out
     RDKit          3D

 82 86  0  0  0  0  0  0  0  0999 V2000
    3.7420   17.9000    1.2930 C   0  0  0  0  0  0  0  0  0  0  0  0
    3.1350   17.9410   -0.1120 C   0  0  2  0  0  0  0  0  0  0  0  0
    2.5720   19.3330   -0.4610 C   0  0  0  0  0  0  0  0  0  0  0  0
    3.5260   20.1920   -1.2960 C   0  0  0  0  0  0  0  0  0  0  0  0
    4.7200   19.4090   -1.7520 C   0  0  2  0  0  0  0  0  0  0  0  0
    5.5880   20.1120   -2.6520 O   0  0  0  0  0  0  0  0  0  0  0  0
    4.9240   18.9540   -3.1850 C   0  0  0  0  0  0  0  0  0  0  0  0
    3.9220   19.2640   -4.2530 C   0  0  0  0  0  0  0  0  0  0  0  0
    5.8420   17.8000   -3.4450 C   0  0  0  0  0  0  0  0  0  0  0  0
    2.0390   16.8890   -0.2360 C   0  0  1  0  0  0  0  0  0  0  0  0
    0.6870   17.4880   -0.7060 C   0  0  0  0  0  0  0  0  0  0  0  0
    0.0100   16.4180   -1.6000 C   0  0  0  0  0  0  0  0  0  0  0  0
    0.8260   15.1280   -1.3490 C   0  0  1  0  0  0  0  0  0  0  0  0
    0.2610   14.5500   -0.0140 C   0  0  0  0  0  0  0  0  0  0  0  0
    0.8030   14.0630   -2.4940 C   0  0  2  0  0  0  0  0  0  0  0  0
   -0.5820   13.4720   -2.8090 C   0  0  0  0  0  0  0  0  0  0  0  0
   -0.9400   12.2430   -2.0400 C   0  0  0  0  0  0  0  0  0  0  0  0
   -0.0780   11.4750   -1.3470 C   0  0  0  0  0  0  0  0  0  0  0  0
    1.4280   11.7640   -1.3700 C   0  0  1  0  0  0  0  0  0  0  0  0
    2.2060   10.4420   -1.6040 C   0  0  0  0  0  0  0  0  0  0  0  0
    1.8340    9.3590   -0.5960 C   0  0  0  0  0  0  0  0  0  0  0  0
    0.3390    9.0580   -0.6440 C   0  0  2  0  0  0  0  0  0  0  0  0
    0.0290    8.4610   -1.9070 O   0  0  0  0  0  0  0  0  0  0  0  0
   -0.5470   10.3180   -0.4310 C   0  0  0  0  0  0  0  0  0  0  0  0
   -0.4370   10.7880    1.0410 C   0  0  0  0  0  0  0  0  0  0  0  0
   -2.0270    9.9030   -0.6440 C   0  0  0  0  0  0  0  0  0  0  0  0
    1.8960   12.9280   -2.3450 C   0  0  1  0  0  0  0  0  0  0  0  0
    2.1430   12.3570   -3.7750 C   0  0  0  0  0  0  0  0  0  0  0  0
    3.2800   13.4920   -1.8460 C   0  0  0  0  0  0  0  0  0  0  0  0
    3.2330   14.6250   -0.8040 C   0  0  0  0  0  0  0  0  0  0  0  0
    2.2720   15.7340   -1.2410 C   0  0  2  0  0  0  0  0  0  0  0  0
    2.8260   16.3490   -2.5710 C   0  0  0  0  0  0  0  0  0  0  0  0
    2.9378   17.9543    2.0416 H   0  0  0  0  0  0  0  0  0  0  0  0
    4.3016   16.9620    1.4234 H   0  0  0  0  0  0  0  0  0  0  0  0
    4.4227   18.7542    1.4234 H   0  0  0  0  0  0  0  0  0  0  0  0
    3.9417   17.7228   -0.8273 H   0  0  0  0  0  0  0  0  0  0  0  0
    1.6395   19.1980   -1.0286 H   0  0  0  0  0  0  0  0  0  0  0  0
    2.4121   19.8624    0.4899 H   0  0  0  0  0  0  0  0  0  0  0  0
    2.9877   20.5679   -2.1786 H   0  0  0  0  0  0  0  0  0  0  0  0
    3.8796   21.0225   -0.6674 H   0  0  0  0  0  0  0  0  0  0  0  0
    4.7631   18.8704   -0.7939 H   0  0  0  0  0  0  0  0  0  0  0  0
    2.9697   19.5586   -3.7879 H   0  0  0  0  0  0  0  0  0  0  0  0
    4.2955   20.0886   -4.8779 H   0  0  0  0  0  0  0  0  0  0  0  0
    3.7645   18.3726   -4.8779 H   0  0  0  0  0  0  0  0  0  0  0  0
    6.1789   17.3765   -2.4873 H   0  0  0  0  0  0  0  0  0  0  0  0
    5.3079   17.0287   -4.0193 H   0  0  0  0  0  0  0  0  0  0  0  0
    6.7136   18.1470   -4.0193 H   0  0  0  0  0  0  0  0  0  0  0  0
    2.0412   16.4986    0.7924 H   0  0  0  0  0  0  0  0  0  0  0  0
    0.0506   17.7138    0.1623 H   0  0  0  0  0  0  0  0  0  0  0  0
    0.8420   18.4252   -1.2606 H   0  0  0  0  0  0  0  0  0  0  0  0
   -1.0409   16.2760   -1.3077 H   0  0  0  0  0  0  0  0  0  0  0  0
    0.0006   16.7061   -2.6616 H   0  0  0  0  0  0  0  0  0  0  0  0
    0.7484   15.0486    0.8368 H   0  0  0  0  0  0  0  0  0  0  0  0
   -0.8241   14.7248    0.0311 H   0  0  0  0  0  0  0  0  0  0  0  0
    0.4604   13.4692    0.0311 H   0  0  0  0  0  0  0  0  0  0  0  0
    1.0797   14.6594   -3.3759 H   0  0  0  0  0  0  0  0  0  0  0  0
   -1.3375   14.2414   -2.5915 H   0  0  0  0  0  0  0  0  0  0  0  0
   -0.5517   13.1716   -3.8667 H   0  0  0  0  0  0  0  0  0  0  0  0
   -1.9973   11.9394   -2.0396 H   0  0  0  0  0  0  0  0  0  0  0  0
    1.6742   12.1713   -0.3783 H   0  0  0  0  0  0  0  0  0  0  0  0
    1.9806   10.0744   -2.6160 H   0  0  0  0  0  0  0  0  0  0  0  0
    3.2775   10.6586   -1.4817 H   0  0  0  0  0  0  0  0  0  0  0  0
    2.3934    8.4415   -0.8309 H   0  0  0  0  0  0  0  0  0  0  0  0
    2.0873    9.7171    0.4128 H   0  0  0  0  0  0  0  0  0  0  0  0
    0.1142    8.3719    0.1859 H   0  0  0  0  0  0  0  0  0  0  0  0
    0.1680    9.1360   -2.5940 H   0  0  0  0  0  0  0  0  0  0  0  0
   -0.6355    9.9397    1.7126 H   0  0  0  0  0  0  0  0  0  0  0  0
    0.5758   11.1743    1.2278 H   0  0  0  0  0  0  0  0  0  0  0  0
   -1.1732   11.5837    1.2278 H   0  0  0  0  0  0  0  0  0  0  0  0
   -2.5138    9.7665    0.3329 H   0  0  0  0  0  0  0  0  0  0  0  0
   -2.5507   10.6889   -1.2080 H   0  0  0  0  0  0  0  0  0  0  0  0
   -2.0657    8.9594   -1.2080 H   0  0  0  0  0  0  0  0  0  0  0  0
    2.5786   11.3499   -3.6975 H   0  0  0  0  0  0  0  0  0  0  0  0
    1.1880   12.3026   -4.3181 H   0  0  0  0  0  0  0  0  0  0  0  0
    2.8366   13.0157   -4.3181 H   0  0  0  0  0  0  0  0  0  0  0  0
    3.8400   12.6553   -1.4029 H   0  0  0  0  0  0  0  0  0  0  0  0
    3.7466   13.9388   -2.7363 H   0  0  0  0  0  0  0  0  0  0  0  0
    2.8943   14.2144    0.1586 H   0  0  0  0  0  0  0  0  0  0  0  0
    4.2414   15.0536   -0.7072 H   0  0  0  0  0  0  0  0  0  0  0  0
    3.5450   17.1472   -2.3343 H   0  0  0  0  0  0  0  0  0  0  0  0
    3.3283   15.5647   -3.1563 H   0  0  0  0  0  0  0  0  0  0  0  0
    1.9937   16.7670   -3.1563 H   0  0  0  0  0  0  0  0  0  0  0  0
  1  2  1  0
  2  3  1  0
  3  4  1  0
  4  5  1  0
  5  6  1  0
  6  7  1  0
  7  8  1  0
  7  9  1  0
  2 10  1  0
 10 11  1  0
 11 12  1  0
 12 13  1  0
 13 14  1  1
 13 15  1  0
 15 16  1  0
 16 17  1  0
 17 18  2  0
 18 19  1  0
 19 20  1  0
 20 21  1  0
 21 22  1  0
 22 23  1  0
 22 24  1  0
 24 25  1  0
 24 26  1  0
 19 27  1  0
 27 28  1  6
 27 29  1  0
 29 30  1  0
 30 31  1  0
 31 32  1  6
  7  5  1  0
 31 10  1  0
 31 13  1  0
 27 15  1  0
 24 18  1  0
  1 33  1  0
  1 34  1  0
  1 35  1  0
  2 36  1  6
  3 37  1  0
  3 38  1  0
  4 39  1  0
  4 40  1  0
  5 41  1  1
  8 42  1  0
  8 43  1  0
  8 44  1  0
  9 45  1  0
  9 46  1  0
  9 47  1  0
 10 48  1  1
 11 49  1  0
 11 50  1  0
 12 51  1  0
 12 52  1  0
 14 53  1  0
 14 54  1  0
 14 55  1  0
 15 56  1  6
 16 57  1  0
 16 58  1  0
 17 59  1  0
 19 60  1  1
 20 61  1  0
 20 62  1  0
 21 63  1  0
 21 64  1  0
 22 65  1  1
 23 66  1  0
 25 67  1  0
 25 68  1  0
 25 69  1  0
 26 70  1  0
 26 71  1  0
 26 72  1  0
 28 73  1  0
 28 74  1  0
 28 75  1  0
 29 76  1  0
 29 77  1  0
 30 78  1  0
 30 79  1  0
 32 80  1  0
 32 81  1  0
 32 82  1  0
M  END
>  <meeko>  (4) 
{"is_sidechain": [false], "intermolecular_energy": 2.731, "internal_energy": -0.839}

$$$$
EPH_relaxed_0001_pdb2pqr_Repair_329_r2_0001_out
     RDKit          3D

 82 86  0  0  0  0  0  0  0  0999 V2000
    0.6660   18.0740   -0.1690 C   0  0  0  0  0  0  0  0  0  0  0  0
    1.6100   17.2870   -1.0820 C   0  0  2  0  0  0  0  0  0  0  0  0
    2.1310   18.1410   -2.2550 C   0  0  0  0  0  0  0  0  0  0  0  0
    2.6450   19.5200   -1.8320 C   0  0  0  0  0  0  0  0  0  0  0  0
    4.1070   19.4890   -1.5050 C   0  0  2  0  0  0  0  0  0  0  0  0
    4.5620   18.2680   -0.9080 O   0  0  0  0  0  0  0  0  0  0  0  0
    4.6460   19.4440   -0.0870 C   0  0  0  0  0  0  0  0  0  0  0  0
    3.7290   19.4280    1.0960 C   0  0  0  0  0  0  0  0  0  0  0  0
    6.0470   19.9070    0.1610 C   0  0  0  0  0  0  0  0  0  0  0  0
    0.9030   16.0460   -1.6140 C   0  0  1  0  0  0  0  0  0  0  0  0
    0.4640   16.1980   -3.0950 C   0  0  0  0  0  0  0  0  0  0  0  0
    0.6120   14.8010   -3.7510 C   0  0  0  0  0  0  0  0  0  0  0  0
    0.8090   13.8310   -2.5630 C   0  0  1  0  0  0  0  0  0  0  0  0
   -0.6300   13.5630   -2.0210 C   0  0  0  0  0  0  0  0  0  0  0  0
    1.5650   12.4990   -2.8770 C   0  0  2  0  0  0  0  0  0  0  0  0
    0.8660   11.5750   -3.8900 C   0  0  0  0  0  0  0  0  0  0  0  0
   -0.0720   10.5750   -3.3000 C   0  0  0  0  0  0  0  0  0  0  0  0
   -0.1320   10.2310   -2.0000 C   0  0  0  0  0  0  0  0  0  0  0  0
    0.8710   10.7990   -0.9880 C   0  0  1  0  0  0  0  0  0  0  0  0
    1.4120    9.6510   -0.0960 C   0  0  0  0  0  0  0  0  0  0  0  0
    0.2960    8.8540    0.5730 C   0  0  0  0  0  0  0  0  0  0  0  0
   -0.6470    8.2570   -0.4680 C   0  0  2  0  0  0  0  0  0  0  0  0
    0.0640    7.2700   -1.2220 O   0  0  0  0  0  0  0  0  0  0  0  0
   -1.2470    9.3190   -1.4310 C   0  0  0  0  0  0  0  0  0  0  0  0
   -2.2570   10.2070   -0.6630 C   0  0  0  0  0  0  0  0  0  0  0  0
   -2.0660    8.5700   -2.5170 C   0  0  0  0  0  0  0  0  0  0  0  0
    2.0320   11.7000   -1.5930 C   0  0  1  0  0  0  0  0  0  0  0  0
    3.2260   10.8020   -2.0370 C   0  0  0  0  0  0  0  0  0  0  0  0
    2.5850   12.6500   -0.4660 C   0  0  0  0  0  0  0  0  0  0  0  0
    1.8710   14.0030   -0.2850 C   0  0  0  0  0  0  0  0  0  0  0  0
    1.7060   14.7210   -1.6280 C   0  0  2  0  0  0  0  0  0  0  0  0
    3.1380   15.0230   -2.1870 C   0  0  0  0  0  0  0  0  0  0  0  0
    0.9149   17.8665    0.8822 H   0  0  0  0  0  0  0  0  0  0  0  0
    0.7775   19.1503   -0.3666 H   0  0  0  0  0  0  0  0  0  0  0  0
   -0.3727   17.7706   -0.3666 H   0  0  0  0  0  0  0  0  0  0  0  0
    2.4809   16.9894   -0.4796 H   0  0  0  0  0  0  0  0  0  0  0  0
    2.9546   17.5976   -2.7412 H   0  0  0  0  0  0  0  0  0  0  0  0
    1.2810   18.3089   -2.9327 H   0  0  0  0  0  0  0  0  0  0  0  0
    2.4786   20.2306   -2.6551 H   0  0  0  0  0  0  0  0  0  0  0  0
    2.0976   19.8283   -0.9290 H   0  0  0  0  0  0  0  0  0  0  0  0
    4.3362   20.1400   -2.3615 H   0  0  0  0  0  0  0  0  0  0  0  0
    4.3239   19.4384    2.0212 H   0  0  0  0  0  0  0  0  0  0  0  0
    3.0790   20.3149    1.0681 H   0  0  0  0  0  0  0  0  0  0  0  0
    3.1103   18.5189    1.0681 H   0  0  0  0  0  0  0  0  0  0  0  0
    6.2271   19.9665    1.2445 H   0  0  0  0  0  0  0  0  0  0  0  0
    6.7538   19.1947   -0.2896 H   0  0  0  0  0  0  0  0  0  0  0  0
    6.1901   20.9002   -0.2896 H   0  0  0  0  0  0  0  0  0  0  0  0
    0.0780   15.9788   -0.8895 H   0  0  0  0  0  0  0  0  0  0  0  0
   -0.5827   16.5321   -3.1474 H   0  0  0  0  0  0  0  0  0  0  0  0
    1.0807   16.9459   -3.6150 H   0  0  0  0  0  0  0  0  0  0  0  0
   -0.2935   14.5407   -4.3188 H   0  0  0  0  0  0  0  0  0  0  0  0
    1.4482   14.7618   -4.4646 H   0  0  0  0  0  0  0  0  0  0  0  0
   -0.6140   13.5660   -0.9211 H   0  0  0  0  0  0  0  0  0  0  0  0
   -1.3095   14.3500   -2.3800 H   0  0  0  0  0  0  0  0  0  0  0  0
   -0.9806   12.5841   -2.3800 H   0  0  0  0  0  0  0  0  0  0  0  0
    2.4759   12.8579   -3.3785 H   0  0  0  0  0  0  0  0  0  0  0  0
    0.2955   12.2056   -4.5878 H   0  0  0  0  0  0  0  0  0  0  0  0
    1.6652   10.9940   -4.3735 H   0  0  0  0  0  0  0  0  0  0  0  0
   -0.7735   10.0771   -3.9855 H   0  0  0  0  0  0  0  0  0  0  0  0
    0.3089   11.5171   -0.3730 H   0  0  0  0  0  0  0  0  0  0  0  0
    2.0064    8.9687   -0.7215 H   0  0  0  0  0  0  0  0  0  0  0  0
    2.0210   10.1051    0.6996 H   0  0  0  0  0  0  0  0  0  0  0  0
    0.7399    8.0403    1.1654 H   0  0  0  0  0  0  0  0  0  0  0  0
   -0.2796    9.5314    1.2209 H   0  0  0  0  0  0  0  0  0  0  0  0
   -1.4943    7.8094    0.0721 H   0  0  0  0  0  0  0  0  0  0  0  0
   -0.2200    6.3960   -0.9050 H   0  0  0  0  0  0  0  0  0  0  0  0
   -2.1099   10.0777    0.4194 H   0  0  0  0  0  0  0  0  0  0  0  0
   -2.0962   11.2615   -0.9315 H   0  0  0  0  0  0  0  0  0  0  0  0
   -3.2823    9.9125   -0.9315 H   0  0  0  0  0  0  0  0  0  0  0  0
   -2.7946    7.9036   -2.0322 H   0  0  0  0  0  0  0  0  0  0  0  0
   -2.5979    9.3007   -3.1441 H   0  0  0  0  0  0  0  0  0  0  0  0
   -1.3856    7.9751   -3.1441 H   0  0  0  0  0  0  0  0  0  0  0  0
    3.7430   10.4132   -1.1473 H   0  0  0  0  0  0  0  0  0  0  0  0
    2.8490    9.9617   -2.6385 H   0  0  0  0  0  0  0  0  0  0  0  0
    3.9287   11.3973   -2.6385 H   0  0  0  0  0  0  0  0  0  0  0  0
    2.5175   12.1079    0.4888 H   0  0  0  0  0  0  0  0  0  0  0  0
    3.6078   12.9045   -0.7807 H   0  0  0  0  0  0  0  0  0  0  0  0
    0.8777   13.8295    0.1545 H   0  0  0  0  0  0  0  0  0  0  0  0
    2.4807   14.6350    0.3775 H   0  0  0  0  0  0  0  0  0  0  0  0
    3.8352   15.1700   -1.3490 H   0  0  0  0  0  0  0  0  0  0  0  0
    3.4775   14.1767   -2.8022 H   0  0  0  0  0  0  0  0  0  0  0  0
    3.1068   15.9343   -2.8022 H   0  0  0  0  0  0  0  0  0  0  0  0
  1  2  1  0
  2  3  1  0
  3  4  1  0
  4  5  1  0
  5  6  1  0
  6  7  1  0
  7  8  1  0
  7  9  1  0
  2 10  1  0
 10 11  1  0
 11 12  1  0
 12 13  1  0
 13 14  1  1
 13 15  1  0
 15 16  1  0
 16 17  1  0
 17 18  2  0
 18 19  1  0
 19 20  1  0
 20 21  1  0
 21 22  1  0
 22 23  1  0
 22 24  1  0
 24 25  1  0
 24 26  1  0
 19 27  1  0
 27 28  1  6
 27 29  1  0
 29 30  1  0
 30 31  1  0
 31 32  1  6
  7  5  1  0
 31 10  1  0
 31 13  1  0
 27 15  1  0
 24 18  1  0
  1 33  1  0
  1 34  1  0
  1 35  1  0
  2 36  1  1
  3 37  1  0
  3 38  1  0
  4 39  1  0
  4 40  1  0
  5 41  1  6
  8 42  1  0
  8 43  1  0
  8 44  1  0
  9 45  1  0
  9 46  1  0
  9 47  1  0
 10 48  1  1
 11 49  1  0
 11 50  1  0
 12 51  1  0
 12 52  1  0
 14 53  1  0
 14 54  1  0
 14 55  1  0
 15 56  1  6
 16 57  1  0
 16 58  1  0
 17 59  1  0
 19 60  1  1
 20 61  1  0
 20 62  1  0
 21 63  1  0
 21 64  1  0
 22 65  1  1
 23 66  1  0
 25 67  1  0
 25 68  1  0
 25 69  1  0
 26 70  1  0
 26 71  1  0
 26 72  1  0
 28 73  1  0
 28 74  1  0
 28 75  1  0
 29 76  1  0
 29 77  1  0
 30 78  1  0
 30 79  1  0
 32 80  1  0
 32 81  1  0
 32 82  1  0
M  END
>  <meeko>  (5) 
{"is_sidechain": [false], "intermolecular_energy": 2.731, "internal_energy": -0.839}

$$$$
EPH_relaxed_0001_pdb2pqr_Repair_329_r2_0001_out
     RDKit          3D

 82 86  0  0  0  0  0  0  0  0999 V2000
   -1.1380    8.7990   -1.8780 C   0  0  0  0  0  0  0  0  0  0  0  0
   -1.5610    9.1950   -0.4610 C   0  0  2  0  0  0  0  0  0  0  0  0
   -3.0910    9.3380   -0.3290 C   0  0  0  0  0  0  0  0  0  0  0  0
   -3.8780    8.4160   -1.2650 C   0  0  0  0  0  0  0  0  0  0  0  0
   -5.2250    8.0760   -0.7040 C   0  0  2  0  0  0  0  0  0  0  0  0
   -5.4530    6.6760   -0.5000 O   0  0  0  0  0  0  0  0  0  0  0  0
   -6.2870    7.3170   -1.4790 C   0  0  0  0  0  0  0  0  0  0  0  0
   -6.0470    6.8530   -2.8810 C   0  0  0  0  0  0  0  0  0  0  0  0
   -7.7160    7.4550   -1.0560 C   0  0  0  0  0  0  0  0  0  0  0  0
   -0.8800   10.4980   -0.0600 C   0  0  1  0  0  0  0  0  0  0  0  0
    0.0550   10.3310    1.1670 C   0  0  0  0  0  0  0  0  0  0  0  0
    1.2550   11.2890    0.9500 C   0  0  0  0  0  0  0  0  0  0  0  0
    0.8140   12.2080   -0.2130 C   0  0  1  0  0  0  0  0  0  0  0  0
   -0.0920   13.2910    0.4520 C   0  0  0  0  0  0  0  0  0  0  0  0
    1.9610   12.8540   -1.0570 C   0  0  2  0  0  0  0  0  0  0  0  0
    2.8900   13.8010   -0.2770 C   0  0  0  0  0  0  0  0  0  0  0  0
    2.4740   15.2340   -0.2640 C   0  0  0  0  0  0  0  0  0  0  0  0
    1.5620   15.7910   -1.0830 C   0  0  0  0  0  0  0  0  0  0  0  0
    0.9160   14.9780   -2.2120 C   0  0  1  0  0  0  0  0  0  0  0  0
    0.9310   15.8080   -3.5230 C   0  0  0  0  0  0  0  0  0  0  0  0
    0.2900   17.1820   -3.3530 C   0  0  0  0  0  0  0  0  0  0  0  0
    0.9970   17.9820   -2.2620 C   0  0  2  0  0  0  0  0  0  0  0  0
    2.3250   18.2840   -2.7000 O   0  0  0  0  0  0  0  0  0  0  0  0
    1.0520   17.2420   -0.8970 C   0  0  0  0  0  0  0  0  0  0  0  0
   -0.3670   17.1820   -0.2790 C   0  0  0  0  0  0  0  0  0  0  0  0
    1.9120   18.0940    0.0750 C   0  0  0  0  0  0  0  0  0  0  0  0
    1.4790   13.5060   -2.4150 C   0  0  1  0  0  0  0  0  0  0  0  0
    2.7190   13.5360   -3.3600 C   0  0  0  0  0  0  0  0  0  0  0  0
    0.3880   12.6340   -3.1430 C   0  0  0  0  0  0  0  0  0  0  0  0
   -0.6460   11.9250   -2.2480 C   0  0  0  0  0  0  0  0  0  0  0  0
    0.0430   11.1690   -1.1080 C   0  0  2  0  0  0  0  0  0  0  0  0
    0.9450   10.0580   -1.7460 C   0  0  0  0  0  0  0  0  0  0  0  0
   -0.3359    8.0481   -1.8249 H   0  0  0  0  0  0  0  0  0  0  0  0
   -2.0009    8.3765   -2.4137 H   0  0  0  0  0  0  0  0  0  0  0  0
   -0.7733    9.6878   -2.4137 H   0  0  0  0  0  0  0  0  0  0  0  0
   -1.2457    8.3869    0.2155 H   0  0  0  0  0  0  0  0  0  0  0  0
   -3.3736    9.1036    0.7079 H   0  0  0  0  0  0  0  0  0  0  0  0
   -3.3428   10.3715   -0.6090 H   0  0  0  0  0  0  0  0  0  0  0  0
   -4.0121    8.9210   -2.2330 H   0  0  0  0  0  0  0  0  0  0  0  0
   -3.3099    7.4815   -1.3833 H   0  0  0  0  0  0  0  0  0  0  0  0
   -5.2555    9.0213   -0.1424 H   0  0  0  0  0  0  0  0  0  0  0  0
   -5.5417    5.8761   -2.8625 H   0  0  0  0  0  0  0  0  0  0  0  0
   -7.0092    6.7583   -3.4056 H   0  0  0  0  0  0  0  0  0  0  0  0
   -5.4137    7.5835   -3.4056 H   0  0  0  0  0  0  0  0  0  0  0  0
   -7.7743    7.4606    0.0424 H   0  0  0  0  0  0  0  0  0  0  0  0
   -8.1256    8.3969   -1.4498 H   0  0  0  0  0  0  0  0  0  0  0  0
   -8.2983    6.6089   -1.4498 H   0  0  0  0  0  0  0  0  0  0  0  0
   -1.7676   11.1235    0.1157 H   0  0  0  0  0  0  0  0  0  0  0  0
   -0.4804   10.5978    2.0901 H   0  0  0  0  0  0  0  0  0  0  0  0
    0.3945    9.2893    1.2655 H   0  0  0  0  0  0  0  0  0  0  0  0
    1.4508   11.8783    1.8580 H   0  0  0  0  0  0  0  0  0  0  0  0
    2.1858   10.7479    0.7246 H   0  0  0  0  0  0  0  0  0  0  0  0
   -0.0213   13.2065    1.5465 H   0  0  0  0  0  0  0  0  0  0  0  0
    0.2423   14.2912    0.1391 H   0  0  0  0  0  0  0  0  0  0  0  0
   -1.1355   13.1386    0.1391 H   0  0  0  0  0  0  0  0  0  0  0  0
    2.5772   11.9827   -1.3236 H   0  0  0  0  0  0  0  0  0  0  0  0
    2.9354   13.4508    0.7648 H   0  0  0  0  0  0  0  0  0  0  0  0
    3.8601   13.7704   -0.7947 H   0  0  0  0  0  0  0  0  0  0  0  0
    2.9529   15.8907    0.4773 H   0  0  0  0  0  0  0  0  0  0  0  0
   -0.1225   14.7947   -1.8990 H   0  0  0  0  0  0  0  0  0  0  0  0
    1.9748   15.9430   -3.8429 H   0  0  0  0  0  0  0  0  0  0  0  0
    0.3455   15.2570   -4.2737 H   0  0  0  0  0  0  0  0  0  0  0  0
    0.3581   17.7312   -4.3036 H   0  0  0  0  0  0  0  0  0  0  0  0
   -0.7621   17.0453   -3.0625 H   0  0  0  0  0  0  0  0  0  0  0  0
    0.4146   18.9004   -2.0964 H   0  0  0  0  0  0  0  0  0  0  0  0
    2.9130   18.2070   -1.9290 H   0  0  0  0  0  0  0  0  0  0  0  0
   -0.2895   17.1853    0.8183 H   0  0  0  0  0  0  0  0  0  0  0  0
   -0.9476   18.0564   -0.6082 H   0  0  0  0  0  0  0  0  0  0  0  0
   -0.8717   16.2617   -0.6082 H   0  0  0  0  0  0  0  0  0  0  0  0
    1.6538   17.8382    1.1132 H   0  0  0  0  0  0  0  0  0  0  0  0
    2.9779   17.8857   -0.0998 H   0  0  0  0  0  0  0  0  0  0  0  0
    1.7136   19.1618   -0.0998 H   0  0  0  0  0  0  0  0  0  0  0  0
    3.6389   13.5583   -2.7573 H   0  0  0  0  0  0  0  0  0  0  0  0
    2.7181   12.6376   -3.9947 H   0  0  0  0  0  0  0  0  0  0  0  0
    2.6747   14.4333   -3.9947 H   0  0  0  0  0  0  0  0  0  0  0  0
   -0.1629   13.2947   -3.8286 H   0  0  0  0  0  0  0  0  0  0  0  0
    0.9476   11.8238   -3.6333 H   0  0  0  0  0  0  0  0  0  0  0  0
   -1.3278   12.6756   -1.8217 H   0  0  0  0  0  0  0  0  0  0  0  0
   -1.2041   11.2023   -2.8614 H   0  0  0  0  0  0  0  0  0  0  0  0
    1.4223    9.4702   -0.9481 H   0  0  0  0  0  0  0  0  0  0  0  0
    0.3257    9.3958   -2.3689 H   0  0  0  0  0  0  0  0  0  0  0  0
    1.7203   10.5280   -2.3689 H   0  0  0  0  0  0  0  0  0  0  0  0
  1  2  1  0
  2  3  1  0
  3  4  1  0
  4  5  1  0
  5  6  1  0
  6  7  1  0
  7  8  1  0
  7  9  1  0
  2 10  1  0
 10 11  1  0
 11 12  1  0
 12 13  1  0
 13 14  1  1
 13 15  1  0
 15 16  1  0
 16 17  1  0
 17 18  2  0
 18 19  1  0
 19 20  1  0
 20 21  1  0
 21 22  1  0
 22 23  1  0
 22 24  1  0
 24 25  1  0
 24 26  1  0
 19 27  1  0
 27 28  1  6
 27 29  1  0
 29 30  1  0
 30 31  1  0
 31 32  1  6
  7  5  1  0
 31 10  1  0
 31 13  1  0
 27 15  1  0
 24 18  1  0
  1 33  1  0
  1 34  1  0
  1 35  1  0
  2 36  1  1
  3 37  1  0
  3 38  1  0
  4 39  1  0
  4 40  1  0
  5 41  1  1
  8 42  1  0
  8 43  1  0
  8 44  1  0
  9 45  1  0
  9 46  1  0
  9 47  1  0
 10 48  1  1
 11 49  1  0
 11 50  1  0
 12 51  1  0
 12 52  1  0
 14 53  1  0
 14 54  1  0
 14 55  1  0
 15 56  1  6
 16 57  1  0
 16 58  1  0
 17 59  1  0
 19 60  1  1
 20 61  1  0
 20 62  1  0
 21 63  1  0
 21 64  1  0
 22 65  1  1
 23 66  1  0
 25 67  1  0
 25 68  1  0
 25 69  1  0
 26 70  1  0
 26 71  1  0
 26 72  1  0
 28 73  1  0
 28 74  1  0
 28 75  1  0
 29 76  1  0
 29 77  1  0
 30 78  1  0
 30 79  1  0
 32 80  1  0
 32 81  1  0
 32 82  1  0
M  END
>  <meeko>  (6) 
{"is_sidechain": [false], "intermolecular_energy": 2.731, "internal_energy": -0.839}

$$$$
EPH_relaxed_0001_pdb2pqr_Repair_329_r2_0001_out
     RDKit          3D

 82 86  0  0  0  0  0  0  0  0999 V2000
    0.8310   18.1300   -2.6930 C   0  0  0  0  0  0  0  0  0  0  0  0
    2.1610   17.6130   -2.1380 C   0  0  2  0  0  0  0  0  0  0  0  0
    3.3730   18.2980   -2.8010 C   0  0  0  0  0  0  0  0  0  0  0  0
    3.8090   19.5880   -2.1020 C   0  0  0  0  0  0  0  0  0  0  0  0
    4.9450   19.3480   -1.1540 C   0  0  2  0  0  0  0  0  0  0  0  0
    4.9360   18.0610   -0.5230 O   0  0  0  0  0  0  0  0  0  0  0  0
    4.7660   19.1940    0.3450 C   0  0  0  0  0  0  0  0  0  0  0  0
    3.4140   19.2750    0.9810 C   0  0  0  0  0  0  0  0  0  0  0  0
    5.9400   19.4530    1.2360 C   0  0  0  0  0  0  0  0  0  0  0  0
    2.2500   16.1030   -2.3240 C   0  0  1  0  0  0  0  0  0  0  0  0
    3.6900   15.6250   -2.6480 C   0  0  0  0  0  0  0  0  0  0  0  0
    3.8660   14.2420   -1.9690 C   0  0  0  0  0  0  0  0  0  0  0  0
    2.4330   13.8220   -1.5640 C   0  0  1  0  0  0  0  0  0  0  0  0
    1.8010   13.2420   -2.8680 C   0  0  0  0  0  0  0  0  0  0  0  0
    2.3190   12.8170   -0.3720 C   0  0  2  0  0  0  0  0  0  0  0  0
    2.9660   11.4420   -0.6130 C   0  0  0  0  0  0  0  0  0  0  0  0
    2.0640   10.4080   -1.2030 C   0  0  0  0  0  0  0  0  0  0  0  0
    0.7210   10.4840   -1.2630 C   0  0  0  0  0  0  0  0  0  0  0  0
   -0.0310   11.6530   -0.6150 C   0  0  1  0  0  0  0  0  0  0  0  0
   -1.2330   11.1070    0.2010 C   0  0  0  0  0  0  0  0  0  0  0  0
   -2.1470   10.2140   -0.6320 C   0  0  0  0  0  0  0  0  0  0  0  0
   -1.3750    9.0310   -1.2120 C   0  0  2  0  0  0  0  0  0  0  0  0
   -0.9620    8.1800   -0.1390 O   0  0  0  0  0  0  0  0  0  0  0  0
   -0.1360    9.4590   -2.0460 C   0  0  0  0  0  0  0  0  0  0  0  0
   -0.6000   10.1220   -3.3670 C   0  0  0  0  0  0  0  0  0  0  0  0
    0.6330    8.1730   -2.4540 C   0  0  0  0  0  0  0  0  0  0  0  0
    0.8580   12.6740    0.2180 C   0  0  1  0  0  0  0  0  0  0  0  0
    1.0170   12.1670    1.6840 C   0  0  0  0  0  0  0  0  0  0  0  0
    0.1090   14.0560    0.3040 C   0  0  0  0  0  0  0  0  0  0  0  0
    0.3560   15.0530   -0.8440 C   0  0  0  0  0  0  0  0  0  0  0  0
    1.8540   15.2140   -1.1180 C   0  0  2  0  0  0  0  0  0  0  0  0
    2.5140   15.8160    0.1690 C   0  0  0  0  0  0  0  0  0  0  0  0
    0.1621   18.3900   -1.8594 H   0  0  0  0  0  0  0  0  0  0  0  0
    1.0131   19.0228   -3.3092 H   0  0  0  0  0  0  0  0  0  0  0  0
    0.3623   17.3486   -3.3092 H   0  0  0  0  0  0  0  0  0  0  0  0
    2.1895   17.8579   -1.0660 H   0  0  0  0  0  0  0  0  0  0  0  0
    4.2184   17.5943   -2.7902 H   0  0  0  0  0  0  0  0  0  0  0  0
    3.0685   18.5726   -3.8217 H   0  0  0  0  0  0  0  0  0  0  0  0
    4.1274   20.3157   -2.8630 H   0  0  0  0  0  0  0  0  0  0  0  0
    2.9548   19.9704   -1.5239 H   0  0  0  0  0  0  0  0  0  0  0  0
    5.6121   19.9827   -1.7557 H   0  0  0  0  0  0  0  0  0  0  0  0
    3.5227   19.2685    2.0756 H   0  0  0  0  0  0  0  0  0  0  0  0
    2.9164   20.2046    0.6675 H   0  0  0  0  0  0  0  0  0  0  0  0
    2.8090   18.4115    0.6675 H   0  0  0  0  0  0  0  0  0  0  0  0
    5.6247   19.3834    2.2875 H   0  0  0  0  0  0  0  0  0  0  0  0
    6.7227   18.7059    1.0377 H   0  0  0  0  0  0  0  0  0  0  0  0
    6.3357   20.4600    1.0377 H   0  0  0  0  0  0  0  0  0  0  0  0
    1.5245   15.9742   -3.1407 H   0  0  0  0  0  0  0  0  0  0  0  0
    3.8225   15.5323   -3.7361 H   0  0  0  0  0  0  0  0  0  0  0  0
    4.4369   16.3437   -2.2796 H   0  0  0  0  0  0  0  0  0  0  0  0
    4.2994   13.5160   -2.6727 H   0  0  0  0  0  0  0  0  0  0  0  0
    4.5482   14.2838   -1.1071 H   0  0  0  0  0  0  0  0  0  0  0  0
    1.0142   12.5199   -2.6044 H   0  0  0  0  0  0  0  0  0  0  0  0
    1.3644   14.0604   -3.4593 H   0  0  0  0  0  0  0  0  0  0  0  0
    2.5790   12.7369   -3.4593 H   0  0  0  0  0  0  0  0  0  0  0  0
    2.9298   13.3016    0.4039 H   0  0  0  0  0  0  0  0  0  0  0  0
    3.8164   11.5815   -1.2966 H   0  0  0  0  0  0  0  0  0  0  0  0
    3.2558   11.0636    0.3784 H   0  0  0  0  0  0  0  0  0  0  0  0
    2.5368    9.5084   -1.6241 H   0  0  0  0  0  0  0  0  0  0  0  0
   -0.3949   12.2769   -1.4446 H   0  0  0  0  0  0  0  0  0  0  0  0
   -0.8472   10.5231    1.0496 H   0  0  0  0  0  0  0  0  0  0  0  0
   -1.8262   11.9691    0.5398 H   0  0  0  0  0  0  0  0  0  0  0  0
   -2.9592    9.8356    0.0060 H   0  0  0  0  0  0  0  0  0  0  0  0
   -2.5550   10.8079   -1.4632 H   0  0  0  0  0  0  0  0  0  0  0  0
   -2.0497    8.5020   -1.9012 H   0  0  0  0  0  0  0  0  0  0  0  0
   -0.0010    8.0570   -0.2140 H   0  0  0  0  0  0  0  0  0  0  0  0
   -1.2169   11.0035   -3.1379 H   0  0  0  0  0  0  0  0  0  0  0  0
    0.2796   10.4316   -3.9505 H   0  0  0  0  0  0  0  0  0  0  0  0
   -1.1921    9.4017   -3.9505 H   0  0  0  0  0  0  0  0  0  0  0  0
    0.9544    7.6355   -1.5497 H   0  0  0  0  0  0  0  0  0  0  0  0
   -0.0262    7.5253   -3.0507 H   0  0  0  0  0  0  0  0  0  0  0  0
    1.5155    8.4472   -3.0507 H   0  0  0  0  0  0  0  0  0  0  0  0
    0.7626   12.9781    2.3821 H   0  0  0  0  0  0  0  0  0  0  0  0
    0.3433   11.3138    1.8520 H   0  0  0  0  0  0  0  0  0  0  0  0
    2.0573   11.8514    1.8520 H   0  0  0  0  0  0  0  0  0  0  0  0
   -0.9706   13.8478    0.3373 H   0  0  0  0  0  0  0  0  0  0  0  0
    0.5121   14.5462    1.2024 H   0  0  0  0  0  0  0  0  0  0  0  0
   -0.1385   14.6832   -1.7543 H   0  0  0  0  0  0  0  0  0  0  0  0
   -0.0542   16.0313   -0.5530 H   0  0  0  0  0  0  0  0  0  0  0  0
    2.0390   15.3828    1.0616 H   0  0  0  0  0  0  0  0  0  0  0  0
    3.5885   15.5804    0.1745 H   0  0  0  0  0  0  0  0  0  0  0  0
    2.3779   16.9075    0.1745 H   0  0  0  0  0  0  0  0  0  0  0  0
  1  2  1  0
  2  3  1  0
  3  4  1  0
  4  5  1  0
  5  6  1  0
  6  7  1  0
  7  8  1  0
  7  9  1  0
  2 10  1  0
 10 11  1  0
 11 12  1  0
 12 13  1  0
 13 14  1  6
 13 15  1  0
 15 16  1  0
 16 17  1  0
 17 18  2  0
 18 19  1  0
 19 20  1  0
 20 21  1  0
 21 22  1  0
 22 23  1  0
 22 24  1  0
 24 25  1  0
 24 26  1  0
 19 27  1  0
 27 28  1  1
 27 29  1  0
 29 30  1  0
 30 31  1  0
 31 32  1  1
  7  5  1  0
 31 10  1  0
 31 13  1  0
 27 15  1  0
 24 18  1  0
  1 33  1  0
  1 34  1  0
  1 35  1  0
  2 36  1  1
  3 37  1  0
  3 38  1  0
  4 39  1  0
  4 40  1  0
  5 41  1  1
  8 42  1  0
  8 43  1  0
  8 44  1  0
  9 45  1  0
  9 46  1  0
  9 47  1  0
 10 48  1  6
 11 49  1  0
 11 50  1  0
 12 51  1  0
 12 52  1  0
 14 53  1  0
 14 54  1  0
 14 55  1  0
 15 56  1  1
 16 57  1  0
 16 58  1  0
 17 59  1  0
 19 60  1  6
 20 61  1  0
 20 62  1  0
 21 63  1  0
 21 64  1  0
 22 65  1  6
 23 66  1  0
 25 67  1  0
 25 68  1  0
 25 69  1  0
 26 70  1  0
 26 71  1  0
 26 72  1  0
 28 73  1  0
 28 74  1  0
 28 75  1  0
 29 76  1  0
 29 77  1  0
 30 78  1  0
 30 79  1  0
 32 80  1  0
 32 81  1  0
 32 82  1  0
M  END
>  <meeko>  (7) 
{"is_sidechain": [false], "intermolecular_energy": 2.731, "internal_energy": -0.839}

$$$$
EPH_relaxed_0001_pdb2pqr_Repair_329_r2_0001_out
     RDKit          3D

 82 86  0  0  0  0  0  0  0  0999 V2000
    4.9520   17.4300   -1.1330 C   0  0  0  0  0  0  0  0  0  0  0  0
    3.5750   18.0490   -1.3880 C   0  0  2  0  0  0  0  0  0  0  0  0
    3.3360   19.3070   -0.5280 C   0  0  0  0  0  0  0  0  0  0  0  0
    2.8370   19.0000    0.8860 C   0  0  0  0  0  0  0  0  0  0  0  0
    3.4940   19.8780    1.9080 C   0  0  2  0  0  0  0  0  0  0  0  0
    4.8650   20.1940    1.6340 O   0  0  0  0  0  0  0  0  0  0  0  0
    4.6190   19.4110    2.8130 C   0  0  0  0  0  0  0  0  0  0  0  0
    5.1520   18.0150    2.7390 C   0  0  0  0  0  0  0  0  0  0  0  0
    4.8630   20.1520    4.0910 C   0  0  0  0  0  0  0  0  0  0  0  0
    2.4840   17.0200   -1.1190 C   0  0  1  0  0  0  0  0  0  0  0  0
    1.0570   17.5930   -1.3270 C   0  0  0  0  0  0  0  0  0  0  0  0
    0.1910   16.4400   -1.8980 C   0  0  0  0  0  0  0  0  0  0  0  0
    1.0470   15.1690   -1.6880 C   0  0  1  0  0  0  0  0  0  0  0  0
    0.8170   14.7720   -0.1970 C   0  0  0  0  0  0  0  0  0  0  0  0
    0.7580   13.9740   -2.6550 C   0  0  2  0  0  0  0  0  0  0  0  0
   -0.6610   13.3860   -2.5590 C   0  0  0  0  0  0  0  0  0  0  0  0
   -0.8220   12.2690   -1.5820 C   0  0  0  0  0  0  0  0  0  0  0  0
    0.1810   11.5680   -1.0210 C   0  0  0  0  0  0  0  0  0  0  0  0
    1.6380   11.8130   -1.4330 C   0  0  1  0  0  0  0  0  0  0  0  0
    2.3420   10.4520   -1.6780 C   0  0  0  0  0  0  0  0  0  0  0  0
    2.2240    9.5090   -0.4850 C   0  0  0  0  0  0  0  0  0  0  0  0
    0.7600    9.2440   -0.1420 C   0  0  2  0  0  0  0  0  0  0  0  0
    0.1620    8.5070   -1.2130 O   0  0  0  0  0  0  0  0  0  0  0  0
   -0.0540   10.5430    0.1160 C   0  0  0  0  0  0  0  0  0  0  0  0
    0.4000   11.1850    1.4500 C   0  0  0  0  0  0  0  0  0  0  0  0
   -1.5410   10.1440    0.3100 C   0  0  0  0  0  0  0  0  0  0  0  0
    1.8580   12.8380   -2.6280 C   0  0  1  0  0  0  0  0  0  0  0  0
    1.7620   12.0920   -3.9930 C   0  0  0  0  0  0  0  0  0  0  0  0
    3.3190   13.4210   -2.5420 C   0  0  0  0  0  0  0  0  0  0  0  0
    3.5170   14.6720   -1.6670 C   0  0  0  0  0  0  0  0  0  0  0  0
    2.4760   15.7450   -2.0000 C   0  0  2  0  0  0  0  0  0  0  0  0
    2.6970   16.1810   -3.4890 C   0  0  0  0  0  0  0  0  0  0  0  0
    5.1242   17.3526   -0.0493 H   0  0  0  0  0  0  0  0  0  0  0  0
    4.9923   16.4272   -1.5832 H   0  0  0  0  0  0  0  0  0  0  0  0
    5.7288   18.0655   -1.5832 H   0  0  0  0  0  0  0  0  0  0  0  0
    3.5418   18.3584   -2.4431 H   0  0  0  0  0  0  0  0  0  0  0  0
    4.2841   19.8592   -0.4494 H   0  0  0  0  0  0  0  0  0  0  0  0
    2.5494   19.8924   -1.0264 H   0  0  0  0  0  0  0  0  0  0  0  0
    1.7496   19.1615    0.9233 H   0  0  0  0  0  0  0  0  0  0  0  0
    3.0882   17.9548    1.1192 H   0  0  0  0  0  0  0  0  0  0  0  0
    2.5415   20.3869    2.1171 H   0  0  0  0  0  0  0  0  0  0  0  0
    5.3009   17.6250    3.7567 H   0  0  0  0  0  0  0  0  0  0  0  0
    4.4344   17.3765    2.2030 H   0  0  0  0  0  0  0  0  0  0  0  0
    6.1125   18.0172    2.2030 H   0  0  0  0  0  0  0  0  0  0  0  0
    4.6459   19.4927    4.9443 H   0  0  0  0  0  0  0  0  0  0  0  0
    5.9143   20.4729    4.1338 H   0  0  0  0  0  0  0  0  0  0  0  0
    4.2081   21.0348    4.1338 H   0  0  0  0  0  0  0  0  0  0  0  0
    2.7308   16.7576   -0.0796 H   0  0  0  0  0  0  0  0  0  0  0  0
    0.6437   17.9379   -0.3677 H   0  0  0  0  0  0  0  0  0  0  0  0
    1.0726   18.4526   -2.0132 H   0  0  0  0  0  0  0  0  0  0  0  0
   -0.7607   16.3619   -1.3520 H   0  0  0  0  0  0  0  0  0  0  0  0
   -0.0696   16.5978   -2.9550 H   0  0  0  0  0  0  0  0  0  0  0  0
    1.2598   15.5364    0.4585 H   0  0  0  0  0  0  0  0  0  0  0  0
   -0.2627   14.7001    0.0009 H   0  0  0  0  0  0  0  0  0  0  0  0
    1.2916   13.7996    0.0009 H   0  0  0  0  0  0  0  0  0  0  0  0
    0.8172   14.4510   -3.6444 H   0  0  0  0  0  0  0  0  0  0  0  0
   -1.3456   14.1956   -2.2659 H   0  0  0  0  0  0  0  0  0  0  0  0
   -0.8821   12.9598   -3.5487 H   0  0  0  0  0  0  0  0  0  0  0  0
   -1.8482   11.9952   -1.2959 H   0  0  0  0  0  0  0  0  0  0  0  0
    2.1110   12.3311   -0.5858 H   0  0  0  0  0  0  0  0  0  0  0  0
    1.8836    9.9707   -2.5545 H   0  0  0  0  0  0  0  0  0  0  0  0
    3.4112   10.6536   -1.8396 H   0  0  0  0  0  0  0  0  0  0  0  0
    2.7147    8.5555   -0.7299 H   0  0  0  0  0  0  0  0  0  0  0  0
    2.7087    9.9790    0.3835 H   0  0  0  0  0  0  0  0  0  0  0  0
    0.7398    8.6697    0.7960 H   0  0  0  0  0  0  0  0  0  0  0  0
    0.7360    7.7460   -1.4030 H   0  0  0  0  0  0  0  0  0  0  0  0
   -0.0084   10.6076    2.2925 H   0  0  0  0  0  0  0  0  0  0  0  0
    1.4987   11.1832    1.5026 H   0  0  0  0  0  0  0  0  0  0  0  0
    0.0321   12.2203    1.5026 H   0  0  0  0  0  0  0  0  0  0  0  0
   -1.7671   10.0833    1.3848 H   0  0  0  0  0  0  0  0  0  0  0  0
   -2.1877   10.9004   -0.1586 H   0  0  0  0  0  0  0  0  0  0  0  0
   -1.7222    9.1655   -0.1586 H   0  0  0  0  0  0  0  0  0  0  0  0
    1.6235   11.0156   -3.8136 H   0  0  0  0  0  0  0  0  0  0  0  0
    0.9066   12.4816   -4.5644 H   0  0  0  0  0  0  0  0  0  0  0  0
    2.6882   12.2523   -4.5644 H   0  0  0  0  0  0  0  0  0  0  0  0
    3.9702   12.6294   -2.1429 H   0  0  0  0  0  0  0  0  0  0  0  0
    3.5604   13.7445   -3.5653 H   0  0  0  0  0  0  0  0  0  0  0  0
    3.4171   14.3901   -0.6084 H   0  0  0  0  0  0  0  0  0  0  0  0
    4.5185   15.0823   -1.8636 H   0  0  0  0  0  0  0  0  0  0  0  0
    3.1942   17.1619   -3.5139 H   0  0  0  0  0  0  0  0  0  0  0  0
    3.3271   15.4375   -3.9991 H   0  0  0  0  0  0  0  0  0  0  0  0
    1.7249   16.2496   -3.9991 H   0  0  0  0  0  0  0  0  0  0  0  0
  1  2  1  0
  2  3  1  0
  3  4  1  0
  4  5  1  0
  5  6  1  0
  6  7  1  0
  7  8  1  0
  7  9  1  0
  2 10  1  0
 10 11  1  0
 11 12  1  0
 12 13  1  0
 13 14  1  1
 13 15  1  0
 15 16  1  0
 16 17  1  0
 17 18  2  0
 18 19  1  0
 19 20  1  0
 20 21  1  0
 21 22  1  0
 22 23  1  0
 22 24  1  0
 24 25  1  0
 24 26  1  0
 19 27  1  0
 27 28  1  6
 27 29  1  0
 29 30  1  0
 30 31  1  0
 31 32  1  6
  7  5  1  0
 31 10  1  0
 31 13  1  0
 27 15  1  0
 24 18  1  0
  1 33  1  0
  1 34  1  0
  1 35  1  0
  2 36  1  6
  3 37  1  0
  3 38  1  0
  4 39  1  0
  4 40  1  0
  5 41  1  1
  8 42  1  0
  8 43  1  0
  8 44  1  0
  9 45  1  0
  9 46  1  0
  9 47  1  0
 10 48  1  1
 11 49  1  0
 11 50  1  0
 12 51  1  0
 12 52  1  0
 14 53  1  0
 14 54  1  0
 14 55  1  0
 15 56  1  6
 16 57  1  0
 16 58  1  0
 17 59  1  0
 19 60  1  1
 20 61  1  0
 20 62  1  0
 21 63  1  0
 21 64  1  0
 22 65  1  1
 23 66  1  0
 25 67  1  0
 25 68  1  0
 25 69  1  0
 26 70  1  0
 26 71  1  0
 26 72  1  0
 28 73  1  0
 28 74  1  0
 28 75  1  0
 29 76  1  0
 29 77  1  0
 30 78  1  0
 30 79  1  0
 32 80  1  0
 32 81  1  0
 32 82  1  0
M  END
>  <meeko>  (8) 
{"is_sidechain": [false], "intermolecular_energy": 2.731, "internal_energy": -0.839}

$$$$
EPH_relaxed_0001_pdb2pqr_Repair_329_r2_0001_out
     RDKit          3D

 82 86  0  0  0  0  0  0  0  0999 V2000
    0.0630   10.6160    1.9120 C   0  0  0  0  0  0  0  0  0  0  0  0
    0.4100   10.6690    0.4220 C   0  0  2  0  0  0  0  0  0  0  0  0
    0.9120    9.3100   -0.1060 C   0  0  0  0  0  0  0  0  0  0  0  0
    0.1510    8.8080   -1.3370 C   0  0  0  0  0  0  0  0  0  0  0  0
   -1.2470    8.3930   -0.9930 C   0  0  2  0  0  0  0  0  0  0  0  0
   -2.1960    8.5450   -2.0570 O   0  0  0  0  0  0  0  0  0  0  0  0
   -2.4090    9.3640   -0.8960 C   0  0  0  0  0  0  0  0  0  0  0  0
   -2.2240   10.8280   -1.1420 C   0  0  0  0  0  0  0  0  0  0  0  0
   -3.6070    8.9680   -0.0900 C   0  0  0  0  0  0  0  0  0  0  0  0
    1.4590   11.7450    0.1700 C   0  0  1  0  0  0  0  0  0  0  0  0
    2.7700   11.1730   -0.4320 C   0  0  0  0  0  0  0  0  0  0  0  0
    3.3210   12.2460   -1.4060 C   0  0  0  0  0  0  0  0  0  0  0  0
    2.5030   13.5190   -1.0860 C   0  0  1  0  0  0  0  0  0  0  0  0
    3.1890   14.1300    0.1750 C   0  0  0  0  0  0  0  0  0  0  0  0
    2.3770   14.5670   -2.2400 C   0  0  2  0  0  0  0  0  0  0  0  0
    3.7050   15.1880   -2.7060 C   0  0  0  0  0  0  0  0  0  0  0  0
    4.1100   16.4360   -1.9940 C   0  0  0  0  0  0  0  0  0  0  0  0
    3.3070   17.1930   -1.2230 C   0  0  0  0  0  0  0  0  0  0  0  0
    1.8140   16.8660   -1.0830 C   0  0  1  0  0  0  0  0  0  0  0  0
    0.9820   18.1650   -1.2500 C   0  0  0  0  0  0  0  0  0  0  0  0
    1.4290   19.2720   -0.3000 C   0  0  0  0  0  0  0  0  0  0  0  0
    2.9030   19.6090   -0.5100 C   0  0  2  0  0  0  0  0  0  0  0  0
    3.0630   20.1940   -1.8050 O   0  0  0  0  0  0  0  0  0  0  0  0
    3.8390   18.3740   -0.3760 C   0  0  0  0  0  0  0  0  0  0  0  0
    3.8960   17.9230    1.1050 C   0  0  0  0  0  0  0  0  0  0  0  0
    5.2770   18.8230   -0.7490 C   0  0  0  0  0  0  0  0  0  0  0  0
    1.2770   15.6770   -1.9900 C   0  0  1  0  0  0  0  0  0  0  0  0
    0.8660   16.2200   -3.3920 C   0  0  0  0  0  0  0  0  0  0  0  0
   -0.0310   15.0870   -1.3410 C   0  0  0  0  0  0  0  0  0  0  0  0
    0.1540   13.9710   -0.2960 C   0  0  0  0  0  0  0  0  0  0  0  0
    1.0920   12.8790   -0.8190 C   0  0  2  0  0  0  0  0  0  0  0  0
    0.4170   12.2310   -2.0760 C   0  0  0  0  0  0  0  0  0  0  0  0
    0.9778   10.7557    2.5067 H   0  0  0  0  0  0  0  0  0  0  0  0
   -0.6547   11.4149    2.1500 H   0  0  0  0  0  0  0  0  0  0  0  0
   -0.3835    9.6392    2.1500 H   0  0  0  0  0  0  0  0  0  0  0  0
   -0.5129   10.9149   -0.1237 H   0  0  0  0  0  0  0  0  0  0  0  0
    1.9744    9.4120   -0.3723 H   0  0  0  0  0  0  0  0  0  0  0  0
    0.7486    8.5739    0.6949 H   0  0  0  0  0  0  0  0  0  0  0  0
    0.1099    9.6144   -2.0840 H   0  0  0  0  0  0  0  0  0  0  0  0
    0.6816    7.9299   -1.7337 H   0  0  0  0  0  0  0  0  0  0  0  0
   -0.8729    7.6193   -0.3064 H   0  0  0  0  0  0  0  0  0  0  0  0
   -2.1573   11.3560   -0.1793 H   0  0  0  0  0  0  0  0  0  0  0  0
   -1.2983   10.9896   -1.7138 H   0  0  0  0  0  0  0  0  0  0  0  0
   -3.0804   11.2148   -1.7138 H   0  0  0  0  0  0  0  0  0  0  0  0
   -3.3703    9.0462    0.9814 H   0  0  0  0  0  0  0  0  0  0  0  0
   -4.4473    9.6362   -0.3296 H   0  0  0  0  0  0  0  0  0  0  0  0
   -3.8836    7.9306   -0.3296 H   0  0  0  0  0  0  0  0  0  0  0  0
    1.5543   12.1501    1.1882 H   0  0  0  0  0  0  0  0  0  0  0  0
    3.4997   10.9767    0.3674 H   0  0  0  0  0  0  0  0  0  0  0  0
    2.5828   10.2237   -0.9553 H   0  0  0  0  0  0  0  0  0  0  0  0
    4.3928   12.4181   -1.2284 H   0  0  0  0  0  0  0  0  0  0  0  0
    3.2258   11.9423   -2.4589 H   0  0  0  0  0  0  0  0  0  0  0  0
    2.7243   13.7161    1.0820 H   0  0  0  0  0  0  0  0  0  0  0  0
    4.2606   13.8817    0.1660 H   0  0  0  0  0  0  0  0  0  0  0  0
    3.0658   15.2230    0.1660 H   0  0  0  0  0  0  0  0  0  0  0  0
    2.0245   13.9507   -3.0801 H   0  0  0  0  0  0  0  0  0  0  0  0
    4.4991   14.4408   -2.5606 H   0  0  0  0  0  0  0  0  0  0  0  0
    3.5552   15.4728   -3.7579 H   0  0  0  0  0  0  0  0  0  0  0  0
    5.1533   16.7650   -2.1091 H   0  0  0  0  0  0  0  0  0  0  0  0
    1.6837   16.4671   -0.0662 H   0  0  0  0  0  0  0  0  0  0  0  0
    1.0907   18.5228   -2.2845 H   0  0  0  0  0  0  0  0  0  0  0  0
   -0.0648   17.9240   -1.0130 H   0  0  0  0  0  0  0  0  0  0  0  0
    0.8240   20.1717   -0.4856 H   0  0  0  0  0  0  0  0  0  0  0  0
    1.2925   18.9234    0.7343 H   0  0  0  0  0  0  0  0  0  0  0  0
    3.1959   20.3131    0.2827 H   0  0  0  0  0  0  0  0  0  0  0  0
    2.2020   20.1500   -2.2560 H   0  0  0  0  0  0  0  0  0  0  0  0
    3.7852   18.7999    1.7598 H   0  0  0  0  0  0  0  0  0  0  0  0
    3.0806   17.2118    1.3034 H   0  0  0  0  0  0  0  0  0  0  0  0
    4.8627   17.4371    1.3034 H   0  0  0  0  0  0  0  0  0  0  0  0
    5.8547   19.0034    0.1696 H   0  0  0  0  0  0  0  0  0  0  0  0
    5.7655   18.0346   -1.3405 H   0  0  0  0  0  0  0  0  0  0  0  0
    5.2301   19.7493   -1.3405 H   0  0  0  0  0  0  0  0  0  0  0  0
    0.2063   17.0916   -3.2687 H   0  0  0  0  0  0  0  0  0  0  0  0
    1.7669   16.5179   -3.9484 H   0  0  0  0  0  0  0  0  0  0  0  0
    0.3347   15.4338   -3.9484 H   0  0  0  0  0  0  0  0  0  0  0  0
   -0.5627   15.9163   -0.8515 H   0  0  0  0  0  0  0  0  0  0  0  0
   -0.5766   14.6155   -2.1716 H   0  0  0  0  0  0  0  0  0  0  0  0
    0.5815   14.4037    0.6205 H   0  0  0  0  0  0  0  0  0  0  0  0
   -0.8274   13.5197   -0.0879 H   0  0  0  0  0  0  0  0  0  0  0  0
   -0.3411   11.5033   -1.7509 H   0  0  0  0  0  0  0  0  0  0  0  0
   -0.0629   13.0153   -2.6798 H   0  0  0  0  0  0  0  0  0  0  0  0
    1.1811   11.7195   -2.6798 H   0  0  0  0  0  0  0  0  0  0  0  0
  1  2  1  0
  2  3  1  0
  3  4  1  0
  4  5  1  0
  5  6  1  0
  6  7  1  0
  7  8  1  0
  7  9  1  0
  2 10  1  0
 10 11  1  0
 11 12  1  0
 12 13  1  0
 13 14  1  1
 13 15  1  0
 15 16  1  0
 16 17  1  0
 17 18  2  0
 18 19  1  0
 19 20  1  0
 20 21  1  0
 21 22  1  0
 22 23  1  0
 22 24  1  0
 24 25  1  0
 24 26  1  0
 19 27  1  0
 27 28  1  6
 27 29  1  0
 29 30  1  0
 30 31  1  0
 31 32  1  6
  7  5  1  0
 31 10  1  0
 31 13  1  0
 27 15  1  0
 24 18  1  0
  1 33  1  0
  1 34  1  0
  1 35  1  0
  2 36  1  6
  3 37  1  0
  3 38  1  0
  4 39  1  0
  4 40  1  0
  5 41  1  1
  8 42  1  0
  8 43  1  0
  8 44  1  0
  9 45  1  0
  9 46  1  0
  9 47  1  0
 10 48  1  1
 11 49  1  0
 11 50  1  0
 12 51  1  0
 12 52  1  0
 14 53  1  0
 14 54  1  0
 14 55  1  0
 15 56  1  6
 16 57  1  0
 16 58  1  0
 17 59  1  0
 19 60  1  1
 20 61  1  0
 20 62  1  0
 21 63  1  0
 21 64  1  0
 22 65  1  1
 23 66  1  0
 25 67  1  0
 25 68  1  0
 25 69  1  0
 26 70  1  0
 26 71  1  0
 26 72  1  0
 28 73  1  0
 28 74  1  0
 28 75  1  0
 29 76  1  0
 29 77  1  0
 30 78  1  0
 30 79  1  0
 32 80  1  0
 32 81  1  0
 32 82  1  0
M  END
>  <meeko>  (9) 
{"is_sidechain": [false], "intermolecular_energy": 2.731, "internal_energy": -0.839}

$$$$
EPH_relaxed_0001_pdb2pqr_Repair_329_r2_0001_out
     RDKit          3D

 82 86  0  0  0  0  0  0  0  0999 V2000
    3.6820   17.9560   -1.3810 C   0  0  0  0  0  0  0  0  0  0  0  0
    2.6120   17.4860   -2.3710 C   0  0  2  0  0  0  0  0  0  0  0  0
    1.2030   17.9710   -1.9770 C   0  0  0  0  0  0  0  0  0  0  0  0
    1.1870   18.8820   -0.7470 C   0  0  0  0  0  0  0  0  0  0  0  0
   -0.0560   19.7180   -0.6910 C   0  0  2  0  0  0  0  0  0  0  0  0
   -0.4180   20.1650    0.6210 O   0  0  0  0  0  0  0  0  0  0  0  0
   -1.3380   19.2660   -0.0180 C   0  0  0  0  0  0  0  0  0  0  0  0
   -1.4420   17.9280    0.6450 C   0  0  0  0  0  0  0  0  0  0  0  0
   -2.6260   19.9110   -0.4270 C   0  0  0  0  0  0  0  0  0  0  0  0
    2.6300   15.9650   -2.4720 C   0  0  1  0  0  0  0  0  0  0  0  0
    4.0620   15.3950   -2.6530 C   0  0  0  0  0  0  0  0  0  0  0  0
    4.1060   14.0450   -1.8930 C   0  0  0  0  0  0  0  0  0  0  0  0
    2.6250   13.7230   -1.5840 C   0  0  1  0  0  0  0  0  0  0  0  0
    2.0650   13.1060   -2.9040 C   0  0  0  0  0  0  0  0  0  0  0  0
    2.3620   12.7930   -0.3550 C   0  0  2  0  0  0  0  0  0  0  0  0
    2.9470   11.3750   -0.4730 C   0  0  0  0  0  0  0  0  0  0  0  0
    2.0370   10.3580   -1.0810 C   0  0  0  0  0  0  0  0  0  0  0  0
    0.7100   10.5010   -1.2530 C   0  0  0  0  0  0  0  0  0  0  0  0
   -0.0240   11.7410   -0.7280 C   0  0  1  0  0  0  0  0  0  0  0  0
   -1.3140   11.3040    0.0140 C   0  0  0  0  0  0  0  0  0  0  0  0
   -2.2100   10.4150   -0.8440 C   0  0  0  0  0  0  0  0  0  0  0  0
   -1.4620    9.1640   -1.2980 C   0  0  2  0  0  0  0  0  0  0  0  0
   -1.1830    8.3530   -0.1530 O   0  0  0  0  0  0  0  0  0  0  0  0
   -0.1390    9.4800   -2.0500 C   0  0  0  0  0  0  0  0  0  0  0  0
   -0.4620   10.0920   -3.4360 C   0  0  0  0  0  0  0  0  0  0  0  0
    0.5850    8.1350   -2.3270 C   0  0  0  0  0  0  0  0  0  0  0  0
    0.8530   12.7590    0.1200 C   0  0  1  0  0  0  0  0  0  0  0  0
    0.8690   12.3270    1.6190 C   0  0  0  0  0  0  0  0  0  0  0  0
    0.1790   14.1810    0.0750 C   0  0  0  0  0  0  0  0  0  0  0  0
    0.5710   15.0980   -1.0990 C   0  0  0  0  0  0  0  0  0  0  0  0
    2.0930   15.1660   -1.2580 C   0  0  2  0  0  0  0  0  0  0  0  0
    2.6830   15.8030    0.0460 C   0  0  0  0  0  0  0  0  0  0  0  0
    3.3244   17.7989   -0.3527 H   0  0  0  0  0  0  0  0  0  0  0  0
    4.6062   17.3810   -1.5397 H   0  0  0  0  0  0  0  0  0  0  0  0
    3.8838   19.0256   -1.5397 H   0  0  0  0  0  0  0  0  0  0  0  0
    2.8507   17.9268   -3.3502 H   0  0  0  0  0  0  0  0  0  0  0  0
    0.7769   18.5261   -2.8257 H   0  0  0  0  0  0  0  0  0  0  0  0
    0.6150   17.0769   -1.7223 H   0  0  0  0  0  0  0  0  0  0  0  0
    1.2386   18.2593    0.1583 H   0  0  0  0  0  0  0  0  0  0  0  0
    2.0521   19.5585   -0.8106 H   0  0  0  0  0  0  0  0  0  0  0  0
    0.1472   20.1291   -1.6909 H   0  0  0  0  0  0  0  0  0  0  0  0
   -1.4319   18.0582    1.7372 H   0  0  0  0  0  0  0  0  0  0  0  0
   -2.3807   17.4409    0.3425 H   0  0  0  0  0  0  0  0  0  0  0  0
   -0.5898   17.3017    0.3425 H   0  0  0  0  0  0  0  0  0  0  0  0
   -3.1947   20.1958    0.4705 H   0  0  0  0  0  0  0  0  0  0  0  0
   -2.4126   20.8086   -1.0260 H   0  0  0  0  0  0  0  0  0  0  0  0
   -3.2169   19.2024   -1.0260 H   0  0  0  0  0  0  0  0  0  0  0  0
    1.9641   15.8296   -3.3370 H   0  0  0  0  0  0  0  0  0  0  0  0
    4.2740   15.2357   -3.7205 H   0  0  0  0  0  0  0  0  0  0  0  0
    4.8170   16.0929   -2.2619 H   0  0  0  0  0  0  0  0  0  0  0  0
    4.5512   13.2597   -2.5216 H   0  0  0  0  0  0  0  0  0  0  0  0
    4.7201   14.0989   -0.9820 H   0  0  0  0  0  0  0  0  0  0  0  0
    1.3441   12.3117   -2.6605 H   0  0  0  0  0  0  0  0  0  0  0  0
    1.5631   13.8894   -3.4909 H   0  0  0  0  0  0  0  0  0  0  0  0
    2.8932   12.6821   -3.4909 H   0  0  0  0  0  0  0  0  0  0  0  0
    2.9364   13.2869    0.4426 H   0  0  0  0  0  0  0  0  0  0  0  0
    3.8547   11.4321   -1.0918 H   0  0  0  0  0  0  0  0  0  0  0  0
    3.1364   11.0372    0.5566 H   0  0  0  0  0  0  0  0  0  0  0  0
    2.4896    9.4131   -1.4162 H   0  0  0  0  0  0  0  0  0  0  0  0
   -0.2873   12.3363   -1.6148 H   0  0  0  0  0  0  0  0  0  0  0  0
   -1.0289   10.7482    0.9194 H   0  0  0  0  0  0  0  0  0  0  0  0
   -1.8824   12.2133    0.2593 H   0  0  0  0  0  0  0  0  0  0  0  0
   -3.0895   10.1150   -0.2553 H   0  0  0  0  0  0  0  0  0  0  0  0
   -2.5189   10.9823   -1.7344 H   0  0  0  0  0  0  0  0  0  0  0  0
   -2.1091    8.6337   -2.0122 H   0  0  0  0  0  0  0  0  0  0  0  0
   -1.8840    8.5160    0.5010 H   0  0  0  0  0  0  0  0  0  0  0  0
   -0.9715   11.0574   -3.3008 H   0  0  0  0  0  0  0  0  0  0  0  0
    0.4724   10.2458   -3.9957 H   0  0  0  0  0  0  0  0  0  0  0  0
   -1.1162    9.4073   -3.9957 H   0  0  0  0  0  0  0  0  0  0  0  0
    0.8437    7.6544   -1.3720 H   0  0  0  0  0  0  0  0  0  0  0  0
   -0.0787    7.4731   -2.9027 H   0  0  0  0  0  0  0  0  0  0  0  0
    1.5030    8.3245   -2.9027 H   0  0  0  0  0  0  0  0  0  0  0  0
    0.8359   13.2213    2.2587 H   0  0  0  0  0  0  0  0  0  0  0  0
   -0.0063   11.6943    1.8276 H   0  0  0  0  0  0  0  0  0  0  0  0
    1.7887   11.7608    1.8276 H   0  0  0  0  0  0  0  0  0  0  0  0
   -0.9100   14.0320    0.0318 H   0  0  0  0  0  0  0  0  0  0  0  0
    0.5377   14.6985    0.9770 H   0  0  0  0  0  0  0  0  0  0  0  0
    0.1297   14.7037   -2.0263 H   0  0  0  0  0  0  0  0  0  0  0  0
    0.1945   16.1109   -0.8933 H   0  0  0  0  0  0  0  0  0  0  0  0
    2.2345   15.3188    0.9260 H   0  0  0  0  0  0  0  0  0  0  0  0
    3.7733   15.6584    0.0638 H   0  0  0  0  0  0  0  0  0  0  0  0
    2.4555   16.8791    0.0638 H   0  0  0  0  0  0  0  0  0  0  0  0
  1  2  1  0
  2  3  1  0
  3  4  1  0
  4  5  1  0
  5  6  1  0
  6  7  1  0
  7  8  1  0
  7  9  1  0
  2 10  1  0
 10 11  1  0
 11 12  1  0
 12 13  1  0
 13 14  1  6
 13 15  1  0
 15 16  1  0
 16 17  1  0
 17 18  2  0
 18 19  1  0
 19 20  1  0
 20 21  1  0
 21 22  1  0
 22 23  1  0
 22 24  1  0
 24 25  1  0
 24 26  1  0
 19 27  1  0
 27 28  1  1
 27 29  1  0
 29 30  1  0
 30 31  1  0
 31 32  1  1
  7  5  1  0
 31 10  1  0
 31 13  1  0
 27 15  1  0
 24 18  1  0
  1 33  1  0
  1 34  1  0
  1 35  1  0
  2 36  1  6
  3 37  1  0
  3 38  1  0
  4 39  1  0
  4 40  1  0
  5 41  1  6
  8 42  1  0
  8 43  1  0
  8 44  1  0
  9 45  1  0
  9 46  1  0
  9 47  1  0
 10 48  1  6
 11 49  1  0
 11 50  1  0
 12 51  1  0
 12 52  1  0
 14 53  1  0
 14 54  1  0
 14 55  1  0
 15 56  1  1
 16 57  1  0
 16 58  1  0
 17 59  1  0
 19 60  1  6
 20 61  1  0
 20 62  1  0
 21 63  1  0
 21 64  1  0
 22 65  1  6
 23 66  1  0
 25 67  1  0
 25 68  1  0
 25 69  1  0
 26 70  1  0
 26 71  1  0
 26 72  1  0
 28 73  1  0
 28 74  1  0
 28 75  1  0
 29 76  1  0
 29 77  1  0
 30 78  1  0
 30 79  1  0
 32 80  1  0
 32 81  1  0
 32 82  1  0
M  END
>  <meeko>  (10) 
{"is_sidechain": [false], "intermolecular_energy": 2.731, "internal_energy": -0.839}

$$$$
EPH_relaxed_0001_pdb2pqr_Repair_329_r2_0001_out
     RDKit          3D

 82 86  0  0  0  0  0  0  0  0999 V2000
   -2.6200    7.6250   -3.0480 C   0  0  0  0  0  0  0  0  0  0  0  0
   -2.8930    7.8770   -1.5620 C   0  0  2  0  0  0  0  0  0  0  0  0
   -4.3990    7.8370   -1.2340 C   0  0  0  0  0  0  0  0  0  0  0  0
   -5.1370    6.6570   -1.8720 C   0  0  0  0  0  0  0  0  0  0  0  0
   -6.3360    7.1090   -2.6510 C   0  0  2  0  0  0  0  0  0  0  0  0
   -6.8890    8.3610   -2.2250 O   0  0  0  0  0  0  0  0  0  0  0  0
   -7.7290    7.2070   -2.0590 C   0  0  0  0  0  0  0  0  0  0  0  0
   -7.9980    6.8490   -0.6310 C   0  0  0  0  0  0  0  0  0  0  0  0
   -8.9040    7.1790   -2.9870 C   0  0  0  0  0  0  0  0  0  0  0  0
   -2.3050    9.2190   -1.1460 C   0  0  1  0  0  0  0  0  0  0  0  0
   -2.8050    9.6840    0.2480 C   0  0  0  0  0  0  0  0  0  0  0  0
   -1.6250   10.4310    0.9210 C   0  0  0  0  0  0  0  0  0  0  0  0
   -0.6070   10.6610   -0.2210 C   0  0  1  0  0  0  0  0  0  0  0  0
   -1.1340   11.9180   -0.9810 C   0  0  0  0  0  0  0  0  0  0  0  0
    0.8870   10.8300    0.2090 C   0  0  2  0  0  0  0  0  0  0  0  0
    1.1750   12.0500    1.1010 C   0  0  0  0  0  0  0  0  0  0  0  0
    1.5350   13.3020    0.3730 C   0  0  0  0  0  0  0  0  0  0  0  0
    1.9020   13.3770   -0.9200 C   0  0  0  0  0  0  0  0  0  0  0  0
    2.0770   12.1080   -1.7640 C   0  0  1  0  0  0  0  0  0  0  0  0
    3.4060   12.1940   -2.5590 C   0  0  0  0  0  0  0  0  0  0  0  0
    3.5080   13.4670   -3.3930 C   0  0  0  0  0  0  0  0  0  0  0  0
    3.3870   14.7080   -2.5120 C   0  0  2  0  0  0  0  0  0  0  0  0
    4.5310   14.7770   -1.6550 O   0  0  0  0  0  0  0  0  0  0  0  0
    2.0900   14.7270   -1.6550 C   0  0  0  0  0  0  0  0  0  0  0  0
    0.8640   14.9560   -2.5730 C   0  0  0  0  0  0  0  0  0  0  0  0
    2.1600   15.9570   -0.7100 C   0  0  0  0  0  0  0  0  0  0  0  0
    1.9200   10.7310   -0.9860 C   0  0  1  0  0  0  0  0  0  0  0  0
    3.2860   10.3150   -0.3590 C   0  0  0  0  0  0  0  0  0  0  0  0
    1.5400    9.6000   -2.0130 C   0  0  0  0  0  0  0  0  0  0  0  0
    0.0400    9.4030   -2.3060 C   0  0  0  0  0  0  0  0  0  0  0  0
   -0.7640    9.3080   -1.0060 C   0  0  2  0  0  0  0  0  0  0  0  0
   -0.2710    8.0390   -0.2300 C   0  0  0  0  0  0  0  0  0  0  0  0
   -1.8153    6.8822   -3.1522 H   0  0  0  0  0  0  0  0  0  0  0  0
   -3.5335    7.2459   -3.5295 H   0  0  0  0  0  0  0  0  0  0  0  0
   -2.3151    8.5659   -3.5295 H   0  0  0  0  0  0  0  0  0  0  0  0
   -2.4098    7.0679   -0.9947 H   0  0  0  0  0  0  0  0  0  0  0  0
   -4.5149    7.7697   -0.1422 H   0  0  0  0  0  0  0  0  0  0  0  0
   -4.8424    8.7548   -1.6475 H   0  0  0  0  0  0  0  0  0  0  0  0
   -4.4490    6.1306   -2.5499 H   0  0  0  0  0  0  0  0  0  0  0  0
   -5.4819    5.9920   -1.0665 H   0  0  0  0  0  0  0  0  0  0  0  0
   -5.9545    6.6277   -3.5636 H   0  0  0  0  0  0  0  0  0  0  0  0
   -7.4695    7.5524    0.0292 H   0  0  0  0  0  0  0  0  0  0  0  0
   -9.0792    6.9053   -0.4363 H   0  0  0  0  0  0  0  0  0  0  0  0
   -7.6431    5.8262   -0.4363 H   0  0  0  0  0  0  0  0  0  0  0  0
   -9.8342    7.1568   -2.4003 H   0  0  0  0  0  0  0  0  0  0  0  0
   -8.8918    8.0777   -3.6212 H   0  0  0  0  0  0  0  0  0  0  0  0
   -8.8491    6.2819   -3.6212 H   0  0  0  0  0  0  0  0  0  0  0  0
   -2.6427    9.8378   -1.9904 H   0  0  0  0  0  0  0  0  0  0  0  0
   -3.6659   10.3594    0.1355 H   0  0  0  0  0  0  0  0  0  0  0  0
   -3.1285    8.8271    0.8572 H   0  0  0  0  0  0  0  0  0  0  0  0
   -1.9615   11.3906    1.3405 H   0  0  0  0  0  0  0  0  0  0  0  0
   -1.1928    9.8612    1.7568 H   0  0  0  0  0  0  0  0  0  0  0  0
   -1.4531   12.6791   -0.2538 H   0  0  0  0  0  0  0  0  0  0  0  0
   -0.3319   12.3277   -1.6125 H   0  0  0  0  0  0  0  0  0  0  0  0
   -1.9885   11.6332   -1.6125 H   0  0  0  0  0  0  0  0  0  0  0  0
    1.0505    9.9487    0.8466 H   0  0  0  0  0  0  0  0  0  0  0  0
    0.2753   12.2524    1.7007 H   0  0  0  0  0  0  0  0  0  0  0  0
    2.0561   11.7847    1.7037 H   0  0  0  0  0  0  0  0  0  0  0  0
    1.4973   14.2432    0.9410 H   0  0  0  0  0  0  0  0  0  0  0  0
    1.2259   12.0865   -2.4606 H   0  0  0  0  0  0  0  0  0  0  0  0
    4.2445   12.1706   -1.8475 H   0  0  0  0  0  0  0  0  0  0  0  0
    3.4372   11.3389   -3.2502 H   0  0  0  0  0  0  0  0  0  0  0  0
    4.4805   13.4837   -3.9068 H   0  0  0  0  0  0  0  0  0  0  0  0
    2.6863   13.4743   -4.1243 H   0  0  0  0  0  0  0  0  0  0  0  0
    3.3354   15.5821   -3.1777 H   0  0  0  0  0  0  0  0  0  0  0  0
    4.4750   15.6100   -1.1570 H   0  0  0  0  0  0  0  0  0  0  0  0
   -0.0306   15.1231   -1.9551 H   0  0  0  0  0  0  0  0  0  0  0  0
    1.0408   15.8367   -3.2080 H   0  0  0  0  0  0  0  0  0  0  0  0
    0.7110   14.0709   -3.2080 H   0  0  0  0  0  0  0  0  0  0  0  0
    2.1407   15.6173    0.3360 H   0  0  0  0  0  0  0  0  0  0  0  0
    3.0912   16.5115   -0.8983 H   0  0  0  0  0  0  0  0  0  0  0  0
    1.2978   16.6136   -0.8983 H   0  0  0  0  0  0  0  0  0  0  0  0
    3.2083   10.3387    0.7380 H   0  0  0  0  0  0  0  0  0  0  0  0
    3.5449    9.2973   -0.6864 H   0  0  0  0  0  0  0  0  0  0  0  0
    4.0683   11.0156   -0.6864 H   0  0  0  0  0  0  0  0  0  0  0  0
    2.0371    9.8349   -2.9657 H   0  0  0  0  0  0  0  0  0  0  0  0
    1.8669    8.6614   -1.5416 H   0  0  0  0  0  0  0  0  0  0  0  0
   -0.3269   10.2568   -2.8946 H   0  0  0  0  0  0  0  0  0  0  0  0
   -0.0879    8.4655   -2.8671 H   0  0  0  0  0  0  0  0  0  0  0  0
   -0.3416    8.2208    0.8526 H   0  0  0  0  0  0  0  0  0  0  0  0
   -0.8998    7.1775   -0.4989 H   0  0  0  0  0  0  0  0  0  0  0  0
    0.7745    7.8280   -0.4989 H   0  0  0  0  0  0  0  0  0  0  0  0
  1  2  1  0
  2  3  1  0
  3  4  1  0
  4  5  1  0
  5  6  1  0
  6  7  1  0
  7  8  1  0
  7  9  1  0
  2 10  1  0
 10 11  1  0
 11 12  1  0
 12 13  1  0
 13 14  1  6
 13 15  1  0
 15 16  1  0
 16 17  1  0
 17 18  2  0
 18 19  1  0
 19 20  1  0
 20 21  1  0
 21 22  1  0
 22 23  1  0
 22 24  1  0
 24 25  1  0
 24 26  1  0
 19 27  1  0
 27 28  1  1
 27 29  1  0
 29 30  1  0
 30 31  1  0
 31 32  1  1
  7  5  1  0
 31 10  1  0
 31 13  1  0
 27 15  1  0
 24 18  1  0
  1 33  1  0
  1 34  1  0
  1 35  1  0
  2 36  1  1
  3 37  1  0
  3 38  1  0
  4 39  1  0
  4 40  1  0
  5 41  1  6
  8 42  1  0
  8 43  1  0
  8 44  1  0
  9 45  1  0
  9 46  1  0
  9 47  1  0
 10 48  1  6
 11 49  1  0
 11 50  1  0
 12 51  1  0
 12 52  1  0
 14 53  1  0
 14 54  1  0
 14 55  1  0
 15 56  1  1
 16 57  1  0
 16 58  1  0
 17 59  1  0
 19 60  1  6
 20 61  1  0
 20 62  1  0
 21 63  1  0
 21 64  1  0
 22 65  1  6
 23 66  1  0
 25 67  1  0
 25 68  1  0
 25 69  1  0
 26 70  1  0
 26 71  1  0
 26 72  1  0
 28 73  1  0
 28 74  1  0
 28 75  1  0
 29 76  1  0
 29 77  1  0
 30 78  1  0
 30 79  1  0
 32 80  1  0
 32 81  1  0
 32 82  1  0
M  END
>  <meeko>  (11) 
{"is_sidechain": [false], "intermolecular_energy": 2.731, "internal_energy": -0.839}

$$$$
EPH_relaxed_0001_pdb2pqr_Repair_329_r2_0001_out
     RDKit          3D

 82 86  0  0  0  0  0  0  0  0999 V2000
   -0.2160   10.8190   -0.6180 C   0  0  0  0  0  0  0  0  0  0  0  0
    0.6920   10.5850   -1.8290 C   0  0  2  0  0  0  0  0  0  0  0  0
    1.9490    9.7690   -1.4630 C   0  0  0  0  0  0  0  0  0  0  0  0
    3.2610   10.4420   -1.8730 C   0  0  0  0  0  0  0  0  0  0  0  0
    3.4390   10.4490   -3.3620 C   0  0  2  0  0  0  0  0  0  0  0  0
    4.7890   10.2570   -3.8040 O   0  0  0  0  0  0  0  0  0  0  0  0
    4.1980   11.5310   -4.1080 C   0  0  0  0  0  0  0  0  0  0  0  0
    4.8270   12.6820   -3.3880 C   0  0  0  0  0  0  0  0  0  0  0  0
    3.9120   11.7300   -5.5640 C   0  0  0  0  0  0  0  0  0  0  0  0
    1.0990   11.9210   -2.4390 C   0  0  1  0  0  0  0  0  0  0  0  0
    0.3840   12.2040   -3.7880 C   0  0  0  0  0  0  0  0  0  0  0  0
    0.1330   13.7320   -3.8490 C   0  0  0  0  0  0  0  0  0  0  0  0
    0.9970   14.3160   -2.7060 C   0  0  1  0  0  0  0  0  0  0  0  0
    2.4390   14.4010   -3.2960 C   0  0  0  0  0  0  0  0  0  0  0  0
    0.5300   15.6880   -2.1190 C   0  0  2  0  0  0  0  0  0  0  0  0
    0.5410   16.8610   -3.1150 C   0  0  0  0  0  0  0  0  0  0  0  0
    1.8150   17.6370   -3.1730 C   0  0  0  0  0  0  0  0  0  0  0  0
    2.8040   17.5860   -2.2610 C   0  0  0  0  0  0  0  0  0  0  0  0
    2.6520   16.7570   -0.9790 C   0  0  1  0  0  0  0  0  0  0  0  0
    3.1090   17.5990    0.2400 C   0  0  0  0  0  0  0  0  0  0  0  0
    4.5190   18.1570    0.0700 C   0  0  0  0  0  0  0  0  0  0  0  0
    4.6150   19.0230   -1.1830 C   0  0  2  0  0  0  0  0  0  0  0  0
    3.8130   20.1930   -0.9970 O   0  0  0  0  0  0  0  0  0  0  0  0
    4.1700   18.2830   -2.4750 C   0  0  0  0  0  0  0  0  0  0  0  0
    5.2150   17.2010   -2.8420 C   0  0  0  0  0  0  0  0  0  0  0  0
    4.1800   19.3090   -3.6400 C   0  0  0  0  0  0  0  0  0  0  0  0
    1.2310   16.0810   -0.7550 C   0  0  1  0  0  0  0  0  0  0  0  0
    0.2740   17.0800   -0.0350 C   0  0  0  0  0  0  0  0  0  0  0  0
    1.3940   14.8480    0.2110 C   0  0  0  0  0  0  0  0  0  0  0  0
    1.7370   13.4950   -0.4420 C   0  0  0  0  0  0  0  0  0  0  0  0
    0.8000   13.1990   -1.6160 C   0  0  2  0  0  0  0  0  0  0  0  0
   -0.6560   13.0850   -1.0500 C   0  0  0  0  0  0  0  0  0  0  0  0
    0.3607   10.6704    0.3068 H   0  0  0  0  0  0  0  0  0  0  0  0
   -0.6063   11.8471   -0.6455 H   0  0  0  0  0  0  0  0  0  0  0  0
   -1.0546   10.1076   -0.6455 H   0  0  0  0  0  0  0  0  0  0  0  0
    0.1197    9.9993   -2.5635 H   0  0  0  0  0  0  0  0  0  0  0  0
    1.9610    9.6200   -0.3732 H   0  0  0  0  0  0  0  0  0  0  0  0
    1.8882    8.8201   -2.0160 H   0  0  0  0  0  0  0  0  0  0  0  0
    3.2579   11.4802   -1.5094 H   0  0  0  0  0  0  0  0  0  0  0  0
    4.0915    9.8720   -1.4310 H   0  0  0  0  0  0  0  0  0  0  0  0
    2.4389   10.0149   -3.5079 H   0  0  0  0  0  0  0  0  0  0  0  0
    4.7418   12.5261   -2.3024 H   0  0  0  0  0  0  0  0  0  0  0  0
    5.8889   12.7523   -3.6661 H   0  0  0  0  0  0  0  0  0  0  0  0
    4.3127   13.6137   -3.6661 H   0  0  0  0  0  0  0  0  0  0  0  0
    3.0140   12.3548   -5.6792 H   0  0  0  0  0  0  0  0  0  0  0  0
    4.7689   12.2279   -6.0413 H   0  0  0  0  0  0  0  0  0  0  0  0
    3.7429   10.7535   -6.0413 H   0  0  0  0  0  0  0  0  0  0  0  0
    2.1856   11.7669   -2.5131 H   0  0  0  0  0  0  0  0  0  0  0  0
    1.0219   11.8911   -4.6278 H   0  0  0  0  0  0  0  0  0  0  0  0
   -0.5609   11.6454   -3.8590 H   0  0  0  0  0  0  0  0  0  0  0  0
    0.4487   14.1388   -4.8210 H   0  0  0  0  0  0  0  0  0  0  0  0
   -0.9318   13.9844   -3.7374 H   0  0  0  0  0  0  0  0  0  0  0  0
    3.1693   14.4440   -2.4745 H   0  0  0  0  0  0  0  0  0  0  0  0
    2.6350   13.5128   -3.9147 H   0  0  0  0  0  0  0  0  0  0  0  0
    2.5293   15.3060   -3.9147 H   0  0  0  0  0  0  0  0  0  0  0  0
   -0.5295   15.4997   -1.8910 H   0  0  0  0  0  0  0  0  0  0  0  0
    0.3436   16.4564   -4.1187 H   0  0  0  0  0  0  0  0  0  0  0  0
   -0.2281   17.5649   -2.7643 H   0  0  0  0  0  0  0  0  0  0  0  0
    1.9577   18.3071   -4.0336 H   0  0  0  0  0  0  0  0  0  0  0  0
    3.3136   15.8866   -1.1001 H   0  0  0  0  0  0  0  0  0  0  0  0
    2.4107   18.4389    0.3702 H   0  0  0  0  0  0  0  0  0  0  0  0
    3.1153   16.9378    1.1191 H   0  0  0  0  0  0  0  0  0  0  0  0
    4.7734   18.7667    0.9495 H   0  0  0  0  0  0  0  0  0  0  0  0
    5.2202   17.3154   -0.0301 H   0  0  0  0  0  0  0  0  0  0  0  0
    5.6740   19.2858   -1.3222 H   0  0  0  0  0  0  0  0  0  0  0  0
    3.3830   20.1200   -0.1280 H   0  0  0  0  0  0  0  0  0  0  0  0
    5.6332   16.7680   -1.9214 H   0  0  0  0  0  0  0  0  0  0  0  0
    4.7310   16.4092   -3.4327 H   0  0  0  0  0  0  0  0  0  0  0  0
    6.0231   17.6571   -3.4327 H   0  0  0  0  0  0  0  0  0  0  0  0
    4.1899   20.3296   -3.2297 H   0  0  0  0  0  0  0  0  0  0  0  0
    5.0767   19.1535   -4.2579 H   0  0  0  0  0  0  0  0  0  0  0  0
    3.2805   19.1710   -4.2579 H   0  0  0  0  0  0  0  0  0  0  0  0
    0.3802   16.9691    1.0542 H   0  0  0  0  0  0  0  0  0  0  0  0
    0.5320   18.1091   -0.3257 H   0  0  0  0  0  0  0  0  0  0  0  0
   -0.7652   16.8664   -0.3257 H   0  0  0  0  0  0  0  0  0  0  0  0
    2.1975   15.0871    0.9232 H   0  0  0  0  0  0  0  0  0  0  0  0
    0.4026   14.7053    0.6657 H   0  0  0  0  0  0  0  0  0  0  0  0
    2.7739   13.5249   -0.8080 H   0  0  0  0  0  0  0  0  0  0  0  0
    1.6167   12.7021    0.3109 H   0  0  0  0  0  0  0  0  0  0  0  0
   -0.6232   13.0876    0.0495 H   0  0  0  0  0  0  0  0  0  0  0  0
   -1.2538   13.9391   -1.4010 H   0  0  0  0  0  0  0  0  0  0  0  0
   -1.1136   12.1483   -1.4010 H   0  0  0  0  0  0  0  0  0  0  0  0
  1  2  1  0
  2  3  1  0
  3  4  1  0
  4  5  1  0
  5  6  1  0
  6  7  1  0
  7  8  1  0
  7  9  1  0
  2 10  1  0
 10 11  1  0
 11 12  1  0
 12 13  1  0
 13 14  1  6
 13 15  1  0
 15 16  1  0
 16 17  1  0
 17 18  2  0
 18 19  1  0
 19 20  1  0
 20 21  1  0
 21 22  1  0
 22 23  1  0
 22 24  1  0
 24 25  1  0
 24 26  1  0
 19 27  1  0
 27 28  1  1
 27 29  1  0
 29 30  1  0
 30 31  1  0
 31 32  1  1
  7  5  1  0
 31 10  1  0
 31 13  1  0
 27 15  1  0
 24 18  1  0
  1 33  1  0
  1 34  1  0
  1 35  1  0
  2 36  1  6
  3 37  1  0
  3 38  1  0
  4 39  1  0
  4 40  1  0
  5 41  1  6
  8 42  1  0
  8 43  1  0
  8 44  1  0
  9 45  1  0
  9 46  1  0
  9 47  1  0
 10 48  1  6
 11 49  1  0
 11 50  1  0
 12 51  1  0
 12 52  1  0
 14 53  1  0
 14 54  1  0
 14 55  1  0
 15 56  1  1
 16 57  1  0
 16 58  1  0
 17 59  1  0
 19 60  1  6
 20 61  1  0
 20 62  1  0
 21 63  1  0
 21 64  1  0
 22 65  1  6
 23 66  1  0
 25 67  1  0
 25 68  1  0
 25 69  1  0
 26 70  1  0
 26 71  1  0
 26 72  1  0
 28 73  1  0
 28 74  1  0
 28 75  1  0
 29 76  1  0
 29 77  1  0
 30 78  1  0
 30 79  1  0
 32 80  1  0
 32 81  1  0
 32 82  1  0
M  END
>  <meeko>  (12) 
{"is_sidechain": [false], "intermolecular_energy": 2.731, "internal_energy": -0.839}

$$$$
EPH_relaxed_0001_pdb2pqr_Repair_329_r2_0001_out
     RDKit          3D

 82 86  0  0  0  0  0  0  0  0999 V2000
    2.4210   10.5390   -4.2370 C   0  0  0  0  0  0  0  0  0  0  0  0
    1.2770   10.6820   -3.2300 C   0  0  2  0  0  0  0  0  0  0  0  0
    0.0160    9.9110   -3.6710 C   0  0  0  0  0  0  0  0  0  0  0  0
   -0.5350    8.9680   -2.5980 C   0  0  0  0  0  0  0  0  0  0  0  0
    0.0360    9.2710   -1.2460 C   0  0  2  0  0  0  0  0  0  0  0  0
   -0.3470    8.3520   -0.2150 O   0  0  0  0  0  0  0  0  0  0  0  0
   -0.8060    9.7050   -0.0610 C   0  0  0  0  0  0  0  0  0  0  0  0
   -2.2900    9.8610   -0.1730 C   0  0  0  0  0  0  0  0  0  0  0  0
   -0.1390   10.4440    1.0570 C   0  0  0  0  0  0  0  0  0  0  0  0
    0.9430   12.1550   -3.0280 C   0  0  1  0  0  0  0  0  0  0  0  0
   -0.5160   12.3770   -2.5460 C   0  0  0  0  0  0  0  0  0  0  0  0
   -0.4890   13.5940   -1.5860 C   0  0  0  0  0  0  0  0  0  0  0  0
    0.9030   14.2320   -1.8040 C   0  0  1  0  0  0  0  0  0  0  0  0
    0.7510   15.0950   -3.0960 C   0  0  0  0  0  0  0  0  0  0  0  0
    1.4720   15.0710   -0.6140 C   0  0  2  0  0  0  0  0  0  0  0  0
    0.6430   16.3100   -0.2330 C   0  0  0  0  0  0  0  0  0  0  0  0
    1.0230   17.5710   -0.9360 C   0  0  0  0  0  0  0  0  0  0  0  0
    2.1650   17.7730   -1.6200 C   0  0  0  0  0  0  0  0  0  0  0  0
    3.2610   16.7010   -1.6540 C   0  0  1  0  0  0  0  0  0  0  0  0
    4.6390   17.3610   -1.3860 C   0  0  0  0  0  0  0  0  0  0  0  0
    4.9270   18.5210   -2.3340 C   0  0  0  0  0  0  0  0  0  0  0  0
    3.8450   19.5930   -2.2290 C   0  0  2  0  0  0  0  0  0  0  0  0
    3.9170   20.1940   -0.9320 O   0  0  0  0  0  0  0  0  0  0  0  0
    2.4120   19.0430   -2.4710 C   0  0  0  0  0  0  0  0  0  0  0  0
    2.2440   18.6680   -3.9640 C   0  0  0  0  0  0  0  0  0  0  0  0
    1.4060   20.1930   -2.1970 C   0  0  0  0  0  0  0  0  0  0  0  0
    3.0100   15.4220   -0.7450 C   0  0  1  0  0  0  0  0  0  0  0  0
    3.5310   15.6860    0.7010 C   0  0  0  0  0  0  0  0  0  0  0  0
    3.8520   14.2170   -1.3080 C   0  0  0  0  0  0  0  0  0  0  0  0
    3.1880   13.3530   -2.3980 C   0  0  0  0  0  0  0  0  0  0  0  0
    1.7750   12.9360   -1.9810 C   0  0  2  0  0  0  0  0  0  0  0  0
    1.8980   12.0480   -0.6960 C   0  0  0  0  0  0  0  0  0  0  0  0
    3.3720   10.4201   -3.6971 H   0  0  0  0  0  0  0  0  0  0  0  0
    2.2451    9.6558   -4.8688 H   0  0  0  0  0  0  0  0  0  0  0  0
    2.4679   11.4383   -4.8688 H   0  0  0  0  0  0  0  0  0  0  0  0
    1.6161   10.2445   -2.2794 H   0  0  0  0  0  0  0  0  0  0  0  0
   -0.7660   10.6412   -3.9265 H   0  0  0  0  0  0  0  0  0  0  0  0
    0.3043    9.2873   -4.5300 H   0  0  0  0  0  0  0  0  0  0  0  0
   -1.6287    9.0771   -2.5554 H   0  0  0  0  0  0  0  0  0  0  0  0
   -0.2510    7.9399   -2.8671 H   0  0  0  0  0  0  0  0  0  0  0  0
    0.9458    9.6924   -1.6984 H   0  0  0  0  0  0  0  0  0  0  0  0
   -2.7308    9.9073    0.8337 H   0  0  0  0  0  0  0  0  0  0  0  0
   -2.5211   10.7884   -0.7175 H   0  0  0  0  0  0  0  0  0  0  0  0
   -2.7089    9.0019   -0.7175 H   0  0  0  0  0  0  0  0  0  0  0  0
   -0.4946   10.0500    2.0205 H   0  0  0  0  0  0  0  0  0  0  0  0
    0.9506   10.3107    0.9860 H   0  0  0  0  0  0  0  0  0  0  0  0
   -0.3829   11.5143    0.9860 H   0  0  0  0  0  0  0  0  0  0  0  0
    1.1599   12.5327   -4.0381 H   0  0  0  0  0  0  0  0  0  0  0  0
   -1.1710   12.5862   -3.4046 H   0  0  0  0  0  0  0  0  0  0  0  0
   -0.9051   11.4819   -2.0386 H   0  0  0  0  0  0  0  0  0  0  0  0
   -1.2871   14.3070   -1.8403 H   0  0  0  0  0  0  0  0  0  0  0  0
   -0.6549   13.3027   -0.5383 H   0  0  0  0  0  0  0  0  0  0  0  0
    0.5664   16.1430   -2.8173 H   0  0  0  0  0  0  0  0  0  0  0  0
    1.6743   15.0308   -3.6905 H   0  0  0  0  0  0  0  0  0  0  0  0
   -0.0948   14.7193   -3.6905 H   0  0  0  0  0  0  0  0  0  0  0  0
    1.3743   14.3752    0.2324 H   0  0  0  0  0  0  0  0  0  0  0  0
   -0.4116   16.0973   -0.4623 H   0  0  0  0  0  0  0  0  0  0  0  0
    0.8337   16.4875    0.8357 H   0  0  0  0  0  0  0  0  0  0  0  0
    0.3089   18.4065   -0.8914 H   0  0  0  0  0  0  0  0  0  0  0  0
    3.2403   16.2779   -2.6692 H   0  0  0  0  0  0  0  0  0  0  0  0
    4.6543   17.7380   -0.3528 H   0  0  0  0  0  0  0  0  0  0  0  0
    5.4126   16.5964   -1.5497 H   0  0  0  0  0  0  0  0  0  0  0  0
    5.8997   18.9647   -2.0749 H   0  0  0  0  0  0  0  0  0  0  0  0
    4.9418   18.1368   -3.3646 H   0  0  0  0  0  0  0  0  0  0  0  0
    4.0346   20.3323   -3.0211 H   0  0  0  0  0  0  0  0  0  0  0  0
    4.6190   19.7400   -0.4360 H   0  0  0  0  0  0  0  0  0  0  0  0
    1.7954   17.6667   -4.0423 H   0  0  0  0  0  0  0  0  0  0  0  0
    1.5890   19.4027   -4.4551 H   0  0  0  0  0  0  0  0  0  0  0  0
    3.2283   18.6683   -4.4551 H   0  0  0  0  0  0  0  0  0  0  0  0
    1.2889   20.3269   -1.1115 H   0  0  0  0  0  0  0  0  0  0  0  0
    1.7841   21.1249   -2.6427 H   0  0  0  0  0  0  0  0  0  0  0  0
    0.4321   19.9422   -2.6427 H   0  0  0  0  0  0  0  0  0  0  0  0
    2.7957   15.3134    1.4294 H   0  0  0  0  0  0  0  0  0  0  0  0
    4.4883   15.1642    0.8468 H   0  0  0  0  0  0  0  0  0  0  0  0
    3.6764   16.7666    0.8468 H   0  0  0  0  0  0  0  0  0  0  0  0
    4.7808   14.6286   -1.7298 H   0  0  0  0  0  0  0  0  0  0  0  0
    3.9937   13.5408   -0.4521 H   0  0  0  0  0  0  0  0  0  0  0  0
    3.1316   13.9320   -3.3316 H   0  0  0  0  0  0  0  0  0  0  0  0
    3.7930   12.4459   -2.5437 H   0  0  0  0  0  0  0  0  0  0  0  0
    1.8101   12.6827    0.1981 H   0  0  0  0  0  0  0  0  0  0  0  0
    1.0955   11.2957   -0.6920 H   0  0  0  0  0  0  0  0  0  0  0  0
    2.8748   11.5422   -0.6920 H   0  0  0  0  0  0  0  0  0  0  0  0
  1  2  1  0
  2  3  1  0
  3  4  1  0
  4  5  1  0
  5  6  1  0
  6  7  1  0
  7  8  1  0
  7  9  1  0
  2 10  1  0
 10 11  1  0
 11 12  1  0
 12 13  1  0
 13 14  1  6
 13 15  1  0
 15 16  1  0
 16 17  1  0
 17 18  2  0
 18 19  1  0
 19 20  1  0
 20 21  1  0
 21 22  1  0
 22 23  1  0
 22 24  1  0
 24 25  1  0
 24 26  1  0
 19 27  1  0
 27 28  1  1
 27 29  1  0
 29 30  1  0
 30 31  1  0
 31 32  1  1
  7  5  1  0
 31 10  1  0
 31 13  1  0
 27 15  1  0
 24 18  1  0
  1 33  1  0
  1 34  1  0
  1 35  1  0
  2 36  1  1
  3 37  1  0
  3 38  1  0
  4 39  1  0
  4 40  1  0
  5 41  1  6
  8 42  1  0
  8 43  1  0
  8 44  1  0
  9 45  1  0
  9 46  1  0
  9 47  1  0
 10 48  1  6
 11 49  1  0
 11 50  1  0
 12 51  1  0
 12 52  1  0
 14 53  1  0
 14 54  1  0
 14 55  1  0
 15 56  1  1
 16 57  1  0
 16 58  1  0
 17 59  1  0
 19 60  1  6
 20 61  1  0
 20 62  1  0
 21 63  1  0
 21 64  1  0
 22 65  1  6
 23 66  1  0
 25 67  1  0
 25 68  1  0
 25 69  1  0
 26 70  1  0
 26 71  1  0
 26 72  1  0
 28 73  1  0
 28 74  1  0
 28 75  1  0
 29 76  1  0
 29 77  1  0
 30 78  1  0
 30 79  1  0
 32 80  1  0
 32 81  1  0
 32 82  1  0
M  END
>  <meeko>  (13) 
{"is_sidechain": [false], "intermolecular_energy": 2.731, "internal_energy": -0.839}

$$$$
EPH_relaxed_0001_pdb2pqr_Repair_329_r2_0001_out
     RDKit          3D

 82 86  0  0  0  0  0  0  0  0999 V2000
    0.3350    9.4660   -2.3490 C   0  0  0  0  0  0  0  0  0  0  0  0
    0.9320   10.4500   -1.3400 C   0  0  2  0  0  0  0  0  0  0  0  0
   -0.0600   10.8000   -0.2130 C   0  0  0  0  0  0  0  0  0  0  0  0
    0.5280   10.6510    1.1930 C   0  0  0  0  0  0  0  0  0  0  0  0
   -0.2130   11.4840    2.1950 C   0  0  2  0  0  0  0  0  0  0  0  0
   -0.0040   12.8970    2.0690 O   0  0  0  0  0  0  0  0  0  0  0  0
    0.4730   12.2910    3.2820 C   0  0  0  0  0  0  0  0  0  0  0  0
    1.9620   12.3030    3.4230 C   0  0  0  0  0  0  0  0  0  0  0  0
   -0.3160   12.6710    4.4960 C   0  0  0  0  0  0  0  0  0  0  0  0
    1.3770   11.7210   -2.0550 C   0  0  1  0  0  0  0  0  0  0  0  0
    0.8180   11.8210   -3.4990 C   0  0  0  0  0  0  0  0  0  0  0  0
    0.5420   13.3230   -3.7680 C   0  0  0  0  0  0  0  0  0  0  0  0
    1.2540   14.0640   -2.6120 C   0  0  1  0  0  0  0  0  0  0  0  0
    2.7530   14.1320   -3.0430 C   0  0  0  0  0  0  0  0  0  0  0  0
    0.6930   15.4770   -2.2480 C   0  0  2  0  0  0  0  0  0  0  0  0
    0.7930   16.5270   -3.3680 C   0  0  0  0  0  0  0  0  0  0  0  0
    2.0480   17.3360   -3.3740 C   0  0  0  0  0  0  0  0  0  0  0  0
    2.9260   17.4260   -2.3570 C   0  0  0  0  0  0  0  0  0  0  0  0
    2.6440   16.7440   -1.0110 C   0  0  1  0  0  0  0  0  0  0  0  0
    2.9390   17.7370    0.1440 C   0  0  0  0  0  0  0  0  0  0  0  0
    4.3470   18.3210    0.0680 C   0  0  0  0  0  0  0  0  0  0  0  0
    4.5690   19.0400   -1.2600 C   0  0  2  0  0  0  0  0  0  0  0  0
    3.7240   20.1940   -1.3050 O   0  0  0  0  0  0  0  0  0  0  0  0
    4.2920   18.1410   -2.4970 C   0  0  0  0  0  0  0  0  0  0  0  0
    5.3960   17.0610   -2.6140 C   0  0  0  0  0  0  0  0  0  0  0  0
    4.4140   19.0260   -3.7670 C   0  0  0  0  0  0  0  0  0  0  0  0
    1.2220   16.0490   -0.8700 C   0  0  1  0  0  0  0  0  0  0  0  0
    0.1670   17.0900   -0.3860 C   0  0  0  0  0  0  0  0  0  0  0  0
    1.3000   14.9420    0.2470 C   0  0  0  0  0  0  0  0  0  0  0  0
    1.7460   13.5360   -0.1980 C   0  0  0  0  0  0  0  0  0  0  0  0
    0.9570   13.0740   -1.4280 C   0  0  2  0  0  0  0  0  0  0  0  0
   -0.5520   12.9750   -1.0190 C   0  0  0  0  0  0  0  0  0  0  0  0
   -0.1626    8.6458   -1.8109 H   0  0  0  0  0  0  0  0  0  0  0  0
   -0.3986    9.9884   -2.9806 H   0  0  0  0  0  0  0  0  0  0  0  0
    1.1372    9.0567   -2.9806 H   0  0  0  0  0  0  0  0  0  0  0  0
    1.8005    9.9608   -0.8749 H   0  0  0  0  0  0  0  0  0  0  0  0
   -0.3824   11.8433   -0.3458 H   0  0  0  0  0  0  0  0  0  0  0  0
   -0.8962   10.0893   -0.2887 H   0  0  0  0  0  0  0  0  0  0  0  0
    0.4688    9.5947    1.4941 H   0  0  0  0  0  0  0  0  0  0  0  0
    1.5724   10.9953    1.1662 H   0  0  0  0  0  0  0  0  0  0  0  0
   -1.0383   10.7574    2.2253 H   0  0  0  0  0  0  0  0  0  0  0  0
    2.2293   12.3052    4.4900 H   0  0  0  0  0  0  0  0  0  0  0  0
    2.3831   11.4082    2.9413 H   0  0  0  0  0  0  0  0  0  0  0  0
    2.3687   13.2045    2.9413 H   0  0  0  0  0  0  0  0  0  0  0  0
    0.2485   12.3991    5.4001 H   0  0  0  0  0  0  0  0  0  0  0  0
   -0.4984   13.7557    4.4900 H   0  0  0  0  0  0  0  0  0  0  0  0
   -1.2779   12.1374    4.4900 H   0  0  0  0  0  0  0  0  0  0  0  0
    2.4680   11.5979   -1.9877 H   0  0  0  0  0  0  0  0  0  0  0  0
    1.5559   11.4365   -4.2185 H   0  0  0  0  0  0  0  0  0  0  0  0
   -0.0995   11.2245   -3.6099 H   0  0  0  0  0  0  0  0  0  0  0  0
    0.9596   13.6266   -4.7393 H   0  0  0  0  0  0  0  0  0  0  0  0
   -0.5339   13.5487   -3.8080 H   0  0  0  0  0  0  0  0  0  0  0  0
    3.3911   14.1609   -2.1474 H   0  0  0  0  0  0  0  0  0  0  0  0
    3.0028   13.2443   -3.6426 H   0  0  0  0  0  0  0  0  0  0  0  0
    2.9213   15.0387   -3.6426 H   0  0  0  0  0  0  0  0  0  0  0  0
   -0.3814   15.2786   -2.1200 H   0  0  0  0  0  0  0  0  0  0  0  0
    0.7219   16.0029   -4.3325 H   0  0  0  0  0  0  0  0  0  0  0  0
   -0.0269   17.2388   -3.1917 H   0  0  0  0  0  0  0  0  0  0  0  0
    2.2745   17.9069   -4.2866 H   0  0  0  0  0  0  0  0  0  0  0  0
    3.3330   15.8885   -0.9533 H   0  0  0  0  0  0  0  0  0  0  0  0
    2.2122   18.5612    0.0948 H   0  0  0  0  0  0  0  0  0  0  0  0
    2.8581   17.1822    1.0904 H   0  0  0  0  0  0  0  0  0  0  0  0
    4.4848   19.0365    0.8921 H   0  0  0  0  0  0  0  0  0  0  0  0
    5.0728   17.4983    0.1472 H   0  0  0  0  0  0  0  0  0  0  0  0
    5.6310   19.3224   -1.3095 H   0  0  0  0  0  0  0  0  0  0  0  0
    4.0770   20.8420   -0.6720 H   0  0  0  0  0  0  0  0  0  0  0  0
    5.7134   16.7505   -1.6076 H   0  0  0  0  0  0  0  0  0  0  0  0
    5.0013   16.1907   -3.1588 H   0  0  0  0  0  0  0  0  0  0  0  0
    6.2574   17.4747   -3.1588 H   0  0  0  0  0  0  0  0  0  0  0  0
    4.5586   20.0753   -3.4702 H   0  0  0  0  0  0  0  0  0  0  0  0
    5.2746   18.6922   -4.3652 H   0  0  0  0  0  0  0  0  0  0  0  0
    3.4952   18.9375   -4.3652 H   0  0  0  0  0  0  0  0  0  0  0  0
    0.1481   17.1087    0.7137 H   0  0  0  0  0  0  0  0  0  0  0  0
    0.4351   18.0872   -0.7651 H   0  0  0  0  0  0  0  0  0  0  0  0
   -0.8265   16.8086   -0.7651 H   0  0  0  0  0  0  0  0  0  0  0  0
    2.0104   15.2900    1.0113 H   0  0  0  0  0  0  0  0  0  0  0  0
    0.2661   14.8172    0.6011 H   0  0  0  0  0  0  0  0  0  0  0  0
    2.8174   13.5600   -0.4459 H   0  0  0  0  0  0  0  0  0  0  0  0
    1.5570   12.8311    0.6251 H   0  0  0  0  0  0  0  0  0  0  0  0
   -0.6350   12.9696    0.0779 H   0  0  0  0  0  0  0  0  0  0  0  0
   -1.0991   13.8392   -1.4238 H   0  0  0  0  0  0  0  0  0  0  0  0
   -0.9815   12.0467   -1.4238 H   0  0  0  0  0  0  0  0  0  0  0  0
  1  2  1  0
  2  3  1  0
  3  4  1  0
  4  5  1  0
  5  6  1  0
  6  7  1  0
  7  8  1  0
  7  9  1  0
  2 10  1  0
 10 11  1  0
 11 12  1  0
 12 13  1  0
 13 14  1  6
 13 15  1  0
 15 16  1  0
 16 17  1  0
 17 18  2  0
 18 19  1  0
 19 20  1  0
 20 21  1  0
 21 22  1  0
 22 23  1  0
 22 24  1  0
 24 25  1  0
 24 26  1  0
 19 27  1  0
 27 28  1  1
 27 29  1  0
 29 30  1  0
 30 31  1  0
 31 32  1  1
  7  5  1  0
 31 10  1  0
 31 13  1  0
 27 15  1  0
 24 18  1  0
  1 33  1  0
  1 34  1  0
  1 35  1  0
  2 36  1  1
  3 37  1  0
  3 38  1  0
  4 39  1  0
  4 40  1  0
  5 41  1  1
  8 42  1  0
  8 43  1  0
  8 44  1  0
  9 45  1  0
  9 46  1  0
  9 47  1  0
 10 48  1  6
 11 49  1  0
 11 50  1  0
 12 51  1  0
 12 52  1  0
 14 53  1  0
 14 54  1  0
 14 55  1  0
 15 56  1  1
 16 57  1  0
 16 58  1  0
 17 59  1  0
 19 60  1  1
 20 61  1  0
 20 62  1  0
 21 63  1  0
 21 64  1  0
 22 65  1  1
 23 66  1  0
 25 67  1  0
 25 68  1  0
 25 69  1  0
 26 70  1  0
 26 71  1  0
 26 72  1  0
 28 73  1  0
 28 74  1  0
 28 75  1  0
 29 76  1  0
 29 77  1  0
 30 78  1  0
 30 79  1  0
 32 80  1  0
 32 81  1  0
 32 82  1  0
M  END
>  <meeko>  (14) 
{"is_sidechain": [false], "intermolecular_energy": 2.731, "internal_energy": -0.839}

$$$$
EPH_relaxed_0001_pdb2pqr_Repair_329_r2_0001_out
     RDKit          3D

 82 86  0  0  0  0  0  0  0  0999 V2000
    0.0430    9.1510   -2.4750 C   0  0  0  0  0  0  0  0  0  0  0  0
    1.0300   10.2330   -2.9230 C   0  0  2  0  0  0  0  0  0  0  0  0
    2.4130   10.0670   -2.2630 C   0  0  0  0  0  0  0  0  0  0  0  0
    3.5660    9.9660   -3.2670 C   0  0  0  0  0  0  0  0  0  0  0  0
    3.8870   11.2960   -3.8780 C   0  0  2  0  0  0  0  0  0  0  0  0
    4.0910   11.2690   -5.2970 O   0  0  0  0  0  0  0  0  0  0  0  0
    5.2310   11.6280   -4.4990 C   0  0  0  0  0  0  0  0  0  0  0  0
    6.3420   10.6260   -4.5380 C   0  0  0  0  0  0  0  0  0  0  0  0
    5.6250   13.0670   -4.6250 C   0  0  0  0  0  0  0  0  0  0  0  0
    0.4650   11.6140   -2.6100 C   0  0  1  0  0  0  0  0  0  0  0  0
   -0.7930   11.5530   -1.7030 C   0  0  0  0  0  0  0  0  0  0  0  0
   -0.7400   12.7970   -0.7800 C   0  0  0  0  0  0  0  0  0  0  0  0
    0.3520   13.6990   -1.4030 C   0  0  1  0  0  0  0  0  0  0  0  0
   -0.3620   14.4420   -2.5750 C   0  0  0  0  0  0  0  0  0  0  0  0
    1.0600   14.6990   -0.4320 C   0  0  2  0  0  0  0  0  0  0  0  0
    0.1390   15.7570    0.2000 C   0  0  0  0  0  0  0  0  0  0  0  0
    0.0100   17.0310   -0.5680 C   0  0  0  0  0  0  0  0  0  0  0  0
    0.8230   17.4280   -1.5640 C   0  0  0  0  0  0  0  0  0  0  0  0
    2.0610   16.6070   -1.9460 C   0  0  1  0  0  0  0  0  0  0  0  0
    3.2820   17.5530   -2.1010 C   0  0  0  0  0  0  0  0  0  0  0  0
    3.0160   18.6960   -3.0760 C   0  0  0  0  0  0  0  0  0  0  0  0
    1.8130   19.5230   -2.6310 C   0  0  2  0  0  0  0  0  0  0  0  0
    2.1410   20.1940   -1.4100 O   0  0  0  0  0  0  0  0  0  0  0  0
    0.5260   18.6760   -2.4330 C   0  0  0  0  0  0  0  0  0  0  0  0
    0.0010   18.1960   -3.8090 C   0  0  0  0  0  0  0  0  0  0  0  0
   -0.5720   19.6050   -1.8490 C   0  0  0  0  0  0  0  0  0  0  0  0
    2.3740   15.3540   -1.0210 C   0  0  1  0  0  0  0  0  0  0  0  0
    3.2370   15.7960    0.2010 C   0  0  0  0  0  0  0  0  0  0  0  0
    3.2460   14.3220   -1.8300 C   0  0  0  0  0  0  0  0  0  0  0  0
    2.4860   13.2840   -2.6770 C   0  0  0  0  0  0  0  0  0  0  0  0
    1.3860   12.6040   -1.8550 C   0  0  2  0  0  0  0  0  0  0  0  0
    2.0770   11.8300   -0.6800 C   0  0  0  0  0  0  0  0  0  0  0  0
    0.0112    9.1161   -1.3760 H   0  0  0  0  0  0  0  0  0  0  0  0
   -0.9591    9.3852   -2.8636 H   0  0  0  0  0  0  0  0  0  0  0  0
    0.3680    8.1746   -2.8636 H   0  0  0  0  0  0  0  0  0  0  0  0
    1.1681   10.1255   -4.0090 H   0  0  0  0  0  0  0  0  0  0  0  0
    2.5939   10.9354   -1.6125 H   0  0  0  0  0  0  0  0  0  0  0  0
    2.3905    9.1206   -1.7027 H   0  0  0  0  0  0  0  0  0  0  0  0
    4.4588    9.5875   -2.7477 H   0  0  0  0  0  0  0  0  0  0  0  0
    3.2598    9.2832   -4.0732 H   0  0  0  0  0  0  0  0  0  0  0  0
    3.2718   11.8158   -3.1288 H   0  0  0  0  0  0  0  0  0  0  0  0
    6.6343   10.3624   -3.5108 H   0  0  0  0  0  0  0  0  0  0  0  0
    6.0026    9.7226   -5.0659 H   0  0  0  0  0  0  0  0  0  0  0  0
    7.2057   11.0565   -5.0659 H   0  0  0  0  0  0  0  0  0  0  0  0
    5.7445   13.5036   -3.6224 H   0  0  0  0  0  0  0  0  0  0  0  0
    6.5762   13.1401   -5.1726 H   0  0  0  0  0  0  0  0  0  0  0  0
    4.8437   13.6145   -5.1726 H   0  0  0  0  0  0  0  0  0  0  0  0
    0.2823   11.9750   -3.6329 H   0  0  0  0  0  0  0  0  0  0  0  0
   -1.7048   11.5762   -2.3179 H   0  0  0  0  0  0  0  0  0  0  0  0
   -0.8101   10.6244   -1.1135 H   0  0  0  0  0  0  0  0  0  0  0  0
   -1.7109   13.3139   -0.7689 H   0  0  0  0  0  0  0  0  0  0  0  0
   -0.5169   12.5325    0.2642 H   0  0  0  0  0  0  0  0  0  0  0  0
   -1.0694   15.1782   -2.1656 H   0  0  0  0  0  0  0  0  0  0  0  0
    0.3877   14.9581   -3.1928 H   0  0  0  0  0  0  0  0  0  0  0  0
   -0.9075   13.7135   -3.1928 H   0  0  0  0  0  0  0  0  0  0  0  0
    1.3732   14.0438    0.3942 H   0  0  0  0  0  0  0  0  0  0  0  0
   -0.8644   15.3177    0.3006 H   0  0  0  0  0  0  0  0  0  0  0  0
    0.6003   16.0267    1.1615 H   0  0  0  0  0  0  0  0  0  0  0  0
   -0.8191   17.7011   -0.2968 H   0  0  0  0  0  0  0  0  0  0  0  0
    1.8278   16.1367   -2.9127 H   0  0  0  0  0  0  0  0  0  0  0  0
    3.5255   17.9788   -1.1164 H   0  0  0  0  0  0  0  0  0  0  0  0
    4.1161   16.9588   -2.5024 H   0  0  0  0  0  0  0  0  0  0  0  0
    3.9028   19.3453   -3.1202 H   0  0  0  0  0  0  0  0  0  0  0  0
    2.8020   18.2696   -4.0672 H   0  0  0  0  0  0  0  0  0  0  0  0
    1.5931   20.2429   -3.4331 H   0  0  0  0  0  0  0  0  0  0  0  0
    1.3220   20.2850   -0.8950 H   0  0  0  0  0  0  0  0  0  0  0  0
   -0.8032   17.4607   -3.6584 H   0  0  0  0  0  0  0  0  0  0  0  0
   -0.3894   19.0561   -4.3729 H   0  0  0  0  0  0  0  0  0  0  0  0
    0.8227   17.7303   -4.3729 H   0  0  0  0  0  0  0  0  0  0  0  0
   -0.5335   19.5724   -0.7502 H   0  0  0  0  0  0  0  0  0  0  0  0
   -0.4002   20.6361   -2.1915 H   0  0  0  0  0  0  0  0  0  0  0  0
   -1.5604   19.2648   -2.1915 H   0  0  0  0  0  0  0  0  0  0  0  0
    2.7168   15.5295    1.1328 H   0  0  0  0  0  0  0  0  0  0  0  0
    4.2108   15.2857    0.1659 H   0  0  0  0  0  0  0  0  0  0  0  0
    3.3920   16.8845    0.1659 H   0  0  0  0  0  0  0  0  0  0  0  0
    3.8949   14.8947   -2.5089 H   0  0  0  0  0  0  0  0  0  0  0  0
    3.7797   13.7359   -1.0673 H   0  0  0  0  0  0  0  0  0  0  0  0
    2.0293   13.7894   -3.5407 H   0  0  0  0  0  0  0  0  0  0  0  0
    3.1984   12.5159   -3.0124 H   0  0  0  0  0  0  0  0  0  0  0  0
    1.7209   12.2289    0.2813 H   0  0  0  0  0  0  0  0  0  0  0  0
    1.8275   10.7609   -0.7484 H   0  0  0  0  0  0  0  0  0  0  0  0
    3.1675   11.9571   -0.7484 H   0  0  0  0  0  0  0  0  0  0  0  0
  1  2  1  0
  2  3  1  0
  3  4  1  0
  4  5  1  0
  5  6  1  0
  6  7  1  0
  7  8  1  0
  7  9  1  0
  2 10  1  0
 10 11  1  0
 11 12  1  0
 12 13  1  0
 13 14  1  6
 13 15  1  0
 15 16  1  0
 16 17  1  0
 17 18  2  0
 18 19  1  0
 19 20  1  0
 20 21  1  0
 21 22  1  0
 22 23  1  0
 22 24  1  0
 24 25  1  0
 24 26  1  0
 19 27  1  0
 27 28  1  1
 27 29  1  0
 29 30  1  0
 30 31  1  0
 31 32  1  1
  7  5  1  0
 31 10  1  0
 31 13  1  0
 27 15  1  0
 24 18  1  0
  1 33  1  0
  1 34  1  0
  1 35  1  0
  2 36  1  6
  3 37  1  0
  3 38  1  0
  4 39  1  0
  4 40  1  0
  5 41  1  6
  8 42  1  0
  8 43  1  0
  8 44  1  0
  9 45  1  0
  9 46  1  0
  9 47  1  0
 10 48  1  6
 11 49  1  0
 11 50  1  0
 12 51  1  0
 12 52  1  0
 14 53  1  0
 14 54  1  0
 14 55  1  0
 15 56  1  1
 16 57  1  0
 16 58  1  0
 17 59  1  0
 19 60  1  6
 20 61  1  0
 20 62  1  0
 21 63  1  0
 21 64  1  0
 22 65  1  6
 23 66  1  0
 25 67  1  0
 25 68  1  0
 25 69  1  0
 26 70  1  0
 26 71  1  0
 26 72  1  0
 28 73  1  0
 28 74  1  0
 28 75  1  0
 29 76  1  0
 29 77  1  0
 30 78  1  0
 30 79  1  0
 32 80  1  0
 32 81  1  0
 32 82  1  0
M  END
>  <meeko>  (15) 
{"is_sidechain": [false], "intermolecular_energy": 2.731, "internal_energy": -0.839}

$$$$
EPH_relaxed_0001_pdb2pqr_Repair_329_r2_0001_out
     RDKit          3D

 82 86  0  0  0  0  0  0  0  0999 V2000
    4.5990   16.2970   -0.8990 C   0  0  0  0  0  0  0  0  0  0  0  0
    3.3240   17.0900   -0.5990 C   0  0  2  0  0  0  0  0  0  0  0  0
    3.4500   17.9260    0.6900 C   0  0  0  0  0  0  0  0  0  0  0  0
    4.4900   19.0460    0.5990 C   0  0  0  0  0  0  0  0  0  0  0  0
    5.3080   18.9420   -0.6520 C   0  0  2  0  0  0  0  0  0  0  0  0
    5.7970   20.1930   -1.1540 O   0  0  0  0  0  0  0  0  0  0  0  0
    4.8620   19.4950   -1.9930 C   0  0  0  0  0  0  0  0  0  0  0  0
    3.5480   20.1930   -2.1500 C   0  0  0  0  0  0  0  0  0  0  0  0
    5.4730   18.9320   -3.2380 C   0  0  0  0  0  0  0  0  0  0  0  0
    2.1360   16.1420   -0.4910 C   0  0  1  0  0  0  0  0  0  0  0  0
    0.7730   16.8780   -0.5920 C   0  0  0  0  0  0  0  0  0  0  0  0
   -0.1970   15.9240   -1.3350 C   0  0  0  0  0  0  0  0  0  0  0  0
    0.5280   14.5580   -1.3410 C   0  0  1  0  0  0  0  0  0  0  0  0
    0.2490   13.9490    0.0680 C   0  0  0  0  0  0  0  0  0  0  0  0
    0.1310   13.5700   -2.4860 C   0  0  2  0  0  0  0  0  0  0  0  0
   -1.3390   13.1150   -2.4750 C   0  0  0  0  0  0  0  0  0  0  0  0
   -1.6170   11.8760   -1.6910 C   0  0  0  0  0  0  0  0  0  0  0  0
   -0.6910   10.9990   -1.2600 C   0  0  0  0  0  0  0  0  0  0  0  0
    0.7860   11.1630   -1.6390 C   0  0  1  0  0  0  0  0  0  0  0  0
    1.3560    9.7980   -2.1070 C   0  0  0  0  0  0  0  0  0  0  0  0
    1.1360    8.6900   -1.0820 C   0  0  0  0  0  0  0  0  0  0  0  0
   -0.3490    8.5180   -0.7740 C   0  0  2  0  0  0  0  0  0  0  0  0
   -1.0080    8.0260   -1.9450 O   0  0  0  0  0  0  0  0  0  0  0  0
   -1.0330    9.8310   -0.3020 C   0  0  0  0  0  0  0  0  0  0  0  0
   -0.5290   10.2010    1.1150 C   0  0  0  0  0  0  0  0  0  0  0  0
   -2.5550    9.5530   -0.1620 C   0  0  0  0  0  0  0  0  0  0  0  0
    1.1150   12.3420   -2.6530 C   0  0  1  0  0  0  0  0  0  0  0  0
    0.9560   11.8400   -4.1210 C   0  0  0  0  0  0  0  0  0  0  0  0
    2.6240   12.7570   -2.4870 C   0  0  0  0  0  0  0  0  0  0  0  0
    2.9380   13.8250   -1.4210 C   0  0  0  0  0  0  0  0  0  0  0  0
    2.0090   15.0350   -1.5670 C   0  0  2  0  0  0  0  0  0  0  0  0
    2.2840   15.6820   -2.9680 C   0  0  0  0  0  0  0  0  0  0  0  0
    5.0769   15.9998    0.0462 H   0  0  0  0  0  0  0  0  0  0  0  0
    4.3437   15.3981   -1.4793 H   0  0  0  0  0  0  0  0  0  0  0  0
    5.2924   16.9234   -1.4793 H   0  0  0  0  0  0  0  0  0  0  0  0
    3.1661   17.7905   -1.4323 H   0  0  0  0  0  0  0  0  0  0  0  0
    2.4711   18.3781    0.9076 H   0  0  0  0  0  0  0  0  0  0  0  0
    3.7830   17.2424    1.4848 H   0  0  0  0  0  0  0  0  0  0  0  0
    3.9710   20.0159    0.6061 H   0  0  0  0  0  0  0  0  0  0  0  0
    5.1678   18.9555    1.4606 H   0  0  0  0  0  0  0  0  0  0  0  0
    5.6854   17.9538   -0.3503 H   0  0  0  0  0  0  0  0  0  0  0  0
    3.1299   20.4151   -1.1571 H   0  0  0  0  0  0  0  0  0  0  0  0
    3.6954   21.1317   -2.7042 H   0  0  0  0  0  0  0  0  0  0  0  0
    2.8527   19.5454   -2.7042 H   0  0  0  0  0  0  0  0  0  0  0  0
    6.2571   18.2095   -2.9673 H   0  0  0  0  0  0  0  0  0  0  0  0
    4.6969   18.4259   -3.8308 H   0  0  0  0  0  0  0  0  0  0  0  0
    5.9141   19.7469   -3.8308 H   0  0  0  0  0  0  0  0  0  0  0  0
    2.3489   15.6914    0.4896 H   0  0  0  0  0  0  0  0  0  0  0  0
    0.3879   17.1016    0.4138 H   0  0  0  0  0  0  0  0  0  0  0  0
    0.8782   17.8316   -1.1301 H   0  0  0  0  0  0  0  0  0  0  0  0
   -1.1561   15.8523   -0.8011 H   0  0  0  0  0  0  0  0  0  0  0  0
   -0.4323   16.2760   -2.3503 H   0  0  0  0  0  0  0  0  0  0  0  0
    0.5735   14.6574    0.8444 H   0  0  0  0  0  0  0  0  0  0  0  0
   -0.8282   13.7542    0.1765 H   0  0  0  0  0  0  0  0  0  0  0  0
    0.8049   13.0060    0.1765 H   0  0  0  0  0  0  0  0  0  0  0  0
    0.2438   14.1937   -3.3850 H   0  0  0  0  0  0  0  0  0  0  0  0
   -1.9437   13.9294   -2.0494 H   0  0  0  0  0  0  0  0  0  0  0  0
   -1.5919   12.8777   -3.5189 H   0  0  0  0  0  0  0  0  0  0  0  0
   -2.6673   11.6612   -1.4444 H   0  0  0  0  0  0  0  0  0  0  0  0
    1.3005   11.4873   -0.7224 H   0  0  0  0  0  0  0  0  0  0  0  0
    0.8606    9.5125   -3.0467 H   0  0  0  0  0  0  0  0  0  0  0  0
    2.4411    9.9177   -2.2416 H   0  0  0  0  0  0  0  0  0  0  0  0
    1.5322    7.7453   -1.4826 H   0  0  0  0  0  0  0  0  0  0  0  0
    1.6577    8.9630   -0.1529 H   0  0  0  0  0  0  0  0  0  0  0  0
   -0.4329    7.8044    0.0589 H   0  0  0  0  0  0  0  0  0  0  0  0
   -1.8280    7.5880   -1.6600 H   0  0  0  0  0  0  0  0  0  0  0  0
   -1.1745    9.7271    1.8691 H   0  0  0  0  0  0  0  0  0  0  0  0
    0.5042    9.8454    1.2411 H   0  0  0  0  0  0  0  0  0  0  0  0
   -0.5588   11.2933    1.2411 H   0  0  0  0  0  0  0  0  0  0  0  0
   -2.8223    9.5042    0.9039 H   0  0  0  0  0  0  0  0  0  0  0  0
   -3.1216   10.3625   -0.6454 H   0  0  0  0  0  0  0  0  0  0  0  0
   -2.7988    8.5955   -0.6454 H   0  0  0  0  0  0  0  0  0  0  0  0
    0.6239   10.7914   -4.1160 H   0  0  0  0  0  0  0  0  0  0  0  0
    0.2098   12.4585   -4.6412 H   0  0  0  0  0  0  0  0  0  0  0  0
    1.9222   11.9161   -4.6412 H   0  0  0  0  0  0  0  0  0  0  0  0
    3.1916   11.8511   -2.2277 H   0  0  0  0  0  0  0  0  0  0  0  0
    2.9031   13.2172   -3.4463 H   0  0  0  0  0  0  0  0  0  0  0  0
    2.8031   13.3863   -0.4213 H   0  0  0  0  0  0  0  0  0  0  0  0
    3.9764   14.1615   -1.5567 H   0  0  0  0  0  0  0  0  0  0  0  0
    2.7109   16.6864   -2.8306 H   0  0  0  0  0  0  0  0  0  0  0  0
    2.9936   15.0555   -3.5283 H   0  0  0  0  0  0  0  0  0  0  0  0
    1.3405   15.7581   -3.5283 H   0  0  0  0  0  0  0  0  0  0  0  0
  1  2  1  0
  2  3  1  0
  3  4  1  0
  4  5  1  0
  5  6  1  0
  6  7  1  0
  7  8  1  0
  7  9  1  0
  2 10  1  0
 10 11  1  0
 11 12  1  0
 12 13  1  0
 13 14  1  1
 13 15  1  0
 15 16  1  0
 16 17  1  0
 17 18  2  0
 18 19  1  0
 19 20  1  0
 20 21  1  0
 21 22  1  0
 22 23  1  0
 22 24  1  0
 24 25  1  0
 24 26  1  0
 19 27  1  0
 27 28  1  6
 27 29  1  0
 29 30  1  0
 30 31  1  0
 31 32  1  6
  7  5  1  0
 31 10  1  0
 31 13  1  0
 27 15  1  0
 24 18  1  0
  1 33  1  0
  1 34  1  0
  1 35  1  0
  2 36  1  6
  3 37  1  0
  3 38  1  0
  4 39  1  0
  4 40  1  0
  5 41  1  6
  8 42  1  0
  8 43  1  0
  8 44  1  0
  9 45  1  0
  9 46  1  0
  9 47  1  0
 10 48  1  1
 11 49  1  0
 11 50  1  0
 12 51  1  0
 12 52  1  0
 14 53  1  0
 14 54  1  0
 14 55  1  0
 15 56  1  6
 16 57  1  0
 16 58  1  0
 17 59  1  0
 19 60  1  1
 20 61  1  0
 20 62  1  0
 21 63  1  0
 21 64  1  0
 22 65  1  1
 23 66  1  0
 25 67  1  0
 25 68  1  0
 25 69  1  0
 26 70  1  0
 26 71  1  0
 26 72  1  0
 28 73  1  0
 28 74  1  0
 28 75  1  0
 29 76  1  0
 29 77  1  0
 30 78  1  0
 30 79  1  0
 32 80  1  0
 32 81  1  0
 32 82  1  0
M  END
>  <meeko>  (16) 
{"is_sidechain": [false], "intermolecular_energy": 2.731, "internal_energy": -0.839}

$$$$
EPH_relaxed_0001_pdb2pqr_Repair_329_r2_0001_out
     RDKit          3D

 82 86  0  0  0  0  0  0  0  0999 V2000
    0.0990   10.2160   -3.3180 C   0  0  0  0  0  0  0  0  0  0  0  0
    1.1310   10.0960   -2.1930 C   0  0  2  0  0  0  0  0  0  0  0  0
    0.8600    8.8800   -1.2850 C   0  0  0  0  0  0  0  0  0  0  0  0
   -0.0080    9.2030   -0.0650 C   0  0  0  0  0  0  0  0  0  0  0  0
   -1.4130    8.7110   -0.2390 C   0  0  2  0  0  0  0  0  0  0  0  0
   -1.9160    8.7960   -1.5790 O   0  0  0  0  0  0  0  0  0  0  0  0
   -2.5770    9.6140   -0.6000 C   0  0  0  0  0  0  0  0  0  0  0  0
   -2.3890   11.0840   -0.8090 C   0  0  0  0  0  0  0  0  0  0  0  0
   -3.9650    9.1590   -0.2720 C   0  0  0  0  0  0  0  0  0  0  0  0
    1.1450   11.3730   -1.3620 C   0  0  1  0  0  0  0  0  0  0  0  0
    1.9460   11.2190   -0.0420 C   0  0  0  0  0  0  0  0  0  0  0  0
    2.6300   12.5830    0.2280 C   0  0  0  0  0  0  0  0  0  0  0  0
    1.9430   13.5650   -0.7500 C   0  0  1  0  0  0  0  0  0  0  0  0
    0.6040   13.9560   -0.0510 C   0  0  0  0  0  0  0  0  0  0  0  0
    2.7710   14.8270   -1.1570 C   0  0  2  0  0  0  0  0  0  0  0  0
    3.1270   15.7760    0.0000 C   0  0  0  0  0  0  0  0  0  0  0  0
    2.1350   16.8590    0.2650 C   0  0  0  0  0  0  0  0  0  0  0  0
    1.1500   17.2390   -0.5700 C   0  0  0  0  0  0  0  0  0  0  0  0
    1.0220   16.6220   -1.9690 C   0  0  1  0  0  0  0  0  0  0  0  0
    0.7960   17.7470   -3.0130 C   0  0  0  0  0  0  0  0  0  0  0  0
   -0.3870   18.6430   -2.6600 C   0  0  0  0  0  0  0  0  0  0  0  0
   -0.1960   19.2840   -1.2880 C   0  0  2  0  0  0  0  0  0  0  0  0
    0.9060   20.1940   -1.3550 O   0  0  0  0  0  0  0  0  0  0  0  0
    0.0500   18.2480   -0.1560 C   0  0  0  0  0  0  0  0  0  0  0  0
   -1.2540   17.4590    0.1200 C   0  0  0  0  0  0  0  0  0  0  0  0
    0.3680   19.0300    1.1470 C   0  0  0  0  0  0  0  0  0  0  0  0
    2.1800   15.6190   -2.3930 C   0  0  1  0  0  0  0  0  0  0  0  0
    3.3650   16.4120   -3.0230 C   0  0  0  0  0  0  0  0  0  0  0  0
    1.6410   14.6580   -3.5180 C   0  0  0  0  0  0  0  0  0  0  0  0
    0.9370   13.3690   -3.0510 C   0  0  0  0  0  0  0  0  0  0  0  0
    1.7790   12.6320   -2.0050 C   0  0  2  0  0  0  0  0  0  0  0  0
    3.1250   12.2070   -2.6860 C   0  0  0  0  0  0  0  0  0  0  0  0
   -0.9049   10.3327   -2.8837 H   0  0  0  0  0  0  0  0  0  0  0  0
    0.3340   11.0929   -3.9392 H   0  0  0  0  0  0  0  0  0  0  0  0
    0.1266    9.3086   -3.9392 H   0  0  0  0  0  0  0  0  0  0  0  0
    2.1152    9.9465   -2.6611 H   0  0  0  0  0  0  0  0  0  0  0  0
    0.3488    8.1092   -1.8804 H   0  0  0  0  0  0  0  0  0  0  0  0
    1.8344    8.5396   -0.9048 H   0  0  0  0  0  0  0  0  0  0  0  0
    0.4307    8.7226    0.8220 H   0  0  0  0  0  0  0  0  0  0  0  0
   -0.0395   10.2961    0.0540 H   0  0  0  0  0  0  0  0  0  0  0  0
   -1.2762    7.9676    0.5601 H   0  0  0  0  0  0  0  0  0  0  0  0
   -2.3246   11.5878    0.1667 H   0  0  0  0  0  0  0  0  0  0  0  0
   -1.4612   11.2584   -1.3737 H   0  0  0  0  0  0  0  0  0  0  0  0
   -3.2430   11.4863   -1.3737 H   0  0  0  0  0  0  0  0  0  0  0  0
   -4.0890    9.1183    0.8202 H   0  0  0  0  0  0  0  0  0  0  0  0
   -4.6927    9.8656   -0.6976 H   0  0  0  0  0  0  0  0  0  0  0  0
   -4.1331    8.1587   -0.6976 H   0  0  0  0  0  0  0  0  0  0  0  0
    0.0627   11.5204   -1.2324 H   0  0  0  0  0  0  0  0  0  0  0  0
    1.2672   10.9653    0.7855 H   0  0  0  0  0  0  0  0  0  0  0  0
    2.6904   10.4133   -0.1236 H   0  0  0  0  0  0  0  0  0  0  0  0
    2.4707   12.8977    1.2699 H   0  0  0  0  0  0  0  0  0  0  0  0
    3.7190   12.5400    0.0793 H   0  0  0  0  0  0  0  0  0  0  0  0
    0.7353   13.9177    1.0405 H   0  0  0  0  0  0  0  0  0  0  0  0
    0.3181   14.9751   -0.3503 H   0  0  0  0  0  0  0  0  0  0  0  0
   -0.1854   13.2509   -0.3503 H   0  0  0  0  0  0  0  0  0  0  0  0
    3.7241   14.3869   -1.4855 H   0  0  0  0  0  0  0  0  0  0  0  0
    3.2254   15.1739    0.9153 H   0  0  0  0  0  0  0  0  0  0  0  0
    4.0575   16.2819   -0.2970 H   0  0  0  0  0  0  0  0  0  0  0  0
    2.2156   17.3919    1.2239 H   0  0  0  0  0  0  0  0  0  0  0  0
    0.1404   15.9652   -1.9320 H   0  0  0  0  0  0  0  0  0  0  0  0
    1.7037   18.3661   -3.0665 H   0  0  0  0  0  0  0  0  0  0  0  0
    0.5757   17.2677   -3.9782 H   0  0  0  0  0  0  0  0  0  0  0  0
   -0.4773   19.4351   -3.4179 H   0  0  0  0  0  0  0  0  0  0  0  0
   -1.2984   18.0276   -2.6360 H   0  0  0  0  0  0  0  0  0  0  0  0
   -1.1298   19.8077   -1.0354 H   0  0  0  0  0  0  0  0  0  0  0  0
    1.5740   19.8060   -1.9450 H   0  0  0  0  0  0  0  0  0  0  0  0
   -1.4046   17.3679    1.2058 H   0  0  0  0  0  0  0  0  0  0  0  0
   -2.1067   17.9928   -0.3249 H   0  0  0  0  0  0  0  0  0  0  0  0
   -1.1768   16.4560   -0.3249 H   0  0  0  0  0  0  0  0  0  0  0  0
    0.1152   18.4084    2.0186 H   0  0  0  0  0  0  0  0  0  0  0  0
    1.4390   19.2795    1.1728 H   0  0  0  0  0  0  0  0  0  0  0  0
   -0.2249   19.9561    1.1728 H   0  0  0  0  0  0  0  0  0  0  0  0
    3.9921   16.8316   -2.2226 H   0  0  0  0  0  0  0  0  0  0  0  0
    3.9691   15.7355   -3.6455 H   0  0  0  0  0  0  0  0  0  0  0  0
    2.9701   17.2284   -3.6455 H   0  0  0  0  0  0  0  0  0  0  0  0
    0.9233   15.2275   -4.1267 H   0  0  0  0  0  0  0  0  0  0  0  0
    2.5359   14.3177   -4.0595 H   0  0  0  0  0  0  0  0  0  0  0  0
   -0.0364   13.6302   -2.6102 H   0  0  0  0  0  0  0  0  0  0  0  0
    0.8016   12.7089   -3.9204 H   0  0  0  0  0  0  0  0  0  0  0  0
    3.8696   11.9719   -1.9113 H   0  0  0  0  0  0  0  0  0  0  0  0
    2.9546   11.3189   -3.3124 H   0  0  0  0  0  0  0  0  0  0  0  0
    3.4955   13.0319   -3.3124 H   0  0  0  0  0  0  0  0  0  0  0  0
  1  2  1  0
  2  3  1  0
  3  4  1  0
  4  5  1  0
  5  6  1  0
  6  7  1  0
  7  8  1  0
  7  9  1  0
  2 10  1  0
 10 11  1  0
 11 12  1  0
 12 13  1  0
 13 14  1  1
 13 15  1  0
 15 16  1  0
 16 17  1  0
 17 18  2  0
 18 19  1  0
 19 20  1  0
 20 21  1  0
 21 22  1  0
 22 23  1  0
 22 24  1  0
 24 25  1  0
 24 26  1  0
 19 27  1  0
 27 28  1  6
 27 29  1  0
 29 30  1  0
 30 31  1  0
 31 32  1  6
  7  5  1  0
 31 10  1  0
 31 13  1  0
 27 15  1  0
 24 18  1  0
  1 33  1  0
  1 34  1  0
  1 35  1  0
  2 36  1  6
  3 37  1  0
  3 38  1  0
  4 39  1  0
  4 40  1  0
  5 41  1  1
  8 42  1  0
  8 43  1  0
  8 44  1  0
  9 45  1  0
  9 46  1  0
  9 47  1  0
 10 48  1  1
 11 49  1  0
 11 50  1  0
 12 51  1  0
 12 52  1  0
 14 53  1  0
 14 54  1  0
 14 55  1  0
 15 56  1  6
 16 57  1  0
 16 58  1  0
 17 59  1  0
 19 60  1  1
 20 61  1  0
 20 62  1  0
 21 63  1  0
 21 64  1  0
 22 65  1  1
 23 66  1  0
 25 67  1  0
 25 68  1  0
 25 69  1  0
 26 70  1  0
 26 71  1  0
 26 72  1  0
 28 73  1  0
 28 74  1  0
 28 75  1  0
 29 76  1  0
 29 77  1  0
 30 78  1  0
 30 79  1  0
 32 80  1  0
 32 81  1  0
 32 82  1  0
M  END
>  <meeko>  (17) 
{"is_sidechain": [false], "intermolecular_energy": 2.731, "internal_energy": -0.839}

$$$$
EPH_relaxed_0001_pdb2pqr_Repair_329_r2_0001_out
     RDKit          3D

 82 86  0  0  0  0  0  0  0  0999 V2000
    3.7840   19.0310   -3.7180 C   0  0  0  0  0  0  0  0  0  0  0  0
    2.6150   18.5330   -2.8640 C   0  0  2  0  0  0  0  0  0  0  0  0
    2.2800   19.5050   -1.7150 C   0  0  0  0  0  0  0  0  0  0  0  0
    0.9220   20.1940   -1.8680 C   0  0  0  0  0  0  0  0  0  0  0  0
    0.0750   20.0300   -0.6420 C   0  0  2  0  0  0  0  0  0  0  0  0
   -0.5420   18.7430   -0.5090 O   0  0  0  0  0  0  0  0  0  0  0  0
   -1.4320   19.8580   -0.6830 C   0  0  0  0  0  0  0  0  0  0  0  0
   -2.1800   19.8430   -1.9780 C   0  0  0  0  0  0  0  0  0  0  0  0
   -2.2240   20.1940    0.5420 C   0  0  0  0  0  0  0  0  0  0  0  0
    2.9330   17.1520   -2.3030 C   0  0  1  0  0  0  0  0  0  0  0  0
    3.7620   17.2160   -0.9930 C   0  0  0  0  0  0  0  0  0  0  0  0
    3.2900   16.0350   -0.1060 C   0  0  0  0  0  0  0  0  0  0  0  0
    2.4550   15.1450   -1.0550 C   0  0  1  0  0  0  0  0  0  0  0  0
    3.5060   14.2990   -1.8400 C   0  0  0  0  0  0  0  0  0  0  0  0
    1.3730   14.2390   -0.3800 C   0  0  2  0  0  0  0  0  0  0  0  0
    1.9230   13.1840    0.5960 C   0  0  0  0  0  0  0  0  0  0  0  0
    2.2470   11.8600   -0.0130 C   0  0  0  0  0  0  0  0  0  0  0  0
    1.8410   11.4360   -1.2250 C   0  0  0  0  0  0  0  0  0  0  0  0
    0.8900   12.2840   -2.0780 C   0  0  1  0  0  0  0  0  0  0  0  0
   -0.2420   11.3840   -2.6410 C   0  0  0  0  0  0  0  0  0  0  0  0
    0.2950   10.1720   -3.3950 C   0  0  0  0  0  0  0  0  0  0  0  0
    1.1900    9.3220   -2.4960 C   0  0  2  0  0  0  0  0  0  0  0  0
    0.3880    8.7450   -1.4610 O   0  0  0  0  0  0  0  0  0  0  0  0
    2.3610   10.1250   -1.8640 C   0  0  0  0  0  0  0  0  0  0  0  0
    3.3910   10.4930   -2.9600 C   0  0  0  0  0  0  0  0  0  0  0  0
    3.1010    9.1870   -0.8710 C   0  0  0  0  0  0  0  0  0  0  0  0
    0.3350   13.6060   -1.3920 C   0  0  1  0  0  0  0  0  0  0  0  0
   -0.9480   13.2790   -0.5680 C   0  0  0  0  0  0  0  0  0  0  0  0
   -0.1040   14.6210   -2.5130 C   0  0  0  0  0  0  0  0  0  0  0  0
    0.9820   15.5700   -3.0550 C   0  0  0  0  0  0  0  0  0  0  0  0
    1.7350   16.2520   -1.9090 C   0  0  2  0  0  0  0  0  0  0  0  0
    0.7070   17.1270   -1.1140 C   0  0  0  0  0  0  0  0  0  0  0  0
    4.5962   19.3770   -3.0618 H   0  0  0  0  0  0  0  0  0  0  0  0
    4.1499   18.2106   -4.3529 H   0  0  0  0  0  0  0  0  0  0  0  0
    3.4459   19.8632   -4.3529 H   0  0  0  0  0  0  0  0  0  0  0  0
    1.7302   18.4748   -3.5150 H   0  0  0  0  0  0  0  0  0  0  0  0
    2.2782   18.9397   -0.7714 H   0  0  0  0  0  0  0  0  0  0  0  0
    3.0449   20.2954   -1.7294 H   0  0  0  0  0  0  0  0  0  0  0  0
    1.0850   21.2669   -2.0476 H   0  0  0  0  0  0  0  0  0  0  0  0
    0.3947   19.7280   -2.7135 H   0  0  0  0  0  0  0  0  0  0  0  0
    0.7243   20.7119   -0.0733 H   0  0  0  0  0  0  0  0  0  0  0  0
   -3.2612   19.8213   -1.7767 H   0  0  0  0  0  0  0  0  0  0  0  0
   -1.9325   20.7463   -2.5549 H   0  0  0  0  0  0  0  0  0  0  0  0
   -1.8965   18.9504   -2.5549 H   0  0  0  0  0  0  0  0  0  0  0  0
   -1.6367   19.9448    1.4381 H   0  0  0  0  0  0  0  0  0  0  0  0
   -2.4579   21.2688    0.5440 H   0  0  0  0  0  0  0  0  0  0  0  0
   -3.1594   19.6152    0.5440 H   0  0  0  0  0  0  0  0  0  0  0  0
    3.4614   16.7194   -3.1654 H   0  0  0  0  0  0  0  0  0  0  0  0
    4.8341   17.1157   -1.2180 H   0  0  0  0  0  0  0  0  0  0  0  0
    3.6158   18.1780   -0.4800 H   0  0  0  0  0  0  0  0  0  0  0  0
    4.1519   15.4783    0.2905 H   0  0  0  0  0  0  0  0  0  0  0  0
    2.7112   16.3732    0.7661 H   0  0  0  0  0  0  0  0  0  0  0  0
    4.1592   13.7732   -1.1280 H   0  0  0  0  0  0  0  0  0  0  0  0
    2.9866   13.5641   -2.4726 H   0  0  0  0  0  0  0  0  0  0  0  0
    4.1129   14.9634   -2.4726 H   0  0  0  0  0  0  0  0  0  0  0  0
    0.8160   14.9572    0.2396 H   0  0  0  0  0  0  0  0  0  0  0  0
    2.8426   13.5849    1.0471 H   0  0  0  0  0  0  0  0  0  0  0  0
    1.1208   12.9958    1.3248 H   0  0  0  0  0  0  0  0  0  0  0  0
    2.8700   11.1727    0.5782 H   0  0  0  0  0  0  0  0  0  0  0  0
    1.4963   12.6824   -2.9048 H   0  0  0  0  0  0  0  0  0  0  0  0
   -0.8621   11.0319   -1.8034 H   0  0  0  0  0  0  0  0  0  0  0  0
   -0.8261   11.9873   -3.3515 H   0  0  0  0  0  0  0  0  0  0  0  0
   -0.5508    9.5605   -3.7424 H   0  0  0  0  0  0  0  0  0  0  0  0
    0.8906   10.5259   -4.2494 H   0  0  0  0  0  0  0  0  0  0  0  0
    1.6468    8.5436   -3.1248 H   0  0  0  0  0  0  0  0  0  0  0  0
    0.6130    9.1940   -0.6290 H   0  0  0  0  0  0  0  0  0  0  0  0
    4.3262   10.8271   -2.4869 H   0  0  0  0  0  0  0  0  0  0  0  0
    3.5914    9.6109   -3.5858 H   0  0  0  0  0  0  0  0  0  0  0  0
    2.9871   11.3024   -3.5858 H   0  0  0  0  0  0  0  0  0  0  0  0
    2.8651    9.4861    0.1609 H   0  0  0  0  0  0  0  0  0  0  0  0
    2.7758    8.1491   -1.0354 H   0  0  0  0  0  0  0  0  0  0  0  0
    4.1861    9.2617   -1.0354 H   0  0  0  0  0  0  0  0  0  0  0  0
   -0.7187   13.3375    0.5062 H   0  0  0  0  0  0  0  0  0  0  0  0
   -1.7370   14.0048   -0.8145 H   0  0  0  0  0  0  0  0  0  0  0  0
   -1.2933   12.2641   -0.8145 H   0  0  0  0  0  0  0  0  0  0  0  0
   -0.4871   14.0347   -3.3612 H   0  0  0  0  0  0  0  0  0  0  0  0
   -0.8457   15.2765   -2.0332 H   0  0  0  0  0  0  0  0  0  0  0  0
    1.6954   14.9920   -3.6608 H   0  0  0  0  0  0  0  0  0  0  0  0
    0.4972   16.3451   -3.6667 H   0  0  0  0  0  0  0  0  0  0  0  0
    0.8672   16.9907   -0.0343 H   0  0  0  0  0  0  0  0  0  0  0  0
    0.8482   18.1863   -1.3748 H   0  0  0  0  0  0  0  0  0  0  0  0
   -0.3161   16.8184   -1.3748 H   0  0  0  0  0  0  0  0  0  0  0  0
  1  2  1  0
  2  3  1  0
  3  4  1  0
  4  5  1  0
  5  6  1  0
  6  7  1  0
  7  8  1  0
  7  9  1  0
  2 10  1  0
 10 11  1  0
 11 12  1  0
 12 13  1  0
 13 14  1  6
 13 15  1  0
 15 16  1  0
 16 17  1  0
 17 18  2  0
 18 19  1  0
 19 20  1  0
 20 21  1  0
 21 22  1  0
 22 23  1  0
 22 24  1  0
 24 25  1  0
 24 26  1  0
 19 27  1  0
 27 28  1  1
 27 29  1  0
 29 30  1  0
 30 31  1  0
 31 32  1  1
  7  5  1  0
 31 10  1  0
 31 13  1  0
 27 15  1  0
 24 18  1  0
  1 33  1  0
  1 34  1  0
  1 35  1  0
  2 36  1  6
  3 37  1  0
  3 38  1  0
  4 39  1  0
  4 40  1  0
  5 41  1  1
  8 42  1  0
  8 43  1  0
  8 44  1  0
  9 45  1  0
  9 46  1  0
  9 47  1  0
 10 48  1  6
 11 49  1  0
 11 50  1  0
 12 51  1  0
 12 52  1  0
 14 53  1  0
 14 54  1  0
 14 55  1  0
 15 56  1  1
 16 57  1  0
 16 58  1  0
 17 59  1  0
 19 60  1  6
 20 61  1  0
 20 62  1  0
 21 63  1  0
 21 64  1  0
 22 65  1  6
 23 66  1  0
 25 67  1  0
 25 68  1  0
 25 69  1  0
 26 70  1  0
 26 71  1  0
 26 72  1  0
 28 73  1  0
 28 74  1  0
 28 75  1  0
 29 76  1  0
 29 77  1  0
 30 78  1  0
 30 79  1  0
 32 80  1  0
 32 81  1  0
 32 82  1  0
M  END
>  <meeko>  (18) 
{"is_sidechain": [false], "intermolecular_energy": 2.731, "internal_energy": -0.839}

$$$$
EPH_relaxed_0001_pdb2pqr_Repair_329_r2_0001_out
     RDKit          3D

 82 86  0  0  0  0  0  0  0  0999 V2000
   -0.8690   10.7830   -1.5300 C   0  0  0  0  0  0  0  0  0  0  0  0
    0.2780   10.4540   -0.5700 C   0  0  2  0  0  0  0  0  0  0  0  0
   -0.2120   10.2810    0.8820 C   0  0  0  0  0  0  0  0  0  0  0  0
    0.6070   11.0710    1.9060 C   0  0  0  0  0  0  0  0  0  0  0  0
   -0.2460   12.0360    2.6720 C   0  0  2  0  0  0  0  0  0  0  0  0
    0.3000   13.3560    2.7890 O   0  0  0  0  0  0  0  0  0  0  0  0
    0.1520   12.6220    4.0140 C   0  0  0  0  0  0  0  0  0  0  0  0
    1.4490   12.2620    4.6690 C   0  0  0  0  0  0  0  0  0  0  0  0
   -0.9230   13.1540    4.9100 C   0  0  0  0  0  0  0  0  0  0  0  0
    1.3390   11.5460   -0.6350 C   0  0  1  0  0  0  0  0  0  0  0  0
    2.6360   11.0770   -1.3470 C   0  0  0  0  0  0  0  0  0  0  0  0
    3.1920   12.3020   -2.1170 C   0  0  0  0  0  0  0  0  0  0  0  0
    2.3940   13.5060   -1.5620 C   0  0  1  0  0  0  0  0  0  0  0  0
    3.1010   13.8710   -0.2190 C   0  0  0  0  0  0  0  0  0  0  0  0
    2.2710   14.7470   -2.5050 C   0  0  2  0  0  0  0  0  0  0  0  0
    3.6040   15.4260   -2.8670 C   0  0  0  0  0  0  0  0  0  0  0  0
    4.0320   16.5210   -1.9460 C   0  0  0  0  0  0  0  0  0  0  0  0
    3.2460   17.1340   -1.0410 C   0  0  0  0  0  0  0  0  0  0  0  0
    1.7510   16.8050   -0.9450 C   0  0  1  0  0  0  0  0  0  0  0  0
    0.9350   18.1220   -0.8640 C   0  0  0  0  0  0  0  0  0  0  0  0
    1.4060   19.0330    0.2660 C   0  0  0  0  0  0  0  0  0  0  0  0
    2.8830   19.3850    0.1030 C   0  0  2  0  0  0  0  0  0  0  0  0
    3.0370   20.1940   -1.0670 O   0  0  0  0  0  0  0  0  0  0  0  0
    3.8030   18.1360   -0.0000 C   0  0  0  0  0  0  0  0  0  0  0  0
    3.8680   17.4240    1.3730 C   0  0  0  0  0  0  0  0  0  0  0  0
    5.2440   18.6280   -0.3030 C   0  0  0  0  0  0  0  0  0  0  0  0
    1.1890   15.8060   -2.0450 C   0  0  1  0  0  0  0  0  0  0  0  0
    0.7720   16.5990   -3.3210 C   0  0  0  0  0  0  0  0  0  0  0  0
   -0.1210   15.1230   -1.4980 C   0  0  0  0  0  0  0  0  0  0  0  0
    0.0590   13.8340   -0.6740 C   0  0  0  0  0  0  0  0  0  0  0  0
    0.9780   12.8450   -1.3980 C   0  0  2  0  0  0  0  0  0  0  0  0
    0.2820   12.4430   -2.7430 C   0  0  0  0  0  0  0  0  0  0  0  0
   -1.7685   11.0410   -0.9518 H   0  0  0  0  0  0  0  0  0  0  0  0
   -0.5835   11.6355   -2.1639 H   0  0  0  0  0  0  0  0  0  0  0  0
   -1.0788    9.9088   -2.1639 H   0  0  0  0  0  0  0  0  0  0  0  0
    0.7118    9.4947   -0.8886 H   0  0  0  0  0  0  0  0  0  0  0  0
   -1.2574   10.6187    0.9383 H   0  0  0  0  0  0  0  0  0  0  0  0
   -0.1009    9.2161    1.1341 H   0  0  0  0  0  0  0  0  0  0  0  0
    1.0702   10.3662    2.6122 H   0  0  0  0  0  0  0  0  0  0  0  0
    1.3723   11.6455    1.3635 H   0  0  0  0  0  0  0  0  0  0  0  0
   -1.1627   11.5346    2.3281 H   0  0  0  0  0  0  0  0  0  0  0  0
    1.3294   12.2952    5.7620 H   0  0  0  0  0  0  0  0  0  0  0  0
    1.7451   11.2477    4.3632 H   0  0  0  0  0  0  0  0  0  0  0  0
    2.2255   12.9786    4.3632 H   0  0  0  0  0  0  0  0  0  0  0  0
   -0.6300   13.0090    5.9603 H   0  0  0  0  0  0  0  0  0  0  0  0
   -1.0661   14.2269    4.7140 H   0  0  0  0  0  0  0  0  0  0  0  0
   -1.8628   12.6170    4.7140 H   0  0  0  0  0  0  0  0  0  0  0  0
    1.4496   11.7589    0.4385 H   0  0  0  0  0  0  0  0  0  0  0  0
    3.3709   10.7303   -0.6055 H   0  0  0  0  0  0  0  0  0  0  0  0
    2.4303   10.2407   -2.0313 H   0  0  0  0  0  0  0  0  0  0  0  0
    4.2677   12.4267   -1.9239 H   0  0  0  0  0  0  0  0  0  0  0  0
    3.0826   12.1951   -3.2063 H   0  0  0  0  0  0  0  0  0  0  0  0
    2.4742   13.5474    0.6251 H   0  0  0  0  0  0  0  0  0  0  0  0
    4.0755   13.3633   -0.1678 H   0  0  0  0  0  0  0  0  0  0  0  0
    3.2515   14.9595   -0.1678 H   0  0  0  0  0  0  0  0  0  0  0  0
    1.9011   14.2981   -3.4386 H   0  0  0  0  0  0  0  0  0  0  0  0
    4.3891   14.6555   -2.8672 H   0  0  0  0  0  0  0  0  0  0  0  0
    3.4493   15.8969   -3.8490 H   0  0  0  0  0  0  0  0  0  0  0  0
    5.0780   16.8549   -2.0127 H   0  0  0  0  0  0  0  0  0  0  0  0
    1.6254   16.2303   -0.0155 H   0  0  0  0  0  0  0  0  0  0  0  0
    1.0387   18.6604   -1.8176 H   0  0  0  0  0  0  0  0  0  0  0  0
   -0.1127   17.8541   -0.6625 H   0  0  0  0  0  0  0  0  0  0  0  0
    0.8118   19.9586    0.2537 H   0  0  0  0  0  0  0  0  0  0  0  0
    1.2743   18.5043    1.2216 H   0  0  0  0  0  0  0  0  0  0  0  0
    3.1943   19.9296    1.0066 H   0  0  0  0  0  0  0  0  0  0  0  0
    2.1860   20.6330   -1.2360 H   0  0  0  0  0  0  0  0  0  0  0  0
    3.7998   18.1714    2.1772 H   0  0  0  0  0  0  0  0  0  0  0  0
    3.0308   16.7157    1.4587 H   0  0  0  0  0  0  0  0  0  0  0  0
    4.8196   16.8790    1.4587 H   0  0  0  0  0  0  0  0  0  0  0  0
    5.7759   18.8096    0.6426 H   0  0  0  0  0  0  0  0  0  0  0  0
    5.7788   17.8615   -0.8831 H   0  0  0  0  0  0  0  0  0  0  0  0
    5.1983   19.5615   -0.8831 H   0  0  0  0  0  0  0  0  0  0  0  0
    0.2789   17.5367   -3.0251 H   0  0  0  0  0  0  0  0  0  0  0  0
    1.6664   16.8279   -3.9191 H   0  0  0  0  0  0  0  0  0  0  0  0
    0.0765   15.9919   -3.9191 H   0  0  0  0  0  0  0  0  0  0  0  0
   -0.6370   15.8560   -0.8605 H   0  0  0  0  0  0  0  0  0  0  0  0
   -0.6806   14.8158   -2.3938 H   0  0  0  0  0  0  0  0  0  0  0  0
    0.5008   14.0886    0.3007 H   0  0  0  0  0  0  0  0  0  0  0  0
   -0.9260   13.3634   -0.5388 H   0  0  0  0  0  0  0  0  0  0  0  0
   -0.6518   11.9037   -2.5257 H   0  0  0  0  0  0  0  0  0  0  0  0
    0.0554   13.3493   -3.3237 H   0  0  0  0  0  0  0  0  0  0  0  0
    0.9538   11.7938   -3.3237 H   0  0  0  0  0  0  0  0  0  0  0  0
  1  2  1  0
  2  3  1  0
  3  4  1  0
  4  5  1  0
  5  6  1  0
  6  7  1  0
  7  8  1  0
  7  9  1  0
  2 10  1  0
 10 11  1  0
 11 12  1  0
 12 13  1  0
 13 14  1  1
 13 15  1  0
 15 16  1  0
 16 17  1  0
 17 18  2  0
 18 19  1  0
 19 20  1  0
 20 21  1  0
 21 22  1  0
 22 23  1  0
 22 24  1  0
 24 25  1  0
 24 26  1  0
 19 27  1  0
 27 28  1  6
 27 29  1  0
 29 30  1  0
 30 31  1  0
 31 32  1  6
  7  5  1  0
 31 10  1  0
 31 13  1  0
 27 15  1  0
 24 18  1  0
  1 33  1  0
  1 34  1  0
  1 35  1  0
  2 36  1  6
  3 37  1  0
  3 38  1  0
  4 39  1  0
  4 40  1  0
  5 41  1  1
  8 42  1  0
  8 43  1  0
  8 44  1  0
  9 45  1  0
  9 46  1  0
  9 47  1  0
 10 48  1  1
 11 49  1  0
 11 50  1  0
 12 51  1  0
 12 52  1  0
 14 53  1  0
 14 54  1  0
 14 55  1  0
 15 56  1  6
 16 57  1  0
 16 58  1  0
 17 59  1  0
 19 60  1  1
 20 61  1  0
 20 62  1  0
 21 63  1  0
 21 64  1  0
 22 65  1  1
 23 66  1  0
 25 67  1  0
 25 68  1  0
 25 69  1  0
 26 70  1  0
 26 71  1  0
 26 72  1  0
 28 73  1  0
 28 74  1  0
 28 75  1  0
 29 76  1  0
 29 77  1  0
 30 78  1  0
 30 79  1  0
 32 80  1  0
 32 81  1  0
 32 82  1  0
M  END
>  <meeko>  (19) 
{"is_sidechain": [false], "intermolecular_energy": 2.731, "internal_energy": -0.839}

$$$$
EPH_relaxed_0001_pdb2pqr_Repair_329_r2_0001_out
     RDKit          3D

 82 86  0  0  0  0  0  0  0  0999 V2000
    2.8970   17.1480    0.3050 C   0  0  0  0  0  0  0  0  0  0  0  0
    2.3940   17.3380   -1.1280 C   0  0  2  0  0  0  0  0  0  0  0  0
    1.6510   18.6770   -1.3100 C   0  0  0  0  0  0  0  0  0  0  0  0
    1.3070   19.3740    0.0100 C   0  0  0  0  0  0  0  0  0  0  0  0
   -0.1500   19.2510    0.3390 C   0  0  2  0  0  0  0  0  0  0  0  0
   -0.8590   18.2770   -0.4390 O   0  0  0  0  0  0  0  0  0  0  0  0
   -1.2600   19.6450   -0.6180 C   0  0  0  0  0  0  0  0  0  0  0  0
   -0.9600   20.1950   -1.9770 C   0  0  0  0  0  0  0  0  0  0  0  0
   -2.6120   19.9560   -0.0560 C   0  0  0  0  0  0  0  0  0  0  0  0
    1.4820   16.1800   -1.5170 C   0  0  1  0  0  0  0  0  0  0  0  0
    0.7180   16.4400   -2.8420 C   0  0  0  0  0  0  0  0  0  0  0  0
    0.5920   15.0730   -3.5620 C   0  0  0  0  0  0  0  0  0  0  0  0
    0.9860   14.0300   -2.4900 C   0  0  1  0  0  0  0  0  0  0  0  0
   -0.3000   13.8360   -1.6270 C   0  0  0  0  0  0  0  0  0  0  0  0
    1.5360   12.6660   -3.0220 C   0  0  2  0  0  0  0  0  0  0  0  0
    0.5440   11.8490   -3.8680 C   0  0  0  0  0  0  0  0  0  0  0  0
   -0.3050   10.8880   -3.1040 C   0  0  0  0  0  0  0  0  0  0  0  0
   -0.0830   10.4810   -1.8400 C   0  0  0  0  0  0  0  0  0  0  0  0
    1.1740   10.9230   -1.0800 C   0  0  1  0  0  0  0  0  0  0  0  0
    1.8170    9.6940   -0.3840 C   0  0  0  0  0  0  0  0  0  0  0  0
    0.8300    8.9440    0.5060 C   0  0  0  0  0  0  0  0  0  0  0  0
   -0.3780    8.4710   -0.2980 C   0  0  2  0  0  0  0  0  0  0  0  0
    0.0510    7.4770   -1.2340 O   0  0  0  0  0  0  0  0  0  0  0  0
   -1.1020    9.6220   -1.0510 C   0  0  0  0  0  0  0  0  0  0  0  0
   -1.8250   10.5370   -0.0330 C   0  0  0  0  0  0  0  0  0  0  0  0
   -2.2130    8.9910   -1.9330 C   0  0  0  0  0  0  0  0  0  0  0  0
    2.2270   11.7710   -1.9150 C   0  0  1  0  0  0  0  0  0  0  0  0
    3.2060   10.8150   -2.6640 C   0  0  0  0  0  0  0  0  0  0  0  0
    3.1080   12.6190   -0.9230 C   0  0  0  0  0  0  0  0  0  0  0  0
    2.5680   14.0070   -0.5290 C   0  0  0  0  0  0  0  0  0  0  0  0
    2.1490   14.8040   -1.7680 C   0  0  2  0  0  0  0  0  0  0  0  0
    3.4270   15.0340   -2.6440 C   0  0  0  0  0  0  0  0  0  0  0  0
    2.1092   17.4456    1.0126 H   0  0  0  0  0  0  0  0  0  0  0  0
    3.1543   16.0907    0.4661 H   0  0  0  0  0  0  0  0  0  0  0  0
    3.7890   17.7711    0.4661 H   0  0  0  0  0  0  0  0  0  0  0  0
    3.2742   17.3561   -1.7875 H   0  0  0  0  0  0  0  0  0  0  0  0
    2.2881   19.3501   -1.9025 H   0  0  0  0  0  0  0  0  0  0  0  0
    0.6988   18.4509   -1.8121 H   0  0  0  0  0  0  0  0  0  0  0  0
    1.8950   18.9157    0.8188 H   0  0  0  0  0  0  0  0  0  0  0  0
    1.5458   20.4427   -0.0943 H   0  0  0  0  0  0  0  0  0  0  0  0
    0.0417   19.5061    1.3917 H   0  0  0  0  0  0  0  0  0  0  0  0
   -0.4355   21.1566   -1.8758 H   0  0  0  0  0  0  0  0  0  0  0  0
   -0.3235   19.4863   -2.5271 H   0  0  0  0  0  0  0  0  0  0  0  0
   -1.9005   20.3464   -2.5271 H   0  0  0  0  0  0  0  0  0  0  0  0
   -2.5637   19.9449    1.0429 H   0  0  0  0  0  0  0  0  0  0  0  0
   -2.9316   20.9511   -0.3989 H   0  0  0  0  0  0  0  0  0  0  0  0
   -3.3343   19.2005   -0.3989 H   0  0  0  0  0  0  0  0  0  0  0  0
    0.8489   16.1337   -0.6187 H   0  0  0  0  0  0  0  0  0  0  0  0
   -0.2806   16.8494   -2.6293 H   0  0  0  0  0  0  0  0  0  0  0  0
    1.2524   17.1687   -3.4693 H   0  0  0  0  0  0  0  0  0  0  0  0
   -0.4404   14.9077   -3.9037 H   0  0  0  0  0  0  0  0  0  0  0  0
    1.2287   15.0125   -4.4569 H   0  0  0  0  0  0  0  0  0  0  0  0
   -0.0351   13.8760   -0.5601 H   0  0  0  0  0  0  0  0  0  0  0  0
   -1.0196   14.6358   -1.8563 H   0  0  0  0  0  0  0  0  0  0  0  0
   -0.7516   12.8596   -1.8563 H   0  0  0  0  0  0  0  0  0  0  0  0
    2.3285   12.9838   -3.7156 H   0  0  0  0  0  0  0  0  0  0  0  0
   -0.1227   12.5544   -4.3856 H   0  0  0  0  0  0  0  0  0  0  0  0
    1.1554   11.2395   -4.5497 H   0  0  0  0  0  0  0  0  0  0  0  0
   -1.1870   10.4774   -3.6173 H   0  0  0  0  0  0  0  0  0  0  0  0
    0.8336   11.6453   -0.3234 H   0  0  0  0  0  0  0  0  0  0  0  0
    2.1888    9.0053   -1.1570 H   0  0  0  0  0  0  0  0  0  0  0  0
    2.6324   10.0612    0.2565 H   0  0  0  0  0  0  0  0  0  0  0  0
    1.3338    8.0709    0.9463 H   0  0  0  0  0  0  0  0  0  0  0  0
    0.4813    9.6254    1.2960 H   0  0  0  0  0  0  0  0  0  0  0  0
   -1.1065    8.0565    0.4144 H   0  0  0  0  0  0  0  0  0  0  0  0
    0.8660    7.8010   -1.6530 H   0  0  0  0  0  0  0  0  0  0  0  0
   -1.5734   10.2186    0.9894 H   0  0  0  0  0  0  0  0  0  0  0  0
   -1.5030   11.5781   -0.1825 H   0  0  0  0  0  0  0  0  0  0  0  0
   -2.9124   10.4645   -0.1825 H   0  0  0  0  0  0  0  0  0  0  0  0
   -2.9877    8.5510   -1.2878 H   0  0  0  0  0  0  0  0  0  0  0  0
   -2.6628    9.7684   -2.5680 H   0  0  0  0  0  0  0  0  0  0  0  0
   -1.7757    8.2065   -2.5680 H   0  0  0  0  0  0  0  0  0  0  0  0
    3.7924   10.2424   -1.9303 H   0  0  0  0  0  0  0  0  0  0  0  0
    2.6305   10.1216   -3.2949 H   0  0  0  0  0  0  0  0  0  0  0  0
    3.8855   11.4068   -3.2949 H   0  0  0  0  0  0  0  0  0  0  0  0
    3.2268   12.0335    0.0006 H   0  0  0  0  0  0  0  0  0  0  0  0
    4.0439   12.8173   -1.4660 H   0  0  0  0  0  0  0  0  0  0  0  0
    1.6959   13.8803    0.1293 H   0  0  0  0  0  0  0  0  0  0  0  0
    3.3652   14.5591   -0.0098 H   0  0  0  0  0  0  0  0  0  0  0  0
    4.2970   15.1906   -1.9893 H   0  0  0  0  0  0  0  0  0  0  0  0
    3.5998   14.1525   -3.2789 H   0  0  0  0  0  0  0  0  0  0  0  0
    3.2817   15.9204   -3.2789 H   0  0  0  0  0  0  0  0  0  0  0  0
  1  2  1  0
  2  3  1  0
  3  4  1  0
  4  5  1  0
  5  6  1  0
  6  7  1  0
  7  8  1  0
  7  9  1  0
  2 10  1  0
 10 11  1  0
 11 12  1  0
 12 13  1  0
 13 14  1  1
 13 15  1  0
 15 16  1  0
 16 17  1  0
 17 18  2  0
 18 19  1  0
 19 20  1  0
 20 21  1  0
 21 22  1  0
 22 23  1  0
 22 24  1  0
 24 25  1  0
 24 26  1  0
 19 27  1  0
 27 28  1  6
 27 29  1  0
 29 30  1  0
 30 31  1  0
 31 32  1  6
  7  5  1  0
 31 10  1  0
 31 13  1  0
 27 15  1  0
 24 18  1  0
  1 33  1  0
  1 34  1  0
  1 35  1  0
  2 36  1  6
  3 37  1  0
  3 38  1  0
  4 39  1  0
  4 40  1  0
  5 41  1  1
  8 42  1  0
  8 43  1  0
  8 44  1  0
  9 45  1  0
  9 46  1  0
  9 47  1  0
 10 48  1  1
 11 49  1  0
 11 50  1  0
 12 51  1  0
 12 52  1  0
 14 53  1  0
 14 54  1  0
 14 55  1  0
 15 56  1  6
 16 57  1  0
 16 58  1  0
 17 59  1  0
 19 60  1  1
 20 61  1  0
 20 62  1  0
 21 63  1  0
 21 64  1  0
 22 65  1  1
 23 66  1  0
 25 67  1  0
 25 68  1  0
 25 69  1  0
 26 70  1  0
 26 71  1  0
 26 72  1  0
 28 73  1  0
 28 74  1  0
 28 75  1  0
 29 76  1  0
 29 77  1  0
 30 78  1  0
 30 79  1  0
 32 80  1  0
 32 81  1  0
 32 82  1  0
M  END
>  <meeko>  (20) 
{"is_sidechain": [false], "intermolecular_energy": 2.731, "internal_energy": -0.839}

$$$$
