EPH_relaxed_0001_pdb2pqr_Repair_406_r2_0001_out
     RDKit          3D

 82 86  0  0  0  0  0  0  0  0999 V2000
   -1.6000    8.5560   -1.8220 C   0  0  0  0  0  0  0  0  0  0  0  0
   -1.9770    9.1300   -0.4540 C   0  0  2  0  0  0  0  0  0  0  0  0
   -3.4630    9.5350   -0.3830 C   0  0  0  0  0  0  0  0  0  0  0  0
   -4.4190    8.3460   -0.2550 C   0  0  0  0  0  0  0  0  0  0  0  0
   -5.0890    8.0310   -1.5580 C   0  0  2  0  0  0  0  0  0  0  0  0
   -6.3390    8.7010   -1.7660 O   0  0  0  0  0  0  0  0  0  0  0  0
   -6.3970    7.2690   -1.6630 C   0  0  0  0  0  0  0  0  0  0  0  0
   -7.1130    6.7750   -0.4450 C   0  0  0  0  0  0  0  0  0  0  0  0
   -6.7250    6.5850   -2.9540 C   0  0  0  0  0  0  0  0  0  0  0  0
   -1.0940   10.3300   -0.1320 C   0  0  1  0  0  0  0  0  0  0  0  0
    0.0100    9.9990    0.9060 C   0  0  0  0  0  0  0  0  0  0  0  0
    1.2570   10.8350    0.5170 C   0  0  0  0  0  0  0  0  0  0  0  0
    0.7320   11.8570   -0.5190 C   0  0  1  0  0  0  0  0  0  0  0  0
    0.0810   12.9920    0.3330 C   0  0  0  0  0  0  0  0  0  0  0  0
    1.7860   12.4230   -1.5260 C   0  0  2  0  0  0  0  0  0  0  0  0
    2.9350   13.2230   -0.8870 C   0  0  0  0  0  0  0  0  0  0  0  0
    2.6920   14.6900   -0.7520 C   0  0  0  0  0  0  0  0  0  0  0  0
    1.7240   15.3840   -1.3790 C   0  0  0  0  0  0  0  0  0  0  0  0
    0.8080   14.7050   -2.4050 C   0  0  1  0  0  0  0  0  0  0  0  0
    0.6940   15.5990   -3.6680 C   0  0  0  0  0  0  0  0  0  0  0  0
    0.2510   17.0220   -3.3410 C   0  0  0  0  0  0  0  0  0  0  0  0
    1.2190   17.6830   -2.3620 C   0  0  2  0  0  0  0  0  0  0  0  0
    2.4800   17.8660   -3.0140 O   0  0  0  0  0  0  0  0  0  0  0  0
    1.4210   16.8670   -1.0550 C   0  0  0  0  0  0  0  0  0  0  0  0
    0.1300   16.9240   -0.2010 C   0  0  0  0  0  0  0  0  0  0  0  0
    2.5250   17.5700   -0.2190 C   0  0  0  0  0  0  0  0  0  0  0  0
    1.1570   13.1950   -2.7560 C   0  0  1  0  0  0  0  0  0  0  0  0
    2.2150   13.1450   -3.9000 C   0  0  0  0  0  0  0  0  0  0  0  0
   -0.1330   12.4850   -3.3120 C   0  0  0  0  0  0  0  0  0  0  0  0
   -1.0740   11.8410   -2.2760 C   0  0  0  0  0  0  0  0  0  0  0  0
   -0.2920   10.9560   -1.3010 C   0  0  2  0  0  0  0  0  0  0  0  0
    0.3560    9.7920   -2.1260 C   0  0  0  0  0  0  0  0  0  0  0  0
   -1.0009    7.6438   -1.6844 H   0  0  0  0  0  0  0  0  0  0  0  0
   -2.5148    8.3128   -2.3823 H   0  0  0  0  0  0  0  0  0  0  0  0
   -1.0134    9.2989   -2.3823 H   0  0  0  0  0  0  0  0  0  0  0  0
   -1.8149    8.3384    0.2924 H   0  0  0  0  0  0  0  0  0  0  0  0
   -3.6034   10.1892    0.4901 H   0  0  0  0  0  0  0  0  0  0  0  0
   -3.7040   10.0411   -1.3294 H   0  0  0  0  0  0  0  0  0  0  0  0
   -3.8496    7.4647    0.0753 H   0  0  0  0  0  0  0  0  0  0  0  0
   -5.1975    8.6090    0.4762 H   0  0  0  0  0  0  0  0  0  0  0  0
   -4.1159    7.8983   -2.0534 H   0  0  0  0  0  0  0  0  0  0  0  0
   -6.5937    7.1333    0.4561 H   0  0  0  0  0  0  0  0  0  0  0  0
   -8.1458    7.1536   -0.4480 H   0  0  0  0  0  0  0  0  0  0  0  0
   -7.1257    5.6751   -0.4480 H   0  0  0  0  0  0  0  0  0  0  0  0
   -7.1919    5.6113   -2.7447 H   0  0  0  0  0  0  0  0  0  0  0  0
   -7.4219    7.2090   -3.5328 H   0  0  0  0  0  0  0  0  0  0  0  0
   -5.8022    6.4323   -3.5328 H   0  0  0  0  0  0  0  0  0  0  0  0
   -1.8621   11.0352    0.2182 H   0  0  0  0  0  0  0  0  0  0  0  0
   -0.3274   10.2705    1.9171 H   0  0  0  0  0  0  0  0  0  0  0  0
    0.2408    8.9235    0.9069 H   0  0  0  0  0  0  0  0  0  0  0  0
    1.6692   11.3505    1.3970 H   0  0  0  0  0  0  0  0  0  0  0  0
    2.0690   10.2116    0.1144 H   0  0  0  0  0  0  0  0  0  0  0  0
    0.2097   12.7676    1.4022 H   0  0  0  0  0  0  0  0  0  0  0  0
    0.5664   13.9508    0.0985 H   0  0  0  0  0  0  0  0  0  0  0  0
   -0.9917   13.0571    0.0985 H   0  0  0  0  0  0  0  0  0  0  0  0
    2.2466   11.5076   -1.9257 H   0  0  0  0  0  0  0  0  0  0  0  0
    3.1159   12.8144    0.1182 H   0  0  0  0  0  0  0  0  0  0  0  0
    3.7939   13.1178   -1.5661 H   0  0  0  0  0  0  0  0  0  0  0  0
    3.3610   15.2514   -0.0832 H   0  0  0  0  0  0  0  0  0  0  0  0
   -0.1755   14.6142   -1.9207 H   0  0  0  0  0  0  0  0  0  0  0  0
    1.6768   15.6403   -4.1604 H   0  0  0  0  0  0  0  0  0  0  0  0
   -0.0695   15.1544   -4.3233 H   0  0  0  0  0  0  0  0  0  0  0  0
    0.2191   17.6115   -4.2692 H   0  0  0  0  0  0  0  0  0  0  0  0
   -0.7454   16.9818   -2.8767 H   0  0  0  0  0  0  0  0  0  0  0  0
    0.7808   18.6473   -2.0652 H   0  0  0  0  0  0  0  0  0  0  0  0
    2.8120   16.9880   -3.2660 H   0  0  0  0  0  0  0  0  0  0  0  0
    0.3956   16.9123    0.8664 H   0  0  0  0  0  0  0  0  0  0  0  0
   -0.4216   17.8474   -0.4315 H   0  0  0  0  0  0  0  0  0  0  0  0
   -0.5008   16.0528   -0.4315 H   0  0  0  0  0  0  0  0  0  0  0  0
    2.3147   17.4361    0.8524 H   0  0  0  0  0  0  0  0  0  0  0  0
    3.5035   17.1283   -0.4586 H   0  0  0  0  0  0  0  0  0  0  0  0
    2.5387   18.6435   -0.4586 H   0  0  0  0  0  0  0  0  0  0  0  0
    3.2240   13.0973   -3.4645 H   0  0  0  0  0  0  0  0  0  0  0  0
    2.0414   12.2541   -4.5213 H   0  0  0  0  0  0  0  0  0  0  0  0
    2.1262   14.0483   -4.5213 H   0  0  0  0  0  0  0  0  0  0  0  0
   -0.7136   13.2369   -3.8665 H   0  0  0  0  0  0  0  0  0  0  0  0
    0.2395   11.6482   -3.9211 H   0  0  0  0  0  0  0  0  0  0  0  0
   -1.5846   12.6349   -1.7111 H   0  0  0  0  0  0  0  0  0  0  0  0
   -1.8059   11.2154   -2.8079 H   0  0  0  0  0  0  0  0  0  0  0  0
    0.7732    9.0426   -1.4373 H   0  0  0  0  0  0  0  0  0  0  0  0
   -0.4099    9.3213   -2.7599 H   0  0  0  0  0  0  0  0  0  0  0  0
    1.1596   10.1950   -2.7599 H   0  0  0  0  0  0  0  0  0  0  0  0
  1  2  1  0
  2  3  1  0
  3  4  1  0
  4  5  1  0
  5  6  1  0
  6  7  1  0
  7  8  1  0
  7  9  1  0
  2 10  1  0
 10 11  1  0
 11 12  1  0
 12 13  1  0
 13 14  1  1
 13 15  1  0
 15 16  1  0
 16 17  1  0
 17 18  2  0
 18 19  1  0
 19 20  1  0
 20 21  1  0
 21 22  1  0
 22 23  1  0
 22 24  1  0
 24 25  1  0
 24 26  1  0
 19 27  1  0
 27 28  1  6
 27 29  1  0
 29 30  1  0
 30 31  1  0
 31 32  1  6
  7  5  1  0
 31 10  1  0
 31 13  1  0
 27 15  1  0
 24 18  1  0
  1 33  1  0
  1 34  1  0
  1 35  1  0
  2 36  1  1
  3 37  1  0
  3 38  1  0
  4 39  1  0
  4 40  1  0
  5 41  1  6
  8 42  1  0
  8 43  1  0
  8 44  1  0
  9 45  1  0
  9 46  1  0
  9 47  1  0
 10 48  1  1
 11 49  1  0
 11 50  1  0
 12 51  1  0
 12 52  1  0
 14 53  1  0
 14 54  1  0
 14 55  1  0
 15 56  1  6
 16 57  1  0
 16 58  1  0
 17 59  1  0
 19 60  1  1
 20 61  1  0
 20 62  1  0
 21 63  1  0
 21 64  1  0
 22 65  1  1
 23 66  1  0
 25 67  1  0
 25 68  1  0
 25 69  1  0
 26 70  1  0
 26 71  1  0
 26 72  1  0
 28 73  1  0
 28 74  1  0
 28 75  1  0
 29 76  1  0
 29 77  1  0
 30 78  1  0
 30 79  1  0
 32 80  1  0
 32 81  1  0
 32 82  1  0
M  END
>  <meeko>  (1) 
{"is_sidechain": [false], "intermolecular_energy": 2.731, "internal_energy": -0.839}

$$$$
EPH_relaxed_0001_pdb2pqr_Repair_406_r2_0001_out
     RDKit          3D

 82 86  0  0  0  0  0  0  0  0999 V2000
    2.3510   19.7360   -1.0090 C   0  0  0  0  0  0  0  0  0  0  0  0
    2.1410   18.8780    0.2420 C   0  0  2  0  0  0  0  0  0  0  0  0
    3.4760   18.4250    0.8670 C   0  0  0  0  0  0  0  0  0  0  0  0
    3.7650   19.0600    2.2300 C   0  0  0  0  0  0  0  0  0  0  0  0
    5.2370   19.1360    2.5050 C   0  0  2  0  0  0  0  0  0  0  0  0
    5.7440   18.0880    3.3410 O   0  0  0  0  0  0  0  0  0  0  0  0
    5.8170   19.4190    3.8770 C   0  0  0  0  0  0  0  0  0  0  0  0
    4.9370   19.6460    5.0660 C   0  0  0  0  0  0  0  0  0  0  0  0
    7.2120   19.9570    3.9670 C   0  0  0  0  0  0  0  0  0  0  0  0
    1.2860   17.6640   -0.0980 C   0  0  1  0  0  0  0  0  0  0  0  0
    0.1190   18.0050   -1.0630 C   0  0  0  0  0  0  0  0  0  0  0  0
   -0.0770   16.7730   -1.9820 C   0  0  0  0  0  0  0  0  0  0  0  0
    0.7460   15.6490   -1.3090 C   0  0  1  0  0  0  0  0  0  0  0  0
   -0.1740   15.1050   -0.1710 C   0  0  0  0  0  0  0  0  0  0  0  0
    1.2450   14.5020   -2.2460 C   0  0  2  0  0  0  0  0  0  0  0  0
    0.1330   13.6800   -2.9200 C   0  0  0  0  0  0  0  0  0  0  0  0
   -0.3230   12.4790   -2.1600 C   0  0  0  0  0  0  0  0  0  0  0  0
    0.3290   11.9140   -1.1260 C   0  0  0  0  0  0  0  0  0  0  0  0
    1.7060   12.4290   -0.6870 C   0  0  1  0  0  0  0  0  0  0  0  0
    2.6640   11.2280   -0.4750 C   0  0  0  0  0  0  0  0  0  0  0  0
    2.0960   10.1880    0.4860 C   0  0  0  0  0  0  0  0  0  0  0  0
    0.7550    9.6580   -0.0140 C   0  0  2  0  0  0  0  0  0  0  0  0
    0.9730    8.9160   -1.2180 O   0  0  0  0  0  0  0  0  0  0  0  0
   -0.2900   10.7790   -0.2730 C   0  0  0  0  0  0  0  0  0  0  0  0
   -0.7510   11.3820    1.0770 C   0  0  0  0  0  0  0  0  0  0  0  0
   -1.5460   10.1240   -0.9070 C   0  0  0  0  0  0  0  0  0  0  0  0
    2.3430   13.5660   -1.5960 C   0  0  1  0  0  0  0  0  0  0  0  0
    3.1340   12.9220   -2.7760 C   0  0  0  0  0  0  0  0  0  0  0  0
    3.3930   14.3750   -0.7470 C   0  0  0  0  0  0  0  0  0  0  0  0
    2.8570   15.5710    0.0640 C   0  0  0  0  0  0  0  0  0  0  0  0
    1.9850   16.4780   -0.8090 C   0  0  2  0  0  0  0  0  0  0  0  0
    2.8890   17.0580   -1.9490 C   0  0  0  0  0  0  0  0  0  0  0  0
    2.6027   20.7643   -0.7103 H   0  0  0  0  0  0  0  0  0  0  0  0
    3.1730   19.3165   -1.6076 H   0  0  0  0  0  0  0  0  0  0  0  0
    1.4282   19.7435   -1.6076 H   0  0  0  0  0  0  0  0  0  0  0  0
    1.6230   19.5003    0.9867 H   0  0  0  0  0  0  0  0  0  0  0  0
    3.4478   17.3325    0.9920 H   0  0  0  0  0  0  0  0  0  0  0  0
    4.2762   18.7493    0.1854 H   0  0  0  0  0  0  0  0  0  0  0  0
    3.3464   20.0771    2.2455 H   0  0  0  0  0  0  0  0  0  0  0  0
    3.3030   18.4320    3.0060 H   0  0  0  0  0  0  0  0  0  0  0  0
    5.4226   19.5860    1.5186 H   0  0  0  0  0  0  0  0  0  0  0  0
    5.5192   19.4958    5.9871 H   0  0  0  0  0  0  0  0  0  0  0  0
    4.5468   20.6742    5.0424 H   0  0  0  0  0  0  0  0  0  0  0  0
    4.0981   18.9348    5.0424 H   0  0  0  0  0  0  0  0  0  0  0  0
    7.4953   20.0663    5.0242 H   0  0  0  0  0  0  0  0  0  0  0  0
    7.9057   19.2619    3.4714 H   0  0  0  0  0  0  0  0  0  0  0  0
    7.2594   20.9379    3.4714 H   0  0  0  0  0  0  0  0  0  0  0  0
    0.9780   17.3671    0.9154 H   0  0  0  0  0  0  0  0  0  0  0  0
   -0.8001   18.2009   -0.4913 H   0  0  0  0  0  0  0  0  0  0  0  0
    0.3452   18.9054   -1.6531 H   0  0  0  0  0  0  0  0  0  0  0  0
   -1.1400   16.4956   -2.0381 H   0  0  0  0  0  0  0  0  0  0  0  0
    0.2484   16.9670   -3.0147 H   0  0  0  0  0  0  0  0  0  0  0  0
    0.2606   15.3620    0.8063 H   0  0  0  0  0  0  0  0  0  0  0  0
   -1.1726   15.5580   -0.2587 H   0  0  0  0  0  0  0  0  0  0  0  0
   -0.2583   14.0117   -0.2587 H   0  0  0  0  0  0  0  0  0  0  0  0
    1.7387   15.0575   -3.0570 H   0  0  0  0  0  0  0  0  0  0  0  0
   -0.7354   14.3391   -3.0666 H   0  0  0  0  0  0  0  0  0  0  0  0
    0.5622   13.3005   -3.8590 H   0  0  0  0  0  0  0  0  0  0  0  0
   -1.2715   12.0165   -2.4707 H   0  0  0  0  0  0  0  0  0  0  0  0
    1.5457   12.9511    0.2678 H   0  0  0  0  0  0  0  0  0  0  0  0
    2.8466   10.7469   -1.4472 H   0  0  0  0  0  0  0  0  0  0  0  0
    3.5938   11.6168   -0.0342 H   0  0  0  0  0  0  0  0  0  0  0  0
    2.8048    9.3511    0.5708 H   0  0  0  0  0  0  0  0  0  0  0  0
    1.9423   10.6628    1.4663 H   0  0  0  0  0  0  0  0  0  0  0  0
    0.3377    9.0182    0.7775 H   0  0  0  0  0  0  0  0  0  0  0  0
    1.4740    8.1160   -0.9850 H   0  0  0  0  0  0  0  0  0  0  0  0
   -0.3111   10.8066    1.9049 H   0  0  0  0  0  0  0  0  0  0  0  0
   -0.4212   12.4293    1.1425 H   0  0  0  0  0  0  0  0  0  0  0  0
   -1.8482   11.3384    1.1425 H   0  0  0  0  0  0  0  0  0  0  0  0
   -2.2184    9.7733   -0.1102 H   0  0  0  0  0  0  0  0  0  0  0  0
   -2.0702   10.8636   -1.5301 H   0  0  0  0  0  0  0  0  0  0  0  0
   -1.2396    9.2708   -1.5301 H   0  0  0  0  0  0  0  0  0  0  0  0
    3.9284   12.2752   -2.3752 H   0  0  0  0  0  0  0  0  0  0  0  0
    2.4487   12.3218   -3.3925 H   0  0  0  0  0  0  0  0  0  0  0  0
    3.5828   13.7148   -3.3925 H   0  0  0  0  0  0  0  0  0  0  0  0
    3.8589   13.6744   -0.0384 H   0  0  0  0  0  0  0  0  0  0  0  0
    4.0831   14.8125   -1.4834 H   0  0  0  0  0  0  0  0  0  0  0  0
    2.2560   15.1951    0.9051 H   0  0  0  0  0  0  0  0  0  0  0  0
    3.7122   16.1561    0.4332 H   0  0  0  0  0  0  0  0  0  0  0  0
    3.7359   17.6014   -1.5047 H   0  0  0  0  0  0  0  0  0  0  0  0
    3.2680   16.2340   -2.5715 H   0  0  0  0  0  0  0  0  0  0  0  0
    2.2980   17.7459   -2.5715 H   0  0  0  0  0  0  0  0  0  0  0  0
  1  2  1  0
  2  3  1  0
  3  4  1  0
  4  5  1  0
  5  6  1  0
  6  7  1  0
  7  8  1  0
  7  9  1  0
  2 10  1  0
 10 11  1  0
 11 12  1  0
 12 13  1  0
 13 14  1  1
 13 15  1  0
 15 16  1  0
 16 17  1  0
 17 18  2  0
 18 19  1  0
 19 20  1  0
 20 21  1  0
 21 22  1  0
 22 23  1  0
 22 24  1  0
 24 25  1  0
 24 26  1  0
 19 27  1  0
 27 28  1  6
 27 29  1  0
 29 30  1  0
 30 31  1  0
 31 32  1  6
  7  5  1  0
 31 10  1  0
 31 13  1  0
 27 15  1  0
 24 18  1  0
  1 33  1  0
  1 34  1  0
  1 35  1  0
  2 36  1  1
  3 37  1  0
  3 38  1  0
  4 39  1  0
  4 40  1  0
  5 41  1  6
  8 42  1  0
  8 43  1  0
  8 44  1  0
  9 45  1  0
  9 46  1  0
  9 47  1  0
 10 48  1  1
 11 49  1  0
 11 50  1  0
 12 51  1  0
 12 52  1  0
 14 53  1  0
 14 54  1  0
 14 55  1  0
 15 56  1  6
 16 57  1  0
 16 58  1  0
 17 59  1  0
 19 60  1  1
 20 61  1  0
 20 62  1  0
 21 63  1  0
 21 64  1  0
 22 65  1  1
 23 66  1  0
 25 67  1  0
 25 68  1  0
 25 69  1  0
 26 70  1  0
 26 71  1  0
 26 72  1  0
 28 73  1  0
 28 74  1  0
 28 75  1  0
 29 76  1  0
 29 77  1  0
 30 78  1  0
 30 79  1  0
 32 80  1  0
 32 81  1  0
 32 82  1  0
M  END
>  <meeko>  (2) 
{"is_sidechain": [false], "intermolecular_energy": 2.731, "internal_energy": -0.839}

$$$$
EPH_relaxed_0001_pdb2pqr_Repair_406_r2_0001_out
     RDKit          3D

 82 86  0  0  0  0  0  0  0  0999 V2000
   -3.3900    9.3380    0.5380 C   0  0  0  0  0  0  0  0  0  0  0  0
   -2.5620    9.6930   -0.7010 C   0  0  2  0  0  0  0  0  0  0  0  0
   -1.8990    8.4510   -1.3310 C   0  0  0  0  0  0  0  0  0  0  0  0
   -2.8170    7.6800   -2.2840 C   0  0  0  0  0  0  0  0  0  0  0  0
   -4.2550    7.7900   -1.8780 C   0  0  2  0  0  0  0  0  0  0  0  0
   -4.8070    6.6000   -1.3000 O   0  0  0  0  0  0  0  0  0  0  0  0
   -5.3760    7.0190   -2.5510 C   0  0  0  0  0  0  0  0  0  0  0  0
   -5.1060    6.0820   -3.6860 C   0  0  0  0  0  0  0  0  0  0  0  0
   -6.7740    7.5400   -2.4330 C   0  0  0  0  0  0  0  0  0  0  0  0
   -1.5000   10.7240   -0.3390 C   0  0  1  0  0  0  0  0  0  0  0  0
   -0.3900   10.1410    0.5760 C   0  0  0  0  0  0  0  0  0  0  0  0
    0.9350   10.8370    0.1700 C   0  0  0  0  0  0  0  0  0  0  0  0
    0.4960   12.0220   -0.7220 C   0  0  1  0  0  0  0  0  0  0  0  0
    0.0680   13.1410    0.2790 C   0  0  0  0  0  0  0  0  0  0  0  0
    1.5530   12.5410   -1.7500 C   0  0  2  0  0  0  0  0  0  0  0  0
    2.8420   13.1090   -1.1310 C   0  0  0  0  0  0  0  0  0  0  0  0
    2.8190   14.5730   -0.8410 C   0  0  0  0  0  0  0  0  0  0  0  0
    1.9210   15.4520   -1.3250 C   0  0  0  0  0  0  0  0  0  0  0  0
    0.8550   15.0130   -2.3360 C   0  0  1  0  0  0  0  0  0  0  0  0
    0.7890   16.0380   -3.4980 C   0  0  0  0  0  0  0  0  0  0  0  0
    0.5740   17.4660   -3.0060 C   0  0  0  0  0  0  0  0  0  0  0  0
    1.6860   17.8870   -2.0490 C   0  0  2  0  0  0  0  0  0  0  0  0
    2.9160   17.9650   -2.7760 O   0  0  0  0  0  0  0  0  0  0  0  0
    1.8530   16.9220   -0.8420 C   0  0  0  0  0  0  0  0  0  0  0  0
    0.6390   17.0640    0.1100 C   0  0  0  0  0  0  0  0  0  0  0  0
    3.0960   17.3800   -0.0320 C   0  0  0  0  0  0  0  0  0  0  0  0
    0.9630   13.5130   -2.8510 C   0  0  1  0  0  0  0  0  0  0  0  0
    1.9280   13.4390   -4.0740 C   0  0  0  0  0  0  0  0  0  0  0  0
   -0.4470   13.0440   -3.3700 C   0  0  0  0  0  0  0  0  0  0  0  0
   -1.4020   12.4300   -2.3280 C   0  0  0  0  0  0  0  0  0  0  0  0
   -0.6930   11.3520   -1.5030 C   0  0  2  0  0  0  0  0  0  0  0  0
   -0.2700   10.2020   -2.4800 C   0  0  0  0  0  0  0  0  0  0  0  0
   -2.8173    9.5836    1.4445 H   0  0  0  0  0  0  0  0  0  0  0  0
   -4.3276    9.9132    0.5296 H   0  0  0  0  0  0  0  0  0  0  0  0
   -3.6197    8.2623    0.5296 H   0  0  0  0  0  0  0  0  0  0  0  0
   -3.2493   10.1154   -1.4488 H   0  0  0  0  0  0  0  0  0  0  0  0
   -1.0115    8.7783   -1.8925 H   0  0  0  0  0  0  0  0  0  0  0  0
   -1.6457    7.7686   -0.5063 H   0  0  0  0  0  0  0  0  0  0  0  0
   -2.7009    8.0880   -3.2989 H   0  0  0  0  0  0  0  0  0  0  0  0
   -2.5316    6.6182   -2.2511 H   0  0  0  0  0  0  0  0  0  0  0  0
   -4.1311    8.8574   -1.6427 H   0  0  0  0  0  0  0  0  0  0  0  0
   -4.8220    5.0965   -3.2883 H   0  0  0  0  0  0  0  0  0  0  0  0
   -6.0118    5.9817   -4.3020 H   0  0  0  0  0  0  0  0  0  0  0  0
   -4.2857    6.4790   -4.3020 H   0  0  0  0  0  0  0  0  0  0  0  0
   -7.0399    7.6391   -1.3702 H   0  0  0  0  0  0  0  0  0  0  0  0
   -6.8412    8.5235   -2.9210 H   0  0  0  0  0  0  0  0  0  0  0  0
   -7.4685    6.8403   -2.9210 H   0  0  0  0  0  0  0  0  0  0  0  0
   -2.1362   11.4876    0.1324 H   0  0  0  0  0  0  0  0  0  0  0  0
   -0.6201   10.3502    1.6311 H   0  0  0  0  0  0  0  0  0  0  0  0
   -0.3149    9.0497    0.4599 H   0  0  0  0  0  0  0  0  0  0  0  0
    1.4721   11.1985    1.0593 H   0  0  0  0  0  0  0  0  0  0  0  0
    1.6219   10.1543   -0.3516 H   0  0  0  0  0  0  0  0  0  0  0  0
    0.2050   12.7827    1.3100 H   0  0  0  0  0  0  0  0  0  0  0  0
    0.6876   14.0352    0.1162 H   0  0  0  0  0  0  0  0  0  0  0  0
   -0.9902   13.3935    0.1162 H   0  0  0  0  0  0  0  0  0  0  0  0
    1.8526   11.6173   -2.2668 H   0  0  0  0  0  0  0  0  0  0  0  0
    3.0276   12.5782   -0.1856 H   0  0  0  0  0  0  0  0  0  0  0  0
    3.6315   12.9601   -1.8824 H   0  0  0  0  0  0  0  0  0  0  0  0
    3.6015   14.9671   -0.1759 H   0  0  0  0  0  0  0  0  0  0  0  0
   -0.0988   15.0082   -1.7881 H   0  0  0  0  0  0  0  0  0  0  0  0
    1.7344   15.9967   -4.0589 H   0  0  0  0  0  0  0  0  0  0  0  0
   -0.0693   15.7700   -4.1316 H   0  0  0  0  0  0  0  0  0  0  0  0
    0.5657   18.1469   -3.8699 H   0  0  0  0  0  0  0  0  0  0  0  0
   -0.3858   17.5119   -2.4706 H   0  0  0  0  0  0  0  0  0  0  0  0
    1.4087   18.8664   -1.6320 H   0  0  0  0  0  0  0  0  0  0  0  0
    3.3080   18.8360   -2.5980 H   0  0  0  0  0  0  0  0  0  0  0  0
    0.9846   17.0236    1.1535 H   0  0  0  0  0  0  0  0  0  0  0  0
    0.1395   18.0267   -0.0738 H   0  0  0  0  0  0  0  0  0  0  0  0
   -0.0691   16.2426   -0.0738 H   0  0  0  0  0  0  0  0  0  0  0  0
    2.8819   17.3011    1.0441 H   0  0  0  0  0  0  0  0  0  0  0  0
    3.9539   16.7389   -0.2831 H   0  0  0  0  0  0  0  0  0  0  0  0
    3.3328   18.4244   -0.2831 H   0  0  0  0  0  0  0  0  0  0  0  0
    2.9657   13.3594   -3.7180 H   0  0  0  0  0  0  0  0  0  0  0  0
    1.6808   12.5572   -4.6833 H   0  0  0  0  0  0  0  0  0  0  0  0
    1.8181   14.3482   -4.6833 H   0  0  0  0  0  0  0  0  0  0  0  0
   -0.9493   13.9200   -3.8063 H   0  0  0  0  0  0  0  0  0  0  0  0
   -0.2363   12.2317   -4.0812 H   0  0  0  0  0  0  0  0  0  0  0  0
   -1.7574   13.2234   -1.6540 H   0  0  0  0  0  0  0  0  0  0  0  0
   -2.2479   11.9670   -2.8573 H   0  0  0  0  0  0  0  0  0  0  0  0
    0.0522    9.3261   -1.8977 H   0  0  0  0  0  0  0  0  0  0  0  0
   -1.1256    9.9263   -3.1140 H   0  0  0  0  0  0  0  0  0  0  0  0
    0.5603   10.5464   -3.1140 H   0  0  0  0  0  0  0  0  0  0  0  0
  1  2  1  0
  2  3  1  0
  3  4  1  0
  4  5  1  0
  5  6  1  0
  6  7  1  0
  7  8  1  0
  7  9  1  0
  2 10  1  0
 10 11  1  0
 11 12  1  0
 12 13  1  0
 13 14  1  1
 13 15  1  0
 15 16  1  0
 16 17  1  0
 17 18  2  0
 18 19  1  0
 19 20  1  0
 20 21  1  0
 21 22  1  0
 22 23  1  0
 22 24  1  0
 24 25  1  0
 24 26  1  0
 19 27  1  0
 27 28  1  6
 27 29  1  0
 29 30  1  0
 30 31  1  0
 31 32  1  6
  7  5  1  0
 31 10  1  0
 31 13  1  0
 27 15  1  0
 24 18  1  0
  1 33  1  0
  1 34  1  0
  1 35  1  0
  2 36  1  6
  3 37  1  0
  3 38  1  0
  4 39  1  0
  4 40  1  0
  5 41  1  1
  8 42  1  0
  8 43  1  0
  8 44  1  0
  9 45  1  0
  9 46  1  0
  9 47  1  0
 10 48  1  1
 11 49  1  0
 11 50  1  0
 12 51  1  0
 12 52  1  0
 14 53  1  0
 14 54  1  0
 14 55  1  0
 15 56  1  6
 16 57  1  0
 16 58  1  0
 17 59  1  0
 19 60  1  1
 20 61  1  0
 20 62  1  0
 21 63  1  0
 21 64  1  0
 22 65  1  1
 23 66  1  0
 25 67  1  0
 25 68  1  0
 25 69  1  0
 26 70  1  0
 26 71  1  0
 26 72  1  0
 28 73  1  0
 28 74  1  0
 28 75  1  0
 29 76  1  0
 29 77  1  0
 30 78  1  0
 30 79  1  0
 32 80  1  0
 32 81  1  0
 32 82  1  0
M  END
>  <meeko>  (3) 
{"is_sidechain": [false], "intermolecular_energy": 2.731, "internal_energy": -0.839}

$$$$
EPH_relaxed_0001_pdb2pqr_Repair_406_r2_0001_out
     RDKit          3D

 82 86  0  0  0  0  0  0  0  0999 V2000
    0.3990   18.4890   -0.0540 C   0  0  0  0  0  0  0  0  0  0  0  0
    1.4750   17.4140   -0.2280 C   0  0  2  0  0  0  0  0  0  0  0  0
    2.7190   17.9520   -0.9650 C   0  0  0  0  0  0  0  0  0  0  0  0
    3.9430   18.1230   -0.0610 C   0  0  0  0  0  0  0  0  0  0  0  0
    3.5620   18.6150    1.3020 C   0  0  2  0  0  0  0  0  0  0  0  0
    3.7660   20.0190    1.5110 O   0  0  0  0  0  0  0  0  0  0  0  0
    4.5650   19.1360    2.3140 C   0  0  0  0  0  0  0  0  0  0  0  0
    6.0280   19.1890    2.0060 C   0  0  0  0  0  0  0  0  0  0  0  0
    4.1870   19.1320    3.7630 C   0  0  0  0  0  0  0  0  0  0  0  0
    0.9010   16.2200   -0.9800 C   0  0  1  0  0  0  0  0  0  0  0  0
    0.7300   16.4950   -2.4980 C   0  0  0  0  0  0  0  0  0  0  0  0
    1.0210   15.1590   -3.2300 C   0  0  0  0  0  0  0  0  0  0  0  0
    1.0220   14.0930   -2.1100 C   0  0  1  0  0  0  0  0  0  0  0  0
   -0.4850   13.7720   -1.8600 C   0  0  0  0  0  0  0  0  0  0  0  0
    1.8490   12.7960   -2.3910 C   0  0  2  0  0  0  0  0  0  0  0  0
    1.3620   11.9580   -3.5860 C   0  0  0  0  0  0  0  0  0  0  0  0
    0.3540   10.9070   -3.2600 C   0  0  0  0  0  0  0  0  0  0  0  0
    0.0690   10.4530   -2.0250 C   0  0  0  0  0  0  0  0  0  0  0  0
    0.8640   10.9380   -0.8050 C   0  0  1  0  0  0  0  0  0  0  0  0
    1.2600    9.7210    0.0720 C   0  0  0  0  0  0  0  0  0  0  0  0
    0.0580    8.8650    0.4610 C   0  0  0  0  0  0  0  0  0  0  0  0
   -0.6710    8.3540   -0.7790 C   0  0  2  0  0  0  0  0  0  0  0  0
    0.1830    7.4380   -1.4720 O   0  0  0  0  0  0  0  0  0  0  0  0
   -1.1110    9.4910   -1.7440 C   0  0  0  0  0  0  0  0  0  0  0  0
   -2.2590   10.3050   -1.0990 C   0  0  0  0  0  0  0  0  0  0  0  0
   -1.7070    8.8320   -3.0170 C   0  0  0  0  0  0  0  0  0  0  0  0
    2.0950   11.8940   -1.1150 C   0  0  1  0  0  0  0  0  0  0  0  0
    3.3680   11.0430   -1.4090 C   0  0  0  0  0  0  0  0  0  0  0  0
    2.4190   12.7470    0.1680 C   0  0  0  0  0  0  0  0  0  0  0  0
    1.6560   14.0760    0.3290 C   0  0  0  0  0  0  0  0  0  0  0  0
    1.7190   14.9040   -0.9580 C   0  0  2  0  0  0  0  0  0  0  0  0
    3.2220   15.2610   -1.2230 C   0  0  0  0  0  0  0  0  0  0  0  0
    0.2247   18.6632    1.0180 H   0  0  0  0  0  0  0  0  0  0  0  0
    0.7344   19.4235   -0.5275 H   0  0  0  0  0  0  0  0  0  0  0  0
   -0.5352   18.1528   -0.5275 H   0  0  0  0  0  0  0  0  0  0  0  0
    1.7952   17.1011    0.7768 H   0  0  0  0  0  0  0  0  0  0  0  0
    2.9773   17.2483   -1.7700 H   0  0  0  0  0  0  0  0  0  0  0  0
    2.4597   18.9501   -1.3478 H   0  0  0  0  0  0  0  0  0  0  0  0
    4.4501   17.1521    0.0395 H   0  0  0  0  0  0  0  0  0  0  0  0
    4.6071   18.8694   -0.5213 H   0  0  0  0  0  0  0  0  0  0  0  0
    2.7622   17.8633    1.3753 H   0  0  0  0  0  0  0  0  0  0  0  0
    6.5999   19.2097    2.9454 H   0  0  0  0  0  0  0  0  0  0  0  0
    6.3124   18.3006    1.4231 H   0  0  0  0  0  0  0  0  0  0  0  0
    6.2474   20.0957    1.4231 H   0  0  0  0  0  0  0  0  0  0  0  0
    5.0979   19.1416    4.3796 H   0  0  0  0  0  0  0  0  0  0  0  0
    3.5832   20.0238    3.9869 H   0  0  0  0  0  0  0  0  0  0  0  0
    3.6022   18.2276    3.9869 H   0  0  0  0  0  0  0  0  0  0  0  0
   -0.0388   16.0878   -0.4239 H   0  0  0  0  0  0  0  0  0  0  0  0
   -0.2972   16.8270   -2.7095 H   0  0  0  0  0  0  0  0  0  0  0  0
    1.4141   17.2875   -2.8355 H   0  0  0  0  0  0  0  0  0  0  0  0
    0.2370   14.9433   -3.9708 H   0  0  0  0  0  0  0  0  0  0  0  0
    1.9718   15.1845   -3.7826 H   0  0  0  0  0  0  0  0  0  0  0  0
   -0.6765   13.7312   -0.7776 H   0  0  0  0  0  0  0  0  0  0  0  0
   -1.1073   14.5577   -2.3131 H   0  0  0  0  0  0  0  0  0  0  0  0
   -0.7331   12.8009   -2.3131 H   0  0  0  0  0  0  0  0  0  0  0  0
    2.8276   13.2008   -2.6884 H   0  0  0  0  0  0  0  0  0  0  0  0
    0.9134   12.6427   -4.3208 H   0  0  0  0  0  0  0  0  0  0  0  0
    2.2466   11.4241   -3.9634 H   0  0  0  0  0  0  0  0  0  0  0  0
   -0.2032   10.4660   -4.0997 H   0  0  0  0  0  0  0  0  0  0  0  0
    0.1867   11.5980   -0.2431 H   0  0  0  0  0  0  0  0  0  0  0  0
    1.9701    9.0971   -0.4905 H   0  0  0  0  0  0  0  0  0  0  0  0
    1.7081   10.1087    0.9988 H   0  0  0  0  0  0  0  0  0  0  0  0
    0.4045    8.0062    1.0546 H   0  0  0  0  0  0  0  0  0  0  0  0
   -0.6377    9.4823    1.0483 H   0  0  0  0  0  0  0  0  0  0  0  0
   -1.5920    7.8581   -0.4386 H   0  0  0  0  0  0  0  0  0  0  0  0
    1.0950    7.6070   -1.1780 H   0  0  0  0  0  0  0  0  0  0  0  0
   -2.1784   10.2479   -0.0034 H   0  0  0  0  0  0  0  0  0  0  0  0
   -2.1877   11.3554   -1.4176 H   0  0  0  0  0  0  0  0  0  0  0  0
   -3.2266    9.8901   -1.4176 H   0  0  0  0  0  0  0  0  0  0  0  0
   -2.4182    8.0456   -2.7241 H   0  0  0  0  0  0  0  0  0  0  0  0
   -2.2287    9.5942   -3.6145 H   0  0  0  0  0  0  0  0  0  0  0  0
   -0.8964    8.3893   -3.6145 H   0  0  0  0  0  0  0  0  0  0  0  0
    3.8299   10.7342   -0.4596 H   0  0  0  0  0  0  0  0  0  0  0  0
    3.0869   10.1505   -1.9874 H   0  0  0  0  0  0  0  0  0  0  0  0
    4.0852   11.6439   -1.9874 H   0  0  0  0  0  0  0  0  0  0  0  0
    2.1935   12.1251    1.0469 H   0  0  0  0  0  0  0  0  0  0  0  0
    3.4763   13.0325    0.0647 H   0  0  0  0  0  0  0  0  0  0  0  0
    0.6039   13.8603    0.5669 H   0  0  0  0  0  0  0  0  0  0  0  0
    2.1239   14.6529    1.1403 H   0  0  0  0  0  0  0  0  0  0  0  0
    3.7442   15.3850   -0.2628 H   0  0  0  0  0  0  0  0  0  0  0  0
    3.6959   14.4504   -1.7961 H   0  0  0  0  0  0  0  0  0  0  0  0
    3.2808   16.1981   -1.7961 H   0  0  0  0  0  0  0  0  0  0  0  0
  1  2  1  0
  2  3  1  0
  3  4  1  0
  4  5  1  0
  5  6  1  0
  6  7  1  0
  7  8  1  0
  7  9  1  0
  2 10  1  0
 10 11  1  0
 11 12  1  0
 12 13  1  0
 13 14  1  1
 13 15  1  0
 15 16  1  0
 16 17  1  0
 17 18  2  0
 18 19  1  0
 19 20  1  0
 20 21  1  0
 21 22  1  0
 22 23  1  0
 22 24  1  0
 24 25  1  0
 24 26  1  0
 19 27  1  0
 27 28  1  6
 27 29  1  0
 29 30  1  0
 30 31  1  0
 31 32  1  6
  7  5  1  0
 31 10  1  0
 31 13  1  0
 27 15  1  0
 24 18  1  0
  1 33  1  0
  1 34  1  0
  1 35  1  0
  2 36  1  1
  3 37  1  0
  3 38  1  0
  4 39  1  0
  4 40  1  0
  5 41  1  1
  8 42  1  0
  8 43  1  0
  8 44  1  0
  9 45  1  0
  9 46  1  0
  9 47  1  0
 10 48  1  1
 11 49  1  0
 11 50  1  0
 12 51  1  0
 12 52  1  0
 14 53  1  0
 14 54  1  0
 14 55  1  0
 15 56  1  6
 16 57  1  0
 16 58  1  0
 17 59  1  0
 19 60  1  1
 20 61  1  0
 20 62  1  0
 21 63  1  0
 21 64  1  0
 22 65  1  1
 23 66  1  0
 25 67  1  0
 25 68  1  0
 25 69  1  0
 26 70  1  0
 26 71  1  0
 26 72  1  0
 28 73  1  0
 28 74  1  0
 28 75  1  0
 29 76  1  0
 29 77  1  0
 30 78  1  0
 30 79  1  0
 32 80  1  0
 32 81  1  0
 32 82  1  0
M  END
>  <meeko>  (4) 
{"is_sidechain": [false], "intermolecular_energy": 2.731, "internal_energy": -0.839}

$$$$
EPH_relaxed_0001_pdb2pqr_Repair_406_r2_0001_out
     RDKit          3D

 82 86  0  0  0  0  0  0  0  0999 V2000
    2.2180   17.9760   -2.4840 C   0  0  0  0  0  0  0  0  0  0  0  0
    0.7020   17.8610   -2.6640 C   0  0  2  0  0  0  0  0  0  0  0  0
   -0.0690   18.3740   -1.4310 C   0  0  0  0  0  0  0  0  0  0  0  0
    0.5490   17.9470   -0.0970 C   0  0  0  0  0  0  0  0  0  0  0  0
    1.0620   19.1220    0.6780 C   0  0  2  0  0  0  0  0  0  0  0  0
    1.9390   19.9870   -0.0570 O   0  0  0  0  0  0  0  0  0  0  0  0
    2.5190   19.2980    1.0620 C   0  0  0  0  0  0  0  0  0  0  0  0
    3.5540   18.2860    0.6840 C   0  0  0  0  0  0  0  0  0  0  0  0
    2.8520   20.1940    2.2140 C   0  0  0  0  0  0  0  0  0  0  0  0
    0.3210   16.4140   -2.9520 C   0  0  1  0  0  0  0  0  0  0  0  0
    0.3680   16.0730   -4.4650 C   0  0  0  0  0  0  0  0  0  0  0  0
    0.8470   14.6030   -4.5780 C   0  0  0  0  0  0  0  0  0  0  0  0
    0.7400   14.0460   -3.1390 C   0  0  1  0  0  0  0  0  0  0  0  0
   -0.7660   13.6750   -2.9630 C   0  0  0  0  0  0  0  0  0  0  0  0
    1.6760   12.8420   -2.7920 C   0  0  2  0  0  0  0  0  0  0  0  0
    1.4280   11.5650   -3.6140 C   0  0  0  0  0  0  0  0  0  0  0  0
    0.4450   10.6080   -3.0240 C   0  0  0  0  0  0  0  0  0  0  0  0
    0.0020   10.6260   -1.7530 C   0  0  0  0  0  0  0  0  0  0  0  0
    0.5710   11.6230   -0.7350 C   0  0  1  0  0  0  0  0  0  0  0  0
    0.9000   10.8820    0.5870 C   0  0  0  0  0  0  0  0  0  0  0  0
   -0.2940   10.1050    1.1350 C   0  0  0  0  0  0  0  0  0  0  0  0
   -0.7940    9.0840    0.1160 C   0  0  2  0  0  0  0  0  0  0  0  0
    0.2090    8.0780   -0.0580 O   0  0  0  0  0  0  0  0  0  0  0  0
   -1.1470    9.7140   -1.2600 C   0  0  0  0  0  0  0  0  0  0  0  0
   -2.4270   10.5750   -1.1250 C   0  0  0  0  0  0  0  0  0  0  0  0
   -1.5020    8.5600   -2.2360 C   0  0  0  0  0  0  0  0  0  0  0  0
    1.7760   12.5240   -1.2460 C   0  0  1  0  0  0  0  0  0  0  0  0
    3.1280   11.7760   -1.0320 C   0  0  0  0  0  0  0  0  0  0  0  0
    1.8490   13.8300   -0.3690 C   0  0  0  0  0  0  0  0  0  0  0  0
    0.9930   15.0250   -0.8310 C   0  0  0  0  0  0  0  0  0  0  0  0
    1.2030   15.3070   -2.3220 C   0  0  2  0  0  0  0  0  0  0  0  0
    2.7050   15.7050   -2.5260 C   0  0  0  0  0  0  0  0  0  0  0  0
    2.4595   17.9943   -1.4110 H   0  0  0  0  0  0  0  0  0  0  0  0
    2.7098   17.1126   -2.9558 H   0  0  0  0  0  0  0  0  0  0  0  0
    2.5739   18.9037   -2.9558 H   0  0  0  0  0  0  0  0  0  0  0  0
    0.4206   18.4958   -3.5171 H   0  0  0  0  0  0  0  0  0  0  0  0
   -0.0907   19.4732   -1.4676 H   0  0  0  0  0  0  0  0  0  0  0  0
   -1.0756   17.9325   -1.4748 H   0  0  0  0  0  0  0  0  0  0  0  0
   -0.2166   17.4319    0.5018 H   0  0  0  0  0  0  0  0  0  0  0  0
    1.3975   17.2803   -0.3103 H   0  0  0  0  0  0  0  0  0  0  0  0
    0.1329   19.1713    1.2649 H   0  0  0  0  0  0  0  0  0  0  0  0
    3.9950   17.8548    1.5948 H   0  0  0  0  0  0  0  0  0  0  0  0
    3.0861   17.4874    0.0896 H   0  0  0  0  0  0  0  0  0  0  0  0
    4.3419   18.7717    0.0896 H   0  0  0  0  0  0  0  0  0  0  0  0
    2.6555   19.6653    3.1584 H   0  0  0  0  0  0  0  0  0  0  0  0
    3.9145   20.4746    2.1651 H   0  0  0  0  0  0  0  0  0  0  0  0
    2.2307   21.1004    2.1651 H   0  0  0  0  0  0  0  0  0  0  0  0
   -0.6833   16.3959   -2.5035 H   0  0  0  0  0  0  0  0  0  0  0  0
   -0.6328   16.1804   -4.9087 H   0  0  0  0  0  0  0  0  0  0  0  0
    1.0471   16.7518   -5.0017 H   0  0  0  0  0  0  0  0  0  0  0  0
    0.2002   14.0354   -5.2632 H   0  0  0  0  0  0  0  0  0  0  0  0
    1.8681   14.5267   -4.9800 H   0  0  0  0  0  0  0  0  0  0  0  0
   -1.0062   13.6158   -1.8912 H   0  0  0  0  0  0  0  0  0  0  0  0
   -1.3914   14.4459   -3.4369 H   0  0  0  0  0  0  0  0  0  0  0  0
   -0.9617   12.7018   -3.4369 H   0  0  0  0  0  0  0  0  0  0  0  0
    2.6631   13.2121   -3.1060 H   0  0  0  0  0  0  0  0  0  0  0  0
    1.0573   11.8653   -4.6051 H   0  0  0  0  0  0  0  0  0  0  0  0
    2.3898   11.0322   -3.6465 H   0  0  0  0  0  0  0  0  0  0  0  0
    0.0495    9.8218   -3.6839 H   0  0  0  0  0  0  0  0  0  0  0  0
   -0.2222   12.3646   -0.5596 H   0  0  0  0  0  0  0  0  0  0  0  0
    1.7238   10.1773    0.4007 H   0  0  0  0  0  0  0  0  0  0  0  0
    1.1769   11.6399    1.3347 H   0  0  0  0  0  0  0  0  0  0  0  0
    0.0089    9.5793    2.0526 H   0  0  0  0  0  0  0  0  0  0  0  0
   -1.1067   10.8147    1.3491 H   0  0  0  0  0  0  0  0  0  0  0  0
   -1.7255    8.6523    0.5108 H   0  0  0  0  0  0  0  0  0  0  0  0
    0.3630    7.6630    0.8070 H   0  0  0  0  0  0  0  0  0  0  0  0
   -2.6551   10.7284   -0.0599 H   0  0  0  0  0  0  0  0  0  0  0  0
   -2.2663   11.5493   -1.6096 H   0  0  0  0  0  0  0  0  0  0  0  0
   -3.2689   10.0589   -1.6096 H   0  0  0  0  0  0  0  0  0  0  0  0
   -1.7775    7.6643   -1.6600 H   0  0  0  0  0  0  0  0  0  0  0  0
   -2.3484    8.8631   -2.8698 H   0  0  0  0  0  0  0  0  0  0  0  0
   -0.6315    8.3350   -2.8698 H   0  0  0  0  0  0  0  0  0  0  0  0
    3.3213   11.6691    0.0456 H   0  0  0  0  0  0  0  0  0  0  0  0
    3.0733   10.7798   -1.4953 H   0  0  0  0  0  0  0  0  0  0  0  0
    3.9428   12.3516   -1.4953 H   0  0  0  0  0  0  0  0  0  0  0  0
    1.5290   13.5653    0.6496 H   0  0  0  0  0  0  0  0  0  0  0  0
    2.8909   14.1735   -0.4498 H   0  0  0  0  0  0  0  0  0  0  0  0
   -0.0684   14.7969   -0.6541 H   0  0  0  0  0  0  0  0  0  0  0  0
    1.2963   15.9149   -0.2600 H   0  0  0  0  0  0  0  0  0  0  0  0
    3.1869   15.8327   -1.5455 H   0  0  0  0  0  0  0  0  0  0  0  0
    3.2212   14.9126   -3.0879 H   0  0  0  0  0  0  0  0  0  0  0  0
    2.7611   16.6490   -3.0879 H   0  0  0  0  0  0  0  0  0  0  0  0
  1  2  1  0
  2  3  1  0
  3  4  1  0
  4  5  1  0
  5  6  1  0
  6  7  1  0
  7  8  1  0
  7  9  1  0
  2 10  1  0
 10 11  1  0
 11 12  1  0
 12 13  1  0
 13 14  1  1
 13 15  1  0
 15 16  1  0
 16 17  1  0
 17 18  2  0
 18 19  1  0
 19 20  1  0
 20 21  1  0
 21 22  1  0
 22 23  1  0
 22 24  1  0
 24 25  1  0
 24 26  1  0
 19 27  1  0
 27 28  1  6
 27 29  1  0
 29 30  1  0
 30 31  1  0
 31 32  1  1
  7  5  1  0
 31 10  1  0
 31 13  1  0
 27 15  1  0
 24 18  1  0
  1 33  1  0
  1 34  1  0
  1 35  1  0
  2 36  1  6
  3 37  1  0
  3 38  1  0
  4 39  1  0
  4 40  1  0
  5 41  1  1
  8 42  1  0
  8 43  1  0
  8 44  1  0
  9 45  1  0
  9 46  1  0
  9 47  1  0
 10 48  1  1
 11 49  1  0
 11 50  1  0
 12 51  1  0
 12 52  1  0
 14 53  1  0
 14 54  1  0
 14 55  1  0
 15 56  1  6
 16 57  1  0
 16 58  1  0
 17 59  1  0
 19 60  1  1
 20 61  1  0
 20 62  1  0
 21 63  1  0
 21 64  1  0
 22 65  1  1
 23 66  1  0
 25 67  1  0
 25 68  1  0
 25 69  1  0
 26 70  1  0
 26 71  1  0
 26 72  1  0
 28 73  1  0
 28 74  1  0
 28 75  1  0
 29 76  1  0
 29 77  1  0
 30 78  1  0
 30 79  1  0
 32 80  1  0
 32 81  1  0
 32 82  1  0
M  END
>  <meeko>  (5) 
{"is_sidechain": [false], "intermolecular_energy": 2.731, "internal_energy": -0.839}

$$$$
EPH_relaxed_0001_pdb2pqr_Repair_406_r2_0001_out
     RDKit          3D

 82 86  0  0  0  0  0  0  0  0999 V2000
    3.6970   17.9480    0.7740 C   0  0  0  0  0  0  0  0  0  0  0  0
    2.6830   18.3640   -0.2940 C   0  0  2  0  0  0  0  0  0  0  0  0
    1.9430   19.6640    0.0810 C   0  0  0  0  0  0  0  0  0  0  0  0
    0.7470   19.4450    1.0100 C   0  0  0  0  0  0  0  0  0  0  0  0
   -0.4990   20.0810    0.4700 C   0  0  2  0  0  0  0  0  0  0  0  0
   -1.5710   20.1940    1.4140 O   0  0  0  0  0  0  0  0  0  0  0  0
   -1.8070   19.3350    0.2870 C   0  0  0  0  0  0  0  0  0  0  0  0
   -1.9360   17.8870    0.6430 C   0  0  0  0  0  0  0  0  0  0  0  0
   -2.8100   19.8760   -0.6840 C   0  0  0  0  0  0  0  0  0  0  0  0
    1.6780   17.2410   -0.5220 C   0  0  1  0  0  0  0  0  0  0  0  0
    0.4770   17.6820   -1.4000 C   0  0  0  0  0  0  0  0  0  0  0  0
    0.0740   16.4550   -2.2570 C   0  0  0  0  0  0  0  0  0  0  0  0
    0.8270   15.2660   -1.6150 C   0  0  1  0  0  0  0  0  0  0  0  0
   -0.0450   14.8540   -0.3890 C   0  0  0  0  0  0  0  0  0  0  0  0
    1.1210   14.0480   -2.5500 C   0  0  2  0  0  0  0  0  0  0  0  0
   -0.1240   13.3340   -3.1030 C   0  0  0  0  0  0  0  0  0  0  0  0
   -0.6390   12.2100   -2.2670 C   0  0  0  0  0  0  0  0  0  0  0  0
    0.0350   11.6040   -1.2710 C   0  0  0  0  0  0  0  0  0  0  0  0
    1.4900   11.9780   -0.9630 C   0  0  1  0  0  0  0  0  0  0  0  0
    2.3310   10.6860   -0.7890 C   0  0  0  0  0  0  0  0  0  0  0  0
    1.7390    9.7390    0.2500 C   0  0  0  0  0  0  0  0  0  0  0  0
    0.3120    9.3440   -0.1210 C   0  0  2  0  0  0  0  0  0  0  0  0
    0.3480    8.5530   -1.3130 O   0  0  0  0  0  0  0  0  0  0  0  0
   -0.6260   10.5650   -0.3320 C   0  0  0  0  0  0  0  0  0  0  0  0
   -0.9050   11.2480    1.0290 C   0  0  0  0  0  0  0  0  0  0  0  0
   -1.9940   10.0340   -0.8390 C   0  0  0  0  0  0  0  0  0  0  0  0
    2.1650   13.0150   -1.9600 C   0  0  1  0  0  0  0  0  0  0  0  0
    2.7810   12.2600   -3.1780 C   0  0  0  0  0  0  0  0  0  0  0  0
    3.3630   13.7280   -1.2270 C   0  0  0  0  0  0  0  0  0  0  0  0
    3.0270   14.9940   -0.4170 C   0  0  0  0  0  0  0  0  0  0  0  0
    2.1850   15.9690   -1.2470 C   0  0  2  0  0  0  0  0  0  0  0  0
    3.0450   16.4180   -2.4760 C   0  0  0  0  0  0  0  0  0  0  0  0
    3.2703   18.1230    1.7727 H   0  0  0  0  0  0  0  0  0  0  0  0
    3.9339   16.8800    0.6585 H   0  0  0  0  0  0  0  0  0  0  0  0
    4.6157   18.5419    0.6585 H   0  0  0  0  0  0  0  0  0  0  0  0
    3.2416   18.5581   -1.2215 H   0  0  0  0  0  0  0  0  0  0  0  0
    2.6544   20.3360    0.5833 H   0  0  0  0  0  0  0  0  0  0  0  0
    1.5502   20.0912   -0.8534 H   0  0  0  0  0  0  0  0  0  0  0  0
    0.5758   18.3642    1.1218 H   0  0  0  0  0  0  0  0  0  0  0  0
    0.9767   19.9104    1.9799 H   0  0  0  0  0  0  0  0  0  0  0  0
    0.0906   20.7141   -0.2094 H   0  0  0  0  0  0  0  0  0  0  0  0
   -1.9457   17.7780    1.7375 H   0  0  0  0  0  0  0  0  0  0  0  0
   -2.8731   17.4891    0.2266 H   0  0  0  0  0  0  0  0  0  0  0  0
   -1.0839   17.3297    0.2266 H   0  0  0  0  0  0  0  0  0  0  0  0
   -3.6476   20.3278   -0.1324 H   0  0  0  0  0  0  0  0  0  0  0  0
   -2.3333   20.6393   -1.3165 H   0  0  0  0  0  0  0  0  0  0  0  0
   -3.1860   19.0584   -1.3165 H   0  0  0  0  0  0  0  0  0  0  0  0
    1.4268   17.0047    0.5225 H   0  0  0  0  0  0  0  0  0  0  0  0
   -0.3644   17.9915   -0.7627 H   0  0  0  0  0  0  0  0  0  0  0  0
    0.7471   18.5369   -2.0374 H   0  0  0  0  0  0  0  0  0  0  0  0
   -1.0133   16.2934   -2.2166 H   0  0  0  0  0  0  0  0  0  0  0  0
    0.3294   16.5860   -3.3189 H   0  0  0  0  0  0  0  0  0  0  0  0
    0.4870   15.1054    0.5404 H   0  0  0  0  0  0  0  0  0  0  0  0
   -1.0022   15.3951   -0.4214 H   0  0  0  0  0  0  0  0  0  0  0  0
   -0.2348   13.7710   -0.4214 H   0  0  0  0  0  0  0  0  0  0  0  0
    1.6001   14.5269   -3.4167 H   0  0  0  0  0  0  0  0  0  0  0  0
   -0.9270   14.0792   -3.2023 H   0  0  0  0  0  0  0  0  0  0  0  0
    0.1824   12.8858   -4.0597 H   0  0  0  0  0  0  0  0  0  0  0  0
   -1.6544   11.8460   -2.4825 H   0  0  0  0  0  0  0  0  0  0  0  0
    1.4661   12.5384   -0.0167 H   0  0  0  0  0  0  0  0  0  0  0  0
    2.3790   10.1635   -1.7558 H   0  0  0  0  0  0  0  0  0  0  0  0
    3.3309   10.9827   -0.4395 H   0  0  0  0  0  0  0  0  0  0  0  0
    2.3601    8.8329    0.3063 H   0  0  0  0  0  0  0  0  0  0  0  0
    1.7191   10.2532    1.2222 H   0  0  0  0  0  0  0  0  0  0  0  0
   -0.1024    8.7724    0.7226 H   0  0  0  0  0  0  0  0  0  0  0  0
    1.1910    8.0680   -1.3190 H   0  0  0  0  0  0  0  0  0  0  0  0
   -0.6263   10.5657    1.8456 H   0  0  0  0  0  0  0  0  0  0  0  0
   -0.3120   12.1714    1.1042 H   0  0  0  0  0  0  0  0  0  0  0  0
   -1.9749   11.4921    1.1042 H   0  0  0  0  0  0  0  0  0  0  0  0
   -2.6328    9.7860    0.0215 H   0  0  0  0  0  0  0  0  0  0  0  0
   -2.4842   10.8072   -1.4489 H   0  0  0  0  0  0  0  0  0  0  0  0
   -1.8342    9.1326   -1.4489 H   0  0  0  0  0  0  0  0  0  0  0  0
    3.4378   11.4550   -2.8164 H   0  0  0  0  0  0  0  0  0  0  0  0
    1.9739   11.8285   -3.7883 H   0  0  0  0  0  0  0  0  0  0  0  0
    3.3657   12.9640   -3.7883 H   0  0  0  0  0  0  0  0  0  0  0  0
    3.8108   12.9994   -0.5352 H   0  0  0  0  0  0  0  0  0  0  0  0
    4.0303   14.0700   -2.0318 H   0  0  0  0  0  0  0  0  0  0  0  0
    2.4625   14.7065    0.4823 H   0  0  0  0  0  0  0  0  0  0  0  0
    3.9674   15.4920   -0.1385 H   0  0  0  0  0  0  0  0  0  0  0  0
    3.9680   16.8999   -2.1212 H   0  0  0  0  0  0  0  0  0  0  0  0
    3.3013   15.5386   -3.0851 H   0  0  0  0  0  0  0  0  0  0  0  0
    2.4699   17.1309   -3.0851 H   0  0  0  0  0  0  0  0  0  0  0  0
  1  2  1  0
  2  3  1  0
  3  4  1  0
  4  5  1  0
  5  6  1  0
  6  7  1  0
  7  8  1  0
  7  9  1  0
  2 10  1  0
 10 11  1  0
 11 12  1  0
 12 13  1  0
 13 14  1  1
 13 15  1  0
 15 16  1  0
 16 17  1  0
 17 18  2  0
 18 19  1  0
 19 20  1  0
 20 21  1  0
 21 22  1  0
 22 23  1  0
 22 24  1  0
 24 25  1  0
 24 26  1  0
 19 27  1  0
 27 28  1  6
 27 29  1  0
 29 30  1  0
 30 31  1  0
 31 32  1  6
  7  5  1  0
 31 10  1  0
 31 13  1  0
 27 15  1  0
 24 18  1  0
  1 33  1  0
  1 34  1  0
  1 35  1  0
  2 36  1  6
  3 37  1  0
  3 38  1  0
  4 39  1  0
  4 40  1  0
  5 41  1  6
  8 42  1  0
  8 43  1  0
  8 44  1  0
  9 45  1  0
  9 46  1  0
  9 47  1  0
 10 48  1  1
 11 49  1  0
 11 50  1  0
 12 51  1  0
 12 52  1  0
 14 53  1  0
 14 54  1  0
 14 55  1  0
 15 56  1  6
 16 57  1  0
 16 58  1  0
 17 59  1  0
 19 60  1  1
 20 61  1  0
 20 62  1  0
 21 63  1  0
 21 64  1  0
 22 65  1  1
 23 66  1  0
 25 67  1  0
 25 68  1  0
 25 69  1  0
 26 70  1  0
 26 71  1  0
 26 72  1  0
 28 73  1  0
 28 74  1  0
 28 75  1  0
 29 76  1  0
 29 77  1  0
 30 78  1  0
 30 79  1  0
 32 80  1  0
 32 81  1  0
 32 82  1  0
M  END
>  <meeko>  (6) 
{"is_sidechain": [false], "intermolecular_energy": 2.731, "internal_energy": -0.839}

$$$$
EPH_relaxed_0001_pdb2pqr_Repair_406_r2_0001_out
     RDKit          3D

 82 86  0  0  0  0  0  0  0  0999 V2000
   -5.1620    5.8100   -1.7530 C   0  0  0  0  0  0  0  0  0  0  0  0
   -5.4630    7.3110   -1.7830 C   0  0  2  0  0  0  0  0  0  0  0  0
   -5.2440    7.9750   -0.4090 C   0  0  0  0  0  0  0  0  0  0  0  0
   -4.1820    9.0790   -0.4210 C   0  0  0  0  0  0  0  0  0  0  0  0
   -2.8640    8.5740   -0.9240 C   0  0  2  0  0  0  0  0  0  0  0  0
   -1.7670    8.7570   -0.0190 O   0  0  0  0  0  0  0  0  0  0  0  0
   -1.6940    9.4800   -1.2590 C   0  0  0  0  0  0  0  0  0  0  0  0
   -1.7880   10.9660   -1.1030 C   0  0  0  0  0  0  0  0  0  0  0  0
   -0.6390    8.9720   -2.1910 C   0  0  0  0  0  0  0  0  0  0  0  0
   -6.8940    7.5450   -2.2520 C   0  0  1  0  0  0  0  0  0  0  0  0
   -7.2020    6.8460   -3.6030 C   0  0  0  0  0  0  0  0  0  0  0  0
   -8.6800    6.3830   -3.5400 C   0  0  0  0  0  0  0  0  0  0  0  0
   -9.2660    7.1130   -2.3090 C   0  0  1  0  0  0  0  0  0  0  0  0
   -9.6060    8.5490   -2.8190 C   0  0  0  0  0  0  0  0  0  0  0  0
  -10.4990    6.4360   -1.6260 C   0  0  2  0  0  0  0  0  0  0  0  0
  -11.7510    6.3150   -2.5120 C   0  0  0  0  0  0  0  0  0  0  0  0
  -12.6980    7.4670   -2.4380 C   0  0  0  0  0  0  0  0  0  0  0  0
  -12.6980    8.4200   -1.4880 C   0  0  0  0  0  0  0  0  0  0  0  0
  -11.7380    8.3420   -0.2940 C   0  0  1  0  0  0  0  0  0  0  0  0
  -12.5160    8.6320    1.0160 C   0  0  0  0  0  0  0  0  0  0  0  0
  -13.2760    9.9530    0.9650 C   0  0  0  0  0  0  0  0  0  0  0  0
  -14.2630    9.9700   -0.2000 C   0  0  2  0  0  0  0  0  0  0  0  0
  -15.2870    9.0030    0.0500 O   0  0  0  0  0  0  0  0  0  0  0  0
  -13.5940    9.6800   -1.5730 C   0  0  0  0  0  0  0  0  0  0  0  0
  -12.7070   10.8810   -1.9830 C   0  0  0  0  0  0  0  0  0  0  0  0
  -14.7180    9.5860   -2.6400 C   0  0  0  0  0  0  0  0  0  0  0  0
  -10.8540    7.0250   -0.2000 C   0  0  1  0  0  0  0  0  0  0  0  0
  -11.6380    5.9110    0.5580 C   0  0  0  0  0  0  0  0  0  0  0  0
   -9.5700    7.3270    0.6590 C   0  0  0  0  0  0  0  0  0  0  0  0
   -8.3450    7.8820   -0.0930 C   0  0  0  0  0  0  0  0  0  0  0  0
   -8.0350    7.0390   -1.3340 C   0  0  2  0  0  0  0  0  0  0  0  0
   -7.6680    5.5940   -0.8510 C   0  0  0  0  0  0  0  0  0  0  0  0
   -5.0939    5.4705   -0.7089 H   0  0  0  0  0  0  0  0  0  0  0  0
   -5.9685    5.2640   -2.2643 H   0  0  0  0  0  0  0  0  0  0  0  0
   -4.2073    5.6172   -2.2643 H   0  0  0  0  0  0  0  0  0  0  0  0
   -4.7594    7.7751   -2.4898 H   0  0  0  0  0  0  0  0  0  0  0  0
   -6.1973    8.4137   -0.0794 H   0  0  0  0  0  0  0  0  0  0  0  0
   -4.8848    7.1907    0.2735 H   0  0  0  0  0  0  0  0  0  0  0  0
   -4.5238    9.8955   -1.0741 H   0  0  0  0  0  0  0  0  0  0  0  0
   -4.0427    9.4323    0.6113 H   0  0  0  0  0  0  0  0  0  0  0  0
   -3.3606    7.7709   -1.4883 H   0  0  0  0  0  0  0  0  0  0  0  0
   -1.8042   11.2221   -0.0333 H   0  0  0  0  0  0  0  0  0  0  0  0
   -0.9181   11.4406   -1.5805 H   0  0  0  0  0  0  0  0  0  0  0  0
   -2.7108   11.3272   -1.5805 H   0  0  0  0  0  0  0  0  0  0  0  0
    0.2014    8.5673   -1.6079 H   0  0  0  0  0  0  0  0  0  0  0  0
   -1.0611    8.1784   -2.8251 H   0  0  0  0  0  0  0  0  0  0  0  0
   -0.2818    9.7969   -2.8251 H   0  0  0  0  0  0  0  0  0  0  0  0
   -6.8989    8.6444   -2.2871 H   0  0  0  0  0  0  0  0  0  0  0  0
   -7.0611    7.5513   -4.4352 H   0  0  0  0  0  0  0  0  0  0  0  0
   -6.5276    5.9931   -3.7692 H   0  0  0  0  0  0  0  0  0  0  0  0
   -9.2170    6.6729   -4.4552 H   0  0  0  0  0  0  0  0  0  0  0  0
   -8.7713    5.2898   -3.4590 H   0  0  0  0  0  0  0  0  0  0  0  0
   -9.7639    9.2159   -1.9586 H   0  0  0  0  0  0  0  0  0  0  0  0
   -8.7728    8.9283   -3.4289 H   0  0  0  0  0  0  0  0  0  0  0  0
  -10.5208    8.5145   -3.4289 H   0  0  0  0  0  0  0  0  0  0  0  0
  -10.1454    5.4065   -1.4674 H   0  0  0  0  0  0  0  0  0  0  0  0
  -11.4201    6.2135   -3.5561 H   0  0  0  0  0  0  0  0  0  0  0  0
  -12.3049    5.4410   -2.1386 H   0  0  0  0  0  0  0  0  0  0  0  0
  -13.4605    7.5431   -3.2272 H   0  0  0  0  0  0  0  0  0  0  0  0
  -10.9824    9.1240   -0.4600 H   0  0  0  0  0  0  0  0  0  0  0  0
  -13.2356    7.8176    1.1863 H   0  0  0  0  0  0  0  0  0  0  0  0
  -11.7816    8.7008    1.8320 H   0  0  0  0  0  0  0  0  0  0  0  0
  -13.8283   10.0872    1.9068 H   0  0  0  0  0  0  0  0  0  0  0  0
  -12.5523   10.7693    0.8240 H   0  0  0  0  0  0  0  0  0  0  0  0
  -14.6822   10.9850   -0.2633 H   0  0  0  0  0  0  0  0  0  0  0  0
  -15.6470    8.7270   -0.8100 H   0  0  0  0  0  0  0  0  0  0  0  0
  -12.3338   11.3863   -1.0800 H   0  0  0  0  0  0  0  0  0  0  0  0
  -11.8561   10.5214   -2.5801 H   0  0  0  0  0  0  0  0  0  0  0  0
  -13.3010   11.5885   -2.5801 H   0  0  0  0  0  0  0  0  0  0  0  0
  -15.6937    9.5044   -2.1386 H   0  0  0  0  0  0  0  0  0  0  0  0
  -14.7032   10.4885   -3.2687 H   0  0  0  0  0  0  0  0  0  0  0  0
  -14.5535    8.6985   -3.2687 H   0  0  0  0  0  0  0  0  0  0  0  0
  -11.5322    6.0614    1.6425 H   0  0  0  0  0  0  0  0  0  0  0  0
  -12.7020    5.9597    0.2832 H   0  0  0  0  0  0  0  0  0  0  0  0
  -11.2330    4.9259    0.2832 H   0  0  0  0  0  0  0  0  0  0  0  0
   -9.8495    8.0623    1.4279 H   0  0  0  0  0  0  0  0  0  0  0  0
   -9.2492    6.3501    1.0498 H   0  0  0  0  0  0  0  0  0  0  0  0
   -8.5518    8.9168   -0.4034 H   0  0  0  0  0  0  0  0  0  0  0  0
   -7.4755    7.8483    0.5800 H   0  0  0  0  0  0  0  0  0  0  0  0
   -7.6608    5.5657    0.2486 H   0  0  0  0  0  0  0  0  0  0  0  0
   -8.4133    4.8799   -1.2313 H   0  0  0  0  0  0  0  0  0  0  0  0
   -6.6723    5.3221   -1.2313 H   0  0  0  0  0  0  0  0  0  0  0  0
  1  2  1  0
  2  3  1  0
  3  4  1  0
  4  5  1  0
  5  6  1  0
  6  7  1  0
  7  8  1  0
  7  9  1  0
  2 10  1  0
 10 11  1  0
 11 12  1  0
 12 13  1  0
 13 14  1  6
 13 15  1  0
 15 16  1  0
 16 17  1  0
 17 18  2  0
 18 19  1  0
 19 20  1  0
 20 21  1  0
 21 22  1  0
 22 23  1  0
 22 24  1  0
 24 25  1  0
 24 26  1  0
 19 27  1  0
 27 28  1  1
 27 29  1  0
 29 30  1  0
 30 31  1  0
 31 32  1  1
  7  5  1  0
 31 10  1  0
 31 13  1  0
 27 15  1  0
 24 18  1  0
  1 33  1  0
  1 34  1  0
  1 35  1  0
  2 36  1  6
  3 37  1  0
  3 38  1  0
  4 39  1  0
  4 40  1  0
  5 41  1  6
  8 42  1  0
  8 43  1  0
  8 44  1  0
  9 45  1  0
  9 46  1  0
  9 47  1  0
 10 48  1  6
 11 49  1  0
 11 50  1  0
 12 51  1  0
 12 52  1  0
 14 53  1  0
 14 54  1  0
 14 55  1  0
 15 56  1  1
 16 57  1  0
 16 58  1  0
 17 59  1  0
 19 60  1  6
 20 61  1  0
 20 62  1  0
 21 63  1  0
 21 64  1  0
 22 65  1  6
 23 66  1  0
 25 67  1  0
 25 68  1  0
 25 69  1  0
 26 70  1  0
 26 71  1  0
 26 72  1  0
 28 73  1  0
 28 74  1  0
 28 75  1  0
 29 76  1  0
 29 77  1  0
 30 78  1  0
 30 79  1  0
 32 80  1  0
 32 81  1  0
 32 82  1  0
M  END
>  <meeko>  (7) 
{"is_sidechain": [false], "intermolecular_energy": 2.731, "internal_energy": -0.839}

$$$$
EPH_relaxed_0001_pdb2pqr_Repair_406_r2_0001_out
     RDKit          3D

 82 86  0  0  0  0  0  0  0  0999 V2000
   -2.4090    9.9420   -0.6240 C   0  0  0  0  0  0  0  0  0  0  0  0
   -1.0950   10.3410   -1.3020 C   0  0  2  0  0  0  0  0  0  0  0  0
   -0.0290    9.2320   -1.1980 C   0  0  0  0  0  0  0  0  0  0  0  0
    0.5120    9.0280    0.2200 C   0  0  0  0  0  0  0  0  0  0  0  0
    1.9860    8.7570    0.2180 C   0  0  2  0  0  0  0  0  0  0  0  0
    2.4390    7.9030    1.2760 O   0  0  0  0  0  0  0  0  0  0  0  0
    2.9300    9.2530    1.2970 C   0  0  0  0  0  0  0  0  0  0  0  0
    2.4350   10.0620    2.4540 C   0  0  0  0  0  0  0  0  0  0  0  0
    4.3870    9.3700    0.9750 C   0  0  0  0  0  0  0  0  0  0  0  0
   -0.5650   11.6320   -0.6890 C   0  0  1  0  0  0  0  0  0  0  0  0
    0.5100   11.3780    0.4020 C   0  0  0  0  0  0  0  0  0  0  0  0
    1.5330   12.5390    0.3000 C   0  0  0  0  0  0  0  0  0  0  0  0
    0.8460   13.5860   -0.6070 C   0  0  1  0  0  0  0  0  0  0  0  0
   -0.1270   14.3590    0.3370 C   0  0  0  0  0  0  0  0  0  0  0  0
    1.7950   14.5590   -1.3800 C   0  0  2  0  0  0  0  0  0  0  0  0
    2.6590   15.4710   -0.4920 C   0  0  0  0  0  0  0  0  0  0  0  0
    2.0490   16.7890   -0.1470 C   0  0  0  0  0  0  0  0  0  0  0  0
    0.9870   17.3430   -0.7600 C   0  0  0  0  0  0  0  0  0  0  0  0
    0.3450   16.6740   -1.9820 C   0  0  1  0  0  0  0  0  0  0  0  0
    0.1030   17.7370   -3.0860 C   0  0  0  0  0  0  0  0  0  0  0  0
   -0.7030   18.9300   -2.5840 C   0  0  0  0  0  0  0  0  0  0  0  0
   -0.0030   19.6040   -1.4060 C   0  0  2  0  0  0  0  0  0  0  0  0
    1.2150   20.1940   -1.8690 O   0  0  0  0  0  0  0  0  0  0  0  0
    0.3000   18.6280   -0.2340 C   0  0  0  0  0  0  0  0  0  0  0  0
   -1.0220   18.2230    0.4620 C   0  0  0  0  0  0  0  0  0  0  0  0
    1.1310   19.4000    0.8260 C   0  0  0  0  0  0  0  0  0  0  0  0
    1.0840   15.3790   -2.5320 C   0  0  1  0  0  0  0  0  0  0  0  0
    2.2000   15.7920   -3.5390 C   0  0  0  0  0  0  0  0  0  0  0  0
    0.0550   14.5050   -3.3420 C   0  0  0  0  0  0  0  0  0  0  0  0
   -0.7680   13.4790   -2.5400 C   0  0  0  0  0  0  0  0  0  0  0  0
    0.1380   12.6340   -1.6390 C   0  0  2  0  0  0  0  0  0  0  0  0
    1.1140   11.8270   -2.5630 C   0  0  0  0  0  0  0  0  0  0  0  0
   -2.2843    9.9799    0.4682 H   0  0  0  0  0  0  0  0  0  0  0  0
   -3.2042   10.6392   -0.9266 H   0  0  0  0  0  0  0  0  0  0  0  0
   -2.6823    8.9204   -0.9266 H   0  0  0  0  0  0  0  0  0  0  0  0
   -1.3071   10.4965   -2.3701 H   0  0  0  0  0  0  0  0  0  0  0  0
   -0.4772    8.2867   -1.5378 H   0  0  0  0  0  0  0  0  0  0  0  0
    0.8203    9.5433   -1.8240 H   0  0  0  0  0  0  0  0  0  0  0  0
    0.3174    9.9360    0.8097 H   0  0  0  0  0  0  0  0  0  0  0  0
    0.0040    8.1564    0.6584 H   0  0  0  0  0  0  0  0  0  0  0  0
    2.0202    8.8237   -0.8794 H   0  0  0  0  0  0  0  0  0  0  0  0
    2.7323    9.5761    3.3950 H   0  0  0  0  0  0  0  0  0  0  0  0
    2.8705   11.0711    2.4088 H   0  0  0  0  0  0  0  0  0  0  0  0
    1.3383   10.1336    2.4088 H   0  0  0  0  0  0  0  0  0  0  0  0
    4.9663    9.4165    1.9089 H   0  0  0  0  0  0  0  0  0  0  0  0
    4.7046    8.4945    0.3897 H   0  0  0  0  0  0  0  0  0  0  0  0
    4.5608   10.2850    0.3897 H   0  0  0  0  0  0  0  0  0  0  0  0
   -1.5079   12.0617   -0.3199 H   0  0  0  0  0  0  0  0  0  0  0  0
    0.0441   11.3700    1.3984 H   0  0  0  0  0  0  0  0  0  0  0  0
    1.0008   10.4047    0.2543 H   0  0  0  0  0  0  0  0  0  0  0  0
    1.7401   12.9625    1.2939 H   0  0  0  0  0  0  0  0  0  0  0  0
    2.5008   12.2077   -0.1045 H   0  0  0  0  0  0  0  0  0  0  0  0
    0.1356   14.1504    1.3846 H   0  0  0  0  0  0  0  0  0  0  0  0
   -0.0425   15.4390    0.1459 H   0  0  0  0  0  0  0  0  0  0  0  0
   -1.1599   14.0325    0.1459 H   0  0  0  0  0  0  0  0  0  0  0  0
    2.4964   13.8660   -1.8675 H   0  0  0  0  0  0  0  0  0  0  0  0
    2.8646   14.9356    0.4466 H   0  0  0  0  0  0  0  0  0  0  0  0
    3.5625   15.6978   -1.0770 H   0  0  0  0  0  0  0  0  0  0  0  0
    2.5062   17.3551    0.6779 H   0  0  0  0  0  0  0  0  0  0  0  0
   -0.6175   16.2687   -1.6367 H   0  0  0  0  0  0  0  0  0  0  0  0
    1.0773   18.0972   -3.4480 H   0  0  0  0  0  0  0  0  0  0  0  0
   -0.4760   17.2577   -3.8891 H   0  0  0  0  0  0  0  0  0  0  0  0
   -0.8151   19.6582   -3.4008 H   0  0  0  0  0  0  0  0  0  0  0  0
   -1.6882   18.5728   -2.2496 H   0  0  0  0  0  0  0  0  0  0  0  0
   -0.6873   20.3681   -1.0087 H   0  0  0  0  0  0  0  0  0  0  0  0
    1.5460   20.7770   -1.1650 H   0  0  0  0  0  0  0  0  0  0  0  0
   -0.8893   18.2637    1.5532 H   0  0  0  0  0  0  0  0  0  0  0  0
   -1.8212   18.9175    0.1637 H   0  0  0  0  0  0  0  0  0  0  0  0
   -1.2950   17.2000    0.1637 H   0  0  0  0  0  0  0  0  0  0  0  0
    0.8085   19.1004    1.8341 H   0  0  0  0  0  0  0  0  0  0  0  0
    2.1980   19.1653    0.6975 H   0  0  0  0  0  0  0  0  0  0  0  0
    0.9754   20.4813    0.6975 H   0  0  0  0  0  0  0  0  0  0  0  0
    3.0908   16.1217   -2.9842 H   0  0  0  0  0  0  0  0  0  0  0  0
    2.4601   14.9306   -4.1717 H   0  0  0  0  0  0  0  0  0  0  0  0
    1.8366   16.6152   -4.1717 H   0  0  0  0  0  0  0  0  0  0  0  0
   -0.6530   15.1912   -3.8298 H   0  0  0  0  0  0  0  0  0  0  0  0
    0.6670   13.9063   -4.0326 H   0  0  0  0  0  0  0  0  0  0  0  0
   -1.4993   14.0132   -1.9156 H   0  0  0  0  0  0  0  0  0  0  0  0
   -1.2812   12.8109   -3.2473 H   0  0  0  0  0  0  0  0  0  0  0  0
    1.8134   11.2487   -1.9413 H   0  0  0  0  0  0  0  0  0  0  0  0
    0.5344   11.1408   -3.1980 H   0  0  0  0  0  0  0  0  0  0  0  0
    1.6791   12.5252   -3.1980 H   0  0  0  0  0  0  0  0  0  0  0  0
  1  2  1  0
  2  3  1  0
  3  4  1  0
  4  5  1  0
  5  6  1  0
  6  7  1  0
  7  8  1  0
  7  9  1  0
  2 10  1  0
 10 11  1  0
 11 12  1  0
 12 13  1  0
 13 14  1  1
 13 15  1  0
 15 16  1  0
 16 17  1  0
 17 18  2  0
 18 19  1  0
 19 20  1  0
 20 21  1  0
 21 22  1  0
 22 23  1  0
 22 24  1  0
 24 25  1  0
 24 26  1  0
 19 27  1  0
 27 28  1  6
 27 29  1  0
 29 30  1  0
 30 31  1  0
 31 32  1  6
  7  5  1  0
 31 10  1  0
 31 13  1  0
 27 15  1  0
 24 18  1  0
  1 33  1  0
  1 34  1  0
  1 35  1  0
  2 36  1  6
  3 37  1  0
  3 38  1  0
  4 39  1  0
  4 40  1  0
  5 41  1  6
  8 42  1  0
  8 43  1  0
  8 44  1  0
  9 45  1  0
  9 46  1  0
  9 47  1  0
 10 48  1  1
 11 49  1  0
 11 50  1  0
 12 51  1  0
 12 52  1  0
 14 53  1  0
 14 54  1  0
 14 55  1  0
 15 56  1  6
 16 57  1  0
 16 58  1  0
 17 59  1  0
 19 60  1  1
 20 61  1  0
 20 62  1  0
 21 63  1  0
 21 64  1  0
 22 65  1  1
 23 66  1  0
 25 67  1  0
 25 68  1  0
 25 69  1  0
 26 70  1  0
 26 71  1  0
 26 72  1  0
 28 73  1  0
 28 74  1  0
 28 75  1  0
 29 76  1  0
 29 77  1  0
 30 78  1  0
 30 79  1  0
 32 80  1  0
 32 81  1  0
 32 82  1  0
M  END
>  <meeko>  (8) 
{"is_sidechain": [false], "intermolecular_energy": 2.731, "internal_energy": -0.839}

$$$$
EPH_relaxed_0001_pdb2pqr_Repair_406_r2_0001_out
     RDKit          3D

 82 86  0  0  0  0  0  0  0  0999 V2000
    0.3960    8.8880   -2.6150 C   0  0  0  0  0  0  0  0  0  0  0  0
    1.1670   10.0530   -3.2420 C   0  0  2  0  0  0  0  0  0  0  0  0
    2.6570   10.0430   -2.8460 C   0  0  0  0  0  0  0  0  0  0  0  0
    3.5810   10.6410   -3.9100 C   0  0  0  0  0  0  0  0  0  0  0  0
    4.9680   10.8540   -3.3840 C   0  0  2  0  0  0  0  0  0  0  0  0
    5.6010   12.0590   -3.8340 O   0  0  0  0  0  0  0  0  0  0  0  0
    6.2080   10.8270   -4.2580 C   0  0  0  0  0  0  0  0  0  0  0  0
    6.1180   10.5810   -5.7320 C   0  0  0  0  0  0  0  0  0  0  0  0
    7.5310   10.5550   -3.6150 C   0  0  0  0  0  0  0  0  0  0  0  0
    0.5290   11.3760   -2.8360 C   0  0  1  0  0  0  0  0  0  0  0  0
   -0.8510   11.1890   -2.1500 C   0  0  0  0  0  0  0  0  0  0  0  0
   -0.9680   12.2970   -1.0720 C   0  0  0  0  0  0  0  0  0  0  0  0
    0.1840   13.2770   -1.3930 C   0  0  1  0  0  0  0  0  0  0  0  0
   -0.3600   14.1710   -2.5500 C   0  0  0  0  0  0  0  0  0  0  0  0
    0.7120   14.1370   -0.1990 C   0  0  2  0  0  0  0  0  0  0  0  0
   -0.3190   15.0970    0.4200 C   0  0  0  0  0  0  0  0  0  0  0  0
   -0.3580   16.4630   -0.1800 C   0  0  0  0  0  0  0  0  0  0  0  0
    0.5870   16.9950   -0.9770 C   0  0  0  0  0  0  0  0  0  0  0  0
    1.8880   16.2370   -1.2710 C   0  0  1  0  0  0  0  0  0  0  0  0
    3.0950   17.1980   -1.1080 C   0  0  0  0  0  0  0  0  0  0  0  0
    2.9540   18.4620   -1.9500 C   0  0  0  0  0  0  0  0  0  0  0  0
    1.6780   19.2190   -1.5880 C   0  0  2  0  0  0  0  0  0  0  0  0
    1.8010   19.7170   -0.2530 O   0  0  0  0  0  0  0  0  0  0  0  0
    0.3960   18.3490   -1.7060 C   0  0  0  0  0  0  0  0  0  0  0  0
    0.0980   18.0600   -3.1980 C   0  0  0  0  0  0  0  0  0  0  0  0
   -0.8000   19.1870   -1.1790 C   0  0  0  0  0  0  0  0  0  0  0  0
    2.0850   14.8700   -0.4850 C   0  0  1  0  0  0  0  0  0  0  0  0
    2.7420   15.1440    0.9030 C   0  0  0  0  0  0  0  0  0  0  0  0
    3.0940   13.9600   -1.2820 C   0  0  0  0  0  0  0  0  0  0  0  0
    2.4960   13.0450   -2.3670 C   0  0  0  0  0  0  0  0  0  0  0  0
    1.3010   12.2570   -1.8220 C   0  0  2  0  0  0  0  0  0  0  0  0
    1.8220   11.3320   -0.6710 C   0  0  0  0  0  0  0  0  0  0  0  0
    0.4457    8.9632   -1.5187 H   0  0  0  0  0  0  0  0  0  0  0  0
   -0.6548    8.9277   -2.9379 H   0  0  0  0  0  0  0  0  0  0  0  0
    0.8432    7.9363   -2.9379 H   0  0  0  0  0  0  0  0  0  0  0  0
    1.1152    9.9348   -4.3344 H   0  0  0  0  0  0  0  0  0  0  0  0
    2.7737   10.6234   -1.9189 H   0  0  0  0  0  0  0  0  0  0  0  0
    2.9493    8.9899   -2.7218 H   0  0  0  0  0  0  0  0  0  0  0  0
    3.6269    9.9548   -4.7685 H   0  0  0  0  0  0  0  0  0  0  0  0
    3.1735   11.6184   -4.2076 H   0  0  0  0  0  0  0  0  0  0  0  0
    4.7159   10.3391   -2.4452 H   0  0  0  0  0  0  0  0  0  0  0  0
    5.7451    9.5618   -5.9115 H   0  0  0  0  0  0  0  0  0  0  0  0
    5.4279   11.3088   -6.1837 H   0  0  0  0  0  0  0  0  0  0  0  0
    7.1148   10.6916   -6.1837 H   0  0  0  0  0  0  0  0  0  0  0  0
    7.4186   10.5781   -2.5210 H   0  0  0  0  0  0  0  0  0  0  0  0
    7.8927    9.5637   -3.9256 H   0  0  0  0  0  0  0  0  0  0  0  0
    8.2545   11.3232   -3.9256 H   0  0  0  0  0  0  0  0  0  0  0  0
    0.4959   11.8725   -3.8170 H   0  0  0  0  0  0  0  0  0  0  0  0
   -1.6588   11.2929   -2.8894 H   0  0  0  0  0  0  0  0  0  0  0  0
   -0.9361   10.1890   -1.6996 H   0  0  0  0  0  0  0  0  0  0  0  0
   -1.9410   12.8053   -1.1417 H   0  0  0  0  0  0  0  0  0  0  0  0
   -0.9004   11.8940   -0.0507 H   0  0  0  0  0  0  0  0  0  0  0  0
   -0.8877   15.0382   -2.1262 H   0  0  0  0  0  0  0  0  0  0  0  0
    0.4793   14.5195   -3.1698 H   0  0  0  0  0  0  0  0  0  0  0  0
   -1.0552   13.5857   -3.1698 H   0  0  0  0  0  0  0  0  0  0  0  0
    0.9107   13.3757    0.5697 H   0  0  0  0  0  0  0  0  0  0  0  0
   -1.3157   14.6462    0.3042 H   0  0  0  0  0  0  0  0  0  0  0  0
   -0.0167   15.2336    1.4688 H   0  0  0  0  0  0  0  0  0  0  0  0
   -1.2337   17.0882    0.0487 H   0  0  0  0  0  0  0  0  0  0  0  0
    1.8168   15.9024   -2.3164 H   0  0  0  0  0  0  0  0  0  0  0  0
    3.1756   17.4865   -0.0496 H   0  0  0  0  0  0  0  0  0  0  0  0
    3.9942   16.6661   -1.4522 H   0  0  0  0  0  0  0  0  0  0  0  0
    3.8222   19.1131   -1.7702 H   0  0  0  0  0  0  0  0  0  0  0  0
    2.9026   18.1738   -3.0103 H   0  0  0  0  0  0  0  0  0  0  0  0
    1.5658   20.0416   -2.3096 H   0  0  0  0  0  0  0  0  0  0  0  0
    2.5130   19.2190    0.1830 H   0  0  0  0  0  0  0  0  0  0  0  0
   -0.6898   17.2960   -3.2733 H   0  0  0  0  0  0  0  0  0  0  0  0
   -0.2392   18.9841   -3.6902 H   0  0  0  0  0  0  0  0  0  0  0  0
    1.0113   17.6946   -3.6902 H   0  0  0  0  0  0  0  0  0  0  0  0
   -0.7942   19.1829   -0.0790 H   0  0  0  0  0  0  0  0  0  0  0  0
   -0.7112   20.2215   -1.5423 H   0  0  0  0  0  0  0  0  0  0  0  0
   -1.7420   18.7504   -1.5423 H   0  0  0  0  0  0  0  0  0  0  0  0
    2.0447   14.8532    1.7025 H   0  0  0  0  0  0  0  0  0  0  0  0
    3.6680   14.5571    0.9926 H   0  0  0  0  0  0  0  0  0  0  0  0
    2.9766   16.2150    0.9926 H   0  0  0  0  0  0  0  0  0  0  0  0
    3.8246   14.6217   -1.7703 H   0  0  0  0  0  0  0  0  0  0  0  0
    3.5197   13.2770   -0.5321 H   0  0  0  0  0  0  0  0  0  0  0  0
    2.1637   13.6619   -3.2149 H   0  0  0  0  0  0  0  0  0  0  0  0
    3.2689   12.3317   -2.6894 H   0  0  0  0  0  0  0  0  0  0  0  0
    1.5699   11.7796    0.3017 H   0  0  0  0  0  0  0  0  0  0  0  0
    1.3485   10.3425   -0.7530 H   0  0  0  0  0  0  0  0  0  0  0  0
    2.9136   11.2241   -0.7530 H   0  0  0  0  0  0  0  0  0  0  0  0
  1  2  1  0
  2  3  1  0
  3  4  1  0
  4  5  1  0
  5  6  1  0
  6  7  1  0
  7  8  1  0
  7  9  1  0
  2 10  1  0
 10 11  1  0
 11 12  1  0
 12 13  1  0
 13 14  1  6
 13 15  1  0
 15 16  1  0
 16 17  1  0
 17 18  2  0
 18 19  1  0
 19 20  1  0
 20 21  1  0
 21 22  1  0
 22 23  1  0
 22 24  1  0
 24 25  1  0
 24 26  1  0
 19 27  1  0
 27 28  1  1
 27 29  1  0
 29 30  1  0
 30 31  1  0
 31 32  1  1
  7  5  1  0
 31 10  1  0
 31 13  1  0
 27 15  1  0
 24 18  1  0
  1 33  1  0
  1 34  1  0
  1 35  1  0
  2 36  1  6
  3 37  1  0
  3 38  1  0
  4 39  1  0
  4 40  1  0
  5 41  1  1
  8 42  1  0
  8 43  1  0
  8 44  1  0
  9 45  1  0
  9 46  1  0
  9 47  1  0
 10 48  1  6
 11 49  1  0
 11 50  1  0
 12 51  1  0
 12 52  1  0
 14 53  1  0
 14 54  1  0
 14 55  1  0
 15 56  1  1
 16 57  1  0
 16 58  1  0
 17 59  1  0
 19 60  1  6
 20 61  1  0
 20 62  1  0
 21 63  1  0
 21 64  1  0
 22 65  1  6
 23 66  1  0
 25 67  1  0
 25 68  1  0
 25 69  1  0
 26 70  1  0
 26 71  1  0
 26 72  1  0
 28 73  1  0
 28 74  1  0
 28 75  1  0
 29 76  1  0
 29 77  1  0
 30 78  1  0
 30 79  1  0
 32 80  1  0
 32 81  1  0
 32 82  1  0
M  END
>  <meeko>  (9) 
{"is_sidechain": [false], "intermolecular_energy": 2.731, "internal_energy": -0.839}

$$$$
EPH_relaxed_0001_pdb2pqr_Repair_406_r2_0001_out
     RDKit          3D

 82 86  0  0  0  0  0  0  0  0999 V2000
   -0.2830   10.5250   -4.0330 C   0  0  0  0  0  0  0  0  0  0  0  0
    0.9090   10.3460   -3.0900 C   0  0  2  0  0  0  0  0  0  0  0  0
    0.8450    9.0120   -2.3200 C   0  0  0  0  0  0  0  0  0  0  0  0
   -0.5730    8.6050   -1.9120 C   0  0  0  0  0  0  0  0  0  0  0  0
   -0.8700    8.9780   -0.4910 C   0  0  2  0  0  0  0  0  0  0  0  0
   -2.2650    9.0340   -0.1650 O   0  0  0  0  0  0  0  0  0  0  0  0
   -1.5470   10.2760   -0.0910 C   0  0  0  0  0  0  0  0  0  0  0  0
   -1.9680   11.2840   -1.1140 C   0  0  0  0  0  0  0  0  0  0  0  0
   -1.3580   10.7810    1.3060 C   0  0  0  0  0  0  0  0  0  0  0  0
    0.9770   11.5110   -2.1100 C   0  0  1  0  0  0  0  0  0  0  0  0
    2.0260   11.2880   -0.9880 C   0  0  0  0  0  0  0  0  0  0  0  0
    2.6340   12.6770   -0.6620 C   0  0  0  0  0  0  0  0  0  0  0  0
    1.6930   13.6880   -1.3590 C   0  0  1  0  0  0  0  0  0  0  0  0
    0.4840   13.8480   -0.3840 C   0  0  0  0  0  0  0  0  0  0  0  0
    2.3200   15.0700   -1.7330 C   0  0  2  0  0  0  0  0  0  0  0  0
    2.8110   15.9090   -0.5410 C   0  0  0  0  0  0  0  0  0  0  0  0
    1.8010   16.8410    0.0420 C   0  0  0  0  0  0  0  0  0  0  0  0
    0.6470   17.2090   -0.5430 C   0  0  0  0  0  0  0  0  0  0  0  0
    0.3050   16.7510   -1.9670 C   0  0  1  0  0  0  0  0  0  0  0  0
   -0.2100   17.9600   -2.7910 C   0  0  0  0  0  0  0  0  0  0  0  0
   -1.3730   18.6770   -2.1130 C   0  0  0  0  0  0  0  0  0  0  0  0
   -0.9760   19.1690   -0.7240 C   0  0  2  0  0  0  0  0  0  0  0  0
    0.0130   20.1930   -0.8630 O   0  0  0  0  0  0  0  0  0  0  0  0
   -0.4330   18.0390    0.1940 C   0  0  0  0  0  0  0  0  0  0  0  0
   -1.5900   17.0880    0.5900 C   0  0  0  0  0  0  0  0  0  0  0  0
    0.0630   18.6910    1.5130 C   0  0  0  0  0  0  0  0  0  0  0  0
    1.4390   15.9340   -2.7240 C   0  0  1  0  0  0  0  0  0  0  0  0
    2.4120   16.9180   -3.4430 C   0  0  0  0  0  0  0  0  0  0  0  0
    0.7760   15.0600   -3.8530 C   0  0  0  0  0  0  0  0  0  0  0  0
    0.2850   13.6580   -3.4480 C   0  0  0  0  0  0  0  0  0  0  0  0
    1.3690   12.8970   -2.6790 C   0  0  2  0  0  0  0  0  0  0  0  0
    2.5900   12.7010   -3.6420 C   0  0  0  0  0  0  0  0  0  0  0  0
   -1.2005   10.6628   -3.4421 H   0  0  0  0  0  0  0  0  0  0  0  0
   -0.1192   11.4086   -4.6673 H   0  0  0  0  0  0  0  0  0  0  0  0
   -0.3860    9.6323   -4.6673 H   0  0  0  0  0  0  0  0  0  0  0  0
    1.8191   10.3271   -3.7075 H   0  0  0  0  0  0  0  0  0  0  0  0
    1.2628    8.2210   -2.9602 H   0  0  0  0  0  0  0  0  0  0  0  0
    1.4201    9.1482   -1.3922 H   0  0  0  0  0  0  0  0  0  0  0  0
   -1.2929    9.1118   -2.5714 H   0  0  0  0  0  0  0  0  0  0  0  0
   -0.6557    7.5120   -2.0039 H   0  0  0  0  0  0  0  0  0  0  0  0
    0.0532    8.4899   -0.1454 H   0  0  0  0  0  0  0  0  0  0  0  0
   -2.3443   12.1851   -0.6076 H   0  0  0  0  0  0  0  0  0  0  0  0
   -1.1058   11.5500   -1.7431 H   0  0  0  0  0  0  0  0  0  0  0  0
   -2.7633   10.8578   -1.7431 H   0  0  0  0  0  0  0  0  0  0  0  0
   -1.6509    9.9985    2.0215 H   0  0  0  0  0  0  0  0  0  0  0  0
   -0.3010   11.0429    1.4614 H   0  0  0  0  0  0  0  0  0  0  0  0
   -1.9833   11.6725    1.4614 H   0  0  0  0  0  0  0  0  0  0  0  0
   -0.0690   11.5266   -1.7698 H   0  0  0  0  0  0  0  0  0  0  0  0
    1.5415   10.8674   -0.0945 H   0  0  0  0  0  0  0  0  0  0  0  0
    2.8051   10.5814   -1.3102 H   0  0  0  0  0  0  0  0  0  0  0  0
    2.6514   12.8480    0.4245 H   0  0  0  0  0  0  0  0  0  0  0  0
    3.6743   12.7686   -1.0075 H   0  0  0  0  0  0  0  0  0  0  0  0
    0.8421   13.8006    0.6550 H   0  0  0  0  0  0  0  0  0  0  0  0
   -0.0031   14.8184   -0.5601 H   0  0  0  0  0  0  0  0  0  0  0  0
   -0.2388   13.0377   -0.5601 H   0  0  0  0  0  0  0  0  0  0  0  0
    3.2259   14.7761   -2.2835 H   0  0  0  0  0  0  0  0  0  0  0  0
    3.1329   15.2176    0.2517 H   0  0  0  0  0  0  0  0  0  0  0  0
    3.6220   16.5430   -0.9287 H   0  0  0  0  0  0  0  0  0  0  0  0
    2.0190   17.2626    1.0343 H   0  0  0  0  0  0  0  0  0  0  0  0
   -0.4955   16.0039   -1.8617 H   0  0  0  0  0  0  0  0  0  0  0  0
    0.6160   18.6744   -2.9229 H   0  0  0  0  0  0  0  0  0  0  0  0
   -0.5715   17.5764   -3.7565 H   0  0  0  0  0  0  0  0  0  0  0  0
   -1.6724   19.5385   -2.7280 H   0  0  0  0  0  0  0  0  0  0  0  0
   -2.2087   17.9694   -2.0089 H   0  0  0  0  0  0  0  0  0  0  0  0
   -1.8841   19.5572   -0.2395 H   0  0  0  0  0  0  0  0  0  0  0  0
    0.7380   19.9880   -0.2480 H   0  0  0  0  0  0  0  0  0  0  0  0
   -1.6590   17.0312    1.6864 H   0  0  0  0  0  0  0  0  0  0  0  0
   -2.5366   17.4726    0.1824 H   0  0  0  0  0  0  0  0  0  0  0  0
   -1.3959   16.0849    0.1824 H   0  0  0  0  0  0  0  0  0  0  0  0
   -0.3533   18.1438    2.3717 H   0  0  0  0  0  0  0  0  0  0  0  0
    1.1616   18.6518    1.5509 H   0  0  0  0  0  0  0  0  0  0  0  0
   -0.2680   19.7393    1.5509 H   0  0  0  0  0  0  0  0  0  0  0  0
    2.9770   17.4894   -2.6918 H   0  0  0  0  0  0  0  0  0  0  0  0
    3.1113   16.3479   -4.0722 H   0  0  0  0  0  0  0  0  0  0  0  0
    1.8340   17.6109   -4.0722 H   0  0  0  0  0  0  0  0  0  0  0  0
   -0.0902   15.6171   -4.2394 H   0  0  0  0  0  0  0  0  0  0  0  0
    1.5759   14.8836   -4.5872 H   0  0  0  0  0  0  0  0  0  0  0  0
   -0.6050   13.7592   -2.8095 H   0  0  0  0  0  0  0  0  0  0  0  0
    0.0425   13.0946   -4.3611 H   0  0  0  0  0  0  0  0  0  0  0  0
    3.5048   12.5542   -3.0490 H   0  0  0  0  0  0  0  0  0  0  0  0
    2.4187   11.8189   -4.2764 H   0  0  0  0  0  0  0  0  0  0  0  0
    2.7034   13.5924   -4.2764 H   0  0  0  0  0  0  0  0  0  0  0  0
  1  2  1  0
  2  3  1  0
  3  4  1  0
  4  5  1  0
  5  6  1  0
  6  7  1  0
  7  8  1  0
  7  9  1  0
  2 10  1  0
 10 11  1  0
 11 12  1  0
 12 13  1  0
 13 14  1  1
 13 15  1  0
 15 16  1  0
 16 17  1  0
 17 18  2  0
 18 19  1  0
 19 20  1  0
 20 21  1  0
 21 22  1  0
 22 23  1  0
 22 24  1  0
 24 25  1  0
 24 26  1  0
 19 27  1  0
 27 28  1  6
 27 29  1  0
 29 30  1  0
 30 31  1  0
 31 32  1  6
  7  5  1  0
 31 10  1  0
 31 13  1  0
 27 15  1  0
 24 18  1  0
  1 33  1  0
  1 34  1  0
  1 35  1  0
  2 36  1  6
  3 37  1  0
  3 38  1  0
  4 39  1  0
  4 40  1  0
  5 41  1  1
  8 42  1  0
  8 43  1  0
  8 44  1  0
  9 45  1  0
  9 46  1  0
  9 47  1  0
 10 48  1  1
 11 49  1  0
 11 50  1  0
 12 51  1  0
 12 52  1  0
 14 53  1  0
 14 54  1  0
 14 55  1  0
 15 56  1  6
 16 57  1  0
 16 58  1  0
 17 59  1  0
 19 60  1  1
 20 61  1  0
 20 62  1  0
 21 63  1  0
 21 64  1  0
 22 65  1  1
 23 66  1  0
 25 67  1  0
 25 68  1  0
 25 69  1  0
 26 70  1  0
 26 71  1  0
 26 72  1  0
 28 73  1  0
 28 74  1  0
 28 75  1  0
 29 76  1  0
 29 77  1  0
 30 78  1  0
 30 79  1  0
 32 80  1  0
 32 81  1  0
 32 82  1  0
M  END
>  <meeko>  (10) 
{"is_sidechain": [false], "intermolecular_energy": 2.731, "internal_energy": -0.839}

$$$$
EPH_relaxed_0001_pdb2pqr_Repair_406_r2_0001_out
     RDKit          3D

 82 86  0  0  0  0  0  0  0  0999 V2000
   -1.1950   16.1940   -5.5620 C   0  0  0  0  0  0  0  0  0  0  0  0
   -0.0030   15.5000   -6.2260 C   0  0  2  0  0  0  0  0  0  0  0  0
   -0.3000   15.1040   -7.6860 C   0  0  0  0  0  0  0  0  0  0  0  0
    0.1650   16.1410   -8.7120 C   0  0  0  0  0  0  0  0  0  0  0  0
    1.6000   15.9380   -9.0930 C   0  0  2  0  0  0  0  0  0  0  0  0
    2.0420   16.7280  -10.2050 O   0  0  0  0  0  0  0  0  0  0  0  0
    2.0370   15.3050  -10.4010 C   0  0  0  0  0  0  0  0  0  0  0  0
    1.0390   14.8330  -11.4110 C   0  0  0  0  0  0  0  0  0  0  0  0
    3.4060   14.7030  -10.4820 C   0  0  0  0  0  0  0  0  0  0  0  0
    0.3940   14.2670   -5.4230 C   0  0  1  0  0  0  0  0  0  0  0  0
    1.4140   13.3680   -6.1720 C   0  0  0  0  0  0  0  0  0  0  0  0
    2.3560   12.7680   -5.0970 C   0  0  0  0  0  0  0  0  0  0  0  0
    1.6530   13.0670   -3.7520 C   0  0  1  0  0  0  0  0  0  0  0  0
    0.5710   11.9520   -3.6080 C   0  0  0  0  0  0  0  0  0  0  0  0
    2.5760   13.1430   -2.4920 C   0  0  2  0  0  0  0  0  0  0  0  0
    3.3160   11.8380   -2.1470 C   0  0  0  0  0  0  0  0  0  0  0  0
    2.5930   10.9230   -1.2150 C   0  0  0  0  0  0  0  0  0  0  0  0
    1.5330   11.2570   -0.4550 C   0  0  0  0  0  0  0  0  0  0  0  0
    1.0180   12.7020   -0.4140 C   0  0  1  0  0  0  0  0  0  0  0  0
    0.7700   13.1220    1.0580 C   0  0  0  0  0  0  0  0  0  0  0  0
   -0.1490   12.1530    1.7960 C   0  0  0  0  0  0  0  0  0  0  0  0
    0.4260   10.7390    1.7840 C   0  0  2  0  0  0  0  0  0  0  0  0
    1.6250   10.7220    2.5640 O   0  0  0  0  0  0  0  0  0  0  0  0
    0.7250   10.2120    0.3520 C   0  0  0  0  0  0  0  0  0  0  0  0
   -0.6060    9.9440   -0.3930 C   0  0  0  0  0  0  0  0  0  0  0  0
    1.4310    8.8360    0.4880 C   0  0  0  0  0  0  0  0  0  0  0  0
    1.8810   13.7690   -1.2160 C   0  0  1  0  0  0  0  0  0  0  0  0
    3.0250   14.3170   -0.3100 C   0  0  0  0  0  0  0  0  0  0  0  0
    0.9700   15.0020   -1.5750 C   0  0  0  0  0  0  0  0  0  0  0  0
    0.1750   14.9180   -2.8920 C   0  0  0  0  0  0  0  0  0  0  0  0
    1.0810   14.5000   -4.0540 C   0  0  2  0  0  0  0  0  0  0  0  0
    2.1670   15.6150   -4.2380 C   0  0  0  0  0  0  0  0  0  0  0  0
   -1.0918   16.1339   -4.4685 H   0  0  0  0  0  0  0  0  0  0  0  0
   -1.2230   17.2496   -5.8702 H   0  0  0  0  0  0  0  0  0  0  0  0
   -2.1268   15.6972   -5.8702 H   0  0  0  0  0  0  0  0  0  0  0  0
    0.8302   16.2180   -6.2419 H   0  0  0  0  0  0  0  0  0  0  0  0
    0.2098   14.1527   -7.8983 H   0  0  0  0  0  0  0  0  0  0  0  0
   -1.3930   15.0251   -7.7816 H   0  0  0  0  0  0  0  0  0  0  0  0
   -0.4590   16.0551   -9.6138 H   0  0  0  0  0  0  0  0  0  0  0  0
    0.0679   17.1389   -8.2595 H   0  0  0  0  0  0  0  0  0  0  0  0
    1.8732   15.7344   -8.0471 H   0  0  0  0  0  0  0  0  0  0  0  0
    0.1616   14.4180  -10.8933 H   0  0  0  0  0  0  0  0  0  0  0  0
    0.7269   15.6789  -12.0411 H   0  0  0  0  0  0  0  0  0  0  0  0
    1.4948   14.0551  -12.0411 H   0  0  0  0  0  0  0  0  0  0  0  0
    3.7925   14.5330   -9.4663 H   0  0  0  0  0  0  0  0  0  0  0  0
    3.3539   13.7447  -11.0196 H   0  0  0  0  0  0  0  0  0  0  0  0
    4.0770   15.3891  -11.0196 H   0  0  0  0  0  0  0  0  0  0  0  0
   -0.5989   13.8175   -5.2743 H   0  0  0  0  0  0  0  0  0  0  0  0
    0.8883   12.5631   -6.7067 H   0  0  0  0  0  0  0  0  0  0  0  0
    1.9813   13.9486   -6.9143 H   0  0  0  0  0  0  0  0  0  0  0  0
    2.4707   11.6837   -5.2427 H   0  0  0  0  0  0  0  0  0  0  0  0
    3.3681   13.1963   -5.1431 H   0  0  0  0  0  0  0  0  0  0  0  0
    0.3834   11.7587   -2.5415 H   0  0  0  0  0  0  0  0  0  0  0  0
   -0.3611   12.2811   -4.0905 H   0  0  0  0  0  0  0  0  0  0  0  0
    0.9280   11.0302   -4.0905 H   0  0  0  0  0  0  0  0  0  0  0  0
    3.3538   13.8526   -2.8107 H   0  0  0  0  0  0  0  0  0  0  0  0
    3.4992   11.2929   -3.0847 H   0  0  0  0  0  0  0  0  0  0  0  0
    4.2367   12.1386   -1.6255 H   0  0  0  0  0  0  0  0  0  0  0  0
    2.9574    9.8876   -1.1430 H   0  0  0  0  0  0  0  0  0  0  0  0
    0.0671   12.7013   -0.9670 H   0  0  0  0  0  0  0  0  0  0  0  0
    1.7366   13.1593    1.5817 H   0  0  0  0  0  0  0  0  0  0  0  0
    0.2777   14.1056    1.0462 H   0  0  0  0  0  0  0  0  0  0  0  0
   -0.2618   12.4868    2.8380 H   0  0  0  0  0  0  0  0  0  0  0  0
   -1.1248   12.1394    1.2885 H   0  0  0  0  0  0  0  0  0  0  0  0
   -0.3346   10.0694    2.2119 H   0  0  0  0  0  0  0  0  0  0  0  0
    2.3730   10.6260    1.9510 H   0  0  0  0  0  0  0  0  0  0  0  0
   -1.4102    9.7821    0.3398 H   0  0  0  0  0  0  0  0  0  0  0  0
   -0.8539   10.8103   -1.0240 H   0  0  0  0  0  0  0  0  0  0  0  0
   -0.4993    9.0493   -1.0240 H   0  0  0  0  0  0  0  0  0  0  0  0
    1.5563    8.5919    1.5532 H   0  0  0  0  0  0  0  0  0  0  0  0
    0.8194    8.0606    0.0036 H   0  0  0  0  0  0  0  0  0  0  0  0
    2.4176    8.8806    0.0036 H   0  0  0  0  0  0  0  0  0  0  0  0
    2.7505   14.1855    0.7470 H   0  0  0  0  0  0  0  0  0  0  0  0
    3.9539   13.7661   -0.5189 H   0  0  0  0  0  0  0  0  0  0  0  0
    3.1779   15.3861   -0.5189 H   0  0  0  0  0  0  0  0  0  0  0  0
    0.2460   15.1303   -0.7568 H   0  0  0  0  0  0  0  0  0  0  0  0
    1.6651   15.8435   -1.7115 H   0  0  0  0  0  0  0  0  0  0  0  0
   -0.6305   14.1774   -2.7794 H   0  0  0  0  0  0  0  0  0  0  0  0
   -0.2430   15.9112   -3.1131 H   0  0  0  0  0  0  0  0  0  0  0  0
    2.5060   15.9631   -3.2511 H   0  0  0  0  0  0  0  0  0  0  0  0
    3.0220   15.2056   -4.7960 H   0  0  0  0  0  0  0  0  0  0  0  0
    1.7352   16.4589   -4.7960 H   0  0  0  0  0  0  0  0  0  0  0  0
  1  2  1  0
  2  3  1  0
  3  4  1  0
  4  5  1  0
  5  6  1  0
  6  7  1  0
  7  8  1  0
  7  9  1  0
  2 10  1  0
 10 11  1  0
 11 12  1  0
 12 13  1  0
 13 14  1  1
 13 15  1  0
 15 16  1  0
 16 17  1  0
 17 18  2  0
 18 19  1  0
 19 20  1  0
 20 21  1  0
 21 22  1  0
 22 23  1  0
 22 24  1  0
 24 25  1  0
 24 26  1  0
 19 27  1  0
 27 28  1  1
 27 29  1  0
 29 30  1  0
 30 31  1  0
 31 32  1  6
  7  5  1  0
 31 10  1  0
 31 13  1  0
 27 15  1  0
 24 18  1  0
  1 33  1  0
  1 34  1  0
  1 35  1  0
  2 36  1  6
  3 37  1  0
  3 38  1  0
  4 39  1  0
  4 40  1  0
  5 41  1  1
  8 42  1  0
  8 43  1  0
  8 44  1  0
  9 45  1  0
  9 46  1  0
  9 47  1  0
 10 48  1  1
 11 49  1  0
 11 50  1  0
 12 51  1  0
 12 52  1  0
 14 53  1  0
 14 54  1  0
 14 55  1  0
 15 56  1  6
 16 57  1  0
 16 58  1  0
 17 59  1  0
 19 60  1  6
 20 61  1  0
 20 62  1  0
 21 63  1  0
 21 64  1  0
 22 65  1  1
 23 66  1  0
 25 67  1  0
 25 68  1  0
 25 69  1  0
 26 70  1  0
 26 71  1  0
 26 72  1  0
 28 73  1  0
 28 74  1  0
 28 75  1  0
 29 76  1  0
 29 77  1  0
 30 78  1  0
 30 79  1  0
 32 80  1  0
 32 81  1  0
 32 82  1  0
M  END
>  <meeko>  (11) 
{"is_sidechain": [false], "intermolecular_energy": 2.731, "internal_energy": -0.839}

$$$$
EPH_relaxed_0001_pdb2pqr_Repair_406_r2_0001_out
     RDKit          3D

 82 86  0  0  0  0  0  0  0  0999 V2000
   -3.6940    7.2210   -3.4330 C   0  0  0  0  0  0  0  0  0  0  0  0
   -3.6890    7.2900   -1.9040 C   0  0  2  0  0  0  0  0  0  0  0  0
   -5.0880    7.0380   -1.3060 C   0  0  0  0  0  0  0  0  0  0  0  0
   -6.2200    7.1200   -2.3340 C   0  0  0  0  0  0  0  0  0  0  0  0
   -7.5400    7.4030   -1.6830 C   0  0  2  0  0  0  0  0  0  0  0  0
   -8.1860    6.2550   -1.1170 O   0  0  0  0  0  0  0  0  0  0  0  0
   -8.8630    6.8860   -2.2160 C   0  0  0  0  0  0  0  0  0  0  0  0
   -8.9310    6.0450   -3.4520 C   0  0  0  0  0  0  0  0  0  0  0  0
  -10.1200    7.5960   -1.8220 C   0  0  0  0  0  0  0  0  0  0  0  0
   -3.1630    8.6460   -1.4470 C   0  0  1  0  0  0  0  0  0  0  0  0
   -3.8490    9.1450   -0.1470 C   0  0  0  0  0  0  0  0  0  0  0  0
   -2.7720    9.9140    0.6600 C   0  0  0  0  0  0  0  0  0  0  0  0
   -1.6090   10.1190   -0.3380 C   0  0  1  0  0  0  0  0  0  0  0  0
   -2.0290   11.3530   -1.1960 C   0  0  0  0  0  0  0  0  0  0  0  0
   -0.1870   10.3060    0.2850 C   0  0  2  0  0  0  0  0  0  0  0  0
   -0.0240   11.5500    1.1760 C   0  0  0  0  0  0  0  0  0  0  0  0
    0.4310   12.7840    0.4710 C   0  0  0  0  0  0  0  0  0  0  0  0
    0.9690   12.8270   -0.7620 C   0  0  0  0  0  0  0  0  0  0  0  0
    1.2590   11.5370   -1.5400 C   0  0  1  0  0  0  0  0  0  0  0  0
    2.6840   11.6090   -2.1500 C   0  0  0  0  0  0  0  0  0  0  0  0
    2.8960   12.8610   -2.9960 C   0  0  0  0  0  0  0  0  0  0  0  0
    2.6550   14.1230   -2.1720 C   0  0  2  0  0  0  0  0  0  0  0  0
    3.6720   14.2190   -1.1690 O   0  0  0  0  0  0  0  0  0  0  0  0
    1.2540   14.1580   -1.5000 C   0  0  0  0  0  0  0  0  0  0  0  0
    0.1630   14.3580   -2.5810 C   0  0  0  0  0  0  0  0  0  0  0  0
    1.1940   15.4130   -0.5870 C   0  0  0  0  0  0  0  0  0  0  0  0
    0.9990   10.1800   -0.7550 C   0  0  1  0  0  0  0  0  0  0  0  0
    2.2670    9.7870    0.0620 C   0  0  0  0  0  0  0  0  0  0  0  0
    0.7630    9.0210   -1.7940 C   0  0  0  0  0  0  0  0  0  0  0  0
   -0.6830    8.8100   -2.2820 C   0  0  0  0  0  0  0  0  0  0  0  0
   -1.6560    8.7450   -1.1010 C   0  0  2  0  0  0  0  0  0  0  0  0
   -1.2720    7.4990   -0.2320 C   0  0  0  0  0  0  0  0  0  0  0  0
   -3.7701    6.1711   -3.7524 H   0  0  0  0  0  0  0  0  0  0  0  0
   -4.5536    7.7860   -3.8227 H   0  0  0  0  0  0  0  0  0  0  0  0
   -2.7620    7.6562   -3.8227 H   0  0  0  0  0  0  0  0  0  0  0  0
   -3.0261    6.4917   -1.5389 H   0  0  0  0  0  0  0  0  0  0  0  0
   -5.0983    6.0337   -0.8573 H   0  0  0  0  0  0  0  0  0  0  0  0
   -5.2685    7.8304   -0.5647 H   0  0  0  0  0  0  0  0  0  0  0  0
   -5.9950    7.9253   -3.0487 H   0  0  0  0  0  0  0  0  0  0  0  0
   -6.2907    6.1483   -2.8448 H   0  0  0  0  0  0  0  0  0  0  0  0
   -7.2060    8.4085   -1.3875 H   0  0  0  0  0  0  0  0  0  0  0  0
   -9.0167    4.9852   -3.1701 H   0  0  0  0  0  0  0  0  0  0  0  0
   -9.8084    6.3382   -4.0472 H   0  0  0  0  0  0  0  0  0  0  0  0
   -8.0179    6.1934   -4.0472 H   0  0  0  0  0  0  0  0  0  0  0  0
  -10.1902    7.6357   -0.7250 H   0  0  0  0  0  0  0  0  0  0  0  0
  -10.1052    8.6191   -2.2257 H   0  0  0  0  0  0  0  0  0  0  0  0
  -10.9886    7.0551   -2.2257 H   0  0  0  0  0  0  0  0  0  0  0  0
   -3.3823    9.2412   -2.3457 H   0  0  0  0  0  0  0  0  0  0  0  0
   -4.6869    9.8137   -0.3935 H   0  0  0  0  0  0  0  0  0  0  0  0
   -4.2524    8.3032    0.4349 H   0  0  0  0  0  0  0  0  0  0  0  0
   -3.1631   10.8826    1.0048 H   0  0  0  0  0  0  0  0  0  0  0  0
   -2.4569    9.3676    1.5612 H   0  0  0  0  0  0  0  0  0  0  0  0
   -2.3114   12.1827   -0.5313 H   0  0  0  0  0  0  0  0  0  0  0  0
   -1.1856   11.6624   -1.8307 H   0  0  0  0  0  0  0  0  0  0  0  0
   -2.8861   11.0837   -1.8307 H   0  0  0  0  0  0  0  0  0  0  0  0
   -0.1104    9.4417    0.9612 H   0  0  0  0  0  0  0  0  0  0  0  0
   -0.9971   11.7641    1.6421 H   0  0  0  0  0  0  0  0  0  0  0  0
    0.7668   11.3042    1.9000 H   0  0  0  0  0  0  0  0  0  0  0  0
    0.3171   13.7394    1.0041 H   0  0  0  0  0  0  0  0  0  0  0  0
    0.5103   11.4929   -2.3447 H   0  0  0  0  0  0  0  0  0  0  0  0
    3.4185   11.6083   -1.3311 H   0  0  0  0  0  0  0  0  0  0  0  0
    2.8100   10.7364   -2.8078 H   0  0  0  0  0  0  0  0  0  0  0  0
    3.9290   12.8695   -3.3739 H   0  0  0  0  0  0  0  0  0  0  0  0
    2.1810   12.8454   -3.8318 H   0  0  0  0  0  0  0  0  0  0  0  0
    2.6935   14.9795   -2.8611 H   0  0  0  0  0  0  0  0  0  0  0  0
    3.5450   15.0620   -0.7010 H   0  0  0  0  0  0  0  0  0  0  0  0
   -0.8073   14.5359   -2.0942 H   0  0  0  0  0  0  0  0  0  0  0  0
    0.4227   15.2235   -3.2083 H   0  0  0  0  0  0  0  0  0  0  0  0
    0.0988   13.4567   -3.2083 H   0  0  0  0  0  0  0  0  0  0  0  0
    1.2089   15.1003    0.4675 H   0  0  0  0  0  0  0  0  0  0  0  0
    2.0624   16.0567   -0.7909 H   0  0  0  0  0  0  0  0  0  0  0  0
    0.2682   15.9709   -0.7909 H   0  0  0  0  0  0  0  0  0  0  0  0
    2.0461    9.8555    1.1374 H   0  0  0  0  0  0  0  0  0  0  0  0
    2.5590    8.7562   -0.1874 H   0  0  0  0  0  0  0  0  0  0  0  0
    3.0908   10.4720   -0.1874 H   0  0  0  0  0  0  0  0  0  0  0  0
    1.3845    9.2334   -2.6764 H   0  0  0  0  0  0  0  0  0  0  0  0
    1.0240    8.0964   -1.2583 H   0  0  0  0  0  0  0  0  0  0  0  0
   -0.9675    9.6467   -2.9370 H   0  0  0  0  0  0  0  0  0  0  0  0
   -0.7328    7.8577   -2.8303 H   0  0  0  0  0  0  0  0  0  0  0  0
   -1.3515    7.7571    0.8343 H   0  0  0  0  0  0  0  0  0  0  0  0
   -1.9557    6.6681   -0.4601 H   0  0  0  0  0  0  0  0  0  0  0  0
   -0.2391    7.1971   -0.4601 H   0  0  0  0  0  0  0  0  0  0  0  0
  1  2  1  0
  2  3  1  0
  3  4  1  0
  4  5  1  0
  5  6  1  0
  6  7  1  0
  7  8  1  0
  7  9  1  0
  2 10  1  0
 10 11  1  0
 11 12  1  0
 12 13  1  0
 13 14  1  6
 13 15  1  0
 15 16  1  0
 16 17  1  0
 17 18  2  0
 18 19  1  0
 19 20  1  0
 20 21  1  0
 21 22  1  0
 22 23  1  0
 22 24  1  0
 24 25  1  0
 24 26  1  0
 19 27  1  0
 27 28  1  1
 27 29  1  0
 29 30  1  0
 30 31  1  0
 31 32  1  1
  7  5  1  0
 31 10  1  0
 31 13  1  0
 27 15  1  0
 24 18  1  0
  1 33  1  0
  1 34  1  0
  1 35  1  0
  2 36  1  1
  3 37  1  0
  3 38  1  0
  4 39  1  0
  4 40  1  0
  5 41  1  1
  8 42  1  0
  8 43  1  0
  8 44  1  0
  9 45  1  0
  9 46  1  0
  9 47  1  0
 10 48  1  6
 11 49  1  0
 11 50  1  0
 12 51  1  0
 12 52  1  0
 14 53  1  0
 14 54  1  0
 14 55  1  0
 15 56  1  1
 16 57  1  0
 16 58  1  0
 17 59  1  0
 19 60  1  6
 20 61  1  0
 20 62  1  0
 21 63  1  0
 21 64  1  0
 22 65  1  6
 23 66  1  0
 25 67  1  0
 25 68  1  0
 25 69  1  0
 26 70  1  0
 26 71  1  0
 26 72  1  0
 28 73  1  0
 28 74  1  0
 28 75  1  0
 29 76  1  0
 29 77  1  0
 30 78  1  0
 30 79  1  0
 32 80  1  0
 32 81  1  0
 32 82  1  0
M  END
>  <meeko>  (12) 
{"is_sidechain": [false], "intermolecular_energy": 2.731, "internal_energy": -0.839}

$$$$
EPH_relaxed_0001_pdb2pqr_Repair_406_r2_0001_out
     RDKit          3D

 82 86  0  0  0  0  0  0  0  0999 V2000
    3.0140   12.4020   -5.5800 C   0  0  0  0  0  0  0  0  0  0  0  0
    1.6050   13.0000   -5.5260 C   0  0  2  0  0  0  0  0  0  0  0  0
    1.5360   14.3860   -6.1980 C   0  0  0  0  0  0  0  0  0  0  0  0
    0.5470   14.4570   -7.3640 C   0  0  0  0  0  0  0  0  0  0  0  0
    0.6280   15.7700   -8.0810 C   0  0  2  0  0  0  0  0  0  0  0  0
    0.2770   15.7170   -9.4700 O   0  0  0  0  0  0  0  0  0  0  0  0
    1.6390   16.0670   -9.1730 C   0  0  0  0  0  0  0  0  0  0  0  0
    2.6390   15.0420   -9.6100 C   0  0  0  0  0  0  0  0  0  0  0  0
    1.9730   17.4950   -9.4710 C   0  0  0  0  0  0  0  0  0  0  0  0
    1.1380   13.0990   -4.0790 C   0  0  1  0  0  0  0  0  0  0  0  0
   -0.2920   13.6890   -3.9520 C   0  0  0  0  0  0  0  0  0  0  0  0
   -0.9670   12.9720   -2.7540 C   0  0  0  0  0  0  0  0  0  0  0  0
    0.1910   12.2440   -2.0320 C   0  0  1  0  0  0  0  0  0  0  0  0
    0.8690   13.3420   -1.1540 C   0  0  0  0  0  0  0  0  0  0  0  0
   -0.2030   10.9900   -1.1860 C   0  0  2  0  0  0  0  0  0  0  0  0
   -1.1480   11.2700   -0.0040 C   0  0  0  0  0  0  0  0  0  0  0  0
   -0.4740   11.5840    1.2900 C   0  0  0  0  0  0  0  0  0  0  0  0
    0.8230   11.3620    1.5710 C   0  0  0  0  0  0  0  0  0  0  0  0
    1.7360   10.6480    0.5650 C   0  0  1  0  0  0  0  0  0  0  0  0
    2.5640    9.5610    1.2980 C   0  0  0  0  0  0  0  0  0  0  0  0
    3.3350   10.1180    2.4920 C   0  0  0  0  0  0  0  0  0  0  0  0
    2.3870   10.7680    3.4970 C   0  0  2  0  0  0  0  0  0  0  0  0
    1.5620    9.7530    4.0760 O   0  0  0  0  0  0  0  0  0  0  0  0
    1.4930   11.8740    2.8700 C   0  0  0  0  0  0  0  0  0  0  0  0
    2.3620   13.1070    2.5150 C   0  0  0  0  0  0  0  0  0  0  0  0
    0.4890   12.3480    3.9550 C   0  0  0  0  0  0  0  0  0  0  0  0
    1.0250   10.0950   -0.7440 C   0  0  1  0  0  0  0  0  0  0  0  0
    0.4610    8.6650   -0.4790 C   0  0  0  0  0  0  0  0  0  0  0  0
    2.0970    9.9440   -1.8870 C   0  0  0  0  0  0  0  0  0  0  0  0
    2.3550   11.1830   -2.7650 C   0  0  0  0  0  0  0  0  0  0  0  0
    1.0390   11.7800   -3.2720 C   0  0  2  0  0  0  0  0  0  0  0  0
    0.3430   10.7060   -4.1770 C   0  0  0  0  0  0  0  0  0  0  0  0
    3.3850   12.2446   -4.5565 H   0  0  0  0  0  0  0  0  0  0  0  0
    2.9836   11.4392   -6.1112 H   0  0  0  0  0  0  0  0  0  0  0  0
    3.6854   13.0927   -6.1112 H   0  0  0  0  0  0  0  0  0  0  0  0
    0.9386   12.3281   -6.0868 H   0  0  0  0  0  0  0  0  0  0  0  0
    1.2334   15.1242   -5.4407 H   0  0  0  0  0  0  0  0  0  0  0  0
    2.5344   14.5927   -6.6109 H   0  0  0  0  0  0  0  0  0  0  0  0
    0.7748   13.6485   -8.0742 H   0  0  0  0  0  0  0  0  0  0  0  0
   -0.4697   14.3506   -6.9579 H   0  0  0  0  0  0  0  0  0  0  0  0
    0.3501   16.3130   -7.1656 H   0  0  0  0  0  0  0  0  0  0  0  0
    3.0953   14.5743   -8.7251 H   0  0  0  0  0  0  0  0  0  0  0  0
    2.1353   14.2721  -10.2130 H   0  0  0  0  0  0  0  0  0  0  0  0
    3.4211   15.5265  -10.2130 H   0  0  0  0  0  0  0  0  0  0  0  0
    2.1019   18.0460   -8.5277 H   0  0  0  0  0  0  0  0  0  0  0  0
    2.9059   17.5398  -10.0522 H   0  0  0  0  0  0  0  0  0  0  0  0
    1.1568   17.9489  -10.0522 H   0  0  0  0  0  0  0  0  0  0  0  0
    1.9391   13.7318   -3.6694 H   0  0  0  0  0  0  0  0  0  0  0  0
   -0.2398   14.7717   -3.7649 H   0  0  0  0  0  0  0  0  0  0  0  0
   -0.8659   13.5364   -4.8779 H   0  0  0  0  0  0  0  0  0  0  0  0
   -1.4447   13.7018   -2.0838 H   0  0  0  0  0  0  0  0  0  0  0  0
   -1.7593   12.2797   -3.0749 H   0  0  0  0  0  0  0  0  0  0  0  0
    0.7218   13.1036   -0.0903 H   0  0  0  0  0  0  0  0  0  0  0  0
    1.9457   13.3763   -1.3765 H   0  0  0  0  0  0  0  0  0  0  0  0
    0.4173   14.3200   -1.3765 H   0  0  0  0  0  0  0  0  0  0  0  0
   -0.7896   10.3969   -1.9031 H   0  0  0  0  0  0  0  0  0  0  0  0
   -1.7840   12.1264   -0.2727 H   0  0  0  0  0  0  0  0  0  0  0  0
   -1.7102   10.3394    0.1634 H   0  0  0  0  0  0  0  0  0  0  0  0
   -1.0901   12.0354    2.0816 H   0  0  0  0  0  0  0  0  0  0  0  0
    2.4083   11.4200    0.1625 H   0  0  0  0  0  0  0  0  0  0  0  0
    1.8795    8.7773    1.6548 H   0  0  0  0  0  0  0  0  0  0  0  0
    3.2986    9.1623    0.5829 H   0  0  0  0  0  0  0  0  0  0  0  0
    3.8761    9.2975    2.9859 H   0  0  0  0  0  0  0  0  0  0  0  0
    4.0406   10.8804    2.1303 H   0  0  0  0  0  0  0  0  0  0  0  0
    3.0052   11.2612    4.2616 H   0  0  0  0  0  0  0  0  0  0  0  0
    2.0890    8.9370    4.1240 H   0  0  0  0  0  0  0  0  0  0  0  0
    2.7045   13.5929    3.4405 H   0  0  0  0  0  0  0  0  0  0  0  0
    3.2333   12.7842    1.9262 H   0  0  0  0  0  0  0  0  0  0  0  0
    1.7650   13.8191    1.9262 H   0  0  0  0  0  0  0  0  0  0  0  0
    0.9073   12.1505    4.9530 H   0  0  0  0  0  0  0  0  0  0  0  0
    0.3076   13.4269    3.8404 H   0  0  0  0  0  0  0  0  0  0  0  0
   -0.4593   11.8025    3.8404 H   0  0  0  0  0  0  0  0  0  0  0  0
    0.3931    8.4928    0.6053 H   0  0  0  0  0  0  0  0  0  0  0  0
   -0.5394    8.5764   -0.9277 H   0  0  0  0  0  0  0  0  0  0  0  0
    1.1316    7.9174   -0.9277 H   0  0  0  0  0  0  0  0  0  0  0  0
    3.0507    9.6666   -1.4143 H   0  0  0  0  0  0  0  0  0  0  0  0
    1.6843    9.1875   -2.5707 H   0  0  0  0  0  0  0  0  0  0  0  0
    2.8882   11.9400   -2.1712 H   0  0  0  0  0  0  0  0  0  0  0  0
    2.9588   10.8782   -3.6325 H   0  0  0  0  0  0  0  0  0  0  0  0
   -0.1454    9.9523   -3.5419 H   0  0  0  0  0  0  0  0  0  0  0  0
   -0.4107   11.1945   -4.8121 H   0  0  0  0  0  0  0  0  0  0  0  0
    1.0967   10.2176   -4.8121 H   0  0  0  0  0  0  0  0  0  0  0  0
  1  2  1  0
  2  3  1  0
  3  4  1  0
  4  5  1  0
  5  6  1  0
  6  7  1  0
  7  8  1  0
  7  9  1  0
  2 10  1  0
 10 11  1  0
 11 12  1  0
 12 13  1  0
 13 14  1  1
 13 15  1  0
 15 16  1  0
 16 17  1  0
 17 18  2  0
 18 19  1  0
 19 20  1  0
 20 21  1  0
 21 22  1  0
 22 23  1  0
 22 24  1  0
 24 25  1  0
 24 26  1  0
 19 27  1  0
 27 28  1  1
 27 29  1  0
 29 30  1  0
 30 31  1  0
 31 32  1  6
  7  5  1  0
 31 10  1  0
 31 13  1  0
 27 15  1  0
 24 18  1  0
  1 33  1  0
  1 34  1  0
  1 35  1  0
  2 36  1  6
  3 37  1  0
  3 38  1  0
  4 39  1  0
  4 40  1  0
  5 41  1  1
  8 42  1  0
  8 43  1  0
  8 44  1  0
  9 45  1  0
  9 46  1  0
  9 47  1  0
 10 48  1  1
 11 49  1  0
 11 50  1  0
 12 51  1  0
 12 52  1  0
 14 53  1  0
 14 54  1  0
 14 55  1  0
 15 56  1  6
 16 57  1  0
 16 58  1  0
 17 59  1  0
 19 60  1  6
 20 61  1  0
 20 62  1  0
 21 63  1  0
 21 64  1  0
 22 65  1  1
 23 66  1  0
 25 67  1  0
 25 68  1  0
 25 69  1  0
 26 70  1  0
 26 71  1  0
 26 72  1  0
 28 73  1  0
 28 74  1  0
 28 75  1  0
 29 76  1  0
 29 77  1  0
 30 78  1  0
 30 79  1  0
 32 80  1  0
 32 81  1  0
 32 82  1  0
M  END
>  <meeko>  (13) 
{"is_sidechain": [false], "intermolecular_energy": 2.731, "internal_energy": -0.839}

$$$$
EPH_relaxed_0001_pdb2pqr_Repair_406_r2_0001_out
     RDKit          3D

 82 86  0  0  0  0  0  0  0  0999 V2000
    2.4000   16.2830   -7.0500 C   0  0  0  0  0  0  0  0  0  0  0  0
    1.4070   15.1250   -6.9130 C   0  0  2  0  0  0  0  0  0  0  0  0
    0.1330   15.3500   -7.7510 C   0  0  0  0  0  0  0  0  0  0  0  0
    0.3950   16.0200   -9.1030 C   0  0  0  0  0  0  0  0  0  0  0  0
    1.8080   15.8110   -9.5590 C   0  0  2  0  0  0  0  0  0  0  0  0
    2.1770   16.5620  -10.7240 O   0  0  0  0  0  0  0  0  0  0  0  0
    2.1730   15.1320  -10.8660 C   0  0  0  0  0  0  0  0  0  0  0  0
    1.1210   14.6160  -11.7980 C   0  0  0  0  0  0  0  0  0  0  0  0
    3.5390   14.5360  -11.0050 C   0  0  0  0  0  0  0  0  0  0  0  0
    1.0390   14.9270   -5.4470 C   0  0  1  0  0  0  0  0  0  0  0  0
   -0.2990   15.6170   -5.0690 C   0  0  0  0  0  0  0  0  0  0  0  0
   -0.9870   14.7120   -4.0150 C   0  0  0  0  0  0  0  0  0  0  0  0
    0.1140   13.7170   -3.5770 C   0  0  1  0  0  0  0  0  0  0  0  0
    0.9700   14.5000   -2.5330 C   0  0  0  0  0  0  0  0  0  0  0  0
   -0.3800   12.3470   -3.0090 C   0  0  2  0  0  0  0  0  0  0  0  0
   -1.2140   12.4370   -1.7200 C   0  0  0  0  0  0  0  0  0  0  0  0
   -0.4350   12.3650   -0.4490 C   0  0  0  0  0  0  0  0  0  0  0  0
    0.8400   11.9490   -0.3360 C   0  0  0  0  0  0  0  0  0  0  0  0
    1.6010   11.4010   -1.5510 C   0  0  1  0  0  0  0  0  0  0  0  0
    2.3320   10.0910   -1.1570 C   0  0  0  0  0  0  0  0  0  0  0  0
    3.2310   10.2670    0.0630 C   0  0  0  0  0  0  0  0  0  0  0  0
    2.4290   10.7570    1.2650 C   0  0  2  0  0  0  0  0  0  0  0  0
    1.5210    9.7250    1.6650 O   0  0  0  0  0  0  0  0  0  0  0  0
    1.6410   12.0670    0.9840 C   0  0  0  0  0  0  0  0  0  0  0  0
    2.6300   13.2510    0.8490 C   0  0  0  0  0  0  0  0  0  0  0  0
    0.7650   12.3740    2.2290 C   0  0  0  0  0  0  0  0  0  0  0  0
    0.7540   11.2490   -2.8880 C   0  0  1  0  0  0  0  0  0  0  0  0
    0.0380    9.8650   -2.9090 C   0  0  0  0  0  0  0  0  0  0  0  0
    1.7330   11.2620   -4.1210 C   0  0  0  0  0  0  0  0  0  0  0  0
    2.0890   12.6390   -4.7120 C   0  0  0  0  0  0  0  0  0  0  0  0
    0.8270   13.4730   -4.9570 C   0  0  2  0  0  0  0  0  0  0  0  0
   -0.0430   12.7210   -6.0210 C   0  0  0  0  0  0  0  0  0  0  0  0
    2.6981   16.6306   -6.0499 H   0  0  0  0  0  0  0  0  0  0  0  0
    3.2893   15.9404   -7.5993 H   0  0  0  0  0  0  0  0  0  0  0  0
    1.9257   17.1097   -7.5993 H   0  0  0  0  0  0  0  0  0  0  0  0
    1.8989   14.2197   -7.2982 H   0  0  0  0  0  0  0  0  0  0  0  0
   -0.3396   14.3736   -7.9332 H   0  0  0  0  0  0  0  0  0  0  0  0
   -0.5139   16.0290   -7.1761 H   0  0  0  0  0  0  0  0  0  0  0  0
   -0.2884   15.5925   -9.8515 H   0  0  0  0  0  0  0  0  0  0  0  0
    0.2270   17.1011   -8.9891 H   0  0  0  0  0  0  0  0  0  0  0  0
    2.1439   15.6482   -8.5243 H   0  0  0  0  0  0  0  0  0  0  0  0
    0.2837   14.2053  -11.2146 H   0  0  0  0  0  0  0  0  0  0  0  0
    0.7577   15.4381  -12.4321 H   0  0  0  0  0  0  0  0  0  0  0  0
    1.5487   13.8254  -12.4321 H   0  0  0  0  0  0  0  0  0  0  0  0
    3.9619   14.3515  -10.0064 H   0  0  0  0  0  0  0  0  0  0  0  0
    3.4703   13.5861  -11.5554 H   0  0  0  0  0  0  0  0  0  0  0  0
    4.1887   15.2325  -11.5554 H   0  0  0  0  0  0  0  0  0  0  0  0
    1.9334   15.3571   -4.9726 H   0  0  0  0  0  0  0  0  0  0  0  0
   -0.1048   16.6129   -4.6442 H   0  0  0  0  0  0  0  0  0  0  0  0
   -0.9389   15.7493   -5.9539 H   0  0  0  0  0  0  0  0  0  0  0  0
   -1.3345   15.3084   -3.1585 H   0  0  0  0  0  0  0  0  0  0  0  0
   -1.8740   14.2017   -4.4184 H   0  0  0  0  0  0  0  0  0  0  0  0
    0.6592   14.2157   -1.5168 H   0  0  0  0  0  0  0  0  0  0  0  0
    2.0333   14.2554   -2.6732 H   0  0  0  0  0  0  0  0  0  0  0  0
    0.8209   15.5808   -2.6732 H   0  0  0  0  0  0  0  0  0  0  0  0
   -1.0746   12.0049   -3.7903 H   0  0  0  0  0  0  0  0  0  0  0  0
   -1.7562   13.3940   -1.7323 H   0  0  0  0  0  0  0  0  0  0  0  0
   -1.8732   11.5564   -1.7226 H   0  0  0  0  0  0  0  0  0  0  0  0
   -0.9461   12.6784    0.4733 H   0  0  0  0  0  0  0  0  0  0  0  0
    2.3376   12.1718   -1.8217 H   0  0  0  0  0  0  0  0  0  0  0  0
    1.5792    9.3211   -0.9322 H   0  0  0  0  0  0  0  0  0  0  0  0
    2.9709    9.7977   -2.0030 H   0  0  0  0  0  0  0  0  0  0  0  0
    3.6959    9.3012    0.3099 H   0  0  0  0  0  0  0  0  0  0  0  0
    4.0016   11.0154   -0.1737 H   0  0  0  0  0  0  0  0  0  0  0  0
    3.1453   10.9888    2.0669 H   0  0  0  0  0  0  0  0  0  0  0  0
    1.8400    9.3630    2.5090 H   0  0  0  0  0  0  0  0  0  0  0  0
    2.9221   13.6007    1.8502 H   0  0  0  0  0  0  0  0  0  0  0  0
    3.5245   12.9209    0.3005 H   0  0  0  0  0  0  0  0  0  0  0  0
    2.1459   14.0724    0.3005 H   0  0  0  0  0  0  0  0  0  0  0  0
    1.3428   12.1715    3.1428 H   0  0  0  0  0  0  0  0  0  0  0  0
    0.4629   13.4316    2.2130 H   0  0  0  0  0  0  0  0  0  0  0  0
   -0.1312   11.7364    2.2130 H   0  0  0  0  0  0  0  0  0  0  0  0
   -0.1369    9.5270   -1.8769 H   0  0  0  0  0  0  0  0  0  0  0  0
   -0.9250    9.9583   -3.4324 H   0  0  0  0  0  0  0  0  0  0  0  0
    0.6705    9.1329   -3.4324 H   0  0  0  0  0  0  0  0  0  0  0  0
    2.6715   10.7828   -3.8055 H   0  0  0  0  0  0  0  0  0  0  0  0
    1.1929   10.7364   -4.9223 H   0  0  0  0  0  0  0  0  0  0  0  0
    2.7433   13.1745   -4.0083 H   0  0  0  0  0  0  0  0  0  0  0  0
    2.6010   12.4865   -5.6735 H   0  0  0  0  0  0  0  0  0  0  0  0
   -0.7795   12.0844   -5.5088 H   0  0  0  0  0  0  0  0  0  0  0  0
   -0.5675   13.4548   -6.6506 H   0  0  0  0  0  0  0  0  0  0  0  0
    0.6071   12.0958   -6.6506 H   0  0  0  0  0  0  0  0  0  0  0  0
  1  2  1  0
  2  3  1  0
  3  4  1  0
  4  5  1  0
  5  6  1  0
  6  7  1  0
  7  8  1  0
  7  9  1  0
  2 10  1  0
 10 11  1  0
 11 12  1  0
 12 13  1  0
 13 14  1  1
 13 15  1  0
 15 16  1  0
 16 17  1  0
 17 18  2  0
 18 19  1  0
 19 20  1  0
 20 21  1  0
 21 22  1  0
 22 23  1  0
 22 24  1  0
 24 25  1  0
 24 26  1  0
 19 27  1  0
 27 28  1  1
 27 29  1  0
 29 30  1  0
 30 31  1  0
 31 32  1  6
  7  5  1  0
 31 10  1  0
 31 13  1  0
 27 15  1  0
 24 18  1  0
  1 33  1  0
  1 34  1  0
  1 35  1  0
  2 36  1  6
  3 37  1  0
  3 38  1  0
  4 39  1  0
  4 40  1  0
  5 41  1  1
  8 42  1  0
  8 43  1  0
  8 44  1  0
  9 45  1  0
  9 46  1  0
  9 47  1  0
 10 48  1  1
 11 49  1  0
 11 50  1  0
 12 51  1  0
 12 52  1  0
 14 53  1  0
 14 54  1  0
 14 55  1  0
 15 56  1  6
 16 57  1  0
 16 58  1  0
 17 59  1  0
 19 60  1  6
 20 61  1  0
 20 62  1  0
 21 63  1  0
 21 64  1  0
 22 65  1  1
 23 66  1  0
 25 67  1  0
 25 68  1  0
 25 69  1  0
 26 70  1  0
 26 71  1  0
 26 72  1  0
 28 73  1  0
 28 74  1  0
 28 75  1  0
 29 76  1  0
 29 77  1  0
 30 78  1  0
 30 79  1  0
 32 80  1  0
 32 81  1  0
 32 82  1  0
M  END
>  <meeko>  (14) 
{"is_sidechain": [false], "intermolecular_energy": 2.731, "internal_energy": -0.839}

$$$$
EPH_relaxed_0001_pdb2pqr_Repair_406_r2_0001_out
     RDKit          3D

 82 86  0  0  0  0  0  0  0  0999 V2000
   -0.5800   16.2180   -5.0460 C   0  0  0  0  0  0  0  0  0  0  0  0
    0.8580   15.6940   -5.0880 C   0  0  2  0  0  0  0  0  0  0  0  0
    1.0510   14.6150   -6.1720 C   0  0  0  0  0  0  0  0  0  0  0  0
    0.9140   15.1460   -7.6010 C   0  0  0  0  0  0  0  0  0  0  0  0
    2.2150   15.0830   -8.3430 C   0  0  2  0  0  0  0  0  0  0  0  0
    2.5800   16.2960   -9.0150 O   0  0  0  0  0  0  0  0  0  0  0  0
    2.3210   15.1590   -9.8550 C   0  0  0  0  0  0  0  0  0  0  0  0
    1.1050   15.3030  -10.7160 C   0  0  0  0  0  0  0  0  0  0  0  0
    3.5450   14.6050  -10.5150 C   0  0  0  0  0  0  0  0  0  0  0  0
    1.2490   15.1380   -3.7240 C   0  0  1  0  0  0  0  0  0  0  0  0
    1.2890   16.2310   -2.6230 C   0  0  0  0  0  0  0  0  0  0  0  0
    0.8110   15.5610   -1.3090 C   0  0  0  0  0  0  0  0  0  0  0  0
    0.8300   14.0450   -1.6150 C   0  0  1  0  0  0  0  0  0  0  0  0
    2.3200   13.6180   -1.4380 C   0  0  0  0  0  0  0  0  0  0  0  0
   -0.1310   13.1560   -0.7610 C   0  0  2  0  0  0  0  0  0  0  0  0
    0.1590   13.1480    0.7500 C   0  0  0  0  0  0  0  0  0  0  0  0
    1.1000   12.0850    1.2140 C   0  0  0  0  0  0  0  0  0  0  0  0
    1.4670   11.0020    0.5040 C   0  0  0  0  0  0  0  0  0  0  0  0
    0.8440   10.7110   -0.8680 C   0  0  1  0  0  0  0  0  0  0  0  0
    0.4340    9.2160   -0.9430 C   0  0  0  0  0  0  0  0  0  0  0  0
    1.5890    8.2750   -0.6150 C   0  0  0  0  0  0  0  0  0  0  0  0
    2.1430    8.5570    0.7790 C   0  0  2  0  0  0  0  0  0  0  0  0
    1.1470    8.2160    1.7480 O   0  0  0  0  0  0  0  0  0  0  0  0
    2.5810   10.0350    0.9770 C   0  0  0  0  0  0  0  0  0  0  0  0
    3.8550   10.3170    0.1420 C   0  0  0  0  0  0  0  0  0  0  0  0
    2.9870   10.2180    2.4640 C   0  0  0  0  0  0  0  0  0  0  0  0
   -0.3250   11.6880   -1.3200 C   0  0  1  0  0  0  0  0  0  0  0  0
   -1.6900   11.1770   -0.7660 C   0  0  0  0  0  0  0  0  0  0  0  0
   -0.4430   11.6570   -2.8900 C   0  0  0  0  0  0  0  0  0  0  0  0
    0.4450   12.6420   -3.6730 C   0  0  0  0  0  0  0  0  0  0  0  0
    0.3250   14.0600   -3.1040 C   0  0  2  0  0  0  0  0  0  0  0  0
   -1.1600   14.5250   -3.2890 C   0  0  0  0  0  0  0  0  0  0  0  0
   -0.8976   16.3337   -3.9992 H   0  0  0  0  0  0  0  0  0  0  0  0
   -0.6302   17.1922   -5.5543 H   0  0  0  0  0  0  0  0  0  0  0  0
   -1.2452   15.5045   -5.5543 H   0  0  0  0  0  0  0  0  0  0  0  0
    1.5113   16.5408   -5.3450 H   0  0  0  0  0  0  0  0  0  0  0  0
    2.0562   14.1833   -6.0570 H   0  0  0  0  0  0  0  0  0  0  0  0
    0.2548   13.8697   -6.0286 H   0  0  0  0  0  0  0  0  0  0  0  0
    0.1685   14.5399   -8.1366 H   0  0  0  0  0  0  0  0  0  0  0  0
    0.6007   16.1991   -7.5469 H   0  0  0  0  0  0  0  0  0  0  0  0
    2.6260   14.3737   -7.6095 H   0  0  0  0  0  0  0  0  0  0  0  0
    0.2148   15.4084  -10.0785 H   0  0  0  0  0  0  0  0  0  0  0  0
    1.2090   16.1951  -11.3511 H   0  0  0  0  0  0  0  0  0  0  0  0
    0.9977   14.4113  -11.3511 H   0  0  0  0  0  0  0  0  0  0  0  0
    4.2614   14.2807   -9.7458 H   0  0  0  0  0  0  0  0  0  0  0  0
    3.2662   13.7453  -11.1421 H   0  0  0  0  0  0  0  0  0  0  0  0
    4.0069   15.3818  -11.1421 H   0  0  0  0  0  0  0  0  0  0  0  0
    2.2247   14.6977   -3.9771 H   0  0  0  0  0  0  0  0  0  0  0  0
    2.3145   16.6105   -2.5033 H   0  0  0  0  0  0  0  0  0  0  0  0
    0.6453   17.0825   -2.8887 H   0  0  0  0  0  0  0  0  0  0  0  0
    1.4948   15.7986   -0.4808 H   0  0  0  0  0  0  0  0  0  0  0  0
   -0.1847   15.9118   -1.0000 H   0  0  0  0  0  0  0  0  0  0  0  0
    2.5571   13.5501   -0.3660 H   0  0  0  0  0  0  0  0  0  0  0  0
    2.4793   12.6380   -1.9116 H   0  0  0  0  0  0  0  0  0  0  0  0
    2.9742   14.3648   -1.9116 H   0  0  0  0  0  0  0  0  0  0  0  0
   -1.0956   13.6717   -0.8779 H   0  0  0  0  0  0  0  0  0  0  0  0
    0.5897   14.1239    1.0185 H   0  0  0  0  0  0  0  0  0  0  0  0
   -0.8020   12.9396    1.2429 H   0  0  0  0  0  0  0  0  0  0  0  0
    1.5292   12.1966    2.2206 H   0  0  0  0  0  0  0  0  0  0  0  0
    1.6287   10.9209   -1.6097 H   0  0  0  0  0  0  0  0  0  0  0  0
   -0.3807    9.0375   -0.2258 H   0  0  0  0  0  0  0  0  0  0  0  0
    0.1173    9.0083   -1.9757 H   0  0  0  0  0  0  0  0  0  0  0  0
    1.2299    7.2361   -0.6563 H   0  0  0  0  0  0  0  0  0  0  0  0
    2.3913    8.4340   -1.3506 H   0  0  0  0  0  0  0  0  0  0  0  0
    3.0469    7.9431    0.9054 H   0  0  0  0  0  0  0  0  0  0  0  0
    1.0410    8.9790    2.3420 H   0  0  0  0  0  0  0  0  0  0  0  0
    4.7023   10.5046    0.8179 H   0  0  0  0  0  0  0  0  0  0  0  0
    4.0778    9.4464   -0.4924 H   0  0  0  0  0  0  0  0  0  0  0  0
    3.6895   11.2003   -0.4924 H   0  0  0  0  0  0  0  0  0  0  0  0
    2.1772    9.8530    3.1128 H   0  0  0  0  0  0  0  0  0  0  0  0
    3.9048    9.6465    2.6665 H   0  0  0  0  0  0  0  0  0  0  0  0
    3.1667   11.2842    2.6665 H   0  0  0  0  0  0  0  0  0  0  0  0
   -1.6659   11.1860    0.3337 H   0  0  0  0  0  0  0  0  0  0  0  0
   -2.4984   11.8334   -1.1204 H   0  0  0  0  0  0  0  0  0  0  0  0
   -1.8686   10.1511   -1.1204 H   0  0  0  0  0  0  0  0  0  0  0  0
   -0.1861   10.6406   -3.2230 H   0  0  0  0  0  0  0  0  0  0  0  0
   -1.4761   11.9661   -3.1070 H   0  0  0  0  0  0  0  0  0  0  0  0
    1.4928   12.3143   -3.6047 H   0  0  0  0  0  0  0  0  0  0  0  0
    0.1135   12.6556   -4.7218 H   0  0  0  0  0  0  0  0  0  0  0  0
   -1.6243   14.6704   -2.3024 H   0  0  0  0  0  0  0  0  0  0  0  0
   -1.1807   15.4726   -3.8472 H   0  0  0  0  0  0  0  0  0  0  0  0
   -1.7174   13.7584   -3.8472 H   0  0  0  0  0  0  0  0  0  0  0  0
  1  2  1  0
  2  3  1  0
  3  4  1  0
  4  5  1  0
  5  6  1  0
  6  7  1  0
  7  8  1  0
  7  9  1  0
  2 10  1  0
 10 11  1  0
 11 12  1  0
 12 13  1  0
 13 14  1  6
 13 15  1  0
 15 16  1  0
 16 17  1  0
 17 18  2  0
 18 19  1  0
 19 20  1  0
 20 21  1  0
 21 22  1  0
 22 23  1  0
 22 24  1  0
 24 25  1  0
 24 26  1  0
 19 27  1  0
 27 28  1  1
 27 29  1  0
 29 30  1  0
 30 31  1  0
 31 32  1  1
  7  5  1  0
 31 10  1  0
 31 13  1  0
 27 15  1  0
 24 18  1  0
  1 33  1  0
  1 34  1  0
  1 35  1  0
  2 36  1  6
  3 37  1  0
  3 38  1  0
  4 39  1  0
  4 40  1  0
  5 41  1  1
  8 42  1  0
  8 43  1  0
  8 44  1  0
  9 45  1  0
  9 46  1  0
  9 47  1  0
 10 48  1  6
 11 49  1  0
 11 50  1  0
 12 51  1  0
 12 52  1  0
 14 53  1  0
 14 54  1  0
 14 55  1  0
 15 56  1  1
 16 57  1  0
 16 58  1  0
 17 59  1  0
 19 60  1  6
 20 61  1  0
 20 62  1  0
 21 63  1  0
 21 64  1  0
 22 65  1  1
 23 66  1  0
 25 67  1  0
 25 68  1  0
 25 69  1  0
 26 70  1  0
 26 71  1  0
 26 72  1  0
 28 73  1  0
 28 74  1  0
 28 75  1  0
 29 76  1  0
 29 77  1  0
 30 78  1  0
 30 79  1  0
 32 80  1  0
 32 81  1  0
 32 82  1  0
M  END
>  <meeko>  (15) 
{"is_sidechain": [false], "intermolecular_energy": 2.731, "internal_energy": -0.839}

$$$$
EPH_relaxed_0001_pdb2pqr_Repair_406_r2_0001_out
     RDKit          3D

 82 86  0  0  0  0  0  0  0  0999 V2000
   -2.2120    7.9110   -2.0050 C   0  0  0  0  0  0  0  0  0  0  0  0
   -2.2170    8.5830   -0.6300 C   0  0  2  0  0  0  0  0  0  0  0  0
   -3.6230    8.6020    0.0020 C   0  0  0  0  0  0  0  0  0  0  0  0
   -4.7590    8.5880   -1.0240 C   0  0  0  0  0  0  0  0  0  0  0  0
   -5.4690    7.2680   -1.0460 C   0  0  2  0  0  0  0  0  0  0  0  0
   -5.6070    6.6850   -2.3490 O   0  0  0  0  0  0  0  0  0  0  0  0
   -6.8280    7.0590   -1.6890 C   0  0  0  0  0  0  0  0  0  0  0  0
   -7.5580    8.1840   -2.3520 C   0  0  0  0  0  0  0  0  0  0  0  0
   -7.6560    5.8940   -1.2470 C   0  0  0  0  0  0  0  0  0  0  0  0
   -1.6780   10.0050   -0.7440 C   0  0  1  0  0  0  0  0  0  0  0  0
   -1.2210   10.5820    0.6220 C   0  0  0  0  0  0  0  0  0  0  0  0
    0.0060   11.4860    0.3380 C   0  0  0  0  0  0  0  0  0  0  0  0
    0.0120   11.6640   -1.1980 C   0  0  1  0  0  0  0  0  0  0  0  0
   -1.0370   12.7860   -1.4760 C   0  0  0  0  0  0  0  0  0  0  0  0
    1.3950   11.9920   -1.8500 C   0  0  2  0  0  0  0  0  0  0  0  0
    2.0280   13.3210   -1.4040 C   0  0  0  0  0  0  0  0  0  0  0  0
    1.6700   14.5090   -2.2350 C   0  0  0  0  0  0  0  0  0  0  0  0
    1.1070   14.4670   -3.4570 C   0  0  0  0  0  0  0  0  0  0  0  0
    0.8620   13.1290   -4.1660 C   0  0  1  0  0  0  0  0  0  0  0  0
    1.3440   13.2270   -5.6370 C   0  0  0  0  0  0  0  0  0  0  0  0
    0.7200   14.4050   -6.3800 C   0  0  0  0  0  0  0  0  0  0  0  0
    1.0350   15.7220   -5.6770 C   0  0  2  0  0  0  0  0  0  0  0  0
    2.4400   15.9720   -5.7730 O   0  0  0  0  0  0  0  0  0  0  0  0
    0.6030   15.7380   -4.1840 C   0  0  0  0  0  0  0  0  0  0  0  0
   -0.9430   15.7710   -4.0900 C   0  0  0  0  0  0  0  0  0  0  0  0
    1.1040   17.0670   -3.5560 C   0  0  0  0  0  0  0  0  0  0  0  0
    1.4210   11.8390   -3.4250 C   0  0  1  0  0  0  0  0  0  0  0  0
    2.9090   11.5990   -3.8240 C   0  0  0  0  0  0  0  0  0  0  0  0
    0.6200   10.5760   -3.9170 C   0  0  0  0  0  0  0  0  0  0  0  0
   -0.6750   10.2350   -3.1560 C   0  0  0  0  0  0  0  0  0  0  0  0
   -0.4360   10.2240   -1.6430 C   0  0  2  0  0  0  0  0  0  0  0  0
    0.5990    9.0900   -1.3310 C   0  0  0  0  0  0  0  0  0  0  0  0
   -2.2039    6.8183   -1.8790 H   0  0  0  0  0  0  0  0  0  0  0  0
   -3.1124    8.2092   -2.5621 H   0  0  0  0  0  0  0  0  0  0  0  0
   -1.3161    8.2225   -2.5621 H   0  0  0  0  0  0  0  0  0  0  0  0
   -1.5663    7.9905    0.0300 H   0  0  0  0  0  0  0  0  0  0  0  0
   -3.7261    7.7165    0.6464 H   0  0  0  0  0  0  0  0  0  0  0  0
   -3.7098    9.5431    0.5649 H   0  0  0  0  0  0  0  0  0  0  0  0
   -5.4811    9.3771   -0.7673 H   0  0  0  0  0  0  0  0  0  0  0  0
   -4.3244    8.7606   -2.0197 H   0  0  0  0  0  0  0  0  0  0  0  0
   -5.0775    7.0137   -0.0500 H   0  0  0  0  0  0  0  0  0  0  0  0
   -7.9871    8.8453   -1.5848 H   0  0  0  0  0  0  0  0  0  0  0  0
   -6.8584    8.7558   -2.9793 H   0  0  0  0  0  0  0  0  0  0  0  0
   -8.3653    7.7781   -2.9793 H   0  0  0  0  0  0  0  0  0  0  0  0
   -7.6814    5.8582   -0.1479 H   0  0  0  0  0  0  0  0  0  0  0  0
   -8.6798    6.0039   -1.6341 H   0  0  0  0  0  0  0  0  0  0  0  0
   -7.2156    4.9633   -1.6341 H   0  0  0  0  0  0  0  0  0  0  0  0
   -2.5552   10.4999   -1.1863 H   0  0  0  0  0  0  0  0  0  0  0  0
   -2.0311   11.1737    1.0733 H   0  0  0  0  0  0  0  0  0  0  0  0
   -0.9634    9.7760    1.3248 H   0  0  0  0  0  0  0  0  0  0  0  0
   -0.1030   12.4581    0.8412 H   0  0  0  0  0  0  0  0  0  0  0  0
    0.9431   11.0467    0.7107 H   0  0  0  0  0  0  0  0  0  0  0  0
   -1.4095   13.1845   -0.5208 H   0  0  0  0  0  0  0  0  0  0  0  0
   -0.5643   13.5955   -2.0516 H   0  0  0  0  0  0  0  0  0  0  0  0
   -1.8764   12.3687   -2.0516 H   0  0  0  0  0  0  0  0  0  0  0  0
    2.0419   11.2017   -1.4414 H   0  0  0  0  0  0  0  0  0  0  0  0
    1.7077   13.5201   -0.3707 H   0  0  0  0  0  0  0  0  0  0  0  0
    3.1150   13.1912   -1.5112 H   0  0  0  0  0  0  0  0  0  0  0  0
    1.8844   15.5020   -1.8130 H   0  0  0  0  0  0  0  0  0  0  0  0
   -0.2254   12.9653   -4.1397 H   0  0  0  0  0  0  0  0  0  0  0  0
    2.4375   13.3459   -5.6426 H   0  0  0  0  0  0  0  0  0  0  0  0
    1.0344   12.3056   -6.1519 H   0  0  0  0  0  0  0  0  0  0  0  0
    1.1214   14.4384   -7.4036 H   0  0  0  0  0  0  0  0  0  0  0  0
   -0.3715   14.2696   -6.3990 H   0  0  0  0  0  0  0  0  0  0  0  0
    0.4560   16.5105   -6.1801 H   0  0  0  0  0  0  0  0  0  0  0  0
    2.5990   16.4430   -6.6090 H   0  0  0  0  0  0  0  0  0  0  0  0
   -1.2460   15.7775   -3.0326 H   0  0  0  0  0  0  0  0  0  0  0  0
   -1.3212   16.6774   -4.5853 H   0  0  0  0  0  0  0  0  0  0  0  0
   -1.3595   14.8815   -4.5853 H   0  0  0  0  0  0  0  0  0  0  0  0
    1.0744   16.9884   -2.4592 H   0  0  0  0  0  0  0  0  0  0  0  0
    2.1367   17.2602   -3.8820 H   0  0  0  0  0  0  0  0  0  0  0  0
    0.4558   17.8938   -3.8820 H   0  0  0  0  0  0  0  0  0  0  0  0
    3.5209   11.5003   -2.9153 H   0  0  0  0  0  0  0  0  0  0  0  0
    2.9849   10.6770   -4.4191 H   0  0  0  0  0  0  0  0  0  0  0  0
    3.2709   12.4504   -4.4191 H   0  0  0  0  0  0  0  0  0  0  0  0
    0.3528   10.7413   -4.9712 H   0  0  0  0  0  0  0  0  0  0  0  0
    1.2911    9.7226   -3.7399 H   0  0  0  0  0  0  0  0  0  0  0  0
   -1.4408   10.9880   -3.3937 H   0  0  0  0  0  0  0  0  0  0  0  0
   -1.0098    9.2338   -3.4652 H   0  0  0  0  0  0  0  0  0  0  0  0
    0.7020    8.9772   -0.2417 H   0  0  0  0  0  0  0  0  0  0  0  0
    0.2475    8.1429   -1.7661 H   0  0  0  0  0  0  0  0  0  0  0  0
    1.5742    9.3538   -1.7661 H   0  0  0  0  0  0  0  0  0  0  0  0
  1  2  1  0
  2  3  1  0
  3  4  1  0
  4  5  1  0
  5  6  1  0
  6  7  1  0
  7  8  1  0
  7  9  1  0
  2 10  1  0
 10 11  1  0
 11 12  1  0
 12 13  1  0
 13 14  1  1
 13 15  1  0
 15 16  1  0
 16 17  1  0
 17 18  2  0
 18 19  1  0
 19 20  1  0
 20 21  1  0
 21 22  1  0
 22 23  1  0
 22 24  1  0
 24 25  1  0
 24 26  1  0
 19 27  1  0
 27 28  1  6
 27 29  1  0
 29 30  1  0
 30 31  1  0
 31 32  1  6
  7  5  1  0
 31 10  1  0
 31 13  1  0
 27 15  1  0
 24 18  1  0
  1 33  1  0
  1 34  1  0
  1 35  1  0
  2 36  1  1
  3 37  1  0
  3 38  1  0
  4 39  1  0
  4 40  1  0
  5 41  1  1
  8 42  1  0
  8 43  1  0
  8 44  1  0
  9 45  1  0
  9 46  1  0
  9 47  1  0
 10 48  1  6
 11 49  1  0
 11 50  1  0
 12 51  1  0
 12 52  1  0
 14 53  1  0
 14 54  1  0
 14 55  1  0
 15 56  1  1
 16 57  1  0
 16 58  1  0
 17 59  1  0
 19 60  1  6
 20 61  1  0
 20 62  1  0
 21 63  1  0
 21 64  1  0
 22 65  1  6
 23 66  1  0
 25 67  1  0
 25 68  1  0
 25 69  1  0
 26 70  1  0
 26 71  1  0
 26 72  1  0
 28 73  1  0
 28 74  1  0
 28 75  1  0
 29 76  1  0
 29 77  1  0
 30 78  1  0
 30 79  1  0
 32 80  1  0
 32 81  1  0
 32 82  1  0
M  END
>  <meeko>  (16) 
{"is_sidechain": [false], "intermolecular_energy": 2.731, "internal_energy": -0.839}

$$$$
EPH_relaxed_0001_pdb2pqr_Repair_406_r2_0001_out
     RDKit          3D

 82 86  0  0  0  0  0  0  0  0999 V2000
   -0.2720   15.1580   -7.5560 C   0  0  0  0  0  0  0  0  0  0  0  0
    1.1180   15.0870   -6.9180 C   0  0  2  0  0  0  0  0  0  0  0  0
    2.2430   15.1400   -7.9710 C   0  0  0  0  0  0  0  0  0  0  0  0
    2.2920   16.4560   -8.7530 C   0  0  0  0  0  0  0  0  0  0  0  0
    1.8790   16.2670  -10.1810 C   0  0  2  0  0  0  0  0  0  0  0  0
    1.2070   15.0300  -10.4520 O   0  0  0  0  0  0  0  0  0  0  0  0
    2.4790   15.2130  -11.0930 C   0  0  0  0  0  0  0  0  0  0  0  0
    3.5440   14.2780  -10.6110 C   0  0  0  0  0  0  0  0  0  0  0  0
    2.3850   15.4100  -12.5740 C   0  0  0  0  0  0  0  0  0  0  0  0
    1.2430   13.8160   -6.0860 C   0  0  1  0  0  0  0  0  0  0  0  0
    2.6730   13.2140   -6.1260 C   0  0  0  0  0  0  0  0  0  0  0  0
    2.9390   12.5990   -4.7280 C   0  0  0  0  0  0  0  0  0  0  0  0
    1.5520   12.5700   -4.0440 C   0  0  1  0  0  0  0  0  0  0  0  0
    0.8520   11.2950   -4.6110 C   0  0  0  0  0  0  0  0  0  0  0  0
    1.5520   12.5820   -2.4810 C   0  0  2  0  0  0  0  0  0  0  0  0
    2.2250   11.3670   -1.8190 C   0  0  0  0  0  0  0  0  0  0  0  0
    1.3190   10.2150   -1.5300 C   0  0  0  0  0  0  0  0  0  0  0  0
   -0.0260   10.2600   -1.5280 C   0  0  0  0  0  0  0  0  0  0  0  0
   -0.7710   11.5840   -1.7400 C   0  0  1  0  0  0  0  0  0  0  0  0
   -1.8960   11.7200   -0.6800 C   0  0  0  0  0  0  0  0  0  0  0  0
   -2.8350   10.5180   -0.6660 C   0  0  0  0  0  0  0  0  0  0  0  0
   -2.0660    9.2280   -0.3950 C   0  0  2  0  0  0  0  0  0  0  0  0
   -1.5540    9.2690    0.9410 O   0  0  0  0  0  0  0  0  0  0  0  0
   -0.9000    8.9880   -1.3950 C   0  0  0  0  0  0  0  0  0  0  0  0
   -1.4740    8.6450   -2.7910 C   0  0  0  0  0  0  0  0  0  0  0  0
   -0.1190    7.7310   -0.9250 C   0  0  0  0  0  0  0  0  0  0  0  0
    0.1390   12.8840   -1.8350 C   0  0  1  0  0  0  0  0  0  0  0  0
    0.4130   13.4470   -0.4070 C   0  0  0  0  0  0  0  0  0  0  0  0
   -0.6470   14.0050   -2.6120 C   0  0  0  0  0  0  0  0  0  0  0  0
   -0.5110   14.0130   -4.1460 C   0  0  0  0  0  0  0  0  0  0  0  0
    0.9600   13.9290   -4.5670 C   0  0  2  0  0  0  0  0  0  0  0  0
    1.6850   15.2100   -4.0300 C   0  0  0  0  0  0  0  0  0  0  0  0
   -1.0365   15.1970   -6.7660 H   0  0  0  0  0  0  0  0  0  0  0  0
   -0.3433   16.0610   -8.1802 H   0  0  0  0  0  0  0  0  0  0  0  0
   -0.4349   14.2670   -8.1802 H   0  0  0  0  0  0  0  0  0  0  0  0
    1.2306   15.9685   -6.2698 H   0  0  0  0  0  0  0  0  0  0  0  0
    3.2063   15.0051   -7.4573 H   0  0  0  0  0  0  0  0  0  0  0  0
    2.0403   14.3406   -8.6989 H   0  0  0  0  0  0  0  0  0  0  0  0
    1.6123   17.1787   -8.2779 H   0  0  0  0  0  0  0  0  0  0  0  0
    3.3286   16.8238   -8.7413 H   0  0  0  0  0  0  0  0  0  0  0  0
    1.7261   17.3493  -10.3042 H   0  0  0  0  0  0  0  0  0  0  0  0
    3.5539   14.2693   -9.5111 H   0  0  0  0  0  0  0  0  0  0  0  0
    3.3378   13.2639  -10.9839 H   0  0  0  0  0  0  0  0  0  0  0  0
    4.5229   14.6138  -10.9839 H   0  0  0  0  0  0  0  0  0  0  0  0
    1.9201   16.3842  -12.7855 H   0  0  0  0  0  0  0  0  0  0  0  0
    3.3935   15.3820  -13.0124 H   0  0  0  0  0  0  0  0  0  0  0  0
    1.7723   14.6085  -13.0124 H   0  0  0  0  0  0  0  0  0  0  0  0
    0.4675   13.2032   -6.5688 H   0  0  0  0  0  0  0  0  0  0  0  0
    2.7345   12.4351   -6.9003 H   0  0  0  0  0  0  0  0  0  0  0  0
    3.4195   13.9853   -6.3666 H   0  0  0  0  0  0  0  0  0  0  0  0
    3.3467   11.5817   -4.8225 H   0  0  0  0  0  0  0  0  0  0  0  0
    3.6763   13.1769   -4.1515 H   0  0  0  0  0  0  0  0  0  0  0  0
    0.5063   10.6654   -3.7779 H   0  0  0  0  0  0  0  0  0  0  0  0
   -0.0091   11.5929   -5.2273 H   0  0  0  0  0  0  0  0  0  0  0  0
    1.5655   10.7284   -5.2273 H   0  0  0  0  0  0  0  0  0  0  0  0
    2.1979   13.4424   -2.2518 H   0  0  0  0  0  0  0  0  0  0  0  0
    3.0221   11.0128   -2.4892 H   0  0  0  0  0  0  0  0  0  0  0  0
    2.5932   11.7170   -0.8433 H   0  0  0  0  0  0  0  0  0  0  0  0
    1.7910    9.2485   -1.2994 H   0  0  0  0  0  0  0  0  0  0  0  0
   -1.2112   11.5281   -2.7465 H   0  0  0  0  0  0  0  0  0  0  0  0
   -1.4343   11.8183    0.3136 H   0  0  0  0  0  0  0  0  0  0  0  0
   -2.4930   12.6070   -0.9387 H   0  0  0  0  0  0  0  0  0  0  0  0
   -3.5893   10.6597    0.1220 H   0  0  0  0  0  0  0  0  0  0  0  0
   -3.3179   10.4384   -1.6511 H   0  0  0  0  0  0  0  0  0  0  0  0
   -2.7680    8.3913   -0.5259 H   0  0  0  0  0  0  0  0  0  0  0  0
   -0.9880   10.0560    1.0150 H   0  0  0  0  0  0  0  0  0  0  0  0
   -2.4129    8.0840   -2.6737 H   0  0  0  0  0  0  0  0  0  0  0  0
   -1.6692    9.5746   -3.3457 H   0  0  0  0  0  0  0  0  0  0  0  0
   -0.7478    8.0327   -3.3457 H   0  0  0  0  0  0  0  0  0  0  0  0
   -0.1002    7.7008    0.1744 H   0  0  0  0  0  0  0  0  0  0  0  0
   -0.6146    6.8268   -1.3082 H   0  0  0  0  0  0  0  0  0  0  0  0
    0.9112    7.7748   -1.3082 H   0  0  0  0  0  0  0  0  0  0  0  0
    0.0618   12.7254    0.3453 H   0  0  0  0  0  0  0  0  0  0  0  0
    1.4928   13.6134   -0.2794 H   0  0  0  0  0  0  0  0  0  0  0  0
   -0.1223   14.3994   -0.2794 H   0  0  0  0  0  0  0  0  0  0  0  0
   -1.7145   13.8891   -2.3733 H   0  0  0  0  0  0  0  0  0  0  0  0
   -0.2000   14.9532   -2.2787 H   0  0  0  0  0  0  0  0  0  0  0  0
   -1.0535   13.1502   -4.5598 H   0  0  0  0  0  0  0  0  0  0  0  0
   -0.9325   14.9535   -4.5304 H   0  0  0  0  0  0  0  0  0  0  0  0
    1.6796   15.2004   -2.9301 H   0  0  0  0  0  0  0  0  0  0  0  0
    2.7238   15.2221   -4.3915 H   0  0  0  0  0  0  0  0  0  0  0  0
    1.1606   16.1068   -4.3915 H   0  0  0  0  0  0  0  0  0  0  0  0
  1  2  1  0
  2  3  1  0
  3  4  1  0
  4  5  1  0
  5  6  1  0
  6  7  1  0
  7  8  1  0
  7  9  1  0
  2 10  1  0
 10 11  1  0
 11 12  1  0
 12 13  1  0
 13 14  1  1
 13 15  1  0
 15 16  1  0
 16 17  1  0
 17 18  2  0
 18 19  1  0
 19 20  1  0
 20 21  1  0
 21 22  1  0
 22 23  1  0
 22 24  1  0
 24 25  1  0
 24 26  1  0
 19 27  1  0
 27 28  1  1
 27 29  1  0
 29 30  1  0
 30 31  1  0
 31 32  1  1
  7  5  1  0
 31 10  1  0
 31 13  1  0
 27 15  1  0
 24 18  1  0
  1 33  1  0
  1 34  1  0
  1 35  1  0
  2 36  1  1
  3 37  1  0
  3 38  1  0
  4 39  1  0
  4 40  1  0
  5 41  1  6
  8 42  1  0
  8 43  1  0
  8 44  1  0
  9 45  1  0
  9 46  1  0
  9 47  1  0
 10 48  1  6
 11 49  1  0
 11 50  1  0
 12 51  1  0
 12 52  1  0
 14 53  1  0
 14 54  1  0
 14 55  1  0
 15 56  1  6
 16 57  1  0
 16 58  1  0
 17 59  1  0
 19 60  1  6
 20 61  1  0
 20 62  1  0
 21 63  1  0
 21 64  1  0
 22 65  1  1
 23 66  1  0
 25 67  1  0
 25 68  1  0
 25 69  1  0
 26 70  1  0
 26 71  1  0
 26 72  1  0
 28 73  1  0
 28 74  1  0
 28 75  1  0
 29 76  1  0
 29 77  1  0
 30 78  1  0
 30 79  1  0
 32 80  1  0
 32 81  1  0
 32 82  1  0
M  END
>  <meeko>  (17) 
{"is_sidechain": [false], "intermolecular_energy": 2.731, "internal_energy": -0.839}

$$$$
EPH_relaxed_0001_pdb2pqr_Repair_406_r2_0001_out
     RDKit          3D

 82 86  0  0  0  0  0  0  0  0999 V2000
    3.8290    9.6210    1.2750 C   0  0  0  0  0  0  0  0  0  0  0  0
    2.4510    9.9500    0.6940 C   0  0  2  0  0  0  0  0  0  0  0  0
    1.8240    8.7430   -0.0320 C   0  0  0  0  0  0  0  0  0  0  0  0
    0.3060    8.6400    0.1440 C   0  0  0  0  0  0  0  0  0  0  0  0
   -0.3740    8.2440   -1.1320 C   0  0  2  0  0  0  0  0  0  0  0  0
   -0.7390    9.3400   -1.9810 O   0  0  0  0  0  0  0  0  0  0  0  0
   -1.8240    8.5670   -1.4420 C   0  0  0  0  0  0  0  0  0  0  0  0
   -2.6810    9.3160   -0.4700 C   0  0  0  0  0  0  0  0  0  0  0  0
   -2.5390    7.7380   -2.4630 C   0  0  0  0  0  0  0  0  0  0  0  0
    2.5590   11.1340   -0.2600 C   0  0  1  0  0  0  0  0  0  0  0  0
    2.5600   10.7010   -1.7510 C   0  0  0  0  0  0  0  0  0  0  0  0
    1.8100   11.8070   -2.5380 C   0  0  0  0  0  0  0  0  0  0  0  0
    1.6960   12.9850   -1.5420 C   0  0  1  0  0  0  0  0  0  0  0  0
    3.0810   13.7010   -1.6080 C   0  0  0  0  0  0  0  0  0  0  0  0
    0.5170   13.9830   -1.7850 C   0  0  2  0  0  0  0  0  0  0  0  0
    0.5690   14.7410   -3.1230 C   0  0  0  0  0  0  0  0  0  0  0  0
    1.2960   16.0450   -3.0900 C   0  0  0  0  0  0  0  0  0  0  0  0
    1.6360   16.7220   -1.9780 C   0  0  0  0  0  0  0  0  0  0  0  0
    1.2010   16.2300   -0.5910 C   0  0  1  0  0  0  0  0  0  0  0  0
    0.6330   17.4200    0.2260 C   0  0  0  0  0  0  0  0  0  0  0  0
    1.6050   18.5940    0.3020 C   0  0  0  0  0  0  0  0  0  0  0  0
    1.9680   19.0920   -1.0940 C   0  0  2  0  0  0  0  0  0  0  0  0
    0.8020   19.6610   -1.6980 O   0  0  0  0  0  0  0  0  0  0  0  0
    2.5420   17.9770   -2.0120 C   0  0  0  0  0  0  0  0  0  0  0  0
    3.9530   17.5720   -1.5190 C   0  0  0  0  0  0  0  0  0  0  0  0
    2.7340   18.5790   -3.4310 C   0  0  0  0  0  0  0  0  0  0  0  0
    0.2390   14.9640   -0.5760 C   0  0  1  0  0  0  0  0  0  0  0  0
   -1.2460   15.4230   -0.7060 C   0  0  0  0  0  0  0  0  0  0  0  0
    0.3600   14.2440    0.8190 C   0  0  0  0  0  0  0  0  0  0  0  0
    1.4680   13.1830    0.9590 C   0  0  0  0  0  0  0  0  0  0  0  0
    1.4310   12.1940   -0.2100 C   0  0  2  0  0  0  0  0  0  0  0  0
    0.0570   11.4410   -0.1560 C   0  0  0  0  0  0  0  0  0  0  0  0
    3.7762    9.6336    2.3737 H   0  0  0  0  0  0  0  0  0  0  0  0
    4.1418    8.6229    0.9344 H   0  0  0  0  0  0  0  0  0  0  0  0
    4.5589   10.3701    0.9344 H   0  0  0  0  0  0  0  0  0  0  0  0
    1.7901   10.2089    1.5344 H   0  0  0  0  0  0  0  0  0  0  0  0
    2.0440    8.8311   -1.1062 H   0  0  0  0  0  0  0  0  0  0  0  0
    2.2617    7.8371    0.4128 H   0  0  0  0  0  0  0  0  0  0  0  0
    0.0867    7.8856    0.9139 H   0  0  0  0  0  0  0  0  0  0  0  0
   -0.0727    9.6288    0.4421 H   0  0  0  0  0  0  0  0  0  0  0  0
    0.1980    7.3053   -1.1733 H   0  0  0  0  0  0  0  0  0  0  0  0
   -2.3838    9.0563    0.5568 H   0  0  0  0  0  0  0  0  0  0  0  0
   -2.5535   10.3974   -0.6262 H   0  0  0  0  0  0  0  0  0  0  0  0
   -3.7355    9.0448   -0.6262 H   0  0  0  0  0  0  0  0  0  0  0  0
   -3.1761    6.9993   -1.9546 H   0  0  0  0  0  0  0  0  0  0  0  0
   -3.1633    8.3894   -3.0923 H   0  0  0  0  0  0  0  0  0  0  0  0
   -1.8030    7.2162   -3.0923 H   0  0  0  0  0  0  0  0  0  0  0  0
    3.5025   11.5725    0.0970 H   0  0  0  0  0  0  0  0  0  0  0  0
    3.5928   10.6089   -2.1181 H   0  0  0  0  0  0  0  0  0  0  0  0
    2.0710    9.7241   -1.8791 H   0  0  0  0  0  0  0  0  0  0  0  0
    2.3820   12.1056   -3.4289 H   0  0  0  0  0  0  0  0  0  0  0  0
    0.8274   11.4690   -2.8988 H   0  0  0  0  0  0  0  0  0  0  0  0
    3.4454   13.8894   -0.5873 H   0  0  0  0  0  0  0  0  0  0  0  0
    3.7994   13.0613   -2.1416 H   0  0  0  0  0  0  0  0  0  0  0  0
    2.9745   14.6570   -2.1416 H   0  0  0  0  0  0  0  0  0  0  0  0
   -0.3504   13.3103   -1.8562 H   0  0  0  0  0  0  0  0  0  0  0  0
    1.0653   14.0938   -3.8611 H   0  0  0  0  0  0  0  0  0  0  0  0
   -0.4740   14.9806   -3.3775 H   0  0  0  0  0  0  0  0  0  0  0  0
    1.5772   16.4895   -4.0561 H   0  0  0  0  0  0  0  0  0  0  0  0
    2.1096   15.8448   -0.1052 H   0  0  0  0  0  0  0  0  0  0  0  0
   -0.2974   17.7627   -0.2503 H   0  0  0  0  0  0  0  0  0  0  0  0
    0.4556   17.0662    1.2523 H   0  0  0  0  0  0  0  0  0  0  0  0
    1.1362   19.4137    0.8661 H   0  0  0  0  0  0  0  0  0  0  0  0
    2.5236   18.2576    0.8049 H   0  0  0  0  0  0  0  0  0  0  0  0
    2.7629   19.8438   -0.9801 H   0  0  0  0  0  0  0  0  0  0  0  0
    0.0680   19.5670   -1.0680 H   0  0  0  0  0  0  0  0  0  0  0  0
    3.9697   17.5672   -0.4191 H   0  0  0  0  0  0  0  0  0  0  0  0
    4.1980   16.5673   -1.8938 H   0  0  0  0  0  0  0  0  0  0  0  0
    4.6936   18.2938   -1.8938 H   0  0  0  0  0  0  0  0  0  0  0  0
    3.0672   19.6237   -3.3441 H   0  0  0  0  0  0  0  0  0  0  0  0
    3.4911   17.9969   -3.9769 H   0  0  0  0  0  0  0  0  0  0  0  0
    1.7797   18.5427   -3.9769 H   0  0  0  0  0  0  0  0  0  0  0  0
   -1.6777   15.5564    0.2969 H   0  0  0  0  0  0  0  0  0  0  0  0
   -1.2886   16.3762   -1.2533 H   0  0  0  0  0  0  0  0  0  0  0  0
   -1.8190   14.6601   -1.2533 H   0  0  0  0  0  0  0  0  0  0  0  0
    0.5429   15.0184    1.5785 H   0  0  0  0  0  0  0  0  0  0  0  0
   -0.5839   13.6925    0.9412 H   0  0  0  0  0  0  0  0  0  0  0  0
    2.4468   13.6848    0.9750 H   0  0  0  0  0  0  0  0  0  0  0  0
    1.3050   12.6270    1.8940 H   0  0  0  0  0  0  0  0  0  0  0  0
   -0.2330   11.2821    0.8931 H   0  0  0  0  0  0  0  0  0  0  0  0
   -0.7117   12.0439   -0.6616 H   0  0  0  0  0  0  0  0  0  0  0  0
    0.1516   10.4687   -0.6616 H   0  0  0  0  0  0  0  0  0  0  0  0
  1  2  1  0
  2  3  1  0
  3  4  1  0
  4  5  1  0
  5  6  1  0
  6  7  1  0
  7  8  1  0
  7  9  1  0
  2 10  1  0
 10 11  1  0
 11 12  1  0
 12 13  1  0
 13 14  1  1
 13 15  1  0
 15 16  1  0
 16 17  1  0
 17 18  2  0
 18 19  1  0
 19 20  1  0
 20 21  1  0
 21 22  1  0
 22 23  1  0
 22 24  1  0
 24 25  1  0
 24 26  1  0
 19 27  1  0
 27 28  1  6
 27 29  1  0
 29 30  1  0
 30 31  1  0
 31 32  1  6
  7  5  1  0
 31 10  1  0
 31 13  1  0
 27 15  1  0
 24 18  1  0
  1 33  1  0
  1 34  1  0
  1 35  1  0
  2 36  1  1
  3 37  1  0
  3 38  1  0
  4 39  1  0
  4 40  1  0
  5 41  1  6
  8 42  1  0
  8 43  1  0
  8 44  1  0
  9 45  1  0
  9 46  1  0
  9 47  1  0
 10 48  1  1
 11 49  1  0
 11 50  1  0
 12 51  1  0
 12 52  1  0
 14 53  1  0
 14 54  1  0
 14 55  1  0
 15 56  1  6
 16 57  1  0
 16 58  1  0
 17 59  1  0
 19 60  1  1
 20 61  1  0
 20 62  1  0
 21 63  1  0
 21 64  1  0
 22 65  1  1
 23 66  1  0
 25 67  1  0
 25 68  1  0
 25 69  1  0
 26 70  1  0
 26 71  1  0
 26 72  1  0
 28 73  1  0
 28 74  1  0
 28 75  1  0
 29 76  1  0
 29 77  1  0
 30 78  1  0
 30 79  1  0
 32 80  1  0
 32 81  1  0
 32 82  1  0
M  END
>  <meeko>  (18) 
{"is_sidechain": [false], "intermolecular_energy": 2.731, "internal_energy": -0.839}

$$$$
EPH_relaxed_0001_pdb2pqr_Repair_406_r2_0001_out
     RDKit          3D

 82 86  0  0  0  0  0  0  0  0999 V2000
    1.4530    8.9230    0.0780 C   0  0  0  0  0  0  0  0  0  0  0  0
    2.8900    9.4520    0.0460 C   0  0  2  0  0  0  0  0  0  0  0  0
    3.4500    9.6990    1.4610 C   0  0  0  0  0  0  0  0  0  0  0  0
    2.3880    9.6400    2.5620 C   0  0  0  0  0  0  0  0  0  0  0  0
    1.5750   10.8970    2.6170 C   0  0  2  0  0  0  0  0  0  0  0  0
    2.3430   12.1030    2.7140 O   0  0  0  0  0  0  0  0  0  0  0  0
    1.5020   11.7950    3.8380 C   0  0  0  0  0  0  0  0  0  0  0  0
    2.2550   11.4700    5.0900 C   0  0  0  0  0  0  0  0  0  0  0  0
    0.3290   12.7130    3.9830 C   0  0  0  0  0  0  0  0  0  0  0  0
    2.9520   10.7370   -0.7710 C   0  0  1  0  0  0  0  0  0  0  0  0
    3.4120   10.4940   -2.2330 C   0  0  0  0  0  0  0  0  0  0  0  0
    2.6430   11.5080   -3.1190 C   0  0  0  0  0  0  0  0  0  0  0  0
    2.0250   12.5110   -2.1160 C   0  0  1  0  0  0  0  0  0  0  0  0
    3.1840   13.4990   -1.7720 C   0  0  0  0  0  0  0  0  0  0  0  0
    0.7440   13.2680   -2.5970 C   0  0  2  0  0  0  0  0  0  0  0  0
    0.9440   14.1740   -3.8240 C   0  0  0  0  0  0  0  0  0  0  0  0
    1.3230   15.5850   -3.5210 C   0  0  0  0  0  0  0  0  0  0  0  0
    1.2200   16.1810   -2.3180 C   0  0  0  0  0  0  0  0  0  0  0  0
    0.5870   15.4490   -1.1280 C   0  0  1  0  0  0  0  0  0  0  0  0
   -0.4180   16.3920   -0.4150 C   0  0  0  0  0  0  0  0  0  0  0  0
    0.2120   17.7230   -0.0140 C   0  0  0  0  0  0  0  0  0  0  0  0
    0.7790   18.4470   -1.2330 C   0  0  2  0  0  0  0  0  0  0  0  0
   -0.3050   18.8330   -2.0840 O   0  0  0  0  0  0  0  0  0  0  0  0
    1.7970   17.5910   -2.0360 C   0  0  0  0  0  0  0  0  0  0  0  0
    3.1010   17.4280   -1.2170 C   0  0  0  0  0  0  0  0  0  0  0  0
    2.1830   18.3830   -3.3140 C   0  0  0  0  0  0  0  0  0  0  0  0
   -0.0350   14.0210   -1.4430 C   0  0  1  0  0  0  0  0  0  0  0  0
   -1.5080   14.1780   -1.9290 C   0  0  0  0  0  0  0  0  0  0  0  0
   -0.0930   13.1810   -0.1130 C   0  0  0  0  0  0  0  0  0  0  0  0
    1.1600   12.3600    0.2460 C   0  0  0  0  0  0  0  0  0  0  0  0
    1.6330   11.5300   -0.9520 C   0  0  2  0  0  0  0  0  0  0  0  0
    0.4970   10.5110   -1.3070 C   0  0  0  0  0  0  0  0  0  0  0  0
    1.1293    8.8038    1.1225 H   0  0  0  0  0  0  0  0  0  0  0  0
    0.7885    9.6355   -0.4328 H   0  0  0  0  0  0  0  0  0  0  0  0
    1.4091    7.9498   -0.4328 H   0  0  0  0  0  0  0  0  0  0  0  0
    3.5163    8.6807   -0.4260 H   0  0  0  0  0  0  0  0  0  0  0  0
    4.2115    8.9336    1.6716 H   0  0  0  0  0  0  0  0  0  0  0  0
    3.8653   10.7176    1.4691 H   0  0  0  0  0  0  0  0  0  0  0  0
    1.7176    8.7904    2.3652 H   0  0  0  0  0  0  0  0  0  0  0  0
    2.9018    9.5220    3.5274 H   0  0  0  0  0  0  0  0  0  0  0  0
    0.7952   10.4474    1.9847 H   0  0  0  0  0  0  0  0  0  0  0  0
    1.6430   11.7342    5.9650 H   0  0  0  0  0  0  0  0  0  0  0  0
    2.4818   10.3939    5.1126 H   0  0  0  0  0  0  0  0  0  0  0  0
    3.1936   12.0431    5.1126 H   0  0  0  0  0  0  0  0  0  0  0  0
    0.1207   12.8760    5.0507 H   0  0  0  0  0  0  0  0  0  0  0  0
    0.5556   13.6762    3.5024 H   0  0  0  0  0  0  0  0  0  0  0  0
   -0.5515   12.2616    3.5024 H   0  0  0  0  0  0  0  0  0  0  0  0
    3.6558   11.3139   -0.1530 H   0  0  0  0  0  0  0  0  0  0  0  0
    4.4959   10.6596   -2.3214 H   0  0  0  0  0  0  0  0  0  0  0  0
    3.2044    9.4599   -2.5454 H   0  0  0  0  0  0  0  0  0  0  0  0
    3.3300   12.0211   -3.8081 H   0  0  0  0  0  0  0  0  0  0  0  0
    1.8812   11.0212   -3.7457 H   0  0  0  0  0  0  0  0  0  0  0  0
    3.2823   13.5828   -0.6796 H   0  0  0  0  0  0  0  0  0  0  0  0
    4.1258   13.1216   -2.1970 H   0  0  0  0  0  0  0  0  0  0  0  0
    2.9605   14.4886   -2.1970 H   0  0  0  0  0  0  0  0  0  0  0  0
    0.0966   12.4456   -2.9355 H   0  0  0  0  0  0  0  0  0  0  0  0
    1.7388   13.7346   -4.4447 H   0  0  0  0  0  0  0  0  0  0  0  0
   -0.0327   14.2233   -4.3276 H   0  0  0  0  0  0  0  0  0  0  0  0
    1.7199   16.1891   -4.3501 H   0  0  0  0  0  0  0  0  0  0  0  0
    1.4154   15.2025   -0.4475 H   0  0  0  0  0  0  0  0  0  0  0  0
   -1.2589   16.5908   -1.0957 H   0  0  0  0  0  0  0  0  0  0  0  0
   -0.7519   15.8900    0.5050 H   0  0  0  0  0  0  0  0  0  0  0  0
   -0.5540   18.3565    0.4571 H   0  0  0  0  0  0  0  0  0  0  0  0
    1.0333   17.5249    0.6904 H   0  0  0  0  0  0  0  0  0  0  0  0
    1.3302   19.3264   -0.8685 H   0  0  0  0  0  0  0  0  0  0  0  0
   -0.9620   19.2910   -1.5350 H   0  0  0  0  0  0  0  0  0  0  0  0
    2.8655   17.4574   -0.1429 H   0  0  0  0  0  0  0  0  0  0  0  0
    3.5705   16.4642   -1.4631 H   0  0  0  0  0  0  0  0  0  0  0  0
    3.7933   18.2466   -1.4631 H   0  0  0  0  0  0  0  0  0  0  0  0
    2.6483   19.3376   -3.0272 H   0  0  0  0  0  0  0  0  0  0  0  0
    2.8945   17.7928   -3.9102 H   0  0  0  0  0  0  0  0  0  0  0  0
    1.2798   18.5798   -3.9102 H   0  0  0  0  0  0  0  0  0  0  0  0
   -2.1759   14.2492   -1.0579 H   0  0  0  0  0  0  0  0  0  0  0  0
   -1.5985   15.0909   -2.5360 H   0  0  0  0  0  0  0  0  0  0  0  0
   -1.7889   13.3047   -2.5360 H   0  0  0  0  0  0  0  0  0  0  0  0
   -0.2804   13.8810    0.7146 H   0  0  0  0  0  0  0  0  0  0  0  0
   -0.8867   12.4373   -0.2770 H   0  0  0  0  0  0  0  0  0  0  0  0
    1.9649   13.0457    0.5491 H   0  0  0  0  0  0  0  0  0  0  0  0
    0.9072   11.6756    1.0692 H   0  0  0  0  0  0  0  0  0  0  0  0
    0.0562   10.1156   -0.3800 H   0  0  0  0  0  0  0  0  0  0  0  0
   -0.2811   11.0196   -1.8951 H   0  0  0  0  0  0  0  0  0  0  0  0
    0.9183    9.6824   -1.8951 H   0  0  0  0  0  0  0  0  0  0  0  0
  1  2  1  0
  2  3  1  0
  3  4  1  0
  4  5  1  0
  5  6  1  0
  6  7  1  0
  7  8  1  0
  7  9  1  0
  2 10  1  0
 10 11  1  0
 11 12  1  0
 12 13  1  0
 13 14  1  1
 13 15  1  0
 15 16  1  0
 16 17  1  0
 17 18  2  0
 18 19  1  0
 19 20  1  0
 20 21  1  0
 21 22  1  0
 22 23  1  0
 22 24  1  0
 24 25  1  0
 24 26  1  0
 19 27  1  0
 27 28  1  6
 27 29  1  0
 29 30  1  0
 30 31  1  0
 31 32  1  6
  7  5  1  0
 31 10  1  0
 31 13  1  0
 27 15  1  0
 24 18  1  0
  1 33  1  0
  1 34  1  0
  1 35  1  0
  2 36  1  6
  3 37  1  0
  3 38  1  0
  4 39  1  0
  4 40  1  0
  5 41  1  6
  8 42  1  0
  8 43  1  0
  8 44  1  0
  9 45  1  0
  9 46  1  0
  9 47  1  0
 10 48  1  1
 11 49  1  0
 11 50  1  0
 12 51  1  0
 12 52  1  0
 14 53  1  0
 14 54  1  0
 14 55  1  0
 15 56  1  6
 16 57  1  0
 16 58  1  0
 17 59  1  0
 19 60  1  1
 20 61  1  0
 20 62  1  0
 21 63  1  0
 21 64  1  0
 22 65  1  1
 23 66  1  0
 25 67  1  0
 25 68  1  0
 25 69  1  0
 26 70  1  0
 26 71  1  0
 26 72  1  0
 28 73  1  0
 28 74  1  0
 28 75  1  0
 29 76  1  0
 29 77  1  0
 30 78  1  0
 30 79  1  0
 32 80  1  0
 32 81  1  0
 32 82  1  0
M  END
>  <meeko>  (19) 
{"is_sidechain": [false], "intermolecular_energy": 2.731, "internal_energy": -0.839}

$$$$
EPH_relaxed_0001_pdb2pqr_Repair_406_r2_0001_out
     RDKit          3D

 82 86  0  0  0  0  0  0  0  0999 V2000
    2.1660   17.2430   -0.5270 C   0  0  0  0  0  0  0  0  0  0  0  0
    1.7110   17.3130   -1.9870 C   0  0  2  0  0  0  0  0  0  0  0  0
    0.7600   18.5000   -2.2420 C   0  0  0  0  0  0  0  0  0  0  0  0
    0.8490   19.5990   -1.1800 C   0  0  0  0  0  0  0  0  0  0  0  0
   -0.2880   19.5210   -0.2050 C   0  0  2  0  0  0  0  0  0  0  0  0
   -1.2250   18.4670   -0.4620 O   0  0  0  0  0  0  0  0  0  0  0  0
   -1.7300   19.8080   -0.5780 C   0  0  0  0  0  0  0  0  0  0  0  0
   -2.1140   20.1950   -1.9720 C   0  0  0  0  0  0  0  0  0  0  0  0
   -2.6880   20.1870    0.5080 C   0  0  0  0  0  0  0  0  0  0  0  0
    1.0310   16.0080   -2.3840 C   0  0  1  0  0  0  0  0  0  0  0  0
    0.7840   15.9030   -3.9120 C   0  0  0  0  0  0  0  0  0  0  0  0
    0.9620   14.4110   -4.2930 C   0  0  0  0  0  0  0  0  0  0  0  0
    0.9770   13.6620   -2.9400 C   0  0  1  0  0  0  0  0  0  0  0  0
   -0.5270   13.5120   -2.5480 C   0  0  0  0  0  0  0  0  0  0  0  0
    1.7180   12.2850   -2.9200 C   0  0  2  0  0  0  0  0  0  0  0  0
    1.1180   11.2080   -3.8390 C   0  0  0  0  0  0  0  0  0  0  0  0
    0.0790   10.3390   -3.2100 C   0  0  0  0  0  0  0  0  0  0  0  0
   -0.1540   10.2300   -1.8890 C   0  0  0  0  0  0  0  0  0  0  0  0
    0.7360   10.9530   -0.8700 C   0  0  1  0  0  0  0  0  0  0  0  0
    1.1210    9.9730    0.2690 C   0  0  0  0  0  0  0  0  0  0  0  0
   -0.0960    9.3210    0.9160 C   0  0  0  0  0  0  0  0  0  0  0  0
   -0.9240    8.5630   -0.1180 C   0  0  2  0  0  0  0  0  0  0  0  0
   -0.1610    7.4500   -0.5940 O   0  0  0  0  0  0  0  0  0  0  0  0
   -1.3620    9.4470   -1.3190 C   0  0  0  0  0  0  0  0  0  0  0  0
   -2.4270   10.4690   -0.8510 C   0  0  0  0  0  0  0  0  0  0  0  0
   -2.0670    8.5300   -2.3550 C   0  0  0  0  0  0  0  0  0  0  0  0
    1.9940   11.7190   -1.4680 C   0  0  1  0  0  0  0  0  0  0  0  0
    3.2020   10.7410   -1.5940 C   0  0  0  0  0  0  0  0  0  0  0  0
    2.4370   12.8450   -0.4610 C   0  0  0  0  0  0  0  0  0  0  0  0
    1.7540   14.2180   -0.6080 C   0  0  0  0  0  0  0  0  0  0  0  0
    1.7820   14.6900   -2.0650 C   0  0  2  0  0  0  0  0  0  0  0  0
    3.2820   14.8710   -2.4800 C   0  0  0  0  0  0  0  0  0  0  0  0
    1.2974   17.3766    0.1346 H   0  0  0  0  0  0  0  0  0  0  0  0
    2.6272   16.2633   -0.3332 H   0  0  0  0  0  0  0  0  0  0  0  0
    2.9003   18.0387   -0.3332 H   0  0  0  0  0  0  0  0  0  0  0  0
    2.6076   17.4679   -2.6052 H   0  0  0  0  0  0  0  0  0  0  0  0
    1.0083   18.9403   -3.2190 H   0  0  0  0  0  0  0  0  0  0  0  0
   -0.2654   18.1032   -2.2089 H   0  0  0  0  0  0  0  0  0  0  0  0
    1.7966   19.4896   -0.6322 H   0  0  0  0  0  0  0  0  0  0  0  0
    0.7983   20.5729   -1.6890 H   0  0  0  0  0  0  0  0  0  0  0  0
    0.3518   19.8946    0.6080 H   0  0  0  0  0  0  0  0  0  0  0  0
   -2.8884   20.9754   -1.9357 H   0  0  0  0  0  0  0  0  0  0  0  0
   -1.2304   20.5796   -2.5024 H   0  0  0  0  0  0  0  0  0  0  0  0
   -2.5055   19.3144   -2.5024 H   0  0  0  0  0  0  0  0  0  0  0  0
   -2.2230   20.0030    1.4878 H   0  0  0  0  0  0  0  0  0  0  0  0
   -2.9421   21.2534    0.4171 H   0  0  0  0  0  0  0  0  0  0  0  0
   -3.6029   19.5831    0.4171 H   0  0  0  0  0  0  0  0  0  0  0  0
    0.1202   16.0809   -1.7716 H   0  0  0  0  0  0  0  0  0  0  0  0
   -0.2357   16.2367   -4.1546 H   0  0  0  0  0  0  0  0  0  0  0  0
    1.4866   16.5394   -4.4700 H   0  0  0  0  0  0  0  0  0  0  0  0
    0.1246   14.0672   -4.9179 H   0  0  0  0  0  0  0  0  0  0  0  0
    1.8776   14.2359   -4.8769 H   0  0  0  0  0  0  0  0  0  0  0  0
   -0.6211   13.5026   -1.4521 H   0  0  0  0  0  0  0  0  0  0  0  0
   -1.0988   14.3576   -2.9579 H   0  0  0  0  0  0  0  0  0  0  0  0
   -0.9206   12.5701   -2.9579 H   0  0  0  0  0  0  0  0  0  0  0  0
    2.6962   12.5368   -3.3555 H   0  0  0  0  0  0  0  0  0  0  0  0
    0.6608   11.7140   -4.7021 H   0  0  0  0  0  0  0  0  0  0  0  0
    1.9498   10.5408   -4.1091 H   0  0  0  0  0  0  0  0  0  0  0  0
   -0.5489    9.7371   -3.8834 H   0  0  0  0  0  0  0  0  0  0  0  0
    0.1280   11.7752   -0.4648 H   0  0  0  0  0  0  0  0  0  0  0  0
    1.7642    9.1837   -0.1474 H   0  0  0  0  0  0  0  0  0  0  0  0
    1.6418   10.5521    1.0457 H   0  0  0  0  0  0  0  0  0  0  0  0
    0.2421    8.6181    1.6917 H   0  0  0  0  0  0  0  0  0  0  0  0
   -0.7230   10.1095    1.3578 H   0  0  0  0  0  0  0  0  0  0  0  0
   -1.8466    8.2288    0.3792 H   0  0  0  0  0  0  0  0  0  0  0  0
   -0.6520    6.6400   -0.3720 H   0  0  0  0  0  0  0  0  0  0  0  0
   -2.4530   10.4940    0.2484 H   0  0  0  0  0  0  0  0  0  0  0  0
   -2.1704   11.4676   -1.2345 H   0  0  0  0  0  0  0  0  0  0  0  0
   -3.4141   10.1715   -1.2345 H   0  0  0  0  0  0  0  0  0  0  0  0
   -2.6552    7.7649   -1.8271 H   0  0  0  0  0  0  0  0  0  0  0  0
   -2.7346    9.1352   -2.9859 H   0  0  0  0  0  0  0  0  0  0  0  0
   -1.3106    8.0403   -2.9859 H   0  0  0  0  0  0  0  0  0  0  0  0
    3.5512   10.4583   -0.5899 H   0  0  0  0  0  0  0  0  0  0  0  0
    2.8883    9.8393   -2.1405 H   0  0  0  0  0  0  0  0  0  0  0  0
    4.0186   11.2355   -2.1405 H   0  0  0  0  0  0  0  0  0  0  0  0
    2.2339   12.4798    0.5565 H   0  0  0  0  0  0  0  0  0  0  0  0
    3.4989   13.0272   -0.6828 H   0  0  0  0  0  0  0  0  0  0  0  0
    0.7085   14.1374   -0.2757 H   0  0  0  0  0  0  0  0  0  0  0  0
    2.2982   14.9487    0.0084 H   0  0  0  0  0  0  0  0  0  0  0  0
    3.9057   14.9463   -1.5771 H   0  0  0  0  0  0  0  0  0  0  0  0
    3.6043   14.0052   -3.0771 H   0  0  0  0  0  0  0  0  0  0  0  0
    3.3891   15.7886   -3.0771 H   0  0  0  0  0  0  0  0  0  0  0  0
  1  2  1  0
  2  3  1  0
  3  4  1  0
  4  5  1  0
  5  6  1  0
  6  7  1  0
  7  8  1  0
  7  9  1  0
  2 10  1  0
 10 11  1  0
 11 12  1  0
 12 13  1  0
 13 14  1  1
 13 15  1  0
 15 16  1  0
 16 17  1  0
 17 18  2  0
 18 19  1  0
 19 20  1  0
 20 21  1  0
 21 22  1  0
 22 23  1  0
 22 24  1  0
 24 25  1  0
 24 26  1  0
 19 27  1  0
 27 28  1  6
 27 29  1  0
 29 30  1  0
 30 31  1  0
 31 32  1  6
  7  5  1  0
 31 10  1  0
 31 13  1  0
 27 15  1  0
 24 18  1  0
  1 33  1  0
  1 34  1  0
  1 35  1  0
  2 36  1  6
  3 37  1  0
  3 38  1  0
  4 39  1  0
  4 40  1  0
  5 41  1  1
  8 42  1  0
  8 43  1  0
  8 44  1  0
  9 45  1  0
  9 46  1  0
  9 47  1  0
 10 48  1  1
 11 49  1  0
 11 50  1  0
 12 51  1  0
 12 52  1  0
 14 53  1  0
 14 54  1  0
 14 55  1  0
 15 56  1  6
 16 57  1  0
 16 58  1  0
 17 59  1  0
 19 60  1  1
 20 61  1  0
 20 62  1  0
 21 63  1  0
 21 64  1  0
 22 65  1  1
 23 66  1  0
 25 67  1  0
 25 68  1  0
 25 69  1  0
 26 70  1  0
 26 71  1  0
 26 72  1  0
 28 73  1  0
 28 74  1  0
 28 75  1  0
 29 76  1  0
 29 77  1  0
 30 78  1  0
 30 79  1  0
 32 80  1  0
 32 81  1  0
 32 82  1  0
M  END
>  <meeko>  (20) 
{"is_sidechain": [false], "intermolecular_energy": 2.731, "internal_energy": -0.839}

$$$$
