EPH_relaxed_0001_pdb2pqr_Repair_264_r2_0001_out
     RDKit          3D

 82 86  0  0  0  0  0  0  0  0999 V2000
    0.6970   18.3230    0.0030 C   0  0  0  0  0  0  0  0  0  0  0  0
    1.8090   17.2930   -0.2070 C   0  0  2  0  0  0  0  0  0  0  0  0
    3.0310   17.8950   -0.9300 C   0  0  0  0  0  0  0  0  0  0  0  0
    4.2410   18.1110   -0.0170 C   0  0  0  0  0  0  0  0  0  0  0  0
    3.8280   18.5230    1.3630 C   0  0  2  0  0  0  0  0  0  0  0  0
    3.9990   19.9180    1.6480 O   0  0  0  0  0  0  0  0  0  0  0  0
    4.8040   19.0100    2.4180 C   0  0  0  0  0  0  0  0  0  0  0  0
    6.2710   19.1100    2.1370 C   0  0  0  0  0  0  0  0  0  0  0  0
    4.4050   18.9230    3.8580 C   0  0  0  0  0  0  0  0  0  0  0  0
    1.2740   16.1020   -0.9930 C   0  0  1  0  0  0  0  0  0  0  0  0
    1.3710   16.3080   -2.5280 C   0  0  0  0  0  0  0  0  0  0  0  0
    1.6740   14.9190   -3.1470 C   0  0  0  0  0  0  0  0  0  0  0  0
    1.4130   13.9150   -2.0000 C   0  0  1  0  0  0  0  0  0  0  0  0
   -0.1340   13.7120   -1.9880 C   0  0  0  0  0  0  0  0  0  0  0  0
    2.1740   12.5520   -2.0880 C   0  0  2  0  0  0  0  0  0  0  0  0
    1.8230   11.6870   -3.3120 C   0  0  0  0  0  0  0  0  0  0  0  0
    0.6980   10.7260   -3.1130 C   0  0  0  0  0  0  0  0  0  0  0  0
    0.1840   10.3590   -1.9240 C   0  0  0  0  0  0  0  0  0  0  0  0
    0.8060   10.8520   -0.6110 C   0  0  1  0  0  0  0  0  0  0  0  0
    0.9620    9.6590    0.3680 C   0  0  0  0  0  0  0  0  0  0  0  0
   -0.3480    8.9090    0.5890 C   0  0  0  0  0  0  0  0  0  0  0  0
   -0.9050    8.3840   -0.7320 C   0  0  2  0  0  0  0  0  0  0  0  0
   -0.0230    7.3770   -1.2370 O   0  0  0  0  0  0  0  0  0  0  0  0
   -1.0960    9.4960   -1.8010 C   0  0  0  0  0  0  0  0  0  0  0  0
   -2.2680   10.4200   -1.3880 C   0  0  0  0  0  0  0  0  0  0  0  0
   -1.5270    8.8140   -3.1280 C   0  0  0  0  0  0  0  0  0  0  0  0
    2.1410   11.7030   -0.7530 C   0  0  1  0  0  0  0  0  0  0  0  0
    3.3760   10.7530   -0.7990 C   0  0  0  0  0  0  0  0  0  0  0  0
    2.3180   12.6000    0.5300 C   0  0  0  0  0  0  0  0  0  0  0  0
    1.6420   13.9840    0.5090 C   0  0  0  0  0  0  0  0  0  0  0  0
    1.9760   14.7370   -0.7830 C   0  0  2  0  0  0  0  0  0  0  0  0
    3.5240   14.9750   -0.8120 C   0  0  0  0  0  0  0  0  0  0  0  0
    0.5350   18.4731    1.0806 H   0  0  0  0  0  0  0  0  0  0  0  0
    0.9887   19.2771   -0.4603 H   0  0  0  0  0  0  0  0  0  0  0  0
   -0.2320   17.9593   -0.4603 H   0  0  0  0  0  0  0  0  0  0  0  0
    2.1439   16.9622    0.7872 H   0  0  0  0  0  0  0  0  0  0  0  0
    3.3254   17.2130   -1.7413 H   0  0  0  0  0  0  0  0  0  0  0  0
    2.7287   18.8847   -1.3029 H   0  0  0  0  0  0  0  0  0  0  0  0
    4.8113   17.1725    0.0469 H   0  0  0  0  0  0  0  0  0  0  0  0
    4.8545   18.9169   -0.4461 H   0  0  0  0  0  0  0  0  0  0  0  0
    3.0430   17.7527    1.3835 H   0  0  0  0  0  0  0  0  0  0  0  0
    6.8245   19.1477    3.0868 H   0  0  0  0  0  0  0  0  0  0  0  0
    6.5943   18.2318    1.5588 H   0  0  0  0  0  0  0  0  0  0  0  0
    6.4721   20.0239    1.5588 H   0  0  0  0  0  0  0  0  0  0  0  0
    5.2821   19.1142    4.4937 H   0  0  0  0  0  0  0  0  0  0  0  0
    3.6285   19.6729    4.0693 H   0  0  0  0  0  0  0  0  0  0  0  0
    4.0112   17.9179    4.0693 H   0  0  0  0  0  0  0  0  0  0  0  0
    0.2498   16.0628   -0.5937 H   0  0  0  0  0  0  0  0  0  0  0  0
    0.4194   16.6976   -2.9189 H   0  0  0  0  0  0  0  0  0  0  0  0
    2.1585   17.0334   -2.7804 H   0  0  0  0  0  0  0  0  0  0  0  0
    1.0059   14.7189   -3.9977 H   0  0  0  0  0  0  0  0  0  0  0  0
    2.7008   14.8506   -3.5355 H   0  0  0  0  0  0  0  0  0  0  0  0
   -0.4896   13.6653   -0.9481 H   0  0  0  0  0  0  0  0  0  0  0  0
   -0.6183   14.5543   -2.5037 H   0  0  0  0  0  0  0  0  0  0  0  0
   -0.3846   12.7733   -2.5037 H   0  0  0  0  0  0  0  0  0  0  0  0
    3.2156   12.8730   -2.2364 H   0  0  0  0  0  0  0  0  0  0  0  0
    1.5520   12.3611   -4.1379 H   0  0  0  0  0  0  0  0  0  0  0  0
    2.7134   11.0745   -3.5168 H   0  0  0  0  0  0  0  0  0  0  0  0
    0.2513   10.2801   -4.0139 H   0  0  0  0  0  0  0  0  0  0  0  0
    0.0990   11.5855   -0.1961 H   0  0  0  0  0  0  0  0  0  0  0  0
    1.7039    8.9592   -0.0442 H   0  0  0  0  0  0  0  0  0  0  0  0
    1.2833   10.0636    1.3391 H   0  0  0  0  0  0  0  0  0  0  0  0
   -0.1677    8.0611    1.2661 H   0  0  0  0  0  0  0  0  0  0  0  0
   -1.0802    9.6026    1.0282 H   0  0  0  0  0  0  0  0  0  0  0  0
   -1.9036    7.9704   -0.5278 H   0  0  0  0  0  0  0  0  0  0  0  0
   -0.4730    6.9360   -1.9780 H   0  0  0  0  0  0  0  0  0  0  0  0
   -2.3283   10.4675   -0.2907 H   0  0  0  0  0  0  0  0  0  0  0  0
   -2.0981   11.4297   -1.7900 H   0  0  0  0  0  0  0  0  0  0  0  0
   -3.2102   10.0191   -1.7900 H   0  0  0  0  0  0  0  0  0  0  0  0
   -2.1022    7.9039   -2.9025 H   0  0  0  0  0  0  0  0  0  0  0  0
   -2.1513    9.5073   -3.7107 H   0  0  0  0  0  0  0  0  0  0  0  0
   -0.6328    8.5477   -3.7107 H   0  0  0  0  0  0  0  0  0  0  0  0
    3.6908   10.5109    0.2268 H   0  0  0  0  0  0  0  0  0  0  0  0
    3.1068    9.8270   -1.3281 H   0  0  0  0  0  0  0  0  0  0  0  0
    4.2020   11.2508   -1.3281 H   0  0  0  0  0  0  0  0  0  0  0  0
    1.9080   12.0424    1.3849 H   0  0  0  0  0  0  0  0  0  0  0  0
    3.3966   12.8076    0.5893 H   0  0  0  0  0  0  0  0  0  0  0  0
    0.5520   13.8533    0.5780 H   0  0  0  0  0  0  0  0  0  0  0  0
    2.0140   14.5694    1.3628 H   0  0  0  0  0  0  0  0  0  0  0  0
    3.9053   15.0336    0.2181 H   0  0  0  0  0  0  0  0  0  0  0  0
    4.0133   14.1415   -1.3372 H   0  0  0  0  0  0  0  0  0  0  0  0
    3.7404   15.9170   -1.3372 H   0  0  0  0  0  0  0  0  0  0  0  0
  1  2  1  0
  2  3  1  0
  3  4  1  0
  4  5  1  0
  5  6  1  0
  6  7  1  0
  7  8  1  0
  7  9  1  0
  2 10  1  0
 10 11  1  0
 11 12  1  0
 12 13  1  0
 13 14  1  1
 13 15  1  0
 15 16  1  0
 16 17  1  0
 17 18  2  0
 18 19  1  0
 19 20  1  0
 20 21  1  0
 21 22  1  0
 22 23  1  0
 22 24  1  0
 24 25  1  0
 24 26  1  0
 19 27  1  0
 27 28  1  6
 27 29  1  0
 29 30  1  0
 30 31  1  0
 31 32  1  6
  7  5  1  0
 31 10  1  0
 31 13  1  0
 27 15  1  0
 24 18  1  0
  1 33  1  0
  1 34  1  0
  1 35  1  0
  2 36  1  1
  3 37  1  0
  3 38  1  0
  4 39  1  0
  4 40  1  0
  5 41  1  1
  8 42  1  0
  8 43  1  0
  8 44  1  0
  9 45  1  0
  9 46  1  0
  9 47  1  0
 10 48  1  6
 11 49  1  0
 11 50  1  0
 12 51  1  0
 12 52  1  0
 14 53  1  0
 14 54  1  0
 14 55  1  0
 15 56  1  6
 16 57  1  0
 16 58  1  0
 17 59  1  0
 19 60  1  1
 20 61  1  0
 20 62  1  0
 21 63  1  0
 21 64  1  0
 22 65  1  1
 23 66  1  0
 25 67  1  0
 25 68  1  0
 25 69  1  0
 26 70  1  0
 26 71  1  0
 26 72  1  0
 28 73  1  0
 28 74  1  0
 28 75  1  0
 29 76  1  0
 29 77  1  0
 30 78  1  0
 30 79  1  0
 32 80  1  0
 32 81  1  0
 32 82  1  0
M  END
>  <meeko>  (1) 
{"is_sidechain": [false], "intermolecular_energy": 2.731, "internal_energy": -0.839}

$$$$
EPH_relaxed_0001_pdb2pqr_Repair_264_r2_0001_out
     RDKit          3D

 82 86  0  0  0  0  0  0  0  0999 V2000
   -1.6790    8.7800   -1.9240 C   0  0  0  0  0  0  0  0  0  0  0  0
   -2.0680    9.2620   -0.5230 C   0  0  2  0  0  0  0  0  0  0  0  0
   -3.5580    9.6480   -0.4350 C   0  0  0  0  0  0  0  0  0  0  0  0
   -4.4940    8.4500   -0.2570 C   0  0  0  0  0  0  0  0  0  0  0  0
   -5.1470    8.0600   -1.5490 C   0  0  2  0  0  0  0  0  0  0  0  0
   -6.3800    8.7360   -1.8250 O   0  0  0  0  0  0  0  0  0  0  0  0
   -6.4670    7.3150   -1.6280 C   0  0  0  0  0  0  0  0  0  0  0  0
   -7.2130    6.9160   -0.3940 C   0  0  0  0  0  0  0  0  0  0  0  0
   -6.7840    6.5520   -2.8760 C   0  0  0  0  0  0  0  0  0  0  0  0
   -1.1980   10.4470   -0.1210 C   0  0  1  0  0  0  0  0  0  0  0  0
   -0.2940   10.1370    1.1020 C   0  0  0  0  0  0  0  0  0  0  0  0
    1.0340   10.9060    0.8820 C   0  0  0  0  0  0  0  0  0  0  0  0
    0.7310   11.8860   -0.2760 C   0  0  1  0  0  0  0  0  0  0  0  0
    0.0000   13.0890    0.3980 C   0  0  0  0  0  0  0  0  0  0  0  0
    1.9590   12.3570   -1.1220 C   0  0  2  0  0  0  0  0  0  0  0  0
    3.0220   13.1510   -0.3430 C   0  0  0  0  0  0  0  0  0  0  0  0
    2.8240   14.6310   -0.3230 C   0  0  0  0  0  0  0  0  0  0  0  0
    2.0030   15.3210   -1.1360 C   0  0  0  0  0  0  0  0  0  0  0  0
    1.2380   14.6180   -2.2650 C   0  0  1  0  0  0  0  0  0  0  0  0
    1.3720   15.4420   -3.5720 C   0  0  0  0  0  0  0  0  0  0  0  0
    0.9430   16.8950   -3.3950 C   0  0  0  0  0  0  0  0  0  0  0  0
    1.7660   17.5770   -2.3040 C   0  0  2  0  0  0  0  0  0  0  0  0
    3.1230   17.6790   -2.7470 O   0  0  0  0  0  0  0  0  0  0  0  0
    1.7160   16.8310   -0.9420 C   0  0  0  0  0  0  0  0  0  0  0  0
    0.3060   16.9810   -0.3180 C   0  0  0  0  0  0  0  0  0  0  0  0
    2.6970   17.5410    0.0290 C   0  0  0  0  0  0  0  0  0  0  0  0
    1.5740   13.0790   -2.4760 C   0  0  1  0  0  0  0  0  0  0  0  0
    2.8010   12.9280   -3.4260 C   0  0  0  0  0  0  0  0  0  0  0  0
    0.3620   12.3830   -3.2020 C   0  0  0  0  0  0  0  0  0  0  0  0
   -0.7620   11.8330   -2.3050 C   0  0  0  0  0  0  0  0  0  0  0  0
   -0.1890   10.9780   -1.1700 C   0  0  2  0  0  0  0  0  0  0  0  0
    0.5340    9.7470   -1.8170 C   0  0  0  0  0  0  0  0  0  0  0  0
   -0.9902    7.9265   -1.8400 H   0  0  0  0  0  0  0  0  0  0  0  0
   -2.5827    8.4696   -2.4690 H   0  0  0  0  0  0  0  0  0  0  0  0
   -1.1848    9.5978   -2.4690 H   0  0  0  0  0  0  0  0  0  0  0  0
   -1.9020    8.4263    0.1727 H   0  0  0  0  0  0  0  0  0  0  0  0
   -3.6917   10.3237    0.4226 H   0  0  0  0  0  0  0  0  0  0  0  0
   -3.8237   10.1247   -1.3900 H   0  0  0  0  0  0  0  0  0  0  0  0
   -3.9123    7.5961    0.1205 H   0  0  0  0  0  0  0  0  0  0  0  0
   -5.2835    8.7343    0.4542 H   0  0  0  0  0  0  0  0  0  0  0  0
   -4.1678    7.8777   -2.0158 H   0  0  0  0  0  0  0  0  0  0  0  0
   -6.6416    7.2216    0.4948 H   0  0  0  0  0  0  0  0  0  0  0  0
   -8.1966    7.4085   -0.3848 H   0  0  0  0  0  0  0  0  0  0  0  0
   -7.3494    5.8245   -0.3848 H   0  0  0  0  0  0  0  0  0  0  0  0
   -7.1934    5.5665   -2.6092 H   0  0  0  0  0  0  0  0  0  0  0  0
   -7.5252    7.1090   -3.4680 H   0  0  0  0  0  0  0  0  0  0  0  0
   -5.8664    6.4198   -3.4680 H   0  0  0  0  0  0  0  0  0  0  0  0
   -1.9818   11.1973    0.0598 H   0  0  0  0  0  0  0  0  0  0  0  0
   -0.7799   10.4773    2.0283 H   0  0  0  0  0  0  0  0  0  0  0  0
   -0.1138    9.0560    1.1964 H   0  0  0  0  0  0  0  0  0  0  0  0
    1.3195   11.4556    1.7911 H   0  0  0  0  0  0  0  0  0  0  0  0
    1.8722   10.2326    0.6497 H   0  0  0  0  0  0  0  0  0  0  0  0
    0.0608   12.9889    1.4917 H   0  0  0  0  0  0  0  0  0  0  0  0
    0.4795   14.0294    0.0886 H   0  0  0  0  0  0  0  0  0  0  0  0
   -1.0556   13.0966    0.0886 H   0  0  0  0  0  0  0  0  0  0  0  0
    2.4381   11.4048   -1.3936 H   0  0  0  0  0  0  0  0  0  0  0  0
    3.0189   12.7934    0.6973 H   0  0  0  0  0  0  0  0  0  0  0  0
    3.9747   12.9781   -0.8650 H   0  0  0  0  0  0  0  0  0  0  0  0
    3.3977   15.2058    0.4190 H   0  0  0  0  0  0  0  0  0  0  0  0
    0.1850   14.5900   -1.9481 H   0  0  0  0  0  0  0  0  0  0  0  0
    2.4233   15.4218   -3.8952 H   0  0  0  0  0  0  0  0  0  0  0  0
    0.7085   14.9874   -4.3224 H   0  0  0  0  0  0  0  0  0  0  0  0
    1.0882   17.4316   -4.3442 H   0  0  0  0  0  0  0  0  0  0  0  0
   -0.1166   16.9153   -3.1005 H   0  0  0  0  0  0  0  0  0  0  0  0
    1.3276   18.5712   -2.1328 H   0  0  0  0  0  0  0  0  0  0  0  0
    3.6530   17.0610   -2.2160 H   0  0  0  0  0  0  0  0  0  0  0  0
    0.3877   16.9723    0.7789 H   0  0  0  0  0  0  0  0  0  0  0  0
   -0.1404   17.9317   -0.6449 H   0  0  0  0  0  0  0  0  0  0  0  0
   -0.3304   16.1455   -0.6449 H   0  0  0  0  0  0  0  0  0  0  0  0
    2.4032   17.3283    1.0675 H   0  0  0  0  0  0  0  0  0  0  0  0
    3.7181   17.1713   -0.1462 H   0  0  0  0  0  0  0  0  0  0  0  0
    2.6649   18.6265   -0.1462 H   0  0  0  0  0  0  0  0  0  0  0  0
    3.7167   12.8153   -2.8271 H   0  0  0  0  0  0  0  0  0  0  0  0
    2.6663   12.0397   -4.0606 H   0  0  0  0  0  0  0  0  0  0  0  0
    2.8857   13.8225   -4.0606 H   0  0  0  0  0  0  0  0  0  0  0  0
   -0.0868   13.1215   -3.8826 H   0  0  0  0  0  0  0  0  0  0  0  0
    0.7921   11.5004   -3.6980 H   0  0  0  0  0  0  0  0  0  0  0  0
   -1.3225   12.6753   -1.8733 H   0  0  0  0  0  0  0  0  0  0  0  0
   -1.4240   11.2039   -2.9182 H   0  0  0  0  0  0  0  0  0  0  0  0
    0.9199    9.0899   -1.0237 H   0  0  0  0  0  0  0  0  0  0  0  0
   -0.1797    9.1887   -2.4407 H   0  0  0  0  0  0  0  0  0  0  0  0
    1.3692   10.0984   -2.4407 H   0  0  0  0  0  0  0  0  0  0  0  0
  1  2  1  0
  2  3  1  0
  3  4  1  0
  4  5  1  0
  5  6  1  0
  6  7  1  0
  7  8  1  0
  7  9  1  0
  2 10  1  0
 10 11  1  0
 11 12  1  0
 12 13  1  0
 13 14  1  1
 13 15  1  0
 15 16  1  0
 16 17  1  0
 17 18  2  0
 18 19  1  0
 19 20  1  0
 20 21  1  0
 21 22  1  0
 22 23  1  0
 22 24  1  0
 24 25  1  0
 24 26  1  0
 19 27  1  0
 27 28  1  6
 27 29  1  0
 29 30  1  0
 30 31  1  0
 31 32  1  6
  7  5  1  0
 31 10  1  0
 31 13  1  0
 27 15  1  0
 24 18  1  0
  1 33  1  0
  1 34  1  0
  1 35  1  0
  2 36  1  1
  3 37  1  0
  3 38  1  0
  4 39  1  0
  4 40  1  0
  5 41  1  6
  8 42  1  0
  8 43  1  0
  8 44  1  0
  9 45  1  0
  9 46  1  0
  9 47  1  0
 10 48  1  1
 11 49  1  0
 11 50  1  0
 12 51  1  0
 12 52  1  0
 14 53  1  0
 14 54  1  0
 14 55  1  0
 15 56  1  6
 16 57  1  0
 16 58  1  0
 17 59  1  0
 19 60  1  1
 20 61  1  0
 20 62  1  0
 21 63  1  0
 21 64  1  0
 22 65  1  1
 23 66  1  0
 25 67  1  0
 25 68  1  0
 25 69  1  0
 26 70  1  0
 26 71  1  0
 26 72  1  0
 28 73  1  0
 28 74  1  0
 28 75  1  0
 29 76  1  0
 29 77  1  0
 30 78  1  0
 30 79  1  0
 32 80  1  0
 32 81  1  0
 32 82  1  0
M  END
>  <meeko>  (2) 
{"is_sidechain": [false], "intermolecular_energy": 2.731, "internal_energy": -0.839}

$$$$
EPH_relaxed_0001_pdb2pqr_Repair_264_r2_0001_out
     RDKit          3D

 82 86  0  0  0  0  0  0  0  0999 V2000
   -5.1680    5.8220   -1.6690 C   0  0  0  0  0  0  0  0  0  0  0  0
   -5.4510    7.3250   -1.7460 C   0  0  2  0  0  0  0  0  0  0  0  0
   -5.2220    8.0290   -0.3930 C   0  0  0  0  0  0  0  0  0  0  0  0
   -4.1780    9.1470   -0.4500 C   0  0  0  0  0  0  0  0  0  0  0  0
   -2.8170    8.6190   -0.7880 C   0  0  2  0  0  0  0  0  0  0  0  0
   -1.7980    8.9340    0.1690 O   0  0  0  0  0  0  0  0  0  0  0  0
   -1.6380    9.5070   -1.1390 C   0  0  0  0  0  0  0  0  0  0  0  0
   -1.7660   10.9970   -1.1700 C   0  0  0  0  0  0  0  0  0  0  0  0
   -0.5060    8.9170   -1.9220 C   0  0  0  0  0  0  0  0  0  0  0  0
   -6.8800    7.5610   -2.2210 C   0  0  1  0  0  0  0  0  0  0  0  0
   -7.1790    6.8720   -3.5790 C   0  0  0  0  0  0  0  0  0  0  0  0
   -8.6580    6.4070   -3.5280 C   0  0  0  0  0  0  0  0  0  0  0  0
   -9.2510    7.1280   -2.2950 C   0  0  1  0  0  0  0  0  0  0  0  0
   -9.5890    8.5670   -2.7960 C   0  0  0  0  0  0  0  0  0  0  0  0
  -10.4870    6.4450   -1.6240 C   0  0  2  0  0  0  0  0  0  0  0  0
  -11.7340    6.3300   -2.5180 C   0  0  0  0  0  0  0  0  0  0  0  0
  -12.6820    7.4810   -2.4410 C   0  0  0  0  0  0  0  0  0  0  0  0
  -12.6880    8.4270   -1.4840 C   0  0  0  0  0  0  0  0  0  0  0  0
  -11.7350    8.3410   -0.2850 C   0  0  1  0  0  0  0  0  0  0  0  0
  -12.5200    8.6200    1.0230 C   0  0  0  0  0  0  0  0  0  0  0  0
  -13.2820    9.9420    0.9770 C   0  0  0  0  0  0  0  0  0  0  0  0
  -14.2610    9.9660   -0.1930 C   0  0  2  0  0  0  0  0  0  0  0  0
  -15.2870    8.9970    0.0430 O   0  0  0  0  0  0  0  0  0  0  0  0
  -13.5850    9.6870   -1.5650 C   0  0  0  0  0  0  0  0  0  0  0  0
  -12.6960   10.8910   -1.9610 C   0  0  0  0  0  0  0  0  0  0  0  0
  -14.7020    9.6000   -2.6390 C   0  0  0  0  0  0  0  0  0  0  0  0
  -10.8500    7.0230   -0.1960 C   0  0  1  0  0  0  0  0  0  0  0  0
  -11.6380    5.9030    0.5500 C   0  0  0  0  0  0  0  0  0  0  0  0
   -9.5710    7.3200    0.6730 C   0  0  0  0  0  0  0  0  0  0  0  0
   -8.3430    7.8810   -0.0690 C   0  0  0  0  0  0  0  0  0  0  0  0
   -8.0250    7.0470   -1.3140 C   0  0  2  0  0  0  0  0  0  0  0  0
   -7.6600    5.6000   -0.8390 C   0  0  0  0  0  0  0  0  0  0  0  0
   -5.1099    5.5134   -0.6148 H   0  0  0  0  0  0  0  0  0  0  0  0
   -5.9780    5.2703   -2.1685 H   0  0  0  0  0  0  0  0  0  0  0  0
   -4.2128    5.6027   -2.1685 H   0  0  0  0  0  0  0  0  0  0  0  0
   -4.7431    7.7587   -2.4676 H   0  0  0  0  0  0  0  0  0  0  0  0
   -6.1770    8.4622   -0.0609 H   0  0  0  0  0  0  0  0  0  0  0  0
   -4.8410    7.2686    0.3046 H   0  0  0  0  0  0  0  0  0  0  0  0
   -4.4780    9.8759   -1.2173 H   0  0  0  0  0  0  0  0  0  0  0  0
   -4.1259    9.6178    0.5428 H   0  0  0  0  0  0  0  0  0  0  0  0
   -3.2557    7.7434   -1.2888 H   0  0  0  0  0  0  0  0  0  0  0  0
   -1.7992   11.3837   -0.1407 H   0  0  0  0  0  0  0  0  0  0  0  0
   -0.9016   11.4284   -1.6960 H   0  0  0  0  0  0  0  0  0  0  0  0
   -2.6913   11.2747   -1.6960 H   0  0  0  0  0  0  0  0  0  0  0  0
    0.2520    8.5219   -1.2297 H   0  0  0  0  0  0  0  0  0  0  0  0
   -0.8844    8.1014   -2.5557 H   0  0  0  0  0  0  0  0  0  0  0  0
   -0.0541    9.6943   -2.5557 H   0  0  0  0  0  0  0  0  0  0  0  0
   -6.8864    8.6607   -2.2473 H   0  0  0  0  0  0  0  0  0  0  0  0
   -7.0338    7.5837   -4.4051 H   0  0  0  0  0  0  0  0  0  0  0  0
   -6.5027    6.0210   -3.7478 H   0  0  0  0  0  0  0  0  0  0  0  0
   -9.1900    6.7031   -4.4441 H   0  0  0  0  0  0  0  0  0  0  0  0
   -8.7493    5.3132   -3.4557 H   0  0  0  0  0  0  0  0  0  0  0  0
   -9.7445    9.2291   -1.9315 H   0  0  0  0  0  0  0  0  0  0  0  0
   -8.7560    8.9484   -3.4048 H   0  0  0  0  0  0  0  0  0  0  0  0
  -10.5047    8.5377   -3.4048 H   0  0  0  0  0  0  0  0  0  0  0  0
  -10.1339    5.4145   -1.4710 H   0  0  0  0  0  0  0  0  0  0  0  0
  -11.3971    6.2363   -3.5609 H   0  0  0  0  0  0  0  0  0  0  0  0
  -12.2896    5.4531   -2.1541 H   0  0  0  0  0  0  0  0  0  0  0  0
  -13.4400    7.5626   -3.2340 H   0  0  0  0  0  0  0  0  0  0  0  0
  -10.9798    9.1254   -0.4409 H   0  0  0  0  0  0  0  0  0  0  0  0
  -13.2395    7.8036    1.1835 H   0  0  0  0  0  0  0  0  0  0  0  0
  -11.7902    8.6833    1.8436 H   0  0  0  0  0  0  0  0  0  0  0  0
  -13.8403   10.0687    1.9163 H   0  0  0  0  0  0  0  0  0  0  0  0
  -12.5585   10.7602    0.8465 H   0  0  0  0  0  0  0  0  0  0  0  0
  -14.6794   10.9817   -0.2504 H   0  0  0  0  0  0  0  0  0  0  0  0
  -15.2410    8.3390   -0.6710 H   0  0  0  0  0  0  0  0  0  0  0  0
  -12.3279   11.3896   -1.0522 H   0  0  0  0  0  0  0  0  0  0  0  0
  -11.8417   10.5360   -2.5561 H   0  0  0  0  0  0  0  0  0  0  0  0
  -13.2868   11.6030   -2.5561 H   0  0  0  0  0  0  0  0  0  0  0  0
  -15.6814    9.5237   -2.1441 H   0  0  0  0  0  0  0  0  0  0  0  0
  -14.6779   10.5027   -3.2671 H   0  0  0  0  0  0  0  0  0  0  0  0
  -14.5384    8.7119   -3.2671 H   0  0  0  0  0  0  0  0  0  0  0  0
  -11.5378    6.0454    1.6361 H   0  0  0  0  0  0  0  0  0  0  0  0
  -12.7006    5.9536    0.2700 H   0  0  0  0  0  0  0  0  0  0  0  0
  -11.2315    4.9200    0.2700 H   0  0  0  0  0  0  0  0  0  0  0  0
   -9.8554    8.0498    1.4454 H   0  0  0  0  0  0  0  0  0  0  0  0
   -9.2516    6.3410    1.0597 H   0  0  0  0  0  0  0  0  0  0  0  0
   -8.5495    8.9176   -0.3736 H   0  0  0  0  0  0  0  0  0  0  0  0
   -7.4771    7.8434    0.6084 H   0  0  0  0  0  0  0  0  0  0  0  0
   -7.6515    5.5662    0.2604 H   0  0  0  0  0  0  0  0  0  0  0  0
   -8.4069    4.8890   -1.2219 H   0  0  0  0  0  0  0  0  0  0  0  0
   -6.6652    5.3284   -1.2219 H   0  0  0  0  0  0  0  0  0  0  0  0
  1  2  1  0
  2  3  1  0
  3  4  1  0
  4  5  1  0
  5  6  1  0
  6  7  1  0
  7  8  1  0
  7  9  1  0
  2 10  1  0
 10 11  1  0
 11 12  1  0
 12 13  1  0
 13 14  1  6
 13 15  1  0
 15 16  1  0
 16 17  1  0
 17 18  2  0
 18 19  1  0
 19 20  1  0
 20 21  1  0
 21 22  1  0
 22 23  1  0
 22 24  1  0
 24 25  1  0
 24 26  1  0
 19 27  1  0
 27 28  1  1
 27 29  1  0
 29 30  1  0
 30 31  1  0
 31 32  1  1
  7  5  1  0
 31 10  1  0
 31 13  1  0
 27 15  1  0
 24 18  1  0
  1 33  1  0
  1 34  1  0
  1 35  1  0
  2 36  1  6
  3 37  1  0
  3 38  1  0
  4 39  1  0
  4 40  1  0
  5 41  1  6
  8 42  1  0
  8 43  1  0
  8 44  1  0
  9 45  1  0
  9 46  1  0
  9 47  1  0
 10 48  1  6
 11 49  1  0
 11 50  1  0
 12 51  1  0
 12 52  1  0
 14 53  1  0
 14 54  1  0
 14 55  1  0
 15 56  1  1
 16 57  1  0
 16 58  1  0
 17 59  1  0
 19 60  1  6
 20 61  1  0
 20 62  1  0
 21 63  1  0
 21 64  1  0
 22 65  1  6
 23 66  1  0
 25 67  1  0
 25 68  1  0
 25 69  1  0
 26 70  1  0
 26 71  1  0
 26 72  1  0
 28 73  1  0
 28 74  1  0
 28 75  1  0
 29 76  1  0
 29 77  1  0
 30 78  1  0
 30 79  1  0
 32 80  1  0
 32 81  1  0
 32 82  1  0
M  END
>  <meeko>  (3) 
{"is_sidechain": [false], "intermolecular_energy": 2.731, "internal_energy": -0.839}

$$$$
EPH_relaxed_0001_pdb2pqr_Repair_264_r2_0001_out
     RDKit          3D

 82 86  0  0  0  0  0  0  0  0999 V2000
    2.3890   17.0840    0.0190 C   0  0  0  0  0  0  0  0  0  0  0  0
    1.9960   17.2540   -1.4510 C   0  0  2  0  0  0  0  0  0  0  0  0
    1.0570   18.4580   -1.6660 C   0  0  0  0  0  0  0  0  0  0  0  0
    1.0710   19.4640   -0.5120 C   0  0  0  0  0  0  0  0  0  0  0  0
   -0.2780   20.0780   -0.2950 C   0  0  2  0  0  0  0  0  0  0  0  0
   -0.6700   20.1940    1.0790 O   0  0  0  0  0  0  0  0  0  0  0  0
   -1.4650   19.3160    0.2650 C   0  0  0  0  0  0  0  0  0  0  0  0
   -1.3560   17.8720    0.6430 C   0  0  0  0  0  0  0  0  0  0  0  0
   -2.8420   19.8330   -0.0110 C   0  0  0  0  0  0  0  0  0  0  0  0
    1.3340   15.9790   -1.9620 C   0  0  1  0  0  0  0  0  0  0  0  0
    1.2850   15.9120   -3.5120 C   0  0  0  0  0  0  0  0  0  0  0  0
    1.4650   14.4220   -3.9010 C   0  0  0  0  0  0  0  0  0  0  0  0
    1.2800   13.6480   -2.5750 C   0  0  1  0  0  0  0  0  0  0  0  0
   -0.2660   13.5420   -2.3860 C   0  0  0  0  0  0  0  0  0  0  0  0
    1.9690   12.2470   -2.4910 C   0  0  2  0  0  0  0  0  0  0  0  0
    1.4610   11.2080   -3.5050 C   0  0  0  0  0  0  0  0  0  0  0  0
    0.3220   10.3630   -3.0370 C   0  0  0  0  0  0  0  0  0  0  0  0
   -0.0840   10.2370   -1.7600 C   0  0  0  0  0  0  0  0  0  0  0  0
    0.6870   10.9100   -0.6170 C   0  0  1  0  0  0  0  0  0  0  0  0
    0.8910    9.8960    0.5390 C   0  0  0  0  0  0  0  0  0  0  0  0
   -0.4210    9.2730    1.0080 C   0  0  0  0  0  0  0  0  0  0  0  0
   -1.1300    8.5630   -0.1430 C   0  0  2  0  0  0  0  0  0  0  0  0
   -0.3460    7.4340   -0.5410 O   0  0  0  0  0  0  0  0  0  0  0  0
   -1.3800    9.4840   -1.3700 C   0  0  0  0  0  0  0  0  0  0  0  0
   -2.4650   10.5330   -1.0210 C   0  0  0  0  0  0  0  0  0  0  0  0
   -1.9710    8.6110   -2.5090 C   0  0  0  0  0  0  0  0  0  0  0  0
    2.0350   11.6440   -1.0290 C   0  0  1  0  0  0  0  0  0  0  0  0
    3.2190   10.6290   -1.0200 C   0  0  0  0  0  0  0  0  0  0  0  0
    2.3780   12.7350    0.0530 C   0  0  0  0  0  0  0  0  0  0  0  0
    1.7630   14.1330   -0.1500 C   0  0  0  0  0  0  0  0  0  0  0  0
    1.9950   14.6320   -1.5800 C   0  0  2  0  0  0  0  0  0  0  0  0
    3.5420   14.7700   -1.7920 C   0  0  0  0  0  0  0  0  0  0  0  0
    1.5692   17.4386    0.6611 H   0  0  0  0  0  0  0  0  0  0  0  0
    2.5835   16.0213    0.2260 H   0  0  0  0  0  0  0  0  0  0  0  0
    3.2966   17.6700    0.2260 H   0  0  0  0  0  0  0  0  0  0  0  0
    2.9172   17.4489   -2.0197 H   0  0  0  0  0  0  0  0  0  0  0  0
    1.3652   18.9790   -2.5845 H   0  0  0  0  0  0  0  0  0  0  0  0
    0.0339   18.0595   -1.7323 H   0  0  0  0  0  0  0  0  0  0  0  0
    1.3791   18.9463    0.4083 H   0  0  0  0  0  0  0  0  0  0  0  0
    1.7765   20.2684   -0.7673 H   0  0  0  0  0  0  0  0  0  0  0  0
   -0.1607   20.7069   -1.1899 H   0  0  0  0  0  0  0  0  0  0  0  0
   -1.3490   17.7794    1.7391 H   0  0  0  0  0  0  0  0  0  0  0  0
   -2.2150   17.3200    0.2339 H   0  0  0  0  0  0  0  0  0  0  0  0
   -0.4238   17.4552    0.2339 H   0  0  0  0  0  0  0  0  0  0  0  0
   -3.3584   20.0269    0.9407 H   0  0  0  0  0  0  0  0  0  0  0  0
   -2.7742   20.7669   -0.5883 H   0  0  0  0  0  0  0  0  0  0  0  0
   -3.4055   19.0852   -0.5883 H   0  0  0  0  0  0  0  0  0  0  0  0
    0.3544   16.0699   -1.4699 H   0  0  0  0  0  0  0  0  0  0  0  0
    0.3164   16.2844   -3.8769 H   0  0  0  0  0  0  0  0  0  0  0  0
    2.0733   16.5351   -3.9595 H   0  0  0  0  0  0  0  0  0  0  0  0
    0.7061   14.1183   -4.6371 H   0  0  0  0  0  0  0  0  0  0  0  0
    2.4431   14.2271   -4.3650 H   0  0  0  0  0  0  0  0  0  0  0  0
   -0.5038   13.5257   -1.3121 H   0  0  0  0  0  0  0  0  0  0  0  0
   -0.7532   14.4088   -2.8563 H   0  0  0  0  0  0  0  0  0  0  0  0
   -0.6303   12.6168   -2.8563 H   0  0  0  0  0  0  0  0  0  0  0  0
    3.0030   12.4744   -2.7897 H   0  0  0  0  0  0  0  0  0  0  0  0
    1.1367   11.7452   -4.4084 H   0  0  0  0  0  0  0  0  0  0  0  0
    2.2998   10.5181   -3.6795 H   0  0  0  0  0  0  0  0  0  0  0  0
   -0.2315    9.7960   -3.8000 H   0  0  0  0  0  0  0  0  0  0  0  0
    0.0561   11.7435   -0.2746 H   0  0  0  0  0  0  0  0  0  0  0  0
    1.5580    9.0936    0.1908 H   0  0  0  0  0  0  0  0  0  0  0  0
    1.3249   10.4418    1.3898 H   0  0  0  0  0  0  0  0  0  0  0  0
   -0.2092    8.5445    1.8045 H   0  0  0  0  0  0  0  0  0  0  0  0
   -1.0755   10.0735    1.3832 H   0  0  0  0  0  0  0  0  0  0  0  0
   -2.1197    8.2509    0.2217 H   0  0  0  0  0  0  0  0  0  0  0  0
   -0.9100    6.6450   -0.4720 H   0  0  0  0  0  0  0  0  0  0  0  0
   -2.5538   10.6189    0.0720 H   0  0  0  0  0  0  0  0  0  0  0  0
   -2.1815   11.5082   -1.4436 H   0  0  0  0  0  0  0  0  0  0  0  0
   -3.4301   10.2168   -1.4436 H   0  0  0  0  0  0  0  0  0  0  0  0
   -2.5373    7.7745   -2.0736 H   0  0  0  0  0  0  0  0  0  0  0  0
   -2.6410    9.2234   -3.1303 H   0  0  0  0  0  0  0  0  0  0  0  0
   -1.1535    8.2164   -3.1303 H   0  0  0  0  0  0  0  0  0  0  0  0
    3.4928   10.3943    0.0192 H   0  0  0  0  0  0  0  0  0  0  0  0
    2.9151    9.7065   -1.5364 H   0  0  0  0  0  0  0  0  0  0  0  0
    4.0842   11.0703   -1.5364 H   0  0  0  0  0  0  0  0  0  0  0  0
    2.0326   12.3578    1.0269 H   0  0  0  0  0  0  0  0  0  0  0  0
    3.4650   12.8850   -0.0244 H   0  0  0  0  0  0  0  0  0  0  0  0
    0.6811   14.0815    0.0420 H   0  0  0  0  0  0  0  0  0  0  0  0
    2.2452   14.8330    0.5482 H   0  0  0  0  0  0  0  0  0  0  0  0
    4.0436   14.8147   -0.8140 H   0  0  0  0  0  0  0  0  0  0  0  0
    3.9138   13.9015   -2.3554 H   0  0  0  0  0  0  0  0  0  0  0  0
    3.7542   15.6906   -2.3554 H   0  0  0  0  0  0  0  0  0  0  0  0
  1  2  1  0
  2  3  1  0
  3  4  1  0
  4  5  1  0
  5  6  1  0
  6  7  1  0
  7  8  1  0
  7  9  1  0
  2 10  1  0
 10 11  1  0
 11 12  1  0
 12 13  1  0
 13 14  1  1
 13 15  1  0
 15 16  1  0
 16 17  1  0
 17 18  2  0
 18 19  1  0
 19 20  1  0
 20 21  1  0
 21 22  1  0
 22 23  1  0
 22 24  1  0
 24 25  1  0
 24 26  1  0
 19 27  1  0
 27 28  1  6
 27 29  1  0
 29 30  1  0
 30 31  1  0
 31 32  1  6
  7  5  1  0
 31 10  1  0
 31 13  1  0
 27 15  1  0
 24 18  1  0
  1 33  1  0
  1 34  1  0
  1 35  1  0
  2 36  1  6
  3 37  1  0
  3 38  1  0
  4 39  1  0
  4 40  1  0
  5 41  1  6
  8 42  1  0
  8 43  1  0
  8 44  1  0
  9 45  1  0
  9 46  1  0
  9 47  1  0
 10 48  1  1
 11 49  1  0
 11 50  1  0
 12 51  1  0
 12 52  1  0
 14 53  1  0
 14 54  1  0
 14 55  1  0
 15 56  1  6
 16 57  1  0
 16 58  1  0
 17 59  1  0
 19 60  1  1
 20 61  1  0
 20 62  1  0
 21 63  1  0
 21 64  1  0
 22 65  1  1
 23 66  1  0
 25 67  1  0
 25 68  1  0
 25 69  1  0
 26 70  1  0
 26 71  1  0
 26 72  1  0
 28 73  1  0
 28 74  1  0
 28 75  1  0
 29 76  1  0
 29 77  1  0
 30 78  1  0
 30 79  1  0
 32 80  1  0
 32 81  1  0
 32 82  1  0
M  END
>  <meeko>  (4) 
{"is_sidechain": [false], "intermolecular_energy": 2.731, "internal_energy": -0.839}

$$$$
EPH_relaxed_0001_pdb2pqr_Repair_264_r2_0001_out
     RDKit          3D

 82 86  0  0  0  0  0  0  0  0999 V2000
    4.4270   17.5400   -0.5450 C   0  0  0  0  0  0  0  0  0  0  0  0
    3.0890   18.0950   -0.0500 C   0  0  2  0  0  0  0  0  0  0  0  0
    3.2100   18.7460    1.3420 C   0  0  0  0  0  0  0  0  0  0  0  0
    4.6300   18.7140    1.9150 C   0  0  0  0  0  0  0  0  0  0  0  0
    4.7040   19.3920    3.2500 C   0  0  2  0  0  0  0  0  0  0  0  0
    5.8750   20.1940    3.4490 O   0  0  0  0  0  0  0  0  0  0  0  0
    5.7390   19.0490    4.3060 C   0  0  0  0  0  0  0  0  0  0  0  0
    6.7690   17.9890    4.0740 C   0  0  0  0  0  0  0  0  0  0  0  0
    5.4460   19.3950    5.7330 C   0  0  0  0  0  0  0  0  0  0  0  0
    2.0450   16.9850   -0.0160 C   0  0  1  0  0  0  0  0  0  0  0  0
    0.6020   17.5140   -0.2260 C   0  0  0  0  0  0  0  0  0  0  0  0
   -0.1620   16.4270   -1.0240 C   0  0  0  0  0  0  0  0  0  0  0  0
    0.7520   15.1810   -0.9600 C   0  0  1  0  0  0  0  0  0  0  0  0
    0.4610   14.5410    0.4340 C   0  0  0  0  0  0  0  0  0  0  0  0
    0.5880   14.1430   -2.1170 C   0  0  2  0  0  0  0  0  0  0  0  0
   -0.7970   13.4790   -2.2070 C   0  0  0  0  0  0  0  0  0  0  0  0
   -0.9500   12.2140   -1.4280 C   0  0  0  0  0  0  0  0  0  0  0  0
    0.0590   11.4830   -0.9190 C   0  0  0  0  0  0  0  0  0  0  0  0
    1.5210   11.8590   -1.1920 C   0  0  1  0  0  0  0  0  0  0  0  0
    2.3150   10.5910   -1.6000 C   0  0  0  0  0  0  0  0  0  0  0  0
    2.1840    9.4650   -0.5780 C   0  0  0  0  0  0  0  0  0  0  0  0
    0.7200    9.0790   -0.3770 C   0  0  2  0  0  0  0  0  0  0  0  0
    0.2280    8.4940   -1.5870 O   0  0  0  0  0  0  0  0  0  0  0  0
   -0.1800   10.2800    0.0260 C   0  0  0  0  0  0  0  0  0  0  0  0
    0.1590   10.7220    1.4710 C   0  0  0  0  0  0  0  0  0  0  0  0
   -1.6510    9.7840    0.0590 C   0  0  0  0  0  0  0  0  0  0  0  0
    1.7490   13.0710   -2.1960 C   0  0  1  0  0  0  0  0  0  0  0  0
    1.7730   12.5470   -3.6650 C   0  0  0  0  0  0  0  0  0  0  0  0
    3.1660   13.7020   -1.9260 C   0  0  0  0  0  0  0  0  0  0  0  0
    3.2420   14.8070   -0.8550 C   0  0  0  0  0  0  0  0  0  0  0  0
    2.1610   15.8680   -1.0840 C   0  0  2  0  0  0  0  0  0  0  0  0
    2.4410   16.5440   -2.4690 C   0  0  0  0  0  0  0  0  0  0  0  0
    5.0573   17.2786    0.3178 H   0  0  0  0  0  0  0  0  0  0  0  0
    4.2485   16.6417   -1.1543 H   0  0  0  0  0  0  0  0  0  0  0  0
    4.9367   18.3009   -1.1543 H   0  0  0  0  0  0  0  0  0  0  0  0
    2.7754   18.8785   -0.7555 H   0  0  0  0  0  0  0  0  0  0  0  0
    2.8907   19.7957    1.2635 H   0  0  0  0  0  0  0  0  0  0  0  0
    2.5742   18.1641    2.0255 H   0  0  0  0  0  0  0  0  0  0  0  0
    4.9449   17.6662    2.0292 H   0  0  0  0  0  0  0  0  0  0  0  0
    5.2926   19.2509    1.2202 H   0  0  0  0  0  0  0  0  0  0  0  0
    3.6085   19.4817    3.2923 H   0  0  0  0  0  0  0  0  0  0  0  0
    7.1335   17.6139    5.0417 H   0  0  0  0  0  0  0  0  0  0  0  0
    6.3213   17.1610    3.5049 H   0  0  0  0  0  0  0  0  0  0  0  0
    7.6095   18.4128    3.5049 H   0  0  0  0  0  0  0  0  0  0  0  0
    6.0130   18.7254    6.3965 H   0  0  0  0  0  0  0  0  0  0  0  0
    5.7403   20.4373    5.9254 H   0  0  0  0  0  0  0  0  0  0  0  0
    4.3695   19.2765    5.9254 H   0  0  0  0  0  0  0  0  0  0  0  0
    2.2463   16.5734    0.9840 H   0  0  0  0  0  0  0  0  0  0  0  0
    0.1153   17.6824    0.7460 H   0  0  0  0  0  0  0  0  0  0  0  0
    0.6076   18.4709   -0.7685 H   0  0  0  0  0  0  0  0  0  0  0  0
   -1.1369   16.2177   -0.5596 H   0  0  0  0  0  0  0  0  0  0  0  0
   -0.3709   16.7383   -2.0581 H   0  0  0  0  0  0  0  0  0  0  0  0
    0.7759   15.2336    1.2284 H   0  0  0  0  0  0  0  0  0  0  0  0
   -0.6166   14.3410    0.5279 H   0  0  0  0  0  0  0  0  0  0  0  0
    1.0186   13.5975    0.5279 H   0  0  0  0  0  0  0  0  0  0  0  0
    0.6752   14.7744   -3.0135 H   0  0  0  0  0  0  0  0  0  0  0  0
   -1.5432   14.1979   -1.8377 H   0  0  0  0  0  0  0  0  0  0  0  0
   -0.9347   13.2044   -3.2632 H   0  0  0  0  0  0  0  0  0  0  0  0
   -1.9733   11.8491   -1.2558 H   0  0  0  0  0  0  0  0  0  0  0  0
    1.9145   12.2565   -0.2448 H   0  0  0  0  0  0  0  0  0  0  0  0
    1.9357   10.2339   -2.5688 H   0  0  0  0  0  0  0  0  0  0  0  0
    3.3782   10.8670   -1.6586 H   0  0  0  0  0  0  0  0  0  0  0  0
    2.7420    8.5872   -0.9358 H   0  0  0  0  0  0  0  0  0  0  0  0
    2.5907    9.8134    0.3828 H   0  0  0  0  0  0  0  0  0  0  0  0
    0.6786    8.3625    0.4566 H   0  0  0  0  0  0  0  0  0  0  0  0
   -0.5490    7.9560   -1.3580 H   0  0  0  0  0  0  0  0  0  0  0  0
   -0.3497   10.0588    2.1862 H   0  0  0  0  0  0  0  0  0  0  0  0
    1.2464   10.6640    1.6266 H   0  0  0  0  0  0  0  0  0  0  0  0
   -0.1789   11.7572    1.6266 H   0  0  0  0  0  0  0  0  0  0  0  0
   -1.9775    9.6739    1.1036 H   0  0  0  0  0  0  0  0  0  0  0  0
   -2.2958   10.5144   -0.4516 H   0  0  0  0  0  0  0  0  0  0  0  0
   -1.7218    8.8123   -0.4516 H   0  0  0  0  0  0  0  0  0  0  0  0
    1.8233   11.4482   -3.6616 H   0  0  0  0  0  0  0  0  0  0  0  0
    0.8591   12.8706   -4.1847 H   0  0  0  0  0  0  0  0  0  0  0  0
    2.6535   12.9528   -4.1847 H   0  0  0  0  0  0  0  0  0  0  0  0
    3.8382   12.8892   -1.6137 H   0  0  0  0  0  0  0  0  0  0  0  0
    3.4457   14.1952   -2.8686 H   0  0  0  0  0  0  0  0  0  0  0  0
    3.0989   14.3560    0.1381 H   0  0  0  0  0  0  0  0  0  0  0  0
    4.2277   15.2910   -0.9198 H   0  0  0  0  0  0  0  0  0  0  0  0
    2.8575   17.5494   -2.3088 H   0  0  0  0  0  0  0  0  0  0  0  0
    3.1609   15.9349   -3.0354 H   0  0  0  0  0  0  0  0  0  0  0  0
    1.5013   16.6223   -3.0354 H   0  0  0  0  0  0  0  0  0  0  0  0
  1  2  1  0
  2  3  1  0
  3  4  1  0
  4  5  1  0
  5  6  1  0
  6  7  1  0
  7  8  1  0
  7  9  1  0
  2 10  1  0
 10 11  1  0
 11 12  1  0
 12 13  1  0
 13 14  1  1
 13 15  1  0
 15 16  1  0
 16 17  1  0
 17 18  2  0
 18 19  1  0
 19 20  1  0
 20 21  1  0
 21 22  1  0
 22 23  1  0
 22 24  1  0
 24 25  1  0
 24 26  1  0
 19 27  1  0
 27 28  1  6
 27 29  1  0
 29 30  1  0
 30 31  1  0
 31 32  1  6
  7  5  1  0
 31 10  1  0
 31 13  1  0
 27 15  1  0
 24 18  1  0
  1 33  1  0
  1 34  1  0
  1 35  1  0
  2 36  1  6
  3 37  1  0
  3 38  1  0
  4 39  1  0
  4 40  1  0
  5 41  1  1
  8 42  1  0
  8 43  1  0
  8 44  1  0
  9 45  1  0
  9 46  1  0
  9 47  1  0
 10 48  1  1
 11 49  1  0
 11 50  1  0
 12 51  1  0
 12 52  1  0
 14 53  1  0
 14 54  1  0
 14 55  1  0
 15 56  1  6
 16 57  1  0
 16 58  1  0
 17 59  1  0
 19 60  1  1
 20 61  1  0
 20 62  1  0
 21 63  1  0
 21 64  1  0
 22 65  1  1
 23 66  1  0
 25 67  1  0
 25 68  1  0
 25 69  1  0
 26 70  1  0
 26 71  1  0
 26 72  1  0
 28 73  1  0
 28 74  1  0
 28 75  1  0
 29 76  1  0
 29 77  1  0
 30 78  1  0
 30 79  1  0
 32 80  1  0
 32 81  1  0
 32 82  1  0
M  END
>  <meeko>  (5) 
{"is_sidechain": [false], "intermolecular_energy": 2.731, "internal_energy": -0.839}

$$$$
EPH_relaxed_0001_pdb2pqr_Repair_264_r2_0001_out
     RDKit          3D

 82 86  0  0  0  0  0  0  0  0999 V2000
   -4.1240    7.0540   -3.1500 C   0  0  0  0  0  0  0  0  0  0  0  0
   -4.1550    7.3140   -1.6420 C   0  0  2  0  0  0  0  0  0  0  0  0
   -5.5920    7.3160   -1.0820 C   0  0  0  0  0  0  0  0  0  0  0  0
   -6.6410    7.8140   -2.0800 C   0  0  0  0  0  0  0  0  0  0  0  0
   -8.0200    7.7910   -1.4940 C   0  0  2  0  0  0  0  0  0  0  0  0
   -8.4360    6.5130   -0.9950 O   0  0  0  0  0  0  0  0  0  0  0  0
   -9.1780    7.0300   -2.1110 C   0  0  0  0  0  0  0  0  0  0  0  0
   -9.0110    6.2400   -3.3710 C   0  0  0  0  0  0  0  0  0  0  0  0
  -10.5740    7.4480   -1.7660 C   0  0  0  0  0  0  0  0  0  0  0  0
   -3.4730    8.6410   -1.3290 C   0  0  1  0  0  0  0  0  0  0  0  0
   -4.0210    9.3050   -0.0370 C   0  0  0  0  0  0  0  0  0  0  0  0
   -2.8250   10.0200    0.6400 C   0  0  0  0  0  0  0  0  0  0  0  0
   -1.7150   10.0290   -0.4360 C   0  0  1  0  0  0  0  0  0  0  0  0
   -2.0690   11.2310   -1.3680 C   0  0  0  0  0  0  0  0  0  0  0  0
   -0.2440   10.1180    0.0880 C   0  0  2  0  0  0  0  0  0  0  0  0
    0.0950   11.4040    0.8620 C   0  0  0  0  0  0  0  0  0  0  0  0
    0.6200   12.5280    0.0320 C   0  0  0  0  0  0  0  0  0  0  0  0
    1.0800   12.4220   -1.2290 C   0  0  0  0  0  0  0  0  0  0  0  0
    1.1920   11.0530   -1.9130 C   0  0  1  0  0  0  0  0  0  0  0  0
    2.5740   10.9330   -2.6070 C   0  0  0  0  0  0  0  0  0  0  0  0
    2.8510   12.0890   -3.5640 C   0  0  0  0  0  0  0  0  0  0  0  0
    2.7870   13.4280   -2.8340 C   0  0  2  0  0  0  0  0  0  0  0  0
    3.8720   13.4980   -1.9030 O   0  0  0  0  0  0  0  0  0  0  0  0
    1.4430   13.6570   -2.0890 C   0  0  0  0  0  0  0  0  0  0  0  0
    0.3090   13.8830   -3.1190 C   0  0  0  0  0  0  0  0  0  0  0  0
    1.5640   14.9770   -1.2810 C   0  0  0  0  0  0  0  0  0  0  0  0
    0.8540    9.7940   -1.0050 C   0  0  1  0  0  0  0  0  0  0  0  0
    2.1290    9.3370   -0.2320 C   0  0  0  0  0  0  0  0  0  0  0  0
    0.4400    8.5890   -1.9300 C   0  0  0  0  0  0  0  0  0  0  0  0
   -1.0480    8.4880   -2.3150 C   0  0  0  0  0  0  0  0  0  0  0  0
   -1.9440    8.6130   -1.0790 C   0  0  2  0  0  0  0  0  0  0  0  0
   -1.6270    7.4040   -0.1340 C   0  0  0  0  0  0  0  0  0  0  0  0
   -3.9956    5.9771   -3.3338 H   0  0  0  0  0  0  0  0  0  0  0  0
   -5.0689    7.3927   -3.6000 H   0  0  0  0  0  0  0  0  0  0  0  0
   -3.2852    7.6054   -3.6000 H   0  0  0  0  0  0  0  0  0  0  0  0
   -3.6113    6.4918   -1.1537 H   0  0  0  0  0  0  0  0  0  0  0  0
   -5.8519    6.2881   -0.7890 H   0  0  0  0  0  0  0  0  0  0  0  0
   -5.6038    8.0112   -0.2296 H   0  0  0  0  0  0  0  0  0  0  0  0
   -6.3946    8.8459   -2.3707 H   0  0  0  0  0  0  0  0  0  0  0  0
   -6.6285    7.1444   -2.9526 H   0  0  0  0  0  0  0  0  0  0  0  0
   -7.9192    8.8323   -1.1541 H   0  0  0  0  0  0  0  0  0  0  0  0
   -8.7895    5.1921   -3.1201 H   0  0  0  0  0  0  0  0  0  0  0  0
   -9.9391    6.2878   -3.9595 H   0  0  0  0  0  0  0  0  0  0  0  0
   -8.1817    6.6593   -3.9595 H   0  0  0  0  0  0  0  0  0  0  0  0
  -10.6869    7.4818   -0.6723 H   0  0  0  0  0  0  0  0  0  0  0  0
  -10.7726    8.4450   -2.1861 H   0  0  0  0  0  0  0  0  0  0  0  0
  -11.2879    6.7242   -2.1861 H   0  0  0  0  0  0  0  0  0  0  0  0
   -3.6930    9.1850   -2.2594 H   0  0  0  0  0  0  0  0  0  0  0  0
   -4.8049   10.0343   -0.2891 H   0  0  0  0  0  0  0  0  0  0  0  0
   -4.4646    8.5553    0.6347 H   0  0  0  0  0  0  0  0  0  0  0  0
   -3.0975   11.0468    0.9252 H   0  0  0  0  0  0  0  0  0  0  0  0
   -2.5060    9.5149    1.5637 H   0  0  0  0  0  0  0  0  0  0  0  0
   -2.3270   12.1069   -0.7547 H   0  0  0  0  0  0  0  0  0  0  0  0
   -1.2031   11.4701   -2.0029 H   0  0  0  0  0  0  0  0  0  0  0  0
   -2.9262   10.9626   -2.0029 H   0  0  0  0  0  0  0  0  0  0  0  0
   -0.2065    9.3050    0.8280 H   0  0  0  0  0  0  0  0  0  0  0  0
   -0.8208   11.7505    1.3632 H   0  0  0  0  0  0  0  0  0  0  0  0
    0.9036   11.1361    1.5580 H   0  0  0  0  0  0  0  0  0  0  0  0
    0.6321   13.5283    0.4895 H   0  0  0  0  0  0  0  0  0  0  0  0
    0.3915   11.0235   -2.6668 H   0  0  0  0  0  0  0  0  0  0  0  0
    3.3566   10.9199   -1.8342 H   0  0  0  0  0  0  0  0  0  0  0  0
    2.5717   10.0046   -3.1969 H   0  0  0  0  0  0  0  0  0  0  0  0
    3.8534   11.9638   -3.9994 H   0  0  0  0  0  0  0  0  0  0  0  0
    2.0854   12.0825   -4.3538 H   0  0  0  0  0  0  0  0  0  0  0  0
    2.8628   14.2208   -3.5928 H   0  0  0  0  0  0  0  0  0  0  0  0
    3.4950   13.6880   -1.0270 H   0  0  0  0  0  0  0  0  0  0  0  0
   -0.6360   14.0713   -2.5885 H   0  0  0  0  0  0  0  0  0  0  0  0
    0.5543   14.7499   -3.7501 H   0  0  0  0  0  0  0  0  0  0  0  0
    0.2032   12.9883   -3.7501 H   0  0  0  0  0  0  0  0  0  0  0  0
    1.5433   14.7512   -0.2046 H   0  0  0  0  0  0  0  0  0  0  0  0
    2.5116   15.4756   -1.5329 H   0  0  0  0  0  0  0  0  0  0  0  0
    0.7228   15.6395   -1.5329 H   0  0  0  0  0  0  0  0  0  0  0  0
    1.9449    9.4030    0.8505 H   0  0  0  0  0  0  0  0  0  0  0  0
    2.3677    8.2973   -0.5006 H   0  0  0  0  0  0  0  0  0  0  0  0
    2.9738    9.9883   -0.5006 H   0  0  0  0  0  0  0  0  0  0  0  0
    1.0199    8.6699   -2.8612 H   0  0  0  0  0  0  0  0  0  0  0  0
    0.6454    7.6864   -1.3358 H   0  0  0  0  0  0  0  0  0  0  0  0
   -1.2929    9.2960   -3.0201 H   0  0  0  0  0  0  0  0  0  0  0  0
   -1.2245    7.5060   -2.7782 H   0  0  0  0  0  0  0  0  0  0  0  0
   -1.7115    7.7261    0.9144 H   0  0  0  0  0  0  0  0  0  0  0  0
   -2.3423    6.5908   -0.3265 H   0  0  0  0  0  0  0  0  0  0  0  0
   -0.6047    7.0464   -0.3265 H   0  0  0  0  0  0  0  0  0  0  0  0
  1  2  1  0
  2  3  1  0
  3  4  1  0
  4  5  1  0
  5  6  1  0
  6  7  1  0
  7  8  1  0
  7  9  1  0
  2 10  1  0
 10 11  1  0
 11 12  1  0
 12 13  1  0
 13 14  1  6
 13 15  1  0
 15 16  1  0
 16 17  1  0
 17 18  2  0
 18 19  1  0
 19 20  1  0
 20 21  1  0
 21 22  1  0
 22 23  1  0
 22 24  1  0
 24 25  1  0
 24 26  1  0
 19 27  1  0
 27 28  1  1
 27 29  1  0
 29 30  1  0
 30 31  1  0
 31 32  1  1
  7  5  1  0
 31 10  1  0
 31 13  1  0
 27 15  1  0
 24 18  1  0
  1 33  1  0
  1 34  1  0
  1 35  1  0
  2 36  1  1
  3 37  1  0
  3 38  1  0
  4 39  1  0
  4 40  1  0
  5 41  1  1
  8 42  1  0
  8 43  1  0
  8 44  1  0
  9 45  1  0
  9 46  1  0
  9 47  1  0
 10 48  1  6
 11 49  1  0
 11 50  1  0
 12 51  1  0
 12 52  1  0
 14 53  1  0
 14 54  1  0
 14 55  1  0
 15 56  1  1
 16 57  1  0
 16 58  1  0
 17 59  1  0
 19 60  1  6
 20 61  1  0
 20 62  1  0
 21 63  1  0
 21 64  1  0
 22 65  1  6
 23 66  1  0
 25 67  1  0
 25 68  1  0
 25 69  1  0
 26 70  1  0
 26 71  1  0
 26 72  1  0
 28 73  1  0
 28 74  1  0
 28 75  1  0
 29 76  1  0
 29 77  1  0
 30 78  1  0
 30 79  1  0
 32 80  1  0
 32 81  1  0
 32 82  1  0
M  END
>  <meeko>  (6) 
{"is_sidechain": [false], "intermolecular_energy": 2.731, "internal_energy": -0.839}

$$$$
EPH_relaxed_0001_pdb2pqr_Repair_264_r2_0001_out
     RDKit          3D

 82 86  0  0  0  0  0  0  0  0999 V2000
   -0.2510   15.4130   -6.9240 C   0  0  0  0  0  0  0  0  0  0  0  0
    1.2020   15.1100   -6.5490 C   0  0  2  0  0  0  0  0  0  0  0  0
    2.1370   15.1400   -7.7750 C   0  0  0  0  0  0  0  0  0  0  0  0
    2.0600   16.4430   -8.5760 C   0  0  0  0  0  0  0  0  0  0  0  0
    1.6190   16.2000   -9.9880 C   0  0  2  0  0  0  0  0  0  0  0  0
    1.0670   14.8990  -10.2270 O   0  0  0  0  0  0  0  0  0  0  0  0
    2.2910   15.2040  -10.9140 C   0  0  0  0  0  0  0  0  0  0  0  0
    3.4610   14.3860  -10.4640 C   0  0  0  0  0  0  0  0  0  0  0  0
    2.1260   15.3770  -12.3920 C   0  0  0  0  0  0  0  0  0  0  0  0
    1.2890   13.7530   -5.8610 C   0  0  1  0  0  0  0  0  0  0  0  0
    2.6870   13.0960   -6.0090 C   0  0  0  0  0  0  0  0  0  0  0  0
    2.9600   12.3230   -4.6930 C   0  0  0  0  0  0  0  0  0  0  0  0
    1.5920   12.2830   -3.9740 C   0  0  1  0  0  0  0  0  0  0  0  0
    0.8170   11.1080   -4.6500 C   0  0  0  0  0  0  0  0  0  0  0  0
    1.6330   12.1260   -2.4190 C   0  0  2  0  0  0  0  0  0  0  0  0
    2.2640   10.8180   -1.9110 C   0  0  0  0  0  0  0  0  0  0  0  0
    1.3130    9.6840   -1.7180 C   0  0  0  0  0  0  0  0  0  0  0  0
   -0.0280    9.7870   -1.6690 C   0  0  0  0  0  0  0  0  0  0  0  0
   -0.7140   11.1590   -1.7160 C   0  0  1  0  0  0  0  0  0  0  0  0
   -1.8030   11.2300   -0.6130 C   0  0  0  0  0  0  0  0  0  0  0  0
   -2.7980   10.0770   -0.6970 C   0  0  0  0  0  0  0  0  0  0  0  0
   -2.0840    8.7320   -0.5890 C   0  0  2  0  0  0  0  0  0  0  0  0
   -1.5350    8.6060    0.7270 O   0  0  0  0  0  0  0  0  0  0  0  0
   -0.9570    8.5490   -1.6440 C   0  0  0  0  0  0  0  0  0  0  0  0
   -1.5840    8.3830   -3.0510 C   0  0  0  0  0  0  0  0  0  0  0  0
   -0.2260    7.2150   -1.3350 C   0  0  0  0  0  0  0  0  0  0  0  0
    0.2530   12.4190   -1.7010 C   0  0  1  0  0  0  0  0  0  0  0  0
    0.5910   12.8130   -0.2300 C   0  0  0  0  0  0  0  0  0  0  0  0
   -0.4980   13.6520   -2.3290 C   0  0  0  0  0  0  0  0  0  0  0  0
   -0.4020   13.8190   -3.8580 C   0  0  0  0  0  0  0  0  0  0  0  0
    1.0510   13.7150   -4.3300 C   0  0  2  0  0  0  0  0  0  0  0  0
    1.8500   14.8970   -3.6830 C   0  0  0  0  0  0  0  0  0  0  0  0
   -0.8477   15.5374   -6.0083 H   0  0  0  0  0  0  0  0  0  0  0  0
   -0.2913   16.3389   -7.5166 H   0  0  0  0  0  0  0  0  0  0  0  0
   -0.6580   14.5804   -7.5166 H   0  0  0  0  0  0  0  0  0  0  0  0
    1.5369   15.8988   -5.8593 H   0  0  0  0  0  0  0  0  0  0  0  0
    3.1717   15.0075   -7.4260 H   0  0  0  0  0  0  0  0  0  0  0  0
    1.8136   14.3305   -8.4459 H   0  0  0  0  0  0  0  0  0  0  0  0
    1.3414   17.1188   -8.0893 H   0  0  0  0  0  0  0  0  0  0  0  0
    3.0650   16.8894   -8.6024 H   0  0  0  0  0  0  0  0  0  0  0  0
    1.3528   17.2600  -10.1125 H   0  0  0  0  0  0  0  0  0  0  0  0
    3.4921   14.3643   -9.3647 H   0  0  0  0  0  0  0  0  0  0  0  0
    3.3607   13.3602  -10.8483 H   0  0  0  0  0  0  0  0  0  0  0  0
    4.3900   14.8324  -10.8483 H   0  0  0  0  0  0  0  0  0  0  0  0
    1.3790   16.1602  -12.5884 H   0  0  0  0  0  0  0  0  0  0  0  0
    3.0888   15.6688  -12.8368 H   0  0  0  0  0  0  0  0  0  0  0  0
    1.7890   14.4291  -12.8368 H   0  0  0  0  0  0  0  0  0  0  0  0
    0.4735   13.2301   -6.3820 H   0  0  0  0  0  0  0  0  0  0  0  0
    2.6912   12.4029   -6.8632 H   0  0  0  0  0  0  0  0  0  0  0  0
    3.4627   13.8548   -6.1894 H   0  0  0  0  0  0  0  0  0  0  0  0
    3.3160   11.3045   -4.9075 H   0  0  0  0  0  0  0  0  0  0  0  0
    3.7390   12.8018   -4.0816 H   0  0  0  0  0  0  0  0  0  0  0  0
    0.3878   10.4573   -3.8739 H   0  0  0  0  0  0  0  0  0  0  0  0
    0.0089   11.5140   -5.2762 H   0  0  0  0  0  0  0  0  0  0  0  0
    1.5084   10.5250   -5.2762 H   0  0  0  0  0  0  0  0  0  0  0  0
    2.3251   12.9270   -2.1199 H   0  0  0  0  0  0  0  0  0  0  0  0
    3.0255   10.5027   -2.6395 H   0  0  0  0  0  0  0  0  0  0  0  0
    2.6735   11.0444   -0.9155 H   0  0  0  0  0  0  0  0  0  0  0  0
    1.7449    8.6785   -1.6063 H   0  0  0  0  0  0  0  0  0  0  0  0
   -1.1820   11.2317   -2.7088 H   0  0  0  0  0  0  0  0  0  0  0  0
   -1.3111   11.2000    0.3704 H   0  0  0  0  0  0  0  0  0  0  0  0
   -2.3635   12.1654   -0.7575 H   0  0  0  0  0  0  0  0  0  0  0  0
   -3.5233   10.1667    0.1251 H   0  0  0  0  0  0  0  0  0  0  0  0
   -3.3108   10.1255   -1.6690 H   0  0  0  0  0  0  0  0  0  0  0  0
   -2.8288    7.9470   -0.7865 H   0  0  0  0  0  0  0  0  0  0  0  0
   -0.9250    7.8500    0.7200 H   0  0  0  0  0  0  0  0  0  0  0  0
   -2.6429    8.1027   -2.9498 H   0  0  0  0  0  0  0  0  0  0  0  0
   -1.5070    9.3325   -3.6011 H   0  0  0  0  0  0  0  0  0  0  0  0
   -1.0473    7.5960   -3.6011 H   0  0  0  0  0  0  0  0  0  0  0  0
   -0.1525    7.0809   -0.2457 H   0  0  0  0  0  0  0  0  0  0  0  0
   -0.7914    6.3777   -1.7702 H   0  0  0  0  0  0  0  0  0  0  0  0
    0.7839    7.2410   -1.7702 H   0  0  0  0  0  0  0  0  0  0  0  0
    0.0337   12.1633    0.4609 H   0  0  0  0  0  0  0  0  0  0  0  0
    1.6705   12.6920   -0.0568 H   0  0  0  0  0  0  0  0  0  0  0  0
    0.3072   13.8615   -0.0568 H   0  0  0  0  0  0  0  0  0  0  0  0
   -1.5632   13.5597   -2.0706 H   0  0  0  0  0  0  0  0  0  0  0  0
    0.0028   14.5376   -1.9107 H   0  0  0  0  0  0  0  0  0  0  0  0
   -0.9957   13.0308   -4.3441 H   0  0  0  0  0  0  0  0  0  0  0  0
   -0.7882   14.8131   -4.1274 H   0  0  0  0  0  0  0  0  0  0  0  0
    1.7971   14.8188   -2.5871 H   0  0  0  0  0  0  0  0  0  0  0  0
    2.9010   14.8481   -4.0038 H   0  0  0  0  0  0  0  0  0  0  0  0
    1.4129   15.8541   -4.0038 H   0  0  0  0  0  0  0  0  0  0  0  0
  1  2  1  0
  2  3  1  0
  3  4  1  0
  4  5  1  0
  5  6  1  0
  6  7  1  0
  7  8  1  0
  7  9  1  0
  2 10  1  0
 10 11  1  0
 11 12  1  0
 12 13  1  0
 13 14  1  6
 13 15  1  0
 15 16  1  0
 16 17  1  0
 17 18  2  0
 18 19  1  0
 19 20  1  0
 20 21  1  0
 21 22  1  0
 22 23  1  0
 22 24  1  0
 24 25  1  0
 24 26  1  0
 19 27  1  0
 27 28  1  1
 27 29  1  0
 29 30  1  0
 30 31  1  0
 31 32  1  1
  7  5  1  0
 31 10  1  0
 31 13  1  0
 27 15  1  0
 24 18  1  0
  1 33  1  0
  1 34  1  0
  1 35  1  0
  2 36  1  1
  3 37  1  0
  3 38  1  0
  4 39  1  0
  4 40  1  0
  5 41  1  6
  8 42  1  0
  8 43  1  0
  8 44  1  0
  9 45  1  0
  9 46  1  0
  9 47  1  0
 10 48  1  6
 11 49  1  0
 11 50  1  0
 12 51  1  0
 12 52  1  0
 14 53  1  0
 14 54  1  0
 14 55  1  0
 15 56  1  1
 16 57  1  0
 16 58  1  0
 17 59  1  0
 19 60  1  6
 20 61  1  0
 20 62  1  0
 21 63  1  0
 21 64  1  0
 22 65  1  6
 23 66  1  0
 25 67  1  0
 25 68  1  0
 25 69  1  0
 26 70  1  0
 26 71  1  0
 26 72  1  0
 28 73  1  0
 28 74  1  0
 28 75  1  0
 29 76  1  0
 29 77  1  0
 30 78  1  0
 30 79  1  0
 32 80  1  0
 32 81  1  0
 32 82  1  0
M  END
>  <meeko>  (7) 
{"is_sidechain": [false], "intermolecular_energy": 2.731, "internal_energy": -0.839}

$$$$
EPH_relaxed_0001_pdb2pqr_Repair_264_r2_0001_out
     RDKit          3D

 82 86  0  0  0  0  0  0  0  0999 V2000
    0.4560    9.0770   -2.7100 C   0  0  0  0  0  0  0  0  0  0  0  0
    1.3360   10.0920   -3.4450 C   0  0  2  0  0  0  0  0  0  0  0  0
    2.8280    9.9310   -3.0910 C   0  0  0  0  0  0  0  0  0  0  0  0
    3.7690   10.6910   -4.0300 C   0  0  0  0  0  0  0  0  0  0  0  0
    5.1420   10.8300   -3.4450 C   0  0  2  0  0  0  0  0  0  0  0  0
    5.8130   12.0520   -3.7780 O   0  0  0  0  0  0  0  0  0  0  0  0
    6.4090   10.8440   -4.2800 C   0  0  0  0  0  0  0  0  0  0  0  0
    6.3630   10.7170   -5.7700 C   0  0  0  0  0  0  0  0  0  0  0  0
    7.7050   10.4910   -3.6190 C   0  0  0  0  0  0  0  0  0  0  0  0
    0.8740   11.5080   -3.1230 C   0  0  1  0  0  0  0  0  0  0  0  0
   -0.6570   11.5990   -2.8880 C   0  0  0  0  0  0  0  0  0  0  0  0
   -0.8790   12.6740   -1.7930 C   0  0  0  0  0  0  0  0  0  0  0  0
    0.4840   13.3960   -1.6740 C   0  0  1  0  0  0  0  0  0  0  0  0
    0.5010   14.4190   -2.8530 C   0  0  0  0  0  0  0  0  0  0  0  0
    0.7810   14.0890   -0.3040 C   0  0  2  0  0  0  0  0  0  0  0  0
   -0.1830   15.2280    0.0730 C   0  0  0  0  0  0  0  0  0  0  0  0
    0.2280   16.5880   -0.3850 C   0  0  0  0  0  0  0  0  0  0  0  0
    1.4550   16.9300   -0.8200 C   0  0  0  0  0  0  0  0  0  0  0  0
    2.6100   15.9210   -0.7900 C   0  0  1  0  0  0  0  0  0  0  0  0
    3.8730   16.5980   -0.1960 C   0  0  0  0  0  0  0  0  0  0  0  0
    4.2430   17.8870   -0.9230 C   0  0  0  0  0  0  0  0  0  0  0  0
    3.0900   18.8870   -0.8800 C   0  0  2  0  0  0  0  0  0  0  0  0
    2.8960   19.3090    0.4730 O   0  0  0  0  0  0  0  0  0  0  0  0
    1.7610   18.3130   -1.4450 C   0  0  0  0  0  0  0  0  0  0  0  0
    1.8800   18.1380   -2.9790 C   0  0  0  0  0  0  0  0  0  0  0  0
    0.6480   19.3710   -1.2140 C   0  0  0  0  0  0  0  0  0  0  0  0
    2.2910   14.5210   -0.1100 C   0  0  1  0  0  0  0  0  0  0  0  0
    2.5350   14.6080    1.4280 C   0  0  0  0  0  0  0  0  0  0  0  0
    3.2970   13.4410   -0.6590 C   0  0  0  0  0  0  0  0  0  0  0  0
    2.8910   12.7060   -1.9500 C   0  0  0  0  0  0  0  0  0  0  0  0
    1.4580   12.1750   -1.8520 C   0  0  2  0  0  0  0  0  0  0  0  0
    1.4150   11.1270   -0.6880 C   0  0  0  0  0  0  0  0  0  0  0  0
    0.5714    9.2101   -1.6242 H   0  0  0  0  0  0  0  0  0  0  0  0
   -0.5964    9.2342   -2.9889 H   0  0  0  0  0  0  0  0  0  0  0  0
    0.7608    8.0576   -2.9889 H   0  0  0  0  0  0  0  0  0  0  0  0
    1.2308    9.9023   -4.5234 H   0  0  0  0  0  0  0  0  0  0  0  0
    2.9841   10.3026   -2.0675 H   0  0  0  0  0  0  0  0  0  0  0  0
    3.0685    8.8623   -3.1908 H   0  0  0  0  0  0  0  0  0  0  0  0
    3.8407   10.1445   -4.9819 H   0  0  0  0  0  0  0  0  0  0  0  0
    3.3583   11.6996   -4.1847 H   0  0  0  0  0  0  0  0  0  0  0  0
    4.8494   10.2486   -2.5583 H   0  0  0  0  0  0  0  0  0  0  0  0
    6.0000    9.7148   -6.0415 H   0  0  0  0  0  0  0  0  0  0  0  0
    5.6831   11.4773   -6.1820 H   0  0  0  0  0  0  0  0  0  0  0  0
    7.3721   10.8656   -6.1820 H   0  0  0  0  0  0  0  0  0  0  0  0
    7.5806   10.5249   -2.5266 H   0  0  0  0  0  0  0  0  0  0  0  0
    8.0073    9.4778   -3.9224 H   0  0  0  0  0  0  0  0  0  0  0  0
    8.4794   11.2109   -3.9224 H   0  0  0  0  0  0  0  0  0  0  0  0
    1.2365   12.0283   -4.0218 H   0  0  0  0  0  0  0  0  0  0  0  0
   -1.1659   11.8944   -3.8174 H   0  0  0  0  0  0  0  0  0  0  0  0
   -1.0669   10.6271   -2.5758 H   0  0  0  0  0  0  0  0  0  0  0  0
   -1.6671   13.3793   -2.0952 H   0  0  0  0  0  0  0  0  0  0  0  0
   -1.2042   12.2360   -0.8378 H   0  0  0  0  0  0  0  0  0  0  0  0
    0.5180   15.4425   -2.4502 H   0  0  0  0  0  0  0  0  0  0  0  0
    1.3965   14.2528   -3.4698 H   0  0  0  0  0  0  0  0  0  0  0  0
   -0.3995   14.2826   -3.4698 H   0  0  0  0  0  0  0  0  0  0  0  0
    0.5856   13.2813    0.4167 H   0  0  0  0  0  0  0  0  0  0  0  0
   -1.1649   15.0027   -0.3688 H   0  0  0  0  0  0  0  0  0  0  0  0
   -0.1935   15.2670    1.1723 H   0  0  0  0  0  0  0  0  0  0  0  0
   -0.5371   17.3781   -0.3653 H   0  0  0  0  0  0  0  0  0  0  0  0
    2.7947   15.6391   -1.8371 H   0  0  0  0  0  0  0  0  0  0  0  0
    3.6830   16.8320    0.8619 H   0  0  0  0  0  0  0  0  0  0  0  0
    4.7128   15.8970   -0.3113 H   0  0  0  0  0  0  0  0  0  0  0  0
    5.1247   18.3329   -0.4394 H   0  0  0  0  0  0  0  0  0  0  0  0
    4.4614   17.6474   -1.9741 H   0  0  0  0  0  0  0  0  0  0  0  0
    3.3641   19.7353   -1.5245 H   0  0  0  0  0  0  0  0  0  0  0  0
    3.7730   19.4680    0.8610 H   0  0  0  0  0  0  0  0  0  0  0  0
    2.4859   17.2470   -3.2005 H   0  0  0  0  0  0  0  0  0  0  0  0
    0.8766   18.0163   -3.4131 H   0  0  0  0  0  0  0  0  0  0  0  0
    2.3620   19.0264   -3.4131 H   0  0  0  0  0  0  0  0  0  0  0  0
    0.4970   19.5145   -0.1339 H   0  0  0  0  0  0  0  0  0  0  0  0
    0.9481   20.3249   -1.6722 H   0  0  0  0  0  0  0  0  0  0  0  0
   -0.2895   19.0230   -1.6722 H   0  0  0  0  0  0  0  0  0  0  0  0
    1.6291   14.2850    1.9618 H   0  0  0  0  0  0  0  0  0  0  0  0
    3.3756   13.9542    1.7034 H   0  0  0  0  0  0  0  0  0  0  0  0
    2.7724   15.6462    1.7034 H   0  0  0  0  0  0  0  0  0  0  0  0
    4.2552   13.9460   -0.8510 H   0  0  0  0  0  0  0  0  0  0  0  0
    3.3336   12.6616    0.1163 H   0  0  0  0  0  0  0  0  0  0  0  0
    2.9588   13.4038   -2.7976 H   0  0  0  0  0  0  0  0  0  0  0  0
    3.5711   11.8540   -2.0967 H   0  0  0  0  0  0  0  0  0  0  0  0
    1.4365   11.6516    0.2786 H   0  0  0  0  0  0  0  0  0  0  0  0
    0.4918   10.5337   -0.7627 H   0  0  0  0  0  0  0  0  0  0  0  0
    2.2865   10.4600   -0.7627 H   0  0  0  0  0  0  0  0  0  0  0  0
  1  2  1  0
  2  3  1  0
  3  4  1  0
  4  5  1  0
  5  6  1  0
  6  7  1  0
  7  8  1  0
  7  9  1  0
  2 10  1  0
 10 11  1  0
 11 12  1  0
 12 13  1  0
 13 14  1  6
 13 15  1  0
 15 16  1  0
 16 17  1  0
 17 18  2  0
 18 19  1  0
 19 20  1  0
 20 21  1  0
 21 22  1  0
 22 23  1  0
 22 24  1  0
 24 25  1  0
 24 26  1  0
 19 27  1  0
 27 28  1  1
 27 29  1  0
 29 30  1  0
 30 31  1  0
 31 32  1  1
  7  5  1  0
 31 10  1  0
 31 13  1  0
 27 15  1  0
 24 18  1  0
  1 33  1  0
  1 34  1  0
  1 35  1  0
  2 36  1  6
  3 37  1  0
  3 38  1  0
  4 39  1  0
  4 40  1  0
  5 41  1  1
  8 42  1  0
  8 43  1  0
  8 44  1  0
  9 45  1  0
  9 46  1  0
  9 47  1  0
 10 48  1  6
 11 49  1  0
 11 50  1  0
 12 51  1  0
 12 52  1  0
 14 53  1  0
 14 54  1  0
 14 55  1  0
 15 56  1  1
 16 57  1  0
 16 58  1  0
 17 59  1  0
 19 60  1  6
 20 61  1  0
 20 62  1  0
 21 63  1  0
 21 64  1  0
 22 65  1  6
 23 66  1  0
 25 67  1  0
 25 68  1  0
 25 69  1  0
 26 70  1  0
 26 71  1  0
 26 72  1  0
 28 73  1  0
 28 74  1  0
 28 75  1  0
 29 76  1  0
 29 77  1  0
 30 78  1  0
 30 79  1  0
 32 80  1  0
 32 81  1  0
 32 82  1  0
M  END
>  <meeko>  (8) 
{"is_sidechain": [false], "intermolecular_energy": 2.731, "internal_energy": -0.839}

$$$$
EPH_relaxed_0001_pdb2pqr_Repair_264_r2_0001_out
     RDKit          3D

 82 86  0  0  0  0  0  0  0  0999 V2000
    1.1450   14.7120   -2.6560 C   0  0  0  0  0  0  0  0  0  0  0  0
    1.3150   14.0310   -4.0170 C   0  0  2  0  0  0  0  0  0  0  0  0
    0.5700   14.7820   -5.1390 C   0  0  0  0  0  0  0  0  0  0  0  0
    1.1760   14.5700   -6.5290 C   0  0  0  0  0  0  0  0  0  0  0  0
    0.8990   15.7290   -7.4380 C   0  0  2  0  0  0  0  0  0  0  0  0
    0.3520   15.3730   -8.7140 O   0  0  0  0  0  0  0  0  0  0  0  0
    1.6550   15.9790   -8.7300 C   0  0  0  0  0  0  0  0  0  0  0  0
    2.7470   15.0620   -9.1840 C   0  0  0  0  0  0  0  0  0  0  0  0
    1.6680   17.3650   -9.2950 C   0  0  0  0  0  0  0  0  0  0  0  0
    0.8260   12.5900   -3.9420 C   0  0  1  0  0  0  0  0  0  0  0  0
    1.9410   11.5630   -4.2730 C   0  0  0  0  0  0  0  0  0  0  0  0
    1.6890   10.3230   -3.3770 C   0  0  0  0  0  0  0  0  0  0  0  0
    0.2650   10.5360   -2.8090 C   0  0  1  0  0  0  0  0  0  0  0  0
   -0.6940   10.0660   -3.9470 C   0  0  0  0  0  0  0  0  0  0  0  0
   -0.0520    9.8230   -1.4550 C   0  0  2  0  0  0  0  0  0  0  0  0
    0.0150    8.2860   -1.4950 C   0  0  0  0  0  0  0  0  0  0  0  0
   -1.2670    7.6000   -1.8340 C   0  0  0  0  0  0  0  0  0  0  0  0
   -2.4870    8.1690   -1.8170 C   0  0  0  0  0  0  0  0  0  0  0  0
   -2.6760    9.6130   -1.3340 C   0  0  1  0  0  0  0  0  0  0  0  0
   -3.8790    9.6790   -0.3570 C   0  0  0  0  0  0  0  0  0  0  0  0
   -5.1530    9.0930   -0.9580 C   0  0  0  0  0  0  0  0  0  0  0  0
   -4.9420    7.6390   -1.3730 C   0  0  2  0  0  0  0  0  0  0  0  0
   -4.7330    6.8510   -0.1970 O   0  0  0  0  0  0  0  0  0  0  0  0
   -3.7490    7.4480   -2.3500 C   0  0  0  0  0  0  0  0  0  0  0  0
   -4.1060    8.0490   -3.7310 C   0  0  0  0  0  0  0  0  0  0  0  0
   -3.5580    5.9240   -2.5760 C   0  0  0  0  0  0  0  0  0  0  0  0
   -1.3790   10.3250   -0.7530 C   0  0  1  0  0  0  0  0  0  0  0  0
   -1.2290   10.0030    0.7650 C   0  0  0  0  0  0  0  0  0  0  0  0
   -1.5580   11.8860   -0.8600 C   0  0  0  0  0  0  0  0  0  0  0  0
   -1.1150   12.5470   -2.1790 C   0  0  0  0  0  0  0  0  0  0  0  0
    0.2920   12.0900   -2.5760 C   0  0  2  0  0  0  0  0  0  0  0  0
    1.2830   12.5690   -1.4610 C   0  0  0  0  0  0  0  0  0  0  0  0
    1.3275   13.9808   -1.8548 H   0  0  0  0  0  0  0  0  0  0  0  0
    1.8641   15.5397   -2.5678 H   0  0  0  0  0  0  0  0  0  0  0  0
    0.1213   15.1047   -2.5678 H   0  0  0  0  0  0  0  0  0  0  0  0
    2.3869   14.0475   -4.2634 H   0  0  0  0  0  0  0  0  0  0  0  0
   -0.4728   14.4325   -5.1578 H   0  0  0  0  0  0  0  0  0  0  0  0
    0.6487   15.8559   -4.9143 H   0  0  0  0  0  0  0  0  0  0  0  0
    2.2646   14.4483   -6.4283 H   0  0  0  0  0  0  0  0  0  0  0  0
    0.7176   13.6722   -6.9692 H   0  0  0  0  0  0  0  0  0  0  0  0
    0.6710   16.3774   -6.5792 H   0  0  0  0  0  0  0  0  0  0  0  0
    3.2555   14.6350   -8.3070 H   0  0  0  0  0  0  0  0  0  0  0  0
    2.3165   14.2507   -9.7893 H   0  0  0  0  0  0  0  0  0  0  0  0
    3.4717   15.6263   -9.7893 H   0  0  0  0  0  0  0  0  0  0  0  0
    1.6749   18.0960   -8.4730 H   0  0  0  0  0  0  0  0  0  0  0  0
    2.5675   17.5004   -9.9136 H   0  0  0  0  0  0  0  0  0  0  0  0
    0.7712   17.5172   -9.9136 H   0  0  0  0  0  0  0  0  0  0  0  0
    0.0053   12.6358   -4.6730 H   0  0  0  0  0  0  0  0  0  0  0  0
    1.8914   11.2793   -5.3346 H   0  0  0  0  0  0  0  0  0  0  0  0
    2.9378   11.9889   -4.0858 H   0  0  0  0  0  0  0  0  0  0  0  0
    1.7360    9.3984   -3.9711 H   0  0  0  0  0  0  0  0  0  0  0  0
    2.4440   10.2207   -2.5836 H   0  0  0  0  0  0  0  0  0  0  0  0
   -1.5984    9.6228   -3.5047 H   0  0  0  0  0  0  0  0  0  0  0  0
   -0.9750   10.9285   -4.5692 H   0  0  0  0  0  0  0  0  0  0  0  0
   -0.1845    9.3155   -4.5692 H   0  0  0  0  0  0  0  0  0  0  0  0
    0.7867   10.1423   -0.8189 H   0  0  0  0  0  0  0  0  0  0  0  0
    0.7639    7.9980   -2.2475 H   0  0  0  0  0  0  0  0  0  0  0  0
    0.2704    7.9660   -0.4740 H   0  0  0  0  0  0  0  0  0  0  0  0
   -1.2099    6.5399   -2.1220 H   0  0  0  0  0  0  0  0  0  0  0  0
   -2.8921   10.2085   -2.2333 H   0  0  0  0  0  0  0  0  0  0  0  0
   -3.6260    9.1145    0.5526 H   0  0  0  0  0  0  0  0  0  0  0  0
   -4.0713   10.7391   -0.1349 H   0  0  0  0  0  0  0  0  0  0  0  0
   -5.9586    9.1407   -0.2106 H   0  0  0  0  0  0  0  0  0  0  0  0
   -5.4212    9.6774   -1.8505 H   0  0  0  0  0  0  0  0  0  0  0  0
   -5.8437    7.3150   -1.9134 H   0  0  0  0  0  0  0  0  0  0  0  0
   -5.2070    7.2810    0.5340 H   0  0  0  0  0  0  0  0  0  0  0  0
   -4.6631    8.9869   -3.5898 H   0  0  0  0  0  0  0  0  0  0  0  0
   -3.1821    8.2523   -4.2923 H   0  0  0  0  0  0  0  0  0  0  0  0
   -4.7265    7.3349   -4.2923 H   0  0  0  0  0  0  0  0  0  0  0  0
   -3.4941    5.4143   -1.6033 H   0  0  0  0  0  0  0  0  0  0  0  0
   -4.4134    5.5273   -3.1424 H   0  0  0  0  0  0  0  0  0  0  0  0
   -2.6311    5.7506   -3.1424 H   0  0  0  0  0  0  0  0  0  0  0  0
   -1.6201   10.8426    1.3583 H   0  0  0  0  0  0  0  0  0  0  0  0
   -1.7947    9.0903    1.0039 H   0  0  0  0  0  0  0  0  0  0  0  0
   -0.1664    9.8488    1.0039 H   0  0  0  0  0  0  0  0  0  0  0  0
   -2.6258   12.1090   -0.7182 H   0  0  0  0  0  0  0  0  0  0  0  0
   -0.8933   12.3054   -0.0904 H   0  0  0  0  0  0  0  0  0  0  0  0
   -1.8214   12.2698   -2.9753 H   0  0  0  0  0  0  0  0  0  0  0  0
   -1.1025   13.6378   -2.0377 H   0  0  0  0  0  0  0  0  0  0  0  0
    0.8504   12.3599   -0.4715 H   0  0  0  0  0  0  0  0  0  0  0  0
    2.2380   12.0331   -1.5643 H   0  0  0  0  0  0  0  0  0  0  0  0
    1.4563   13.6503   -1.5643 H   0  0  0  0  0  0  0  0  0  0  0  0
  1  2  1  0
  2  3  1  0
  3  4  1  0
  4  5  1  0
  5  6  1  0
  6  7  1  0
  7  8  1  0
  7  9  1  0
  2 10  1  0
 10 11  1  0
 11 12  1  0
 12 13  1  0
 13 14  1  6
 13 15  1  0
 15 16  1  0
 16 17  1  0
 17 18  2  0
 18 19  1  0
 19 20  1  0
 20 21  1  0
 21 22  1  0
 22 23  1  0
 22 24  1  0
 24 25  1  0
 24 26  1  0
 19 27  1  0
 27 28  1  1
 27 29  1  0
 29 30  1  0
 30 31  1  0
 31 32  1  1
  7  5  1  0
 31 10  1  0
 31 13  1  0
 27 15  1  0
 24 18  1  0
  1 33  1  0
  1 34  1  0
  1 35  1  0
  2 36  1  6
  3 37  1  0
  3 38  1  0
  4 39  1  0
  4 40  1  0
  5 41  1  1
  8 42  1  0
  8 43  1  0
  8 44  1  0
  9 45  1  0
  9 46  1  0
  9 47  1  0
 10 48  1  6
 11 49  1  0
 11 50  1  0
 12 51  1  0
 12 52  1  0
 14 53  1  0
 14 54  1  0
 14 55  1  0
 15 56  1  1
 16 57  1  0
 16 58  1  0
 17 59  1  0
 19 60  1  6
 20 61  1  0
 20 62  1  0
 21 63  1  0
 21 64  1  0
 22 65  1  6
 23 66  1  0
 25 67  1  0
 25 68  1  0
 25 69  1  0
 26 70  1  0
 26 71  1  0
 26 72  1  0
 28 73  1  0
 28 74  1  0
 28 75  1  0
 29 76  1  0
 29 77  1  0
 30 78  1  0
 30 79  1  0
 32 80  1  0
 32 81  1  0
 32 82  1  0
M  END
>  <meeko>  (9) 
{"is_sidechain": [false], "intermolecular_energy": 2.731, "internal_energy": -0.839}

$$$$
EPH_relaxed_0001_pdb2pqr_Repair_264_r2_0001_out
     RDKit          3D

 82 86  0  0  0  0  0  0  0  0999 V2000
   -2.4790    7.8060   -0.0410 C   0  0  0  0  0  0  0  0  0  0  0  0
   -3.1100    9.2010   -0.0480 C   0  0  2  0  0  0  0  0  0  0  0  0
   -4.6010    9.1630   -0.4370 C   0  0  0  0  0  0  0  0  0  0  0  0
   -5.1920    7.7510   -0.4730 C   0  0  0  0  0  0  0  0  0  0  0  0
   -5.8770    7.4690   -1.7750 C   0  0  2  0  0  0  0  0  0  0  0  0
   -6.8260    8.4640   -2.1810 O   0  0  0  0  0  0  0  0  0  0  0  0
   -7.3580    7.1610   -1.8920 C   0  0  0  0  0  0  0  0  0  0  0  0
   -8.2440    7.1190   -0.6870 C   0  0  0  0  0  0  0  0  0  0  0  0
   -7.8430    6.4270   -3.1030 C   0  0  0  0  0  0  0  0  0  0  0  0
   -2.3450   10.1120   -1.0010 C   0  0  1  0  0  0  0  0  0  0  0  0
   -2.9960   11.5140   -1.1390 C   0  0  0  0  0  0  0  0  0  0  0  0
   -1.8390   12.5300   -1.3140 C   0  0  0  0  0  0  0  0  0  0  0  0
   -0.5950   11.6580   -1.6030 C   0  0  1  0  0  0  0  0  0  0  0  0
   -0.6910   11.3130   -3.1230 C   0  0  0  0  0  0  0  0  0  0  0  0
    0.7900   12.2860   -1.2400 C   0  0  2  0  0  0  0  0  0  0  0  0
    1.1490   13.5660   -2.0160 C   0  0  0  0  0  0  0  0  0  0  0  0
    1.8970   13.3510   -3.2900 C   0  0  0  0  0  0  0  0  0  0  0  0
    2.5130   12.2100   -3.6520 C   0  0  0  0  0  0  0  0  0  0  0  0
    2.5780   11.0120   -2.6960 C   0  0  1  0  0  0  0  0  0  0  0  0
    4.0240   10.4500   -2.6680 C   0  0  0  0  0  0  0  0  0  0  0  0
    4.5480   10.1140   -4.0610 C   0  0  0  0  0  0  0  0  0  0  0  0
    4.5210   11.3440   -4.9650 C   0  0  2  0  0  0  0  0  0  0  0  0
    5.4670   12.2980   -4.4730 O   0  0  0  0  0  0  0  0  0  0  0  0
    3.1170   12.0020   -5.0630 C   0  0  0  0  0  0  0  0  0  0  0  0
    2.1660   11.0830   -5.8680 C   0  0  0  0  0  0  0  0  0  0  0  0
    3.2590   13.3090   -5.8890 C   0  0  0  0  0  0  0  0  0  0  0  0
    1.9900   11.2550   -1.2400 C   0  0  1  0  0  0  0  0  0  0  0  0
    3.0920   11.8550   -0.3140 C   0  0  0  0  0  0  0  0  0  0  0  0
    1.5870    9.8690   -0.6100 C   0  0  0  0  0  0  0  0  0  0  0  0
    0.1650    9.3580   -0.9080 C   0  0  0  0  0  0  0  0  0  0  0  0
   -0.8770   10.4490   -0.6390 C   0  0  2  0  0  0  0  0  0  0  0  0
   -0.8190   10.8000    0.8870 C   0  0  0  0  0  0  0  0  0  0  0  0
   -2.3298    7.4762    0.9978 H   0  0  0  0  0  0  0  0  0  0  0  0
   -3.1452    7.0996   -0.5579 H   0  0  0  0  0  0  0  0  0  0  0  0
   -1.5086    7.8399   -0.5579 H   0  0  0  0  0  0  0  0  0  0  0  0
   -3.0475    9.5976    0.9761 H   0  0  0  0  0  0  0  0  0  0  0  0
   -5.1663    9.7575    0.2958 H   0  0  0  0  0  0  0  0  0  0  0  0
   -4.6777    9.5696   -1.4562 H   0  0  0  0  0  0  0  0  0  0  0  0
   -4.3808    7.0215   -0.3319 H   0  0  0  0  0  0  0  0  0  0  0  0
   -5.9386    7.6716    0.3310 H   0  0  0  0  0  0  0  0  0  0  0  0
   -4.9838    6.9552   -2.1599 H   0  0  0  0  0  0  0  0  0  0  0  0
   -7.6268    7.1483    0.2231 H   0  0  0  0  0  0  0  0  0  0  0  0
   -8.9208    7.9861   -0.6991 H   0  0  0  0  0  0  0  0  0  0  0  0
   -8.8357    6.1918   -0.6991 H   0  0  0  0  0  0  0  0  0  0  0  0
   -8.4244    5.5472   -2.7901 H   0  0  0  0  0  0  0  0  0  0  0  0
   -8.4799    7.0923   -3.7044 H   0  0  0  0  0  0  0  0  0  0  0  0
   -6.9812    6.1021   -3.7044 H   0  0  0  0  0  0  0  0  0  0  0  0
   -2.3761    9.4940   -1.9104 H   0  0  0  0  0  0  0  0  0  0  0  0
   -3.6581   11.5392   -2.0171 H   0  0  0  0  0  0  0  0  0  0  0  0
   -3.6031   11.7559   -0.2542 H   0  0  0  0  0  0  0  0  0  0  0  0
   -2.0418   13.2084   -2.1558 H   0  0  0  0  0  0  0  0  0  0  0  0
   -1.7053   13.1669   -0.4272 H   0  0  0  0  0  0  0  0  0  0  0  0
   -0.9842   10.2595   -3.2421 H   0  0  0  0  0  0  0  0  0  0  0  0
   -1.4435   11.9590   -3.5988 H   0  0  0  0  0  0  0  0  0  0  0  0
    0.2870   11.4775   -3.5988 H   0  0  0  0  0  0  0  0  0  0  0  0
    0.6400   12.6003   -0.1966 H   0  0  0  0  0  0  0  0  0  0  0  0
    0.2130   14.0917   -2.2560 H   0  0  0  0  0  0  0  0  0  0  0  0
    1.8215   14.1400   -1.3615 H   0  0  0  0  0  0  0  0  0  0  0  0
    1.9492   14.1962   -3.9921 H   0  0  0  0  0  0  0  0  0  0  0  0
    1.8918   10.2569   -3.1071 H   0  0  0  0  0  0  0  0  0  0  0  0
    4.6860   11.2022   -2.2142 H   0  0  0  0  0  0  0  0  0  0  0  0
    4.0090    9.5185   -2.0832 H   0  0  0  0  0  0  0  0  0  0  0  0
    5.5829    9.7505   -3.9784 H   0  0  0  0  0  0  0  0  0  0  0  0
    3.9027    9.3399   -4.5018 H   0  0  0  0  0  0  0  0  0  0  0  0
    4.7826   11.0128   -5.9808 H   0  0  0  0  0  0  0  0  0  0  0  0
    5.3520   13.1170   -4.9850 H   0  0  0  0  0  0  0  0  0  0  0  0
    1.5530   10.4906   -5.1728 H   0  0  0  0  0  0  0  0  0  0  0  0
    1.5105   11.6986   -6.5016 H   0  0  0  0  0  0  0  0  0  0  0  0
    2.7588   10.4069   -6.5016 H   0  0  0  0  0  0  0  0  0  0  0  0
    3.3521   14.1662   -5.2059 H   0  0  0  0  0  0  0  0  0  0  0  0
    4.1556   13.2464   -6.5231 H   0  0  0  0  0  0  0  0  0  0  0  0
    2.3698   13.4404   -6.5231 H   0  0  0  0  0  0  0  0  0  0  0  0
    2.8103   11.7016    0.7382 H   0  0  0  0  0  0  0  0  0  0  0  0
    4.0510   11.3545   -0.5135 H   0  0  0  0  0  0  0  0  0  0  0  0
    3.1921   12.9321   -0.5135 H   0  0  0  0  0  0  0  0  0  0  0  0
    2.2963    9.1153   -0.9825 H   0  0  0  0  0  0  0  0  0  0  0  0
    1.6133   10.0288    0.4780 H   0  0  0  0  0  0  0  0  0  0  0  0
    0.1051    9.0556   -1.9639 H   0  0  0  0  0  0  0  0  0  0  0  0
   -0.0453    8.5019   -0.2500 H   0  0  0  0  0  0  0  0  0  0  0  0
   -0.9701    9.8856    1.4796 H   0  0  0  0  0  0  0  0  0  0  0  0
    0.1630   11.2340    1.1264 H   0  0  0  0  0  0  0  0  0  0  0  0
   -1.6092   11.5268    1.1264 H   0  0  0  0  0  0  0  0  0  0  0  0
  1  2  1  0
  2  3  1  0
  3  4  1  0
  4  5  1  0
  5  6  1  0
  6  7  1  0
  7  8  1  0
  7  9  1  0
  2 10  1  0
 10 11  1  0
 11 12  1  0
 12 13  1  0
 13 14  1  6
 13 15  1  0
 15 16  1  0
 16 17  1  0
 17 18  2  0
 18 19  1  0
 19 20  1  0
 20 21  1  0
 21 22  1  0
 22 23  1  0
 22 24  1  0
 24 25  1  0
 24 26  1  0
 19 27  1  0
 27 28  1  1
 27 29  1  0
 29 30  1  0
 30 31  1  0
 31 32  1  1
  7  5  1  0
 31 10  1  0
 31 13  1  0
 27 15  1  0
 24 18  1  0
  1 33  1  0
  1 34  1  0
  1 35  1  0
  2 36  1  1
  3 37  1  0
  3 38  1  0
  4 39  1  0
  4 40  1  0
  5 41  1  6
  8 42  1  0
  8 43  1  0
  8 44  1  0
  9 45  1  0
  9 46  1  0
  9 47  1  0
 10 48  1  6
 11 49  1  0
 11 50  1  0
 12 51  1  0
 12 52  1  0
 14 53  1  0
 14 54  1  0
 14 55  1  0
 15 56  1  1
 16 57  1  0
 16 58  1  0
 17 59  1  0
 19 60  1  6
 20 61  1  0
 20 62  1  0
 21 63  1  0
 21 64  1  0
 22 65  1  6
 23 66  1  0
 25 67  1  0
 25 68  1  0
 25 69  1  0
 26 70  1  0
 26 71  1  0
 26 72  1  0
 28 73  1  0
 28 74  1  0
 28 75  1  0
 29 76  1  0
 29 77  1  0
 30 78  1  0
 30 79  1  0
 32 80  1  0
 32 81  1  0
 32 82  1  0
M  END
>  <meeko>  (10) 
{"is_sidechain": [false], "intermolecular_energy": 2.731, "internal_energy": -0.839}

$$$$
EPH_relaxed_0001_pdb2pqr_Repair_264_r2_0001_out
     RDKit          3D

 82 86  0  0  0  0  0  0  0  0999 V2000
   -4.6980    7.1500   -3.1610 C   0  0  0  0  0  0  0  0  0  0  0  0
   -5.0610    7.6140   -1.7480 C   0  0  2  0  0  0  0  0  0  0  0  0
   -6.5600    7.9540   -1.6160 C   0  0  0  0  0  0  0  0  0  0  0  0
   -7.4090    6.7930   -1.0900 C   0  0  0  0  0  0  0  0  0  0  0  0
   -8.8550    6.9570   -1.4520 C   0  0  2  0  0  0  0  0  0  0  0  0
   -9.4040    8.2480   -1.1550 O   0  0  0  0  0  0  0  0  0  0  0  0
   -9.9580    7.1410   -0.4260 C   0  0  0  0  0  0  0  0  0  0  0  0
   -9.6620    7.1690    1.0410 C   0  0  0  0  0  0  0  0  0  0  0  0
  -11.3630    6.8030   -0.8180 C   0  0  0  0  0  0  0  0  0  0  0  0
   -4.2180    8.8250   -1.3660 C   0  0  1  0  0  0  0  0  0  0  0  0
   -4.6910    9.4900   -0.0460 C   0  0  0  0  0  0  0  0  0  0  0  0
   -3.4210   10.0120    0.6730 C   0  0  0  0  0  0  0  0  0  0  0  0
   -2.3060    9.9290   -0.3950 C   0  0  1  0  0  0  0  0  0  0  0  0
   -2.4900   11.2100   -1.2670 C   0  0  0  0  0  0  0  0  0  0  0  0
   -0.8430    9.8010    0.1420 C   0  0  2  0  0  0  0  0  0  0  0  0
   -0.3490   10.9930    0.9810 C   0  0  0  0  0  0  0  0  0  0  0  0
    0.3260   12.0790    0.2110 C   0  0  0  0  0  0  0  0  0  0  0  0
    0.7830   11.9750   -1.0510 C   0  0  0  0  0  0  0  0  0  0  0  0
    0.7270   10.6380   -1.8020 C   0  0  1  0  0  0  0  0  0  0  0  0
    2.0910   10.3740   -2.4920 C   0  0  0  0  0  0  0  0  0  0  0  0
    2.5260   11.5290   -3.3890 C   0  0  0  0  0  0  0  0  0  0  0  0
    2.6270   12.8280   -2.5940 C   0  0  2  0  0  0  0  0  0  0  0  0
    3.6990   12.7120   -1.6540 O   0  0  0  0  0  0  0  0  0  0  0  0
    1.3140   13.1930   -1.8470 C   0  0  0  0  0  0  0  0  0  0  0  0
    0.2310   13.6130   -2.8710 C   0  0  0  0  0  0  0  0  0  0  0  0
    1.5940   14.4450   -0.9730 C   0  0  0  0  0  0  0  0  0  0  0  0
    0.2180    9.3910   -0.9590 C   0  0  1  0  0  0  0  0  0  0  0  0
    1.4140    8.7360   -0.2020 C   0  0  0  0  0  0  0  0  0  0  0  0
   -0.3370    8.2960   -1.9450 C   0  0  0  0  0  0  0  0  0  0  0  0
   -1.8210    8.4070   -2.3440 C   0  0  0  0  0  0  0  0  0  0  0  0
   -2.7080    8.5870   -1.1090 C   0  0  2  0  0  0  0  0  0  0  0  0
   -2.5610    7.3030   -0.2230 C   0  0  0  0  0  0  0  0  0  0  0  0
   -4.0212    6.2849   -3.1003 H   0  0  0  0  0  0  0  0  0  0  0  0
   -5.6134    6.8624   -3.6990 H   0  0  0  0  0  0  0  0  0  0  0  0
   -4.1986    7.9692   -3.6990 H   0  0  0  0  0  0  0  0  0  0  0  0
   -4.8487    6.7812   -1.0615 H   0  0  0  0  0  0  0  0  0  0  0  0
   -6.6643    8.8024   -0.9237 H   0  0  0  0  0  0  0  0  0  0  0  0
   -6.9270    8.1898   -2.6258 H   0  0  0  0  0  0  0  0  0  0  0  0
   -7.0368    5.8534   -1.5243 H   0  0  0  0  0  0  0  0  0  0  0  0
   -7.3289    6.7781    0.0070 H   0  0  0  0  0  0  0  0  0  0  0  0
   -8.7451    6.2675   -2.3020 H   0  0  0  0  0  0  0  0  0  0  0  0
  -10.6014    7.0801    1.6064 H   0  0  0  0  0  0  0  0  0  0  0  0
   -8.9990    6.3296    1.2974 H   0  0  0  0  0  0  0  0  0  0  0  0
   -9.1681    8.1179    1.2974 H   0  0  0  0  0  0  0  0  0  0  0  0
  -11.9710    6.6567    0.0869 H   0  0  0  0  0  0  0  0  0  0  0  0
  -11.7851    7.6252   -1.4145 H   0  0  0  0  0  0  0  0  0  0  0  0
  -11.3650    5.8787   -1.4145 H   0  0  0  0  0  0  0  0  0  0  0  0
   -4.3551    9.4378   -2.2692 H   0  0  0  0  0  0  0  0  0  0  0  0
   -5.3720   10.3254   -0.2658 H   0  0  0  0  0  0  0  0  0  0  0  0
   -5.2345    8.7714    0.5851 H   0  0  0  0  0  0  0  0  0  0  0  0
   -3.5628   11.0506    1.0064 H   0  0  0  0  0  0  0  0  0  0  0  0
   -3.1809    9.4268    1.5729 H   0  0  0  0  0  0  0  0  0  0  0  0
   -2.6156   12.0846   -0.6118 H   0  0  0  0  0  0  0  0  0  0  0  0
   -1.6030   11.3519   -1.9019 H   0  0  0  0  0  0  0  0  0  0  0  0
   -3.3811   11.0965   -1.9019 H   0  0  0  0  0  0  0  0  0  0  0  0
   -0.9217    8.9553    0.8411 H   0  0  0  0  0  0  0  0  0  0  0  0
   -1.2179   11.4302    1.4947 H   0  0  0  0  0  0  0  0  0  0  0  0
    0.4107   10.5886    1.6661 H   0  0  0  0  0  0  0  0  0  0  0  0
    0.4615   13.0460    0.7175 H   0  0  0  0  0  0  0  0  0  0  0  0
   -0.0602   10.7486   -2.5623 H   0  0  0  0  0  0  0  0  0  0  0  0
    2.8556   10.2231   -1.7157 H   0  0  0  0  0  0  0  0  0  0  0  0
    1.9772    9.4828   -3.1267 H   0  0  0  0  0  0  0  0  0  0  0  0
    3.5088   11.2961   -3.8248 H   0  0  0  0  0  0  0  0  0  0  0  0
    1.7752   11.6599   -4.1822 H   0  0  0  0  0  0  0  0  0  0  0  0
    2.8152   13.6397   -3.3121 H   0  0  0  0  0  0  0  0  0  0  0  0
    3.6830   13.5030   -1.0900 H   0  0  0  0  0  0  0  0  0  0  0  0
   -0.6648   13.9604   -2.3355 H   0  0  0  0  0  0  0  0  0  0  0  0
    0.6190   14.4258   -3.5025 H   0  0  0  0  0  0  0  0  0  0  0  0
   -0.0305   12.7511   -3.5025 H   0  0  0  0  0  0  0  0  0  0  0  0
    1.5327   14.1709    0.0905 H   0  0  0  0  0  0  0  0  0  0  0  0
    2.6003   14.8296   -1.1951 H   0  0  0  0  0  0  0  0  0  0  0  0
    0.8474   15.2217   -1.1951 H   0  0  0  0  0  0  0  0  0  0  0  0
    1.2537    8.8238    0.8827 H   0  0  0  0  0  0  0  0  0  0  0  0
    1.4845    7.6734   -0.4774 H   0  0  0  0  0  0  0  0  0  0  0  0
    2.3473    9.2489   -0.4774 H   0  0  0  0  0  0  0  0  0  0  0  0
    0.2600    8.3459   -2.8675 H   0  0  0  0  0  0  0  0  0  0  0  0
   -0.2577    7.3469   -1.3946 H   0  0  0  0  0  0  0  0  0  0  0  0
   -1.9509    9.2729   -3.0098 H   0  0  0  0  0  0  0  0  0  0  0  0
   -2.1169    7.4798   -2.8565 H   0  0  0  0  0  0  0  0  0  0  0  0
   -2.5933    7.5851    0.8397 H   0  0  0  0  0  0  0  0  0  0  0  0
   -3.3856    6.6091   -0.4434 H   0  0  0  0  0  0  0  0  0  0  0  0
   -1.6009    6.8134   -0.4434 H   0  0  0  0  0  0  0  0  0  0  0  0
  1  2  1  0
  2  3  1  0
  3  4  1  0
  4  5  1  0
  5  6  1  0
  6  7  1  0
  7  8  1  0
  7  9  1  0
  2 10  1  0
 10 11  1  0
 11 12  1  0
 12 13  1  0
 13 14  1  6
 13 15  1  0
 15 16  1  0
 16 17  1  0
 17 18  2  0
 18 19  1  0
 19 20  1  0
 20 21  1  0
 21 22  1  0
 22 23  1  0
 22 24  1  0
 24 25  1  0
 24 26  1  0
 19 27  1  0
 27 28  1  1
 27 29  1  0
 29 30  1  0
 30 31  1  0
 31 32  1  1
  7  5  1  0
 31 10  1  0
 31 13  1  0
 27 15  1  0
 24 18  1  0
  1 33  1  0
  1 34  1  0
  1 35  1  0
  2 36  1  1
  3 37  1  0
  3 38  1  0
  4 39  1  0
  4 40  1  0
  5 41  1  6
  8 42  1  0
  8 43  1  0
  8 44  1  0
  9 45  1  0
  9 46  1  0
  9 47  1  0
 10 48  1  6
 11 49  1  0
 11 50  1  0
 12 51  1  0
 12 52  1  0
 14 53  1  0
 14 54  1  0
 14 55  1  0
 15 56  1  1
 16 57  1  0
 16 58  1  0
 17 59  1  0
 19 60  1  6
 20 61  1  0
 20 62  1  0
 21 63  1  0
 21 64  1  0
 22 65  1  6
 23 66  1  0
 25 67  1  0
 25 68  1  0
 25 69  1  0
 26 70  1  0
 26 71  1  0
 26 72  1  0
 28 73  1  0
 28 74  1  0
 28 75  1  0
 29 76  1  0
 29 77  1  0
 30 78  1  0
 30 79  1  0
 32 80  1  0
 32 81  1  0
 32 82  1  0
M  END
>  <meeko>  (11) 
{"is_sidechain": [false], "intermolecular_energy": 2.731, "internal_energy": -0.839}

$$$$
EPH_relaxed_0001_pdb2pqr_Repair_264_r2_0001_out
     RDKit          3D

 82 86  0  0  0  0  0  0  0  0999 V2000
    1.0600   14.5850   -4.9200 C   0  0  0  0  0  0  0  0  0  0  0  0
    0.7030   14.1070   -3.5100 C   0  0  2  0  0  0  0  0  0  0  0  0
    1.8600   14.3200   -2.5140 C   0  0  0  0  0  0  0  0  0  0  0  0
    1.6030   15.4390   -1.5020 C   0  0  0  0  0  0  0  0  0  0  0  0
    1.8950   16.7900   -2.0830 C   0  0  2  0  0  0  0  0  0  0  0  0
    2.7940   17.5940   -1.3080 O   0  0  0  0  0  0  0  0  0  0  0  0
    1.4520   18.0910   -1.4400 C   0  0  0  0  0  0  0  0  0  0  0  0
    0.6790   18.1040   -0.1590 C   0  0  0  0  0  0  0  0  0  0  0  0
    1.3440   19.3120   -2.2990 C   0  0  0  0  0  0  0  0  0  0  0  0
    0.3100   12.6340   -3.5450 C   0  0  1  0  0  0  0  0  0  0  0  0
    1.5170   11.7010   -3.8290 C   0  0  0  0  0  0  0  0  0  0  0  0
    1.2780   10.4020   -3.0170 C   0  0  0  0  0  0  0  0  0  0  0  0
   -0.1980   10.4910   -2.5640 C   0  0  1  0  0  0  0  0  0  0  0  0
   -1.0270   10.0210   -3.8000 C   0  0  0  0  0  0  0  0  0  0  0  0
   -0.5750    9.6880   -1.2760 C   0  0  2  0  0  0  0  0  0  0  0  0
   -0.3990    8.1630   -1.3830 C   0  0  0  0  0  0  0  0  0  0  0  0
   -1.5990    7.4150   -1.8620 C   0  0  0  0  0  0  0  0  0  0  0  0
   -2.8520    7.9020   -1.9220 C   0  0  0  0  0  0  0  0  0  0  0  0
   -3.1790    9.3030   -1.3890 C   0  0  1  0  0  0  0  0  0  0  0  0
   -4.4600    9.2390   -0.5160 C   0  0  0  0  0  0  0  0  0  0  0  0
   -5.6370    8.6050   -1.2510 C   0  0  0  0  0  0  0  0  0  0  0  0
   -5.2940    7.1910   -1.7140 C   0  0  2  0  0  0  0  0  0  0  0  0
   -5.1280    6.3570   -0.5640 O   0  0  0  0  0  0  0  0  0  0  0  0
   -4.0140    7.1290   -2.5940 C   0  0  0  0  0  0  0  0  0  0  0  0
   -4.2970    7.7790   -3.9710 C   0  0  0  0  0  0  0  0  0  0  0  0
   -3.7000    5.6350   -2.8760 C   0  0  0  0  0  0  0  0  0  0  0  0
   -1.9860   10.0660   -0.6670 C   0  0  1  0  0  0  0  0  0  0  0  0
   -1.9390    9.6730    0.8410 C   0  0  0  0  0  0  0  0  0  0  0  0
   -2.2630   11.6150   -0.7150 C   0  0  0  0  0  0  0  0  0  0  0  0
   -1.7610   12.3730   -1.9580 C   0  0  0  0  0  0  0  0  0  0  0  0
   -0.2980   12.0300   -2.2550 C   0  0  2  0  0  0  0  0  0  0  0  0
    0.5630   12.5110   -1.0380 C   0  0  0  0  0  0  0  0  0  0  0  0
    1.7170   15.4647   -4.8536 H   0  0  0  0  0  0  0  0  0  0  0  0
    1.5793   13.7794   -5.4597 H   0  0  0  0  0  0  0  0  0  0  0  0
    0.1401   14.8543   -5.4597 H   0  0  0  0  0  0  0  0  0  0  0  0
   -0.1476   14.7110   -3.1612 H   0  0  0  0  0  0  0  0  0  0  0  0
    2.0197   13.3822   -1.9616 H   0  0  0  0  0  0  0  0  0  0  0  0
    2.7407   14.6156   -3.1031 H   0  0  0  0  0  0  0  0  0  0  0  0
    0.5480   15.4045   -1.1926 H   0  0  0  0  0  0  0  0  0  0  0  0
    2.2712   15.2838   -0.6421 H   0  0  0  0  0  0  0  0  0  0  0  0
    1.7888   16.3988   -3.1056 H   0  0  0  0  0  0  0  0  0  0  0  0
    1.3774   18.0923    0.6908 H   0  0  0  0  0  0  0  0  0  0  0  0
    0.0608   19.0127   -0.1130 H   0  0  0  0  0  0  0  0  0  0  0  0
    0.0306   17.2166   -0.1130 H   0  0  0  0  0  0  0  0  0  0  0  0
    1.2651   20.2040   -1.6601 H   0  0  0  0  0  0  0  0  0  0  0  0
    2.2384   19.3938   -2.9341 H   0  0  0  0  0  0  0  0  0  0  0  0
    0.4491   19.2355   -2.9341 H   0  0  0  0  0  0  0  0  0  0  0  0
   -0.4497   12.6639   -4.3400 H   0  0  0  0  0  0  0  0  0  0  0  0
    1.5739   11.4713   -4.9032 H   0  0  0  0  0  0  0  0  0  0  0  0
    2.4637   12.1800   -3.5388 H   0  0  0  0  0  0  0  0  0  0  0  0
    1.4378    9.5150   -3.6476 H   0  0  0  0  0  0  0  0  0  0  0  0
    1.9702   10.3080   -2.1673 H   0  0  0  0  0  0  0  0  0  0  0  0
   -1.9362    9.5055   -3.4571 H   0  0  0  0  0  0  0  0  0  0  0  0
   -1.3075   10.8944   -4.4070 H   0  0  0  0  0  0  0  0  0  0  0  0
   -0.4216    9.3318   -4.4070 H   0  0  0  0  0  0  0  0  0  0  0  0
    0.1846   10.0262   -0.5558 H   0  0  0  0  0  0  0  0  0  0  0  0
    0.4268    7.9643   -2.0819 H   0  0  0  0  0  0  0  0  0  0  0  0
   -0.2060    7.8063   -0.3605 H   0  0  0  0  0  0  0  0  0  0  0  0
   -1.4459    6.3776   -2.1941 H   0  0  0  0  0  0  0  0  0  0  0  0
   -3.3615    9.9302   -2.2741 H   0  0  0  0  0  0  0  0  0  0  0  0
   -4.2443    8.6442    0.3838 H   0  0  0  0  0  0  0  0  0  0  0  0
   -4.7423   10.2710   -0.2606 H   0  0  0  0  0  0  0  0  0  0  0  0
   -6.5030    8.5620   -0.5741 H   0  0  0  0  0  0  0  0  0  0  0  0
   -5.8695    9.2170   -2.1350 H   0  0  0  0  0  0  0  0  0  0  0  0
   -6.1248    6.8388   -2.3430 H   0  0  0  0  0  0  0  0  0  0  0  0
   -5.9940    5.9680   -0.3550 H   0  0  0  0  0  0  0  0  0  0  0  0
   -4.7321    8.7783   -3.8223 H   0  0  0  0  0  0  0  0  0  0  0  0
   -3.3565    7.8687   -4.5344 H   0  0  0  0  0  0  0  0  0  0  0  0
   -5.0034    7.1516   -4.5344 H   0  0  0  0  0  0  0  0  0  0  0  0
   -3.5871    5.0978   -1.9228 H   0  0  0  0  0  0  0  0  0  0  0  0
   -4.5242    5.1896   -3.4525 H   0  0  0  0  0  0  0  0  0  0  0  0
   -2.7663    5.5590   -3.4525 H   0  0  0  0  0  0  0  0  0  0  0  0
   -2.0471   10.5766    1.4589 H   0  0  0  0  0  0  0  0  0  0  0  0
   -2.7602    8.9759    1.0640 H   0  0  0  0  0  0  0  0  0  0  0  0
   -0.9766    9.1892    1.0640 H   0  0  0  0  0  0  0  0  0  0  0  0
   -3.3517   11.7602   -0.6541 H   0  0  0  0  0  0  0  0  0  0  0  0
   -1.6935   12.0350    0.1272 H   0  0  0  0  0  0  0  0  0  0  0  0
   -2.3791   12.0936   -2.8239 H   0  0  0  0  0  0  0  0  0  0  0  0
   -1.8358   13.4532   -1.7643 H   0  0  0  0  0  0  0  0  0  0  0  0
    0.0611   12.2306   -0.1002 H   0  0  0  0  0  0  0  0  0  0  0  0
    1.5543   12.0360   -1.0796 H   0  0  0  0  0  0  0  0  0  0  0  0
    0.6782   13.6042   -1.0796 H   0  0  0  0  0  0  0  0  0  0  0  0
  1  2  1  0
  2  3  1  0
  3  4  1  0
  4  5  1  0
  5  6  1  0
  6  7  1  0
  7  8  1  0
  7  9  1  0
  2 10  1  0
 10 11  1  0
 11 12  1  0
 12 13  1  0
 13 14  1  6
 13 15  1  0
 15 16  1  0
 16 17  1  0
 17 18  2  0
 18 19  1  0
 19 20  1  0
 20 21  1  0
 21 22  1  0
 22 23  1  0
 22 24  1  0
 24 25  1  0
 24 26  1  0
 19 27  1  0
 27 28  1  1
 27 29  1  0
 29 30  1  0
 30 31  1  0
 31 32  1  1
  7  5  1  0
 31 10  1  0
 31 13  1  0
 27 15  1  0
 24 18  1  0
  1 33  1  0
  1 34  1  0
  1 35  1  0
  2 36  1  1
  3 37  1  0
  3 38  1  0
  4 39  1  0
  4 40  1  0
  5 41  1  6
  8 42  1  0
  8 43  1  0
  8 44  1  0
  9 45  1  0
  9 46  1  0
  9 47  1  0
 10 48  1  6
 11 49  1  0
 11 50  1  0
 12 51  1  0
 12 52  1  0
 14 53  1  0
 14 54  1  0
 14 55  1  0
 15 56  1  1
 16 57  1  0
 16 58  1  0
 17 59  1  0
 19 60  1  6
 20 61  1  0
 20 62  1  0
 21 63  1  0
 21 64  1  0
 22 65  1  6
 23 66  1  0
 25 67  1  0
 25 68  1  0
 25 69  1  0
 26 70  1  0
 26 71  1  0
 26 72  1  0
 28 73  1  0
 28 74  1  0
 28 75  1  0
 29 76  1  0
 29 77  1  0
 30 78  1  0
 30 79  1  0
 32 80  1  0
 32 81  1  0
 32 82  1  0
M  END
>  <meeko>  (12) 
{"is_sidechain": [false], "intermolecular_energy": 2.731, "internal_energy": -0.839}

$$$$
EPH_relaxed_0001_pdb2pqr_Repair_264_r2_0001_out
     RDKit          3D

 82 86  0  0  0  0  0  0  0  0999 V2000
    3.1900   19.0270   -0.7490 C   0  0  0  0  0  0  0  0  0  0  0  0
    2.5710   18.0730   -1.7740 C   0  0  2  0  0  0  0  0  0  0  0  0
    1.0600   18.3200   -1.9580 C   0  0  0  0  0  0  0  0  0  0  0  0
    0.5970   19.6960   -1.4740 C   0  0  0  0  0  0  0  0  0  0  0  0
   -0.4490   19.5860   -0.4060 C   0  0  2  0  0  0  0  0  0  0  0  0
   -1.3700   18.5010   -0.5800 O   0  0  0  0  0  0  0  0  0  0  0  0
   -1.9260   19.8240   -0.6540 C   0  0  0  0  0  0  0  0  0  0  0  0
   -2.4400   20.1930   -2.0110 C   0  0  0  0  0  0  0  0  0  0  0  0
   -2.8000   20.1760    0.5090 C   0  0  0  0  0  0  0  0  0  0  0  0
    2.8150   16.6290   -1.3540 C   0  0  1  0  0  0  0  0  0  0  0  0
    3.6050   16.5200   -0.0220 C   0  0  0  0  0  0  0  0  0  0  0  0
    3.0580   15.2740    0.7220 C   0  0  0  0  0  0  0  0  0  0  0  0
    2.2180   14.5240   -0.3390 C   0  0  1  0  0  0  0  0  0  0  0  0
    3.2590   13.7210   -1.1800 C   0  0  0  0  0  0  0  0  0  0  0  0
    1.0810   13.6000    0.2070 C   0  0  2  0  0  0  0  0  0  0  0  0
    1.5570   12.4260    1.0810 C   0  0  0  0  0  0  0  0  0  0  0  0
    1.8480   11.1600    0.3440 C   0  0  0  0  0  0  0  0  0  0  0  0
    1.4640   10.8830   -0.9160 C   0  0  0  0  0  0  0  0  0  0  0  0
    0.5740   11.8550   -1.7000 C   0  0  1  0  0  0  0  0  0  0  0  0
   -0.5740   11.0690   -2.3860 C   0  0  0  0  0  0  0  0  0  0  0  0
   -0.0620    9.9200   -3.2490 C   0  0  0  0  0  0  0  0  0  0  0  0
    0.7690    8.9440   -2.4210 C   0  0  2  0  0  0  0  0  0  0  0  0
   -0.0870    8.2960   -1.4750 O   0  0  0  0  0  0  0  0  0  0  0  0
    1.9510    9.6250   -1.6760 C   0  0  0  0  0  0  0  0  0  0  0  0
    3.0290   10.0610   -2.6990 C   0  0  0  0  0  0  0  0  0  0  0  0
    2.6210    8.5580   -0.7680 C   0  0  0  0  0  0  0  0  0  0  0  0
    0.0510   13.1210   -0.8940 C   0  0  1  0  0  0  0  0  0  0  0  0
   -1.2690   12.7650   -0.1440 C   0  0  0  0  0  0  0  0  0  0  0  0
   -0.3120   14.2660   -1.9120 C   0  0  0  0  0  0  0  0  0  0  0  0
    0.8270   15.2190   -2.3210 C   0  0  0  0  0  0  0  0  0  0  0  0
    1.5710   15.7440   -1.0900 C   0  0  2  0  0  0  0  0  0  0  0  0
    0.5540   16.5750   -0.2350 C   0  0  0  0  0  0  0  0  0  0  0  0
    2.9603   18.6730    0.2668 H   0  0  0  0  0  0  0  0  0  0  0  0
    4.2807   19.0579   -0.8887 H   0  0  0  0  0  0  0  0  0  0  0  0
    2.7738   20.0356   -0.8887 H   0  0  0  0  0  0  0  0  0  0  0  0
    3.0576   18.2657   -2.7415 H   0  0  0  0  0  0  0  0  0  0  0  0
    0.8214   18.2301   -3.0280 H   0  0  0  0  0  0  0  0  0  0  0  0
    0.5355   17.5713   -1.3461 H   0  0  0  0  0  0  0  0  0  0  0  0
    1.4626   20.2415   -1.0701 H   0  0  0  0  0  0  0  0  0  0  0  0
    0.1581   20.2302   -2.3296 H   0  0  0  0  0  0  0  0  0  0  0  0
    0.2456   19.9841    0.3483 H   0  0  0  0  0  0  0  0  0  0  0  0
   -3.3294   20.8315   -1.9050 H   0  0  0  0  0  0  0  0  0  0  0  0
   -1.6603   20.7389   -2.5625 H   0  0  0  0  0  0  0  0  0  0  0  0
   -2.7079   19.2797   -2.5625 H   0  0  0  0  0  0  0  0  0  0  0  0
   -2.2666   19.9612    1.4467 H   0  0  0  0  0  0  0  0  0  0  0  0
   -3.0523   21.2459    0.4675 H   0  0  0  0  0  0  0  0  0  0  0  0
   -3.7234   19.5796    0.4675 H   0  0  0  0  0  0  0  0  0  0  0  0
    3.3517   16.2670   -2.2433 H   0  0  0  0  0  0  0  0  0  0  0  0
    4.6787   16.3975   -0.2273 H   0  0  0  0  0  0  0  0  0  0  0  0
    3.4818   17.4286    0.5857 H   0  0  0  0  0  0  0  0  0  0  0  0
    3.8839   14.6423    1.0810 H   0  0  0  0  0  0  0  0  0  0  0  0
    2.4656   15.5440    1.6087 H   0  0  0  0  0  0  0  0  0  0  0  0
    3.9461   13.1910   -0.5039 H   0  0  0  0  0  0  0  0  0  0  0  0
    2.7338   12.9919   -1.8144 H   0  0  0  0  0  0  0  0  0  0  0  0
    3.8309   14.4142   -1.8144 H   0  0  0  0  0  0  0  0  0  0  0  0
    0.5345   14.2731    0.8839 H   0  0  0  0  0  0  0  0  0  0  0  0
    2.4767   12.7378    1.5977 H   0  0  0  0  0  0  0  0  0  0  0  0
    0.7250   12.1971    1.7631 H   0  0  0  0  0  0  0  0  0  0  0  0
    2.4248   10.3889    0.8757 H   0  0  0  0  0  0  0  0  0  0  0  0
    1.2216   12.3108   -2.4634 H   0  0  0  0  0  0  0  0  0  0  0  0
   -1.2344   10.6585   -1.6079 H   0  0  0  0  0  0  0  0  0  0  0  0
   -1.1102   11.7680   -3.0446 H   0  0  0  0  0  0  0  0  0  0  0  0
   -0.9201    9.3849   -3.6819 H   0  0  0  0  0  0  0  0  0  0  0  0
    0.5739   10.3351   -4.0448 H   0  0  0  0  0  0  0  0  0  0  0  0
    1.2138    8.2171   -3.1165 H   0  0  0  0  0  0  0  0  0  0  0  0
    0.2760    7.4100   -1.3080 H   0  0  0  0  0  0  0  0  0  0  0  0
    3.9193   10.4211   -2.1625 H   0  0  0  0  0  0  0  0  0  0  0  0
    3.3034    9.2032   -3.3305 H   0  0  0  0  0  0  0  0  0  0  0  0
    2.6299   10.8684   -3.3305 H   0  0  0  0  0  0  0  0  0  0  0  0
    2.4567    8.8196    0.2877 H   0  0  0  0  0  0  0  0  0  0  0  0
    2.1798    7.5717   -0.9743 H   0  0  0  0  0  0  0  0  0  0  0  0
    3.7010    8.5269   -0.9743 H   0  0  0  0  0  0  0  0  0  0  0  0
   -1.0978   12.8112    0.9416 H   0  0  0  0  0  0  0  0  0  0  0  0
   -2.0541   13.4835   -0.4223 H   0  0  0  0  0  0  0  0  0  0  0  0
   -1.5863   11.7492   -0.4223 H   0  0  0  0  0  0  0  0  0  0  0  0
   -0.6917   13.7891   -2.8276 H   0  0  0  0  0  0  0  0  0  0  0  0
   -1.0413   14.8988   -1.3851 H   0  0  0  0  0  0  0  0  0  0  0  0
    1.5351   14.6777   -2.9657 H   0  0  0  0  0  0  0  0  0  0  0  0
    0.3925   16.0742   -2.8594 H   0  0  0  0  0  0  0  0  0  0  0  0
    0.7542   16.4114    0.8342 H   0  0  0  0  0  0  0  0  0  0  0  0
    0.6653   17.6439   -0.4695 H   0  0  0  0  0  0  0  0  0  0  0  0
   -0.4713   16.2530   -0.4695 H   0  0  0  0  0  0  0  0  0  0  0  0
  1  2  1  0
  2  3  1  0
  3  4  1  0
  4  5  1  0
  5  6  1  0
  6  7  1  0
  7  8  1  0
  7  9  1  0
  2 10  1  0
 10 11  1  0
 11 12  1  0
 12 13  1  0
 13 14  1  6
 13 15  1  0
 15 16  1  0
 16 17  1  0
 17 18  2  0
 18 19  1  0
 19 20  1  0
 20 21  1  0
 21 22  1  0
 22 23  1  0
 22 24  1  0
 24 25  1  0
 24 26  1  0
 19 27  1  0
 27 28  1  1
 27 29  1  0
 29 30  1  0
 30 31  1  0
 31 32  1  1
  7  5  1  0
 31 10  1  0
 31 13  1  0
 27 15  1  0
 24 18  1  0
  1 33  1  0
  1 34  1  0
  1 35  1  0
  2 36  1  6
  3 37  1  0
  3 38  1  0
  4 39  1  0
  4 40  1  0
  5 41  1  1
  8 42  1  0
  8 43  1  0
  8 44  1  0
  9 45  1  0
  9 46  1  0
  9 47  1  0
 10 48  1  6
 11 49  1  0
 11 50  1  0
 12 51  1  0
 12 52  1  0
 14 53  1  0
 14 54  1  0
 14 55  1  0
 15 56  1  1
 16 57  1  0
 16 58  1  0
 17 59  1  0
 19 60  1  6
 20 61  1  0
 20 62  1  0
 21 63  1  0
 21 64  1  0
 22 65  1  6
 23 66  1  0
 25 67  1  0
 25 68  1  0
 25 69  1  0
 26 70  1  0
 26 71  1  0
 26 72  1  0
 28 73  1  0
 28 74  1  0
 28 75  1  0
 29 76  1  0
 29 77  1  0
 30 78  1  0
 30 79  1  0
 32 80  1  0
 32 81  1  0
 32 82  1  0
M  END
>  <meeko>  (13) 
{"is_sidechain": [false], "intermolecular_energy": 2.731, "internal_energy": -0.839}

$$$$
EPH_relaxed_0001_pdb2pqr_Repair_264_r2_0001_out
     RDKit          3D

 82 86  0  0  0  0  0  0  0  0999 V2000
  -15.1040    9.1380    0.6730 C   0  0  0  0  0  0  0  0  0  0  0  0
  -14.2090    9.2470   -0.5660 C   0  0  2  0  0  0  0  0  0  0  0  0
  -14.5980    8.2260   -1.6540 C   0  0  0  0  0  0  0  0  0  0  0  0
  -14.6520    8.8200   -3.0640 C   0  0  0  0  0  0  0  0  0  0  0  0
  -15.2870   10.1780   -3.0690 C   0  0  2  0  0  0  0  0  0  0  0  0
  -14.8710   11.0290   -4.1440 O   0  0  0  0  0  0  0  0  0  0  0  0
  -14.5190   11.4620   -2.8200 C   0  0  0  0  0  0  0  0  0  0  0  0
  -13.0480   11.4500   -2.5460 C   0  0  0  0  0  0  0  0  0  0  0  0
  -15.2740   12.6700   -2.3600 C   0  0  0  0  0  0  0  0  0  0  0  0
  -12.7500    9.0570   -0.1710 C   0  0  1  0  0  0  0  0  0  0  0  0
  -12.5530    8.9710    1.3660 C   0  0  0  0  0  0  0  0  0  0  0  0
  -11.3950    7.9700    1.6140 C   0  0  0  0  0  0  0  0  0  0  0  0
  -10.7490    7.7690    0.2230 C   0  0  1  0  0  0  0  0  0  0  0  0
   -9.8110    9.0030    0.0350 C   0  0  0  0  0  0  0  0  0  0  0  0
   -9.9840    6.4240    0.0040 C   0  0  2  0  0  0  0  0  0  0  0  0
   -8.7670    6.2080    0.9210 C   0  0  0  0  0  0  0  0  0  0  0  0
   -7.4670    6.7090    0.3830 C   0  0  0  0  0  0  0  0  0  0  0  0
   -7.2290    7.0490   -0.8970 C   0  0  0  0  0  0  0  0  0  0  0  0
   -8.3000    6.8500   -1.9770 C   0  0  1  0  0  0  0  0  0  0  0  0
   -7.6610    6.1840   -3.2240 C   0  0  0  0  0  0  0  0  0  0  0  0
   -6.4480    6.9520   -3.7400 C   0  0  0  0  0  0  0  0  0  0  0  0
   -5.3810    7.0780   -2.6550 C   0  0  2  0  0  0  0  0  0  0  0  0
   -4.8580    5.7780   -2.3700 O   0  0  0  0  0  0  0  0  0  0  0  0
   -5.9120    7.7280   -1.3470 C   0  0  0  0  0  0  0  0  0  0  0  0
   -6.1970    9.2300   -1.5890 C   0  0  0  0  0  0  0  0  0  0  0  0
   -4.7760    7.6660   -0.2890 C   0  0  0  0  0  0  0  0  0  0  0  0
   -9.6300    6.1180   -1.5080 C   0  0  1  0  0  0  0  0  0  0  0  0
   -9.4540    4.5720   -1.6200 C   0  0  0  0  0  0  0  0  0  0  0  0
  -10.8020    6.5030   -2.4860 C   0  0  0  0  0  0  0  0  0  0  0  0
  -11.5970    7.7790   -2.1490 C   0  0  0  0  0  0  0  0  0  0  0  0
  -12.0350    7.7810   -0.6810 C   0  0  2  0  0  0  0  0  0  0  0  0
  -12.9980    6.5640   -0.4670 C   0  0  0  0  0  0  0  0  0  0  0  0
  -14.4857    9.2133    1.5797 H   0  0  0  0  0  0  0  0  0  0  0  0
  -15.8430    9.9528    0.6644 H   0  0  0  0  0  0  0  0  0  0  0  0
  -15.6258    8.1697    0.6644 H   0  0  0  0  0  0  0  0  0  0  0  0
  -14.3511   10.2519   -0.9903 H   0  0  0  0  0  0  0  0  0  0  0  0
  -13.8573    7.4127   -1.6479 H   0  0  0  0  0  0  0  0  0  0  0  0
  -15.6117    7.8721   -1.4151 H   0  0  0  0  0  0  0  0  0  0  0  0
  -13.6273    8.9041   -3.4550 H   0  0  0  0  0  0  0  0  0  0  0  0
  -15.2605    8.1543   -3.6937 H   0  0  0  0  0  0  0  0  0  0  0  0
  -16.2101    9.7736   -2.6282 H   0  0  0  0  0  0  0  0  0  0  0  0
  -12.8774   11.4486   -1.4593 H   0  0  0  0  0  0  0  0  0  0  0  0
  -12.5999   10.5482   -2.9886 H   0  0  0  0  0  0  0  0  0  0  0  0
  -12.5853   12.3444   -2.9886 H   0  0  0  0  0  0  0  0  0  0  0  0
  -15.2900   12.6956   -1.2604 H   0  0  0  0  0  0  0  0  0  0  0  0
  -14.7818   13.5770   -2.7408 H   0  0  0  0  0  0  0  0  0  0  0  0
  -16.3050   12.6250   -2.7408 H   0  0  0  0  0  0  0  0  0  0  0  0
  -12.3138    9.9483   -0.6457 H   0  0  0  0  0  0  0  0  0  0  0  0
  -12.2916    9.9601    1.7702 H   0  0  0  0  0  0  0  0  0  0  0  0
  -13.4756    8.6385    1.8642 H   0  0  0  0  0  0  0  0  0  0  0  0
  -10.6660    8.3876    2.3241 H   0  0  0  0  0  0  0  0  0  0  0  0
  -11.7474    7.0241    2.0511 H   0  0  0  0  0  0  0  0  0  0  0  0
   -9.5152    9.3922    1.0204 H   0  0  0  0  0  0  0  0  0  0  0  0
   -8.9135    8.6996   -0.5239 H   0  0  0  0  0  0  0  0  0  0  0  0
  -10.3435    9.7866   -0.5239 H   0  0  0  0  0  0  0  0  0  0  0  0
  -10.7286    5.6765    0.3151 H   0  0  0  0  0  0  0  0  0  0  0  0
   -8.9625    6.7237    1.8727 H   0  0  0  0  0  0  0  0  0  0  0  0
   -8.6539    5.1189    1.0258 H   0  0  0  0  0  0  0  0  0  0  0  0
   -6.6332    6.8085    1.0935 H   0  0  0  0  0  0  0  0  0  0  0  0
   -8.6614    7.8562   -2.2357 H   0  0  0  0  0  0  0  0  0  0  0  0
   -7.3455    5.1647   -2.9567 H   0  0  0  0  0  0  0  0  0  0  0  0
   -8.4168    6.1772   -4.0232 H   0  0  0  0  0  0  0  0  0  0  0  0
   -6.0233    6.4173   -4.6024 H   0  0  0  0  0  0  0  0  0  0  0  0
   -6.7705    7.9615   -4.0347 H   0  0  0  0  0  0  0  0  0  0  0  0
   -4.5957    7.7454   -3.0395 H   0  0  0  0  0  0  0  0  0  0  0  0
   -5.0380    5.2120   -3.1400 H   0  0  0  0  0  0  0  0  0  0  0  0
   -6.2947    9.7451   -0.6220 H   0  0  0  0  0  0  0  0  0  0  0  0
   -5.3670    9.6736   -2.1585 H   0  0  0  0  0  0  0  0  0  0  0  0
   -7.1318    9.3387   -2.1585 H   0  0  0  0  0  0  0  0  0  0  0  0
   -5.2131    7.6899    0.7201 H   0  0  0  0  0  0  0  0  0  0  0  0
   -4.2042    6.7353   -0.4190 H   0  0  0  0  0  0  0  0  0  0  0  0
   -4.1063    8.5289   -0.4190 H   0  0  0  0  0  0  0  0  0  0  0  0
   -9.4042    4.1347   -0.6119 H   0  0  0  0  0  0  0  0  0  0  0  0
  -10.3092    4.1440   -2.1635 H   0  0  0  0  0  0  0  0  0  0  0  0
   -8.5245    4.3472   -2.1635 H   0  0  0  0  0  0  0  0  0  0  0  0
  -10.3689    6.6357   -3.4884 H   0  0  0  0  0  0  0  0  0  0  0  0
  -11.5282    5.6810   -2.4028 H   0  0  0  0  0  0  0  0  0  0  0  0
  -10.9628    8.6580   -2.3364 H   0  0  0  0  0  0  0  0  0  0  0  0
  -12.4954    7.8099   -2.7829 H   0  0  0  0  0  0  0  0  0  0  0  0
  -13.1355    6.3903    0.6105 H   0  0  0  0  0  0  0  0  0  0  0  0
  -13.9717    6.7809   -0.9306 H   0  0  0  0  0  0  0  0  0  0  0  0
  -12.5630    5.6663   -0.9306 H   0  0  0  0  0  0  0  0  0  0  0  0
  1  2  1  0
  2  3  1  0
  3  4  1  0
  4  5  1  0
  5  6  1  0
  6  7  1  0
  7  8  1  0
  7  9  1  0
  2 10  1  0
 10 11  1  0
 11 12  1  0
 12 13  1  0
 13 14  1  6
 13 15  1  0
 15 16  1  0
 16 17  1  0
 17 18  2  0
 18 19  1  0
 19 20  1  0
 20 21  1  0
 21 22  1  0
 22 23  1  0
 22 24  1  0
 24 25  1  0
 24 26  1  0
 19 27  1  0
 27 28  1  1
 27 29  1  0
 29 30  1  0
 30 31  1  0
 31 32  1  6
  7  5  1  0
 31 10  1  0
 31 13  1  0
 27 15  1  0
 24 18  1  0
  1 33  1  0
  1 34  1  0
  1 35  1  0
  2 36  1  6
  3 37  1  0
  3 38  1  0
  4 39  1  0
  4 40  1  0
  5 41  1  1
  8 42  1  0
  8 43  1  0
  8 44  1  0
  9 45  1  0
  9 46  1  0
  9 47  1  0
 10 48  1  6
 11 49  1  0
 11 50  1  0
 12 51  1  0
 12 52  1  0
 14 53  1  0
 14 54  1  0
 14 55  1  0
 15 56  1  1
 16 57  1  0
 16 58  1  0
 17 59  1  0
 19 60  1  6
 20 61  1  0
 20 62  1  0
 21 63  1  0
 21 64  1  0
 22 65  1  6
 23 66  1  0
 25 67  1  0
 25 68  1  0
 25 69  1  0
 26 70  1  0
 26 71  1  0
 26 72  1  0
 28 73  1  0
 28 74  1  0
 28 75  1  0
 29 76  1  0
 29 77  1  0
 30 78  1  0
 30 79  1  0
 32 80  1  0
 32 81  1  0
 32 82  1  0
M  END
>  <meeko>  (14) 
{"is_sidechain": [false], "intermolecular_energy": 2.731, "internal_energy": -0.839}

$$$$
EPH_relaxed_0001_pdb2pqr_Repair_264_r2_0001_out
     RDKit          3D

 82 86  0  0  0  0  0  0  0  0999 V2000
    2.2580   15.9980   -0.6880 C   0  0  0  0  0  0  0  0  0  0  0  0
    2.1200   15.8250   -2.2040 C   0  0  2  0  0  0  0  0  0  0  0  0
    1.5930   17.1020   -2.8880 C   0  0  0  0  0  0  0  0  0  0  0  0
    1.9700   18.3930   -2.1570 C   0  0  0  0  0  0  0  0  0  0  0  0
    0.7970   19.3150   -2.0190 C   0  0  2  0  0  0  0  0  0  0  0  0
    0.8560   20.1930   -0.8870 O   0  0  0  0  0  0  0  0  0  0  0  0
   -0.2080   19.2270   -0.8850 C   0  0  0  0  0  0  0  0  0  0  0  0
   -0.0850   18.1890    0.1870 C   0  0  0  0  0  0  0  0  0  0  0  0
   -1.5660   19.8240   -1.0840 C   0  0  0  0  0  0  0  0  0  0  0  0
    1.1990   14.6510   -2.5110 C   0  0  1  0  0  0  0  0  0  0  0  0
    1.3860   14.1050   -3.9520 C   0  0  0  0  0  0  0  0  0  0  0  0
    1.1710   12.5720   -3.8810 C   0  0  0  0  0  0  0  0  0  0  0  0
    0.5460   12.3290   -2.4870 C   0  0  1  0  0  0  0  0  0  0  0  0
   -0.9690   12.6610   -2.6640 C   0  0  0  0  0  0  0  0  0  0  0  0
    0.7580   10.9070   -1.8730 C   0  0  2  0  0  0  0  0  0  0  0  0
    0.1340    9.7510   -2.6730 C   0  0  0  0  0  0  0  0  0  0  0  0
   -1.2660    9.3970   -2.2960 C   0  0  0  0  0  0  0  0  0  0  0  0
   -1.8950    9.7860   -1.1710 C   0  0  0  0  0  0  0  0  0  0  0  0
   -1.1550   10.5850   -0.0910 C   0  0  1  0  0  0  0  0  0  0  0  0
   -1.4590    9.9760    1.3030 C   0  0  0  0  0  0  0  0  0  0  0  0
   -2.9550    9.8670    1.5800 C   0  0  0  0  0  0  0  0  0  0  0  0
   -3.6470    9.0170    0.5170 C   0  0  2  0  0  0  0  0  0  0  0  0
   -3.1850    7.6680    0.6340 O   0  0  0  0  0  0  0  0  0  0  0  0
   -3.4030    9.5290   -0.9300 C   0  0  0  0  0  0  0  0  0  0  0  0
   -4.1640   10.8610   -1.1450 C   0  0  0  0  0  0  0  0  0  0  0  0
   -4.0350    8.5050   -1.9110 C   0  0  0  0  0  0  0  0  0  0  0  0
    0.4000   10.8060   -0.3350 C   0  0  1  0  0  0  0  0  0  0  0  0
    1.2040    9.5960    0.2310 C   0  0  0  0  0  0  0  0  0  0  0  0
    0.8730   12.0710    0.4750 C   0  0  0  0  0  0  0  0  0  0  0  0
    0.7490   13.4340   -0.2320 C   0  0  0  0  0  0  0  0  0  0  0  0
    1.3520   13.3790   -1.6390 C   0  0  2  0  0  0  0  0  0  0  0  0
    2.8810   13.0700   -1.4920 C   0  0  0  0  0  0  0  0  0  0  0  0
    1.6511   15.2372   -0.1754 H   0  0  0  0  0  0  0  0  0  0  0  0
    3.3131   15.8805   -0.4001 H   0  0  0  0  0  0  0  0  0  0  0  0
    1.9089   17.0006   -0.4001 H   0  0  0  0  0  0  0  0  0  0  0  0
    3.1236   15.6250   -2.6075 H   0  0  0  0  0  0  0  0  0  0  0  0
    2.0066   17.1463   -3.9063 H   0  0  0  0  0  0  0  0  0  0  0  0
    0.4948   17.0391   -2.8829 H   0  0  0  0  0  0  0  0  0  0  0  0
    2.3433   18.1387   -1.1540 H   0  0  0  0  0  0  0  0  0  0  0  0
    2.7429   18.9076   -2.7468 H   0  0  0  0  0  0  0  0  0  0  0  0
    0.6746   19.3611   -3.1112 H   0  0  0  0  0  0  0  0  0  0  0  0
   -0.1423   18.6722    1.1735 H   0  0  0  0  0  0  0  0  0  0  0  0
   -0.9031   17.4604    0.0875 H   0  0  0  0  0  0  0  0  0  0  0  0
    0.8807   17.6718    0.0875 H   0  0  0  0  0  0  0  0  0  0  0  0
   -2.0249   20.0257   -0.1049 H   0  0  0  0  0  0  0  0  0  0  0  0
   -1.4741   20.7647   -1.6467 H   0  0  0  0  0  0  0  0  0  0  0  0
   -2.1970   19.1203   -1.6467 H   0  0  0  0  0  0  0  0  0  0  0  0
    0.2259   15.1257   -2.3171 H   0  0  0  0  0  0  0  0  0  0  0  0
    0.6474   14.5601   -4.6283 H   0  0  0  0  0  0  0  0  0  0  0  0
    2.3873   14.3458   -4.3386 H   0  0  0  0  0  0  0  0  0  0  0  0
    0.4879   12.2386   -4.6761 H   0  0  0  0  0  0  0  0  0  0  0  0
    2.1078   12.0128   -4.0210 H   0  0  0  0  0  0  0  0  0  0  0  0
   -1.4397   12.7642   -1.6752 H   0  0  0  0  0  0  0  0  0  0  0  0
   -1.0752   13.6037   -3.2208 H   0  0  0  0  0  0  0  0  0  0  0  0
   -1.4597   11.8491   -3.2208 H   0  0  0  0  0  0  0  0  0  0  0  0
    1.8466   10.7734   -1.9568 H   0  0  0  0  0  0  0  0  0  0  0  0
    0.1388   10.0323   -3.7364 H   0  0  0  0  0  0  0  0  0  0  0  0
    0.7430    8.8628   -2.4492 H   0  0  0  0  0  0  0  0  0  0  0  0
   -1.8316    8.7649   -2.9964 H   0  0  0  0  0  0  0  0  0  0  0  0
   -1.5517   11.6095   -0.1452 H   0  0  0  0  0  0  0  0  0  0  0  0
   -1.0170    8.9699    1.3523 H   0  0  0  0  0  0  0  0  0  0  0  0
   -1.0269   10.6455    2.0613 H   0  0  0  0  0  0  0  0  0  0  0  0
   -3.1056    9.4030    2.5659 H   0  0  0  0  0  0  0  0  0  0  0  0
   -3.3901   10.8771    1.5594 H   0  0  0  0  0  0  0  0  0  0  0  0
   -4.7305    9.0829    0.6947 H   0  0  0  0  0  0  0  0  0  0  0  0
   -3.6280    7.2710    1.4030 H   0  0  0  0  0  0  0  0  0  0  0  0
   -4.4155   11.3013   -0.1688 H   0  0  0  0  0  0  0  0  0  0  0  0
   -3.5286   11.5593   -1.7094 H   0  0  0  0  0  0  0  0  0  0  0  0
   -5.0883   10.6683   -1.7094 H   0  0  0  0  0  0  0  0  0  0  0  0
   -4.5284    7.7055   -1.3389 H   0  0  0  0  0  0  0  0  0  0  0  0
   -4.7765    9.0137   -2.5446 H   0  0  0  0  0  0  0  0  0  0  0  0
   -3.2479    8.0703   -2.5446 H   0  0  0  0  0  0  0  0  0  0  0  0
    1.1847    9.6250    1.3304 H   0  0  0  0  0  0  0  0  0  0  0  0
    0.7492    8.6576   -0.1191 H   0  0  0  0  0  0  0  0  0  0  0  0
    2.2453    9.6517   -0.1191 H   0  0  0  0  0  0  0  0  0  0  0  0
    0.2750   12.1186    1.3970 H   0  0  0  0  0  0  0  0  0  0  0  0
    1.9519   11.9253    0.6327 H   0  0  0  0  0  0  0  0  0  0  0  0
   -0.3144   13.7052   -0.3067 H   0  0  0  0  0  0  0  0  0  0  0  0
    1.2976   14.1849    0.3555 H   0  0  0  0  0  0  0  0  0  0  0  0
    3.1434   13.0170   -0.4251 H   0  0  0  0  0  0  0  0  0  0  0  0
    3.1086   12.1077   -1.9739 H   0  0  0  0  0  0  0  0  0  0  0  0
    3.4644   13.8684   -1.9739 H   0  0  0  0  0  0  0  0  0  0  0  0
  1  2  1  0
  2  3  1  0
  3  4  1  0
  4  5  1  0
  5  6  1  0
  6  7  1  0
  7  8  1  0
  7  9  1  0
  2 10  1  0
 10 11  1  0
 11 12  1  0
 12 13  1  0
 13 14  1  6
 13 15  1  0
 15 16  1  0
 16 17  1  0
 17 18  2  0
 18 19  1  0
 19 20  1  0
 20 21  1  0
 21 22  1  0
 22 23  1  0
 22 24  1  0
 24 25  1  0
 24 26  1  0
 19 27  1  0
 27 28  1  1
 27 29  1  0
 29 30  1  0
 30 31  1  0
 31 32  1  1
  7  5  1  0
 31 10  1  0
 31 13  1  0
 27 15  1  0
 24 18  1  0
  1 33  1  0
  1 34  1  0
  1 35  1  0
  2 36  1  6
  3 37  1  0
  3 38  1  0
  4 39  1  0
  4 40  1  0
  5 41  1  6
  8 42  1  0
  8 43  1  0
  8 44  1  0
  9 45  1  0
  9 46  1  0
  9 47  1  0
 10 48  1  6
 11 49  1  0
 11 50  1  0
 12 51  1  0
 12 52  1  0
 14 53  1  0
 14 54  1  0
 14 55  1  0
 15 56  1  1
 16 57  1  0
 16 58  1  0
 17 59  1  0
 19 60  1  1
 20 61  1  0
 20 62  1  0
 21 63  1  0
 21 64  1  0
 22 65  1  1
 23 66  1  0
 25 67  1  0
 25 68  1  0
 25 69  1  0
 26 70  1  0
 26 71  1  0
 26 72  1  0
 28 73  1  0
 28 74  1  0
 28 75  1  0
 29 76  1  0
 29 77  1  0
 30 78  1  0
 30 79  1  0
 32 80  1  0
 32 81  1  0
 32 82  1  0
M  END
>  <meeko>  (15) 
{"is_sidechain": [false], "intermolecular_energy": 2.731, "internal_energy": -0.839}

$$$$
EPH_relaxed_0001_pdb2pqr_Repair_264_r2_0001_out
     RDKit          3D

 82 86  0  0  0  0  0  0  0  0999 V2000
    0.2770    9.7920   -4.5670 C   0  0  0  0  0  0  0  0  0  0  0  0
    1.3670   10.4860   -3.7460 C   0  0  2  0  0  0  0  0  0  0  0  0
    1.7780    9.6610   -2.5100 C   0  0  0  0  0  0  0  0  0  0  0  0
    0.7370    8.6190   -2.0920 C   0  0  0  0  0  0  0  0  0  0  0  0
   -0.1340    9.1200   -0.9800 C   0  0  2  0  0  0  0  0  0  0  0  0
   -0.7440    8.0930   -0.1880 O   0  0  0  0  0  0  0  0  0  0  0  0
   -1.6380    8.9270   -0.9430 C   0  0  0  0  0  0  0  0  0  0  0  0
   -2.3600    8.2080   -2.0390 C   0  0  0  0  0  0  0  0  0  0  0  0
   -2.4580    9.8510   -0.0980 C   0  0  0  0  0  0  0  0  0  0  0  0
    0.8910   11.8690   -3.3150 C   0  0  1  0  0  0  0  0  0  0  0  0
   -0.6240   11.9020   -2.9820 C   0  0  0  0  0  0  0  0  0  0  0  0
   -0.8030   12.9070   -1.8150 C   0  0  0  0  0  0  0  0  0  0  0  0
    0.5460   13.6600   -1.7370 C   0  0  1  0  0  0  0  0  0  0  0  0
    0.4630   14.7470   -2.8540 C   0  0  0  0  0  0  0  0  0  0  0  0
    0.9110   14.2830   -0.3510 C   0  0  2  0  0  0  0  0  0  0  0  0
   -0.0550   15.3710    0.1500 C   0  0  0  0  0  0  0  0  0  0  0  0
    0.2920   16.7660   -0.2520 C   0  0  0  0  0  0  0  0  0  0  0  0
    1.4800   17.1660   -0.7420 C   0  0  0  0  0  0  0  0  0  0  0  0
    2.6600   16.1900   -0.8410 C   0  0  1  0  0  0  0  0  0  0  0  0
    3.9410   16.8680   -0.2870 C   0  0  0  0  0  0  0  0  0  0  0  0
    4.2320   18.2070   -0.9590 C   0  0  0  0  0  0  0  0  0  0  0  0
    3.0600   19.1690   -0.7880 C   0  0  2  0  0  0  0  0  0  0  0  0
    2.9400   19.5090    0.5960 O   0  0  0  0  0  0  0  0  0  0  0  0
    1.7120   18.5910   -1.3030 C   0  0  0  0  0  0  0  0  0  0  0  0
    1.7390   18.5050   -2.8490 C   0  0  0  0  0  0  0  0  0  0  0  0
    0.5900   19.6020   -0.9430 C   0  0  0  0  0  0  0  0  0  0  0  0
    2.4190   14.7460   -0.2250 C   0  0  1  0  0  0  0  0  0  0  0  0
    2.7570   14.7530    1.2970 C   0  0  0  0  0  0  0  0  0  0  0  0
    3.4150   13.7280   -0.8960 C   0  0  0  0  0  0  0  0  0  0  0  0
    2.9470   13.0550   -2.2000 C   0  0  0  0  0  0  0  0  0  0  0  0
    1.5370   12.4790   -2.0450 C   0  0  2  0  0  0  0  0  0  0  0  0
    1.5930   11.3660   -0.9440 C   0  0  0  0  0  0  0  0  0  0  0  0
   -0.4532    9.3271   -3.8883 H   0  0  0  0  0  0  0  0  0  0  0  0
   -0.2319   10.5327   -5.2013 H   0  0  0  0  0  0  0  0  0  0  0  0
    0.7329    9.0175   -5.2013 H   0  0  0  0  0  0  0  0  0  0  0  0
    2.2549   10.5814   -4.3883 H   0  0  0  0  0  0  0  0  0  0  0  0
    2.7194    9.1395   -2.7378 H   0  0  0  0  0  0  0  0  0  0  0  0
    1.8813   10.3664   -1.6723 H   0  0  0  0  0  0  0  0  0  0  0  0
    0.1047    8.3791   -2.9595 H   0  0  0  0  0  0  0  0  0  0  0  0
    1.2705    7.7262   -1.7338 H   0  0  0  0  0  0  0  0  0  0  0  0
    0.4985   10.0113   -0.8552 H   0  0  0  0  0  0  0  0  0  0  0  0
   -3.0751    7.4959   -1.6014 H   0  0  0  0  0  0  0  0  0  0  0  0
   -2.9016    8.9362   -2.6606 H   0  0  0  0  0  0  0  0  0  0  0  0
   -1.6340    7.6634   -2.6606 H   0  0  0  0  0  0  0  0  0  0  0  0
   -2.2702    9.6394    0.9650 H   0  0  0  0  0  0  0  0  0  0  0  0
   -2.1814   10.8925   -0.3190 H   0  0  0  0  0  0  0  0  0  0  0  0
   -3.5250    9.7002   -0.3190 H   0  0  0  0  0  0  0  0  0  0  0  0
    1.1832   12.4501   -4.2021 H   0  0  0  0  0  0  0  0  0  0  0  0
   -1.1977   12.2344   -3.8597 H   0  0  0  0  0  0  0  0  0  0  0  0
   -0.9891   10.9027   -2.7025 H   0  0  0  0  0  0  0  0  0  0  0  0
   -1.6258   13.6056   -2.0271 H   0  0  0  0  0  0  0  0  0  0  0  0
   -1.0562   12.4063   -0.8689 H   0  0  0  0  0  0  0  0  0  0  0  0
    0.3870   15.7424   -2.3920 H   0  0  0  0  0  0  0  0  0  0  0  0
    1.3673   14.7007   -3.4786 H   0  0  0  0  0  0  0  0  0  0  0  0
   -0.4238   14.5640   -3.4786 H   0  0  0  0  0  0  0  0  0  0  0  0
    0.7811   13.4307    0.3321 H   0  0  0  0  0  0  0  0  0  0  0  0
   -1.0568   15.1432   -0.2431 H   0  0  0  0  0  0  0  0  0  0  0  0
    0.0032   15.3474    1.2482 H   0  0  0  0  0  0  0  0  0  0  0  0
   -0.4893   17.5319   -0.1381 H   0  0  0  0  0  0  0  0  0  0  0  0
    2.7859   15.9732   -1.9121 H   0  0  0  0  0  0  0  0  0  0  0  0
    3.8124   17.0358    0.7925 H   0  0  0  0  0  0  0  0  0  0  0  0
    4.7892   16.1990   -0.4946 H   0  0  0  0  0  0  0  0  0  0  0  0
    5.1306   18.6500   -0.5048 H   0  0  0  0  0  0  0  0  0  0  0  0
    4.3899   18.0335   -2.0337 H   0  0  0  0  0  0  0  0  0  0  0  0
    3.2730   20.0590   -1.3984 H   0  0  0  0  0  0  0  0  0  0  0  0
    3.6150   20.1800    0.7940 H   0  0  0  0  0  0  0  0  0  0  0  0
    2.0555   17.4968   -3.1547 H   0  0  0  0  0  0  0  0  0  0  0  0
    0.7334   18.7095   -3.2452 H   0  0  0  0  0  0  0  0  0  0  0  0
    2.4472   19.2476   -3.2452 H   0  0  0  0  0  0  0  0  0  0  0  0
    0.5037   19.6798    0.1508 H   0  0  0  0  0  0  0  0  0  0  0  0
    0.8369   20.5885   -1.3624 H   0  0  0  0  0  0  0  0  0  0  0  0
   -0.3655   19.2540   -1.3624 H   0  0  0  0  0  0  0  0  0  0  0  0
    1.8243   14.7337    1.8798 H   0  0  0  0  0  0  0  0  0  0  0  0
    3.3612   13.8672    1.5425 H   0  0  0  0  0  0  0  0  0  0  0  0
    3.3240   15.6631    1.5425 H   0  0  0  0  0  0  0  0  0  0  0  0
    4.3462   14.2703   -1.1171 H   0  0  0  0  0  0  0  0  0  0  0  0
    3.5200   12.9078   -0.1706 H   0  0  0  0  0  0  0  0  0  0  0  0
    2.9440   13.8007   -3.0086 H   0  0  0  0  0  0  0  0  0  0  0  0
    3.6375   12.2322   -2.4370 H   0  0  0  0  0  0  0  0  0  0  0  0
    1.5695   11.8335    0.0515 H   0  0  0  0  0  0  0  0  0  0  0  0
    0.7274   10.6964   -1.0552 H   0  0  0  0  0  0  0  0  0  0  0  0
    2.5214   10.7866   -1.0552 H   0  0  0  0  0  0  0  0  0  0  0  0
  1  2  1  0
  2  3  1  0
  3  4  1  0
  4  5  1  0
  5  6  1  0
  6  7  1  0
  7  8  1  0
  7  9  1  0
  2 10  1  0
 10 11  1  0
 11 12  1  0
 12 13  1  0
 13 14  1  6
 13 15  1  0
 15 16  1  0
 16 17  1  0
 17 18  2  0
 18 19  1  0
 19 20  1  0
 20 21  1  0
 21 22  1  0
 22 23  1  0
 22 24  1  0
 24 25  1  0
 24 26  1  0
 19 27  1  0
 27 28  1  1
 27 29  1  0
 29 30  1  0
 30 31  1  0
 31 32  1  1
  7  5  1  0
 31 10  1  0
 31 13  1  0
 27 15  1  0
 24 18  1  0
  1 33  1  0
  1 34  1  0
  1 35  1  0
  2 36  1  6
  3 37  1  0
  3 38  1  0
  4 39  1  0
  4 40  1  0
  5 41  1  1
  8 42  1  0
  8 43  1  0
  8 44  1  0
  9 45  1  0
  9 46  1  0
  9 47  1  0
 10 48  1  6
 11 49  1  0
 11 50  1  0
 12 51  1  0
 12 52  1  0
 14 53  1  0
 14 54  1  0
 14 55  1  0
 15 56  1  1
 16 57  1  0
 16 58  1  0
 17 59  1  0
 19 60  1  6
 20 61  1  0
 20 62  1  0
 21 63  1  0
 21 64  1  0
 22 65  1  6
 23 66  1  0
 25 67  1  0
 25 68  1  0
 25 69  1  0
 26 70  1  0
 26 71  1  0
 26 72  1  0
 28 73  1  0
 28 74  1  0
 28 75  1  0
 29 76  1  0
 29 77  1  0
 30 78  1  0
 30 79  1  0
 32 80  1  0
 32 81  1  0
 32 82  1  0
M  END
>  <meeko>  (16) 
{"is_sidechain": [false], "intermolecular_energy": 2.731, "internal_energy": -0.839}

$$$$
EPH_relaxed_0001_pdb2pqr_Repair_264_r2_0001_out
     RDKit          3D

 82 86  0  0  0  0  0  0  0  0999 V2000
   -1.9250    7.9980   -1.8880 C   0  0  0  0  0  0  0  0  0  0  0  0
   -1.9160    8.8270   -0.6010 C   0  0  2  0  0  0  0  0  0  0  0  0
   -3.2980    8.8530    0.0830 C   0  0  0  0  0  0  0  0  0  0  0  0
   -4.4710    8.8480   -0.9000 C   0  0  0  0  0  0  0  0  0  0  0  0
   -5.1320    7.5050   -0.9690 C   0  0  2  0  0  0  0  0  0  0  0  0
   -5.2290    6.9530   -2.2890 O   0  0  0  0  0  0  0  0  0  0  0  0
   -6.4720    7.2650   -1.6380 C   0  0  0  0  0  0  0  0  0  0  0  0
   -7.2330    8.3800   -2.2830 C   0  0  0  0  0  0  0  0  0  0  0  0
   -7.2640    6.0580   -1.2410 C   0  0  0  0  0  0  0  0  0  0  0  0
   -1.4570   10.2490   -0.9020 C   0  0  1  0  0  0  0  0  0  0  0  0
   -1.1020   11.0470    0.3810 C   0  0  0  0  0  0  0  0  0  0  0  0
    0.0820   11.9780    0.0160 C   0  0  0  0  0  0  0  0  0  0  0  0
    0.1520   11.9320   -1.5290 C   0  0  1  0  0  0  0  0  0  0  0  0
   -0.9470   12.9310   -2.0100 C   0  0  0  0  0  0  0  0  0  0  0  0
    1.5430   12.2520   -2.1670 C   0  0  2  0  0  0  0  0  0  0  0  0
    2.0740   13.6700   -1.8970 C   0  0  0  0  0  0  0  0  0  0  0  0
    1.6880   14.6990   -2.9080 C   0  0  0  0  0  0  0  0  0  0  0  0
    1.1880   14.4450   -4.1310 C   0  0  0  0  0  0  0  0  0  0  0  0
    1.0570   13.0050   -4.6450 C   0  0  1  0  0  0  0  0  0  0  0  0
    1.6030   12.9200   -6.0940 C   0  0  0  0  0  0  0  0  0  0  0  0
    0.9480   13.9340   -7.0270 C   0  0  0  0  0  0  0  0  0  0  0  0
    1.1500   15.3570   -6.5130 C   0  0  2  0  0  0  0  0  0  0  0  0
    2.5410   15.6820   -6.5900 O   0  0  0  0  0  0  0  0  0  0  0  0
    0.6450   15.5610   -5.0570 C   0  0  0  0  0  0  0  0  0  0  0  0
   -0.9020   15.5060   -5.0300 C   0  0  0  0  0  0  0  0  0  0  0  0
    1.0360   16.9960   -4.6130 C   0  0  0  0  0  0  0  0  0  0  0  0
    1.6540   11.8750   -3.7000 C   0  0  1  0  0  0  0  0  0  0  0  0
    3.1720   11.6780   -4.0010 C   0  0  0  0  0  0  0  0  0  0  0  0
    0.9540   10.5040   -4.0320 C   0  0  0  0  0  0  0  0  0  0  0  0
   -0.3540   10.1930   -3.2800 C   0  0  0  0  0  0  0  0  0  0  0  0
   -0.1880   10.4170   -1.7740 C   0  0  2  0  0  0  0  0  0  0  0  0
    0.8960    9.4100   -1.2580 C   0  0  0  0  0  0  0  0  0  0  0  0
   -1.9366    6.9276   -1.6346 H   0  0  0  0  0  0  0  0  0  0  0  0
   -2.8205    8.2451   -2.4771 H   0  0  0  0  0  0  0  0  0  0  0  0
   -1.0243    8.2256   -2.4771 H   0  0  0  0  0  0  0  0  0  0  0  0
   -1.2120    8.3486    0.0958 H   0  0  0  0  0  0  0  0  0  0  0  0
   -3.3825    7.9667    0.7290 H   0  0  0  0  0  0  0  0  0  0  0  0
   -3.3582    9.7933    0.6506 H   0  0  0  0  0  0  0  0  0  0  0  0
   -5.2117    9.5933   -0.5746 H   0  0  0  0  0  0  0  0  0  0  0  0
   -4.0809    9.0894   -1.8998 H   0  0  0  0  0  0  0  0  0  0  0  0
   -4.7463    7.2379    0.0259 H   0  0  0  0  0  0  0  0  0  0  0  0
   -7.6715    9.0226   -1.5053 H   0  0  0  0  0  0  0  0  0  0  0  0
   -6.5516    8.9749   -2.9090 H   0  0  0  0  0  0  0  0  0  0  0  0
   -8.0353    7.9623   -2.9090 H   0  0  0  0  0  0  0  0  0  0  0  0
   -7.3071    5.9923   -0.1438 H   0  0  0  0  0  0  0  0  0  0  0  0
   -8.2843    6.1402   -1.6438 H   0  0  0  0  0  0  0  0  0  0  0  0
   -6.7825    5.1547   -1.6438 H   0  0  0  0  0  0  0  0  0  0  0  0
   -2.3395   10.6156   -1.4468 H   0  0  0  0  0  0  0  0  0  0  0  0
   -1.9665   11.6439    0.7070 H   0  0  0  0  0  0  0  0  0  0  0  0
   -0.8323   10.3700    1.2049 H   0  0  0  0  0  0  0  0  0  0  0  0
   -0.1080   13.0034    0.3659 H   0  0  0  0  0  0  0  0  0  0  0  0
    1.0240   11.6592    0.4862 H   0  0  0  0  0  0  0  0  0  0  0  0
   -1.4416   13.3806   -1.1363 H   0  0  0  0  0  0  0  0  0  0  0  0
   -0.4828   13.7228   -2.6163 H   0  0  0  0  0  0  0  0  0  0  0  0
   -1.6910   12.3936   -2.6163 H   0  0  0  0  0  0  0  0  0  0  0  0
    2.2151   11.5732   -1.6214 H   0  0  0  0  0  0  0  0  0  0  0  0
    1.6920   13.9953   -0.9181 H   0  0  0  0  0  0  0  0  0  0  0  0
    3.1708   13.5975   -1.9401 H   0  0  0  0  0  0  0  0  0  0  0  0
    1.8240   15.7543   -2.6291 H   0  0  0  0  0  0  0  0  0  0  0  0
   -0.0190   12.7766   -4.6386 H   0  0  0  0  0  0  0  0  0  0  0  0
    2.6866   13.1080   -6.0740 H   0  0  0  0  0  0  0  0  0  0  0  0
    1.3731   11.9155   -6.4788 H   0  0  0  0  0  0  0  0  0  0  0  0
    1.3968   13.8453   -8.0274 H   0  0  0  0  0  0  0  0  0  0  0  0
   -0.1313   13.7258   -7.0702 H   0  0  0  0  0  0  0  0  0  0  0  0
    0.5503   16.0250   -7.1487 H   0  0  0  0  0  0  0  0  0  0  0  0
    3.0420   14.8970   -6.3130 H   0  0  0  0  0  0  0  0  0  0  0  0
   -1.2503   15.4936   -3.9867 H   0  0  0  0  0  0  0  0  0  0  0  0
   -1.3093   16.3902   -5.5421 H   0  0  0  0  0  0  0  0  0  0  0  0
   -1.2455   14.5951   -5.5421 H   0  0  0  0  0  0  0  0  0  0  0  0
    1.0504   17.0488   -3.5144 H   0  0  0  0  0  0  0  0  0  0  0  0
    2.0339   17.2420   -5.0050 H   0  0  0  0  0  0  0  0  0  0  0  0
    0.3008   17.7142   -5.0050 H   0  0  0  0  0  0  0  0  0  0  0  0
    3.7272   11.6059   -3.0541 H   0  0  0  0  0  0  0  0  0  0  0  0
    3.3140   10.7539   -4.5805 H   0  0  0  0  0  0  0  0  0  0  0  0
    3.5452   12.5353   -4.5805 H   0  0  0  0  0  0  0  0  0  0  0  0
    0.7287   10.4973   -5.1087 H   0  0  0  0  0  0  0  0  0  0  0  0
    1.6650    9.7308   -3.7055 H   0  0  0  0  0  0  0  0  0  0  0  0
   -1.1505   10.8519   -3.6560 H   0  0  0  0  0  0  0  0  0  0  0  0
   -0.6140    9.1379   -3.4508 H   0  0  0  0  0  0  0  0  0  0  0  0
    0.8994    9.4068   -0.1580 H   0  0  0  0  0  0  0  0  0  0  0  0
    0.6635    8.4001   -1.6269 H   0  0  0  0  0  0  0  0  0  0  0  0
    1.8860    9.7162   -1.6269 H   0  0  0  0  0  0  0  0  0  0  0  0
  1  2  1  0
  2  3  1  0
  3  4  1  0
  4  5  1  0
  5  6  1  0
  6  7  1  0
  7  8  1  0
  7  9  1  0
  2 10  1  0
 10 11  1  0
 11 12  1  0
 12 13  1  0
 13 14  1  6
 13 15  1  0
 15 16  1  0
 16 17  1  0
 17 18  2  0
 18 19  1  0
 19 20  1  0
 20 21  1  0
 21 22  1  0
 22 23  1  0
 22 24  1  0
 24 25  1  0
 24 26  1  0
 19 27  1  0
 27 28  1  6
 27 29  1  0
 29 30  1  0
 30 31  1  0
 31 32  1  1
  7  5  1  0
 31 10  1  0
 31 13  1  0
 27 15  1  0
 24 18  1  0
  1 33  1  0
  1 34  1  0
  1 35  1  0
  2 36  1  1
  3 37  1  0
  3 38  1  0
  4 39  1  0
  4 40  1  0
  5 41  1  1
  8 42  1  0
  8 43  1  0
  8 44  1  0
  9 45  1  0
  9 46  1  0
  9 47  1  0
 10 48  1  6
 11 49  1  0
 11 50  1  0
 12 51  1  0
 12 52  1  0
 14 53  1  0
 14 54  1  0
 14 55  1  0
 15 56  1  1
 16 57  1  0
 16 58  1  0
 17 59  1  0
 19 60  1  6
 20 61  1  0
 20 62  1  0
 21 63  1  0
 21 64  1  0
 22 65  1  6
 23 66  1  0
 25 67  1  0
 25 68  1  0
 25 69  1  0
 26 70  1  0
 26 71  1  0
 26 72  1  0
 28 73  1  0
 28 74  1  0
 28 75  1  0
 29 76  1  0
 29 77  1  0
 30 78  1  0
 30 79  1  0
 32 80  1  0
 32 81  1  0
 32 82  1  0
M  END
>  <meeko>  (17) 
{"is_sidechain": [false], "intermolecular_energy": 2.731, "internal_energy": -0.839}

$$$$
