EPH_relaxed_0001_pdb2pqr_Repair_405_r2_0001_out
     RDKit          3D

 82 86  0  0  0  0  0  0  0  0999 V2000
   -1.7100    8.5750   -1.8590 C   0  0  0  0  0  0  0  0  0  0  0  0
   -2.0970    9.0990   -0.4730 C   0  0  2  0  0  0  0  0  0  0  0  0
   -3.5910    9.4690   -0.3890 C   0  0  0  0  0  0  0  0  0  0  0  0
   -4.5160    8.2610   -0.2200 C   0  0  0  0  0  0  0  0  0  0  0  0
   -5.2090    7.9100   -1.5020 C   0  0  2  0  0  0  0  0  0  0  0  0
   -6.3440    8.7290   -1.8130 O   0  0  0  0  0  0  0  0  0  0  0  0
   -6.6140    7.3400   -1.5650 C   0  0  0  0  0  0  0  0  0  0  0  0
   -7.4090    7.0870   -0.3230 C   0  0  0  0  0  0  0  0  0  0  0  0
   -7.0230    6.5780   -2.7870 C   0  0  0  0  0  0  0  0  0  0  0  0
   -1.2400   10.3080   -0.1180 C   0  0  1  0  0  0  0  0  0  0  0  0
   -0.2210   10.0070    1.0140 C   0  0  0  0  0  0  0  0  0  0  0  0
    1.0530   10.8310    0.7000 C   0  0  0  0  0  0  0  0  0  0  0  0
    0.6140   11.8240   -0.4010 C   0  0  1  0  0  0  0  0  0  0  0  0
   -0.0990   12.9820    0.3640 C   0  0  0  0  0  0  0  0  0  0  0  0
    1.7450   12.3610   -1.3380 C   0  0  2  0  0  0  0  0  0  0  0  0
    2.8420   13.1790   -0.6340 C   0  0  0  0  0  0  0  0  0  0  0  0
    2.5920   14.6490   -0.5590 C   0  0  0  0  0  0  0  0  0  0  0  0
    1.6780   15.3250   -1.2800 C   0  0  0  0  0  0  0  0  0  0  0  0
    0.8440   14.6180   -2.3560 C   0  0  1  0  0  0  0  0  0  0  0  0
    0.8330   15.4750   -3.6490 C   0  0  0  0  0  0  0  0  0  0  0  0
    0.3680   16.9070   -3.3970 C   0  0  0  0  0  0  0  0  0  0  0  0
    1.2570   17.5950   -2.3650 C   0  0  2  0  0  0  0  0  0  0  0  0
    2.5660   17.7600   -2.9200 O   0  0  0  0  0  0  0  0  0  0  0  0
    1.3530   16.8170   -1.0230 C   0  0  0  0  0  0  0  0  0  0  0  0
   -0.0010   16.8980   -0.2760 C   0  0  0  0  0  0  0  0  0  0  0  0
    2.3890   17.5430   -0.1230 C   0  0  0  0  0  0  0  0  0  0  0  0
    1.2170   13.0980   -2.6350 C   0  0  1  0  0  0  0  0  0  0  0  0
    2.3620   13.0160   -3.6910 C   0  0  0  0  0  0  0  0  0  0  0  0
   -0.0270   12.3720   -3.2710 C   0  0  0  0  0  0  0  0  0  0  0  0
   -1.0470   11.7580   -2.2940 C   0  0  0  0  0  0  0  0  0  0  0  0
   -0.3460   10.9010   -1.2360 C   0  0  2  0  0  0  0  0  0  0  0  0
    0.3620    9.7140   -1.9740 C   0  0  0  0  0  0  0  0  0  0  0  0
   -1.0597    7.6945   -1.7497 H   0  0  0  0  0  0  0  0  0  0  0  0
   -2.6186    8.2935   -2.4114 H   0  0  0  0  0  0  0  0  0  0  0  0
   -1.1737    9.3606   -2.4114 H   0  0  0  0  0  0  0  0  0  0  0  0
   -1.9166    8.2898    0.2499 H   0  0  0  0  0  0  0  0  0  0  0  0
   -3.7348   10.1394    0.4711 H   0  0  0  0  0  0  0  0  0  0  0  0
   -3.8578    9.9469   -1.3432 H   0  0  0  0  0  0  0  0  0  0  0  0
   -3.9189    7.3982    0.1103 H   0  0  0  0  0  0  0  0  0  0  0  0
   -5.2831    8.5180    0.5254 H   0  0  0  0  0  0  0  0  0  0  0  0
   -4.2599    7.5850   -1.9533 H   0  0  0  0  0  0  0  0  0  0  0  0
   -6.7835    7.2861    0.5597 H   0  0  0  0  0  0  0  0  0  0  0  0
   -8.2864    7.7503   -0.3078 H   0  0  0  0  0  0  0  0  0  0  0  0
   -7.7416    6.0386   -0.3078 H   0  0  0  0  0  0  0  0  0  0  0  0
   -7.5235    5.6455   -2.4872 H   0  0  0  0  0  0  0  0  0  0  0  0
   -7.7144    7.1891   -3.3859 H   0  0  0  0  0  0  0  0  0  0  0  0
   -6.1316    6.3396   -3.3859 H   0  0  0  0  0  0  0  0  0  0  0  0
   -2.0329   11.0224    0.1483 H   0  0  0  0  0  0  0  0  0  0  0  0
   -0.6363   10.3078    1.9872 H   0  0  0  0  0  0  0  0  0  0  0  0
    0.0067    8.9320    1.0646 H   0  0  0  0  0  0  0  0  0  0  0  0
    1.3968   11.3705    1.5948 H   0  0  0  0  0  0  0  0  0  0  0  0
    1.8917   10.1960    0.3786 H   0  0  0  0  0  0  0  0  0  0  0  0
    0.0000   12.8211    1.4477 H   0  0  0  0  0  0  0  0  0  0  0  0
    0.3649   13.9415    0.0918 H   0  0  0  0  0  0  0  0  0  0  0  0
   -1.1646   12.9997    0.0918 H   0  0  0  0  0  0  0  0  0  0  0  0
    2.2327   11.4341   -1.6740 H   0  0  0  0  0  0  0  0  0  0  0  0
    2.9434   12.7986    0.3931 H   0  0  0  0  0  0  0  0  0  0  0  0
    3.7509   13.0554   -1.2412 H   0  0  0  0  0  0  0  0  0  0  0  0
    3.2068   15.2289    0.1451 H   0  0  0  0  0  0  0  0  0  0  0  0
   -0.1753   14.5424   -1.9495 H   0  0  0  0  0  0  0  0  0  0  0  0
    1.8519   15.5026   -4.0627 H   0  0  0  0  0  0  0  0  0  0  0  0
    0.1240   15.0119   -4.3510 H   0  0  0  0  0  0  0  0  0  0  0  0
    0.4095   17.4704   -4.3408 H   0  0  0  0  0  0  0  0  0  0  0  0
   -0.6616   16.8792   -3.0109 H   0  0  0  0  0  0  0  0  0  0  0  0
    0.7990   18.5676   -2.1317 H   0  0  0  0  0  0  0  0  0  0  0  0
    3.1250   17.0450   -2.5730 H   0  0  0  0  0  0  0  0  0  0  0  0
    0.1778   16.8873    0.8093 H   0  0  0  0  0  0  0  0  0  0  0  0
   -0.5177   17.8287   -0.5533 H   0  0  0  0  0  0  0  0  0  0  0  0
   -0.6249   16.0356   -0.5533 H   0  0  0  0  0  0  0  0  0  0  0  0
    2.1413   17.3694    0.9346 H   0  0  0  0  0  0  0  0  0  0  0  0
    3.3953   17.1514   -0.3330 H   0  0  0  0  0  0  0  0  0  0  0  0
    2.3644   18.6225   -0.3330 H   0  0  0  0  0  0  0  0  0  0  0  0
    3.3315   12.9466   -3.1760 H   0  0  0  0  0  0  0  0  0  0  0  0
    2.2168   12.1260   -4.3209 H   0  0  0  0  0  0  0  0  0  0  0  0
    2.3452   13.9177   -4.3209 H   0  0  0  0  0  0  0  0  0  0  0  0
   -0.5608   13.1077   -3.8905 H   0  0  0  0  0  0  0  0  0  0  0  0
    0.3903   11.5185   -3.8255 H   0  0  0  0  0  0  0  0  0  0  0  0
   -1.5983   12.5677   -1.7936 H   0  0  0  0  0  0  0  0  0  0  0  0
   -1.7363   11.1174   -2.8636 H   0  0  0  0  0  0  0  0  0  0  0  0
    0.7779    9.0167   -1.2319 H   0  0  0  0  0  0  0  0  0  0  0  0
   -0.3688    9.1859   -2.6041 H   0  0  0  0  0  0  0  0  0  0  0  0
    1.1739   10.1061   -2.6041 H   0  0  0  0  0  0  0  0  0  0  0  0
  1  2  1  0
  2  3  1  0
  3  4  1  0
  4  5  1  0
  5  6  1  0
  6  7  1  0
  7  8  1  0
  7  9  1  0
  2 10  1  0
 10 11  1  0
 11 12  1  0
 12 13  1  0
 13 14  1  1
 13 15  1  0
 15 16  1  0
 16 17  1  0
 17 18  2  0
 18 19  1  0
 19 20  1  0
 20 21  1  0
 21 22  1  0
 22 23  1  0
 22 24  1  0
 24 25  1  0
 24 26  1  0
 19 27  1  0
 27 28  1  6
 27 29  1  0
 29 30  1  0
 30 31  1  0
 31 32  1  6
  7  5  1  0
 31 10  1  0
 31 13  1  0
 27 15  1  0
 24 18  1  0
  1 33  1  0
  1 34  1  0
  1 35  1  0
  2 36  1  1
  3 37  1  0
  3 38  1  0
  4 39  1  0
  4 40  1  0
  5 41  1  6
  8 42  1  0
  8 43  1  0
  8 44  1  0
  9 45  1  0
  9 46  1  0
  9 47  1  0
 10 48  1  1
 11 49  1  0
 11 50  1  0
 12 51  1  0
 12 52  1  0
 14 53  1  0
 14 54  1  0
 14 55  1  0
 15 56  1  6
 16 57  1  0
 16 58  1  0
 17 59  1  0
 19 60  1  1
 20 61  1  0
 20 62  1  0
 21 63  1  0
 21 64  1  0
 22 65  1  1
 23 66  1  0
 25 67  1  0
 25 68  1  0
 25 69  1  0
 26 70  1  0
 26 71  1  0
 26 72  1  0
 28 73  1  0
 28 74  1  0
 28 75  1  0
 29 76  1  0
 29 77  1  0
 30 78  1  0
 30 79  1  0
 32 80  1  0
 32 81  1  0
 32 82  1  0
M  END
>  <meeko>  (1) 
{"is_sidechain": [false], "intermolecular_energy": 2.731, "internal_energy": -0.839}

$$$$
EPH_relaxed_0001_pdb2pqr_Repair_405_r2_0001_out
     RDKit          3D

 82 86  0  0  0  0  0  0  0  0999 V2000
    1.9630   19.6460   -0.5930 C   0  0  0  0  0  0  0  0  0  0  0  0
    2.3770   18.4210    0.2280 C   0  0  2  0  0  0  0  0  0  0  0  0
    3.8290   17.9910   -0.0620 C   0  0  0  0  0  0  0  0  0  0  0  0
    4.7830   18.2140    1.1150 C   0  0  0  0  0  0  0  0  0  0  0  0
    4.1230   18.9700    2.2280 C   0  0  2  0  0  0  0  0  0  0  0  0
    4.7980   20.1750    2.6150 O   0  0  0  0  0  0  0  0  0  0  0  0
    4.7370   19.1360    3.6060 C   0  0  0  0  0  0  0  0  0  0  0  0
    6.0670   18.5390    3.9440 C   0  0  0  0  0  0  0  0  0  0  0  0
    3.8350   19.4530    4.7570 C   0  0  0  0  0  0  0  0  0  0  0  0
    1.4260   17.2630   -0.0510 C   0  0  1  0  0  0  0  0  0  0  0  0
    0.1500   17.7090   -0.8140 C   0  0  0  0  0  0  0  0  0  0  0  0
   -0.2340   16.5440   -1.7630 C   0  0  0  0  0  0  0  0  0  0  0  0
    0.6240   15.3500   -1.2810 C   0  0  1  0  0  0  0  0  0  0  0  0
   -0.1470   14.7720   -0.0540 C   0  0  0  0  0  0  0  0  0  0  0  0
    0.9290   14.2460   -2.3450 C   0  0  2  0  0  0  0  0  0  0  0  0
   -0.3060   13.5100   -2.8940 C   0  0  0  0  0  0  0  0  0  0  0  0
   -0.7030   12.2820   -2.1440 C   0  0  0  0  0  0  0  0  0  0  0  0
    0.0630   11.6290   -1.2500 C   0  0  0  0  0  0  0  0  0  0  0  0
    1.5120   12.0630   -0.9890 C   0  0  1  0  0  0  0  0  0  0  0  0
    2.4340   10.8160   -0.9880 C   0  0  0  0  0  0  0  0  0  0  0  0
    1.9620    9.7400   -0.0130 C   0  0  0  0  0  0  0  0  0  0  0  0
    0.5390    9.2940   -0.3410 C   0  0  2  0  0  0  0  0  0  0  0  0
    0.5470    8.6210   -1.6040 O   0  0  0  0  0  0  0  0  0  0  0  0
   -0.4780   10.4680   -0.3810 C   0  0  0  0  0  0  0  0  0  0  0  0
   -0.7120   11.0030    1.0540 C   0  0  0  0  0  0  0  0  0  0  0  0
   -1.8420    9.9020   -0.8600 C   0  0  0  0  0  0  0  0  0  0  0  0
    2.0640   13.2290   -1.9170 C   0  0  1  0  0  0  0  0  0  0  0  0
    2.6460   12.6310   -3.2340 C   0  0  0  0  0  0  0  0  0  0  0  0
    3.2620   13.9440   -1.1860 C   0  0  0  0  0  0  0  0  0  0  0  0
    2.9050   15.1060   -0.2400 C   0  0  0  0  0  0  0  0  0  0  0  0
    1.9590   16.0980   -0.9230 C   0  0  2  0  0  0  0  0  0  0  0  0
    2.7160   16.7140   -2.1490 C   0  0  0  0  0  0  0  0  0  0  0  0
    1.6859   20.4659    0.0860 H   0  0  0  0  0  0  0  0  0  0  0  0
    2.8037   19.9635   -1.2273 H   0  0  0  0  0  0  0  0  0  0  0  0
    1.1020   19.3884   -1.2273 H   0  0  0  0  0  0  0  0  0  0  0  0
    2.3214   18.7007    1.2904 H   0  0  0  0  0  0  0  0  0  0  0  0
    3.8307   16.9199   -0.3125 H   0  0  0  0  0  0  0  0  0  0  0  0
    4.1901   18.6162   -0.8919 H   0  0  0  0  0  0  0  0  0  0  0  0
    5.1143   17.2365    1.4954 H   0  0  0  0  0  0  0  0  0  0  0  0
    5.6369   18.8076    0.7565 H   0  0  0  0  0  0  0  0  0  0  0  0
    3.1287   18.6336    1.8992 H   0  0  0  0  0  0  0  0  0  0  0  0
    6.1792   18.4886    5.0371 H   0  0  0  0  0  0  0  0  0  0  0  0
    6.1319   17.5254    3.5217 H   0  0  0  0  0  0  0  0  0  0  0  0
    6.8675   19.1641    3.5217 H   0  0  0  0  0  0  0  0  0  0  0  0
    4.3666   19.2662    5.7017 H   0  0  0  0  0  0  0  0  0  0  0  0
    3.5354   20.5103    4.7077 H   0  0  0  0  0  0  0  0  0  0  0  0
    2.9399   18.8156    4.7077 H   0  0  0  0  0  0  0  0  0  0  0  0
    1.2538   16.9142    0.9779 H   0  0  0  0  0  0  0  0  0  0  0  0
   -0.6671   17.9042   -0.1039 H   0  0  0  0  0  0  0  0  0  0  0  0
    0.3311   18.6353   -1.3790 H   0  0  0  0  0  0  0  0  0  0  0  0
   -1.3058   16.3113   -1.6785 H   0  0  0  0  0  0  0  0  0  0  0  0
   -0.0520   16.7891   -2.8198 H   0  0  0  0  0  0  0  0  0  0  0  0
    0.3244   15.1254    0.8749 H   0  0  0  0  0  0  0  0  0  0  0  0
   -1.1932   15.1102   -0.0859 H   0  0  0  0  0  0  0  0  0  0  0  0
   -0.1158   13.6729   -0.0859 H   0  0  0  0  0  0  0  0  0  0  0  0
    1.3262   14.8329   -3.1863 H   0  0  0  0  0  0  0  0  0  0  0  0
   -1.1548   14.2094   -2.8744 H   0  0  0  0  0  0  0  0  0  0  0  0
   -0.0348   13.1739   -3.9057 H   0  0  0  0  0  0  0  0  0  0  0  0
   -1.7067   11.8761   -2.3383 H   0  0  0  0  0  0  0  0  0  0  0  0
    1.5148   12.5298    0.0070 H   0  0  0  0  0  0  0  0  0  0  0  0
    2.4519   10.3898   -2.0019 H   0  0  0  0  0  0  0  0  0  0  0  0
    3.4350   11.1410   -0.6679 H   0  0  0  0  0  0  0  0  0  0  0  0
    2.6356    8.8729   -0.0798 H   0  0  0  0  0  0  0  0  0  0  0  0
    1.9736   10.1580    1.0044 H   0  0  0  0  0  0  0  0  0  0  0  0
    0.2098    8.6224    0.4656 H   0  0  0  0  0  0  0  0  0  0  0  0
   -0.2420    8.9070   -2.0950 H   0  0  0  0  0  0  0  0  0  0  0  0
   -0.3824   10.2495    1.7845 H   0  0  0  0  0  0  0  0  0  0  0  0
   -0.1370   11.9296    1.1982 H   0  0  0  0  0  0  0  0  0  0  0  0
   -1.7827   11.2098    1.1982 H   0  0  0  0  0  0  0  0  0  0  0  0
   -2.4597    9.6457    0.0134 H   0  0  0  0  0  0  0  0  0  0  0  0
   -2.3606   10.6592   -1.4664 H   0  0  0  0  0  0  0  0  0  0  0  0
   -1.6721    9.0001   -1.4664 H   0  0  0  0  0  0  0  0  0  0  0  0
    3.3939   11.8626   -2.9887 H   0  0  0  0  0  0  0  0  0  0  0  0
    1.8337   12.1778   -3.8213 H   0  0  0  0  0  0  0  0  0  0  0  0
    3.1210   13.4307   -3.8213 H   0  0  0  0  0  0  0  0  0  0  0  0
    3.7918   13.1835   -0.5936 H   0  0  0  0  0  0  0  0  0  0  0  0
    3.8582   14.4004   -1.9899 H   0  0  0  0  0  0  0  0  0  0  0  0
    2.4150   14.7015    0.6579 H   0  0  0  0  0  0  0  0  0  0  0  0
    3.8308   15.6343    0.0315 H   0  0  0  0  0  0  0  0  0  0  0  0
    3.5225   17.3703   -1.7900 H   0  0  0  0  0  0  0  0  0  0  0  0
    3.1453   15.9054   -2.7588 H   0  0  0  0  0  0  0  0  0  0  0  0
    2.0116   17.2987   -2.7588 H   0  0  0  0  0  0  0  0  0  0  0  0
  1  2  1  0
  2  3  1  0
  3  4  1  0
  4  5  1  0
  5  6  1  0
  6  7  1  0
  7  8  1  0
  7  9  1  0
  2 10  1  0
 10 11  1  0
 11 12  1  0
 12 13  1  0
 13 14  1  1
 13 15  1  0
 15 16  1  0
 16 17  1  0
 17 18  2  0
 18 19  1  0
 19 20  1  0
 20 21  1  0
 21 22  1  0
 22 23  1  0
 22 24  1  0
 24 25  1  0
 24 26  1  0
 19 27  1  0
 27 28  1  6
 27 29  1  0
 29 30  1  0
 30 31  1  0
 31 32  1  6
  7  5  1  0
 31 10  1  0
 31 13  1  0
 27 15  1  0
 24 18  1  0
  1 33  1  0
  1 34  1  0
  1 35  1  0
  2 36  1  1
  3 37  1  0
  3 38  1  0
  4 39  1  0
  4 40  1  0
  5 41  1  1
  8 42  1  0
  8 43  1  0
  8 44  1  0
  9 45  1  0
  9 46  1  0
  9 47  1  0
 10 48  1  1
 11 49  1  0
 11 50  1  0
 12 51  1  0
 12 52  1  0
 14 53  1  0
 14 54  1  0
 14 55  1  0
 15 56  1  6
 16 57  1  0
 16 58  1  0
 17 59  1  0
 19 60  1  1
 20 61  1  0
 20 62  1  0
 21 63  1  0
 21 64  1  0
 22 65  1  1
 23 66  1  0
 25 67  1  0
 25 68  1  0
 25 69  1  0
 26 70  1  0
 26 71  1  0
 26 72  1  0
 28 73  1  0
 28 74  1  0
 28 75  1  0
 29 76  1  0
 29 77  1  0
 30 78  1  0
 30 79  1  0
 32 80  1  0
 32 81  1  0
 32 82  1  0
M  END
>  <meeko>  (2) 
{"is_sidechain": [false], "intermolecular_energy": 2.731, "internal_energy": -0.839}

$$$$
EPH_relaxed_0001_pdb2pqr_Repair_405_r2_0001_out
     RDKit          3D

 82 86  0  0  0  0  0  0  0  0999 V2000
    0.4300   18.4200   -0.0600 C   0  0  0  0  0  0  0  0  0  0  0  0
    1.5060   17.3470   -0.2480 C   0  0  2  0  0  0  0  0  0  0  0  0
    2.7340   17.8830   -1.0110 C   0  0  0  0  0  0  0  0  0  0  0  0
    3.9640   18.0970   -0.1260 C   0  0  0  0  0  0  0  0  0  0  0  0
    3.5860   18.5810    1.2410 C   0  0  2  0  0  0  0  0  0  0  0  0
    3.8120   19.9790    1.4640 O   0  0  0  0  0  0  0  0  0  0  0  0
    4.5940   19.0760    2.2620 C   0  0  0  0  0  0  0  0  0  0  0  0
    6.0590   19.1100    1.9580 C   0  0  0  0  0  0  0  0  0  0  0  0
    4.2120   19.0630    3.7090 C   0  0  0  0  0  0  0  0  0  0  0  0
    0.9200   16.1460   -0.9810 C   0  0  1  0  0  0  0  0  0  0  0  0
    0.7580   16.3970   -2.5040 C   0  0  0  0  0  0  0  0  0  0  0  0
    1.0360   15.0460   -3.2110 C   0  0  0  0  0  0  0  0  0  0  0  0
    1.0210   13.9990   -2.0730 C   0  0  1  0  0  0  0  0  0  0  0  0
   -0.4910   13.7000   -1.8230 C   0  0  0  0  0  0  0  0  0  0  0  0
    1.8330   12.6880   -2.3290 C   0  0  2  0  0  0  0  0  0  0  0  0
    1.3400   11.8350   -3.5110 C   0  0  0  0  0  0  0  0  0  0  0  0
    0.3180   10.8020   -3.1700 C   0  0  0  0  0  0  0  0  0  0  0  0
    0.0240   10.3730   -1.9280 C   0  0  0  0  0  0  0  0  0  0  0  0
    0.8190   10.8700   -0.7140 C   0  0  1  0  0  0  0  0  0  0  0  0
    1.1970    9.6640    0.1850 C   0  0  0  0  0  0  0  0  0  0  0  0
   -0.0150    8.8280    0.5840 C   0  0  0  0  0  0  0  0  0  0  0  0
   -0.7460    8.3040   -0.6490 C   0  0  2  0  0  0  0  0  0  0  0  0
    0.1000    7.3670   -1.3230 O   0  0  0  0  0  0  0  0  0  0  0  0
   -1.1690    9.4290   -1.6350 C   0  0  0  0  0  0  0  0  0  0  0  0
   -2.3100   10.2680   -1.0090 C   0  0  0  0  0  0  0  0  0  0  0  0
   -1.7680    8.7560   -2.8990 C   0  0  0  0  0  0  0  0  0  0  0  0
    2.0630   11.8050   -1.0360 C   0  0  1  0  0  0  0  0  0  0  0  0
    3.3270   10.9340   -1.3100 C   0  0  0  0  0  0  0  0  0  0  0  0
    2.3920   12.6770    0.2330 C   0  0  0  0  0  0  0  0  0  0  0  0
    1.6440   14.0170    0.3680 C   0  0  0  0  0  0  0  0  0  0  0  0
    1.7230   14.8220   -0.9330 C   0  0  2  0  0  0  0  0  0  0  0  0
    3.2300   15.1560   -1.1990 C   0  0  0  0  0  0  0  0  0  0  0  0
    0.2625   18.5870    1.0143 H   0  0  0  0  0  0  0  0  0  0  0  0
    0.7614   19.3579   -0.5296 H   0  0  0  0  0  0  0  0  0  0  0  0
   -0.5070   18.0859   -0.5296 H   0  0  0  0  0  0  0  0  0  0  0  0
    1.8470   17.0416    0.7522 H   0  0  0  0  0  0  0  0  0  0  0  0
    2.9949   17.1616   -1.7994 H   0  0  0  0  0  0  0  0  0  0  0  0
    2.4555   18.8667   -1.4170 H   0  0  0  0  0  0  0  0  0  0  0  0
    4.5042   17.1436   -0.0298 H   0  0  0  0  0  0  0  0  0  0  0  0
    4.5969   18.8629   -0.5980 H   0  0  0  0  0  0  0  0  0  0  0  0
    2.7742   17.8415    1.3044 H   0  0  0  0  0  0  0  0  0  0  0  0
    6.6285   19.1232    2.8990 H   0  0  0  0  0  0  0  0  0  0  0  0
    6.3335   18.2180    1.3758 H   0  0  0  0  0  0  0  0  0  0  0  0
    6.2918   20.0138    1.3758 H   0  0  0  0  0  0  0  0  0  0  0  0
    5.1205   19.0939    4.3284 H   0  0  0  0  0  0  0  0  0  0  0  0
    3.5868   19.9404    3.9311 H   0  0  0  0  0  0  0  0  0  0  0  0
    3.6479   18.1451    3.9311 H   0  0  0  0  0  0  0  0  0  0  0  0
   -0.0233   16.0337   -0.4264 H   0  0  0  0  0  0  0  0  0  0  0  0
   -0.2644   16.7372   -2.7254 H   0  0  0  0  0  0  0  0  0  0  0  0
    1.4524   17.1757   -2.8524 H   0  0  0  0  0  0  0  0  0  0  0  0
    0.2521   14.8265   -3.9508 H   0  0  0  0  0  0  0  0  0  0  0  0
    1.9891   15.0512   -3.7601 H   0  0  0  0  0  0  0  0  0  0  0  0
   -0.6832   13.6620   -0.7406 H   0  0  0  0  0  0  0  0  0  0  0  0
   -1.1017   14.4948   -2.2761 H   0  0  0  0  0  0  0  0  0  0  0  0
   -0.7533   12.7326   -2.2761 H   0  0  0  0  0  0  0  0  0  0  0  0
    2.8173   13.0758   -2.6304 H   0  0  0  0  0  0  0  0  0  0  0  0
    0.9022   12.5120   -4.2593 H   0  0  0  0  0  0  0  0  0  0  0  0
    2.2193   11.2839   -3.8759 H   0  0  0  0  0  0  0  0  0  0  0  0
   -0.2422   10.3534   -4.0036 H   0  0  0  0  0  0  0  0  0  0  0  0
    0.1477   11.5479   -0.1666 H   0  0  0  0  0  0  0  0  0  0  0  0
    1.9023    9.0227   -0.3639 H   0  0  0  0  0  0  0  0  0  0  0  0
    1.6451   10.0629    1.1070 H   0  0  0  0  0  0  0  0  0  0  0  0
    0.3204    7.9756    1.1930 H   0  0  0  0  0  0  0  0  0  0  0  0
   -0.7058    9.4629    1.1583 H   0  0  0  0  0  0  0  0  0  0  0  0
   -1.6738    7.8247   -0.3033 H   0  0  0  0  0  0  0  0  0  0  0  0
    0.8140    7.1220   -0.7100 H   0  0  0  0  0  0  0  0  0  0  0  0
   -2.2424   10.2183    0.0878 H   0  0  0  0  0  0  0  0  0  0  0  0
   -2.2170   11.3144   -1.3350 H   0  0  0  0  0  0  0  0  0  0  0  0
   -3.2811    9.8673   -1.3350 H   0  0  0  0  0  0  0  0  0  0  0  0
   -2.4710    7.9662   -2.5956 H   0  0  0  0  0  0  0  0  0  0  0  0
   -2.2997    9.5096   -3.4986 H   0  0  0  0  0  0  0  0  0  0  0  0
   -0.9579    8.3153   -3.4986 H   0  0  0  0  0  0  0  0  0  0  0  0
    3.7743   10.6258   -0.3535 H   0  0  0  0  0  0  0  0  0  0  0  0
    3.0396   10.0413   -1.8849 H   0  0  0  0  0  0  0  0  0  0  0  0
    4.0588   11.5204   -1.8849 H   0  0  0  0  0  0  0  0  0  0  0  0
    2.1563   12.0733    1.1218 H   0  0  0  0  0  0  0  0  0  0  0  0
    3.4527   12.9488    0.1283 H   0  0  0  0  0  0  0  0  0  0  0  0
    0.5884   13.8177    0.6044 H   0  0  0  0  0  0  0  0  0  0  0  0
    2.1145   14.6021    1.1719 H   0  0  0  0  0  0  0  0  0  0  0  0
    3.7547   15.2723   -0.2392 H   0  0  0  0  0  0  0  0  0  0  0  0
    3.6911   14.3383   -1.7723 H   0  0  0  0  0  0  0  0  0  0  0  0
    3.3025   16.0920   -1.7723 H   0  0  0  0  0  0  0  0  0  0  0  0
  1  2  1  0
  2  3  1  0
  3  4  1  0
  4  5  1  0
  5  6  1  0
  6  7  1  0
  7  8  1  0
  7  9  1  0
  2 10  1  0
 10 11  1  0
 11 12  1  0
 12 13  1  0
 13 14  1  1
 13 15  1  0
 15 16  1  0
 16 17  1  0
 17 18  2  0
 18 19  1  0
 19 20  1  0
 20 21  1  0
 21 22  1  0
 22 23  1  0
 22 24  1  0
 24 25  1  0
 24 26  1  0
 19 27  1  0
 27 28  1  6
 27 29  1  0
 29 30  1  0
 30 31  1  0
 31 32  1  6
  7  5  1  0
 31 10  1  0
 31 13  1  0
 27 15  1  0
 24 18  1  0
  1 33  1  0
  1 34  1  0
  1 35  1  0
  2 36  1  1
  3 37  1  0
  3 38  1  0
  4 39  1  0
  4 40  1  0
  5 41  1  1
  8 42  1  0
  8 43  1  0
  8 44  1  0
  9 45  1  0
  9 46  1  0
  9 47  1  0
 10 48  1  1
 11 49  1  0
 11 50  1  0
 12 51  1  0
 12 52  1  0
 14 53  1  0
 14 54  1  0
 14 55  1  0
 15 56  1  6
 16 57  1  0
 16 58  1  0
 17 59  1  0
 19 60  1  1
 20 61  1  0
 20 62  1  0
 21 63  1  0
 21 64  1  0
 22 65  1  1
 23 66  1  0
 25 67  1  0
 25 68  1  0
 25 69  1  0
 26 70  1  0
 26 71  1  0
 26 72  1  0
 28 73  1  0
 28 74  1  0
 28 75  1  0
 29 76  1  0
 29 77  1  0
 30 78  1  0
 30 79  1  0
 32 80  1  0
 32 81  1  0
 32 82  1  0
M  END
>  <meeko>  (3) 
{"is_sidechain": [false], "intermolecular_energy": 2.731, "internal_energy": -0.839}

$$$$
EPH_relaxed_0001_pdb2pqr_Repair_405_r2_0001_out
     RDKit          3D

 82 86  0  0  0  0  0  0  0  0999 V2000
    2.3220   18.0520   -2.8420 C   0  0  0  0  0  0  0  0  0  0  0  0
    1.0860   17.6430   -2.0360 C   0  0  2  0  0  0  0  0  0  0  0  0
    1.3420   17.6920   -0.5160 C   0  0  0  0  0  0  0  0  0  0  0  0
    0.9760   19.0330    0.1260 C   0  0  0  0  0  0  0  0  0  0  0  0
   -0.4790   19.0990    0.4810 C   0  0  2  0  0  0  0  0  0  0  0  0
   -1.3250   18.2460   -0.3020 O   0  0  0  0  0  0  0  0  0  0  0  0
   -1.5410   19.6590   -0.4460 C   0  0  0  0  0  0  0  0  0  0  0  0
   -1.1930   20.1930   -1.8000 C   0  0  0  0  0  0  0  0  0  0  0  0
   -2.8300   20.1360    0.1480 C   0  0  0  0  0  0  0  0  0  0  0  0
    0.6400   16.2440   -2.4440 C   0  0  1  0  0  0  0  0  0  0  0  0
    0.7360   16.0090   -3.9750 C   0  0  0  0  0  0  0  0  0  0  0  0
    1.1390   14.5250   -4.1760 C   0  0  0  0  0  0  0  0  0  0  0  0
    0.9370   13.8750   -2.7870 C   0  0  1  0  0  0  0  0  0  0  0  0
   -0.5930   13.5800   -2.7000 C   0  0  0  0  0  0  0  0  0  0  0  0
    1.7890   12.5980   -2.4910 C   0  0  2  0  0  0  0  0  0  0  0  0
    1.5090   11.3990   -3.4140 C   0  0  0  0  0  0  0  0  0  0  0  0
    0.4500   10.4610   -2.9360 C   0  0  0  0  0  0  0  0  0  0  0  0
   -0.0470   10.4140   -1.6860 C   0  0  0  0  0  0  0  0  0  0  0  0
    0.5280   11.3020   -0.5750 C   0  0  1  0  0  0  0  0  0  0  0  0
    0.7560   10.4510    0.7020 C   0  0  0  0  0  0  0  0  0  0  0  0
   -0.5010    9.7080    1.1420 C   0  0  0  0  0  0  0  0  0  0  0  0
   -1.0100    8.7920    0.0320 C   0  0  2  0  0  0  0  0  0  0  0  0
   -0.0560    7.7450   -0.1750 O   0  0  0  0  0  0  0  0  0  0  0  0
   -1.2660    9.5370   -1.3080 C   0  0  0  0  0  0  0  0  0  0  0  0
   -2.5020   10.4590   -1.1630 C   0  0  0  0  0  0  0  0  0  0  0  0
   -1.6390    8.4770   -2.3800 C   0  0  0  0  0  0  0  0  0  0  0  0
    1.8030   12.1660   -0.9690 C   0  0  1  0  0  0  0  0  0  0  0  0
    3.1000   11.3280   -0.7560 C   0  0  0  0  0  0  0  0  0  0  0  0
    1.9070   13.4010    0.0030 C   0  0  0  0  0  0  0  0  0  0  0  0
    1.1390   14.6720   -0.4050 C   0  0  0  0  0  0  0  0  0  0  0  0
    1.4310   15.0460   -1.8620 C   0  0  2  0  0  0  0  0  0  0  0  0
    2.9600   15.3710   -1.9750 C   0  0  0  0  0  0  0  0  0  0  0  0
    3.1362   18.3214   -2.1532 H   0  0  0  0  0  0  0  0  0  0  0  0
    2.6410   17.2115   -3.4759 H   0  0  0  0  0  0  0  0  0  0  0  0
    2.0767   18.9169   -3.4759 H   0  0  0  0  0  0  0  0  0  0  0  0
    0.2894   18.3677   -2.2602 H   0  0  0  0  0  0  0  0  0  0  0  0
    0.7437   16.9028   -0.0373 H   0  0  0  0  0  0  0  0  0  0  0  0
    2.4223   17.5479   -0.3667 H   0  0  0  0  0  0  0  0  0  0  0  0
    1.5725   19.1649    1.0408 H   0  0  0  0  0  0  0  0  0  0  0  0
    1.1881   19.8306   -0.6013 H   0  0  0  0  0  0  0  0  0  0  0  0
   -0.2375   19.3028    1.5346 H   0  0  0  0  0  0  0  0  0  0  0  0
   -0.5954   21.1100   -1.6900 H   0  0  0  0  0  0  0  0  0  0  0  0
   -0.6114   19.4404   -2.3526 H   0  0  0  0  0  0  0  0  0  0  0  0
   -2.1164   20.4211   -2.3526 H   0  0  0  0  0  0  0  0  0  0  0  0
   -2.7598   20.1100    1.2455 H   0  0  0  0  0  0  0  0  0  0  0  0
   -3.0269   21.1665   -0.1825 H   0  0  0  0  0  0  0  0  0  0  0  0
   -3.6503   19.4819   -0.1825 H   0  0  0  0  0  0  0  0  0  0  0  0
   -0.3825   16.2521   -2.0385 H   0  0  0  0  0  0  0  0  0  0  0  0
   -0.2366   16.2050   -4.4499 H   0  0  0  0  0  0  0  0  0  0  0  0
    1.4743   16.6840   -4.4324 H   0  0  0  0  0  0  0  0  0  0  0  0
    0.4937   14.0455   -4.9268 H   0  0  0  0  0  0  0  0  0  0  0  0
    2.1714   14.4185   -4.5406 H   0  0  0  0  0  0  0  0  0  0  0  0
   -0.8957   13.5216   -1.6441 H   0  0  0  0  0  0  0  0  0  0  0  0
   -1.1509   14.3871   -3.1973 H   0  0  0  0  0  0  0  0  0  0  0  0
   -0.8108   12.6233   -3.1973 H   0  0  0  0  0  0  0  0  0  0  0  0
    2.8080   12.9320   -2.7362 H   0  0  0  0  0  0  0  0  0  0  0  0
    1.1998   11.7897   -4.3947 H   0  0  0  0  0  0  0  0  0  0  0  0
    2.4409   10.8154   -3.4467 H   0  0  0  0  0  0  0  0  0  0  0  0
    0.0415    9.7481   -3.6673 H   0  0  0  0  0  0  0  0  0  0  0  0
   -0.2308   12.0737   -0.3782 H   0  0  0  0  0  0  0  0  0  0  0  0
    1.5476    9.7149    0.4984 H   0  0  0  0  0  0  0  0  0  0  0  0
    1.0398   11.1368    1.5139 H   0  0  0  0  0  0  0  0  0  0  0  0
   -0.2688    9.1023    2.0304 H   0  0  0  0  0  0  0  0  0  0  0  0
   -1.2825   10.4467    1.3736 H   0  0  0  0  0  0  0  0  0  0  0  0
   -1.9802    8.3878    0.3567 H   0  0  0  0  0  0  0  0  0  0  0  0
    0.6410    8.0930   -0.7560 H   0  0  0  0  0  0  0  0  0  0  0  0
   -2.7168   10.6192   -0.0961 H   0  0  0  0  0  0  0  0  0  0  0  0
   -2.2965   11.4262   -1.6449 H   0  0  0  0  0  0  0  0  0  0  0  0
   -3.3705    9.9864   -1.6449 H   0  0  0  0  0  0  0  0  0  0  0  0
   -1.9647    7.5515   -1.8827 H   0  0  0  0  0  0  0  0  0  0  0  0
   -2.4555    8.8625   -3.0083 H   0  0  0  0  0  0  0  0  0  0  0  0
   -0.7610    8.2662   -3.0083 H   0  0  0  0  0  0  0  0  0  0  0  0
    3.2861   11.2078    0.3215 H   0  0  0  0  0  0  0  0  0  0  0  0
    2.9772   10.3380   -1.2196 H   0  0  0  0  0  0  0  0  0  0  0  0
    3.9520   11.8468   -1.2196 H   0  0  0  0  0  0  0  0  0  0  0  0
    1.5277   13.0840    0.9857 H   0  0  0  0  0  0  0  0  0  0  0  0
    2.9685   13.6892   -0.0102 H   0  0  0  0  0  0  0  0  0  0  0  0
    0.0599   14.4931   -0.2889 H   0  0  0  0  0  0  0  0  0  0  0  0
    1.4640   15.5006    0.2414 H   0  0  0  0  0  0  0  0  0  0  0  0
    3.3909   15.4626   -0.9670 H   0  0  0  0  0  0  0  0  0  0  0  0
    3.4679   14.5607   -2.5186 H   0  0  0  0  0  0  0  0  0  0  0  0
    3.0944   16.3178   -2.5186 H   0  0  0  0  0  0  0  0  0  0  0  0
  1  2  1  0
  2  3  1  0
  3  4  1  0
  4  5  1  0
  5  6  1  0
  6  7  1  0
  7  8  1  0
  7  9  1  0
  2 10  1  0
 10 11  1  0
 11 12  1  0
 12 13  1  0
 13 14  1  1
 13 15  1  0
 15 16  1  0
 16 17  1  0
 17 18  2  0
 18 19  1  0
 19 20  1  0
 20 21  1  0
 21 22  1  0
 22 23  1  0
 22 24  1  0
 24 25  1  0
 24 26  1  0
 19 27  1  0
 27 28  1  6
 27 29  1  0
 29 30  1  0
 30 31  1  0
 31 32  1  1
  7  5  1  0
 31 10  1  0
 31 13  1  0
 27 15  1  0
 24 18  1  0
  1 33  1  0
  1 34  1  0
  1 35  1  0
  2 36  1  1
  3 37  1  0
  3 38  1  0
  4 39  1  0
  4 40  1  0
  5 41  1  1
  8 42  1  0
  8 43  1  0
  8 44  1  0
  9 45  1  0
  9 46  1  0
  9 47  1  0
 10 48  1  1
 11 49  1  0
 11 50  1  0
 12 51  1  0
 12 52  1  0
 14 53  1  0
 14 54  1  0
 14 55  1  0
 15 56  1  6
 16 57  1  0
 16 58  1  0
 17 59  1  0
 19 60  1  1
 20 61  1  0
 20 62  1  0
 21 63  1  0
 21 64  1  0
 22 65  1  1
 23 66  1  0
 25 67  1  0
 25 68  1  0
 25 69  1  0
 26 70  1  0
 26 71  1  0
 26 72  1  0
 28 73  1  0
 28 74  1  0
 28 75  1  0
 29 76  1  0
 29 77  1  0
 30 78  1  0
 30 79  1  0
 32 80  1  0
 32 81  1  0
 32 82  1  0
M  END
>  <meeko>  (4) 
{"is_sidechain": [false], "intermolecular_energy": 2.731, "internal_energy": -0.839}

$$$$
EPH_relaxed_0001_pdb2pqr_Repair_405_r2_0001_out
     RDKit          3D

 82 86  0  0  0  0  0  0  0  0999 V2000
   -3.4120    9.3060    0.5210 C   0  0  0  0  0  0  0  0  0  0  0  0
   -2.5860    9.6760   -0.7140 C   0  0  2  0  0  0  0  0  0  0  0  0
   -1.9180    8.4430   -1.3560 C   0  0  0  0  0  0  0  0  0  0  0  0
   -2.8370    7.6700   -2.3060 C   0  0  0  0  0  0  0  0  0  0  0  0
   -4.2730    7.7640   -1.8870 C   0  0  2  0  0  0  0  0  0  0  0  0
   -4.8110    6.5620   -1.3200 O   0  0  0  0  0  0  0  0  0  0  0  0
   -5.3930    6.9940   -2.5610 C   0  0  0  0  0  0  0  0  0  0  0  0
   -5.1260    6.0740   -3.7110 C   0  0  0  0  0  0  0  0  0  0  0  0
   -6.7940    7.5020   -2.4250 C   0  0  0  0  0  0  0  0  0  0  0  0
   -1.5280   10.7070   -0.3420 C   0  0  1  0  0  0  0  0  0  0  0  0
   -0.4320   10.1290    0.5920 C   0  0  0  0  0  0  0  0  0  0  0  0
    0.8990   10.8200    0.2020 C   0  0  0  0  0  0  0  0  0  0  0  0
    0.4750   12.0010   -0.7030 C   0  0  1  0  0  0  0  0  0  0  0  0
    0.0340   13.1260    0.2860 C   0  0  0  0  0  0  0  0  0  0  0  0
    1.5480   12.5130   -1.7190 C   0  0  2  0  0  0  0  0  0  0  0  0
    2.8280   13.0830   -1.0840 C   0  0  0  0  0  0  0  0  0  0  0  0
    2.8030   14.5480   -0.8020 C   0  0  0  0  0  0  0  0  0  0  0  0
    1.9140   15.4260   -1.3030 C   0  0  0  0  0  0  0  0  0  0  0  0
    0.8610   14.9820   -2.3280 C   0  0  1  0  0  0  0  0  0  0  0  0
    0.8140   16.0020   -3.4960 C   0  0  0  0  0  0  0  0  0  0  0  0
    0.5930   17.4330   -3.0150 C   0  0  0  0  0  0  0  0  0  0  0  0
    1.6920   17.8570   -2.0440 C   0  0  2  0  0  0  0  0  0  0  0  0
    2.9320   17.9290   -2.7540 O   0  0  0  0  0  0  0  0  0  0  0  0
    1.8400   16.8980   -0.8300 C   0  0  0  0  0  0  0  0  0  0  0  0
    0.6130   17.0480    0.1040 C   0  0  0  0  0  0  0  0  0  0  0  0
    3.0720   17.3590   -0.0050 C   0  0  0  0  0  0  0  0  0  0  0  0
    0.9750   13.4800   -2.8330 C   0  0  1  0  0  0  0  0  0  0  0  0
    1.9580   13.3980   -4.0410 C   0  0  0  0  0  0  0  0  0  0  0  0
   -0.4280   13.0100   -3.3700 C   0  0  0  0  0  0  0  0  0  0  0  0
   -1.3990   12.4030   -2.3380 C   0  0  0  0  0  0  0  0  0  0  0  0
   -0.7030   11.3280   -1.4970 C   0  0  2  0  0  0  0  0  0  0  0  0
   -0.2680   10.1730   -2.4620 C   0  0  0  0  0  0  0  0  0  0  0  0
   -2.8464    9.5594    1.4298 H   0  0  0  0  0  0  0  0  0  0  0  0
   -4.3587    9.8661    0.5102 H   0  0  0  0  0  0  0  0  0  0  0  0
   -3.6243    8.2267    0.5102 H   0  0  0  0  0  0  0  0  0  0  0  0
   -3.2752   10.1029   -1.4575 H   0  0  0  0  0  0  0  0  0  0  0  0
   -1.0376    8.7805   -1.9225 H   0  0  0  0  0  0  0  0  0  0  0  0
   -1.6528    7.7581   -0.5371 H   0  0  0  0  0  0  0  0  0  0  0  0
   -2.7333    8.0857   -3.3191 H   0  0  0  0  0  0  0  0  0  0  0  0
   -2.5416    6.6107   -2.2824 H   0  0  0  0  0  0  0  0  0  0  0  0
   -4.1555    8.8291   -1.6387 H   0  0  0  0  0  0  0  0  0  0  0  0
   -4.8385    5.0834   -3.3289 H   0  0  0  0  0  0  0  0  0  0  0  0
   -6.0342    5.9809   -4.3246 H   0  0  0  0  0  0  0  0  0  0  0  0
   -4.3091    6.4816   -4.3246 H   0  0  0  0  0  0  0  0  0  0  0  0
   -7.0487    7.5943   -1.3589 H   0  0  0  0  0  0  0  0  0  0  0  0
   -6.8754    8.4869   -2.9081 H   0  0  0  0  0  0  0  0  0  0  0  0
   -7.4877    6.7982   -2.9081 H   0  0  0  0  0  0  0  0  0  0  0  0
   -2.1710   11.4730    0.1160 H   0  0  0  0  0  0  0  0  0  0  0  0
   -0.6772   10.3450    1.6424 H   0  0  0  0  0  0  0  0  0  0  0  0
   -0.3564    9.0370    0.4830 H   0  0  0  0  0  0  0  0  0  0  0  0
    1.4236   11.1855    1.0971 H   0  0  0  0  0  0  0  0  0  0  0  0
    1.5924   10.1334   -0.3057 H   0  0  0  0  0  0  0  0  0  0  0  0
    0.1702   12.7786    1.3208 H   0  0  0  0  0  0  0  0  0  0  0  0
    0.6468   14.0237    0.1170 H   0  0  0  0  0  0  0  0  0  0  0  0
   -1.0256   13.3682    0.1170 H   0  0  0  0  0  0  0  0  0  0  0  0
    1.8541   11.5865   -2.2268 H   0  0  0  0  0  0  0  0  0  0  0  0
    2.9988   12.5569   -0.1332 H   0  0  0  0  0  0  0  0  0  0  0  0
    3.6281   12.9295   -1.8231 H   0  0  0  0  0  0  0  0  0  0  0  0
    3.5765   14.9441   -0.1276 H   0  0  0  0  0  0  0  0  0  0  0  0
   -0.1012   14.9803   -1.7949 H   0  0  0  0  0  0  0  0  0  0  0  0
    1.7679   15.9569   -4.0420 H   0  0  0  0  0  0  0  0  0  0  0  0
   -0.0351   15.7318   -4.1410 H   0  0  0  0  0  0  0  0  0  0  0  0
    0.5982   18.1094   -3.8824 H   0  0  0  0  0  0  0  0  0  0  0  0
   -0.3747   17.4833   -2.4944 H   0  0  0  0  0  0  0  0  0  0  0  0
    1.4106   18.8389   -1.6357 H   0  0  0  0  0  0  0  0  0  0  0  0
    3.2500   18.8460   -2.6980 H   0  0  0  0  0  0  0  0  0  0  0  0
    0.9432   17.0076    1.1525 H   0  0  0  0  0  0  0  0  0  0  0  0
    0.1213   18.0129   -0.0887 H   0  0  0  0  0  0  0  0  0  0  0  0
   -0.0967   16.2299   -0.0887 H   0  0  0  0  0  0  0  0  0  0  0  0
    2.8468   17.2747    1.0684 H   0  0  0  0  0  0  0  0  0  0  0  0
    3.9357   16.7232   -0.2495 H   0  0  0  0  0  0  0  0  0  0  0  0
    3.3062   18.4056   -0.2495 H   0  0  0  0  0  0  0  0  0  0  0  0
    2.9896   13.3119   -3.6691 H   0  0  0  0  0  0  0  0  0  0  0  0
    1.7142   12.5171   -4.6530 H   0  0  0  0  0  0  0  0  0  0  0  0
    1.8635   14.3071   -4.6530 H   0  0  0  0  0  0  0  0  0  0  0  0
   -0.9227   13.8842   -3.8184 H   0  0  0  0  0  0  0  0  0  0  0  0
   -0.2083   12.1936   -4.0737 H   0  0  0  0  0  0  0  0  0  0  0  0
   -1.7626   13.2005   -1.6734 H   0  0  0  0  0  0  0  0  0  0  0  0
   -2.2382   11.9385   -2.8766 H   0  0  0  0  0  0  0  0  0  0  0  0
    0.0590    9.3049   -1.8708 H   0  0  0  0  0  0  0  0  0  0  0  0
   -1.1193    9.8850   -3.0964 H   0  0  0  0  0  0  0  0  0  0  0  0
    0.5617   10.5181   -3.0964 H   0  0  0  0  0  0  0  0  0  0  0  0
  1  2  1  0
  2  3  1  0
  3  4  1  0
  4  5  1  0
  5  6  1  0
  6  7  1  0
  7  8  1  0
  7  9  1  0
  2 10  1  0
 10 11  1  0
 11 12  1  0
 12 13  1  0
 13 14  1  1
 13 15  1  0
 15 16  1  0
 16 17  1  0
 17 18  2  0
 18 19  1  0
 19 20  1  0
 20 21  1  0
 21 22  1  0
 22 23  1  0
 22 24  1  0
 24 25  1  0
 24 26  1  0
 19 27  1  0
 27 28  1  6
 27 29  1  0
 29 30  1  0
 30 31  1  0
 31 32  1  6
  7  5  1  0
 31 10  1  0
 31 13  1  0
 27 15  1  0
 24 18  1  0
  1 33  1  0
  1 34  1  0
  1 35  1  0
  2 36  1  6
  3 37  1  0
  3 38  1  0
  4 39  1  0
  4 40  1  0
  5 41  1  1
  8 42  1  0
  8 43  1  0
  8 44  1  0
  9 45  1  0
  9 46  1  0
  9 47  1  0
 10 48  1  1
 11 49  1  0
 11 50  1  0
 12 51  1  0
 12 52  1  0
 14 53  1  0
 14 54  1  0
 14 55  1  0
 15 56  1  6
 16 57  1  0
 16 58  1  0
 17 59  1  0
 19 60  1  1
 20 61  1  0
 20 62  1  0
 21 63  1  0
 21 64  1  0
 22 65  1  1
 23 66  1  0
 25 67  1  0
 25 68  1  0
 25 69  1  0
 26 70  1  0
 26 71  1  0
 26 72  1  0
 28 73  1  0
 28 74  1  0
 28 75  1  0
 29 76  1  0
 29 77  1  0
 30 78  1  0
 30 79  1  0
 32 80  1  0
 32 81  1  0
 32 82  1  0
M  END
>  <meeko>  (5) 
{"is_sidechain": [false], "intermolecular_energy": 2.731, "internal_energy": -0.839}

$$$$
EPH_relaxed_0001_pdb2pqr_Repair_405_r2_0001_out
     RDKit          3D

 82 86  0  0  0  0  0  0  0  0999 V2000
    3.6790   17.9140    0.5820 C   0  0  0  0  0  0  0  0  0  0  0  0
    2.6790   18.2600   -0.5240 C   0  0  2  0  0  0  0  0  0  0  0  0
    1.9550   19.5950   -0.2560 C   0  0  0  0  0  0  0  0  0  0  0  0
    0.9230   19.5200    0.8720 C   0  0  0  0  0  0  0  0  0  0  0  0
   -0.3930   20.1070    0.4590 C   0  0  2  0  0  0  0  0  0  0  0  0
   -1.3780   20.1590    1.4990 O   0  0  0  0  0  0  0  0  0  0  0  0
   -1.6800   19.3060    0.3830 C   0  0  0  0  0  0  0  0  0  0  0  0
   -1.7120   17.8480    0.7220 C   0  0  0  0  0  0  0  0  0  0  0  0
   -2.7900   19.8150   -0.4830 C   0  0  0  0  0  0  0  0  0  0  0  0
    1.6600   17.1370   -0.6740 C   0  0  1  0  0  0  0  0  0  0  0  0
    0.4270   17.5560   -1.5180 C   0  0  0  0  0  0  0  0  0  0  0  0
   -0.0150   16.3030   -2.3170 C   0  0  0  0  0  0  0  0  0  0  0  0
    0.7570   15.1320   -1.6650 C   0  0  1  0  0  0  0  0  0  0  0  0
   -0.0690   14.7670   -0.3920 C   0  0  0  0  0  0  0  0  0  0  0  0
    1.0080   13.8810   -2.5690 C   0  0  2  0  0  0  0  0  0  0  0  0
   -0.2630   13.1570   -3.0480 C   0  0  0  0  0  0  0  0  0  0  0  0
   -0.7490   12.0650   -2.1550 C   0  0  0  0  0  0  0  0  0  0  0  0
   -0.0410   11.4890   -1.1660 C   0  0  0  0  0  0  0  0  0  0  0  0
    1.4280   11.8630   -0.9280 C   0  0  1  0  0  0  0  0  0  0  0  0
    2.2680   10.5720   -0.7430 C   0  0  0  0  0  0  0  0  0  0  0  0
    1.7130    9.6650    0.3500 C   0  0  0  0  0  0  0  0  0  0  0  0
    0.2710    9.2670    0.0490 C   0  0  2  0  0  0  0  0  0  0  0  0
    0.2560    8.4360   -1.1160 O   0  0  0  0  0  0  0  0  0  0  0  0
   -0.6690   10.4860   -0.1670 C   0  0  0  0  0  0  0  0  0  0  0  0
   -0.8900   11.2170    1.1810 C   0  0  0  0  0  0  0  0  0  0  0  0
   -2.0580    9.9470   -0.6020 C   0  0  0  0  0  0  0  0  0  0  0  0
    2.0690   12.8620   -1.9850 C   0  0  1  0  0  0  0  0  0  0  0  0
    2.6320   12.0620   -3.1990 C   0  0  0  0  0  0  0  0  0  0  0  0
    3.2980   13.5910   -1.3250 C   0  0  0  0  0  0  0  0  0  0  0  0
    3.0010   14.8870   -0.5460 C   0  0  0  0  0  0  0  0  0  0  0  0
    2.1320   15.8380   -1.3740 C   0  0  2  0  0  0  0  0  0  0  0  0
    2.9450   16.2400   -2.6510 C   0  0  0  0  0  0  0  0  0  0  0  0
    3.2104   18.0761    1.5639 H   0  0  0  0  0  0  0  0  0  0  0  0
    3.9790   16.8598    0.4885 H   0  0  0  0  0  0  0  0  0  0  0  0
    4.5663   18.5574    0.4885 H   0  0  0  0  0  0  0  0  0  0  0  0
    3.2472   18.3741   -1.4590 H   0  0  0  0  0  0  0  0  0  0  0  0
    2.7081   20.3507    0.0120 H   0  0  0  0  0  0  0  0  0  0  0  0
    1.4085   19.8543   -1.1748 H   0  0  0  0  0  0  0  0  0  0  0  0
    0.7723   18.4659    1.1479 H   0  0  0  0  0  0  0  0  0  0  0  0
    1.3047   20.1000    1.7252 H   0  0  0  0  0  0  0  0  0  0  0  0
    0.1040   20.7747   -0.2601 H   0  0  0  0  0  0  0  0  0  0  0  0
   -1.7147   17.7257    1.8152 H   0  0  0  0  0  0  0  0  0  0  0  0
   -2.6203   17.3933    0.2999 H   0  0  0  0  0  0  0  0  0  0  0  0
   -0.8245   17.3539    0.2999 H   0  0  0  0  0  0  0  0  0  0  0  0
   -3.6072   20.1897    0.1509 H   0  0  0  0  0  0  0  0  0  0  0  0
   -2.4148   20.6310   -1.1181 H   0  0  0  0  0  0  0  0  0  0  0  0
   -3.1636   18.9982   -1.1181 H   0  0  0  0  0  0  0  0  0  0  0  0
    1.4485   16.9378    0.3869 H   0  0  0  0  0  0  0  0  0  0  0  0
   -0.3871   17.8914   -0.8586 H   0  0  0  0  0  0  0  0  0  0  0  0
    0.6751   18.3879   -2.1936 H   0  0  0  0  0  0  0  0  0  0  0  0
   -1.1006   16.1493   -2.2288 H   0  0  0  0  0  0  0  0  0  0  0  0
    0.1993   16.3967   -3.3919 H   0  0  0  0  0  0  0  0  0  0  0  0
    0.5107   15.0231    0.5071 H   0  0  0  0  0  0  0  0  0  0  0  0
   -1.0129   15.3318   -0.3930 H   0  0  0  0  0  0  0  0  0  0  0  0
   -0.2869   13.6888   -0.3930 H   0  0  0  0  0  0  0  0  0  0  0  0
    1.4556   14.3261   -3.4699 H   0  0  0  0  0  0  0  0  0  0  0  0
   -1.0655   13.9037   -3.1396 H   0  0  0  0  0  0  0  0  0  0  0  0
    0.0017   12.6757   -4.0011 H   0  0  0  0  0  0  0  0  0  0  0  0
   -1.7735   11.6995   -2.3190 H   0  0  0  0  0  0  0  0  0  0  0  0
    1.4446   12.4548   -0.0009 H   0  0  0  0  0  0  0  0  0  0  0  0
    2.2747   10.0166   -1.6925 H   0  0  0  0  0  0  0  0  0  0  0  0
    3.2825   10.8738   -0.4434 H   0  0  0  0  0  0  0  0  0  0  0  0
    2.3312    8.7574    0.4129 H   0  0  0  0  0  0  0  0  0  0  0  0
    1.7342   10.2119    1.3042 H   0  0  0  0  0  0  0  0  0  0  0  0
   -0.1124    8.7272    0.9275 H   0  0  0  0  0  0  0  0  0  0  0  0
    1.0570    8.6350   -1.6290 H   0  0  0  0  0  0  0  0  0  0  0  0
   -0.6812   10.5263    2.0112 H   0  0  0  0  0  0  0  0  0  0  0  0
   -0.2132   12.0818    1.2444 H   0  0  0  0  0  0  0  0  0  0  0  0
   -1.9326   11.5620    1.2444 H   0  0  0  0  0  0  0  0  0  0  0  0
   -2.6571    9.7145    0.2908 H   0  0  0  0  0  0  0  0  0  0  0  0
   -2.5756   10.7096   -1.2025 H   0  0  0  0  0  0  0  0  0  0  0  0
   -1.9257    9.0349   -1.2025 H   0  0  0  0  0  0  0  0  0  0  0  0
    3.2292   11.2135   -2.8338 H   0  0  0  0  0  0  0  0  0  0  0  0
    1.7975   11.6872   -3.8099 H   0  0  0  0  0  0  0  0  0  0  0  0
    3.2665   12.7210   -3.8099 H   0  0  0  0  0  0  0  0  0  0  0  0
    3.7688   12.8835   -0.6266 H   0  0  0  0  0  0  0  0  0  0  0  0
    3.9348   13.9007   -2.1667 H   0  0  0  0  0  0  0  0  0  0  0  0
    2.4716   14.6341    0.3845 H   0  0  0  0  0  0  0  0  0  0  0  0
    3.9545   15.3881   -0.3229 H   0  0  0  0  0  0  0  0  0  0  0  0
    3.8933   16.7089   -2.3494 H   0  0  0  0  0  0  0  0  0  0  0  0
    3.1544   15.3416   -3.2502 H   0  0  0  0  0  0  0  0  0  0  0  0
    2.3583   16.9518   -3.2502 H   0  0  0  0  0  0  0  0  0  0  0  0
  1  2  1  0
  2  3  1  0
  3  4  1  0
  4  5  1  0
  5  6  1  0
  6  7  1  0
  7  8  1  0
  7  9  1  0
  2 10  1  0
 10 11  1  0
 11 12  1  0
 12 13  1  0
 13 14  1  1
 13 15  1  0
 15 16  1  0
 16 17  1  0
 17 18  2  0
 18 19  1  0
 19 20  1  0
 20 21  1  0
 21 22  1  0
 22 23  1  0
 22 24  1  0
 24 25  1  0
 24 26  1  0
 19 27  1  0
 27 28  1  6
 27 29  1  0
 29 30  1  0
 30 31  1  0
 31 32  1  6
  7  5  1  0
 31 10  1  0
 31 13  1  0
 27 15  1  0
 24 18  1  0
  1 33  1  0
  1 34  1  0
  1 35  1  0
  2 36  1  6
  3 37  1  0
  3 38  1  0
  4 39  1  0
  4 40  1  0
  5 41  1  6
  8 42  1  0
  8 43  1  0
  8 44  1  0
  9 45  1  0
  9 46  1  0
  9 47  1  0
 10 48  1  1
 11 49  1  0
 11 50  1  0
 12 51  1  0
 12 52  1  0
 14 53  1  0
 14 54  1  0
 14 55  1  0
 15 56  1  6
 16 57  1  0
 16 58  1  0
 17 59  1  0
 19 60  1  1
 20 61  1  0
 20 62  1  0
 21 63  1  0
 21 64  1  0
 22 65  1  1
 23 66  1  0
 25 67  1  0
 25 68  1  0
 25 69  1  0
 26 70  1  0
 26 71  1  0
 26 72  1  0
 28 73  1  0
 28 74  1  0
 28 75  1  0
 29 76  1  0
 29 77  1  0
 30 78  1  0
 30 79  1  0
 32 80  1  0
 32 81  1  0
 32 82  1  0
M  END
>  <meeko>  (6) 
{"is_sidechain": [false], "intermolecular_energy": 2.731, "internal_energy": -0.839}

$$$$
EPH_relaxed_0001_pdb2pqr_Repair_405_r2_0001_out
     RDKit          3D

 82 86  0  0  0  0  0  0  0  0999 V2000
   -5.1870    5.7910   -1.7060 C   0  0  0  0  0  0  0  0  0  0  0  0
   -5.4640    7.2950   -1.7790 C   0  0  2  0  0  0  0  0  0  0  0  0
   -5.2310    7.9950   -0.4250 C   0  0  0  0  0  0  0  0  0  0  0  0
   -4.1890    9.1150   -0.4830 C   0  0  0  0  0  0  0  0  0  0  0  0
   -2.8240    8.5870   -0.8070 C   0  0  2  0  0  0  0  0  0  0  0  0
   -1.8160    8.9000    0.1620 O   0  0  0  0  0  0  0  0  0  0  0  0
   -1.6410    9.4750   -1.1420 C   0  0  0  0  0  0  0  0  0  0  0  0
   -1.7680   10.9660   -1.1710 C   0  0  0  0  0  0  0  0  0  0  0  0
   -0.5000    8.8870   -1.9130 C   0  0  0  0  0  0  0  0  0  0  0  0
   -6.8920    7.5380   -2.2520 C   0  0  1  0  0  0  0  0  0  0  0  0
   -7.1980    6.8470   -3.6080 C   0  0  0  0  0  0  0  0  0  0  0  0
   -8.6790    6.3910   -3.5530 C   0  0  0  0  0  0  0  0  0  0  0  0
   -9.2660    7.1180   -2.3210 C   0  0  1  0  0  0  0  0  0  0  0  0
   -9.5970    8.5580   -2.8240 C   0  0  0  0  0  0  0  0  0  0  0  0
  -10.5040    6.4430   -1.6460 C   0  0  2  0  0  0  0  0  0  0  0  0
  -11.7540    6.3330   -2.5370 C   0  0  0  0  0  0  0  0  0  0  0  0
  -12.6950    7.4890   -2.4610 C   0  0  0  0  0  0  0  0  0  0  0  0
  -12.6950    8.4360   -1.5050 C   0  0  0  0  0  0  0  0  0  0  0  0
  -11.7390    8.3470   -0.3080 C   0  0  1  0  0  0  0  0  0  0  0  0
  -12.5210    8.6340    1.0010 C   0  0  0  0  0  0  0  0  0  0  0  0
  -13.2750    9.9590    0.9530 C   0  0  0  0  0  0  0  0  0  0  0  0
  -14.2570    9.9870   -0.2150 C   0  0  2  0  0  0  0  0  0  0  0  0
  -15.2870    9.0230    0.0260 O   0  0  0  0  0  0  0  0  0  0  0  0
  -13.5850    9.7010   -1.5870 C   0  0  0  0  0  0  0  0  0  0  0  0
  -12.6900   10.9000   -1.9880 C   0  0  0  0  0  0  0  0  0  0  0  0
  -14.7040    9.6180   -2.6590 C   0  0  0  0  0  0  0  0  0  0  0  0
  -10.8620    7.0250   -0.2180 C   0  0  1  0  0  0  0  0  0  0  0  0
  -11.6540    5.9110    0.5310 C   0  0  0  0  0  0  0  0  0  0  0  0
   -9.5800    7.3170    0.6470 C   0  0  0  0  0  0  0  0  0  0  0  0
   -8.3500    7.8700   -0.0970 C   0  0  0  0  0  0  0  0  0  0  0  0
   -8.0390    7.0320   -1.3410 C   0  0  2  0  0  0  0  0  0  0  0  0
   -7.6800    5.5830   -0.8650 C   0  0  0  0  0  0  0  0  0  0  0  0
   -5.1296    5.4794   -0.6526 H   0  0  0  0  0  0  0  0  0  0  0  0
   -5.9995    5.2438   -2.2065 H   0  0  0  0  0  0  0  0  0  0  0  0
   -4.2329    5.5692   -2.2065 H   0  0  0  0  0  0  0  0  0  0  0  0
   -4.7548    7.7273   -2.5002 H   0  0  0  0  0  0  0  0  0  0  0  0
   -6.1854    8.4256   -0.0878 H   0  0  0  0  0  0  0  0  0  0  0  0
   -4.8461    7.2332    0.2689 H   0  0  0  0  0  0  0  0  0  0  0  0
   -4.4849    9.8373   -1.2581 H   0  0  0  0  0  0  0  0  0  0  0  0
   -4.1452    9.5938    0.5064 H   0  0  0  0  0  0  0  0  0  0  0  0
   -3.2572    7.7127   -1.3148 H   0  0  0  0  0  0  0  0  0  0  0  0
   -1.8008   11.3513   -0.1412 H   0  0  0  0  0  0  0  0  0  0  0  0
   -0.9034   11.3975   -1.6966 H   0  0  0  0  0  0  0  0  0  0  0  0
   -2.6932   11.2450   -1.6966 H   0  0  0  0  0  0  0  0  0  0  0  0
    0.2541    8.4984   -1.2128 H   0  0  0  0  0  0  0  0  0  0  0  0
   -0.8694    8.0670   -2.5463 H   0  0  0  0  0  0  0  0  0  0  0  0
   -0.0465    9.6637   -2.5463 H   0  0  0  0  0  0  0  0  0  0  0  0
   -6.8918    8.6376   -2.2812 H   0  0  0  0  0  0  0  0  0  0  0  0
   -7.0503    7.5557   -4.4362 H   0  0  0  0  0  0  0  0  0  0  0  0
   -6.5271    5.9916   -3.7758 H   0  0  0  0  0  0  0  0  0  0  0  0
   -9.2109    6.6879   -4.4689 H   0  0  0  0  0  0  0  0  0  0  0  0
   -8.7762    5.2979   -3.4776 H   0  0  0  0  0  0  0  0  0  0  0  0
   -9.7496    9.2220   -1.9604 H   0  0  0  0  0  0  0  0  0  0  0  0
   -8.7620    8.9346   -3.4330 H   0  0  0  0  0  0  0  0  0  0  0  0
  -10.5126    8.5322   -3.4330 H   0  0  0  0  0  0  0  0  0  0  0  0
  -10.1547    5.4114   -1.4920 H   0  0  0  0  0  0  0  0  0  0  0  0
  -11.4200    6.2347   -3.5804 H   0  0  0  0  0  0  0  0  0  0  0  0
  -12.3138    5.4604   -2.1694 H   0  0  0  0  0  0  0  0  0  0  0  0
  -13.4528    7.5741   -3.2537 H   0  0  0  0  0  0  0  0  0  0  0  0
  -10.9786    9.1258   -0.4670 H   0  0  0  0  0  0  0  0  0  0  0  0
  -13.2449    7.8220    1.1646 H   0  0  0  0  0  0  0  0  0  0  0  0
  -11.7896    8.6954    1.8204 H   0  0  0  0  0  0  0  0  0  0  0  0
  -13.8304   10.0912    1.8933 H   0  0  0  0  0  0  0  0  0  0  0  0
  -12.5466   10.7722    0.8183 H   0  0  0  0  0  0  0  0  0  0  0  0
  -14.6707   11.0045   -0.2742 H   0  0  0  0  0  0  0  0  0  0  0  0
  -15.9060    9.4090    0.6690 H   0  0  0  0  0  0  0  0  0  0  0  0
  -12.3175   11.3990   -1.0812 H   0  0  0  0  0  0  0  0  0  0  0  0
  -11.8387   10.5390   -2.5838 H   0  0  0  0  0  0  0  0  0  0  0  0
  -13.2782   11.6135   -2.5838 H   0  0  0  0  0  0  0  0  0  0  0  0
  -15.6828    9.5454   -2.1624 H   0  0  0  0  0  0  0  0  0  0  0  0
  -14.6776   10.5206   -3.2872 H   0  0  0  0  0  0  0  0  0  0  0  0
  -14.5447    8.7292   -3.2872 H   0  0  0  0  0  0  0  0  0  0  0  0
  -11.5515    6.0551    1.6167 H   0  0  0  0  0  0  0  0  0  0  0  0
  -12.7167    5.9663    0.2525 H   0  0  0  0  0  0  0  0  0  0  0  0
  -11.2527    4.9254    0.2525 H   0  0  0  0  0  0  0  0  0  0  0  0
   -9.8592    8.0497    1.4185 H   0  0  0  0  0  0  0  0  0  0  0  0
   -9.2650    6.3366    1.0338 H   0  0  0  0  0  0  0  0  0  0  0  0
   -8.5509    8.9073   -0.4029 H   0  0  0  0  0  0  0  0  0  0  0  0
   -7.4834    7.8289    0.5792 H   0  0  0  0  0  0  0  0  0  0  0  0
   -7.6718    5.5497    0.2345 H   0  0  0  0  0  0  0  0  0  0  0  0
   -8.4299    4.8750   -1.2476 H   0  0  0  0  0  0  0  0  0  0  0  0
   -6.6863    5.3070   -1.2476 H   0  0  0  0  0  0  0  0  0  0  0  0
  1  2  1  0
  2  3  1  0
  3  4  1  0
  4  5  1  0
  5  6  1  0
  6  7  1  0
  7  8  1  0
  7  9  1  0
  2 10  1  0
 10 11  1  0
 11 12  1  0
 12 13  1  0
 13 14  1  6
 13 15  1  0
 15 16  1  0
 16 17  1  0
 17 18  2  0
 18 19  1  0
 19 20  1  0
 20 21  1  0
 21 22  1  0
 22 23  1  0
 22 24  1  0
 24 25  1  0
 24 26  1  0
 19 27  1  0
 27 28  1  1
 27 29  1  0
 29 30  1  0
 30 31  1  0
 31 32  1  1
  7  5  1  0
 31 10  1  0
 31 13  1  0
 27 15  1  0
 24 18  1  0
  1 33  1  0
  1 34  1  0
  1 35  1  0
  2 36  1  6
  3 37  1  0
  3 38  1  0
  4 39  1  0
  4 40  1  0
  5 41  1  6
  8 42  1  0
  8 43  1  0
  8 44  1  0
  9 45  1  0
  9 46  1  0
  9 47  1  0
 10 48  1  6
 11 49  1  0
 11 50  1  0
 12 51  1  0
 12 52  1  0
 14 53  1  0
 14 54  1  0
 14 55  1  0
 15 56  1  1
 16 57  1  0
 16 58  1  0
 17 59  1  0
 19 60  1  6
 20 61  1  0
 20 62  1  0
 21 63  1  0
 21 64  1  0
 22 65  1  6
 23 66  1  0
 25 67  1  0
 25 68  1  0
 25 69  1  0
 26 70  1  0
 26 71  1  0
 26 72  1  0
 28 73  1  0
 28 74  1  0
 28 75  1  0
 29 76  1  0
 29 77  1  0
 30 78  1  0
 30 79  1  0
 32 80  1  0
 32 81  1  0
 32 82  1  0
M  END
>  <meeko>  (7) 
{"is_sidechain": [false], "intermolecular_energy": 2.731, "internal_energy": -0.839}

$$$$
EPH_relaxed_0001_pdb2pqr_Repair_405_r2_0001_out
     RDKit          3D

 82 86  0  0  0  0  0  0  0  0999 V2000
   -0.1810   10.3920   -3.6270 C   0  0  0  0  0  0  0  0  0  0  0  0
    0.9140   10.2030   -2.5740 C   0  0  2  0  0  0  0  0  0  0  0  0
    0.6780    8.9490   -1.7090 C   0  0  0  0  0  0  0  0  0  0  0  0
   -0.0050    9.2440   -0.3700 C   0  0  0  0  0  0  0  0  0  0  0  0
   -1.4220    8.7560   -0.3510 C   0  0  2  0  0  0  0  0  0  0  0  0
   -2.0940    8.8200   -1.6150 O   0  0  0  0  0  0  0  0  0  0  0  0
   -2.6210    9.6590   -0.5740 C   0  0  0  0  0  0  0  0  0  0  0  0
   -2.4570   11.1240   -0.8320 C   0  0  0  0  0  0  0  0  0  0  0  0
   -3.9550    9.2170   -0.0600 C   0  0  0  0  0  0  0  0  0  0  0  0
    1.0000   11.4390   -1.6860 C   0  0  1  0  0  0  0  0  0  0  0  0
    2.0680   11.2990   -0.5690 C   0  0  0  0  0  0  0  0  0  0  0  0
    2.6840   12.7070   -0.3610 C   0  0  0  0  0  0  0  0  0  0  0  0
    1.7340   13.6640   -1.1160 C   0  0  1  0  0  0  0  0  0  0  0  0
    0.5420   13.9020   -0.1360 C   0  0  0  0  0  0  0  0  0  0  0  0
    2.3560   15.0120   -1.6050 C   0  0  2  0  0  0  0  0  0  0  0  0
    2.8700   15.9380   -0.4890 C   0  0  0  0  0  0  0  0  0  0  0  0
    1.8720   16.9150    0.0390 C   0  0  0  0  0  0  0  0  0  0  0  0
    0.7080   17.2410   -0.5530 C   0  0  0  0  0  0  0  0  0  0  0  0
    0.3400   16.6760   -1.9310 C   0  0  1  0  0  0  0  0  0  0  0  0
   -0.1860   17.8210   -2.8360 C   0  0  0  0  0  0  0  0  0  0  0  0
   -1.3370   18.5910   -2.1950 C   0  0  0  0  0  0  0  0  0  0  0  0
   -0.9150   19.1860   -0.8550 C   0  0  2  0  0  0  0  0  0  0  0  0
    0.0740   20.1940   -1.0880 O   0  0  0  0  0  0  0  0  0  0  0  0
   -0.3580   18.1280    0.1370 C   0  0  0  0  0  0  0  0  0  0  0  0
   -1.5090   17.2140    0.6240 C   0  0  0  0  0  0  0  0  0  0  0  0
    0.1620   18.8770    1.3940 C   0  0  0  0  0  0  0  0  0  0  0  0
    1.4600   15.8010   -2.6430 C   0  0  1  0  0  0  0  0  0  0  0  0
    2.4220   16.7240   -3.4520 C   0  0  0  0  0  0  0  0  0  0  0  0
    0.7760   14.8460   -3.6920 C   0  0  0  0  0  0  0  0  0  0  0  0
    0.2890   13.4800   -3.1720 C   0  0  0  0  0  0  0  0  0  0  0  0
    1.3860   12.7770   -2.3660 C   0  0  2  0  0  0  0  0  0  0  0  0
    2.5890   12.5040   -3.3320 C   0  0  0  0  0  0  0  0  0  0  0  0
   -1.1462   10.5586   -3.1264 H   0  0  0  0  0  0  0  0  0  0  0  0
    0.0610   11.2617   -4.2556 H   0  0  0  0  0  0  0  0  0  0  0  0
   -0.2446    9.4915   -4.2556 H   0  0  0  0  0  0  0  0  0  0  0  0
    1.8652   10.0614   -3.1080 H   0  0  0  0  0  0  0  0  0  0  0  0
    0.0445    8.2506   -2.2755 H   0  0  0  0  0  0  0  0  0  0  0  0
    1.6672    8.5264   -1.4790 H   0  0  0  0  0  0  0  0  0  0  0  0
    0.5551    8.7437    0.4337 H   0  0  0  0  0  0  0  0  0  0  0  0
   -0.0158   10.3341   -0.2235 H   0  0  0  0  0  0  0  0  0  0  0  0
   -1.1848    8.0259    0.4369 H   0  0  0  0  0  0  0  0  0  0  0  0
   -2.3969   11.6606    0.1264 H   0  0  0  0  0  0  0  0  0  0  0  0
   -1.5342   11.2942   -1.4060 H   0  0  0  0  0  0  0  0  0  0  0  0
   -3.3193   11.4940   -1.4060 H   0  0  0  0  0  0  0  0  0  0  0  0
   -3.9437    9.2207    1.0399 H   0  0  0  0  0  0  0  0  0  0  0  0
   -4.7334    9.9052   -0.4210 H   0  0  0  0  0  0  0  0  0  0  0  0
   -4.1685    8.2001   -0.4210 H   0  0  0  0  0  0  0  0  0  0  0  0
   -0.0399   11.4835   -1.3301 H   0  0  0  0  0  0  0  0  0  0  0  0
    1.5986   10.9494    0.3624 H   0  0  0  0  0  0  0  0  0  0  0  0
    2.8400   10.5674   -0.8497 H   0  0  0  0  0  0  0  0  0  0  0  0
    2.7208   12.9605    0.7088 H   0  0  0  0  0  0  0  0  0  0  0  0
    3.7182   12.7685   -0.7308 H   0  0  0  0  0  0  0  0  0  0  0  0
    0.9004   13.8304    0.9015 H   0  0  0  0  0  0  0  0  0  0  0  0
    0.1188   14.9024   -0.3095 H   0  0  0  0  0  0  0  0  0  0  0  0
   -0.2329   13.1409   -0.3095 H   0  0  0  0  0  0  0  0  0  0  0  0
    3.2511   14.6737   -2.1476 H   0  0  0  0  0  0  0  0  0  0  0  0
    3.2047   15.3079    0.3483 H   0  0  0  0  0  0  0  0  0  0  0  0
    3.6752   16.5380   -0.9381 H   0  0  0  0  0  0  0  0  0  0  0  0
    2.1080   17.4102    0.9924 H   0  0  0  0  0  0  0  0  0  0  0  0
   -0.4598   15.9415   -1.7553 H   0  0  0  0  0  0  0  0  0  0  0  0
    0.6391   18.5208   -3.0348 H   0  0  0  0  0  0  0  0  0  0  0  0
   -0.5637   17.3668   -3.7639 H   0  0  0  0  0  0  0  0  0  0  0  0
   -1.6457   19.4039   -2.8687 H   0  0  0  0  0  0  0  0  0  0  0  0
   -2.1721   17.8959   -2.0233 H   0  0  0  0  0  0  0  0  0  0  0  0
   -1.8142   19.6126   -0.3866 H   0  0  0  0  0  0  0  0  0  0  0  0
   -0.3880   20.9980   -1.3800 H   0  0  0  0  0  0  0  0  0  0  0  0
   -1.5261   17.2004    1.7238 H   0  0  0  0  0  0  0  0  0  0  0  0
   -2.4678   17.5995    0.2471 H   0  0  0  0  0  0  0  0  0  0  0  0
   -1.3508   16.1928    0.2471 H   0  0  0  0  0  0  0  0  0  0  0  0
   -0.1940   18.3643    2.2998 H   0  0  0  0  0  0  0  0  0  0  0  0
    1.2619   18.8864    1.3863 H   0  0  0  0  0  0  0  0  0  0  0  0
   -0.2136   19.9109    1.3863 H   0  0  0  0  0  0  0  0  0  0  0  0
    3.0364   17.3135   -2.7556 H   0  0  0  0  0  0  0  0  0  0  0  0
    3.0759   16.1067   -4.0855 H   0  0  0  0  0  0  0  0  0  0  0  0
    1.8323   17.4029   -4.0855 H   0  0  0  0  0  0  0  0  0  0  0  0
   -0.0955   15.3749   -4.1053 H   0  0  0  0  0  0  0  0  0  0  0  0
    1.5624   14.6120   -4.4246 H   0  0  0  0  0  0  0  0  0  0  0  0
   -0.5892   13.6327   -2.5275 H   0  0  0  0  0  0  0  0  0  0  0  0
    0.0287   12.8490   -4.0346 H   0  0  0  0  0  0  0  0  0  0  0  0
    3.4941   12.2986   -2.7415 H   0  0  0  0  0  0  0  0  0  0  0  0
    2.3600   11.6350   -3.9663 H   0  0  0  0  0  0  0  0  0  0  0  0
    2.7575   13.3867   -3.9663 H   0  0  0  0  0  0  0  0  0  0  0  0
  1  2  1  0
  2  3  1  0
  3  4  1  0
  4  5  1  0
  5  6  1  0
  6  7  1  0
  7  8  1  0
  7  9  1  0
  2 10  1  0
 10 11  1  0
 11 12  1  0
 12 13  1  0
 13 14  1  1
 13 15  1  0
 15 16  1  0
 16 17  1  0
 17 18  2  0
 18 19  1  0
 19 20  1  0
 20 21  1  0
 21 22  1  0
 22 23  1  0
 22 24  1  0
 24 25  1  0
 24 26  1  0
 19 27  1  0
 27 28  1  6
 27 29  1  0
 29 30  1  0
 30 31  1  0
 31 32  1  6
  7  5  1  0
 31 10  1  0
 31 13  1  0
 27 15  1  0
 24 18  1  0
  1 33  1  0
  1 34  1  0
  1 35  1  0
  2 36  1  6
  3 37  1  0
  3 38  1  0
  4 39  1  0
  4 40  1  0
  5 41  1  1
  8 42  1  0
  8 43  1  0
  8 44  1  0
  9 45  1  0
  9 46  1  0
  9 47  1  0
 10 48  1  1
 11 49  1  0
 11 50  1  0
 12 51  1  0
 12 52  1  0
 14 53  1  0
 14 54  1  0
 14 55  1  0
 15 56  1  6
 16 57  1  0
 16 58  1  0
 17 59  1  0
 19 60  1  1
 20 61  1  0
 20 62  1  0
 21 63  1  0
 21 64  1  0
 22 65  1  1
 23 66  1  0
 25 67  1  0
 25 68  1  0
 25 69  1  0
 26 70  1  0
 26 71  1  0
 26 72  1  0
 28 73  1  0
 28 74  1  0
 28 75  1  0
 29 76  1  0
 29 77  1  0
 30 78  1  0
 30 79  1  0
 32 80  1  0
 32 81  1  0
 32 82  1  0
M  END
>  <meeko>  (8) 
{"is_sidechain": [false], "intermolecular_energy": 2.731, "internal_energy": -0.839}

$$$$
EPH_relaxed_0001_pdb2pqr_Repair_405_r2_0001_out
     RDKit          3D

 82 86  0  0  0  0  0  0  0  0999 V2000
    0.4150    8.8640   -2.5470 C   0  0  0  0  0  0  0  0  0  0  0  0
    1.1760   10.0250   -3.1930 C   0  0  2  0  0  0  0  0  0  0  0  0
    2.6690   10.0250   -2.8080 C   0  0  0  0  0  0  0  0  0  0  0  0
    3.5840   10.6000   -3.8930 C   0  0  0  0  0  0  0  0  0  0  0  0
    4.9720   10.8360   -3.3800 C   0  0  2  0  0  0  0  0  0  0  0  0
    5.5870   12.0430   -3.8500 O   0  0  0  0  0  0  0  0  0  0  0  0
    6.2060   10.8140   -4.2640 C   0  0  0  0  0  0  0  0  0  0  0  0
    6.1080   10.5490   -5.7340 C   0  0  0  0  0  0  0  0  0  0  0  0
    7.5380   10.5650   -3.6270 C   0  0  0  0  0  0  0  0  0  0  0  0
    0.5360   11.3510   -2.7970 C   0  0  1  0  0  0  0  0  0  0  0  0
   -0.8440   11.1670   -2.1130 C   0  0  0  0  0  0  0  0  0  0  0  0
   -0.9650   12.2810   -1.0420 C   0  0  0  0  0  0  0  0  0  0  0  0
    0.1880   13.2600   -1.3670 C   0  0  1  0  0  0  0  0  0  0  0  0
   -0.3550   14.1460   -2.5320 C   0  0  0  0  0  0  0  0  0  0  0  0
    0.7130   14.1290   -0.1780 C   0  0  2  0  0  0  0  0  0  0  0  0
   -0.3200   15.0920    0.4330 C   0  0  0  0  0  0  0  0  0  0  0  0
   -0.3600   16.4540   -0.1770 C   0  0  0  0  0  0  0  0  0  0  0  0
    0.5860   16.9820   -0.9760 C   0  0  0  0  0  0  0  0  0  0  0  0
    1.8890   16.2230   -1.2610 C   0  0  1  0  0  0  0  0  0  0  0  0
    3.0950   17.1850   -1.1020 C   0  0  0  0  0  0  0  0  0  0  0  0
    2.9550   18.4440   -1.9530 C   0  0  0  0  0  0  0  0  0  0  0  0
    1.6780   19.2020   -1.5990 C   0  0  2  0  0  0  0  0  0  0  0  0
    1.7970   19.7090   -0.2660 O   0  0  0  0  0  0  0  0  0  0  0  0
    0.3960   18.3300   -1.7130 C   0  0  0  0  0  0  0  0  0  0  0  0
    0.1010   18.0310   -3.2040 C   0  0  0  0  0  0  0  0  0  0  0  0
   -0.8010   19.1710   -1.1940 C   0  0  0  0  0  0  0  0  0  0  0  0
    2.0860   14.8610   -0.4660 C   0  0  1  0  0  0  0  0  0  0  0  0
    2.7390   15.1440    0.9210 C   0  0  0  0  0  0  0  0  0  0  0  0
    3.0970   13.9470   -1.2550 C   0  0  0  0  0  0  0  0  0  0  0  0
    2.5020   13.0240   -2.3350 C   0  0  0  0  0  0  0  0  0  0  0  0
    1.3060   12.2390   -1.7880 C   0  0  2  0  0  0  0  0  0  0  0  0
    1.8260   11.3220   -0.6290 C   0  0  0  0  0  0  0  0  0  0  0  0
    0.4726    8.9519   -1.4520 H   0  0  0  0  0  0  0  0  0  0  0  0
   -0.6383    8.8954   -2.8624 H   0  0  0  0  0  0  0  0  0  0  0  0
    0.8640    7.9106   -2.8624 H   0  0  0  0  0  0  0  0  0  0  0  0
    1.1156    9.8945   -4.2836 H   0  0  0  0  0  0  0  0  0  0  0  0
    2.7923   10.6262   -1.8951 H   0  0  0  0  0  0  0  0  0  0  0  0
    2.9635    8.9753   -2.6619 H   0  0  0  0  0  0  0  0  0  0  0  0
    3.6301    9.8911   -4.7328 H   0  0  0  0  0  0  0  0  0  0  0  0
    3.1686   11.5663   -4.2150 H   0  0  0  0  0  0  0  0  0  0  0  0
    4.7335   10.3296   -2.4331 H   0  0  0  0  0  0  0  0  0  0  0  0
    5.7307    9.5289   -5.8983 H   0  0  0  0  0  0  0  0  0  0  0  0
    5.4182   11.2732   -6.1920 H   0  0  0  0  0  0  0  0  0  0  0  0
    7.1030   10.6502   -6.1920 H   0  0  0  0  0  0  0  0  0  0  0  0
    7.4305   10.5851   -2.5325 H   0  0  0  0  0  0  0  0  0  0  0  0
    7.9160    9.5806   -3.9403 H   0  0  0  0  0  0  0  0  0  0  0  0
    8.2461   11.3463   -3.9403 H   0  0  0  0  0  0  0  0  0  0  0  0
    0.5039   11.8415   -3.7810 H   0  0  0  0  0  0  0  0  0  0  0  0
   -1.6504   11.2655   -2.8546 H   0  0  0  0  0  0  0  0  0  0  0  0
   -0.9285   10.1697   -1.6565 H   0  0  0  0  0  0  0  0  0  0  0  0
   -1.9382   12.7882   -1.1172 H   0  0  0  0  0  0  0  0  0  0  0  0
   -0.9002   11.8846   -0.0179 H   0  0  0  0  0  0  0  0  0  0  0  0
   -0.8870   15.0140   -2.1153 H   0  0  0  0  0  0  0  0  0  0  0  0
    0.4854   14.4935   -3.1508 H   0  0  0  0  0  0  0  0  0  0  0  0
   -1.0461   13.5548   -3.1508 H   0  0  0  0  0  0  0  0  0  0  0  0
    0.9109   13.3730    0.5961 H   0  0  0  0  0  0  0  0  0  0  0  0
   -1.3160   14.6391    0.3193 H   0  0  0  0  0  0  0  0  0  0  0  0
   -0.0192   15.2364    1.4812 H   0  0  0  0  0  0  0  0  0  0  0  0
   -1.2372   17.0794    0.0454 H   0  0  0  0  0  0  0  0  0  0  0  0
    1.8195   15.8817   -2.3044 H   0  0  0  0  0  0  0  0  0  0  0  0
    3.1735   17.4805   -0.0453 H   0  0  0  0  0  0  0  0  0  0  0  0
    3.9951   16.6511   -1.4409 H   0  0  0  0  0  0  0  0  0  0  0  0
    3.8223   19.0969   -1.7754 H   0  0  0  0  0  0  0  0  0  0  0  0
    2.9064   18.1489   -3.0116 H   0  0  0  0  0  0  0  0  0  0  0  0
    1.5676   20.0193   -2.3269 H   0  0  0  0  0  0  0  0  0  0  0  0
    1.4380   19.0380    0.3380 H   0  0  0  0  0  0  0  0  0  0  0  0
   -0.6699   17.2496   -3.2757 H   0  0  0  0  0  0  0  0  0  0  0  0
   -0.2576   18.9463   -3.6975 H   0  0  0  0  0  0  0  0  0  0  0  0
    1.0211   17.6847   -3.6975 H   0  0  0  0  0  0  0  0  0  0  0  0
   -0.8000   19.1703   -0.0940 H   0  0  0  0  0  0  0  0  0  0  0  0
   -0.7093   20.2042   -1.5601 H   0  0  0  0  0  0  0  0  0  0  0  0
   -1.7419   18.7344   -1.5601 H   0  0  0  0  0  0  0  0  0  0  0  0
    2.0460   14.8436    1.7207 H   0  0  0  0  0  0  0  0  0  0  0  0
    3.6730   14.5699    1.0105 H   0  0  0  0  0  0  0  0  0  0  0  0
    2.9588   16.2181    1.0105 H   0  0  0  0  0  0  0  0  0  0  0  0
    3.8277   14.6062   -1.7465 H   0  0  0  0  0  0  0  0  0  0  0  0
    3.5219   13.2694   -0.4998 H   0  0  0  0  0  0  0  0  0  0  0  0
    2.1716   13.6349   -3.1880 H   0  0  0  0  0  0  0  0  0  0  0  0
    3.2761   12.3088   -2.6501 H   0  0  0  0  0  0  0  0  0  0  0  0
    1.5693   11.7748    0.3401 H   0  0  0  0  0  0  0  0  0  0  0  0
    1.3556   10.3307   -0.7067 H   0  0  0  0  0  0  0  0  0  0  0  0
    2.9182   11.2167   -0.7067 H   0  0  0  0  0  0  0  0  0  0  0  0
  1  2  1  0
  2  3  1  0
  3  4  1  0
  4  5  1  0
  5  6  1  0
  6  7  1  0
  7  8  1  0
  7  9  1  0
  2 10  1  0
 10 11  1  0
 11 12  1  0
 12 13  1  0
 13 14  1  6
 13 15  1  0
 15 16  1  0
 16 17  1  0
 17 18  2  0
 18 19  1  0
 19 20  1  0
 20 21  1  0
 21 22  1  0
 22 23  1  0
 22 24  1  0
 24 25  1  0
 24 26  1  0
 19 27  1  0
 27 28  1  1
 27 29  1  0
 29 30  1  0
 30 31  1  0
 31 32  1  1
  7  5  1  0
 31 10  1  0
 31 13  1  0
 27 15  1  0
 24 18  1  0
  1 33  1  0
  1 34  1  0
  1 35  1  0
  2 36  1  6
  3 37  1  0
  3 38  1  0
  4 39  1  0
  4 40  1  0
  5 41  1  1
  8 42  1  0
  8 43  1  0
  8 44  1  0
  9 45  1  0
  9 46  1  0
  9 47  1  0
 10 48  1  6
 11 49  1  0
 11 50  1  0
 12 51  1  0
 12 52  1  0
 14 53  1  0
 14 54  1  0
 14 55  1  0
 15 56  1  1
 16 57  1  0
 16 58  1  0
 17 59  1  0
 19 60  1  6
 20 61  1  0
 20 62  1  0
 21 63  1  0
 21 64  1  0
 22 65  1  6
 23 66  1  0
 25 67  1  0
 25 68  1  0
 25 69  1  0
 26 70  1  0
 26 71  1  0
 26 72  1  0
 28 73  1  0
 28 74  1  0
 28 75  1  0
 29 76  1  0
 29 77  1  0
 30 78  1  0
 30 79  1  0
 32 80  1  0
 32 81  1  0
 32 82  1  0
M  END
>  <meeko>  (9) 
{"is_sidechain": [false], "intermolecular_energy": 2.731, "internal_energy": -0.839}

$$$$
EPH_relaxed_0001_pdb2pqr_Repair_405_r2_0001_out
     RDKit          3D

 82 86  0  0  0  0  0  0  0  0999 V2000
   -1.1380   16.3870   -5.7880 C   0  0  0  0  0  0  0  0  0  0  0  0
    0.0170   15.6400   -6.4590 C   0  0  2  0  0  0  0  0  0  0  0  0
   -0.3070   15.2590   -7.9180 C   0  0  0  0  0  0  0  0  0  0  0  0
    0.2280   16.2570   -8.9480 C   0  0  0  0  0  0  0  0  0  0  0  0
    1.6640   15.9910   -9.2840 C   0  0  2  0  0  0  0  0  0  0  0  0
    2.1490   16.6900  -10.4380 O   0  0  0  0  0  0  0  0  0  0  0  0
    2.1090   15.2570  -10.5350 C   0  0  0  0  0  0  0  0  0  0  0  0
    1.1170   14.7420  -11.5310 C   0  0  0  0  0  0  0  0  0  0  0  0
    3.4610   14.6150  -10.5460 C   0  0  0  0  0  0  0  0  0  0  0  0
    0.3630   14.3890   -5.6590 C   0  0  1  0  0  0  0  0  0  0  0  0
    1.3950   13.4840   -6.3810 C   0  0  0  0  0  0  0  0  0  0  0  0
    2.2850   12.8530   -5.2790 C   0  0  0  0  0  0  0  0  0  0  0  0
    1.5360   13.1460   -3.9580 C   0  0  1  0  0  0  0  0  0  0  0  0
    0.4310   12.0480   -3.8710 C   0  0  0  0  0  0  0  0  0  0  0  0
    2.4110   13.1890   -2.6630 C   0  0  2  0  0  0  0  0  0  0  0  0
    3.1150   11.8670   -2.3070 C   0  0  0  0  0  0  0  0  0  0  0  0
    2.3410   10.9520   -1.4170 C   0  0  0  0  0  0  0  0  0  0  0  0
    1.2590   11.2940   -0.6940 C   0  0  0  0  0  0  0  0  0  0  0  0
    0.7670   12.7470   -0.6520 C   0  0  1  0  0  0  0  0  0  0  0  0
    0.4700   13.1510    0.8160 C   0  0  0  0  0  0  0  0  0  0  0  0
   -0.4940   12.1880    1.5040 C   0  0  0  0  0  0  0  0  0  0  0  0
    0.0580   10.7650    1.4940 C   0  0  2  0  0  0  0  0  0  0  0  0
    1.2260   10.7170    2.3190 O   0  0  0  0  0  0  0  0  0  0  0  0
    0.4040   10.2520    0.0680 C   0  0  0  0  0  0  0  0  0  0  0  0
   -0.9020   10.0180   -0.7320 C   0  0  0  0  0  0  0  0  0  0  0  0
    1.0800    8.8620    0.2110 C   0  0  0  0  0  0  0  0  0  0  0  0
    1.6780   13.8090   -1.4050 C   0  0  1  0  0  0  0  0  0  0  0  0
    2.7950   14.3260   -0.4480 C   0  0  0  0  0  0  0  0  0  0  0  0
    0.8020   15.0620   -1.7820 C   0  0  0  0  0  0  0  0  0  0  0  0
    0.0570   15.0100   -3.1290 C   0  0  0  0  0  0  0  0  0  0  0  0
    1.0000   14.5930   -4.2610 C   0  0  2  0  0  0  0  0  0  0  0  0
    2.1110   15.6910   -4.3870 C   0  0  0  0  0  0  0  0  0  0  0  0
   -1.0329   16.3190   -4.6951 H   0  0  0  0  0  0  0  0  0  0  0  0
   -1.1179   17.4436   -6.0933 H   0  0  0  0  0  0  0  0  0  0  0  0
   -2.0934   15.9353   -6.0933 H   0  0  0  0  0  0  0  0  0  0  0  0
    0.8820   16.3193   -6.4791 H   0  0  0  0  0  0  0  0  0  0  0  0
    0.1361   14.2739   -8.1262 H   0  0  0  0  0  0  0  0  0  0  0  0
   -1.4028   15.2550   -8.0134 H   0  0  0  0  0  0  0  0  0  0  0  0
   -0.3732   16.1787   -9.8658 H   0  0  0  0  0  0  0  0  0  0  0  0
    0.1583   17.2661   -8.5158 H   0  0  0  0  0  0  0  0  0  0  0  0
    1.9111   15.8539   -8.2209 H   0  0  0  0  0  0  0  0  0  0  0  0
    0.2617   14.2980  -11.0007 H   0  0  0  0  0  0  0  0  0  0  0  0
    0.7664   15.5719  -12.1621 H   0  0  0  0  0  0  0  0  0  0  0  0
    1.5940   13.9777  -12.1621 H   0  0  0  0  0  0  0  0  0  0  0  0
    3.7991   14.4545   -9.5116 H   0  0  0  0  0  0  0  0  0  0  0  0
    3.4035   13.6480  -11.0672 H   0  0  0  0  0  0  0  0  0  0  0  0
    4.1740   15.2707  -11.0672 H   0  0  0  0  0  0  0  0  0  0  0  0
   -0.6416   13.9531   -5.5548 H   0  0  0  0  0  0  0  0  0  0  0  0
    0.8770   12.6958   -6.9470 H   0  0  0  0  0  0  0  0  0  0  0  0
    2.0000   14.0649   -7.0927 H   0  0  0  0  0  0  0  0  0  0  0  0
    2.3869   11.7690   -5.4355 H   0  0  0  0  0  0  0  0  0  0  0  0
    3.3053   13.2642   -5.2803 H   0  0  0  0  0  0  0  0  0  0  0  0
    0.2123   11.8307   -2.8151 H   0  0  0  0  0  0  0  0  0  0  0  0
   -0.4823   12.4067   -4.3683 H   0  0  0  0  0  0  0  0  0  0  0  0
    0.7839   11.1325   -4.3683 H   0  0  0  0  0  0  0  0  0  0  0  0
    3.2118   13.8891   -2.9433 H   0  0  0  0  0  0  0  0  0  0  0  0
    3.3262   11.3313   -3.2442 H   0  0  0  0  0  0  0  0  0  0  0  0
    4.0189   12.1452   -1.7453 H   0  0  0  0  0  0  0  0  0  0  0  0
    2.6845    9.9094   -1.3462 H   0  0  0  0  0  0  0  0  0  0  0  0
   -0.1620   12.7708   -1.2406 H   0  0  0  0  0  0  0  0  0  0  0  0
    1.4163   13.1634    1.3767 H   0  0  0  0  0  0  0  0  0  0  0  0
   -0.0039   14.1436    0.8000 H   0  0  0  0  0  0  0  0  0  0  0  0
   -0.6422   12.5095    2.5455 H   0  0  0  0  0  0  0  0  0  0  0  0
   -1.4495   12.1982    0.9591 H   0  0  0  0  0  0  0  0  0  0  0  0
   -0.7300   10.1033    1.8828 H   0  0  0  0  0  0  0  0  0  0  0  0
    1.9920   10.9220    1.7560 H   0  0  0  0  0  0  0  0  0  0  0  0
   -1.7382    9.8682   -0.0332 H   0  0  0  0  0  0  0  0  0  0  0  0
   -1.1059   10.8939   -1.3654 H   0  0  0  0  0  0  0  0  0  0  0  0
   -0.7891    9.1258   -1.3654 H   0  0  0  0  0  0  0  0  0  0  0  0
    1.1979    8.6196    1.2775 H   0  0  0  0  0  0  0  0  0  0  0  0
    0.4529    8.0979   -0.2716 H   0  0  0  0  0  0  0  0  0  0  0  0
    2.0683    8.8835   -0.2716 H   0  0  0  0  0  0  0  0  0  0  0  0
    2.4800   14.1802    0.5958 H   0  0  0  0  0  0  0  0  0  0  0  0
    3.7238   13.7662   -0.6323 H   0  0  0  0  0  0  0  0  0  0  0  0
    2.9693   15.3964   -0.6323 H   0  0  0  0  0  0  0  0  0  0  0  0
    0.0493   15.1918   -0.9905 H   0  0  0  0  0  0  0  0  0  0  0  0
    1.5162   15.8927   -1.8806 H   0  0  0  0  0  0  0  0  0  0  0  0
   -0.7643   14.2817   -3.0581 H   0  0  0  0  0  0  0  0  0  0  0  0
   -0.3360   16.0130   -3.3514 H   0  0  0  0  0  0  0  0  0  0  0  0
    2.4303   16.0065   -3.3827 H   0  0  0  0  0  0  0  0  0  0  0  0
    2.9726   15.2798   -4.9333 H   0  0  0  0  0  0  0  0  0  0  0  0
    1.7100   16.5574   -4.9333 H   0  0  0  0  0  0  0  0  0  0  0  0
  1  2  1  0
  2  3  1  0
  3  4  1  0
  4  5  1  0
  5  6  1  0
  6  7  1  0
  7  8  1  0
  7  9  1  0
  2 10  1  0
 10 11  1  0
 11 12  1  0
 12 13  1  0
 13 14  1  1
 13 15  1  0
 15 16  1  0
 16 17  1  0
 17 18  2  0
 18 19  1  0
 19 20  1  0
 20 21  1  0
 21 22  1  0
 22 23  1  0
 22 24  1  0
 24 25  1  0
 24 26  1  0
 19 27  1  0
 27 28  1  1
 27 29  1  0
 29 30  1  0
 30 31  1  0
 31 32  1  6
  7  5  1  0
 31 10  1  0
 31 13  1  0
 27 15  1  0
 24 18  1  0
  1 33  1  0
  1 34  1  0
  1 35  1  0
  2 36  1  6
  3 37  1  0
  3 38  1  0
  4 39  1  0
  4 40  1  0
  5 41  1  1
  8 42  1  0
  8 43  1  0
  8 44  1  0
  9 45  1  0
  9 46  1  0
  9 47  1  0
 10 48  1  1
 11 49  1  0
 11 50  1  0
 12 51  1  0
 12 52  1  0
 14 53  1  0
 14 54  1  0
 14 55  1  0
 15 56  1  6
 16 57  1  0
 16 58  1  0
 17 59  1  0
 19 60  1  6
 20 61  1  0
 20 62  1  0
 21 63  1  0
 21 64  1  0
 22 65  1  1
 23 66  1  0
 25 67  1  0
 25 68  1  0
 25 69  1  0
 26 70  1  0
 26 71  1  0
 26 72  1  0
 28 73  1  0
 28 74  1  0
 28 75  1  0
 29 76  1  0
 29 77  1  0
 30 78  1  0
 30 79  1  0
 32 80  1  0
 32 81  1  0
 32 82  1  0
M  END
>  <meeko>  (10) 
{"is_sidechain": [false], "intermolecular_energy": 2.731, "internal_energy": -0.839}

$$$$
EPH_relaxed_0001_pdb2pqr_Repair_405_r2_0001_out
     RDKit          3D

 82 86  0  0  0  0  0  0  0  0999 V2000
    2.7770   18.8570   -1.2850 C   0  0  0  0  0  0  0  0  0  0  0  0
    2.4860   17.7750   -2.3290 C   0  0  2  0  0  0  0  0  0  0  0  0
    1.0630   17.8970   -2.9100 C   0  0  0  0  0  0  0  0  0  0  0  0
    0.3710   19.2200   -2.5700 C   0  0  0  0  0  0  0  0  0  0  0  0
   -0.9270   18.9970   -1.8540 C   0  0  2  0  0  0  0  0  0  0  0  0
   -1.6720   20.1910   -1.5790 O   0  0  0  0  0  0  0  0  0  0  0  0
   -1.1920   19.4660   -0.4360 C   0  0  0  0  0  0  0  0  0  0  0  0
   -0.1490   20.1940    0.3530 C   0  0  0  0  0  0  0  0  0  0  0  0
   -2.2740   18.7940    0.3500 C   0  0  0  0  0  0  0  0  0  0  0  0
    2.6810   16.3940   -1.7140 C   0  0  1  0  0  0  0  0  0  0  0  0
    3.4900   16.4380   -0.3910 C   0  0  0  0  0  0  0  0  0  0  0  0
    2.9080   15.3310    0.5260 C   0  0  0  0  0  0  0  0  0  0  0  0
    2.0200   14.4770   -0.4090 C   0  0  1  0  0  0  0  0  0  0  0  0
    3.0130   13.5230   -1.1430 C   0  0  0  0  0  0  0  0  0  0  0  0
    0.8580   13.6870    0.2750 C   0  0  2  0  0  0  0  0  0  0  0  0
    1.3030   12.6260    1.2970 C   0  0  0  0  0  0  0  0  0  0  0  0
    1.5290   11.2600    0.7410 C   0  0  0  0  0  0  0  0  0  0  0  0
    1.1110   10.8260   -0.4630 C   0  0  0  0  0  0  0  0  0  0  0  0
    0.2460   11.7170   -1.3640 C   0  0  1  0  0  0  0  0  0  0  0  0
   -0.9450   10.8920   -1.9180 C   0  0  0  0  0  0  0  0  0  0  0  0
   -0.4950    9.6140   -2.6200 C   0  0  0  0  0  0  0  0  0  0  0  0
    0.3120    8.7280   -1.6750 C   0  0  2  0  0  0  0  0  0  0  0  0
   -0.5520    8.2540   -0.6370 O   0  0  0  0  0  0  0  0  0  0  0  0
    1.5340    9.4560   -1.0470 C   0  0  0  0  0  0  0  0  0  0  0  0
    2.6090    9.7010   -2.1340 C   0  0  0  0  0  0  0  0  0  0  0  0
    2.1780    8.4980   -0.0080 C   0  0  0  0  0  0  0  0  0  0  0  0
   -0.2110   13.1030   -0.7350 C   0  0  1  0  0  0  0  0  0  0  0  0
   -1.5300   12.9100    0.0740 C   0  0  0  0  0  0  0  0  0  0  0  0
   -0.5470   14.1100   -1.8990 C   0  0  0  0  0  0  0  0  0  0  0  0
    0.6210   14.9480   -2.4510 C   0  0  0  0  0  0  0  0  0  0  0  0
    1.4080   15.6080   -1.3140 C   0  0  2  0  0  0  0  0  0  0  0  0
    0.4410   16.5910   -0.5710 C   0  0  0  0  0  0  0  0  0  0  0  0
    2.6631   18.4333   -0.2763 H   0  0  0  0  0  0  0  0  0  0  0  0
    3.8058   19.2242   -1.4144 H   0  0  0  0  0  0  0  0  0  0  0  0
    2.0712   19.6907   -1.4144 H   0  0  0  0  0  0  0  0  0  0  0  0
    3.1945   17.9160   -3.1586 H   0  0  0  0  0  0  0  0  0  0  0  0
    1.1261   17.8093   -4.0047 H   0  0  0  0  0  0  0  0  0  0  0  0
    0.4615   17.0942   -2.4588 H   0  0  0  0  0  0  0  0  0  0  0  0
    1.0357   19.8153   -1.9266 H   0  0  0  0  0  0  0  0  0  0  0  0
    0.1579   19.7481   -3.5111 H   0  0  0  0  0  0  0  0  0  0  0  0
   -1.0568   18.0211   -2.3447 H   0  0  0  0  0  0  0  0  0  0  0  0
   -0.3418   20.0594    1.4276 H   0  0  0  0  0  0  0  0  0  0  0  0
    0.8447   19.7923    0.1056 H   0  0  0  0  0  0  0  0  0  0  0  0
   -0.1834   21.2653    0.1056 H   0  0  0  0  0  0  0  0  0  0  0  0
   -2.0764   18.9167    1.4251 H   0  0  0  0  0  0  0  0  0  0  0  0
   -3.2443   19.2487    0.1013 H   0  0  0  0  0  0  0  0  0  0  0  0
   -2.2965   17.7227    0.1013 H   0  0  0  0  0  0  0  0  0  0  0  0
    3.1873   15.8896   -2.5502 H   0  0  0  0  0  0  0  0  0  0  0  0
    4.5541   16.2437   -0.5910 H   0  0  0  0  0  0  0  0  0  0  0  0
    3.4141   17.4264    0.0858 H   0  0  0  0  0  0  0  0  0  0  0  0
    3.7148   14.7214    0.9589 H   0  0  0  0  0  0  0  0  0  0  0  0
    2.3431   15.7458    1.3738 H   0  0  0  0  0  0  0  0  0  0  0  0
    3.5981   12.9609   -0.4003 H   0  0  0  0  0  0  0  0  0  0  0  0
    2.4482   12.8201   -1.7731 H   0  0  0  0  0  0  0  0  0  0  0  0
    3.6927   14.1155   -1.7731 H   0  0  0  0  0  0  0  0  0  0  0  0
    0.3521   14.4704    0.8584 H   0  0  0  0  0  0  0  0  0  0  0  0
    2.2441   12.9672    1.7531 H   0  0  0  0  0  0  0  0  0  0  0  0
    0.4750   12.5290    2.0146 H   0  0  0  0  0  0  0  0  0  0  0  0
    2.0843   10.5469    1.3680 H   0  0  0  0  0  0  0  0  0  0  0  0
    0.8964   12.0351   -2.1921 H   0  0  0  0  0  0  0  0  0  0  0  0
   -1.6057   10.6209   -1.0813 H   0  0  0  0  0  0  0  0  0  0  0  0
   -1.4663   11.5148   -2.6599 H   0  0  0  0  0  0  0  0  0  0  0  0
   -1.3815    9.0606   -2.9633 H   0  0  0  0  0  0  0  0  0  0  0  0
    0.1418    9.8880   -3.4740 H   0  0  0  0  0  0  0  0  0  0  0  0
    0.7149    7.8937   -2.2679 H   0  0  0  0  0  0  0  0  0  0  0  0
   -0.3860    8.7960    0.1540 H   0  0  0  0  0  0  0  0  0  0  0  0
    3.5735    9.9208   -1.6529 H   0  0  0  0  0  0  0  0  0  0  0  0
    2.7082    8.8024   -2.7607 H   0  0  0  0  0  0  0  0  0  0  0  0
    2.3091   10.5538   -2.7607 H   0  0  0  0  0  0  0  0  0  0  0  0
    1.9430    8.8476    1.0081 H   0  0  0  0  0  0  0  0  0  0  0  0
    1.7782    7.4829   -0.1481 H   0  0  0  0  0  0  0  0  0  0  0  0
    3.2690    8.4850   -0.1481 H   0  0  0  0  0  0  0  0  0  0  0  0
   -1.3078   12.9425    1.1508 H   0  0  0  0  0  0  0  0  0  0  0  0
   -2.2364   13.7143   -0.1791 H   0  0  0  0  0  0  0  0  0  0  0  0
   -1.9763   11.9370   -0.1791 H   0  0  0  0  0  0  0  0  0  0  0  0
   -0.9619   13.5267   -2.7342 H   0  0  0  0  0  0  0  0  0  0  0  0
   -1.2410   14.8399   -1.4567 H   0  0  0  0  0  0  0  0  0  0  0  0
    1.2952   14.2931   -3.0224 H   0  0  0  0  0  0  0  0  0  0  0  0
    0.2111   15.7374   -3.0981 H   0  0  0  0  0  0  0  0  0  0  0  0
    0.5596   16.4704    0.5159 H   0  0  0  0  0  0  0  0  0  0  0  0
    0.6824   17.6263   -0.8536 H   0  0  0  0  0  0  0  0  0  0  0  0
   -0.5981   16.3666   -0.8536 H   0  0  0  0  0  0  0  0  0  0  0  0
  1  2  1  0
  2  3  1  0
  3  4  1  0
  4  5  1  0
  5  6  1  0
  6  7  1  0
  7  8  1  0
  7  9  1  0
  2 10  1  0
 10 11  1  0
 11 12  1  0
 12 13  1  0
 13 14  1  6
 13 15  1  0
 15 16  1  0
 16 17  1  0
 17 18  2  0
 18 19  1  0
 19 20  1  0
 20 21  1  0
 21 22  1  0
 22 23  1  0
 22 24  1  0
 24 25  1  0
 24 26  1  0
 19 27  1  0
 27 28  1  1
 27 29  1  0
 29 30  1  0
 30 31  1  0
 31 32  1  1
  7  5  1  0
 31 10  1  0
 31 13  1  0
 27 15  1  0
 24 18  1  0
  1 33  1  0
  1 34  1  0
  1 35  1  0
  2 36  1  6
  3 37  1  0
  3 38  1  0
  4 39  1  0
  4 40  1  0
  5 41  1  1
  8 42  1  0
  8 43  1  0
  8 44  1  0
  9 45  1  0
  9 46  1  0
  9 47  1  0
 10 48  1  6
 11 49  1  0
 11 50  1  0
 12 51  1  0
 12 52  1  0
 14 53  1  0
 14 54  1  0
 14 55  1  0
 15 56  1  1
 16 57  1  0
 16 58  1  0
 17 59  1  0
 19 60  1  6
 20 61  1  0
 20 62  1  0
 21 63  1  0
 21 64  1  0
 22 65  1  6
 23 66  1  0
 25 67  1  0
 25 68  1  0
 25 69  1  0
 26 70  1  0
 26 71  1  0
 26 72  1  0
 28 73  1  0
 28 74  1  0
 28 75  1  0
 29 76  1  0
 29 77  1  0
 30 78  1  0
 30 79  1  0
 32 80  1  0
 32 81  1  0
 32 82  1  0
M  END
>  <meeko>  (11) 
{"is_sidechain": [false], "intermolecular_energy": 2.731, "internal_energy": -0.839}

$$$$
EPH_relaxed_0001_pdb2pqr_Repair_405_r2_0001_out
     RDKit          3D

 82 86  0  0  0  0  0  0  0  0999 V2000
   -3.7000    7.1620   -3.4220 C   0  0  0  0  0  0  0  0  0  0  0  0
   -3.7450    7.2560   -1.8940 C   0  0  2  0  0  0  0  0  0  0  0  0
   -5.1670    7.0370   -1.3400 C   0  0  0  0  0  0  0  0  0  0  0  0
   -6.2750    7.3370   -2.3530 C   0  0  0  0  0  0  0  0  0  0  0  0
   -7.6040    7.5160   -1.6850 C   0  0  2  0  0  0  0  0  0  0  0  0
   -8.1620    6.3180   -1.1300 O   0  0  0  0  0  0  0  0  0  0  0  0
   -8.8940    6.9160   -2.2120 C   0  0  0  0  0  0  0  0  0  0  0  0
   -8.9170    6.0910   -3.4610 C   0  0  0  0  0  0  0  0  0  0  0  0
  -10.1930    7.5310   -1.7940 C   0  0  0  0  0  0  0  0  0  0  0  0
   -3.2110    8.6100   -1.4410 C   0  0  1  0  0  0  0  0  0  0  0  0
   -3.8810    9.1080   -0.1320 C   0  0  0  0  0  0  0  0  0  0  0  0
   -2.7930    9.8740    0.6630 C   0  0  0  0  0  0  0  0  0  0  0  0
   -1.6410   10.0780   -0.3480 C   0  0  1  0  0  0  0  0  0  0  0  0
   -2.0680   11.3150   -1.1990 C   0  0  0  0  0  0  0  0  0  0  0  0
   -0.2120   10.2610    0.2590 C   0  0  2  0  0  0  0  0  0  0  0  0
   -0.0360   11.5040    1.1500 C   0  0  0  0  0  0  0  0  0  0  0  0
    0.4130   12.7380    0.4410 C   0  0  0  0  0  0  0  0  0  0  0  0
    0.9380   12.7820   -0.7980 C   0  0  0  0  0  0  0  0  0  0  0  0
    1.2160   11.4920   -1.5810 C   0  0  1  0  0  0  0  0  0  0  0  0
    2.6330   11.5620   -2.2070 C   0  0  0  0  0  0  0  0  0  0  0  0
    2.8380   12.8150   -3.0540 C   0  0  0  0  0  0  0  0  0  0  0  0
    2.6100   14.0760   -2.2250 C   0  0  2  0  0  0  0  0  0  0  0  0
    3.6380   14.1690   -1.2340 O   0  0  0  0  0  0  0  0  0  0  0  0
    1.2170   14.1140   -1.5370 C   0  0  0  0  0  0  0  0  0  0  0  0
    0.1140   14.3170   -2.6050 C   0  0  0  0  0  0  0  0  0  0  0  0
    1.1700   15.3670   -0.6210 C   0  0  0  0  0  0  0  0  0  0  0  0
    0.9620   10.1350   -0.7950 C   0  0  1  0  0  0  0  0  0  0  0  0
    2.2390    9.7380    0.0070 C   0  0  0  0  0  0  0  0  0  0  0  0
    0.7110    8.9780   -1.8330 C   0  0  0  0  0  0  0  0  0  0  0  0
   -0.7400    8.7700   -2.3050 C   0  0  0  0  0  0  0  0  0  0  0  0
   -1.7000    8.7050   -1.1130 C   0  0  2  0  0  0  0  0  0  0  0  0
   -1.3090    7.4570   -0.2500 C   0  0  0  0  0  0  0  0  0  0  0  0
   -3.2425    6.2062   -3.7172 H   0  0  0  0  0  0  0  0  0  0  0  0
   -4.7227    7.2183   -3.8231 H   0  0  0  0  0  0  0  0  0  0  0  0
   -3.1025    7.9939   -3.8231 H   0  0  0  0  0  0  0  0  0  0  0  0
   -3.1086    6.4529   -1.4939 H   0  0  0  0  0  0  0  0  0  0  0  0
   -5.2592    5.9870   -1.0252 H   0  0  0  0  0  0  0  0  0  0  0  0
   -5.2977    7.7390   -0.5033 H   0  0  0  0  0  0  0  0  0  0  0  0
   -6.0216    8.2598   -2.8954 H   0  0  0  0  0  0  0  0  0  0  0  0
   -6.3501    6.4825   -3.0416 H   0  0  0  0  0  0  0  0  0  0  0  0
   -7.3373    8.5380   -1.3778 H   0  0  0  0  0  0  0  0  0  0  0  0
   -8.9467    5.0240   -3.1952 H   0  0  0  0  0  0  0  0  0  0  0  0
   -9.8084    6.3464   -4.0528 H   0  0  0  0  0  0  0  0  0  0  0  0
   -8.0128    6.2964   -4.0528 H   0  0  0  0  0  0  0  0  0  0  0  0
  -10.2494    7.5577   -0.6958 H   0  0  0  0  0  0  0  0  0  0  0  0
  -10.2578    8.5554   -2.1895 H   0  0  0  0  0  0  0  0  0  0  0  0
  -11.0264    6.9319   -2.1895 H   0  0  0  0  0  0  0  0  0  0  0  0
   -3.4395    9.2077   -2.3357 H   0  0  0  0  0  0  0  0  0  0  0  0
   -4.7208    9.7784   -0.3674 H   0  0  0  0  0  0  0  0  0  0  0  0
   -4.2790    8.2660    0.4534 H   0  0  0  0  0  0  0  0  0  0  0  0
   -3.1782   10.8430    1.0133 H   0  0  0  0  0  0  0  0  0  0  0  0
   -2.4684    9.3258    1.5597 H   0  0  0  0  0  0  0  0  0  0  0  0
   -2.3528   12.1400   -0.5295 H   0  0  0  0  0  0  0  0  0  0  0  0
   -1.2271   11.6314   -1.8336 H   0  0  0  0  0  0  0  0  0  0  0  0
   -2.9250   11.0453   -1.8336 H   0  0  0  0  0  0  0  0  0  0  0  0
   -0.1298    9.3954    0.9328 H   0  0  0  0  0  0  0  0  0  0  0  0
   -1.0031   11.7194    1.6279 H   0  0  0  0  0  0  0  0  0  0  0  0
    0.7628   11.2558    1.8644 H   0  0  0  0  0  0  0  0  0  0  0  0
    0.3059   13.6930    0.9763 H   0  0  0  0  0  0  0  0  0  0  0  0
    0.4579   11.4501   -2.3770 H   0  0  0  0  0  0  0  0  0  0  0  0
    3.3769   11.5587   -1.3967 H   0  0  0  0  0  0  0  0  0  0  0  0
    2.7494   10.6901   -2.8675 H   0  0  0  0  0  0  0  0  0  0  0  0
    3.8664   12.8216   -3.4443 H   0  0  0  0  0  0  0  0  0  0  0  0
    2.1132   12.8024   -3.8813 H   0  0  0  0  0  0  0  0  0  0  0  0
    2.6432   14.9330   -2.9137 H   0  0  0  0  0  0  0  0  0  0  0  0
    4.4940   14.1550   -1.6960 H   0  0  0  0  0  0  0  0  0  0  0  0
   -0.8505   14.4945   -2.1068 H   0  0  0  0  0  0  0  0  0  0  0  0
    0.3671   15.1836   -3.2334 H   0  0  0  0  0  0  0  0  0  0  0  0
    0.0420   13.4170   -3.2334 H   0  0  0  0  0  0  0  0  0  0  0  0
    1.1818   15.0515    0.4327 H   0  0  0  0  0  0  0  0  0  0  0  0
    2.0449   16.0022   -0.8234 H   0  0  0  0  0  0  0  0  0  0  0  0
    0.2499   15.9349   -0.8234 H   0  0  0  0  0  0  0  0  0  0  0  0
    2.0299    9.8030    1.0850 H   0  0  0  0  0  0  0  0  0  0  0  0
    2.5273    8.7078   -0.2491 H   0  0  0  0  0  0  0  0  0  0  0  0
    3.0606   10.4231   -0.2491 H   0  0  0  0  0  0  0  0  0  0  0  0
    1.3228    9.1904   -2.7222 H   0  0  0  0  0  0  0  0  0  0  0  0
    0.9757    8.0523   -1.3011 H   0  0  0  0  0  0  0  0  0  0  0  0
   -1.0304    9.6080   -2.9557 H   0  0  0  0  0  0  0  0  0  0  0  0
   -0.7974    7.8185   -2.8540 H   0  0  0  0  0  0  0  0  0  0  0  0
   -1.3883    7.7100    0.8176 H   0  0  0  0  0  0  0  0  0  0  0  0
   -1.9892    6.6239   -0.4809 H   0  0  0  0  0  0  0  0  0  0  0  0
   -0.2751    7.1609   -0.4809 H   0  0  0  0  0  0  0  0  0  0  0  0
  1  2  1  0
  2  3  1  0
  3  4  1  0
  4  5  1  0
  5  6  1  0
  6  7  1  0
  7  8  1  0
  7  9  1  0
  2 10  1  0
 10 11  1  0
 11 12  1  0
 12 13  1  0
 13 14  1  6
 13 15  1  0
 15 16  1  0
 16 17  1  0
 17 18  2  0
 18 19  1  0
 19 20  1  0
 20 21  1  0
 21 22  1  0
 22 23  1  0
 22 24  1  0
 24 25  1  0
 24 26  1  0
 19 27  1  0
 27 28  1  1
 27 29  1  0
 29 30  1  0
 30 31  1  0
 31 32  1  1
  7  5  1  0
 31 10  1  0
 31 13  1  0
 27 15  1  0
 24 18  1  0
  1 33  1  0
  1 34  1  0
  1 35  1  0
  2 36  1  1
  3 37  1  0
  3 38  1  0
  4 39  1  0
  4 40  1  0
  5 41  1  1
  8 42  1  0
  8 43  1  0
  8 44  1  0
  9 45  1  0
  9 46  1  0
  9 47  1  0
 10 48  1  6
 11 49  1  0
 11 50  1  0
 12 51  1  0
 12 52  1  0
 14 53  1  0
 14 54  1  0
 14 55  1  0
 15 56  1  1
 16 57  1  0
 16 58  1  0
 17 59  1  0
 19 60  1  6
 20 61  1  0
 20 62  1  0
 21 63  1  0
 21 64  1  0
 22 65  1  6
 23 66  1  0
 25 67  1  0
 25 68  1  0
 25 69  1  0
 26 70  1  0
 26 71  1  0
 26 72  1  0
 28 73  1  0
 28 74  1  0
 28 75  1  0
 29 76  1  0
 29 77  1  0
 30 78  1  0
 30 79  1  0
 32 80  1  0
 32 81  1  0
 32 82  1  0
M  END
>  <meeko>  (12) 
{"is_sidechain": [false], "intermolecular_energy": 2.731, "internal_energy": -0.839}

$$$$
EPH_relaxed_0001_pdb2pqr_Repair_405_r2_0001_out
     RDKit          3D

 82 86  0  0  0  0  0  0  0  0999 V2000
   -0.2910   15.1760   -7.4910 C   0  0  0  0  0  0  0  0  0  0  0  0
    1.1150   15.0870   -6.8910 C   0  0  2  0  0  0  0  0  0  0  0  0
    2.2120   15.1320   -7.9730 C   0  0  0  0  0  0  0  0  0  0  0  0
    2.2560   16.4490   -8.7520 C   0  0  0  0  0  0  0  0  0  0  0  0
    1.8530   16.2620  -10.1830 C   0  0  2  0  0  0  0  0  0  0  0  0
    1.1960   15.0180  -10.4610 O   0  0  0  0  0  0  0  0  0  0  0  0
    2.4700   15.2190  -11.0960 C   0  0  0  0  0  0  0  0  0  0  0  0
    3.5430   14.2950  -10.6130 C   0  0  0  0  0  0  0  0  0  0  0  0
    2.3800   15.4220  -12.5770 C   0  0  0  0  0  0  0  0  0  0  0  0
    1.2480   13.8130   -6.0660 C   0  0  1  0  0  0  0  0  0  0  0  0
    2.6770   13.2090   -6.1260 C   0  0  0  0  0  0  0  0  0  0  0  0
    2.9580   12.5870   -4.7340 C   0  0  0  0  0  0  0  0  0  0  0  0
    1.5790   12.5570   -4.0340 C   0  0  1  0  0  0  0  0  0  0  0  0
    0.8710   11.2860   -4.5980 C   0  0  0  0  0  0  0  0  0  0  0  0
    1.5980   12.5620   -2.4700 C   0  0  2  0  0  0  0  0  0  0  0  0
    2.2760   11.3430   -1.8220 C   0  0  0  0  0  0  0  0  0  0  0  0
    1.3730   10.1920   -1.5280 C   0  0  0  0  0  0  0  0  0  0  0  0
    0.0270   10.2380   -1.5090 C   0  0  0  0  0  0  0  0  0  0  0  0
   -0.7180   11.5640   -1.7070 C   0  0  1  0  0  0  0  0  0  0  0  0
   -1.8300   11.6980   -0.6330 C   0  0  0  0  0  0  0  0  0  0  0  0
   -2.7710   10.4970   -0.6130 C   0  0  0  0  0  0  0  0  0  0  0  0
   -2.0000    9.2040   -0.3570 C   0  0  2  0  0  0  0  0  0  0  0  0
   -1.4730    9.2390    0.9730 O   0  0  0  0  0  0  0  0  0  0  0  0
   -0.8470    8.9670   -1.3710 C   0  0  0  0  0  0  0  0  0  0  0  0
   -1.4380    8.6310   -2.7630 C   0  0  0  0  0  0  0  0  0  0  0  0
   -0.0630    7.7070   -0.9170 C   0  0  0  0  0  0  0  0  0  0  0  0
    0.1930   12.8630   -1.8070 C   0  0  1  0  0  0  0  0  0  0  0  0
    0.4850   13.4200   -0.3800 C   0  0  0  0  0  0  0  0  0  0  0  0
   -0.6000   13.9890   -2.5690 C   0  0  0  0  0  0  0  0  0  0  0  0
   -0.4820   14.0040   -4.1050 C   0  0  0  0  0  0  0  0  0  0  0  0
    0.9830   13.9200   -4.5430 C   0  0  2  0  0  0  0  0  0  0  0  0
    1.7160   15.1970   -4.0090 C   0  0  0  0  0  0  0  0  0  0  0  0
   -1.0332   15.2230   -6.6805 H   0  0  0  0  0  0  0  0  0  0  0  0
   -0.3682   16.0808   -8.1118 H   0  0  0  0  0  0  0  0  0  0  0  0
   -0.4816   14.2881   -8.1118 H   0  0  0  0  0  0  0  0  0  0  0  0
    1.2548   15.9651   -6.2434 H   0  0  0  0  0  0  0  0  0  0  0  0
    3.1868   14.9846   -7.4852 H   0  0  0  0  0  0  0  0  0  0  0  0
    1.9804   14.3379   -8.6980 H   0  0  0  0  0  0  0  0  0  0  0  0
    1.5685   17.1657   -8.2791 H   0  0  0  0  0  0  0  0  0  0  0  0
    3.2903   16.8230   -8.7338 H   0  0  0  0  0  0  0  0  0  0  0  0
    1.6886   17.3430  -10.3035 H   0  0  0  0  0  0  0  0  0  0  0  0
    3.5523   14.2870   -9.5131 H   0  0  0  0  0  0  0  0  0  0  0  0
    3.3468   13.2787  -10.9854 H   0  0  0  0  0  0  0  0  0  0  0  0
    4.5189   14.6399  -10.9854 H   0  0  0  0  0  0  0  0  0  0  0  0
    1.9423   16.4093  -12.7858 H   0  0  0  0  0  0  0  0  0  0  0  0
    3.3869   15.3669  -13.0165 H   0  0  0  0  0  0  0  0  0  0  0  0
    1.7447   14.6389  -13.0165 H   0  0  0  0  0  0  0  0  0  0  0  0
    0.4658   13.2032   -6.5418 H   0  0  0  0  0  0  0  0  0  0  0  0
    2.7283   12.4338   -6.9047 H   0  0  0  0  0  0  0  0  0  0  0  0
    3.4219   13.9801   -6.3719 H   0  0  0  0  0  0  0  0  0  0  0  0
    3.3629   11.5695   -4.8380 H   0  0  0  0  0  0  0  0  0  0  0  0
    3.7029   13.1611   -4.1634 H   0  0  0  0  0  0  0  0  0  0  0  0
    0.5222   10.6599   -3.7636 H   0  0  0  0  0  0  0  0  0  0  0  0
    0.0112   11.5881   -5.2140 H   0  0  0  0  0  0  0  0  0  0  0  0
    1.5805   10.7140   -5.2140 H   0  0  0  0  0  0  0  0  0  0  0  0
    2.2484   13.4198   -2.2439 H   0  0  0  0  0  0  0  0  0  0  0  0
    3.0646   10.9908   -2.5032 H   0  0  0  0  0  0  0  0  0  0  0  0
    2.6556   11.6879   -0.8489 H   0  0  0  0  0  0  0  0  0  0  0  0
    1.8467    9.2239   -1.3082 H   0  0  0  0  0  0  0  0  0  0  0  0
   -1.1699   11.5126   -2.7086 H   0  0  0  0  0  0  0  0  0  0  0  0
   -1.3564   11.7915    0.3554 H   0  0  0  0  0  0  0  0  0  0  0  0
   -2.4283   12.5872   -0.8806 H   0  0  0  0  0  0  0  0  0  0  0  0
   -3.5155   10.6362    0.1847 H   0  0  0  0  0  0  0  0  0  0  0  0
   -3.2662   10.4225   -1.5924 H   0  0  0  0  0  0  0  0  0  0  0  0
   -2.7040    8.3684   -0.4838 H   0  0  0  0  0  0  0  0  0  0  0  0
   -1.8110    8.4580    1.4430 H   0  0  0  0  0  0  0  0  0  0  0  0
   -2.3880    8.0909   -2.6373 H   0  0  0  0  0  0  0  0  0  0  0  0
   -1.6167    9.5625   -3.3200 H   0  0  0  0  0  0  0  0  0  0  0  0
   -0.7289    8.0010   -3.3200 H   0  0  0  0  0  0  0  0  0  0  0  0
   -0.0381    7.6669    0.1820 H   0  0  0  0  0  0  0  0  0  0  0  0
   -0.5602    6.8060   -1.3056 H   0  0  0  0  0  0  0  0  0  0  0  0
    0.9650    7.7550   -1.3056 H   0  0  0  0  0  0  0  0  0  0  0  0
    0.1130   12.7104    0.3738 H   0  0  0  0  0  0  0  0  0  0  0  0
    1.5694   13.5542   -0.2536 H   0  0  0  0  0  0  0  0  0  0  0  0
   -0.0215   14.3882   -0.2536 H   0  0  0  0  0  0  0  0  0  0  0  0
   -1.6648   13.8739   -2.3182 H   0  0  0  0  0  0  0  0  0  0  0  0
   -0.1475   14.9349   -2.2364 H   0  0  0  0  0  0  0  0  0  0  0  0
   -1.0305   13.1438   -4.5165 H   0  0  0  0  0  0  0  0  0  0  0  0
   -0.9068   14.9467   -4.4802 H   0  0  0  0  0  0  0  0  0  0  0  0
    1.7116   15.1893   -2.9090 H   0  0  0  0  0  0  0  0  0  0  0  0
    2.7546   15.2022   -4.3715 H   0  0  0  0  0  0  0  0  0  0  0  0
    1.1967   16.0964   -4.3715 H   0  0  0  0  0  0  0  0  0  0  0  0
  1  2  1  0
  2  3  1  0
  3  4  1  0
  4  5  1  0
  5  6  1  0
  6  7  1  0
  7  8  1  0
  7  9  1  0
  2 10  1  0
 10 11  1  0
 11 12  1  0
 12 13  1  0
 13 14  1  1
 13 15  1  0
 15 16  1  0
 16 17  1  0
 17 18  2  0
 18 19  1  0
 19 20  1  0
 20 21  1  0
 21 22  1  0
 22 23  1  0
 22 24  1  0
 24 25  1  0
 24 26  1  0
 19 27  1  0
 27 28  1  1
 27 29  1  0
 29 30  1  0
 30 31  1  0
 31 32  1  1
  7  5  1  0
 31 10  1  0
 31 13  1  0
 27 15  1  0
 24 18  1  0
  1 33  1  0
  1 34  1  0
  1 35  1  0
  2 36  1  1
  3 37  1  0
  3 38  1  0
  4 39  1  0
  4 40  1  0
  5 41  1  6
  8 42  1  0
  8 43  1  0
  8 44  1  0
  9 45  1  0
  9 46  1  0
  9 47  1  0
 10 48  1  6
 11 49  1  0
 11 50  1  0
 12 51  1  0
 12 52  1  0
 14 53  1  0
 14 54  1  0
 14 55  1  0
 15 56  1  6
 16 57  1  0
 16 58  1  0
 17 59  1  0
 19 60  1  6
 20 61  1  0
 20 62  1  0
 21 63  1  0
 21 64  1  0
 22 65  1  1
 23 66  1  0
 25 67  1  0
 25 68  1  0
 25 69  1  0
 26 70  1  0
 26 71  1  0
 26 72  1  0
 28 73  1  0
 28 74  1  0
 28 75  1  0
 29 76  1  0
 29 77  1  0
 30 78  1  0
 30 79  1  0
 32 80  1  0
 32 81  1  0
 32 82  1  0
M  END
>  <meeko>  (13) 
{"is_sidechain": [false], "intermolecular_energy": 2.731, "internal_energy": -0.839}

$$$$
EPH_relaxed_0001_pdb2pqr_Repair_405_r2_0001_out
     RDKit          3D

 82 86  0  0  0  0  0  0  0  0999 V2000
    0.2400    9.3270   -2.2330 C   0  0  0  0  0  0  0  0  0  0  0  0
    1.2780   10.3520   -2.6970 C   0  0  2  0  0  0  0  0  0  0  0  0
    2.6960    9.7490   -2.7730 C   0  0  0  0  0  0  0  0  0  0  0  0
    3.5960   10.4220   -3.8130 C   0  0  0  0  0  0  0  0  0  0  0  0
    4.9820   10.6400   -3.2880 C   0  0  2  0  0  0  0  0  0  0  0  0
    5.5700   11.8960   -3.6530 O   0  0  0  0  0  0  0  0  0  0  0  0
    6.2100   10.7210   -4.1760 C   0  0  0  0  0  0  0  0  0  0  0  0
    6.1080   10.5830   -5.6630 C   0  0  0  0  0  0  0  0  0  0  0  0
    7.5510   10.4450   -3.5710 C   0  0  0  0  0  0  0  0  0  0  0  0
    1.2730   11.5560   -1.7630 C   0  0  1  0  0  0  0  0  0  0  0  0
    2.3450   11.4500   -0.6450 C   0  0  0  0  0  0  0  0  0  0  0  0
    2.8580   12.8880   -0.3800 C   0  0  0  0  0  0  0  0  0  0  0  0
    1.8440   13.8040   -1.1040 C   0  0  1  0  0  0  0  0  0  0  0  0
    0.6350   13.9190   -0.1230 C   0  0  0  0  0  0  0  0  0  0  0  0
    2.3710   15.2110   -1.5380 C   0  0  2  0  0  0  0  0  0  0  0  0
    2.8130   16.1270   -0.3830 C   0  0  0  0  0  0  0  0  0  0  0  0
    1.7460   17.0100    0.1750 C   0  0  0  0  0  0  0  0  0  0  0  0
    0.5640   17.2750   -0.4120 C   0  0  0  0  0  0  0  0  0  0  0  0
    0.2420   16.7390   -1.8130 C   0  0  1  0  0  0  0  0  0  0  0  0
   -0.3620   17.8770   -2.6760 C   0  0  0  0  0  0  0  0  0  0  0  0
   -1.5660   18.5380   -2.0140 C   0  0  0  0  0  0  0  0  0  0  0  0
   -1.1920   19.1100   -0.6490 C   0  0  2  0  0  0  0  0  0  0  0  0
   -0.2770   20.1940   -0.8380 O   0  0  0  0  0  0  0  0  0  0  0  0
   -0.5640   18.0560    0.3060 C   0  0  0  0  0  0  0  0  0  0  0  0
   -1.6490   17.0450    0.7500 C   0  0  0  0  0  0  0  0  0  0  0  0
   -0.1040   18.7920    1.5930 C   0  0  0  0  0  0  0  0  0  0  0  0
    1.4230   15.9740   -2.5510 C   0  0  1  0  0  0  0  0  0  0  0  0
    2.3200   16.9930   -3.3180 C   0  0  0  0  0  0  0  0  0  0  0  0
    0.8130   15.0130   -3.6380 C   0  0  0  0  0  0  0  0  0  0  0  0
    0.4230   13.5960   -3.1740 C   0  0  0  0  0  0  0  0  0  0  0  0
    1.5650   12.9430   -2.3890 C   0  0  2  0  0  0  0  0  0  0  0  0
    2.7870   12.7940   -3.3570 C   0  0  0  0  0  0  0  0  0  0  0  0
    0.2151    9.3024   -1.1336 H   0  0  0  0  0  0  0  0  0  0  0  0
   -0.7515    9.6101   -2.6160 H   0  0  0  0  0  0  0  0  0  0  0  0
    0.5106    8.3320   -2.6160 H   0  0  0  0  0  0  0  0  0  0  0  0
    0.9993   10.6688   -3.7129 H   0  0  0  0  0  0  0  0  0  0  0  0
    3.1700    9.8507   -1.7856 H   0  0  0  0  0  0  0  0  0  0  0  0
    2.5826    8.6982   -3.0778 H   0  0  0  0  0  0  0  0  0  0  0  0
    3.6496    9.7817   -4.7059 H   0  0  0  0  0  0  0  0  0  0  0  0
    3.1634   11.4034   -4.0572 H   0  0  0  0  0  0  0  0  0  0  0  0
    4.7597   10.0475   -2.3882 H   0  0  0  0  0  0  0  0  0  0  0  0
    5.4706    9.7207   -5.9084 H   0  0  0  0  0  0  0  0  0  0  0  0
    5.6669   11.4973   -6.0867 H   0  0  0  0  0  0  0  0  0  0  0  0
    7.1115   10.4296   -6.0867 H   0  0  0  0  0  0  0  0  0  0  0  0
    7.4689   10.4619   -2.4742 H   0  0  0  0  0  0  0  0  0  0  0  0
    7.9037    9.4554   -3.8971 H   0  0  0  0  0  0  0  0  0  0  0  0
    8.2658   11.2148   -3.8971 H   0  0  0  0  0  0  0  0  0  0  0  0
    0.2312   11.5126   -1.4125 H   0  0  0  0  0  0  0  0  0  0  0  0
    1.8986   11.0325    0.2695 H   0  0  0  0  0  0  0  0  0  0  0  0
    3.1682   10.7866   -0.9487 H   0  0  0  0  0  0  0  0  0  0  0  0
    2.8732   13.1021    0.6988 H   0  0  0  0  0  0  0  0  0  0  0  0
    3.8863   13.0370   -0.7410 H   0  0  0  0  0  0  0  0  0  0  0  0
    0.9998   13.8843    0.9142 H   0  0  0  0  0  0  0  0  0  0  0  0
    0.1117   14.8710   -0.2960 H   0  0  0  0  0  0  0  0  0  0  0  0
   -0.0584   13.0828   -0.2960 H   0  0  0  0  0  0  0  0  0  0  0  0
    3.2898   14.9596   -2.0881 H   0  0  0  0  0  0  0  0  0  0  0  0
    3.1875   15.4899    0.4318 H   0  0  0  0  0  0  0  0  0  0  0  0
    3.5757   16.7994   -0.8027 H   0  0  0  0  0  0  0  0  0  0  0  0
    1.9425   17.4840    1.1480 H   0  0  0  0  0  0  0  0  0  0  0  0
   -0.5036   15.9429   -1.6704 H   0  0  0  0  0  0  0  0  0  0  0  0
    0.4116   18.6409   -2.8434 H   0  0  0  0  0  0  0  0  0  0  0  0
   -0.7041   17.4323   -3.6222 H   0  0  0  0  0  0  0  0  0  0  0  0
   -1.9292   19.3522   -2.6583 H   0  0  0  0  0  0  0  0  0  0  0  0
   -2.3502   17.7795   -1.8740 H   0  0  0  0  0  0  0  0  0  0  0  0
   -2.1206   19.4533   -0.1697 H   0  0  0  0  0  0  0  0  0  0  0  0
    0.1360   20.0810   -1.7110 H   0  0  0  0  0  0  0  0  0  0  0  0
   -1.6884   17.0083    1.8487 H   0  0  0  0  0  0  0  0  0  0  0  0
   -2.6271   17.3612    0.3584 H   0  0  0  0  0  0  0  0  0  0  0  0
   -1.4025   16.0471    0.3584 H   0  0  0  0  0  0  0  0  0  0  0  0
   -0.4511   18.2367    2.4769 H   0  0  0  0  0  0  0  0  0  0  0  0
    0.9941   18.8544    1.6071 H   0  0  0  0  0  0  0  0  0  0  0  0
   -0.5291   19.8064    1.6071 H   0  0  0  0  0  0  0  0  0  0  0  0
    2.8680   17.6155   -2.5954 H   0  0  0  0  0  0  0  0  0  0  0  0
    3.0366   16.4477   -3.9498 H   0  0  0  0  0  0  0  0  0  0  0  0
    1.6882   17.6346   -3.9498 H   0  0  0  0  0  0  0  0  0  0  0  0
   -0.0928   15.4936   -4.0362 H   0  0  0  0  0  0  0  0  0  0  0  0
    1.6174   14.8634   -4.3733 H   0  0  0  0  0  0  0  0  0  0  0  0
   -0.4661   13.6602   -2.5295 H   0  0  0  0  0  0  0  0  0  0  0  0
    0.2112   12.9819   -4.0617 H   0  0  0  0  0  0  0  0  0  0  0  0
    3.7094   12.6815   -2.7684 H   0  0  0  0  0  0  0  0  0  0  0  0
    2.6462   11.9064   -3.9913 H   0  0  0  0  0  0  0  0  0  0  0  0
    2.8637   13.6894   -3.9913 H   0  0  0  0  0  0  0  0  0  0  0  0
  1  2  1  0
  2  3  1  0
  3  4  1  0
  4  5  1  0
  5  6  1  0
  6  7  1  0
  7  8  1  0
  7  9  1  0
  2 10  1  0
 10 11  1  0
 11 12  1  0
 12 13  1  0
 13 14  1  1
 13 15  1  0
 15 16  1  0
 16 17  1  0
 17 18  2  0
 18 19  1  0
 19 20  1  0
 20 21  1  0
 21 22  1  0
 22 23  1  0
 22 24  1  0
 24 25  1  0
 24 26  1  0
 19 27  1  0
 27 28  1  6
 27 29  1  0
 29 30  1  0
 30 31  1  0
 31 32  1  6
  7  5  1  0
 31 10  1  0
 31 13  1  0
 27 15  1  0
 24 18  1  0
  1 33  1  0
  1 34  1  0
  1 35  1  0
  2 36  1  6
  3 37  1  0
  3 38  1  0
  4 39  1  0
  4 40  1  0
  5 41  1  1
  8 42  1  0
  8 43  1  0
  8 44  1  0
  9 45  1  0
  9 46  1  0
  9 47  1  0
 10 48  1  1
 11 49  1  0
 11 50  1  0
 12 51  1  0
 12 52  1  0
 14 53  1  0
 14 54  1  0
 14 55  1  0
 15 56  1  6
 16 57  1  0
 16 58  1  0
 17 59  1  0
 19 60  1  1
 20 61  1  0
 20 62  1  0
 21 63  1  0
 21 64  1  0
 22 65  1  1
 23 66  1  0
 25 67  1  0
 25 68  1  0
 25 69  1  0
 26 70  1  0
 26 71  1  0
 26 72  1  0
 28 73  1  0
 28 74  1  0
 28 75  1  0
 29 76  1  0
 29 77  1  0
 30 78  1  0
 30 79  1  0
 32 80  1  0
 32 81  1  0
 32 82  1  0
M  END
>  <meeko>  (14) 
{"is_sidechain": [false], "intermolecular_energy": 2.731, "internal_energy": -0.839}

$$$$
EPH_relaxed_0001_pdb2pqr_Repair_405_r2_0001_out
     RDKit          3D

 82 86  0  0  0  0  0  0  0  0999 V2000
    3.0610   14.5640   -7.4310 C   0  0  0  0  0  0  0  0  0  0  0  0
    1.5890   14.9410   -7.2450 C   0  0  2  0  0  0  0  0  0  0  0  0
    1.2770   16.3500   -7.7870 C   0  0  0  0  0  0  0  0  0  0  0  0
    2.1140   16.7380   -9.0090 C   0  0  0  0  0  0  0  0  0  0  0  0
    1.4900   16.2570  -10.2840 C   0  0  2  0  0  0  0  0  0  0  0  0
    0.9400   14.9350  -10.2190 O   0  0  0  0  0  0  0  0  0  0  0  0
    2.0510   15.1160  -11.1120 C   0  0  0  0  0  0  0  0  0  0  0  0
    3.2910   14.3870  -10.6960 C   0  0  0  0  0  0  0  0  0  0  0  0
    1.6820   15.0330  -12.5600 C   0  0  0  0  0  0  0  0  0  0  0  0
    1.2140   14.8560   -5.7700 C   0  0  1  0  0  0  0  0  0  0  0  0
   -0.0490   15.6900   -5.4260 C   0  0  0  0  0  0  0  0  0  0  0  0
   -0.8130   14.9110   -4.3240 C   0  0  0  0  0  0  0  0  0  0  0  0
    0.1900   13.8390   -3.8380 C   0  0  1  0  0  0  0  0  0  0  0  0
    1.1250   14.5890   -2.8370 C   0  0  0  0  0  0  0  0  0  0  0  0
   -0.4280   12.5540   -3.1970 C   0  0  2  0  0  0  0  0  0  0  0  0
   -1.2410   12.7910   -1.9130 C   0  0  0  0  0  0  0  0  0  0  0  0
   -0.4630   12.7100   -0.6410 C   0  0  0  0  0  0  0  0  0  0  0  0
    0.7670   12.1790   -0.5100 C   0  0  0  0  0  0  0  0  0  0  0  0
    1.4620   11.4990   -1.6960 C   0  0  1  0  0  0  0  0  0  0  0  0
    2.0680   10.1470   -1.2360 C   0  0  0  0  0  0  0  0  0  0  0  0
    2.9880   10.2990   -0.0290 C   0  0  0  0  0  0  0  0  0  0  0  0
    2.2450   10.9250    1.1490 C   0  0  2  0  0  0  0  0  0  0  0  0
    1.2450   10.0080    1.6030 O   0  0  0  0  0  0  0  0  0  0  0  0
    1.5840   12.2880    0.8010 C   0  0  0  0  0  0  0  0  0  0  0  0
    2.6820   13.3630    0.6020 C   0  0  0  0  0  0  0  0  0  0  0  0
    0.7510   12.7420    2.0300 C   0  0  0  0  0  0  0  0  0  0  0  0
    0.5960   11.3600   -3.0210 C   0  0  1  0  0  0  0  0  0  0  0  0
   -0.2500   10.0520   -2.9690 C   0  0  0  0  0  0  0  0  0  0  0  0
    1.5630   11.2150   -4.2550 C   0  0  0  0  0  0  0  0  0  0  0  0
    2.0450   12.5190   -4.9180 C   0  0  0  0  0  0  0  0  0  0  0  0
    0.8670   13.4560   -5.2040 C   0  0  2  0  0  0  0  0  0  0  0  0
   -0.0790   12.7380   -6.2250 C   0  0  0  0  0  0  0  0  0  0  0  0
    3.5356   14.4424   -6.4461 H   0  0  0  0  0  0  0  0  0  0  0  0
    3.1297   13.6193   -7.9903 H   0  0  0  0  0  0  0  0  0  0  0  0
    3.5754   15.3594   -7.9903 H   0  0  0  0  0  0  0  0  0  0  0  0
    0.9881   14.2244   -7.8241 H   0  0  0  0  0  0  0  0  0  0  0  0
    0.2142   16.3866   -8.0681 H   0  0  0  0  0  0  0  0  0  0  0  0
    1.5243   17.0642   -6.9878 H   0  0  0  0  0  0  0  0  0  0  0  0
    2.2028   17.8338   -9.0469 H   0  0  0  0  0  0  0  0  0  0  0  0
    3.1025   16.2654   -8.9115 H   0  0  0  0  0  0  0  0  0  0  0  0
    1.1858   17.2804  -10.5489 H   0  0  0  0  0  0  0  0  0  0  0  0
    3.3463   14.3545   -9.5979 H   0  0  0  0  0  0  0  0  0  0  0  0
    3.2637   13.3612  -11.0923 H   0  0  0  0  0  0  0  0  0  0  0  0
    4.1740   14.9097  -11.0923 H   0  0  0  0  0  0  0  0  0  0  0  0
    0.6126   14.7925  -12.6527 H   0  0  0  0  0  0  0  0  0  0  0  0
    1.8840   15.9990  -13.0458 H   0  0  0  0  0  0  0  0  0  0  0  0
    2.2782   14.2465  -13.0458 H   0  0  0  0  0  0  0  0  0  0  0  0
    2.1487   15.2225   -5.3205 H   0  0  0  0  0  0  0  0  0  0  0  0
    0.2427   16.6835   -5.0546 H   0  0  0  0  0  0  0  0  0  0  0  0
   -0.6796   15.8368   -6.3152 H   0  0  0  0  0  0  0  0  0  0  0  0
   -1.0949   15.5816   -3.4989 H   0  0  0  0  0  0  0  0  0  0  0  0
   -1.7481   14.4685   -4.6978 H   0  0  0  0  0  0  0  0  0  0  0  0
    0.8260   14.3491   -1.8060 H   0  0  0  0  0  0  0  0  0  0  0  0
    2.1658   14.2725   -3.0000 H   0  0  0  0  0  0  0  0  0  0  0  0
    1.0418   15.6737   -3.0000 H   0  0  0  0  0  0  0  0  0  0  0  0
   -1.1573   12.2393   -3.9579 H   0  0  0  0  0  0  0  0  0  0  0  0
   -1.6885   13.7940   -1.9744 H   0  0  0  0  0  0  0  0  0  0  0  0
   -1.9824   11.9796   -1.8683 H   0  0  0  0  0  0  0  0  0  0  0  0
   -0.9346   13.1185    0.2650 H   0  0  0  0  0  0  0  0  0  0  0  0
    2.2662   12.1814   -2.0084 H   0  0  0  0  0  0  0  0  0  0  0  0
    1.2470    9.4649   -0.9699 H   0  0  0  0  0  0  0  0  0  0  0  0
    2.6701    9.7510   -2.0670 H   0  0  0  0  0  0  0  0  0  0  0  0
    3.3606    9.3072    0.2666 H   0  0  0  0  0  0  0  0  0  0  0  0
    3.8244   10.9576   -0.3061 H   0  0  0  0  0  0  0  0  0  0  0  0
    2.9857   11.1271    1.9367 H   0  0  0  0  0  0  0  0  0  0  0  0
    0.4930   10.5300    1.9290 H   0  0  0  0  0  0  0  0  0  0  0  0
    3.0370   13.7106    1.5834 H   0  0  0  0  0  0  0  0  0  0  0  0
    3.5226   12.9290    0.0407 H   0  0  0  0  0  0  0  0  0  0  0  0
    2.2659   14.2126    0.0407 H   0  0  0  0  0  0  0  0  0  0  0  0
    1.2751   12.4563    2.9540 H   0  0  0  0  0  0  0  0  0  0  0  0
    0.6237   13.8343    2.0034 H   0  0  0  0  0  0  0  0  0  0  0  0
   -0.2360   12.2570    2.0034 H   0  0  0  0  0  0  0  0  0  0  0  0
   -0.4302    9.7733   -1.9203 H   0  0  0  0  0  0  0  0  0  0  0  0
   -1.2126   10.2175   -3.4750 H   0  0  0  0  0  0  0  0  0  0  0  0
    0.2957    9.2420   -3.4750 H   0  0  0  0  0  0  0  0  0  0  0  0
    2.4536   10.6650   -3.9168 H   0  0  0  0  0  0  0  0  0  0  0  0
    0.9694   10.7028   -5.0265 H   0  0  0  0  0  0  0  0  0  0  0  0
    2.7523   13.0252   -4.2445 H   0  0  0  0  0  0  0  0  0  0  0  0
    2.5336   12.2684   -5.8711 H   0  0  0  0  0  0  0  0  0  0  0  0
   -0.8390   12.1612   -5.6776 H   0  0  0  0  0  0  0  0  0  0  0  0
   -0.5742   13.4897   -6.8572 H   0  0  0  0  0  0  0  0  0  0  0  0
    0.5118   12.0589   -6.8572 H   0  0  0  0  0  0  0  0  0  0  0  0
  1  2  1  0
  2  3  1  0
  3  4  1  0
  4  5  1  0
  5  6  1  0
  6  7  1  0
  7  8  1  0
  7  9  1  0
  2 10  1  0
 10 11  1  0
 11 12  1  0
 12 13  1  0
 13 14  1  1
 13 15  1  0
 15 16  1  0
 16 17  1  0
 17 18  2  0
 18 19  1  0
 19 20  1  0
 20 21  1  0
 21 22  1  0
 22 23  1  0
 22 24  1  0
 24 25  1  0
 24 26  1  0
 19 27  1  0
 27 28  1  1
 27 29  1  0
 29 30  1  0
 30 31  1  0
 31 32  1  6
  7  5  1  0
 31 10  1  0
 31 13  1  0
 27 15  1  0
 24 18  1  0
  1 33  1  0
  1 34  1  0
  1 35  1  0
  2 36  1  6
  3 37  1  0
  3 38  1  0
  4 39  1  0
  4 40  1  0
  5 41  1  6
  8 42  1  0
  8 43  1  0
  8 44  1  0
  9 45  1  0
  9 46  1  0
  9 47  1  0
 10 48  1  1
 11 49  1  0
 11 50  1  0
 12 51  1  0
 12 52  1  0
 14 53  1  0
 14 54  1  0
 14 55  1  0
 15 56  1  6
 16 57  1  0
 16 58  1  0
 17 59  1  0
 19 60  1  6
 20 61  1  0
 20 62  1  0
 21 63  1  0
 21 64  1  0
 22 65  1  1
 23 66  1  0
 25 67  1  0
 25 68  1  0
 25 69  1  0
 26 70  1  0
 26 71  1  0
 26 72  1  0
 28 73  1  0
 28 74  1  0
 28 75  1  0
 29 76  1  0
 29 77  1  0
 30 78  1  0
 30 79  1  0
 32 80  1  0
 32 81  1  0
 32 82  1  0
M  END
>  <meeko>  (15) 
{"is_sidechain": [false], "intermolecular_energy": 2.731, "internal_energy": -0.839}

$$$$
EPH_relaxed_0001_pdb2pqr_Repair_405_r2_0001_out
     RDKit          3D

 82 86  0  0  0  0  0  0  0  0999 V2000
   -2.3380    7.7920   -2.2630 C   0  0  0  0  0  0  0  0  0  0  0  0
   -2.2940    8.3800   -0.8500 C   0  0  2  0  0  0  0  0  0  0  0  0
   -3.6730    8.3440   -0.1620 C   0  0  0  0  0  0  0  0  0  0  0  0
   -4.8430    8.5990   -1.1160 C   0  0  0  0  0  0  0  0  0  0  0  0
   -5.9540    7.6140   -0.9060 C   0  0  2  0  0  0  0  0  0  0  0  0
   -5.5390    6.2430   -0.8690 O   0  0  0  0  0  0  0  0  0  0  0  0
   -6.3970    6.6160   -1.9590 C   0  0  0  0  0  0  0  0  0  0  0  0
   -5.7380    6.5540   -3.3020 C   0  0  0  0  0  0  0  0  0  0  0  0
   -7.7760    6.0410   -1.8650 C   0  0  0  0  0  0  0  0  0  0  0  0
   -1.7740    9.8120   -0.9000 C   0  0  1  0  0  0  0  0  0  0  0  0
   -1.3770   10.3530    0.5000 C   0  0  0  0  0  0  0  0  0  0  0  0
   -0.1550   11.2830    0.2900 C   0  0  0  0  0  0  0  0  0  0  0  0
   -0.0960   11.5100   -1.2390 C   0  0  1  0  0  0  0  0  0  0  0  0
   -1.1520   12.6250   -1.5200 C   0  0  0  0  0  0  0  0  0  0  0  0
    1.3040   11.8800   -1.8290 C   0  0  2  0  0  0  0  0  0  0  0  0
    1.8990   13.2030   -1.3170 C   0  0  0  0  0  0  0  0  0  0  0  0
    1.5530   14.4110   -2.1230 C   0  0  0  0  0  0  0  0  0  0  0  0
    1.0360   14.4010   -3.3660 C   0  0  0  0  0  0  0  0  0  0  0  0
    0.8390   13.0830   -4.1260 C   0  0  1  0  0  0  0  0  0  0  0  0
    1.3730   13.2350   -5.5740 C   0  0  0  0  0  0  0  0  0  0  0  0
    0.7570   14.4260   -6.3030 C   0  0  0  0  0  0  0  0  0  0  0  0
    1.0250   15.7250   -5.5470 C   0  0  2  0  0  0  0  0  0  0  0  0
    2.4290   15.9990   -5.5830 O   0  0  0  0  0  0  0  0  0  0  0  0
    0.5380   15.6860   -4.0710 C   0  0  0  0  0  0  0  0  0  0  0  0
   -1.0100   15.6930   -4.0330 C   0  0  0  0  0  0  0  0  0  0  0  0
    0.9940   17.0020   -3.3840 C   0  0  0  0  0  0  0  0  0  0  0  0
    1.3910   11.7780   -3.4050 C   0  0  1  0  0  0  0  0  0  0  0  0
    2.8960   11.5730   -3.7570 C   0  0  0  0  0  0  0  0  0  0  0  0
    0.6290   10.5190   -3.9660 C   0  0  0  0  0  0  0  0  0  0  0  0
   -0.6880   10.1350   -3.2650 C   0  0  0  0  0  0  0  0  0  0  0  0
   -0.5030   10.0790   -1.7450 C   0  0  2  0  0  0  0  0  0  0  0  0
    0.5370    8.9510   -1.4310 C   0  0  0  0  0  0  0  0  0  0  0  0
   -2.4200    6.6968   -2.2020 H   0  0  0  0  0  0  0  0  0  0  0  0
   -3.2085    8.1954   -2.8011 H   0  0  0  0  0  0  0  0  0  0  0  0
   -1.4172    8.0614   -2.8011 H   0  0  0  0  0  0  0  0  0  0  0  0
   -1.6119    7.7566   -0.2532 H   0  0  0  0  0  0  0  0  0  0  0  0
   -3.8073    7.3526    0.2952 H   0  0  0  0  0  0  0  0  0  0  0  0
   -3.6824    9.1539    0.5823 H   0  0  0  0  0  0  0  0  0  0  0  0
   -5.2292    9.6144   -0.9432 H   0  0  0  0  0  0  0  0  0  0  0  0
   -4.4758    8.4874   -2.1469 H   0  0  0  0  0  0  0  0  0  0  0  0
   -6.5124    8.3383   -0.2947 H   0  0  0  0  0  0  0  0  0  0  0  0
   -4.6505    6.4517   -3.1724 H   0  0  0  0  0  0  0  0  0  0  0  0
   -6.1238    5.6882   -3.8601 H   0  0  0  0  0  0  0  0  0  0  0  0
   -5.9556    7.4766   -3.8601 H   0  0  0  0  0  0  0  0  0  0  0  0
   -8.0536    5.9252   -0.8069 H   0  0  0  0  0  0  0  0  0  0  0  0
   -8.4895    6.7166   -2.3595 H   0  0  0  0  0  0  0  0  0  0  0  0
   -7.7982    5.0587   -2.3595 H   0  0  0  0  0  0  0  0  0  0  0  0
   -2.6423   10.3066   -1.3598 H   0  0  0  0  0  0  0  0  0  0  0  0
   -2.2125   10.9185    0.9384 H   0  0  0  0  0  0  0  0  0  0  0  0
   -1.1330    9.5293    1.1871 H   0  0  0  0  0  0  0  0  0  0  0  0
   -0.2974   12.2369    0.8190 H   0  0  0  0  0  0  0  0  0  0  0  0
    0.7746   10.8457    0.6831 H   0  0  0  0  0  0  0  0  0  0  0  0
   -1.5284   13.0224   -0.5658 H   0  0  0  0  0  0  0  0  0  0  0  0
   -0.6837   13.4367   -2.0961 H   0  0  0  0  0  0  0  0  0  0  0  0
   -1.9879   12.2015   -2.0961 H   0  0  0  0  0  0  0  0  0  0  0  0
    1.9481   11.0863   -1.4225 H   0  0  0  0  0  0  0  0  0  0  0  0
    1.5373   13.3639   -0.2907 H   0  0  0  0  0  0  0  0  0  0  0  0
    2.9913   13.0929   -1.3865 H   0  0  0  0  0  0  0  0  0  0  0  0
    1.7361   15.3928   -1.6620 H   0  0  0  0  0  0  0  0  0  0  0  0
   -0.2459   12.9027   -4.1461 H   0  0  0  0  0  0  0  0  0  0  0  0
    2.4638   13.3712   -5.5351 H   0  0  0  0  0  0  0  0  0  0  0  0
    1.0981   12.3256   -6.1284 H   0  0  0  0  0  0  0  0  0  0  0  0
    1.1949   14.4981   -7.3095 H   0  0  0  0  0  0  0  0  0  0  0  0
   -0.3306   14.2746   -6.3674 H   0  0  0  0  0  0  0  0  0  0  0  0
    0.4525   16.5209   -6.0458 H   0  0  0  0  0  0  0  0  0  0  0  0
    2.8830   15.1740   -5.8260 H   0  0  0  0  0  0  0  0  0  0  0  0
   -1.3511   15.6945   -2.9872 H   0  0  0  0  0  0  0  0  0  0  0  0
   -1.3852   16.5929   -4.5424 H   0  0  0  0  0  0  0  0  0  0  0  0
   -1.3933   14.7966   -4.5424 H   0  0  0  0  0  0  0  0  0  0  0  0
    0.9515   16.8792   -2.2917 H   0  0  0  0  0  0  0  0  0  0  0  0
    2.0254   17.2354   -3.6868 H   0  0  0  0  0  0  0  0  0  0  0  0
    0.3281   17.8235   -3.6868 H   0  0  0  0  0  0  0  0  0  0  0  0
    3.4819   11.4932   -2.8295 H   0  0  0  0  0  0  0  0  0  0  0  0
    3.0127   10.6507   -4.3449 H   0  0  0  0  0  0  0  0  0  0  0  0
    3.2552   12.4305   -4.3449 H   0  0  0  0  0  0  0  0  0  0  0  0
    0.3985   10.7135   -5.0238 H   0  0  0  0  0  0  0  0  0  0  0  0
    1.3066    9.6705   -3.7904 H   0  0  0  0  0  0  0  0  0  0  0  0
   -1.4563   10.8842   -3.5068 H   0  0  0  0  0  0  0  0  0  0  0  0
   -0.9966    9.1400   -3.6181 H   0  0  0  0  0  0  0  0  0  0  0  0
    0.6395    8.8398   -0.3415 H   0  0  0  0  0  0  0  0  0  0  0  0
    0.1907    8.0017   -1.8655 H   0  0  0  0  0  0  0  0  0  0  0  0
    1.5113    9.2193   -1.8655 H   0  0  0  0  0  0  0  0  0  0  0  0
  1  2  1  0
  2  3  1  0
  3  4  1  0
  4  5  1  0
  5  6  1  0
  6  7  1  0
  7  8  1  0
  7  9  1  0
  2 10  1  0
 10 11  1  0
 11 12  1  0
 12 13  1  0
 13 14  1  1
 13 15  1  0
 15 16  1  0
 16 17  1  0
 17 18  2  0
 18 19  1  0
 19 20  1  0
 20 21  1  0
 21 22  1  0
 22 23  1  0
 22 24  1  0
 24 25  1  0
 24 26  1  0
 19 27  1  0
 27 28  1  1
 27 29  1  0
 29 30  1  0
 30 31  1  0
 31 32  1  6
  7  5  1  0
 31 10  1  0
 31 13  1  0
 27 15  1  0
 24 18  1  0
  1 33  1  0
  1 34  1  0
  1 35  1  0
  2 36  1  1
  3 37  1  0
  3 38  1  0
  4 39  1  0
  4 40  1  0
  5 41  1  1
  8 42  1  0
  8 43  1  0
  8 44  1  0
  9 45  1  0
  9 46  1  0
  9 47  1  0
 10 48  1  6
 11 49  1  0
 11 50  1  0
 12 51  1  0
 12 52  1  0
 14 53  1  0
 14 54  1  0
 14 55  1  0
 15 56  1  1
 16 57  1  0
 16 58  1  0
 17 59  1  0
 19 60  1  6
 20 61  1  0
 20 62  1  0
 21 63  1  0
 21 64  1  0
 22 65  1  6
 23 66  1  0
 25 67  1  0
 25 68  1  0
 25 69  1  0
 26 70  1  0
 26 71  1  0
 26 72  1  0
 28 73  1  0
 28 74  1  0
 28 75  1  0
 29 76  1  0
 29 77  1  0
 30 78  1  0
 30 79  1  0
 32 80  1  0
 32 81  1  0
 32 82  1  0
M  END
>  <meeko>  (16) 
{"is_sidechain": [false], "intermolecular_energy": 2.731, "internal_energy": -0.839}

$$$$
EPH_relaxed_0001_pdb2pqr_Repair_405_r2_0001_out
     RDKit          3D

 82 86  0  0  0  0  0  0  0  0999 V2000
    2.8320   11.3340   -5.3680 C   0  0  0  0  0  0  0  0  0  0  0  0
    1.8350   11.0330   -4.2450 C   0  0  2  0  0  0  0  0  0  0  0  0
    0.7120   10.0820   -4.7060 C   0  0  0  0  0  0  0  0  0  0  0  0
   -0.3550    9.8270   -3.6380 C   0  0  0  0  0  0  0  0  0  0  0  0
    0.1880    9.0320   -2.4900 C   0  0  2  0  0  0  0  0  0  0  0  0
   -0.6370    7.9340   -2.0780 O   0  0  0  0  0  0  0  0  0  0  0  0
   -0.4620    8.9890   -1.1190 C   0  0  0  0  0  0  0  0  0  0  0  0
   -1.7120    9.7570   -0.8250 C   0  0  0  0  0  0  0  0  0  0  0  0
    0.3760    8.6000    0.0580 C   0  0  0  0  0  0  0  0  0  0  0  0
    1.2350   12.3320   -3.7210 C   0  0  1  0  0  0  0  0  0  0  0  0
   -0.3050   12.2520   -3.5480 C   0  0  0  0  0  0  0  0  0  0  0  0
   -0.6610   13.1090   -2.3060 C   0  0  0  0  0  0  0  0  0  0  0  0
    0.6250   13.9150   -2.0070 C   0  0  1  0  0  0  0  0  0  0  0  0
    0.5870   15.1160   -3.0030 C   0  0  0  0  0  0  0  0  0  0  0  0
    0.8120   14.3950   -0.5310 C   0  0  2  0  0  0  0  0  0  0  0  0
   -0.2640   15.3700   -0.0210 C   0  0  0  0  0  0  0  0  0  0  0  0
    0.0350   16.8170   -0.2330 C   0  0  0  0  0  0  0  0  0  0  0  0
    1.2390   17.3290   -0.5490 C   0  0  0  0  0  0  0  0  0  0  0  0
    2.4810   16.4310   -0.6270 C   0  0  1  0  0  0  0  0  0  0  0  0
    3.6560   17.1060    0.1280 C   0  0  0  0  0  0  0  0  0  0  0  0
    3.9300   18.5240   -0.3620 C   0  0  0  0  0  0  0  0  0  0  0  0
    2.6890   19.4010   -0.2140 C   0  0  2  0  0  0  0  0  0  0  0  0
    2.4120   19.5760    1.1790 O   0  0  0  0  0  0  0  0  0  0  0  0
    1.4370   18.8180   -0.9270 C   0  0  0  0  0  0  0  0  0  0  0  0
    1.6230   18.9090   -2.4620 C   0  0  0  0  0  0  0  0  0  0  0  0
    0.2250   19.7240   -0.5810 C   0  0  0  0  0  0  0  0  0  0  0  0
    2.2690   14.9160   -0.1980 C   0  0  1  0  0  0  0  0  0  0  0  0
    2.4530   14.7690    1.3440 C   0  0  0  0  0  0  0  0  0  0  0  0
    3.3870   14.0310   -0.8650 C   0  0  0  0  0  0  0  0  0  0  0  0
    3.0940   13.4870   -2.2760 C   0  0  0  0  0  0  0  0  0  0  0  0
    1.7130   12.8270   -2.3330 C   0  0  2  0  0  0  0  0  0  0  0  0
    1.7280   11.6020   -1.3570 C   0  0  0  0  0  0  0  0  0  0  0  0
    3.7987   11.6258   -4.9316 H   0  0  0  0  0  0  0  0  0  0  0  0
    2.9663   10.4364   -5.9895 H   0  0  0  0  0  0  0  0  0  0  0  0
    2.4471   12.1560   -5.9895 H   0  0  0  0  0  0  0  0  0  0  0  0
    2.3865   10.5268   -3.4390 H   0  0  0  0  0  0  0  0  0  0  0  0
    0.2231   10.5232   -5.5871 H   0  0  0  0  0  0  0  0  0  0  0  0
    1.1824    9.1129   -4.9286 H   0  0  0  0  0  0  0  0  0  0  0  0
   -0.7200   10.7938   -3.2610 H   0  0  0  0  0  0  0  0  0  0  0  0
   -1.1702    9.2501   -4.0991 H   0  0  0  0  0  0  0  0  0  0  0  0
    1.2211    9.2313   -2.8109 H   0  0  0  0  0  0  0  0  0  0  0  0
   -1.8447    9.8385    0.2639 H   0  0  0  0  0  0  0  0  0  0  0  0
   -1.6350   10.7638   -1.2614 H   0  0  0  0  0  0  0  0  0  0  0  0
   -2.5753    9.2333   -1.2614 H   0  0  0  0  0  0  0  0  0  0  0  0
   -0.1586    8.8482    0.9868 H   0  0  0  0  0  0  0  0  0  0  0  0
    0.5732    7.5183    0.0262 H   0  0  0  0  0  0  0  0  0  0  0  0
    1.3295    9.1476    0.0262 H   0  0  0  0  0  0  0  0  0  0  0  0
    1.5779   13.0229   -4.5053 H   0  0  0  0  0  0  0  0  0  0  0  0
   -0.8077   12.6520   -4.4409 H   0  0  0  0  0  0  0  0  0  0  0  0
   -0.6340   11.2106   -3.4166 H   0  0  0  0  0  0  0  0  0  0  0  0
   -1.5001   13.7847   -2.5279 H   0  0  0  0  0  0  0  0  0  0  0  0
   -0.9760   12.4934   -1.4506 H   0  0  0  0  0  0  0  0  0  0  0  0
    0.5571   16.0597   -2.4385 H   0  0  0  0  0  0  0  0  0  0  0  0
    1.4862   15.0958   -3.6362 H   0  0  0  0  0  0  0  0  0  0  0  0
   -0.3092   15.0390   -3.6362 H   0  0  0  0  0  0  0  0  0  0  0  0
    0.6678   13.4656    0.0394 H   0  0  0  0  0  0  0  0  0  0  0  0
   -1.2061   15.1381   -0.5394 H   0  0  0  0  0  0  0  0  0  0  0  0
   -0.3136   15.2259    1.0684 H   0  0  0  0  0  0  0  0  0  0  0  0
   -0.7995   17.5250   -0.1215 H   0  0  0  0  0  0  0  0  0  0  0  0
    2.7262   16.3427   -1.6957 H   0  0  0  0  0  0  0  0  0  0  0  0
    3.4104   17.1447    1.1995 H   0  0  0  0  0  0  0  0  0  0  0  0
    4.5600   16.5080   -0.0595 H   0  0  0  0  0  0  0  0  0  0  0  0
    4.7499   18.9573    0.2296 H   0  0  0  0  0  0  0  0  0  0  0  0
    4.2051   18.4811   -1.4262 H   0  0  0  0  0  0  0  0  0  0  0  0
    2.9058   20.3636   -0.7002 H   0  0  0  0  0  0  0  0  0  0  0  0
    1.6100   19.0670    1.3850 H   0  0  0  0  0  0  0  0  0  0  0  0
    2.5902   19.3822   -2.6867 H   0  0  0  0  0  0  0  0  0  0  0  0
    1.6001   17.8979   -2.8947 H   0  0  0  0  0  0  0  0  0  0  0  0
    0.8107   19.5115   -2.8947 H   0  0  0  0  0  0  0  0  0  0  0  0
    0.1239   19.7996    0.5117 H   0  0  0  0  0  0  0  0  0  0  0  0
    0.3839   20.7266   -1.0048 H   0  0  0  0  0  0  0  0  0  0  0  0
   -0.6916   19.2878   -1.0048 H   0  0  0  0  0  0  0  0  0  0  0  0
    1.6953   15.3744    1.8630 H   0  0  0  0  0  0  0  0  0  0  0  0
    2.3361   13.7128    1.6282 H   0  0  0  0  0  0  0  0  0  0  0  0
    3.4573   15.1162    1.6282 H   0  0  0  0  0  0  0  0  0  0  0  0
    4.3008   14.6403   -0.9266 H   0  0  0  0  0  0  0  0  0  0  0  0
    3.4684   13.1402   -0.2248 H   0  0  0  0  0  0  0  0  0  0  0  0
    3.1257   14.3181   -2.9959 H   0  0  0  0  0  0  0  0  0  0  0  0
    3.8542   12.7322   -2.5258 H   0  0  0  0  0  0  0  0  0  0  0  0
    1.7236   11.9614   -0.3174 H   0  0  0  0  0  0  0  0  0  0  0  0
    0.8374   10.9812   -1.5341 H   0  0  0  0  0  0  0  0  0  0  0  0
    2.6335   11.0031   -1.5341 H   0  0  0  0  0  0  0  0  0  0  0  0
  1  2  1  0
  2  3  1  0
  3  4  1  0
  4  5  1  0
  5  6  1  0
  6  7  1  0
  7  8  1  0
  7  9  1  0
  2 10  1  0
 10 11  1  0
 11 12  1  0
 12 13  1  0
 13 14  1  6
 13 15  1  0
 15 16  1  0
 16 17  1  0
 17 18  2  0
 18 19  1  0
 19 20  1  0
 20 21  1  0
 21 22  1  0
 22 23  1  0
 22 24  1  0
 24 25  1  0
 24 26  1  0
 19 27  1  0
 27 28  1  1
 27 29  1  0
 29 30  1  0
 30 31  1  0
 31 32  1  1
  7  5  1  0
 31 10  1  0
 31 13  1  0
 27 15  1  0
 24 18  1  0
  1 33  1  0
  1 34  1  0
  1 35  1  0
  2 36  1  1
  3 37  1  0
  3 38  1  0
  4 39  1  0
  4 40  1  0
  5 41  1  1
  8 42  1  0
  8 43  1  0
  8 44  1  0
  9 45  1  0
  9 46  1  0
  9 47  1  0
 10 48  1  6
 11 49  1  0
 11 50  1  0
 12 51  1  0
 12 52  1  0
 14 53  1  0
 14 54  1  0
 14 55  1  0
 15 56  1  1
 16 57  1  0
 16 58  1  0
 17 59  1  0
 19 60  1  6
 20 61  1  0
 20 62  1  0
 21 63  1  0
 21 64  1  0
 22 65  1  6
 23 66  1  0
 25 67  1  0
 25 68  1  0
 25 69  1  0
 26 70  1  0
 26 71  1  0
 26 72  1  0
 28 73  1  0
 28 74  1  0
 28 75  1  0
 29 76  1  0
 29 77  1  0
 30 78  1  0
 30 79  1  0
 32 80  1  0
 32 81  1  0
 32 82  1  0
M  END
>  <meeko>  (17) 
{"is_sidechain": [false], "intermolecular_energy": 2.731, "internal_energy": -0.839}

$$$$
EPH_relaxed_0001_pdb2pqr_Repair_405_r2_0001_out
     RDKit          3D

 82 86  0  0  0  0  0  0  0  0999 V2000
    0.9170   14.9030   -2.6630 C   0  0  0  0  0  0  0  0  0  0  0  0
    1.1680   14.2240   -4.0120 C   0  0  2  0  0  0  0  0  0  0  0  0
    0.4500   14.9470   -5.1690 C   0  0  0  0  0  0  0  0  0  0  0  0
    0.9850   14.5760   -6.5540 C   0  0  0  0  0  0  0  0  0  0  0  0
    0.7620   15.6760   -7.5480 C   0  0  2  0  0  0  0  0  0  0  0  0
    0.3940   15.2310   -8.8600 O   0  0  0  0  0  0  0  0  0  0  0  0
    1.6560   15.9090   -8.7510 C   0  0  0  0  0  0  0  0  0  0  0  0
    2.8410   15.0370   -9.0250 C   0  0  0  0  0  0  0  0  0  0  0  0
    1.6670   17.2670   -9.3820 C   0  0  0  0  0  0  0  0  0  0  0  0
    0.7230   12.7680   -3.9520 C   0  0  1  0  0  0  0  0  0  0  0  0
    1.8600   11.7800   -4.3260 C   0  0  0  0  0  0  0  0  0  0  0  0
    1.6640   10.5180   -3.4460 C   0  0  0  0  0  0  0  0  0  0  0  0
    0.2480   10.6790   -2.8440 C   0  0  1  0  0  0  0  0  0  0  0  0
   -0.7230   10.2000   -3.9690 C   0  0  0  0  0  0  0  0  0  0  0  0
   -0.0180    9.9330   -1.4960 C   0  0  2  0  0  0  0  0  0  0  0  0
    0.0930    8.4000   -1.5650 C   0  0  0  0  0  0  0  0  0  0  0  0
   -1.1760    7.6830   -1.8880 C   0  0  0  0  0  0  0  0  0  0  0  0
   -2.4110    8.2150   -1.8340 C   0  0  0  0  0  0  0  0  0  0  0  0
   -2.6310    9.6440   -1.3210 C   0  0  1  0  0  0  0  0  0  0  0  0
   -3.8130    9.6580   -0.3170 C   0  0  0  0  0  0  0  0  0  0  0  0
   -5.0830    9.0450   -0.9000 C   0  0  0  0  0  0  0  0  0  0  0  0
   -4.8390    7.6050   -1.3460 C   0  0  2  0  0  0  0  0  0  0  0  0
   -4.5810    6.8030   -0.1890 O   0  0  0  0  0  0  0  0  0  0  0  0
   -3.6630    7.4660   -2.3520 C   0  0  0  0  0  0  0  0  0  0  0  0
   -4.0680    8.0810   -3.7150 C   0  0  0  0  0  0  0  0  0  0  0  0
   -3.4330    5.9520   -2.6100 C   0  0  0  0  0  0  0  0  0  0  0  0
   -1.3420   10.3840   -0.7570 C   0  0  1  0  0  0  0  0  0  0  0  0
   -1.1490   10.0400    0.7520 C   0  0  0  0  0  0  0  0  0  0  0  0
   -1.5690   11.9400   -0.8310 C   0  0  0  0  0  0  0  0  0  0  0  0
   -1.1750   12.6370   -2.1480 C   0  0  0  0  0  0  0  0  0  0  0  0
    0.2350   12.2290   -2.5840 C   0  0  2  0  0  0  0  0  0  0  0  0
    1.2370   12.7170   -1.4820 C   0  0  0  0  0  0  0  0  0  0  0  0
    1.1737   14.2085   -1.8495 H   0  0  0  0  0  0  0  0  0  0  0  0
    1.5409   15.8056   -2.5851 H   0  0  0  0  0  0  0  0  0  0  0  0
   -0.1440   15.1828   -2.5851 H   0  0  0  0  0  0  0  0  0  0  0  0
    2.2486   14.2746   -4.2114 H   0  0  0  0  0  0  0  0  0  0  0  0
   -0.6187   14.6894   -5.1293 H   0  0  0  0  0  0  0  0  0  0  0  0
    0.6279   16.0241   -5.0341 H   0  0  0  0  0  0  0  0  0  0  0  0
    2.0643   14.3779   -6.4778 H   0  0  0  0  0  0  0  0  0  0  0  0
    0.4439   13.6840   -6.9028 H   0  0  0  0  0  0  0  0  0  0  0  0
    0.3981   16.3492   -6.7578 H   0  0  0  0  0  0  0  0  0  0  0  0
    3.2843   14.7108   -8.0726 H   0  0  0  0  0  0  0  0  0  0  0  0
    2.5225   14.1562   -9.6019 H   0  0  0  0  0  0  0  0  0  0  0  0
    3.5872   15.6030   -9.6019 H   0  0  0  0  0  0  0  0  0  0  0  0
    1.6732   18.0365   -8.5960 H   0  0  0  0  0  0  0  0  0  0  0  0
    2.5660   17.3737  -10.0068 H   0  0  0  0  0  0  0  0  0  0  0  0
    0.7698   17.3883  -10.0068 H   0  0  0  0  0  0  0  0  0  0  0  0
   -0.1150   12.8021   -4.6637 H   0  0  0  0  0  0  0  0  0  0  0  0
    1.7946   11.5129   -5.3911 H   0  0  0  0  0  0  0  0  0  0  0  0
    2.8481   12.2317   -4.1540 H   0  0  0  0  0  0  0  0  0  0  0  0
    1.7249    9.6052   -4.0568 H   0  0  0  0  0  0  0  0  0  0  0  0
    2.4390   10.4251   -2.6709 H   0  0  0  0  0  0  0  0  0  0  0  0
   -1.6212    9.7569   -3.5140 H   0  0  0  0  0  0  0  0  0  0  0  0
   -1.0133   11.0583   -4.5928 H   0  0  0  0  0  0  0  0  0  0  0  0
   -0.2186    9.4473   -4.5928 H   0  0  0  0  0  0  0  0  0  0  0  0
    0.8251   10.2650   -0.8723 H   0  0  0  0  0  0  0  0  0  0  0  0
    0.8328    8.1472   -2.3389 H   0  0  0  0  0  0  0  0  0  0  0  0
    0.3809    8.0699   -0.5560 H   0  0  0  0  0  0  0  0  0  0  0  0
   -1.0947    6.6302   -2.1964 H   0  0  0  0  0  0  0  0  0  0  0  0
   -2.8851   10.2484   -2.2042 H   0  0  0  0  0  0  0  0  0  0  0  0
   -3.5234    9.0858    0.5767 H   0  0  0  0  0  0  0  0  0  0  0  0
   -4.0309   10.7081   -0.0723 H   0  0  0  0  0  0  0  0  0  0  0  0
   -5.8724    9.0558   -0.1340 H   0  0  0  0  0  0  0  0  0  0  0  0
   -5.3885    9.6367   -1.7755 H   0  0  0  0  0  0  0  0  0  0  0  0
   -5.7426    7.2642   -1.8726 H   0  0  0  0  0  0  0  0  0  0  0  0
   -3.9810    6.0860   -0.4570 H   0  0  0  0  0  0  0  0  0  0  0  0
   -4.6657    8.9886   -3.5446 H   0  0  0  0  0  0  0  0  0  0  0  0
   -3.1628    8.3395   -4.2841 H   0  0  0  0  0  0  0  0  0  0  0  0
   -4.6630    7.3516   -4.2841 H   0  0  0  0  0  0  0  0  0  0  0  0
   -3.3528    5.4242   -1.6482 H   0  0  0  0  0  0  0  0  0  0  0  0
   -4.2796    5.5448   -3.1823 H   0  0  0  0  0  0  0  0  0  0  0  0
   -2.5037    5.8146   -3.1823 H   0  0  0  0  0  0  0  0  0  0  0  0
   -1.5946   10.8342    1.3690 H   0  0  0  0  0  0  0  0  0  0  0  0
   -1.6414    9.0821    0.9756 H   0  0  0  0  0  0  0  0  0  0  0  0
   -0.0749    9.9611    0.9756 H   0  0  0  0  0  0  0  0  0  0  0  0
   -2.6394   12.1287   -0.6617 H   0  0  0  0  0  0  0  0  0  0  0  0
   -0.9001   12.3655   -0.0684 H   0  0  0  0  0  0  0  0  0  0  0  0
   -1.8908   12.3530   -2.9335 H   0  0  0  0  0  0  0  0  0  0  0  0
   -1.1911   13.7251   -1.9872 H   0  0  0  0  0  0  0  0  0  0  0  0
    0.8158   12.5119   -0.4867 H   0  0  0  0  0  0  0  0  0  0  0  0
    2.1925   12.1833   -1.5929 H   0  0  0  0  0  0  0  0  0  0  0  0
    1.4059   13.7983   -1.5929 H   0  0  0  0  0  0  0  0  0  0  0  0
  1  2  1  0
  2  3  1  0
  3  4  1  0
  4  5  1  0
  5  6  1  0
  6  7  1  0
  7  8  1  0
  7  9  1  0
  2 10  1  0
 10 11  1  0
 11 12  1  0
 12 13  1  0
 13 14  1  6
 13 15  1  0
 15 16  1  0
 16 17  1  0
 17 18  2  0
 18 19  1  0
 19 20  1  0
 20 21  1  0
 21 22  1  0
 22 23  1  0
 22 24  1  0
 24 25  1  0
 24 26  1  0
 19 27  1  0
 27 28  1  1
 27 29  1  0
 29 30  1  0
 30 31  1  0
 31 32  1  1
  7  5  1  0
 31 10  1  0
 31 13  1  0
 27 15  1  0
 24 18  1  0
  1 33  1  0
  1 34  1  0
  1 35  1  0
  2 36  1  6
  3 37  1  0
  3 38  1  0
  4 39  1  0
  4 40  1  0
  5 41  1  1
  8 42  1  0
  8 43  1  0
  8 44  1  0
  9 45  1  0
  9 46  1  0
  9 47  1  0
 10 48  1  6
 11 49  1  0
 11 50  1  0
 12 51  1  0
 12 52  1  0
 14 53  1  0
 14 54  1  0
 14 55  1  0
 15 56  1  1
 16 57  1  0
 16 58  1  0
 17 59  1  0
 19 60  1  6
 20 61  1  0
 20 62  1  0
 21 63  1  0
 21 64  1  0
 22 65  1  6
 23 66  1  0
 25 67  1  0
 25 68  1  0
 25 69  1  0
 26 70  1  0
 26 71  1  0
 26 72  1  0
 28 73  1  0
 28 74  1  0
 28 75  1  0
 29 76  1  0
 29 77  1  0
 30 78  1  0
 30 79  1  0
 32 80  1  0
 32 81  1  0
 32 82  1  0
M  END
>  <meeko>  (18) 
{"is_sidechain": [false], "intermolecular_energy": 2.731, "internal_energy": -0.839}

$$$$
EPH_relaxed_0001_pdb2pqr_Repair_405_r2_0001_out
     RDKit          3D

 82 86  0  0  0  0  0  0  0  0999 V2000
    3.4310   18.3070   -3.4170 C   0  0  0  0  0  0  0  0  0  0  0  0
    2.1380   17.9410   -2.6840 C   0  0  2  0  0  0  0  0  0  0  0  0
    1.7160   19.0270   -1.6740 C   0  0  0  0  0  0  0  0  0  0  0  0
    1.6570   18.5320   -0.2260 C   0  0  0  0  0  0  0  0  0  0  0  0
    2.1770   19.5600    0.7320 C   0  0  2  0  0  0  0  0  0  0  0  0
    3.4020   20.1870    0.3320 O   0  0  0  0  0  0  0  0  0  0  0  0
    3.4580   19.3910    1.5280 C   0  0  0  0  0  0  0  0  0  0  0  0
    4.2980   18.1590    1.4000 C   0  0  0  0  0  0  0  0  0  0  0  0
    3.6350   20.1940    2.7790 C   0  0  0  0  0  0  0  0  0  0  0  0
    2.3050   16.6040   -1.9720 C   0  0  1  0  0  0  0  0  0  0  0  0
    2.7450   16.7660   -0.4920 C   0  0  0  0  0  0  0  0  0  0  0  0
    2.0600   15.6260    0.3050 C   0  0  0  0  0  0  0  0  0  0  0  0
    1.5250   14.6590   -0.7780 C   0  0  1  0  0  0  0  0  0  0  0  0
    2.7600   13.7990   -1.1920 C   0  0  0  0  0  0  0  0  0  0  0  0
    0.3110   13.7650   -0.3660 C   0  0  2  0  0  0  0  0  0  0  0  0
    0.5840   12.7830    0.7870 C   0  0  0  0  0  0  0  0  0  0  0  0
    1.0760   11.4360    0.3730 C   0  0  0  0  0  0  0  0  0  0  0  0
    1.0210   10.9310   -0.8730 C   0  0  0  0  0  0  0  0  0  0  0  0
    0.3300   11.7020   -2.0050 C   0  0  1  0  0  0  0  0  0  0  0  0
   -0.5960   10.7410   -2.7970 C   0  0  0  0  0  0  0  0  0  0  0  0
    0.1400    9.5020   -3.2990 C   0  0  0  0  0  0  0  0  0  0  0  0
    0.7640    8.7310   -2.1390 C   0  0  2  0  0  0  0  0  0  0  0  0
   -0.2840    8.1930   -1.3260 O   0  0  0  0  0  0  0  0  0  0  0  0
    1.7100    9.6000   -1.2630 C   0  0  0  0  0  0  0  0  0  0  0  0
    2.9960    9.9330   -2.0590 C   0  0  0  0  0  0  0  0  0  0  0  0
    2.1600    8.7420   -0.0500 C   0  0  0  0  0  0  0  0  0  0  0  0
   -0.4050   13.0460   -1.5810 C   0  0  1  0  0  0  0  0  0  0  0  0
   -1.8610   12.7320   -1.1170 C   0  0  0  0  0  0  0  0  0  0  0  0
   -0.5320   13.9820   -2.8400 C   0  0  0  0  0  0  0  0  0  0  0  0
    0.6500   14.9280   -3.1250 C   0  0  0  0  0  0  0  0  0  0  0  0
    1.0550   15.6950   -1.8620 C   0  0  2  0  0  0  0  0  0  0  0  0
   -0.1600   16.5870   -1.4340 C   0  0  0  0  0  0  0  0  0  0  0  0
    4.2186   18.5299   -2.6821 H   0  0  0  0  0  0  0  0  0  0  0  0
    3.7464   17.4628   -4.0478 H   0  0  0  0  0  0  0  0  0  0  0  0
    3.2572   19.1912   -4.0478 H   0  0  0  0  0  0  0  0  0  0  0  0
    1.3406   17.8636   -3.4378 H   0  0  0  0  0  0  0  0  0  0  0  0
    2.4404   19.8529   -1.7293 H   0  0  0  0  0  0  0  0  0  0  0  0
    0.6982   19.3421   -1.9476 H   0  0  0  0  0  0  0  0  0  0  0  0
    0.6122   18.3022    0.0300 H   0  0  0  0  0  0  0  0  0  0  0  0
    2.2890   17.6355   -0.1438 H   0  0  0  0  0  0  0  0  0  0  0  0
    1.1538   19.8324    1.0302 H   0  0  0  0  0  0  0  0  0  0  0  0
    4.5538   17.7839    2.4019 H   0  0  0  0  0  0  0  0  0  0  0  0
    3.7367   17.3878    0.8520 H   0  0  0  0  0  0  0  0  0  0  0  0
    5.2209   18.3998    0.8520 H   0  0  0  0  0  0  0  0  0  0  0  0
    3.4918   19.5443    3.6550 H   0  0  0  0  0  0  0  0  0  0  0  0
    4.6487   20.6205    2.8006 H   0  0  0  0  0  0  0  0  0  0  0  0
    2.8945   21.0072    2.8006 H   0  0  0  0  0  0  0  0  0  0  0  0
    3.0527   16.1373   -2.6301 H   0  0  0  0  0  0  0  0  0  0  0  0
    3.8387   16.6812   -0.4104 H   0  0  0  0  0  0  0  0  0  0  0  0
    2.4556   17.7519   -0.0993 H   0  0  0  0  0  0  0  0  0  0  0  0
    2.7860   15.1167    0.9558 H   0  0  0  0  0  0  0  0  0  0  0  0
    1.2610   15.9988    0.9627 H   0  0  0  0  0  0  0  0  0  0  0  0
    3.2759   13.4398   -0.2893 H   0  0  0  0  0  0  0  0  0  0  0  0
    2.4240   12.9385   -1.7892 H   0  0  0  0  0  0  0  0  0  0  0  0
    3.4505   14.4126   -1.7892 H   0  0  0  0  0  0  0  0  0  0  0  0
   -0.4004   14.5026    0.0337 H   0  0  0  0  0  0  0  0  0  0  0  0
    1.3409   13.2339    1.4457 H   0  0  0  0  0  0  0  0  0  0  0  0
   -0.3848   12.6152    1.2802 H   0  0  0  0  0  0  0  0  0  0  0  0
    1.5218   10.8018    1.1534 H   0  0  0  0  0  0  0  0  0  0  0  0
    1.1354   12.0675   -2.6590 H   0  0  0  0  0  0  0  0  0  0  0  0
   -1.4176   10.4210   -2.1393 H   0  0  0  0  0  0  0  0  0  0  0  0
   -0.9705   11.2863   -3.6758 H   0  0  0  0  0  0  0  0  0  0  0  0
   -0.5721    8.8484   -3.8241 H   0  0  0  0  0  0  0  0  0  0  0  0
    0.9424    9.8221   -3.9799 H   0  0  0  0  0  0  0  0  0  0  0  0
    1.3832    7.9309   -2.5708 H   0  0  0  0  0  0  0  0  0  0  0  0
   -0.7660    8.9400   -0.9340 H   0  0  0  0  0  0  0  0  0  0  0  0
    3.8165   10.1455   -1.3579 H   0  0  0  0  0  0  0  0  0  0  0  0
    3.2676    9.0756   -2.6923 H   0  0  0  0  0  0  0  0  0  0  0  0
    2.8173   10.8145   -2.6923 H   0  0  0  0  0  0  0  0  0  0  0  0
    1.8899    9.2570    0.8837 H   0  0  0  0  0  0  0  0  0  0  0  0
    1.6591    7.7634   -0.0871 H   0  0  0  0  0  0  0  0  0  0  0  0
    3.2499    8.5977   -0.0871 H   0  0  0  0  0  0  0  0  0  0  0  0
   -1.9017   12.7232   -0.0178 H   0  0  0  0  0  0  0  0  0  0  0  0
   -2.5433   13.5036   -1.5030 H   0  0  0  0  0  0  0  0  0  0  0  0
   -2.1646   11.7477   -1.5030 H   0  0  0  0  0  0  0  0  0  0  0  0
   -0.6624   13.3375   -3.7219 H   0  0  0  0  0  0  0  0  0  0  0  0
   -1.3835   14.6433   -2.6219 H   0  0  0  0  0  0  0  0  0  0  0  0
    1.5077   14.3362   -3.4773 H   0  0  0  0  0  0  0  0  0  0  0  0
    0.3417   15.6534   -3.8923 H   0  0  0  0  0  0  0  0  0  0  0  0
   -0.2160   16.6281   -0.3362 H   0  0  0  0  0  0  0  0  0  0  0  0
   -0.0270   17.6035   -1.8327 H   0  0  0  0  0  0  0  0  0  0  0  0
   -1.0900   16.1556   -1.8327 H   0  0  0  0  0  0  0  0  0  0  0  0
  1  2  1  0
  2  3  1  0
  3  4  1  0
  4  5  1  0
  5  6  1  0
  6  7  1  0
  7  8  1  0
  7  9  1  0
  2 10  1  0
 10 11  1  0
 11 12  1  0
 12 13  1  0
 13 14  1  6
 13 15  1  0
 15 16  1  0
 16 17  1  0
 17 18  2  0
 18 19  1  0
 19 20  1  0
 20 21  1  0
 21 22  1  0
 22 23  1  0
 22 24  1  0
 24 25  1  0
 24 26  1  0
 19 27  1  0
 27 28  1  1
 27 29  1  0
 29 30  1  0
 30 31  1  0
 31 32  1  1
  7  5  1  0
 31 10  1  0
 31 13  1  0
 27 15  1  0
 24 18  1  0
  1 33  1  0
  1 34  1  0
  1 35  1  0
  2 36  1  6
  3 37  1  0
  3 38  1  0
  4 39  1  0
  4 40  1  0
  5 41  1  1
  8 42  1  0
  8 43  1  0
  8 44  1  0
  9 45  1  0
  9 46  1  0
  9 47  1  0
 10 48  1  6
 11 49  1  0
 11 50  1  0
 12 51  1  0
 12 52  1  0
 14 53  1  0
 14 54  1  0
 14 55  1  0
 15 56  1  1
 16 57  1  0
 16 58  1  0
 17 59  1  0
 19 60  1  6
 20 61  1  0
 20 62  1  0
 21 63  1  0
 21 64  1  0
 22 65  1  6
 23 66  1  0
 25 67  1  0
 25 68  1  0
 25 69  1  0
 26 70  1  0
 26 71  1  0
 26 72  1  0
 28 73  1  0
 28 74  1  0
 28 75  1  0
 29 76  1  0
 29 77  1  0
 30 78  1  0
 30 79  1  0
 32 80  1  0
 32 81  1  0
 32 82  1  0
M  END
>  <meeko>  (19) 
{"is_sidechain": [false], "intermolecular_energy": 2.731, "internal_energy": -0.839}

$$$$
EPH_relaxed_0001_pdb2pqr_Repair_405_r2_0001_out
     RDKit          3D

 82 86  0  0  0  0  0  0  0  0999 V2000
   -1.7440   14.8190    0.3790 C   0  0  0  0  0  0  0  0  0  0  0  0
   -0.3850   15.5120    0.2430 C   0  0  2  0  0  0  0  0  0  0  0  0
   -0.3820   16.5690   -0.8800 C   0  0  0  0  0  0  0  0  0  0  0  0
   -0.0310   17.9790   -0.3960 C   0  0  0  0  0  0  0  0  0  0  0  0
    1.4110   18.0870   -0.0020 C   0  0  2  0  0  0  0  0  0  0  0  0
    2.0570   19.2970   -0.4190 O   0  0  0  0  0  0  0  0  0  0  0  0
    2.5540   18.0810   -1.0010 C   0  0  0  0  0  0  0  0  0  0  0  0
    2.3040   17.9640   -2.4720 C   0  0  0  0  0  0  0  0  0  0  0  0
    3.9200   17.6990   -0.5230 C   0  0  0  0  0  0  0  0  0  0  0  0
    0.7030   14.4750   -0.0150 C   0  0  1  0  0  0  0  0  0  0  0  0
    0.8190   13.4340    1.1300 C   0  0  0  0  0  0  0  0  0  0  0  0
    1.1930   12.0820    0.4690 C   0  0  0  0  0  0  0  0  0  0  0  0
    1.6030   12.4550   -0.9750 C   0  0  1  0  0  0  0  0  0  0  0  0
    3.0790   12.9500   -0.8580 C   0  0  0  0  0  0  0  0  0  0  0  0
    1.4570   11.3270   -2.0480 C   0  0  2  0  0  0  0  0  0  0  0  0
    2.3320   10.0840   -1.8120 C   0  0  0  0  0  0  0  0  0  0  0  0
    3.6820   10.1250   -2.4470 C   0  0  0  0  0  0  0  0  0  0  0  0
    4.0690   10.9840   -3.4080 C   0  0  0  0  0  0  0  0  0  0  0  0
    3.0740   11.9780   -4.0230 C   0  0  1  0  0  0  0  0  0  0  0  0
    3.2120   11.9590   -5.5680 C   0  0  0  0  0  0  0  0  0  0  0  0
    4.6450   12.2060   -6.0310 C   0  0  0  0  0  0  0  0  0  0  0  0
    5.5940   11.1640   -5.4460 C   0  0  2  0  0  0  0  0  0  0  0  0
    5.2770    9.8850   -6.0050 O   0  0  0  0  0  0  0  0  0  0  0  0
    5.5360   11.0840   -3.8940 C   0  0  0  0  0  0  0  0  0  0  0  0
    6.1640   12.3610   -3.2840 C   0  0  0  0  0  0  0  0  0  0  0  0
    6.4330    9.9010   -3.4430 C   0  0  0  0  0  0  0  0  0  0  0  0
    1.5660   11.8360   -3.5430 C   0  0  1  0  0  0  0  0  0  0  0  0
    0.8230   10.7870   -4.4260 C   0  0  0  0  0  0  0  0  0  0  0  0
    0.8250   13.2070   -3.7640 C   0  0  0  0  0  0  0  0  0  0  0  0
    0.9070   14.2340   -2.6180 C   0  0  0  0  0  0  0  0  0  0  0  0
    0.5540   13.5870   -1.2760 C   0  0  2  0  0  0  0  0  0  0  0  0
   -0.9320   13.0990   -1.3560 C   0  0  0  0  0  0  0  0  0  0  0  0
   -1.9873   14.6949    1.4446 H   0  0  0  0  0  0  0  0  0  0  0  0
   -2.5184   15.4323   -0.1049 H   0  0  0  0  0  0  0  0  0  0  0  0
   -1.7024   13.8320   -0.1049 H   0  0  0  0  0  0  0  0  0  0  0  0
   -0.1837   16.0353    1.1894 H   0  0  0  0  0  0  0  0  0  0  0  0
    0.3559   16.2682   -1.6383 H   0  0  0  0  0  0  0  0  0  0  0  0
   -1.4042   16.6125   -1.2839 H   0  0  0  0  0  0  0  0  0  0  0  0
   -0.2337   18.6948   -1.2063 H   0  0  0  0  0  0  0  0  0  0  0  0
   -0.6457   18.2007    0.4888 H   0  0  0  0  0  0  0  0  0  0  0  0
    1.2285   17.5063    0.9142 H   0  0  0  0  0  0  0  0  0  0  0  0
    1.3195   17.5033   -2.6411 H   0  0  0  0  0  0  0  0  0  0  0  0
    2.3237   18.9648   -2.9280 H   0  0  0  0  0  0  0  0  0  0  0  0
    3.0851   17.3379   -2.9280 H   0  0  0  0  0  0  0  0  0  0  0  0
    3.9357   17.6946    0.5769 H   0  0  0  0  0  0  0  0  0  0  0  0
    4.1722   16.6959   -0.8973 H   0  0  0  0  0  0  0  0  0  0  0  0
    4.6560   18.4258   -0.8973 H   0  0  0  0  0  0  0  0  0  0  0  0
    1.5713   15.1413   -0.1251 H   0  0  0  0  0  0  0  0  0  0  0  0
    1.6020   13.7378    1.8403 H   0  0  0  0  0  0  0  0  0  0  0  0
   -0.1258   13.3531    1.6876 H   0  0  0  0  0  0  0  0  0  0  0  0
    2.0313   11.6083    1.0008 H   0  0  0  0  0  0  0  0  0  0  0  0
    0.3626   11.3611    0.4942 H   0  0  0  0  0  0  0  0  0  0  0  0
    3.3520   13.0415    0.2037 H   0  0  0  0  0  0  0  0  0  0  0  0
    3.7481   12.2271   -1.3476 H   0  0  0  0  0  0  0  0  0  0  0  0
    3.1769   13.9301   -1.3476 H   0  0  0  0  0  0  0  0  0  0  0  0
    0.4193   10.9936   -1.8993 H   0  0  0  0  0  0  0  0  0  0  0  0
    2.4701    9.9665   -0.7270 H   0  0  0  0  0  0  0  0  0  0  0  0
    1.8000    9.2436   -2.2819 H   0  0  0  0  0  0  0  0  0  0  0  0
    4.4238    9.3906   -2.1000 H   0  0  0  0  0  0  0  0  0  0  0  0
    3.3542   12.9685   -3.6353 H   0  0  0  0  0  0  0  0  0  0  0  0
    2.8861   10.9761   -5.9390 H   0  0  0  0  0  0  0  0  0  0  0  0
    2.5872   12.7707   -5.9689 H   0  0  0  0  0  0  0  0  0  0  0  0
    4.6831   12.1515   -7.1290 H   0  0  0  0  0  0  0  0  0  0  0  0
    4.9595   13.2014   -5.6843 H   0  0  0  0  0  0  0  0  0  0  0  0
    6.6183   11.4689   -5.7066 H   0  0  0  0  0  0  0  0  0  0  0  0
    4.5920   10.0220   -6.6810 H   0  0  0  0  0  0  0  0  0  0  0  0
    6.1324   12.2968   -2.1863 H   0  0  0  0  0  0  0  0  0  0  0  0
    7.2088   12.4504   -3.6161 H   0  0  0  0  0  0  0  0  0  0  0  0
    5.5969   13.2431   -3.6161 H   0  0  0  0  0  0  0  0  0  0  0  0
    6.4628    9.8616   -2.3441 H   0  0  0  0  0  0  0  0  0  0  0  0
    6.0204    8.9587   -3.8326 H   0  0  0  0  0  0  0  0  0  0  0  0
    7.4517   10.0440   -3.8326 H   0  0  0  0  0  0  0  0  0  0  0  0
    0.3089   10.0612   -3.7788 H   0  0  0  0  0  0  0  0  0  0  0  0
    0.0851   11.2991   -5.0610 H   0  0  0  0  0  0  0  0  0  0  0  0
    1.5509   10.2608   -5.0610 H   0  0  0  0  0  0  0  0  0  0  0  0
    1.2534   13.6758   -4.6622 H   0  0  0  0  0  0  0  0  0  0  0  0
   -0.2412   12.9484   -3.8428 H   0  0  0  0  0  0  0  0  0  0  0  0
    1.9302   14.6345   -2.5663 H   0  0  0  0  0  0  0  0  0  0  0  0
    0.1871   15.0413   -2.8183 H   0  0  0  0  0  0  0  0  0  0  0  0
   -1.3302   12.9682   -0.3390 H   0  0  0  0  0  0  0  0  0  0  0  0
   -1.5350   13.8463   -1.8926 H   0  0  0  0  0  0  0  0  0  0  0  0
   -0.9745   12.1397   -1.8926 H   0  0  0  0  0  0  0  0  0  0  0  0
  1  2  1  0
  2  3  1  0
  3  4  1  0
  4  5  1  0
  5  6  1  0
  6  7  1  0
  7  8  1  0
  7  9  1  0
  2 10  1  0
 10 11  1  0
 11 12  1  0
 12 13  1  0
 13 14  1  1
 13 15  1  0
 15 16  1  0
 16 17  1  0
 17 18  2  0
 18 19  1  0
 19 20  1  0
 20 21  1  0
 21 22  1  0
 22 23  1  0
 22 24  1  0
 24 25  1  0
 24 26  1  0
 19 27  1  0
 27 28  1  6
 27 29  1  0
 29 30  1  0
 30 31  1  0
 31 32  1  6
  7  5  1  0
 31 10  1  0
 31 13  1  0
 27 15  1  0
 24 18  1  0
  1 33  1  0
  1 34  1  0
  1 35  1  0
  2 36  1  1
  3 37  1  0
  3 38  1  0
  4 39  1  0
  4 40  1  0
  5 41  1  1
  8 42  1  0
  8 43  1  0
  8 44  1  0
  9 45  1  0
  9 46  1  0
  9 47  1  0
 10 48  1  6
 11 49  1  0
 11 50  1  0
 12 51  1  0
 12 52  1  0
 14 53  1  0
 14 54  1  0
 14 55  1  0
 15 56  1  6
 16 57  1  0
 16 58  1  0
 17 59  1  0
 19 60  1  1
 20 61  1  0
 20 62  1  0
 21 63  1  0
 21 64  1  0
 22 65  1  1
 23 66  1  0
 25 67  1  0
 25 68  1  0
 25 69  1  0
 26 70  1  0
 26 71  1  0
 26 72  1  0
 28 73  1  0
 28 74  1  0
 28 75  1  0
 29 76  1  0
 29 77  1  0
 30 78  1  0
 30 79  1  0
 32 80  1  0
 32 81  1  0
 32 82  1  0
M  END
>  <meeko>  (20) 
{"is_sidechain": [false], "intermolecular_energy": 2.731, "internal_energy": -0.839}

$$$$
