EPH_relaxed_0001_pdb2pqr_Repair_100_r2_0001_out
     RDKit          3D

 82 86  0  0  0  0  0  0  0  0999 V2000
   -1.4200    8.4860   -1.5150 C   0  0  0  0  0  0  0  0  0  0  0  0
   -2.0410    9.2690   -0.3540 C   0  0  2  0  0  0  0  0  0  0  0  0
   -3.4810    9.7230   -0.6640 C   0  0  0  0  0  0  0  0  0  0  0  0
   -4.4890    8.5730   -0.7270 C   0  0  0  0  0  0  0  0  0  0  0  0
   -5.7660    8.9910   -1.3920 C   0  0  2  0  0  0  0  0  0  0  0  0
   -6.9020    8.1780   -1.0690 O   0  0  0  0  0  0  0  0  0  0  0  0
   -6.4750    8.1550   -2.4410 C   0  0  0  0  0  0  0  0  0  0  0  0
   -5.9300    6.8340   -2.8860 C   0  0  0  0  0  0  0  0  0  0  0  0
   -7.4220    8.8370   -3.3790 C   0  0  0  0  0  0  0  0  0  0  0  0
   -1.1740   10.4770   -0.0190 C   0  0  1  0  0  0  0  0  0  0  0  0
   -0.1230   10.1720    1.0810 C   0  0  0  0  0  0  0  0  0  0  0  0
    1.1420   10.9980    0.7330 C   0  0  0  0  0  0  0  0  0  0  0  0
    0.6710   11.9940   -0.3530 C   0  0  1  0  0  0  0  0  0  0  0  0
   -0.0200   13.1500    0.4360 C   0  0  0  0  0  0  0  0  0  0  0  0
    1.7740   12.5340   -1.3200 C   0  0  2  0  0  0  0  0  0  0  0  0
    2.8910   13.3500   -0.6460 C   0  0  0  0  0  0  0  0  0  0  0  0
    2.6430   14.8200   -0.5590 C   0  0  0  0  0  0  0  0  0  0  0  0
    1.7090   15.4980   -1.2520 C   0  0  0  0  0  0  0  0  0  0  0  0
    0.8440   14.7940   -2.3050 C   0  0  1  0  0  0  0  0  0  0  0  0
    0.7950   15.6550   -3.5940 C   0  0  0  0  0  0  0  0  0  0  0  0
    0.3370   17.0850   -3.3250 C   0  0  0  0  0  0  0  0  0  0  0  0
    1.2560   17.7710   -2.3170 C   0  0  2  0  0  0  0  0  0  0  0  0
    2.5480   17.9380   -2.9100 O   0  0  0  0  0  0  0  0  0  0  0  0
    1.3910   16.9890   -0.9810 C   0  0  0  0  0  0  0  0  0  0  0  0
    0.0590   17.0670   -0.1950 C   0  0  0  0  0  0  0  0  0  0  0  0
    2.4530   17.7130   -0.1090 C   0  0  0  0  0  0  0  0  0  0  0  0
    1.2090   13.2750   -2.5990 C   0  0  1  0  0  0  0  0  0  0  0  0
    2.3220   13.1960   -3.6880 C   0  0  0  0  0  0  0  0  0  0  0  0
   -0.0530   12.5500   -3.2010 C   0  0  0  0  0  0  0  0  0  0  0  0
   -1.0450   11.9330   -2.1970 C   0  0  0  0  0  0  0  0  0  0  0  0
   -0.3130   11.0730   -1.1620 C   0  0  2  0  0  0  0  0  0  0  0  0
    0.3740    9.8890   -1.9230 C   0  0  0  0  0  0  0  0  0  0  0  0
   -0.7829    7.6828   -1.1163 H   0  0  0  0  0  0  0  0  0  0  0  0
   -2.2193    8.0484   -2.1312 H   0  0  0  0  0  0  0  0  0  0  0  0
   -0.8119    9.1646   -2.1312 H   0  0  0  0  0  0  0  0  0  0  0  0
   -2.0879    8.5935    0.5129 H   0  0  0  0  0  0  0  0  0  0  0  0
   -3.8012   10.4227    0.1220 H   0  0  0  0  0  0  0  0  0  0  0  0
   -3.4634   10.1897   -1.6599 H   0  0  0  0  0  0  0  0  0  0  0  0
   -4.0465    7.7418   -1.2955 H   0  0  0  0  0  0  0  0  0  0  0  0
   -4.7233    8.2655    0.3028 H   0  0  0  0  0  0  0  0  0  0  0  0
   -5.4577   10.0468   -1.3750 H   0  0  0  0  0  0  0  0  0  0  0  0
   -5.6789    6.2253   -2.0048 H   0  0  0  0  0  0  0  0  0  0  0  0
   -6.6855    6.3104   -3.4901 H   0  0  0  0  0  0  0  0  0  0  0  0
   -5.0250    6.9954   -3.4901 H   0  0  0  0  0  0  0  0  0  0  0  0
   -8.1811    9.3837   -2.8004 H   0  0  0  0  0  0  0  0  0  0  0  0
   -6.8654    9.5430   -4.0129 H   0  0  0  0  0  0  0  0  0  0  0  0
   -7.9152    8.0854   -4.0129 H   0  0  0  0  0  0  0  0  0  0  0  0
   -1.9579   11.1909    0.2741 H   0  0  0  0  0  0  0  0  0  0  0  0
   -0.5097   10.4689    2.0670 H   0  0  0  0  0  0  0  0  0  0  0  0
    0.1062    9.0969    1.1208 H   0  0  0  0  0  0  0  0  0  0  0  0
    1.5108   11.5354    1.6191 H   0  0  0  0  0  0  0  0  0  0  0  0
    1.9717   10.3644    0.3864 H   0  0  0  0  0  0  0  0  0  0  0  0
    0.0867   12.9716    1.5162 H   0  0  0  0  0  0  0  0  0  0  0  0
    0.4541   14.1074    0.1739 H   0  0  0  0  0  0  0  0  0  0  0  0
   -1.0877   13.1857    0.1739 H   0  0  0  0  0  0  0  0  0  0  0  0
    2.2516   11.6078   -1.6723 H   0  0  0  0  0  0  0  0  0  0  0  0
    3.0226   12.9664    0.3765 H   0  0  0  0  0  0  0  0  0  0  0  0
    3.7817   13.2285   -1.2800 H   0  0  0  0  0  0  0  0  0  0  0  0
    3.2771   15.3977    0.1296 H   0  0  0  0  0  0  0  0  0  0  0  0
   -0.1631   14.7165   -1.8694 H   0  0  0  0  0  0  0  0  0  0  0  0
    1.8015   15.6845   -4.0369 H   0  0  0  0  0  0  0  0  0  0  0  0
    0.0659   15.1936   -4.2763 H   0  0  0  0  0  0  0  0  0  0  0  0
    0.3507   17.6510   -4.2681 H   0  0  0  0  0  0  0  0  0  0  0  0
   -0.6810   17.0556   -2.9092 H   0  0  0  0  0  0  0  0  0  0  0  0
    0.8053   18.7429   -2.0673 H   0  0  0  0  0  0  0  0  0  0  0  0
    2.4970   18.6960   -3.5160 H   0  0  0  0  0  0  0  0  0  0  0  0
    0.2691   17.0547    0.8847 H   0  0  0  0  0  0  0  0  0  0  0  0
   -0.4666   17.9975   -0.4557 H   0  0  0  0  0  0  0  0  0  0  0  0
   -0.5716   16.2042   -0.4557 H   0  0  0  0  0  0  0  0  0  0  0  0
    2.2226   17.5559    0.9551 H   0  0  0  0  0  0  0  0  0  0  0  0
    3.4502   17.3058   -0.3323 H   0  0  0  0  0  0  0  0  0  0  0  0
    2.4383   18.7900   -0.3323 H   0  0  0  0  0  0  0  0  0  0  0  0
    3.3063   13.1261   -3.2019 H   0  0  0  0  0  0  0  0  0  0  0  0
    2.1589   12.3072   -4.3152 H   0  0  0  0  0  0  0  0  0  0  0  0
    2.2861   14.0990   -4.3152 H   0  0  0  0  0  0  0  0  0  0  0  0
   -0.6044   13.2871   -3.8032 H   0  0  0  0  0  0  0  0  0  0  0  0
    0.3486   11.6979   -3.7690 H   0  0  0  0  0  0  0  0  0  0  0  0
   -1.5819   12.7411   -1.6786 H   0  0  0  0  0  0  0  0  0  0  0  0
   -1.7507   11.2941   -2.7483 H   0  0  0  0  0  0  0  0  0  0  0  0
    0.7877    9.1760   -1.1947 H   0  0  0  0  0  0  0  0  0  0  0  0
   -0.3685    9.3790   -2.5544 H   0  0  0  0  0  0  0  0  0  0  0  0
    1.1852   10.2805   -2.5544 H   0  0  0  0  0  0  0  0  0  0  0  0
  1  2  1  0
  2  3  1  0
  3  4  1  0
  4  5  1  0
  5  6  1  0
  6  7  1  0
  7  8  1  0
  7  9  1  0
  2 10  1  0
 10 11  1  0
 11 12  1  0
 12 13  1  0
 13 14  1  1
 13 15  1  0
 15 16  1  0
 16 17  1  0
 17 18  2  0
 18 19  1  0
 19 20  1  0
 20 21  1  0
 21 22  1  0
 22 23  1  0
 22 24  1  0
 24 25  1  0
 24 26  1  0
 19 27  1  0
 27 28  1  6
 27 29  1  0
 29 30  1  0
 30 31  1  0
 31 32  1  6
  7  5  1  0
 31 10  1  0
 31 13  1  0
 27 15  1  0
 24 18  1  0
  1 33  1  0
  1 34  1  0
  1 35  1  0
  2 36  1  1
  3 37  1  0
  3 38  1  0
  4 39  1  0
  4 40  1  0
  5 41  1  6
  8 42  1  0
  8 43  1  0
  8 44  1  0
  9 45  1  0
  9 46  1  0
  9 47  1  0
 10 48  1  1
 11 49  1  0
 11 50  1  0
 12 51  1  0
 12 52  1  0
 14 53  1  0
 14 54  1  0
 14 55  1  0
 15 56  1  6
 16 57  1  0
 16 58  1  0
 17 59  1  0
 19 60  1  1
 20 61  1  0
 20 62  1  0
 21 63  1  0
 21 64  1  0
 22 65  1  1
 23 66  1  0
 25 67  1  0
 25 68  1  0
 25 69  1  0
 26 70  1  0
 26 71  1  0
 26 72  1  0
 28 73  1  0
 28 74  1  0
 28 75  1  0
 29 76  1  0
 29 77  1  0
 30 78  1  0
 30 79  1  0
 32 80  1  0
 32 81  1  0
 32 82  1  0
M  END
>  <meeko>  (1) 
{"is_sidechain": [false], "intermolecular_energy": 2.731, "internal_energy": -0.839}

$$$$
EPH_relaxed_0001_pdb2pqr_Repair_100_r2_0001_out
     RDKit          3D

 82 86  0  0  0  0  0  0  0  0999 V2000
    4.0070   17.4190   -0.0210 C   0  0  0  0  0  0  0  0  0  0  0  0
    2.6100   17.9840   -0.2950 C   0  0  2  0  0  0  0  0  0  0  0  0
    2.2260   19.0930    0.7050 C   0  0  0  0  0  0  0  0  0  0  0  0
    3.4300   19.8210    1.3090 C   0  0  0  0  0  0  0  0  0  0  0  0
    3.8300   19.2320    2.6280 C   0  0  2  0  0  0  0  0  0  0  0  0
    4.0820   20.1940    3.6610 O   0  0  0  0  0  0  0  0  0  0  0  0
    5.2080   19.4070    3.2380 C   0  0  0  0  0  0  0  0  0  0  0  0
    6.2750   20.1940    2.5440 C   0  0  0  0  0  0  0  0  0  0  0  0
    5.6680   18.4150    4.2610 C   0  0  0  0  0  0  0  0  0  0  0  0
    1.5790   16.8620   -0.2500 C   0  0  1  0  0  0  0  0  0  0  0  0
    0.1340   17.3680   -0.5050 C   0  0  0  0  0  0  0  0  0  0  0  0
   -0.6010   16.2490   -1.2860 C   0  0  0  0  0  0  0  0  0  0  0  0
    0.3260   15.0170   -1.1660 C   0  0  1  0  0  0  0  0  0  0  0  0
    0.0130   14.4150    0.2390 C   0  0  0  0  0  0  0  0  0  0  0  0
    0.1980   13.9430   -2.2960 C   0  0  2  0  0  0  0  0  0  0  0  0
   -1.1780   13.2610   -2.3940 C   0  0  0  0  0  0  0  0  0  0  0  0
   -1.3330   12.0180   -1.5820 C   0  0  0  0  0  0  0  0  0  0  0  0
   -0.3270   11.3130   -1.0310 C   0  0  0  0  0  0  0  0  0  0  0  0
    1.1360   11.6990   -1.2850 C   0  0  1  0  0  0  0  0  0  0  0  0
    1.9530   10.4280   -1.6380 C   0  0  0  0  0  0  0  0  0  0  0  0
    1.8130    9.3310   -0.5870 C   0  0  0  0  0  0  0  0  0  0  0  0
    0.3500    8.9340   -0.4050 C   0  0  2  0  0  0  0  0  0  0  0  0
   -0.1100    8.3080   -1.6060 O   0  0  0  0  0  0  0  0  0  0  0  0
   -0.5720   10.1360   -0.0560 C   0  0  0  0  0  0  0  0  0  0  0  0
   -0.2680   10.6240    1.3820 C   0  0  0  0  0  0  0  0  0  0  0  0
   -2.0380    9.6240   -0.0390 C   0  0  0  0  0  0  0  0  0  0  0  0
    1.3720   12.8830   -2.3190 C   0  0  1  0  0  0  0  0  0  0  0  0
    1.4330   12.3170   -3.7700 C   0  0  0  0  0  0  0  0  0  0  0  0
    2.7760   13.5390   -2.0380 C   0  0  0  0  0  0  0  0  0  0  0  0
    2.8160   14.6750   -0.9980 C   0  0  0  0  0  0  0  0  0  0  0  0
    1.7290   15.7160   -1.2810 C   0  0  2  0  0  0  0  0  0  0  0  0
    2.0310   16.3550   -2.6800 C   0  0  0  0  0  0  0  0  0  0  0  0
    4.1694   17.3533    1.0650 H   0  0  0  0  0  0  0  0  0  0  0  0
    4.0907   16.4163   -0.4656 H   0  0  0  0  0  0  0  0  0  0  0  0
    4.7642   18.0816   -0.4656 H   0  0  0  0  0  0  0  0  0  0  0  0
    2.6255   18.4354   -1.2980 H   0  0  0  0  0  0  0  0  0  0  0  0
    1.6006   19.8312    0.1816 H   0  0  0  0  0  0  0  0  0  0  0  0
    1.6944   18.6065    1.5361 H   0  0  0  0  0  0  0  0  0  0  0  0
    4.2783   19.7452    0.6129 H   0  0  0  0  0  0  0  0  0  0  0  0
    3.1479   20.8713    1.4741 H   0  0  0  0  0  0  0  0  0  0  0  0
    3.2122   18.3405    2.4447 H   0  0  0  0  0  0  0  0  0  0  0  0
    6.9235   20.6723    3.2928 H   0  0  0  0  0  0  0  0  0  0  0  0
    6.8760   19.5213    1.9145 H   0  0  0  0  0  0  0  0  0  0  0  0
    5.8098   20.9669    1.9145 H   0  0  0  0  0  0  0  0  0  0  0  0
    5.4826   18.8149    5.2688 H   0  0  0  0  0  0  0  0  0  0  0  0
    5.1149   17.4729    4.1328 H   0  0  0  0  0  0  0  0  0  0  0  0
    6.7445   18.2285    4.1328 H   0  0  0  0  0  0  0  0  0  0  0  0
    1.7654   16.4816    0.7652 H   0  0  0  0  0  0  0  0  0  0  0  0
   -0.3746   17.5591    0.4514 H   0  0  0  0  0  0  0  0  0  0  0  0
    0.1400   18.3087   -1.0752 H   0  0  0  0  0  0  0  0  0  0  0  0
   -1.5829   16.0416   -0.8357 H   0  0  0  0  0  0  0  0  0  0  0  0
   -0.7922   16.5271   -2.3329 H   0  0  0  0  0  0  0  0  0  0  0  0
    0.3703   15.1021    1.0202 H   0  0  0  0  0  0  0  0  0  0  0  0
   -1.0728   14.2736    0.3437 H   0  0  0  0  0  0  0  0  0  0  0  0
    0.5209   13.4449    0.3437 H   0  0  0  0  0  0  0  0  0  0  0  0
    0.2975   14.5479   -3.2093 H   0  0  0  0  0  0  0  0  0  0  0  0
   -1.9391   13.9818   -2.0607 H   0  0  0  0  0  0  0  0  0  0  0  0
   -1.2915   12.9544   -3.4443 H   0  0  0  0  0  0  0  0  0  0  0  0
   -2.3557   11.6466   -1.4201 H   0  0  0  0  0  0  0  0  0  0  0  0
    1.5045   12.1301   -0.3425 H   0  0  0  0  0  0  0  0  0  0  0  0
    1.5988   10.0382   -2.6037 H   0  0  0  0  0  0  0  0  0  0  0  0
    3.0140   10.7149   -1.6814 H   0  0  0  0  0  0  0  0  0  0  0  0
    2.3881    8.4498   -0.9075 H   0  0  0  0  0  0  0  0  0  0  0  0
    2.1955    9.7118    0.3715 H   0  0  0  0  0  0  0  0  0  0  0  0
    0.2994    8.2419    0.4484 H   0  0  0  0  0  0  0  0  0  0  0  0
   -1.0350    8.5760   -1.7420 H   0  0  0  0  0  0  0  0  0  0  0  0
   -0.7052    9.9222    2.1075 H   0  0  0  0  0  0  0  0  0  0  0  0
    0.8209   10.6733    1.5300 H   0  0  0  0  0  0  0  0  0  0  0  0
   -0.7038   11.6231    1.5300 H   0  0  0  0  0  0  0  0  0  0  0  0
   -2.3734    9.5069    1.0020 H   0  0  0  0  0  0  0  0  0  0  0  0
   -2.6856   10.3492   -0.5535 H   0  0  0  0  0  0  0  0  0  0  0  0
   -2.0934    8.6533   -0.5535 H   0  0  0  0  0  0  0  0  0  0  0  0
    1.5508   11.2240   -3.7326 H   0  0  0  0  0  0  0  0  0  0  0  0
    0.5027   12.5676   -4.3007 H   0  0  0  0  0  0  0  0  0  0  0  0
    2.2886   12.7600   -4.3007 H   0  0  0  0  0  0  0  0  0  0  0  0
    3.4509   12.7438   -1.6885 H   0  0  0  0  0  0  0  0  0  0  0  0
    3.0700   14.0082   -2.9885 H   0  0  0  0  0  0  0  0  0  0  0  0
    2.6559   14.2510    0.0043 H   0  0  0  0  0  0  0  0  0  0  0  0
    3.7975   15.1684   -1.0552 H   0  0  0  0  0  0  0  0  0  0  0  0
    2.4972   17.3414   -2.5396 H   0  0  0  0  0  0  0  0  0  0  0  0
    2.7159   15.7023   -3.2411 H   0  0  0  0  0  0  0  0  0  0  0  0
    1.0919   16.4698   -3.2411 H   0  0  0  0  0  0  0  0  0  0  0  0
  1  2  1  0
  2  3  1  0
  3  4  1  0
  4  5  1  0
  5  6  1  0
  6  7  1  0
  7  8  1  0
  7  9  1  0
  2 10  1  0
 10 11  1  0
 11 12  1  0
 12 13  1  0
 13 14  1  1
 13 15  1  0
 15 16  1  0
 16 17  1  0
 17 18  2  0
 18 19  1  0
 19 20  1  0
 20 21  1  0
 21 22  1  0
 22 23  1  0
 22 24  1  0
 24 25  1  0
 24 26  1  0
 19 27  1  0
 27 28  1  6
 27 29  1  0
 29 30  1  0
 30 31  1  0
 31 32  1  6
  7  5  1  0
 31 10  1  0
 31 13  1  0
 27 15  1  0
 24 18  1  0
  1 33  1  0
  1 34  1  0
  1 35  1  0
  2 36  1  6
  3 37  1  0
  3 38  1  0
  4 39  1  0
  4 40  1  0
  5 41  1  1
  8 42  1  0
  8 43  1  0
  8 44  1  0
  9 45  1  0
  9 46  1  0
  9 47  1  0
 10 48  1  1
 11 49  1  0
 11 50  1  0
 12 51  1  0
 12 52  1  0
 14 53  1  0
 14 54  1  0
 14 55  1  0
 15 56  1  6
 16 57  1  0
 16 58  1  0
 17 59  1  0
 19 60  1  1
 20 61  1  0
 20 62  1  0
 21 63  1  0
 21 64  1  0
 22 65  1  1
 23 66  1  0
 25 67  1  0
 25 68  1  0
 25 69  1  0
 26 70  1  0
 26 71  1  0
 26 72  1  0
 28 73  1  0
 28 74  1  0
 28 75  1  0
 29 76  1  0
 29 77  1  0
 30 78  1  0
 30 79  1  0
 32 80  1  0
 32 81  1  0
 32 82  1  0
M  END
>  <meeko>  (2) 
{"is_sidechain": [false], "intermolecular_energy": 2.731, "internal_energy": -0.839}

$$$$
EPH_relaxed_0001_pdb2pqr_Repair_100_r2_0001_out
     RDKit          3D

 82 86  0  0  0  0  0  0  0  0999 V2000
    2.3740   17.9070   -2.6500 C   0  0  0  0  0  0  0  0  0  0  0  0
    1.0410   17.5300   -1.9970 C   0  0  2  0  0  0  0  0  0  0  0  0
    1.1030   17.6170   -0.4590 C   0  0  0  0  0  0  0  0  0  0  0  0
    0.8020   19.0140    0.0910 C   0  0  0  0  0  0  0  0  0  0  0  0
   -0.6270   19.1430    0.5250 C   0  0  2  0  0  0  0  0  0  0  0  0
   -1.5290   18.2220   -0.1040 O   0  0  0  0  0  0  0  0  0  0  0  0
   -1.7410   19.6140   -0.3920 C   0  0  0  0  0  0  0  0  0  0  0  0
   -1.4730   19.9880   -1.8160 C   0  0  0  0  0  0  0  0  0  0  0  0
   -2.9850   20.1750    0.2230 C   0  0  0  0  0  0  0  0  0  0  0  0
    0.6330   16.1250   -2.4240 C   0  0  1  0  0  0  0  0  0  0  0  0
    0.8190   15.8850   -3.9460 C   0  0  0  0  0  0  0  0  0  0  0  0
    1.2470   14.4040   -4.1160 C   0  0  0  0  0  0  0  0  0  0  0  0
    0.9730   13.7580   -2.7370 C   0  0  1  0  0  0  0  0  0  0  0  0
   -0.5570   13.4470   -2.7370 C   0  0  0  0  0  0  0  0  0  0  0  0
    1.8190   12.4910   -2.3880 C   0  0  2  0  0  0  0  0  0  0  0  0
    1.6040   11.2850   -3.3190 C   0  0  0  0  0  0  0  0  0  0  0  0
    0.5300   10.3380   -2.8980 C   0  0  0  0  0  0  0  0  0  0  0  0
   -0.0380   10.2920   -1.6780 C   0  0  0  0  0  0  0  0  0  0  0  0
    0.4640   11.1900   -0.5410 C   0  0  1  0  0  0  0  0  0  0  0  0
    0.6280   10.3470    0.7510 C   0  0  0  0  0  0  0  0  0  0  0  0
   -0.6450    9.5930    1.1220 C   0  0  0  0  0  0  0  0  0  0  0  0
   -1.0800    8.6670   -0.0110 C   0  0  2  0  0  0  0  0  0  0  0  0
   -0.1070    7.6290   -0.1570 O   0  0  0  0  0  0  0  0  0  0  0  0
   -1.2680    9.4040   -1.3660 C   0  0  0  0  0  0  0  0  0  0  0  0
   -2.5190   10.3130   -1.2960 C   0  0  0  0  0  0  0  0  0  0  0  0
   -1.5680    8.3360   -2.4530 C   0  0  0  0  0  0  0  0  0  0  0  0
    1.7500   12.0660   -0.8650 C   0  0  1  0  0  0  0  0  0  0  0  0
    3.0420   11.2420   -0.5740 C   0  0  0  0  0  0  0  0  0  0  0  0
    1.7870   13.3050    0.1050 C   0  0  0  0  0  0  0  0  0  0  0  0
    1.0300   14.5670   -0.3520 C   0  0  0  0  0  0  0  0  0  0  0  0
    1.4020   14.9380   -1.7910 C   0  0  2  0  0  0  0  0  0  0  0  0
    2.9310   15.2780   -1.8180 C   0  0  0  0  0  0  0  0  0  0  0  0
    3.1187   18.1176   -1.8682 H   0  0  0  0  0  0  0  0  0  0  0  0
    2.7248   17.0728   -3.2754 H   0  0  0  0  0  0  0  0  0  0  0  0
    2.2360   18.8013   -3.2754 H   0  0  0  0  0  0  0  0  0  0  0  0
    0.2878   18.2555   -2.3380 H   0  0  0  0  0  0  0  0  0  0  0  0
    0.3677   16.9135   -0.0414 H   0  0  0  0  0  0  0  0  0  0  0  0
    2.1338   17.3707   -0.1643 H   0  0  0  0  0  0  0  0  0  0  0  0
    1.4556   19.2055    0.9548 H   0  0  0  0  0  0  0  0  0  0  0  0
    0.9841   19.7447   -0.7108 H   0  0  0  0  0  0  0  0  0  0  0  0
   -0.3174   19.4589    1.5322 H   0  0  0  0  0  0  0  0  0  0  0  0
   -0.8325   20.8818   -1.8460 H   0  0  0  0  0  0  0  0  0  0  0  0
   -0.9647   19.1554   -2.3243 H   0  0  0  0  0  0  0  0  0  0  0  0
   -2.4248   20.2017   -2.3243 H   0  0  0  0  0  0  0  0  0  0  0  0
   -2.9013   20.1373    1.3192 H   0  0  0  0  0  0  0  0  0  0  0  0
   -3.1147   21.2188   -0.0991 H   0  0  0  0  0  0  0  0  0  0  0  0
   -3.8532   19.5813   -0.0991 H   0  0  0  0  0  0  0  0  0  0  0  0
   -0.4115   16.1236   -2.0789 H   0  0  0  0  0  0  0  0  0  0  0  0
   -0.1265   16.0695   -4.4770 H   0  0  0  0  0  0  0  0  0  0  0  0
    1.5757   16.5654   -4.3637 H   0  0  0  0  0  0  0  0  0  0  0  0
    0.6499   13.9147   -4.8996 H   0  0  0  0  0  0  0  0  0  0  0  0
    2.2994   14.3062   -4.4209 H   0  0  0  0  0  0  0  0  0  0  0  0
   -0.9163   13.3740   -1.6999 H   0  0  0  0  0  0  0  0  0  0  0  0
   -1.0952   14.2541   -3.2555 H   0  0  0  0  0  0  0  0  0  0  0  0
   -0.7374   12.4938   -3.2555 H   0  0  0  0  0  0  0  0  0  0  0  0
    2.8468   12.8338   -2.5779 H   0  0  0  0  0  0  0  0  0  0  0  0
    1.3471   11.6681   -4.3176 H   0  0  0  0  0  0  0  0  0  0  0  0
    2.5422   10.7112   -3.2952 H   0  0  0  0  0  0  0  0  0  0  0  0
    0.1723    9.6168   -3.6476 H   0  0  0  0  0  0  0  0  0  0  0  0
   -0.3130   11.9543   -0.3921 H   0  0  0  0  0  0  0  0  0  0  0  0
    1.4373    9.6182    0.5963 H   0  0  0  0  0  0  0  0  0  0  0  0
    0.8587   11.0389    1.5745 H   0  0  0  0  0  0  0  0  0  0  0  0
   -0.4582    8.9936    2.0253 H   0  0  0  0  0  0  0  0  0  0  0  0
   -1.4459   10.3245    1.3049 H   0  0  0  0  0  0  0  0  0  0  0  0
   -2.0629    8.2536    0.2590 H   0  0  0  0  0  0  0  0  0  0  0  0
    0.7700    8.0250   -0.0160 H   0  0  0  0  0  0  0  0  0  0  0  0
   -2.7774   10.5007   -0.2434 H   0  0  0  0  0  0  0  0  0  0  0  0
   -2.3063   11.2687   -1.7974 H   0  0  0  0  0  0  0  0  0  0  0  0
   -3.3622    9.8155   -1.7974 H   0  0  0  0  0  0  0  0  0  0  0  0
   -1.8351    7.3851   -1.9689 H   0  0  0  0  0  0  0  0  0  0  0  0
   -2.4054    8.6761   -3.0800 H   0  0  0  0  0  0  0  0  0  0  0  0
   -0.6760    8.1904   -3.0800 H   0  0  0  0  0  0  0  0  0  0  0  0
    3.1826   11.1523    0.5133 H   0  0  0  0  0  0  0  0  0  0  0  0
    2.9443   10.2390   -1.0150 H   0  0  0  0  0  0  0  0  0  0  0  0
    3.9102   11.7535   -1.0150 H   0  0  0  0  0  0  0  0  0  0  0  0
    1.3563   12.9882    1.0663 H   0  0  0  0  0  0  0  0  0  0  0  0
    2.8446   13.6040    0.1504 H   0  0  0  0  0  0  0  0  0  0  0  0
   -0.0521   14.3771   -0.2975 H   0  0  0  0  0  0  0  0  0  0  0  0
    1.3080   15.4015    0.3086 H   0  0  0  0  0  0  0  0  0  0  0  0
    3.3063   15.3615   -0.7874 H   0  0  0  0  0  0  0  0  0  0  0  0
    3.4751   14.4789   -2.3428 H   0  0  0  0  0  0  0  0  0  0  0  0
    3.0852   16.2324   -2.3428 H   0  0  0  0  0  0  0  0  0  0  0  0
  1  2  1  0
  2  3  1  0
  3  4  1  0
  4  5  1  0
  5  6  1  0
  6  7  1  0
  7  8  1  0
  7  9  1  0
  2 10  1  0
 10 11  1  0
 11 12  1  0
 12 13  1  0
 13 14  1  6
 13 15  1  0
 15 16  1  0
 16 17  1  0
 17 18  2  0
 18 19  1  0
 19 20  1  0
 20 21  1  0
 21 22  1  0
 22 23  1  0
 22 24  1  0
 24 25  1  0
 24 26  1  0
 19 27  1  0
 27 28  1  1
 27 29  1  0
 29 30  1  0
 30 31  1  0
 31 32  1  1
  7  5  1  0
 31 10  1  0
 31 13  1  0
 27 15  1  0
 24 18  1  0
  1 33  1  0
  1 34  1  0
  1 35  1  0
  2 36  1  6
  3 37  1  0
  3 38  1  0
  4 39  1  0
  4 40  1  0
  5 41  1  1
  8 42  1  0
  8 43  1  0
  8 44  1  0
  9 45  1  0
  9 46  1  0
  9 47  1  0
 10 48  1  6
 11 49  1  0
 11 50  1  0
 12 51  1  0
 12 52  1  0
 14 53  1  0
 14 54  1  0
 14 55  1  0
 15 56  1  6
 16 57  1  0
 16 58  1  0
 17 59  1  0
 19 60  1  1
 20 61  1  0
 20 62  1  0
 21 63  1  0
 21 64  1  0
 22 65  1  1
 23 66  1  0
 25 67  1  0
 25 68  1  0
 25 69  1  0
 26 70  1  0
 26 71  1  0
 26 72  1  0
 28 73  1  0
 28 74  1  0
 28 75  1  0
 29 76  1  0
 29 77  1  0
 30 78  1  0
 30 79  1  0
 32 80  1  0
 32 81  1  0
 32 82  1  0
M  END
>  <meeko>  (3) 
{"is_sidechain": [false], "intermolecular_energy": 2.731, "internal_energy": -0.839}

$$$$
EPH_relaxed_0001_pdb2pqr_Repair_100_r2_0001_out
     RDKit          3D

 82 86  0  0  0  0  0  0  0  0999 V2000
    2.0450   18.1560   -2.8070 C   0  0  0  0  0  0  0  0  0  0  0  0
    0.7240   17.7430   -2.1510 C   0  0  2  0  0  0  0  0  0  0  0  0
    0.7710   17.8780   -0.6160 C   0  0  0  0  0  0  0  0  0  0  0  0
    2.1810   18.0900   -0.0590 C   0  0  0  0  0  0  0  0  0  0  0  0
    2.2180   19.1980    0.9500 C   0  0  2  0  0  0  0  0  0  0  0  0
    3.2200   20.1940    0.7080 O   0  0  0  0  0  0  0  0  0  0  0  0
    3.3730   19.4190    1.9080 C   0  0  0  0  0  0  0  0  0  0  0  0
    4.5720   18.5230    1.9040 C   0  0  0  0  0  0  0  0  0  0  0  0
    3.1230   20.1940    3.1640 C   0  0  0  0  0  0  0  0  0  0  0  0
    0.3770   16.3110   -2.5390 C   0  0  1  0  0  0  0  0  0  0  0  0
    0.5000   16.0580   -4.0650 C   0  0  0  0  0  0  0  0  0  0  0  0
    1.0040   14.6020   -4.2380 C   0  0  0  0  0  0  0  0  0  0  0  0
    0.8370   13.9630   -2.8390 C   0  0  1  0  0  0  0  0  0  0  0  0
   -0.6700   13.5650   -2.7570 C   0  0  0  0  0  0  0  0  0  0  0  0
    1.7720   12.7520   -2.5170 C   0  0  2  0  0  0  0  0  0  0  0  0
    1.5810   11.5210   -3.4210 C   0  0  0  0  0  0  0  0  0  0  0  0
    0.5850   10.5210   -2.9340 C   0  0  0  0  0  0  0  0  0  0  0  0
    0.0830   10.4610   -1.6860 C   0  0  0  0  0  0  0  0  0  0  0  0
    0.5890   11.4040   -0.5870 C   0  0  1  0  0  0  0  0  0  0  0  0
    0.8660   10.5920    0.7050 C   0  0  0  0  0  0  0  0  0  0  0  0
   -0.3410    9.7720    1.1500 C   0  0  0  0  0  0  0  0  0  0  0  0
   -0.7780    8.8050    0.0530 C   0  0  2  0  0  0  0  0  0  0  0  0
    0.2460    7.8220   -0.1310 O   0  0  0  0  0  0  0  0  0  0  0  0
   -1.0750    9.5090   -1.3010 C   0  0  0  0  0  0  0  0  0  0  0  0
   -2.3720   10.3460   -1.1780 C   0  0  0  0  0  0  0  0  0  0  0  0
   -1.3680    8.4090   -2.3570 C   0  0  0  0  0  0  0  0  0  0  0  0
    1.8050   12.3460   -0.9880 C   0  0  1  0  0  0  0  0  0  0  0  0
    3.1550   11.6020   -0.7530 C   0  0  0  0  0  0  0  0  0  0  0  0
    1.8180   13.6010   -0.0370 C   0  0  0  0  0  0  0  0  0  0  0  0
    0.9680   14.8110   -0.4700 C   0  0  0  0  0  0  0  0  0  0  0  0
    1.2440   15.1800   -1.9310 C   0  0  2  0  0  0  0  0  0  0  0  0
    2.7480   15.6060   -2.0410 C   0  0  0  0  0  0  0  0  0  0  0  0
    2.7852   18.3874   -2.0269 H   0  0  0  0  0  0  0  0  0  0  0  0
    2.4173   17.3314   -3.4326 H   0  0  0  0  0  0  0  0  0  0  0  0
    1.8813   19.0458   -3.4326 H   0  0  0  0  0  0  0  0  0  0  0  0
   -0.0561   18.4263   -2.5178 H   0  0  0  0  0  0  0  0  0  0  0  0
    0.1496   18.7374   -0.3239 H   0  0  0  0  0  0  0  0  0  0  0  0
    0.4001   16.9302   -0.1988 H   0  0  0  0  0  0  0  0  0  0  0  0
    2.5183   17.1595    0.4209 H   0  0  0  0  0  0  0  0  0  0  0  0
    2.8418   18.3648   -0.8943 H   0  0  0  0  0  0  0  0  0  0  0  0
    1.1323   19.1213    1.1090 H   0  0  0  0  0  0  0  0  0  0  0  0
    4.8679   18.3019    2.9401 H   0  0  0  0  0  0  0  0  0  0  0  0
    4.3270   17.5849    1.3845 H   0  0  0  0  0  0  0  0  0  0  0  0
    5.4022   19.0238    1.3845 H   0  0  0  0  0  0  0  0  0  0  0  0
    3.3289   19.5557    4.0358 H   0  0  0  0  0  0  0  0  0  0  0  0
    3.7830   21.0737    3.1896 H   0  0  0  0  0  0  0  0  0  0  0  0
    2.0734   20.5222    3.1896 H   0  0  0  0  0  0  0  0  0  0  0  0
   -0.6472   16.2557   -2.1415 H   0  0  0  0  0  0  0  0  0  0  0  0
   -0.4801   16.1796   -4.5493 H   0  0  0  0  0  0  0  0  0  0  0  0
    1.1942   16.7740   -4.5293 H   0  0  0  0  0  0  0  0  0  0  0  0
    0.3979   14.0672   -4.9841 H   0  0  0  0  0  0  0  0  0  0  0  0
    2.0437   14.5598   -4.5947 H   0  0  0  0  0  0  0  0  0  0  0  0
   -0.9713   13.4854   -1.7021 H   0  0  0  0  0  0  0  0  0  0  0  0
   -1.2797   14.3329   -3.2556 H   0  0  0  0  0  0  0  0  0  0  0  0
   -0.8210   12.5962   -3.2556 H   0  0  0  0  0  0  0  0  0  0  0  0
    2.7669   13.1518   -2.7625 H   0  0  0  0  0  0  0  0  0  0  0  0
    1.2533   11.8732   -4.4102 H   0  0  0  0  0  0  0  0  0  0  0  0
    2.5507   11.0019   -3.4374 H   0  0  0  0  0  0  0  0  0  0  0  0
    0.2314    9.7699   -3.6556 H   0  0  0  0  0  0  0  0  0  0  0  0
   -0.2220   12.1252   -0.4077 H   0  0  0  0  0  0  0  0  0  0  0  0
    1.7074    9.9084    0.5184 H   0  0  0  0  0  0  0  0  0  0  0  0
    1.0971   11.3086    1.5069 H   0  0  0  0  0  0  0  0  0  0  0  0
   -0.0746    9.1986    2.0501 H   0  0  0  0  0  0  0  0  0  0  0  0
   -1.1728   10.4593    1.3639 H   0  0  0  0  0  0  0  0  0  0  0  0
   -1.7203    8.3405    0.3792 H   0  0  0  0  0  0  0  0  0  0  0  0
    0.0790    7.1030    0.5020 H   0  0  0  0  0  0  0  0  0  0  0  0
   -2.6099   10.4995   -0.1151 H   0  0  0  0  0  0  0  0  0  0  0  0
   -2.2267   11.3212   -1.6658 H   0  0  0  0  0  0  0  0  0  0  0  0
   -3.2007    9.8119   -1.6658 H   0  0  0  0  0  0  0  0  0  0  0  0
   -1.6187    7.4677   -1.8460 H   0  0  0  0  0  0  0  0  0  0  0  0
   -2.2143    8.7212   -2.9865 H   0  0  0  0  0  0  0  0  0  0  0  0
   -0.4785    8.2588   -2.9865 H   0  0  0  0  0  0  0  0  0  0  0  0
    3.3356   11.5025    0.3275 H   0  0  0  0  0  0  0  0  0  0  0  0
    3.1074   10.6027   -1.2104 H   0  0  0  0  0  0  0  0  0  0  0  0
    3.9744   12.1759   -1.2104 H   0  0  0  0  0  0  0  0  0  0  0  0
    1.4547   13.2750    0.9488 H   0  0  0  0  0  0  0  0  0  0  0  0
    2.8575   13.9606   -0.0501 H   0  0  0  0  0  0  0  0  0  0  0  0
   -0.0973   14.5614   -0.3569 H   0  0  0  0  0  0  0  0  0  0  0  0
    1.2315   15.6700    0.1646 H   0  0  0  0  0  0  0  0  0  0  0  0
    3.1700   15.7255   -1.0322 H   0  0  0  0  0  0  0  0  0  0  0  0
    3.3097   14.8316   -2.5840 H   0  0  0  0  0  0  0  0  0  0  0  0
    2.8201   16.5599   -2.5840 H   0  0  0  0  0  0  0  0  0  0  0  0
  1  2  1  0
  2  3  1  0
  3  4  1  0
  4  5  1  0
  5  6  1  0
  6  7  1  0
  7  8  1  0
  7  9  1  0
  2 10  1  0
 10 11  1  0
 11 12  1  0
 12 13  1  0
 13 14  1  1
 13 15  1  0
 15 16  1  0
 16 17  1  0
 17 18  2  0
 18 19  1  0
 19 20  1  0
 20 21  1  0
 21 22  1  0
 22 23  1  0
 22 24  1  0
 24 25  1  0
 24 26  1  0
 19 27  1  0
 27 28  1  6
 27 29  1  0
 29 30  1  0
 30 31  1  0
 31 32  1  1
  7  5  1  0
 31 10  1  0
 31 13  1  0
 27 15  1  0
 24 18  1  0
  1 33  1  0
  1 34  1  0
  1 35  1  0
  2 36  1  6
  3 37  1  0
  3 38  1  0
  4 39  1  0
  4 40  1  0
  5 41  1  1
  8 42  1  0
  8 43  1  0
  8 44  1  0
  9 45  1  0
  9 46  1  0
  9 47  1  0
 10 48  1  1
 11 49  1  0
 11 50  1  0
 12 51  1  0
 12 52  1  0
 14 53  1  0
 14 54  1  0
 14 55  1  0
 15 56  1  6
 16 57  1  0
 16 58  1  0
 17 59  1  0
 19 60  1  1
 20 61  1  0
 20 62  1  0
 21 63  1  0
 21 64  1  0
 22 65  1  1
 23 66  1  0
 25 67  1  0
 25 68  1  0
 25 69  1  0
 26 70  1  0
 26 71  1  0
 26 72  1  0
 28 73  1  0
 28 74  1  0
 28 75  1  0
 29 76  1  0
 29 77  1  0
 30 78  1  0
 30 79  1  0
 32 80  1  0
 32 81  1  0
 32 82  1  0
M  END
>  <meeko>  (4) 
{"is_sidechain": [false], "intermolecular_energy": 2.731, "internal_energy": -0.839}

$$$$
EPH_relaxed_0001_pdb2pqr_Repair_100_r2_0001_out
     RDKit          3D

 82 86  0  0  0  0  0  0  0  0999 V2000
   -5.0980    6.1940   -2.0450 C   0  0  0  0  0  0  0  0  0  0  0  0
   -5.4750    7.6780   -2.0850 C   0  0  2  0  0  0  0  0  0  0  0  0
   -5.2240    8.3770   -0.7340 C   0  0  0  0  0  0  0  0  0  0  0  0
   -4.1600    9.4760   -0.7980 C   0  0  0  0  0  0  0  0  0  0  0  0
   -2.8030    8.9570   -0.4290 C   0  0  2  0  0  0  0  0  0  0  0  0
   -2.1410    9.6940    0.6060 O   0  0  0  0  0  0  0  0  0  0  0  0
   -1.5170    9.7190   -0.6880 C   0  0  0  0  0  0  0  0  0  0  0  0
   -1.5250   11.0650   -1.3420 C   0  0  0  0  0  0  0  0  0  0  0  0
   -0.2320    8.9530   -0.7530 C   0  0  0  0  0  0  0  0  0  0  0  0
   -6.9370    7.8320   -2.4870 C   0  0  1  0  0  0  0  0  0  0  0  0
   -7.2640    7.1250   -3.8300 C   0  0  0  0  0  0  0  0  0  0  0  0
   -8.7090    6.5770   -3.7060 C   0  0  0  0  0  0  0  0  0  0  0  0
   -9.2800    7.2640   -2.4430 C   0  0  1  0  0  0  0  0  0  0  0  0
   -9.7240    8.6810   -2.9240 C   0  0  0  0  0  0  0  0  0  0  0  0
  -10.4400    6.5130   -1.7120 C   0  0  2  0  0  0  0  0  0  0  0  0
  -11.7220    6.3260   -2.5420 C   0  0  0  0  0  0  0  0  0  0  0  0
  -12.7280    7.4210   -2.4160 C   0  0  0  0  0  0  0  0  0  0  0  0
  -12.7410    8.3660   -1.4580 C   0  0  0  0  0  0  0  0  0  0  0  0
  -11.7250    8.3350   -0.3090 C   0  0  1  0  0  0  0  0  0  0  0  0
  -12.4580    8.5710    1.0380 C   0  0  0  0  0  0  0  0  0  0  0  0
  -13.2950    9.8470    1.0320 C   0  0  0  0  0  0  0  0  0  0  0  0
  -14.3320    9.8140   -0.0880 C   0  0  2  0  0  0  0  0  0  0  0  0
  -15.2870    8.7880    0.1990 O   0  0  0  0  0  0  0  0  0  0  0  0
  -13.7100    9.5730   -1.4920 C   0  0  0  0  0  0  0  0  0  0  0  0
  -12.9120   10.8250   -1.9300 C   0  0  0  0  0  0  0  0  0  0  0  0
  -14.8730    9.4210   -2.5090 C   0  0  0  0  0  0  0  0  0  0  0  0
  -10.7640    7.0700   -0.2670 C   0  0  1  0  0  0  0  0  0  0  0  0
  -11.4480    5.9080    0.5160 C   0  0  0  0  0  0  0  0  0  0  0  0
   -9.4610    7.4400    0.5370 C   0  0  0  0  0  0  0  0  0  0  0  0
   -8.3060    8.0700   -0.2640 C   0  0  0  0  0  0  0  0  0  0  0  0
   -8.0040    7.2540   -1.5240 C   0  0  2  0  0  0  0  0  0  0  0  0
   -7.5330    5.8300   -1.0720 C   0  0  0  0  0  0  0  0  0  0  0  0
   -5.0144    5.8650   -0.9987 H   0  0  0  0  0  0  0  0  0  0  0  0
   -5.8749    5.6045   -2.5538 H   0  0  0  0  0  0  0  0  0  0  0  0
   -4.1339    6.0468   -2.5538 H   0  0  0  0  0  0  0  0  0  0  0  0
   -4.8306    8.1633   -2.8328 H   0  0  0  0  0  0  0  0  0  0  0  0
   -6.1686    8.8275   -0.3953 H   0  0  0  0  0  0  0  0  0  0  0  0
   -4.8521    7.6096   -0.0392 H   0  0  0  0  0  0  0  0  0  0  0  0
   -4.1222    9.8762   -1.8219 H   0  0  0  0  0  0  0  0  0  0  0  0
   -4.4342   10.2607   -0.0776 H   0  0  0  0  0  0  0  0  0  0  0  0
   -3.1090    7.9260   -0.6601 H   0  0  0  0  0  0  0  0  0  0  0  0
   -1.5297   11.8480   -0.5694 H   0  0  0  0  0  0  0  0  0  0  0  0
   -0.6275   11.1735   -1.9686 H   0  0  0  0  0  0  0  0  0  0  0  0
   -2.4237   11.1628   -1.9686 H   0  0  0  0  0  0  0  0  0  0  0  0
    0.1213    8.7424    0.2672 H   0  0  0  0  0  0  0  0  0  0  0  0
   -0.3966    8.0055   -1.2870 H   0  0  0  0  0  0  0  0  0  0  0  0
    0.5232    9.5484   -1.2870 H   0  0  0  0  0  0  0  0  0  0  0  0
   -7.0077    8.9295   -2.5110 H   0  0  0  0  0  0  0  0  0  0  0  0
   -7.2010    7.8427   -4.6612 H   0  0  0  0  0  0  0  0  0  0  0  0
   -6.5497    6.3136   -4.0337 H   0  0  0  0  0  0  0  0  0  0  0  0
   -9.3022    6.8417   -4.5937 H   0  0  0  0  0  0  0  0  0  0  0  0
   -8.7340    5.4798   -3.6314 H   0  0  0  0  0  0  0  0  0  0  0  0
   -9.9239    9.3188   -2.0504 H   0  0  0  0  0  0  0  0  0  0  0  0
   -8.9235    9.1299   -3.5303 H   0  0  0  0  0  0  0  0  0  0  0  0
  -10.6376    8.5928   -3.5303 H   0  0  0  0  0  0  0  0  0  0  0  0
  -10.0203    5.5049   -1.5791 H   0  0  0  0  0  0  0  0  0  0  0  0
  -11.4334    6.2497   -3.6007 H   0  0  0  0  0  0  0  0  0  0  0  0
  -12.2080    5.4197   -2.1515 H   0  0  0  0  0  0  0  0  0  0  0  0
  -13.5273    7.4589   -3.1708 H   0  0  0  0  0  0  0  0  0  0  0  0
  -11.0237    9.1603   -0.5017 H   0  0  0  0  0  0  0  0  0  0  0  0
  -13.1209    7.7152    1.2336 H   0  0  0  0  0  0  0  0  0  0  0  0
  -11.6927    8.6769    1.8210 H   0  0  0  0  0  0  0  0  0  0  0  0
  -13.8117    9.9431    1.9983 H   0  0  0  0  0  0  0  0  0  0  0  0
  -12.6265   10.7047    0.8663 H   0  0  0  0  0  0  0  0  0  0  0  0
  -14.8112   10.8035   -0.1240 H   0  0  0  0  0  0  0  0  0  0  0  0
  -15.4510    8.7970    1.1570 H   0  0  0  0  0  0  0  0  0  0  0  0
  -12.5653   11.3690   -1.0390 H   0  0  0  0  0  0  0  0  0  0  0  0
  -12.0445   10.5151   -2.5311 H   0  0  0  0  0  0  0  0  0  0  0  0
  -13.5592   11.4806   -2.5311 H   0  0  0  0  0  0  0  0  0  0  0  0
  -15.8214    9.2971   -1.9657 H   0  0  0  0  0  0  0  0  0  0  0  0
  -14.9272   10.3197   -3.1410 H   0  0  0  0  0  0  0  0  0  0  0  0
  -14.6945    8.5386   -3.1410 H   0  0  0  0  0  0  0  0  0  0  0  0
  -11.3447    6.0836    1.5970 H   0  0  0  0  0  0  0  0  0  0  0  0
  -12.5149    5.8659    0.2517 H   0  0  0  0  0  0  0  0  0  0  0  0
  -10.9669    4.9547    0.2517 H   0  0  0  0  0  0  0  0  0  0  0  0
   -9.7471    8.1525    1.3247 H   0  0  0  0  0  0  0  0  0  0  0  0
   -9.0671    6.4807    0.9039 H   0  0  0  0  0  0  0  0  0  0  0  0
   -8.5866    9.0927   -0.5562 H   0  0  0  0  0  0  0  0  0  0  0  0
   -7.4065    8.0836    0.3691 H   0  0  0  0  0  0  0  0  0  0  0  0
   -7.5167    5.7808    0.0268 H   0  0  0  0  0  0  0  0  0  0  0  0
   -8.2285    5.0726   -1.4627 H   0  0  0  0  0  0  0  0  0  0  0  0
   -6.5231    5.6367   -1.4627 H   0  0  0  0  0  0  0  0  0  0  0  0
  1  2  1  0
  2  3  1  0
  3  4  1  0
  4  5  1  0
  5  6  1  0
  6  7  1  0
  7  8  1  0
  7  9  1  0
  2 10  1  0
 10 11  1  0
 11 12  1  0
 12 13  1  0
 13 14  1  6
 13 15  1  0
 15 16  1  0
 16 17  1  0
 17 18  2  0
 18 19  1  0
 19 20  1  0
 20 21  1  0
 21 22  1  0
 22 23  1  0
 22 24  1  0
 24 25  1  0
 24 26  1  0
 19 27  1  0
 27 28  1  1
 27 29  1  0
 29 30  1  0
 30 31  1  0
 31 32  1  1
  7  5  1  0
 31 10  1  0
 31 13  1  0
 27 15  1  0
 24 18  1  0
  1 33  1  0
  1 34  1  0
  1 35  1  0
  2 36  1  6
  3 37  1  0
  3 38  1  0
  4 39  1  0
  4 40  1  0
  5 41  1  1
  8 42  1  0
  8 43  1  0
  8 44  1  0
  9 45  1  0
  9 46  1  0
  9 47  1  0
 10 48  1  6
 11 49  1  0
 11 50  1  0
 12 51  1  0
 12 52  1  0
 14 53  1  0
 14 54  1  0
 14 55  1  0
 15 56  1  1
 16 57  1  0
 16 58  1  0
 17 59  1  0
 19 60  1  6
 20 61  1  0
 20 62  1  0
 21 63  1  0
 21 64  1  0
 22 65  1  6
 23 66  1  0
 25 67  1  0
 25 68  1  0
 25 69  1  0
 26 70  1  0
 26 71  1  0
 26 72  1  0
 28 73  1  0
 28 74  1  0
 28 75  1  0
 29 76  1  0
 29 77  1  0
 30 78  1  0
 30 79  1  0
 32 80  1  0
 32 81  1  0
 32 82  1  0
M  END
>  <meeko>  (5) 
{"is_sidechain": [false], "intermolecular_energy": 2.731, "internal_energy": -0.839}

$$$$
EPH_relaxed_0001_pdb2pqr_Repair_100_r2_0001_out
     RDKit          3D

 82 86  0  0  0  0  0  0  0  0999 V2000
    3.7500   17.5310    0.4330 C   0  0  0  0  0  0  0  0  0  0  0  0
    2.7330   17.7970   -0.6810 C   0  0  2  0  0  0  0  0  0  0  0  0
    2.0910   19.1940   -0.5590 C   0  0  0  0  0  0  0  0  0  0  0  0
    1.2670   19.3830    0.7180 C   0  0  0  0  0  0  0  0  0  0  0  0
   -0.0340   20.0730    0.4410 C   0  0  2  0  0  0  0  0  0  0  0  0
   -0.9040   20.1890    1.5750 O   0  0  0  0  0  0  0  0  0  0  0  0
   -1.3800   19.3730    0.4920 C   0  0  0  0  0  0  0  0  0  0  0  0
   -1.4910   17.9190    0.8280 C   0  0  0  0  0  0  0  0  0  0  0  0
   -2.5280   19.9750   -0.2560 C   0  0  0  0  0  0  0  0  0  0  0  0
    1.6510   16.7230   -0.6640 C   0  0  1  0  0  0  0  0  0  0  0  0
    0.2890   17.2390   -1.1990 C   0  0  0  0  0  0  0  0  0  0  0  0
   -0.3760   16.0550   -1.9470 C   0  0  0  0  0  0  0  0  0  0  0  0
    0.4590   14.8180   -1.5390 C   0  0  1  0  0  0  0  0  0  0  0  0
   -0.0920   14.4070   -0.1380 C   0  0  0  0  0  0  0  0  0  0  0  0
    0.4480   13.6170   -2.5390 C   0  0  2  0  0  0  0  0  0  0  0  0
   -0.9290   12.9710   -2.7690 C   0  0  0  0  0  0  0  0  0  0  0  0
   -1.2670   11.8450   -1.8490 C   0  0  0  0  0  0  0  0  0  0  0  0
   -0.3920   11.1830   -1.0690 C   0  0  0  0  0  0  0  0  0  0  0  0
    1.1100   11.4880   -1.1360 C   0  0  1  0  0  0  0  0  0  0  0  0
    1.9050   10.1580   -1.2040 C   0  0  0  0  0  0  0  0  0  0  0  0
    1.5530    9.2060   -0.0650 C   0  0  0  0  0  0  0  0  0  0  0  0
    0.0610    8.8810   -0.0670 C   0  0  2  0  0  0  0  0  0  0  0  0
   -0.2440    8.1240   -1.2430 O   0  0  0  0  0  0  0  0  0  0  0  0
   -0.8410   10.1450   -0.0110 C   0  0  0  0  0  0  0  0  0  0  0  0
   -0.7330   10.8000    1.3890 C   0  0  0  0  0  0  0  0  0  0  0  0
   -2.3160    9.6860   -0.1620 C   0  0  0  0  0  0  0  0  0  0  0  0
    1.5580   12.5250   -2.2530 C   0  0  1  0  0  0  0  0  0  0  0  0
    1.8080   11.7810   -3.6000 C   0  0  0  0  0  0  0  0  0  0  0  0
    2.9350   13.1660   -1.8370 C   0  0  0  0  0  0  0  0  0  0  0  0
    2.8760   14.4220   -0.9460 C   0  0  0  0  0  0  0  0  0  0  0  0
    1.8970   15.4530   -1.5160 C   0  0  2  0  0  0  0  0  0  0  0  0
    2.4380   15.9020   -2.9170 C   0  0  0  0  0  0  0  0  0  0  0  0
    3.2637   17.6582    1.4114 H   0  0  0  0  0  0  0  0  0  0  0  0
    4.1311   16.5030    0.3438 H   0  0  0  0  0  0  0  0  0  0  0  0
    4.5856   18.2408    0.3438 H   0  0  0  0  0  0  0  0  0  0  0  0
    3.2739   17.7646   -1.6383 H   0  0  0  0  0  0  0  0  0  0  0  0
    2.8929   19.9469   -0.5696 H   0  0  0  0  0  0  0  0  0  0  0  0
    1.3997   19.3055   -1.4073 H   0  0  0  0  0  0  0  0  0  0  0  0
    1.0606   18.3964    1.1584 H   0  0  0  0  0  0  0  0  0  0  0  0
    1.8472   20.0103    1.4108 H   0  0  0  0  0  0  0  0  0  0  0  0
    0.4387   20.7087   -0.3222 H   0  0  0  0  0  0  0  0  0  0  0  0
   -1.5005   17.7949    1.9209 H   0  0  0  0  0  0  0  0  0  0  0  0
   -2.4226   17.5150    0.4050 H   0  0  0  0  0  0  0  0  0  0  0  0
   -0.6315   17.3783    0.4050 H   0  0  0  0  0  0  0  0  0  0  0  0
   -3.2683   20.3632    0.4590 H   0  0  0  0  0  0  0  0  0  0  0  0
   -2.1626   20.7975   -0.8884 H   0  0  0  0  0  0  0  0  0  0  0  0
   -2.9968   19.2067   -0.8884 H   0  0  0  0  0  0  0  0  0  0  0  0
    1.6620   16.4667    0.4057 H   0  0  0  0  0  0  0  0  0  0  0  0
   -0.3476   17.5642   -0.3630 H   0  0  0  0  0  0  0  0  0  0  0  0
    0.4287   18.1004   -1.8687 H   0  0  0  0  0  0  0  0  0  0  0  0
   -1.4238   15.9369   -1.6336 H   0  0  0  0  0  0  0  0  0  0  0  0
   -0.3930   16.2063   -3.0364 H   0  0  0  0  0  0  0  0  0  0  0  0
    0.5248   14.8671    0.6480 H   0  0  0  0  0  0  0  0  0  0  0  0
   -1.1316   14.7520   -0.0372 H   0  0  0  0  0  0  0  0  0  0  0  0
   -0.0576   13.3122   -0.0372 H   0  0  0  0  0  0  0  0  0  0  0  0
    0.7132   14.1009   -3.4906 H   0  0  0  0  0  0  0  0  0  0  0  0
   -1.6950   13.7510   -2.6472 H   0  0  0  0  0  0  0  0  0  0  0  0
   -0.8972   12.5387   -3.7800 H   0  0  0  0  0  0  0  0  0  0  0  0
   -2.3199   11.5296   -1.8047 H   0  0  0  0  0  0  0  0  0  0  0  0
    1.3540   12.0218   -0.2057 H   0  0  0  0  0  0  0  0  0  0  0  0
    1.6809    9.6620   -2.1599 H   0  0  0  0  0  0  0  0  0  0  0  0
    2.9736   10.4034   -1.1153 H   0  0  0  0  0  0  0  0  0  0  0  0
    2.1247    8.2739   -0.1851 H   0  0  0  0  0  0  0  0  0  0  0  0
    1.8053    9.6916    0.8892 H   0  0  0  0  0  0  0  0  0  0  0  0
   -0.1523    8.3029    0.8442 H   0  0  0  0  0  0  0  0  0  0  0  0
   -0.8480    8.6570   -1.7870 H   0  0  0  0  0  0  0  0  0  0  0  0
   -0.8599   10.0304    2.1646 H   0  0  0  0  0  0  0  0  0  0  0  0
    0.2550   11.2712    1.4981 H   0  0  0  0  0  0  0  0  0  0  0  0
   -1.5174   11.5634    1.4981 H   0  0  0  0  0  0  0  0  0  0  0  0
   -2.7608    9.5476    0.8345 H   0  0  0  0  0  0  0  0  0  0  0  0
   -2.8831   10.4501   -0.7138 H   0  0  0  0  0  0  0  0  0  0  0  0
   -2.3494    8.7350   -0.7138 H   0  0  0  0  0  0  0  0  0  0  0  0
    2.1522   10.7566   -3.3947 H   0  0  0  0  0  0  0  0  0  0  0  0
    0.8727   11.7446   -4.1779 H   0  0  0  0  0  0  0  0  0  0  0  0
    2.5755   12.3168   -4.1779 H   0  0  0  0  0  0  0  0  0  0  0  0
    3.5083   12.3998   -1.2945 H   0  0  0  0  0  0  0  0  0  0  0  0
    3.3920   13.5028   -2.7792 H   0  0  0  0  0  0  0  0  0  0  0  0
    2.5467   14.1324    0.0628 H   0  0  0  0  0  0  0  0  0  0  0  0
    3.8785   14.8732   -0.9090 H   0  0  0  0  0  0  0  0  0  0  0  0
    3.2778   16.5990   -2.7796 H   0  0  0  0  0  0  0  0  0  0  0  0
    2.7815   15.0199   -3.4773 H   0  0  0  0  0  0  0  0  0  0  0  0
    1.6343   16.4022   -3.4773 H   0  0  0  0  0  0  0  0  0  0  0  0
  1  2  1  0
  2  3  1  0
  3  4  1  0
  4  5  1  0
  5  6  1  0
  6  7  1  0
  7  8  1  0
  7  9  1  0
  2 10  1  0
 10 11  1  0
 11 12  1  0
 12 13  1  0
 13 14  1  1
 13 15  1  0
 15 16  1  0
 16 17  1  0
 17 18  2  0
 18 19  1  0
 19 20  1  0
 20 21  1  0
 21 22  1  0
 22 23  1  0
 22 24  1  0
 24 25  1  0
 24 26  1  0
 19 27  1  0
 27 28  1  6
 27 29  1  0
 29 30  1  0
 30 31  1  0
 31 32  1  6
  7  5  1  0
 31 10  1  0
 31 13  1  0
 27 15  1  0
 24 18  1  0
  1 33  1  0
  1 34  1  0
  1 35  1  0
  2 36  1  6
  3 37  1  0
  3 38  1  0
  4 39  1  0
  4 40  1  0
  5 41  1  6
  8 42  1  0
  8 43  1  0
  8 44  1  0
  9 45  1  0
  9 46  1  0
  9 47  1  0
 10 48  1  1
 11 49  1  0
 11 50  1  0
 12 51  1  0
 12 52  1  0
 14 53  1  0
 14 54  1  0
 14 55  1  0
 15 56  1  6
 16 57  1  0
 16 58  1  0
 17 59  1  0
 19 60  1  1
 20 61  1  0
 20 62  1  0
 21 63  1  0
 21 64  1  0
 22 65  1  1
 23 66  1  0
 25 67  1  0
 25 68  1  0
 25 69  1  0
 26 70  1  0
 26 71  1  0
 26 72  1  0
 28 73  1  0
 28 74  1  0
 28 75  1  0
 29 76  1  0
 29 77  1  0
 30 78  1  0
 30 79  1  0
 32 80  1  0
 32 81  1  0
 32 82  1  0
M  END
>  <meeko>  (6) 
{"is_sidechain": [false], "intermolecular_energy": 2.731, "internal_energy": -0.839}

$$$$
EPH_relaxed_0001_pdb2pqr_Repair_100_r2_0001_out
     RDKit          3D

 82 86  0  0  0  0  0  0  0  0999 V2000
    0.4700    8.8830   -2.3470 C   0  0  0  0  0  0  0  0  0  0  0  0
    1.2110   10.0110   -3.0710 C   0  0  2  0  0  0  0  0  0  0  0  0
    2.7100   10.0450   -2.7140 C   0  0  0  0  0  0  0  0  0  0  0  0
    3.5840   10.6980   -3.7880 C   0  0  0  0  0  0  0  0  0  0  0  0
    4.9940   10.8860   -3.3160 C   0  0  2  0  0  0  0  0  0  0  0  0
    5.6420   12.0630   -3.8180 O   0  0  0  0  0  0  0  0  0  0  0  0
    6.2010   10.8060   -4.2330 C   0  0  0  0  0  0  0  0  0  0  0  0
    6.0520   10.5270   -5.6960 C   0  0  0  0  0  0  0  0  0  0  0  0
    7.5390   10.5130   -3.6300 C   0  0  0  0  0  0  0  0  0  0  0  0
    0.5660   11.3520   -2.7400 C   0  0  1  0  0  0  0  0  0  0  0  0
   -0.8500   11.1980   -2.1230 C   0  0  0  0  0  0  0  0  0  0  0  0
   -1.0120   12.3390   -1.0860 C   0  0  0  0  0  0  0  0  0  0  0  0
    0.1660   13.2990   -1.3740 C   0  0  1  0  0  0  0  0  0  0  0  0
   -0.3070   14.1620   -2.5850 C   0  0  0  0  0  0  0  0  0  0  0  0
    0.6390   14.1900   -0.1800 C   0  0  2  0  0  0  0  0  0  0  0  0
   -0.4130   15.1780    0.3540 C   0  0  0  0  0  0  0  0  0  0  0  0
   -0.4060   16.5250   -0.2880 C   0  0  0  0  0  0  0  0  0  0  0  0
    0.5860   17.0240   -1.0490 C   0  0  0  0  0  0  0  0  0  0  0  0
    1.8920   16.2450   -1.2500 C   0  0  1  0  0  0  0  0  0  0  0  0
    3.0990   17.2000   -1.0520 C   0  0  0  0  0  0  0  0  0  0  0  0
    3.0170   18.4390   -1.9380 C   0  0  0  0  0  0  0  0  0  0  0  0
    1.7320   19.2180   -1.6670 C   0  0  2  0  0  0  0  0  0  0  0  0
    1.7890   19.7560   -0.3430 O   0  0  0  0  0  0  0  0  0  0  0  0
    0.4480   18.3560   -1.8270 C   0  0  0  0  0  0  0  0  0  0  0  0
    0.2270   18.0250   -3.3230 C   0  0  0  0  0  0  0  0  0  0  0  0
   -0.7650   19.2210   -1.3900 C   0  0  0  0  0  0  0  0  0  0  0  0
    2.0340   14.9010   -0.4150 C   0  0  1  0  0  0  0  0  0  0  0  0
    2.6180   15.2110    0.9970 C   0  0  0  0  0  0  0  0  0  0  0  0
    3.0730   13.9590   -1.1290 C   0  0  0  0  0  0  0  0  0  0  0  0
    2.5240   13.0160   -2.2170 C   0  0  0  0  0  0  0  0  0  0  0  0
    1.2930   12.2560   -1.7130 C   0  0  2  0  0  0  0  0  0  0  0  0
    1.7430   11.3620   -0.5080 C   0  0  0  0  0  0  0  0  0  0  0  0
    0.5618    9.0227   -1.2598 H   0  0  0  0  0  0  0  0  0  0  0  0
   -0.5927    8.9012   -2.6306 H   0  0  0  0  0  0  0  0  0  0  0  0
    0.9087    7.9149   -2.6306 H   0  0  0  0  0  0  0  0  0  0  0  0
    1.1341    9.8173   -4.1511 H   0  0  0  0  0  0  0  0  0  0  0  0
    2.8312   10.6091   -1.7775 H   0  0  0  0  0  0  0  0  0  0  0  0
    3.0419    9.0004   -2.6209 H   0  0  0  0  0  0  0  0  0  0  0  0
    3.5897   10.0566   -4.6816 H   0  0  0  0  0  0  0  0  0  0  0  0
    3.1638   11.6885   -4.0166 H   0  0  0  0  0  0  0  0  0  0  0  0
    4.7625   10.4003   -2.3566 H   0  0  0  0  0  0  0  0  0  0  0  0
    5.5380    9.5645   -5.8352 H   0  0  0  0  0  0  0  0  0  0  0  0
    5.4620   11.3288   -6.1640 H   0  0  0  0  0  0  0  0  0  0  0  0
    7.0465   10.4826   -6.1640 H   0  0  0  0  0  0  0  0  0  0  0  0
    7.4586   10.5306   -2.5331 H   0  0  0  0  0  0  0  0  0  0  0  0
    7.8788    9.5192   -3.9569 H   0  0  0  0  0  0  0  0  0  0  0  0
    8.2630   11.2739   -3.9569 H   0  0  0  0  0  0  0  0  0  0  0  0
    0.5895   11.8189   -3.7357 H   0  0  0  0  0  0  0  0  0  0  0  0
   -1.6166   11.2868   -2.9069 H   0  0  0  0  0  0  0  0  0  0  0  0
   -0.9692   10.2128   -1.6484 H   0  0  0  0  0  0  0  0  0  0  0  0
   -1.9745   12.8537   -1.2223 H   0  0  0  0  0  0  0  0  0  0  0  0
   -1.0026   11.9662   -0.0511 H   0  0  0  0  0  0  0  0  0  0  0  0
   -0.8050   15.0706   -2.2155 H   0  0  0  0  0  0  0  0  0  0  0  0
    0.5629   14.4436   -3.1966 H   0  0  0  0  0  0  0  0  0  0  0  0
   -1.0123   13.5802   -3.1966 H   0  0  0  0  0  0  0  0  0  0  0  0
    0.7881   13.4513    0.6213 H   0  0  0  0  0  0  0  0  0  0  0  0
   -1.4069   14.7328    0.1992 H   0  0  0  0  0  0  0  0  0  0  0  0
   -0.1648   15.3441    1.4127 H   0  0  0  0  0  0  0  0  0  0  0  0
   -1.2862   17.1645   -0.1256 H   0  0  0  0  0  0  0  0  0  0  0  0
    1.8711   15.8784   -2.2869 H   0  0  0  0  0  0  0  0  0  0  0  0
    3.1263   17.5202    0.0000 H   0  0  0  0  0  0  0  0  0  0  0  0
    4.0093   16.6495   -1.3318 H   0  0  0  0  0  0  0  0  0  0  0  0
    3.8815   19.0872   -1.7318 H   0  0  0  0  0  0  0  0  0  0  0  0
    3.0191   18.1194   -2.9905 H   0  0  0  0  0  0  0  0  0  0  0  0
    1.6673   20.0192   -2.4180 H   0  0  0  0  0  0  0  0  0  0  0  0
    1.9510   19.0170    0.2680 H   0  0  0  0  0  0  0  0  0  0  0  0
   -0.3819   17.1131   -3.4107 H   0  0  0  0  0  0  0  0  0  0  0  0
   -0.2940   18.8621   -3.8107 H   0  0  0  0  0  0  0  0  0  0  0  0
    1.1999   17.8646   -3.8107 H   0  0  0  0  0  0  0  0  0  0  0  0
   -0.8138   19.2558   -0.2916 H   0  0  0  0  0  0  0  0  0  0  0  0
   -0.6488   20.2413   -1.7844 H   0  0  0  0  0  0  0  0  0  0  0  0
   -1.6918   18.7788   -1.7844 H   0  0  0  0  0  0  0  0  0  0  0  0
    1.9258   14.8435    1.7689 H   0  0  0  0  0  0  0  0  0  0  0  0
    3.5912   14.7108    1.1092 H   0  0  0  0  0  0  0  0  0  0  0  0
    2.7490   16.2974    1.1092 H   0  0  0  0  0  0  0  0  0  0  0  0
    3.8353   14.5990   -1.5973 H   0  0  0  0  0  0  0  0  0  0  0  0
    3.4507   13.2953   -0.3373 H   0  0  0  0  0  0  0  0  0  0  0  0
    2.2441   13.6094   -3.0999 H   0  0  0  0  0  0  0  0  0  0  0  0
    3.3053   12.2863   -2.4758 H   0  0  0  0  0  0  0  0  0  0  0  0
    1.4896   11.8653    0.4367 H   0  0  0  0  0  0  0  0  0  0  0  0
    1.2254   10.3926   -0.5573 H   0  0  0  0  0  0  0  0  0  0  0  0
    2.8299   11.2002   -0.5573 H   0  0  0  0  0  0  0  0  0  0  0  0
  1  2  1  0
  2  3  1  0
  3  4  1  0
  4  5  1  0
  5  6  1  0
  6  7  1  0
  7  8  1  0
  7  9  1  0
  2 10  1  0
 10 11  1  0
 11 12  1  0
 12 13  1  0
 13 14  1  6
 13 15  1  0
 15 16  1  0
 16 17  1  0
 17 18  2  0
 18 19  1  0
 19 20  1  0
 20 21  1  0
 21 22  1  0
 22 23  1  0
 22 24  1  0
 24 25  1  0
 24 26  1  0
 19 27  1  0
 27 28  1  1
 27 29  1  0
 29 30  1  0
 30 31  1  0
 31 32  1  1
  7  5  1  0
 31 10  1  0
 31 13  1  0
 27 15  1  0
 24 18  1  0
  1 33  1  0
  1 34  1  0
  1 35  1  0
  2 36  1  6
  3 37  1  0
  3 38  1  0
  4 39  1  0
  4 40  1  0
  5 41  1  1
  8 42  1  0
  8 43  1  0
  8 44  1  0
  9 45  1  0
  9 46  1  0
  9 47  1  0
 10 48  1  6
 11 49  1  0
 11 50  1  0
 12 51  1  0
 12 52  1  0
 14 53  1  0
 14 54  1  0
 14 55  1  0
 15 56  1  1
 16 57  1  0
 16 58  1  0
 17 59  1  0
 19 60  1  6
 20 61  1  0
 20 62  1  0
 21 63  1  0
 21 64  1  0
 22 65  1  6
 23 66  1  0
 25 67  1  0
 25 68  1  0
 25 69  1  0
 26 70  1  0
 26 71  1  0
 26 72  1  0
 28 73  1  0
 28 74  1  0
 28 75  1  0
 29 76  1  0
 29 77  1  0
 30 78  1  0
 30 79  1  0
 32 80  1  0
 32 81  1  0
 32 82  1  0
M  END
>  <meeko>  (7) 
{"is_sidechain": [false], "intermolecular_energy": 2.731, "internal_energy": -0.839}

$$$$
EPH_relaxed_0001_pdb2pqr_Repair_100_r2_0001_out
     RDKit          3D

 82 86  0  0  0  0  0  0  0  0999 V2000
   -3.4780    6.8670   -3.4440 C   0  0  0  0  0  0  0  0  0  0  0  0
   -3.7910    7.1070   -1.9650 C   0  0  2  0  0  0  0  0  0  0  0  0
   -5.2970    6.9750   -1.6610 C   0  0  0  0  0  0  0  0  0  0  0  0
   -6.1200    6.4560   -2.8430 C   0  0  0  0  0  0  0  0  0  0  0  0
   -7.5810    6.3930   -2.5160 C   0  0  2  0  0  0  0  0  0  0  0  0
   -8.4490    6.3530   -3.6570 O   0  0  0  0  0  0  0  0  0  0  0  0
   -8.5550    7.5160   -2.8200 C   0  0  0  0  0  0  0  0  0  0  0  0
   -8.1050    8.7830   -3.4790 C   0  0  0  0  0  0  0  0  0  0  0  0
   -9.8330    7.5850   -2.0430 C   0  0  0  0  0  0  0  0  0  0  0  0
   -3.2940    8.4850   -1.5450 C   0  0  1  0  0  0  0  0  0  0  0  0
   -3.9970    9.0090   -0.2640 C   0  0  0  0  0  0  0  0  0  0  0  0
   -2.9390    9.8220    0.5260 C   0  0  0  0  0  0  0  0  0  0  0  0
   -1.7740   10.0190   -0.4720 C   0  0  1  0  0  0  0  0  0  0  0  0
   -2.2110   11.2200   -1.3680 C   0  0  0  0  0  0  0  0  0  0  0  0
   -0.3600   10.2510    0.1540 C   0  0  2  0  0  0  0  0  0  0  0  0
   -0.2250   11.5240    1.0080 C   0  0  0  0  0  0  0  0  0  0  0  0
    0.2110   12.7450    0.2690 C   0  0  0  0  0  0  0  0  0  0  0  0
    0.7560   12.7620   -0.9610 C   0  0  0  0  0  0  0  0  0  0  0  0
    1.0750   11.4550   -1.6990 C   0  0  1  0  0  0  0  0  0  0  0  0
    2.5020   11.5350   -2.3020 C   0  0  0  0  0  0  0  0  0  0  0  0
    2.6960   12.7650   -3.1840 C   0  0  0  0  0  0  0  0  0  0  0  0
    2.4270   14.0460   -2.3990 C   0  0  2  0  0  0  0  0  0  0  0  0
    3.4350   14.1920   -1.3940 O   0  0  0  0  0  0  0  0  0  0  0  0
    1.0210   14.0760   -1.7370 C   0  0  0  0  0  0  0  0  0  0  0  0
   -0.0660   14.2220   -2.8300 C   0  0  0  0  0  0  0  0  0  0  0  0
    0.9320   15.3550   -0.8620 C   0  0  0  0  0  0  0  0  0  0  0  0
    0.8350   10.1170   -0.8750 C   0  0  1  0  0  0  0  0  0  0  0  0
    2.1050    9.7720   -0.0400 C   0  0  0  0  0  0  0  0  0  0  0  0
    0.6270    8.9240   -1.8810 C   0  0  0  0  0  0  0  0  0  0  0  0
   -0.8120    8.6710   -2.3710 C   0  0  0  0  0  0  0  0  0  0  0  0
   -1.7910    8.6230   -1.1940 C   0  0  2  0  0  0  0  0  0  0  0  0
   -1.3890    7.4100   -0.2860 C   0  0  0  0  0  0  0  0  0  0  0  0
   -2.6078    6.1998   -3.5310 H   0  0  0  0  0  0  0  0  0  0  0  0
   -4.3471    6.4016   -3.9319 H   0  0  0  0  0  0  0  0  0  0  0  0
   -3.2541    7.8271   -3.9319 H   0  0  0  0  0  0  0  0  0  0  0  0
   -3.2682    6.3311   -1.3865 H   0  0  0  0  0  0  0  0  0  0  0  0
   -5.4216    6.2786   -0.8186 H   0  0  0  0  0  0  0  0  0  0  0  0
   -5.6680    7.9843   -1.4294 H   0  0  0  0  0  0  0  0  0  0  0  0
   -5.9754    7.1291   -3.7009 H   0  0  0  0  0  0  0  0  0  0  0  0
   -5.7772    5.4377   -3.0787 H   0  0  0  0  0  0  0  0  0  0  0  0
   -7.3753    5.8228   -1.5981 H   0  0  0  0  0  0  0  0  0  0  0  0
   -7.8420    9.5234   -2.7091 H   0  0  0  0  0  0  0  0  0  0  0  0
   -7.2248    8.5776   -4.1060 H   0  0  0  0  0  0  0  0  0  0  0  0
   -8.9175    9.1788   -4.1060 H   0  0  0  0  0  0  0  0  0  0  0  0
   -9.6086    7.5729   -0.9662 H   0  0  0  0  0  0  0  0  0  0  0  0
  -10.3663    8.5132   -2.2960 H   0  0  0  0  0  0  0  0  0  0  0  0
  -10.4631    6.7196   -2.2960 H   0  0  0  0  0  0  0  0  0  0  0  0
   -3.5196    9.0493   -2.4619 H   0  0  0  0  0  0  0  0  0  0  0  0
   -4.8458    9.6541   -0.5347 H   0  0  0  0  0  0  0  0  0  0  0  0
   -4.3880    8.1772    0.3403 H   0  0  0  0  0  0  0  0  0  0  0  0
   -3.3501   10.7929    0.8397 H   0  0  0  0  0  0  0  0  0  0  0  0
   -2.6191    9.3088    1.4448 H   0  0  0  0  0  0  0  0  0  0  0  0
   -2.5172   12.0616   -0.7293 H   0  0  0  0  0  0  0  0  0  0  0  0
   -1.3679   11.5295   -2.0031 H   0  0  0  0  0  0  0  0  0  0  0  0
   -3.0559   10.9153   -2.0031 H   0  0  0  0  0  0  0  0  0  0  0  0
   -0.2729    9.4089    0.8563 H   0  0  0  0  0  0  0  0  0  0  0  0
   -1.2045   11.7336    1.4625 H   0  0  0  0  0  0  0  0  0  0  0  0
    0.5664   11.3146    1.7428 H   0  0  0  0  0  0  0  0  0  0  0  0
    0.0753   13.7134    0.7727 H   0  0  0  0  0  0  0  0  0  0  0  0
    0.3328   11.3735   -2.5068 H   0  0  0  0  0  0  0  0  0  0  0  0
    3.2310   11.5725   -1.4791 H   0  0  0  0  0  0  0  0  0  0  0  0
    2.6487   10.6455   -2.9323 H   0  0  0  0  0  0  0  0  0  0  0  0
    3.7309   12.7815   -3.5565 H   0  0  0  0  0  0  0  0  0  0  0  0
    1.9865   12.7114   -4.0229 H   0  0  0  0  0  0  0  0  0  0  0  0
    2.4548   14.8817   -3.1137 H   0  0  0  0  0  0  0  0  0  0  0  0
    3.0310   13.9700   -0.5380 H   0  0  0  0  0  0  0  0  0  0  0  0
   -1.0490   14.3540   -2.3542 H   0  0  0  0  0  0  0  0  0  0  0  0
    0.1589   15.0980   -3.4561 H   0  0  0  0  0  0  0  0  0  0  0  0
   -0.0802   13.3177   -3.4561 H   0  0  0  0  0  0  0  0  0  0  0  0
    0.9516   15.0739    0.2013 H   0  0  0  0  0  0  0  0  0  0  0  0
    1.7867   16.0111   -1.0836 H   0  0  0  0  0  0  0  0  0  0  0  0
   -0.0053   15.8864   -1.0836 H   0  0  0  0  0  0  0  0  0  0  0  0
    1.8676    9.8365    1.0321 H   0  0  0  0  0  0  0  0  0  0  0  0
    2.4364    8.7513   -0.2814 H   0  0  0  0  0  0  0  0  0  0  0  0
    2.9073   10.4847   -0.2814 H   0  0  0  0  0  0  0  0  0  0  0  0
    1.2497    9.1224   -2.7658 H   0  0  0  0  0  0  0  0  0  0  0  0
    0.9019    8.0206   -1.3169 H   0  0  0  0  0  0  0  0  0  0  0  0
   -1.1080    9.4821   -3.0525 H   0  0  0  0  0  0  0  0  0  0  0  0
   -0.8404    7.7020   -2.8908 H   0  0  0  0  0  0  0  0  0  0  0  0
   -1.4839    7.6965    0.7718 H   0  0  0  0  0  0  0  0  0  0  0  0
   -2.0530    6.5586   -0.4963 H   0  0  0  0  0  0  0  0  0  0  0  0
   -0.3479    7.1237   -0.4963 H   0  0  0  0  0  0  0  0  0  0  0  0
  1  2  1  0
  2  3  1  0
  3  4  1  0
  4  5  1  0
  5  6  1  0
  6  7  1  0
  7  8  1  0
  7  9  1  0
  2 10  1  0
 10 11  1  0
 11 12  1  0
 12 13  1  0
 13 14  1  6
 13 15  1  0
 15 16  1  0
 16 17  1  0
 17 18  2  0
 18 19  1  0
 19 20  1  0
 20 21  1  0
 21 22  1  0
 22 23  1  0
 22 24  1  0
 24 25  1  0
 24 26  1  0
 19 27  1  0
 27 28  1  1
 27 29  1  0
 29 30  1  0
 30 31  1  0
 31 32  1  1
  7  5  1  0
 31 10  1  0
 31 13  1  0
 27 15  1  0
 24 18  1  0
  1 33  1  0
  1 34  1  0
  1 35  1  0
  2 36  1  1
  3 37  1  0
  3 38  1  0
  4 39  1  0
  4 40  1  0
  5 41  1  1
  8 42  1  0
  8 43  1  0
  8 44  1  0
  9 45  1  0
  9 46  1  0
  9 47  1  0
 10 48  1  6
 11 49  1  0
 11 50  1  0
 12 51  1  0
 12 52  1  0
 14 53  1  0
 14 54  1  0
 14 55  1  0
 15 56  1  1
 16 57  1  0
 16 58  1  0
 17 59  1  0
 19 60  1  6
 20 61  1  0
 20 62  1  0
 21 63  1  0
 21 64  1  0
 22 65  1  6
 23 66  1  0
 25 67  1  0
 25 68  1  0
 25 69  1  0
 26 70  1  0
 26 71  1  0
 26 72  1  0
 28 73  1  0
 28 74  1  0
 28 75  1  0
 29 76  1  0
 29 77  1  0
 30 78  1  0
 30 79  1  0
 32 80  1  0
 32 81  1  0
 32 82  1  0
M  END
>  <meeko>  (8) 
{"is_sidechain": [false], "intermolecular_energy": 2.731, "internal_energy": -0.839}

$$$$
EPH_relaxed_0001_pdb2pqr_Repair_100_r2_0001_out
     RDKit          3D

 82 86  0  0  0  0  0  0  0  0999 V2000
   -4.7360    7.0030   -3.2120 C   0  0  0  0  0  0  0  0  0  0  0  0
   -4.5600    7.1910   -1.7030 C   0  0  2  0  0  0  0  0  0  0  0  0
   -5.9020    7.1160   -0.9480 C   0  0  0  0  0  0  0  0  0  0  0  0
   -6.8760    6.0850   -1.5250 C   0  0  0  0  0  0  0  0  0  0  0  0
   -8.0990    6.7380   -2.0960 C   0  0  2  0  0  0  0  0  0  0  0  0
   -8.2390    8.1290   -1.7790 O   0  0  0  0  0  0  0  0  0  0  0  0
   -9.2460    7.2520   -1.2480 C   0  0  0  0  0  0  0  0  0  0  0  0
   -9.2270    7.1370    0.2440 C   0  0  0  0  0  0  0  0  0  0  0  0
  -10.5900    7.4210   -1.8870 C   0  0  0  0  0  0  0  0  0  0  0  0
   -3.8790    8.5250   -1.4210 C   0  0  1  0  0  0  0  0  0  0  0  0
   -4.4690    9.2480   -0.1810 C   0  0  0  0  0  0  0  0  0  0  0  0
   -3.2920    9.9840    0.5100 C   0  0  0  0  0  0  0  0  0  0  0  0
   -2.1420    9.9380   -0.5240 C   0  0  1  0  0  0  0  0  0  0  0  0
   -2.4510   11.1010   -1.5180 C   0  0  0  0  0  0  0  0  0  0  0  0
   -0.6920   10.0400    0.0510 C   0  0  2  0  0  0  0  0  0  0  0  0
   -0.3700   11.3550    0.7810 C   0  0  0  0  0  0  0  0  0  0  0  0
    0.1950   12.4390   -0.0750 C   0  0  0  0  0  0  0  0  0  0  0  0
    0.7000   12.2750   -1.3120 C   0  0  0  0  0  0  0  0  0  0  0  0
    0.8260   10.8770   -1.9330 C   0  0  1  0  0  0  0  0  0  0  0  0
    2.2320   10.7180   -2.5690 C   0  0  0  0  0  0  0  0  0  0  0  0
    2.5540   11.8290   -3.5630 C   0  0  0  0  0  0  0  0  0  0  0  0
    2.4750   13.1990   -2.8950 C   0  0  2  0  0  0  0  0  0  0  0  0
    3.5240   13.3010   -1.9270 O   0  0  0  0  0  0  0  0  0  0  0  0
    1.1060   13.4690   -2.2110 C   0  0  0  0  0  0  0  0  0  0  0  0
    0.0120   13.6580   -3.2910 C   0  0  0  0  0  0  0  0  0  0  0  0
    1.2080   14.8220   -1.4550 C   0  0  0  0  0  0  0  0  0  0  0  0
    0.4430    9.6610   -0.9850 C   0  0  1  0  0  0  0  0  0  0  0  0
    1.6850    9.2290   -0.1460 C   0  0  0  0  0  0  0  0  0  0  0  0
    0.0540    8.4200   -1.8720 C   0  0  0  0  0  0  0  0  0  0  0  0
   -1.4200    8.3130   -2.3090 C   0  0  0  0  0  0  0  0  0  0  0  0
   -2.3600    8.4970   -1.1140 C   0  0  2  0  0  0  0  0  0  0  0  0
   -2.0880    7.3290   -0.1060 C   0  0  0  0  0  0  0  0  0  0  0  0
   -5.4768    6.2117   -3.3990 H   0  0  0  0  0  0  0  0  0  0  0  0
   -5.0845    7.9449   -3.6607 H   0  0  0  0  0  0  0  0  0  0  0  0
   -3.7732    6.7173   -3.6607 H   0  0  0  0  0  0  0  0  0  0  0  0
   -3.9292    6.3667   -1.3388 H   0  0  0  0  0  0  0  0  0  0  0  0
   -5.6967    6.8514    0.0998 H   0  0  0  0  0  0  0  0  0  0  0  0
   -6.3814    8.1012   -1.0459 H   0  0  0  0  0  0  0  0  0  0  0  0
   -6.3681    5.5210   -2.3212 H   0  0  0  0  0  0  0  0  0  0  0  0
   -7.1920    5.4174   -0.7099 H   0  0  0  0  0  0  0  0  0  0  0  0
   -8.0699    6.0768   -2.9746 H   0  0  0  0  0  0  0  0  0  0  0  0
   -9.3909    8.1289    0.6903 H   0  0  0  0  0  0  0  0  0  0  0  0
  -10.0242    6.4524    0.5692 H   0  0  0  0  0  0  0  0  0  0  0  0
   -8.2519    6.7452    0.5692 H   0  0  0  0  0  0  0  0  0  0  0  0
  -11.3580    7.5176   -1.1055 H   0  0  0  0  0  0  0  0  0  0  0  0
  -10.5875    8.3259   -2.5124 H   0  0  0  0  0  0  0  0  0  0  0  0
  -10.8116    6.5436   -2.5124 H   0  0  0  0  0  0  0  0  0  0  0  0
   -4.0599    9.0304   -2.3811 H   0  0  0  0  0  0  0  0  0  0  0  0
   -5.2366    9.9712   -0.4938 H   0  0  0  0  0  0  0  0  0  0  0  0
   -4.9439    8.5313    0.5051 H   0  0  0  0  0  0  0  0  0  0  0  0
   -3.5659   11.0242    0.7401 H   0  0  0  0  0  0  0  0  0  0  0  0
   -3.0122    9.5177    1.4662 H   0  0  0  0  0  0  0  0  0  0  0  0
   -2.6932   12.0125   -0.9519 H   0  0  0  0  0  0  0  0  0  0  0  0
   -1.5708   11.2857   -2.1513 H   0  0  0  0  0  0  0  0  0  0  0  0
   -3.3068   10.8244   -2.1513 H   0  0  0  0  0  0  0  0  0  0  0  0
   -0.6904    9.2604    0.8271 H   0  0  0  0  0  0  0  0  0  0  0  0
   -1.3005   11.7292    1.2329 H   0  0  0  0  0  0  0  0  0  0  0  0
    0.4107   11.1108    1.5165 H   0  0  0  0  0  0  0  0  0  0  0  0
    0.1992   13.4578    0.3398 H   0  0  0  0  0  0  0  0  0  0  0  0
    0.0546   10.8202   -2.7152 H   0  0  0  0  0  0  0  0  0  0  0  0
    2.9852   10.7330   -1.7675 H   0  0  0  0  0  0  0  0  0  0  0  0
    2.2438    9.7651   -3.1184 H   0  0  0  0  0  0  0  0  0  0  0  0
    3.5706   11.6778   -3.9549 H   0  0  0  0  0  0  0  0  0  0  0  0
    1.8176   11.7937   -4.3794 H   0  0  0  0  0  0  0  0  0  0  0  0
    2.5867   13.9574   -3.6839 H   0  0  0  0  0  0  0  0  0  0  0  0
    3.1460   13.6960   -1.1230 H   0  0  0  0  0  0  0  0  0  0  0  0
   -0.9596   13.8259   -2.8033 H   0  0  0  0  0  0  0  0  0  0  0  0
    0.2622   14.5262   -3.9184 H   0  0  0  0  0  0  0  0  0  0  0  0
   -0.0436   12.7562   -3.9184 H   0  0  0  0  0  0  0  0  0  0  0  0
    1.1941   14.6380   -0.3706 H   0  0  0  0  0  0  0  0  0  0  0  0
    2.1467   15.3256   -1.7295 H   0  0  0  0  0  0  0  0  0  0  0  0
    0.3554   15.4606   -1.7295 H   0  0  0  0  0  0  0  0  0  0  0  0
    1.4501    9.3107    0.9255 H   0  0  0  0  0  0  0  0  0  0  0  0
    1.9453    8.1875   -0.3859 H   0  0  0  0  0  0  0  0  0  0  0  0
    2.5354    9.8841   -0.3859 H   0  0  0  0  0  0  0  0  0  0  0  0
    0.6694    8.4561   -2.7830 H   0  0  0  0  0  0  0  0  0  0  0  0
    0.2289    7.5426   -1.2320 H   0  0  0  0  0  0  0  0  0  0  0  0
   -1.6313    9.0919   -3.0565 H   0  0  0  0  0  0  0  0  0  0  0  0
   -1.5876    7.3136   -2.7369 H   0  0  0  0  0  0  0  0  0  0  0  0
   -2.1757    7.7055    0.9238 H   0  0  0  0  0  0  0  0  0  0  0  0
   -2.8234    6.5270   -0.2670 H   0  0  0  0  0  0  0  0  0  0  0  0
   -1.0739    6.9344   -0.2670 H   0  0  0  0  0  0  0  0  0  0  0  0
  1  2  1  0
  2  3  1  0
  3  4  1  0
  4  5  1  0
  5  6  1  0
  6  7  1  0
  7  8  1  0
  7  9  1  0
  2 10  1  0
 10 11  1  0
 11 12  1  0
 12 13  1  0
 13 14  1  6
 13 15  1  0
 15 16  1  0
 16 17  1  0
 17 18  2  0
 18 19  1  0
 19 20  1  0
 20 21  1  0
 21 22  1  0
 22 23  1  0
 22 24  1  0
 24 25  1  0
 24 26  1  0
 19 27  1  0
 27 28  1  1
 27 29  1  0
 29 30  1  0
 30 31  1  0
 31 32  1  1
  7  5  1  0
 31 10  1  0
 31 13  1  0
 27 15  1  0
 24 18  1  0
  1 33  1  0
  1 34  1  0
  1 35  1  0
  2 36  1  1
  3 37  1  0
  3 38  1  0
  4 39  1  0
  4 40  1  0
  5 41  1  6
  8 42  1  0
  8 43  1  0
  8 44  1  0
  9 45  1  0
  9 46  1  0
  9 47  1  0
 10 48  1  6
 11 49  1  0
 11 50  1  0
 12 51  1  0
 12 52  1  0
 14 53  1  0
 14 54  1  0
 14 55  1  0
 15 56  1  1
 16 57  1  0
 16 58  1  0
 17 59  1  0
 19 60  1  6
 20 61  1  0
 20 62  1  0
 21 63  1  0
 21 64  1  0
 22 65  1  6
 23 66  1  0
 25 67  1  0
 25 68  1  0
 25 69  1  0
 26 70  1  0
 26 71  1  0
 26 72  1  0
 28 73  1  0
 28 74  1  0
 28 75  1  0
 29 76  1  0
 29 77  1  0
 30 78  1  0
 30 79  1  0
 32 80  1  0
 32 81  1  0
 32 82  1  0
M  END
>  <meeko>  (9) 
{"is_sidechain": [false], "intermolecular_energy": 2.731, "internal_energy": -0.839}

$$$$
EPH_relaxed_0001_pdb2pqr_Repair_100_r2_0001_out
     RDKit          3D

 82 86  0  0  0  0  0  0  0  0999 V2000
    3.3260   18.5270   -2.7060 C   0  0  0  0  0  0  0  0  0  0  0  0
    2.0760   17.6510   -2.8350 C   0  0  2  0  0  0  0  0  0  0  0  0
    0.8130   18.3600   -2.3080 C   0  0  0  0  0  0  0  0  0  0  0  0
    1.0770   19.7680   -1.7670 C   0  0  0  0  0  0  0  0  0  0  0  0
    1.5980   19.7330   -0.3620 C   0  0  2  0  0  0  0  0  0  0  0  0
    1.2950   18.5310    0.3590 O   0  0  0  0  0  0  0  0  0  0  0  0
    0.7020   19.7390    0.8620 C   0  0  0  0  0  0  0  0  0  0  0  0
   -0.7890   19.7820    0.7380 C   0  0  0  0  0  0  0  0  0  0  0  0
    1.2760   20.1940    2.1670 C   0  0  0  0  0  0  0  0  0  0  0  0
    2.2840   16.3370   -2.0910 C   0  0  1  0  0  0  0  0  0  0  0  0
    2.9420   16.5350   -0.7000 C   0  0  0  0  0  0  0  0  0  0  0  0
    2.3300   15.4650    0.2410 C   0  0  0  0  0  0  0  0  0  0  0  0
    1.6000   14.4850   -0.7070 C   0  0  1  0  0  0  0  0  0  0  0  0
    2.7200   13.5460   -1.2530 C   0  0  0  0  0  0  0  0  0  0  0  0
    0.4180   13.6730   -0.0830 C   0  0  2  0  0  0  0  0  0  0  0  0
    0.8110   12.7250    1.0640 C   0  0  0  0  0  0  0  0  0  0  0  0
    1.1760   11.3380    0.6490 C   0  0  0  0  0  0  0  0  0  0  0  0
    0.9180   10.7880   -0.5510 C   0  0  0  0  0  0  0  0  0  0  0  0
    0.1050   11.5470   -1.6080 C   0  0  1  0  0  0  0  0  0  0  0  0
   -0.9690   10.6040   -2.2120 C   0  0  0  0  0  0  0  0  0  0  0  0
   -0.3720    9.3090   -2.7540 C   0  0  0  0  0  0  0  0  0  0  0  0
    0.3790    8.5540   -1.6610 C   0  0  2  0  0  0  0  0  0  0  0  0
   -0.5630    8.1040   -0.6820 O   0  0  0  0  0  0  0  0  0  0  0  0
    1.4810    9.4080   -0.9720 C   0  0  0  0  0  0  0  0  0  0  0  0
    2.6510    9.6410   -1.9600 C   0  0  0  0  0  0  0  0  0  0  0  0
    2.0630    8.5770    0.2030 C   0  0  0  0  0  0  0  0  0  0  0  0
   -0.4990   12.9430   -1.1470 C   0  0  1  0  0  0  0  0  0  0  0  0
   -1.8840   12.7240   -0.4650 C   0  0  0  0  0  0  0  0  0  0  0  0
   -0.7660   13.8330   -2.4180 C   0  0  0  0  0  0  0  0  0  0  0  0
    0.4050   14.7040   -2.9140 C   0  0  0  0  0  0  0  0  0  0  0  0
    1.0240   15.4990   -1.7610 C   0  0  2  0  0  0  0  0  0  0  0  0
   -0.0740   16.4690   -1.2050 C   0  0  0  0  0  0  0  0  0  0  0  0
    3.5537   18.6866   -1.6417 H   0  0  0  0  0  0  0  0  0  0  0  0
    4.1764   18.0262   -3.1918 H   0  0  0  0  0  0  0  0  0  0  0  0
    3.1455   19.4973   -3.1918 H   0  0  0  0  0  0  0  0  0  0  0  0
    1.9202   17.4521   -3.9056 H   0  0  0  0  0  0  0  0  0  0  0  0
    0.0878   18.4349   -3.1317 H   0  0  0  0  0  0  0  0  0  0  0  0
    0.4342   17.7591   -1.4681 H   0  0  0  0  0  0  0  0  0  0  0  0
    1.8190   20.2638   -2.4102 H   0  0  0  0  0  0  0  0  0  0  0  0
    0.1251   20.3193   -1.7663 H   0  0  0  0  0  0  0  0  0  0  0  0
    2.4670   20.3460   -0.6434 H   0  0  0  0  0  0  0  0  0  0  0  0
   -1.2401   19.7950    1.7411 H   0  0  0  0  0  0  0  0  0  0  0  0
   -1.0854   20.6891    0.1909 H   0  0  0  0  0  0  0  0  0  0  0  0
   -1.1372   18.8935    0.1909 H   0  0  0  0  0  0  0  0  0  0  0  0
    0.7079   19.7437    2.9943 H   0  0  0  0  0  0  0  0  0  0  0  0
    2.3289   19.8825    2.2329 H   0  0  0  0  0  0  0  0  0  0  0  0
    1.2131   21.2902    2.2329 H   0  0  0  0  0  0  0  0  0  0  0  0
    2.9063   15.8061   -2.8265 H   0  0  0  0  0  0  0  0  0  0  0  0
    4.0309   16.3970   -0.7730 H   0  0  0  0  0  0  0  0  0  0  0  0
    2.7579   17.5496   -0.3169 H   0  0  0  0  0  0  0  0  0  0  0  0
    3.1194   14.9455    0.8040 H   0  0  0  0  0  0  0  0  0  0  0  0
    1.6536   15.9044    0.9889 H   0  0  0  0  0  0  0  0  0  0  0  0
    3.2613   13.0922   -0.4098 H   0  0  0  0  0  0  0  0  0  0  0  0
    2.2671   12.7537   -1.8671 H   0  0  0  0  0  0  0  0  0  0  0  0
    3.4212   14.1302   -1.8671 H   0  0  0  0  0  0  0  0  0  0  0  0
   -0.1933   14.4627    0.3783 H   0  0  0  0  0  0  0  0  0  0  0  0
    1.6754   13.1623    1.5852 H   0  0  0  0  0  0  0  0  0  0  0  0
   -0.0828   12.6275    1.6977 H   0  0  0  0  0  0  0  0  0  0  0  0
    1.7002   10.7131    1.3870 H   0  0  0  0  0  0  0  0  0  0  0  0
    0.8221   11.8433   -2.3877 H   0  0  0  0  0  0  0  0  0  0  0  0
   -1.7000   10.3546   -1.4288 H   0  0  0  0  0  0  0  0  0  0  0  0
   -1.4416   11.1317   -3.0535 H   0  0  0  0  0  0  0  0  0  0  0  0
   -1.1825    8.6727   -3.1390 H   0  0  0  0  0  0  0  0  0  0  0  0
    0.3363    9.5589   -3.5576 H   0  0  0  0  0  0  0  0  0  0  0  0
    0.8923    7.7063   -2.1384 H   0  0  0  0  0  0  0  0  0  0  0  0
   -0.2720    8.4400    0.1830 H   0  0  0  0  0  0  0  0  0  0  0  0
    3.5767    9.8254   -1.3951 H   0  0  0  0  0  0  0  0  0  0  0  0
    2.7790    8.7507   -2.5932 H   0  0  0  0  0  0  0  0  0  0  0  0
    2.4282   10.5124   -2.5932 H   0  0  0  0  0  0  0  0  0  0  0  0
    1.7502    9.0237    1.1583 H   0  0  0  0  0  0  0  0  0  0  0  0
    1.6900    7.5440    0.1416 H   0  0  0  0  0  0  0  0  0  0  0  0
    3.1613    8.5745    0.1416 H   0  0  0  0  0  0  0  0  0  0  0  0
   -1.7616   12.7433    0.6280 H   0  0  0  0  0  0  0  0  0  0  0  0
   -2.5740   13.5242   -0.7709 H   0  0  0  0  0  0  0  0  0  0  0  0
   -2.2934   11.7500   -0.7709 H   0  0  0  0  0  0  0  0  0  0  0  0
   -1.0530   13.1613   -3.2405 H   0  0  0  0  0  0  0  0  0  0  0  0
   -1.5459   14.5458   -2.1120 H   0  0  0  0  0  0  0  0  0  0  0  0
    1.1743   14.0543   -3.3568 H   0  0  0  0  0  0  0  0  0  0  0  0
    0.0220   15.4130   -3.6628 H   0  0  0  0  0  0  0  0  0  0  0  0
   -0.0551   16.4523   -0.1053 H   0  0  0  0  0  0  0  0  0  0  0  0
    0.1258   17.4909   -1.5597 H   0  0  0  0  0  0  0  0  0  0  0  0
   -1.0634   16.1447   -1.5597 H   0  0  0  0  0  0  0  0  0  0  0  0
  1  2  1  0
  2  3  1  0
  3  4  1  0
  4  5  1  0
  5  6  1  0
  6  7  1  0
  7  8  1  0
  7  9  1  0
  2 10  1  0
 10 11  1  0
 11 12  1  0
 12 13  1  0
 13 14  1  6
 13 15  1  0
 15 16  1  0
 16 17  1  0
 17 18  2  0
 18 19  1  0
 19 20  1  0
 20 21  1  0
 21 22  1  0
 22 23  1  0
 22 24  1  0
 24 25  1  0
 24 26  1  0
 19 27  1  0
 27 28  1  1
 27 29  1  0
 29 30  1  0
 30 31  1  0
 31 32  1  1
  7  5  1  0
 31 10  1  0
 31 13  1  0
 27 15  1  0
 24 18  1  0
  1 33  1  0
  1 34  1  0
  1 35  1  0
  2 36  1  6
  3 37  1  0
  3 38  1  0
  4 39  1  0
  4 40  1  0
  5 41  1  1
  8 42  1  0
  8 43  1  0
  8 44  1  0
  9 45  1  0
  9 46  1  0
  9 47  1  0
 10 48  1  6
 11 49  1  0
 11 50  1  0
 12 51  1  0
 12 52  1  0
 14 53  1  0
 14 54  1  0
 14 55  1  0
 15 56  1  1
 16 57  1  0
 16 58  1  0
 17 59  1  0
 19 60  1  6
 20 61  1  0
 20 62  1  0
 21 63  1  0
 21 64  1  0
 22 65  1  6
 23 66  1  0
 25 67  1  0
 25 68  1  0
 25 69  1  0
 26 70  1  0
 26 71  1  0
 26 72  1  0
 28 73  1  0
 28 74  1  0
 28 75  1  0
 29 76  1  0
 29 77  1  0
 30 78  1  0
 30 79  1  0
 32 80  1  0
 32 81  1  0
 32 82  1  0
M  END
>  <meeko>  (10) 
{"is_sidechain": [false], "intermolecular_energy": 2.731, "internal_energy": -0.839}

$$$$
EPH_relaxed_0001_pdb2pqr_Repair_100_r2_0001_out
     RDKit          3D

 82 86  0  0  0  0  0  0  0  0999 V2000
   -1.8220   14.7790    0.2670 C   0  0  0  0  0  0  0  0  0  0  0  0
   -0.4820   15.5090    0.1370 C   0  0  2  0  0  0  0  0  0  0  0  0
   -0.4930   16.5430   -1.0080 C   0  0  0  0  0  0  0  0  0  0  0  0
   -0.0870   17.9520   -0.5680 C   0  0  0  0  0  0  0  0  0  0  0  0
    1.3310   17.9950   -0.0860 C   0  0  2  0  0  0  0  0  0  0  0  0
    2.0240   19.2170   -0.3720 O   0  0  0  0  0  0  0  0  0  0  0  0
    2.5300   18.0360   -1.0150 C   0  0  0  0  0  0  0  0  0  0  0  0
    2.3650   18.0350   -2.5020 C   0  0  0  0  0  0  0  0  0  0  0  0
    3.8580   17.5860   -0.4900 C   0  0  0  0  0  0  0  0  0  0  0  0
    0.6400   14.5020   -0.0820 C   0  0  1  0  0  0  0  0  0  0  0  0
    0.7660   13.4860    1.0840 C   0  0  0  0  0  0  0  0  0  0  0  0
    1.1930   12.1340    0.4560 C   0  0  0  0  0  0  0  0  0  0  0  0
    1.6180   12.4920   -0.9880 C   0  0  1  0  0  0  0  0  0  0  0  0
    3.0750   13.0330   -0.8540 C   0  0  0  0  0  0  0  0  0  0  0  0
    1.5240   11.3400   -2.0410 C   0  0  2  0  0  0  0  0  0  0  0  0
    2.4310   10.1280   -1.7660 C   0  0  0  0  0  0  0  0  0  0  0  0
    3.7910   10.1980   -2.3780 C   0  0  0  0  0  0  0  0  0  0  0  0
    4.1690   11.0510   -3.3480 C   0  0  0  0  0  0  0  0  0  0  0  0
    3.1570   12.0020   -3.9990 C   0  0  1  0  0  0  0  0  0  0  0  0
    3.3230   11.9590   -5.5410 C   0  0  0  0  0  0  0  0  0  0  0  0
    4.7560   12.2400   -5.9830 C   0  0  0  0  0  0  0  0  0  0  0  0
    5.7250   11.2370   -5.3610 C   0  0  2  0  0  0  0  0  0  0  0  0
    5.4560    9.9400   -5.9020 O   0  0  0  0  0  0  0  0  0  0  0  0
    5.6410   11.1850   -3.8100 C   0  0  0  0  0  0  0  0  0  0  0  0
    6.2200   12.4920   -3.2140 C   0  0  0  0  0  0  0  0  0  0  0  0
    6.5650   10.0380   -3.3200 C   0  0  0  0  0  0  0  0  0  0  0  0
    1.6450   11.8240   -3.5430 C   0  0  1  0  0  0  0  0  0  0  0  0
    0.9500   10.7370   -4.4180 C   0  0  0  0  0  0  0  0  0  0  0  0
    0.8680   13.1680   -3.8030 C   0  0  0  0  0  0  0  0  0  0  0  0
    0.8990   14.2180   -2.6760 C   0  0  0  0  0  0  0  0  0  0  0  0
    0.5410   13.5860   -1.3280 C   0  0  2  0  0  0  0  0  0  0  0  0
   -0.9290   13.0520   -1.4240 C   0  0  0  0  0  0  0  0  0  0  0  0
   -2.0655   14.6463    1.3315 H   0  0  0  0  0  0  0  0  0  0  0  0
   -2.6111   15.3719   -0.2185 H   0  0  0  0  0  0  0  0  0  0  0  0
   -1.7518   13.7945   -0.2185 H   0  0  0  0  0  0  0  0  0  0  0  0
   -0.3114   16.0567    1.0756 H   0  0  0  0  0  0  0  0  0  0  0  0
    0.2077   16.2068   -1.7864 H   0  0  0  0  0  0  0  0  0  0  0  0
   -1.5282   16.6062   -1.3744 H   0  0  0  0  0  0  0  0  0  0  0  0
   -0.1941   18.6369   -1.4221 H   0  0  0  0  0  0  0  0  0  0  0  0
   -0.7411   18.2534    0.2635 H   0  0  0  0  0  0  0  0  0  0  0  0
    1.0836   17.3516    0.7712 H   0  0  0  0  0  0  0  0  0  0  0  0
    1.2938   18.0285   -2.7520 H   0  0  0  0  0  0  0  0  0  0  0  0
    2.8345   18.9360   -2.9236 H   0  0  0  0  0  0  0  0  0  0  0  0
    2.8454   17.1397   -2.9236 H   0  0  0  0  0  0  0  0  0  0  0  0
    3.8388   17.5925    0.6098 H   0  0  0  0  0  0  0  0  0  0  0  0
    4.0672   16.5668   -0.8471 H   0  0  0  0  0  0  0  0  0  0  0  0
    4.6437   18.2681   -0.8471 H   0  0  0  0  0  0  0  0  0  0  0  0
    1.4893   15.1927   -0.1896 H   0  0  0  0  0  0  0  0  0  0  0  0
    1.5260   13.8266    1.8026 H   0  0  0  0  0  0  0  0  0  0  0  0
   -0.1863   13.3864    1.6254 H   0  0  0  0  0  0  0  0  0  0  0  0
    2.0355   11.6965    1.0117 H   0  0  0  0  0  0  0  0  0  0  0  0
    0.3845   11.3886    0.4804 H   0  0  0  0  0  0  0  0  0  0  0  0
    3.3339   13.1292    0.2108 H   0  0  0  0  0  0  0  0  0  0  0  0
    3.7719   12.3337   -1.3391 H   0  0  0  0  0  0  0  0  0  0  0  0
    3.1466   14.0176   -1.3391 H   0  0  0  0  0  0  0  0  0  0  0  0
    0.4942   10.9786   -1.9037 H   0  0  0  0  0  0  0  0  0  0  0  0
    2.5527   10.0346   -0.6768 H   0  0  0  0  0  0  0  0  0  0  0  0
    1.9328    9.2635   -2.2290 H   0  0  0  0  0  0  0  0  0  0  0  0
    4.5481    9.4928   -2.0045 H   0  0  0  0  0  0  0  0  0  0  0  0
    3.4012   13.0073   -3.6252 H   0  0  0  0  0  0  0  0  0  0  0  0
    3.0329   10.9602   -5.8992 H   0  0  0  0  0  0  0  0  0  0  0  0
    2.6817   12.7442   -5.9680 H   0  0  0  0  0  0  0  0  0  0  0  0
    4.8158   12.1664   -7.0789 H   0  0  0  0  0  0  0  0  0  0  0  0
    5.0346   13.2506   -5.6499 H   0  0  0  0  0  0  0  0  0  0  0  0
    6.7450   11.5664   -5.6083 H   0  0  0  0  0  0  0  0  0  0  0  0
    4.9930    9.4270   -5.2180 H   0  0  0  0  0  0  0  0  0  0  0  0
    6.1954   12.4365   -2.1157 H   0  0  0  0  0  0  0  0  0  0  0  0
    7.2591   12.6201   -3.5515 H   0  0  0  0  0  0  0  0  0  0  0  0
    5.6167   13.3477   -3.5515 H   0  0  0  0  0  0  0  0  0  0  0  0
    6.5779   10.0220   -2.2202 H   0  0  0  0  0  0  0  0  0  0  0  0
    6.1865    9.0761   -3.6963 H   0  0  0  0  0  0  0  0  0  0  0  0
    7.5854   10.2030   -3.6963 H   0  0  0  0  0  0  0  0  0  0  0  0
    0.4730    9.9909   -3.7655 H   0  0  0  0  0  0  0  0  0  0  0  0
    0.1866   11.2104   -5.0530 H   0  0  0  0  0  0  0  0  0  0  0  0
    1.7000   10.2427   -5.0530 H   0  0  0  0  0  0  0  0  0  0  0  0
    1.2985   13.6325   -4.7024 H   0  0  0  0  0  0  0  0  0  0  0  0
   -0.1886   12.8762   -3.8953 H   0  0  0  0  0  0  0  0  0  0  0  0
    1.9088   14.6497   -2.6141 H   0  0  0  0  0  0  0  0  0  0  0  0
    0.1594   14.9996   -2.9044 H   0  0  0  0  0  0  0  0  0  0  0  0
   -1.3327   12.9053   -0.4113 H   0  0  0  0  0  0  0  0  0  0  0  0
   -1.5498   13.7821   -1.9640 H   0  0  0  0  0  0  0  0  0  0  0  0
   -0.9365   12.0937   -1.9640 H   0  0  0  0  0  0  0  0  0  0  0  0
  1  2  1  0
  2  3  1  0
  3  4  1  0
  4  5  1  0
  5  6  1  0
  6  7  1  0
  7  8  1  0
  7  9  1  0
  2 10  1  0
 10 11  1  0
 11 12  1  0
 12 13  1  0
 13 14  1  1
 13 15  1  0
 15 16  1  0
 16 17  1  0
 17 18  2  0
 18 19  1  0
 19 20  1  0
 20 21  1  0
 21 22  1  0
 22 23  1  0
 22 24  1  0
 24 25  1  0
 24 26  1  0
 19 27  1  0
 27 28  1  6
 27 29  1  0
 29 30  1  0
 30 31  1  0
 31 32  1  6
  7  5  1  0
 31 10  1  0
 31 13  1  0
 27 15  1  0
 24 18  1  0
  1 33  1  0
  1 34  1  0
  1 35  1  0
  2 36  1  1
  3 37  1  0
  3 38  1  0
  4 39  1  0
  4 40  1  0
  5 41  1  1
  8 42  1  0
  8 43  1  0
  8 44  1  0
  9 45  1  0
  9 46  1  0
  9 47  1  0
 10 48  1  6
 11 49  1  0
 11 50  1  0
 12 51  1  0
 12 52  1  0
 14 53  1  0
 14 54  1  0
 14 55  1  0
 15 56  1  6
 16 57  1  0
 16 58  1  0
 17 59  1  0
 19 60  1  1
 20 61  1  0
 20 62  1  0
 21 63  1  0
 21 64  1  0
 22 65  1  1
 23 66  1  0
 25 67  1  0
 25 68  1  0
 25 69  1  0
 26 70  1  0
 26 71  1  0
 26 72  1  0
 28 73  1  0
 28 74  1  0
 28 75  1  0
 29 76  1  0
 29 77  1  0
 30 78  1  0
 30 79  1  0
 32 80  1  0
 32 81  1  0
 32 82  1  0
M  END
>  <meeko>  (11) 
{"is_sidechain": [false], "intermolecular_energy": 2.731, "internal_energy": -0.839}

$$$$
EPH_relaxed_0001_pdb2pqr_Repair_100_r2_0001_out
     RDKit          3D

 82 86  0  0  0  0  0  0  0  0999 V2000
   -0.2270   14.9480   -7.6430 C   0  0  0  0  0  0  0  0  0  0  0  0
    1.1430   14.9830   -6.9590 C   0  0  2  0  0  0  0  0  0  0  0  0
    2.2970   15.0770   -7.9760 C   0  0  0  0  0  0  0  0  0  0  0  0
    2.3400   16.4040   -8.7380 C   0  0  0  0  0  0  0  0  0  0  0  0
    1.9120   16.2400  -10.1640 C   0  0  2  0  0  0  0  0  0  0  0  0
    1.2340   15.0080  -10.4470 O   0  0  0  0  0  0  0  0  0  0  0  0
    2.5000   15.2000  -11.1000 C   0  0  0  0  0  0  0  0  0  0  0  0
    3.5680   14.2560  -10.6440 C   0  0  0  0  0  0  0  0  0  0  0  0
    2.3900   15.4210  -12.5760 C   0  0  0  0  0  0  0  0  0  0  0  0
    1.3190   13.7470   -6.0840 C   0  0  1  0  0  0  0  0  0  0  0  0
    2.7850   13.2390   -6.0560 C   0  0  0  0  0  0  0  0  0  0  0  0
    3.0380   12.6830   -4.6310 C   0  0  0  0  0  0  0  0  0  0  0  0
    1.6320   12.5840   -3.9950 C   0  0  1  0  0  0  0  0  0  0  0  0
    1.0360   11.2500   -4.5460 C   0  0  0  0  0  0  0  0  0  0  0  0
    1.5740   12.6410   -2.4340 C   0  0  2  0  0  0  0  0  0  0  0  0
    2.2990   11.4910   -1.7120 C   0  0  0  0  0  0  0  0  0  0  0  0
    1.4590   10.2920   -1.4190 C   0  0  0  0  0  0  0  0  0  0  0  0
    0.1140   10.2490   -1.4640 C   0  0  0  0  0  0  0  0  0  0  0  0
   -0.7060   11.5160   -1.7430 C   0  0  1  0  0  0  0  0  0  0  0  0
   -1.8750   11.6090   -0.7270 C   0  0  0  0  0  0  0  0  0  0  0  0
   -2.7350   10.3500   -0.7080 C   0  0  0  0  0  0  0  0  0  0  0  0
   -1.8950    9.1200   -0.3700 C   0  0  2  0  0  0  0  0  0  0  0  0
   -1.4360    9.2330    0.9800 O   0  0  0  0  0  0  0  0  0  0  0  0
   -0.6810    8.9280   -1.3210 C   0  0  0  0  0  0  0  0  0  0  0  0
   -1.1810    8.5080   -2.7260 C   0  0  0  0  0  0  0  0  0  0  0  0
    0.1610    7.7380   -0.7860 C   0  0  0  0  0  0  0  0  0  0  0  0
    0.1220   12.8680   -1.8470 C   0  0  1  0  0  0  0  0  0  0  0  0
    0.3070   13.4890   -0.4290 C   0  0  0  0  0  0  0  0  0  0  0  0
   -0.7050   13.9140   -2.6850 C   0  0  0  0  0  0  0  0  0  0  0  0
   -0.5140   13.8860   -4.2130 C   0  0  0  0  0  0  0  0  0  0  0  0
    0.9730   13.8860   -4.5800 C   0  0  2  0  0  0  0  0  0  0  0  0
    1.5950   15.2260   -4.0580 C   0  0  0  0  0  0  0  0  0  0  0  0
   -1.0180   14.9278   -6.8788 H   0  0  0  0  0  0  0  0  0  0  0  0
   -0.3464   15.8434   -8.2707 H   0  0  0  0  0  0  0  0  0  0  0  0
   -0.3005   14.0477   -8.2707 H   0  0  0  0  0  0  0  0  0  0  0  0
    1.1784   15.8882   -6.3350 H   0  0  0  0  0  0  0  0  0  0  0  0
    3.2472   14.9564   -7.4350 H   0  0  0  0  0  0  0  0  0  0  0  0
    2.1341   14.2841   -8.7208 H   0  0  0  0  0  0  0  0  0  0  0  0
    1.6668   17.1202   -8.2442 H   0  0  0  0  0  0  0  0  0  0  0  0
    3.3778   16.7686   -8.7320 H   0  0  0  0  0  0  0  0  0  0  0  0
    1.7604   17.3245  -10.2683 H   0  0  0  0  0  0  0  0  0  0  0  0
    3.5929   14.2340   -9.5445 H   0  0  0  0  0  0  0  0  0  0  0  0
    3.3532   13.2471  -11.0262 H   0  0  0  0  0  0  0  0  0  0  0  0
    4.5429   14.5930  -11.0262 H   0  0  0  0  0  0  0  0  0  0  0  0
    1.9073   16.3909  -12.7666 H   0  0  0  0  0  0  0  0  0  0  0  0
    3.3950   15.4175  -13.0232 H   0  0  0  0  0  0  0  0  0  0  0  0
    1.7869   14.6171  -13.0232 H   0  0  0  0  0  0  0  0  0  0  0  0
    0.6034   13.0702   -6.5738 H   0  0  0  0  0  0  0  0  0  0  0  0
    2.9248   12.4440   -6.8033 H   0  0  0  0  0  0  0  0  0  0  0  0
    3.4889   14.0500   -6.2945 H   0  0  0  0  0  0  0  0  0  0  0  0
    3.5128   11.6919   -4.6796 H   0  0  0  0  0  0  0  0  0  0  0  0
    3.7153   13.3239   -4.0476 H   0  0  0  0  0  0  0  0  0  0  0  0
    0.7468   10.6026   -3.7050 H   0  0  0  0  0  0  0  0  0  0  0  0
    0.1507   11.4702   -5.1606 H   0  0  0  0  0  0  0  0  0  0  0  0
    1.7907   10.7374   -5.1606 H   0  0  0  0  0  0  0  0  0  0  0  0
    2.1542   13.5481   -2.2091 H   0  0  0  0  0  0  0  0  0  0  0  0
    3.1407   11.1703   -2.3434 H   0  0  0  0  0  0  0  0  0  0  0  0
    2.6085   11.8918   -0.7355 H   0  0  0  0  0  0  0  0  0  0  0  0
    1.9833    9.3652   -1.1430 H   0  0  0  0  0  0  0  0  0  0  0  0
   -1.1050   11.4032   -2.7619 H   0  0  0  0  0  0  0  0  0  0  0  0
   -1.4568   11.7655    0.2783 H   0  0  0  0  0  0  0  0  0  0  0  0
   -2.5176   12.4476   -1.0334 H   0  0  0  0  0  0  0  0  0  0  0  0
   -3.5252   10.4652    0.0485 H   0  0  0  0  0  0  0  0  0  0  0  0
   -3.1755   10.2107   -1.7063 H   0  0  0  0  0  0  0  0  0  0  0  0
   -2.5367    8.2358   -0.4985 H   0  0  0  0  0  0  0  0  0  0  0  0
   -2.1080    9.7270    1.4790 H   0  0  0  0  0  0  0  0  0  0  0  0
   -2.0195    7.8037   -2.6214 H   0  0  0  0  0  0  0  0  0  0  0  0
   -1.5169    9.3988   -3.2771 H   0  0  0  0  0  0  0  0  0  0  0  0
   -0.3616    8.0233   -3.2771 H   0  0  0  0  0  0  0  0  0  0  0  0
    0.1534    7.7487    0.3139 H   0  0  0  0  0  0  0  0  0  0  0  0
   -0.2702    6.7924   -1.1465 H   0  0  0  0  0  0  0  0  0  0  0  0
    1.1962    7.8299   -1.1465 H   0  0  0  0  0  0  0  0  0  0  0  0
    0.0812   12.7310    0.3355 H   0  0  0  0  0  0  0  0  0  0  0  0
    1.3459   13.8306   -0.3110 H   0  0  0  0  0  0  0  0  0  0  0  0
   -0.3756   14.3435   -0.3110 H   0  0  0  0  0  0  0  0  0  0  0  0
   -1.7710   13.7369   -2.4795 H   0  0  0  0  0  0  0  0  0  0  0  0
   -0.3315   14.8983   -2.3661 H   0  0  0  0  0  0  0  0  0  0  0  0
   -0.9845   12.9778   -4.6178 H   0  0  0  0  0  0  0  0  0  0  0  0
   -0.9808   14.7853   -4.6412 H   0  0  0  0  0  0  0  0  0  0  0  0
    1.5951   15.2262   -2.9580 H   0  0  0  0  0  0  0  0  0  0  0  0
    2.6280   15.3181   -4.4248 H   0  0  0  0  0  0  0  0  0  0  0  0
    0.9986   16.0744   -4.4248 H   0  0  0  0  0  0  0  0  0  0  0  0
  1  2  1  0
  2  3  1  0
  3  4  1  0
  4  5  1  0
  5  6  1  0
  6  7  1  0
  7  8  1  0
  7  9  1  0
  2 10  1  0
 10 11  1  0
 11 12  1  0
 12 13  1  0
 13 14  1  6
 13 15  1  0
 15 16  1  0
 16 17  1  0
 17 18  2  0
 18 19  1  0
 19 20  1  0
 20 21  1  0
 21 22  1  0
 22 23  1  0
 22 24  1  0
 24 25  1  0
 24 26  1  0
 19 27  1  0
 27 28  1  1
 27 29  1  0
 29 30  1  0
 30 31  1  0
 31 32  1  1
  7  5  1  0
 31 10  1  0
 31 13  1  0
 27 15  1  0
 24 18  1  0
  1 33  1  0
  1 34  1  0
  1 35  1  0
  2 36  1  1
  3 37  1  0
  3 38  1  0
  4 39  1  0
  4 40  1  0
  5 41  1  6
  8 42  1  0
  8 43  1  0
  8 44  1  0
  9 45  1  0
  9 46  1  0
  9 47  1  0
 10 48  1  6
 11 49  1  0
 11 50  1  0
 12 51  1  0
 12 52  1  0
 14 53  1  0
 14 54  1  0
 14 55  1  0
 15 56  1  1
 16 57  1  0
 16 58  1  0
 17 59  1  0
 19 60  1  6
 20 61  1  0
 20 62  1  0
 21 63  1  0
 21 64  1  0
 22 65  1  1
 23 66  1  0
 25 67  1  0
 25 68  1  0
 25 69  1  0
 26 70  1  0
 26 71  1  0
 26 72  1  0
 28 73  1  0
 28 74  1  0
 28 75  1  0
 29 76  1  0
 29 77  1  0
 30 78  1  0
 30 79  1  0
 32 80  1  0
 32 81  1  0
 32 82  1  0
M  END
>  <meeko>  (12) 
{"is_sidechain": [false], "intermolecular_energy": 2.731, "internal_energy": -0.839}

$$$$
EPH_relaxed_0001_pdb2pqr_Repair_100_r2_0001_out
     RDKit          3D

 82 86  0  0  0  0  0  0  0  0999 V2000
   -3.1980    7.7430   -0.5270 C   0  0  0  0  0  0  0  0  0  0  0  0
   -3.6680    9.1920   -0.3750 C   0  0  2  0  0  0  0  0  0  0  0  0
   -5.1420    9.3710   -0.7910 C   0  0  0  0  0  0  0  0  0  0  0  0
   -5.7060    8.1870   -1.5820 C   0  0  0  0  0  0  0  0  0  0  0  0
   -6.8900    7.5760   -0.8950 C   0  0  2  0  0  0  0  0  0  0  0  0
   -7.2160    6.2490   -1.3310 O   0  0  0  0  0  0  0  0  0  0  0  0
   -8.1970    7.2640   -1.6000 C   0  0  0  0  0  0  0  0  0  0  0  0
   -8.3880    7.5550   -3.0550 C   0  0  0  0  0  0  0  0  0  0  0  0
   -9.4410    7.1330   -0.7760 C   0  0  0  0  0  0  0  0  0  0  0  0
   -2.7790   10.1170   -1.1980 C   0  0  1  0  0  0  0  0  0  0  0  0
   -3.3470   11.5570   -1.3000 C   0  0  0  0  0  0  0  0  0  0  0  0
   -2.1310   12.5180   -1.3100 C   0  0  0  0  0  0  0  0  0  0  0  0
   -0.9100   11.5990   -1.5480 C   0  0  1  0  0  0  0  0  0  0  0  0
   -0.8870   11.3530   -3.0890 C   0  0  0  0  0  0  0  0  0  0  0  0
    0.4660   12.1300   -1.0270 C   0  0  2  0  0  0  0  0  0  0  0  0
    0.9540   13.4320   -1.6850 C   0  0  0  0  0  0  0  0  0  0  0  0
    1.8000   13.2540   -2.9020 C   0  0  0  0  0  0  0  0  0  0  0  0
    2.3910   12.1060   -3.2830 C   0  0  0  0  0  0  0  0  0  0  0  0
    2.3130   10.8510   -2.4040 C   0  0  1  0  0  0  0  0  0  0  0  0
    3.7220   10.2120   -2.2900 C   0  0  0  0  0  0  0  0  0  0  0  0
    4.3500    9.9320   -3.6520 C   0  0  0  0  0  0  0  0  0  0  0  0
    4.4630   11.2140   -4.4730 C   0  0  2  0  0  0  0  0  0  0  0  0
    5.4070   12.0850   -3.8410 O   0  0  0  0  0  0  0  0  0  0  0  0
    3.1070   11.9520   -4.6470 C   0  0  0  0  0  0  0  0  0  0  0  0
    2.1870   11.1350   -5.5890 C   0  0  0  0  0  0  0  0  0  0  0  0
    3.3840   13.2970   -5.3710 C   0  0  0  0  0  0  0  0  0  0  0  0
    1.6100   11.0370   -0.9910 C   0  0  1  0  0  0  0  0  0  0  0  0
    2.6530   11.5190    0.0630 C   0  0  0  0  0  0  0  0  0  0  0  0
    1.0870    9.6390   -0.4900 C   0  0  0  0  0  0  0  0  0  0  0  0
   -0.3270    9.2240   -0.9400 C   0  0  0  0  0  0  0  0  0  0  0  0
   -1.3340   10.3510   -0.6910 C   0  0  2  0  0  0  0  0  0  0  0  0
   -1.3950   10.6060    0.8540 C   0  0  0  0  0  0  0  0  0  0  0  0
   -3.0537    7.2980    0.4686 H   0  0  0  0  0  0  0  0  0  0  0  0
   -3.9556    7.1678   -1.0794 H   0  0  0  0  0  0  0  0  0  0  0  0
   -2.2470    7.7220   -1.0794 H   0  0  0  0  0  0  0  0  0  0  0  0
   -3.5911    9.4541    0.6906 H   0  0  0  0  0  0  0  0  0  0  0  0
   -5.7465    9.5004    0.1189 H   0  0  0  0  0  0  0  0  0  0  0  0
   -5.1854   10.2493   -1.4518 H   0  0  0  0  0  0  0  0  0  0  0  0
   -6.0135    8.5377   -2.5782 H   0  0  0  0  0  0  0  0  0  0  0  0
   -4.9208    7.4206   -1.6594 H   0  0  0  0  0  0  0  0  0  0  0  0
   -6.6641    8.1227    0.0324 H   0  0  0  0  0  0  0  0  0  0  0  0
   -8.9883    8.4695   -3.1703 H   0  0  0  0  0  0  0  0  0  0  0  0
   -7.4072    7.6975   -3.5323 H   0  0  0  0  0  0  0  0  0  0  0  0
   -8.9089    6.7119   -3.5323 H   0  0  0  0  0  0  0  0  0  0  0  0
   -9.1781    7.1607    0.2918 H   0  0  0  0  0  0  0  0  0  0  0  0
  -10.1233    7.9643   -1.0073 H   0  0  0  0  0  0  0  0  0  0  0  0
   -9.9351    6.1779   -1.0073 H   0  0  0  0  0  0  0  0  0  0  0  0
   -2.7594    9.5585   -2.1455 H   0  0  0  0  0  0  0  0  0  0  0  0
   -3.9271   11.6705   -2.2277 H   0  0  0  0  0  0  0  0  0  0  0  0
   -4.0176   11.7776   -0.4564 H   0  0  0  0  0  0  0  0  0  0  0  0
   -2.2257   13.2558   -2.1204 H   0  0  0  0  0  0  0  0  0  0  0  0
   -2.0453   13.0923   -0.3758 H   0  0  0  0  0  0  0  0  0  0  0  0
   -0.7863   10.2756   -3.2869 H   0  0  0  0  0  0  0  0  0  0  0  0
   -1.8235   11.7214   -3.5331 H   0  0  0  0  0  0  0  0  0  0  0  0
   -0.0350   11.8886   -3.5331 H   0  0  0  0  0  0  0  0  0  0  0  0
    0.2390   12.3899    0.0175 H   0  0  0  0  0  0  0  0  0  0  0  0
    0.0697   14.0213   -1.9692 H   0  0  0  0  0  0  0  0  0  0  0  0
    1.5936   13.9280   -0.9400 H   0  0  0  0  0  0  0  0  0  0  0  0
    1.9535   14.1356   -3.5417 H   0  0  0  0  0  0  0  0  0  0  0  0
    1.6300   10.1595   -2.9191 H   0  0  0  0  0  0  0  0  0  0  0  0
    4.3769   10.8994   -1.7345 H   0  0  0  0  0  0  0  0  0  0  0  0
    3.6106    9.2493   -1.7697 H   0  0  0  0  0  0  0  0  0  0  0  0
    5.3545    9.5084   -3.5053 H   0  0  0  0  0  0  0  0  0  0  0  0
    3.7094    9.2217   -4.1953 H   0  0  0  0  0  0  0  0  0  0  0  0
    4.7973   10.9305   -5.4819 H   0  0  0  0  0  0  0  0  0  0  0  0
    6.2790   11.9080   -4.2330 H   0  0  0  0  0  0  0  0  0  0  0  0
    1.4979   10.5231   -4.9884 H   0  0  0  0  0  0  0  0  0  0  0  0
    1.6086   11.8226   -6.2236 H   0  0  0  0  0  0  0  0  0  0  0  0
    2.8014   10.4794   -6.2236 H   0  0  0  0  0  0  0  0  0  0  0  0
    3.5470   14.0884   -4.6246 H   0  0  0  0  0  0  0  0  0  0  0  0
    4.2803   13.1966   -6.0007 H   0  0  0  0  0  0  0  0  0  0  0  0
    2.5210   13.5590   -6.0007 H   0  0  0  0  0  0  0  0  0  0  0  0
    2.2619   11.3383    1.0751 H   0  0  0  0  0  0  0  0  0  0  0  0
    3.5932   10.9641   -0.0713 H   0  0  0  0  0  0  0  0  0  0  0  0
    2.8397   12.5947   -0.0713 H   0  0  0  0  0  0  0  0  0  0  0  0
    1.7891    8.8726   -0.8501 H   0  0  0  0  0  0  0  0  0  0  0  0
    1.0254    9.7302    0.6045 H   0  0  0  0  0  0  0  0  0  0  0  0
   -0.3083    8.9890   -2.0144 H   0  0  0  0  0  0  0  0  0  0  0  0
   -0.6358    8.3427   -0.3586 H   0  0  0  0  0  0  0  0  0  0  0  0
   -1.1714    9.6712    1.3890 H   0  0  0  0  0  0  0  0  0  0  0  0
   -0.6547   11.3718    1.1287 H   0  0  0  0  0  0  0  0  0  0  0  0
   -2.4017   10.9539    1.1287 H   0  0  0  0  0  0  0  0  0  0  0  0
  1  2  1  0
  2  3  1  0
  3  4  1  0
  4  5  1  0
  5  6  1  0
  6  7  1  0
  7  8  1  0
  7  9  1  0
  2 10  1  0
 10 11  1  0
 11 12  1  0
 12 13  1  0
 13 14  1  6
 13 15  1  0
 15 16  1  0
 16 17  1  0
 17 18  2  0
 18 19  1  0
 19 20  1  0
 20 21  1  0
 21 22  1  0
 22 23  1  0
 22 24  1  0
 24 25  1  0
 24 26  1  0
 19 27  1  0
 27 28  1  1
 27 29  1  0
 29 30  1  0
 30 31  1  0
 31 32  1  1
  7  5  1  0
 31 10  1  0
 31 13  1  0
 27 15  1  0
 24 18  1  0
  1 33  1  0
  1 34  1  0
  1 35  1  0
  2 36  1  1
  3 37  1  0
  3 38  1  0
  4 39  1  0
  4 40  1  0
  5 41  1  1
  8 42  1  0
  8 43  1  0
  8 44  1  0
  9 45  1  0
  9 46  1  0
  9 47  1  0
 10 48  1  6
 11 49  1  0
 11 50  1  0
 12 51  1  0
 12 52  1  0
 14 53  1  0
 14 54  1  0
 14 55  1  0
 15 56  1  1
 16 57  1  0
 16 58  1  0
 17 59  1  0
 19 60  1  6
 20 61  1  0
 20 62  1  0
 21 63  1  0
 21 64  1  0
 22 65  1  6
 23 66  1  0
 25 67  1  0
 25 68  1  0
 25 69  1  0
 26 70  1  0
 26 71  1  0
 26 72  1  0
 28 73  1  0
 28 74  1  0
 28 75  1  0
 29 76  1  0
 29 77  1  0
 30 78  1  0
 30 79  1  0
 32 80  1  0
 32 81  1  0
 32 82  1  0
M  END
>  <meeko>  (13) 
{"is_sidechain": [false], "intermolecular_energy": 2.731, "internal_energy": -0.839}

$$$$
EPH_relaxed_0001_pdb2pqr_Repair_100_r2_0001_out
     RDKit          3D

 82 86  0  0  0  0  0  0  0  0999 V2000
    0.2890   10.3150   -3.2410 C   0  0  0  0  0  0  0  0  0  0  0  0
    0.9360   10.0970   -1.8700 C   0  0  2  0  0  0  0  0  0  0  0  0
    0.1720    9.0570   -1.0260 C   0  0  0  0  0  0  0  0  0  0  0  0
   -0.8080    8.2060   -1.8390 C   0  0  0  0  0  0  0  0  0  0  0  0
   -2.1650    8.8380   -1.9090 C   0  0  2  0  0  0  0  0  0  0  0  0
   -2.1850   10.2450   -1.6350 O   0  0  0  0  0  0  0  0  0  0  0  0
   -2.8860    9.4080   -0.7010 C   0  0  0  0  0  0  0  0  0  0  0  0
   -2.2720    9.3710    0.6630 C   0  0  0  0  0  0  0  0  0  0  0  0
   -4.3740    9.5540   -0.7590 C   0  0  0  0  0  0  0  0  0  0  0  0
    1.0160   11.4200   -1.1170 C   0  0  1  0  0  0  0  0  0  0  0  0
    2.0670   11.3950    0.0250 C   0  0  0  0  0  0  0  0  0  0  0  0
    2.6880   12.8140    0.0930 C   0  0  0  0  0  0  0  0  0  0  0  0
    1.7540   13.6900   -0.7740 C   0  0  1  0  0  0  0  0  0  0  0  0
    0.5500   14.0360    0.1580 C   0  0  0  0  0  0  0  0  0  0  0  0
    2.3920   14.9760   -1.3940 C   0  0  2  0  0  0  0  0  0  0  0  0
    2.8950   16.0120   -0.3730 C   0  0  0  0  0  0  0  0  0  0  0  0
    1.8950   17.0440    0.0330 C   0  0  0  0  0  0  0  0  0  0  0  0
    0.7420   17.3110   -0.6080 C   0  0  0  0  0  0  0  0  0  0  0  0
    0.3910   16.6050   -1.9240 C   0  0  1  0  0  0  0  0  0  0  0  0
   -0.1160   17.6500   -2.9530 C   0  0  0  0  0  0  0  0  0  0  0  0
   -1.2710   18.4890   -2.4150 C   0  0  0  0  0  0  0  0  0  0  0  0
   -0.8650   19.2200   -1.1380 C   0  0  2  0  0  0  0  0  0  0  0  0
    0.1330   20.1930   -1.4620 O   0  0  0  0  0  0  0  0  0  0  0  0
   -0.3280   18.2700   -0.0310 C   0  0  0  0  0  0  0  0  0  0  0  0
   -1.4920   17.4180    0.5320 C   0  0  0  0  0  0  0  0  0  0  0  0
    0.1780   19.1460    1.1470 C   0  0  0  0  0  0  0  0  0  0  0  0
    1.5150   15.6550   -2.5230 C   0  0  1  0  0  0  0  0  0  0  0  0
    2.4950   16.4830   -3.4100 C   0  0  0  0  0  0  0  0  0  0  0  0
    0.8410   14.5970   -3.4740 C   0  0  0  0  0  0  0  0  0  0  0  0
    0.3390   13.2950   -2.8210 C   0  0  0  0  0  0  0  0  0  0  0  0
    1.4200   12.6770   -1.9280 C   0  0  2  0  0  0  0  0  0  0  0  0
    2.6350   12.2990   -2.8420 C   0  0  0  0  0  0  0  0  0  0  0  0
   -0.7456   10.6636   -3.1069 H   0  0  0  0  0  0  0  0  0  0  0  0
    0.8608   11.0701   -3.8004 H   0  0  0  0  0  0  0  0  0  0  0  0
    0.2872    9.3678   -3.8004 H   0  0  0  0  0  0  0  0  0  0  0  0
    1.9490    9.7040   -2.0411 H   0  0  0  0  0  0  0  0  0  0  0  0
    0.9051    8.3867   -0.5535 H   0  0  0  0  0  0  0  0  0  0  0  0
   -0.4222    9.6154   -0.2877 H   0  0  0  0  0  0  0  0  0  0  0  0
   -0.4162    8.0889   -2.8602 H   0  0  0  0  0  0  0  0  0  0  0  0
   -0.9094    7.2303   -1.3413 H   0  0  0  0  0  0  0  0  0  0  0  0
   -2.4800    8.1309   -2.6905 H   0  0  0  0  0  0  0  0  0  0  0  0
   -3.0652    9.4188    1.4236 H   0  0  0  0  0  0  0  0  0  0  0  0
   -1.7037    8.4370    0.7841 H   0  0  0  0  0  0  0  0  0  0  0  0
   -1.5957   10.2300    0.7841 H   0  0  0  0  0  0  0  0  0  0  0  0
   -4.7786    9.5937    0.2631 H   0  0  0  0  0  0  0  0  0  0  0  0
   -4.6309   10.4817   -1.2914 H   0  0  0  0  0  0  0  0  0  0  0  0
   -4.8063    8.6940   -1.2914 H   0  0  0  0  0  0  0  0  0  0  0  0
   -0.0290   11.5059   -0.7846 H   0  0  0  0  0  0  0  0  0  0  0  0
    1.5819   11.1477    0.9808 H   0  0  0  0  0  0  0  0  0  0  0  0
    2.8390   10.6349   -0.1655 H   0  0  0  0  0  0  0  0  0  0  0  0
    2.7103   13.1789    1.1305 H   0  0  0  0  0  0  0  0  0  0  0  0
    3.7280   12.8320   -0.2648 H   0  0  0  0  0  0  0  0  0  0  0  0
    0.8622   13.9463    1.2089 H   0  0  0  0  0  0  0  0  0  0  0  0
    0.2178   15.0659   -0.0392 H   0  0  0  0  0  0  0  0  0  0  0  0
   -0.2783   13.3395   -0.0392 H   0  0  0  0  0  0  0  0  0  0  0  0
    3.2927   14.5794   -1.8853 H   0  0  0  0  0  0  0  0  0  0  0  0
    3.2125   15.4719    0.5312 H   0  0  0  0  0  0  0  0  0  0  0  0
    3.7112   16.5574   -0.8693 H   0  0  0  0  0  0  0  0  0  0  0  0
    2.1197   17.6363    0.9323 H   0  0  0  0  0  0  0  0  0  0  0  0
   -0.4151   15.8964   -1.6829 H   0  0  0  0  0  0  0  0  0  0  0  0
    0.7159   18.3210   -3.2130 H   0  0  0  0  0  0  0  0  0  0  0  0
   -0.4838   17.1010   -3.8324 H   0  0  0  0  0  0  0  0  0  0  0  0
   -1.5640   19.2280   -3.1753 H   0  0  0  0  0  0  0  0  0  0  0  0
   -2.1134   17.8203   -2.1843 H   0  0  0  0  0  0  0  0  0  0  0  0
   -1.7684   19.6969   -0.7300 H   0  0  0  0  0  0  0  0  0  0  0  0
    0.2230   20.7880   -0.6980 H   0  0  0  0  0  0  0  0  0  0  0  0
   -1.4634   17.4390    1.6314 H   0  0  0  0  0  0  0  0  0  0  0  0
   -2.4502   17.8296    0.1823 H   0  0  0  0  0  0  0  0  0  0  0  0
   -1.3893   16.3802    0.1823 H   0  0  0  0  0  0  0  0  0  0  0  0
   -0.0960   18.6716    2.1008 H   0  0  0  0  0  0  0  0  0  0  0  0
    1.2720   19.2443    1.0873 H   0  0  0  0  0  0  0  0  0  0  0  0
   -0.2835   20.1427    1.0873 H   0  0  0  0  0  0  0  0  0  0  0  0
    3.1759   17.0583   -2.7655 H   0  0  0  0  0  0  0  0  0  0  0  0
    3.0798   15.8013   -4.0451 H   0  0  0  0  0  0  0  0  0  0  0  0
    1.9205   17.1734   -4.0451 H   0  0  0  0  0  0  0  0  0  0  0  0
   -0.0217   15.0827   -3.9535 H   0  0  0  0  0  0  0  0  0  0  0  0
    1.6372   14.2835   -4.1653 H   0  0  0  0  0  0  0  0  0  0  0  0
   -0.5483   13.5177   -2.2102 H   0  0  0  0  0  0  0  0  0  0  0  0
    0.0888   12.5776   -3.6164 H   0  0  0  0  0  0  0  0  0  0  0  0
    3.4971   12.0308   -2.2136 H   0  0  0  0  0  0  0  0  0  0  0  0
    2.3637   11.4428   -3.4771 H   0  0  0  0  0  0  0  0  0  0  0  0
    2.8973   13.1580   -3.4771 H   0  0  0  0  0  0  0  0  0  0  0  0
  1  2  1  0
  2  3  1  0
  3  4  1  0
  4  5  1  0
  5  6  1  0
  6  7  1  0
  7  8  1  0
  7  9  1  0
  2 10  1  0
 10 11  1  0
 11 12  1  0
 12 13  1  0
 13 14  1  1
 13 15  1  0
 15 16  1  0
 16 17  1  0
 17 18  2  0
 18 19  1  0
 19 20  1  0
 20 21  1  0
 21 22  1  0
 22 23  1  0
 22 24  1  0
 24 25  1  0
 24 26  1  0
 19 27  1  0
 27 28  1  6
 27 29  1  0
 29 30  1  0
 30 31  1  0
 31 32  1  6
  7  5  1  0
 31 10  1  0
 31 13  1  0
 27 15  1  0
 24 18  1  0
  1 33  1  0
  1 34  1  0
  1 35  1  0
  2 36  1  6
  3 37  1  0
  3 38  1  0
  4 39  1  0
  4 40  1  0
  5 41  1  6
  8 42  1  0
  8 43  1  0
  8 44  1  0
  9 45  1  0
  9 46  1  0
  9 47  1  0
 10 48  1  1
 11 49  1  0
 11 50  1  0
 12 51  1  0
 12 52  1  0
 14 53  1  0
 14 54  1  0
 14 55  1  0
 15 56  1  6
 16 57  1  0
 16 58  1  0
 17 59  1  0
 19 60  1  1
 20 61  1  0
 20 62  1  0
 21 63  1  0
 21 64  1  0
 22 65  1  1
 23 66  1  0
 25 67  1  0
 25 68  1  0
 25 69  1  0
 26 70  1  0
 26 71  1  0
 26 72  1  0
 28 73  1  0
 28 74  1  0
 28 75  1  0
 29 76  1  0
 29 77  1  0
 30 78  1  0
 30 79  1  0
 32 80  1  0
 32 81  1  0
 32 82  1  0
M  END
>  <meeko>  (14) 
{"is_sidechain": [false], "intermolecular_energy": 2.731, "internal_energy": -0.839}

$$$$
EPH_relaxed_0001_pdb2pqr_Repair_100_r2_0001_out
     RDKit          3D

 82 86  0  0  0  0  0  0  0  0999 V2000
  -13.9260    5.5670    0.2590 C   0  0  0  0  0  0  0  0  0  0  0  0
  -13.4640    7.0110    0.0400 C   0  0  2  0  0  0  0  0  0  0  0  0
  -14.6280    7.9380   -0.3640 C   0  0  0  0  0  0  0  0  0  0  0  0
  -14.3760    9.4150   -0.0490 C   0  0  0  0  0  0  0  0  0  0  0  0
  -15.1410   10.3160   -0.9700 C   0  0  2  0  0  0  0  0  0  0  0  0
  -14.9780   10.0260   -2.3650 O   0  0  0  0  0  0  0  0  0  0  0  0
  -14.4800   11.2980   -1.9200 C   0  0  0  0  0  0  0  0  0  0  0  0
  -12.9910   11.4300   -1.9940 C   0  0  0  0  0  0  0  0  0  0  0  0
  -15.2790   12.4640   -2.4140 C   0  0  0  0  0  0  0  0  0  0  0  0
  -12.3720    7.0520   -1.0230 C   0  0  1  0  0  0  0  0  0  0  0  0
  -12.6830    8.0600   -2.1610 C   0  0  0  0  0  0  0  0  0  0  0  0
  -11.3270    8.6650   -2.6050 C   0  0  0  0  0  0  0  0  0  0  0  0
  -10.2610    7.7560   -1.9510 C   0  0  1  0  0  0  0  0  0  0  0  0
  -10.1590    6.5160   -2.8930 C   0  0  0  0  0  0  0  0  0  0  0  0
   -8.8610    8.4050   -1.6980 C   0  0  2  0  0  0  0  0  0  0  0  0
   -8.1140    8.8600   -2.9630 C   0  0  0  0  0  0  0  0  0  0  0  0
   -7.2160    7.8370   -3.5760 C   0  0  0  0  0  0  0  0  0  0  0  0
   -6.7970    6.7060   -2.9790 C   0  0  0  0  0  0  0  0  0  0  0  0
   -7.1500    6.4100   -1.5160 C   0  0  1  0  0  0  0  0  0  0  0  0
   -5.8800    5.9330   -0.7630 C   0  0  0  0  0  0  0  0  0  0  0  0
   -5.2020    4.7510   -1.4500 C   0  0  0  0  0  0  0  0  0  0  0  0
   -4.8140    5.1030   -2.8840 C   0  0  2  0  0  0  0  0  0  0  0  0
   -3.7920    6.1040   -2.8520 O   0  0  0  0  0  0  0  0  0  0  0  0
   -6.0120    5.6070   -3.7370 C   0  0  0  0  0  0  0  0  0  0  0  0
   -6.9770    4.4300   -4.0240 C   0  0  0  0  0  0  0  0  0  0  0  0
   -5.4590    6.0610   -5.1150 C   0  0  0  0  0  0  0  0  0  0  0  0
   -7.9210    7.5650   -0.7420 C   0  0  1  0  0  0  0  0  0  0  0  0
   -6.8970    8.5690   -0.1280 C   0  0  0  0  0  0  0  0  0  0  0  0
   -8.7060    6.9360    0.4690 C   0  0  0  0  0  0  0  0  0  0  0  0
  -10.1300    6.4210    0.1820 C   0  0  0  0  0  0  0  0  0  0  0  0
  -10.9520    7.4730   -0.5680 C   0  0  2  0  0  0  0  0  0  0  0  0
  -11.0910    8.7250    0.3640 C   0  0  0  0  0  0  0  0  0  0  0  0
  -13.9914    5.3626    1.3379 H   0  0  0  0  0  0  0  0  0  0  0  0
  -14.9146    5.4244   -0.2018 H   0  0  0  0  0  0  0  0  0  0  0  0
  -13.2037    4.8771   -0.2018 H   0  0  0  0  0  0  0  0  0  0  0  0
  -13.0653    7.3796    0.9966 H   0  0  0  0  0  0  0  0  0  0  0  0
  -14.7927    7.8370   -1.4469 H   0  0  0  0  0  0  0  0  0  0  0  0
  -15.5045    7.6287    0.2243 H   0  0  0  0  0  0  0  0  0  0  0  0
  -14.6868    9.6168    0.9867 H   0  0  0  0  0  0  0  0  0  0  0  0
  -13.3032    9.6166   -0.1847 H   0  0  0  0  0  0  0  0  0  0  0  0
  -15.9424   10.4344   -0.2259 H   0  0  0  0  0  0  0  0  0  0  0  0
  -12.5751   11.4669   -0.9763 H   0  0  0  0  0  0  0  0  0  0  0  0
  -12.5724   10.5654   -2.5300 H   0  0  0  0  0  0  0  0  0  0  0  0
  -12.7311   12.3547   -2.5300 H   0  0  0  0  0  0  0  0  0  0  0  0
  -15.6681   13.0318   -1.5559 H   0  0  0  0  0  0  0  0  0  0  0  0
  -14.6371   13.1161   -3.0245 H   0  0  0  0  0  0  0  0  0  0  0  0
  -16.1188   12.1007   -3.0245 H   0  0  0  0  0  0  0  0  0  0  0  0
  -12.3717    5.9950   -1.3274 H   0  0  0  0  0  0  0  0  0  0  0  0
  -13.1615    7.5423   -3.0054 H   0  0  0  0  0  0  0  0  0  0  0  0
  -13.3719    8.8451   -1.8160 H   0  0  0  0  0  0  0  0  0  0  0  0
  -11.2337    8.6463   -3.7009 H   0  0  0  0  0  0  0  0  0  0  0  0
  -11.2206    9.7170   -2.3019 H   0  0  0  0  0  0  0  0  0  0  0  0
  -10.0837    5.6007   -2.2875 H   0  0  0  0  0  0  0  0  0  0  0  0
  -11.0558    6.4630   -3.5278 H   0  0  0  0  0  0  0  0  0  0  0  0
   -9.2656    6.6102   -3.5278 H   0  0  0  0  0  0  0  0  0  0  0  0
   -9.1228    9.3273   -1.1588 H   0  0  0  0  0  0  0  0  0  0  0  0
   -8.8633    9.1488   -3.7148 H   0  0  0  0  0  0  0  0  0  0  0  0
   -7.4620    9.6887   -2.6498 H   0  0  0  0  0  0  0  0  0  0  0  0
   -6.8673    8.0234   -4.6025 H   0  0  0  0  0  0  0  0  0  0  0  0
   -7.8950    5.6011   -1.5402 H   0  0  0  0  0  0  0  0  0  0  0  0
   -5.1659    6.7681   -0.7117 H   0  0  0  0  0  0  0  0  0  0  0  0
   -6.1902    5.6036    0.2396 H   0  0  0  0  0  0  0  0  0  0  0  0
   -4.2961    4.4793   -0.8883 H   0  0  0  0  0  0  0  0  0  0  0  0
   -5.9071    3.9071   -1.4740 H   0  0  0  0  0  0  0  0  0  0  0  0
   -4.4532    4.1813   -3.3639 H   0  0  0  0  0  0  0  0  0  0  0  0
   -3.0360    5.7690   -3.3640 H   0  0  0  0  0  0  0  0  0  0  0  0
   -7.3273    4.0028   -3.0728 H   0  0  0  0  0  0  0  0  0  0  0  0
   -7.8391    4.7951   -4.6015 H   0  0  0  0  0  0  0  0  0  0  0  0
   -6.4500    3.6562   -4.6015 H   0  0  0  0  0  0  0  0  0  0  0  0
   -4.6170    6.7522   -4.9625 H   0  0  0  0  0  0  0  0  0  0  0  0
   -5.1142    5.1820   -5.6794 H   0  0  0  0  0  0  0  0  0  0  0  0
   -6.2540    6.5704   -5.6794 H   0  0  0  0  0  0  0  0  0  0  0  0
   -6.9478    8.5192    0.9697 H   0  0  0  0  0  0  0  0  0  0  0  0
   -5.8818    8.3066   -0.4604 H   0  0  0  0  0  0  0  0  0  0  0  0
   -7.1394    9.5892   -0.4604 H   0  0  0  0  0  0  0  0  0  0  0  0
   -8.1147    6.0877    0.8443 H   0  0  0  0  0  0  0  0  0  0  0  0
   -8.8370    7.7598    1.1861 H   0  0  0  0  0  0  0  0  0  0  0  0
  -10.0665    5.5098   -0.4309 H   0  0  0  0  0  0  0  0  0  0  0  0
  -10.6254    6.2064    1.1404 H   0  0  0  0  0  0  0  0  0  0  0  0
  -11.0555    8.4049    1.4158 H   0  0  0  0  0  0  0  0  0  0  0  0
  -10.2649    9.4236    0.1652 H   0  0  0  0  0  0  0  0  0  0  0  0
  -12.0502    9.2254    0.1652 H   0  0  0  0  0  0  0  0  0  0  0  0
  1  2  1  0
  2  3  1  0
  3  4  1  0
  4  5  1  0
  5  6  1  0
  6  7  1  0
  7  8  1  0
  7  9  1  0
  2 10  1  0
 10 11  1  0
 11 12  1  0
 12 13  1  0
 13 14  1  6
 13 15  1  0
 15 16  1  0
 16 17  1  0
 17 18  2  0
 18 19  1  0
 19 20  1  0
 20 21  1  0
 21 22  1  0
 22 23  1  0
 22 24  1  0
 24 25  1  0
 24 26  1  0
 19 27  1  0
 27 28  1  1
 27 29  1  0
 29 30  1  0
 30 31  1  0
 31 32  1  1
  7  5  1  0
 31 10  1  0
 31 13  1  0
 27 15  1  0
 24 18  1  0
  1 33  1  0
  1 34  1  0
  1 35  1  0
  2 36  1  1
  3 37  1  0
  3 38  1  0
  4 39  1  0
  4 40  1  0
  5 41  1  1
  8 42  1  0
  8 43  1  0
  8 44  1  0
  9 45  1  0
  9 46  1  0
  9 47  1  0
 10 48  1  6
 11 49  1  0
 11 50  1  0
 12 51  1  0
 12 52  1  0
 14 53  1  0
 14 54  1  0
 14 55  1  0
 15 56  1  1
 16 57  1  0
 16 58  1  0
 17 59  1  0
 19 60  1  6
 20 61  1  0
 20 62  1  0
 21 63  1  0
 21 64  1  0
 22 65  1  6
 23 66  1  0
 25 67  1  0
 25 68  1  0
 25 69  1  0
 26 70  1  0
 26 71  1  0
 26 72  1  0
 28 73  1  0
 28 74  1  0
 28 75  1  0
 29 76  1  0
 29 77  1  0
 30 78  1  0
 30 79  1  0
 32 80  1  0
 32 81  1  0
 32 82  1  0
M  END
>  <meeko>  (15) 
{"is_sidechain": [false], "intermolecular_energy": 2.731, "internal_energy": -0.839}

$$$$
EPH_relaxed_0001_pdb2pqr_Repair_100_r2_0001_out
     RDKit          3D

 82 86  0  0  0  0  0  0  0  0999 V2000
   -0.3190    7.9170   -3.1690 C   0  0  0  0  0  0  0  0  0  0  0  0
   -0.9990    8.3740   -1.8760 C   0  0  2  0  0  0  0  0  0  0  0  0
   -2.3880    7.7300   -1.6910 C   0  0  0  0  0  0  0  0  0  0  0  0
   -2.9820    7.1660   -2.9840 C   0  0  0  0  0  0  0  0  0  0  0  0
   -4.1590    6.2780   -2.7130 C   0  0  2  0  0  0  0  0  0  0  0  0
   -5.2320    6.4040   -3.6540 O   0  0  0  0  0  0  0  0  0  0  0  0
   -5.5230    6.8010   -2.3050 C   0  0  0  0  0  0  0  0  0  0  0  0
   -5.7820    8.2660   -2.1440 C   0  0  0  0  0  0  0  0  0  0  0  0
   -6.4600    5.8750   -1.5930 C   0  0  0  0  0  0  0  0  0  0  0  0
   -1.1240    9.8930   -1.8630 C   0  0  1  0  0  0  0  0  0  0  0  0
   -2.5860   10.3710   -1.6570 C   0  0  0  0  0  0  0  0  0  0  0  0
   -2.5170   11.6720   -0.8160 C   0  0  0  0  0  0  0  0  0  0  0  0
   -1.0250   12.0790   -0.8480 C   0  0  1  0  0  0  0  0  0  0  0  0
   -0.8370   12.8040   -2.2170 C   0  0  0  0  0  0  0  0  0  0  0  0
   -0.5220   12.9560    0.3440 C   0  0  2  0  0  0  0  0  0  0  0  0
   -1.1930   14.3350    0.4680 C   0  0  0  0  0  0  0  0  0  0  0  0
   -0.5150   15.4430   -0.2670 C   0  0  0  0  0  0  0  0  0  0  0  0
    0.7360   15.4030   -0.7610 C   0  0  0  0  0  0  0  0  0  0  0  0
    1.6420   14.1900   -0.5150 C   0  0  1  0  0  0  0  0  0  0  0  0
    3.0480   14.6750   -0.0740 C   0  0  0  0  0  0  0  0  0  0  0  0
    3.6590   15.6690   -1.0570 C   0  0  0  0  0  0  0  0  0  0  0  0
    2.7560   16.8880   -1.2310 C   0  0  2  0  0  0  0  0  0  0  0  0
    2.7200   17.6140    0.0010 O   0  0  0  0  0  0  0  0  0  0  0  0
    1.3090   16.5220   -1.6650 C   0  0  0  0  0  0  0  0  0  0  0  0
    1.3180   16.0110   -3.1270 C   0  0  0  0  0  0  0  0  0  0  0  0
    0.4680   17.8270   -1.6670 C   0  0  0  0  0  0  0  0  0  0  0  0
    1.0530   13.0690    0.4460 C   0  0  1  0  0  0  0  0  0  0  0  0
    1.3800   13.4170    1.9310 C   0  0  0  0  0  0  0  0  0  0  0  0
    1.7720   11.7020    0.1420 C   0  0  0  0  0  0  0  0  0  0  0  0
    1.1580   10.8250   -0.9660 C   0  0  0  0  0  0  0  0  0  0  0  0
   -0.3510   10.6610   -0.7610 C   0  0  2  0  0  0  0  0  0  0  0  0
   -0.5710    9.9140    0.5990 C   0  0  0  0  0  0  0  0  0  0  0  0
    0.5710    7.3189   -2.9236 H   0  0  0  0  0  0  0  0  0  0  0  0
   -1.0206    7.3064   -3.7563 H   0  0  0  0  0  0  0  0  0  0  0  0
   -0.0187    8.7973   -3.7563 H   0  0  0  0  0  0  0  0  0  0  0  0
   -0.3682    8.0454   -1.0369 H   0  0  0  0  0  0  0  0  0  0  0  0
   -2.2963    6.9095   -0.9641 H   0  0  0  0  0  0  0  0  0  0  0  0
   -3.0666    8.5235   -1.3449 H   0  0  0  0  0  0  0  0  0  0  0  0
   -3.3055    8.0018   -3.6218 H   0  0  0  0  0  0  0  0  0  0  0  0
   -2.2075    6.5654   -3.4835 H   0  0  0  0  0  0  0  0  0  0  0  0
   -3.5068    5.5034   -2.2834 H   0  0  0  0  0  0  0  0  0  0  0  0
   -5.8260    8.5151   -1.0735 H   0  0  0  0  0  0  0  0  0  0  0  0
   -4.9707    8.8363   -2.6201 H   0  0  0  0  0  0  0  0  0  0  0  0
   -6.7396    8.5236   -2.6201 H   0  0  0  0  0  0  0  0  0  0  0  0
   -6.3387    5.9949   -0.5063 H   0  0  0  0  0  0  0  0  0  0  0  0
   -7.4961    6.1138   -1.8748 H   0  0  0  0  0  0  0  0  0  0  0  0
   -6.2335    4.8361   -1.8748 H   0  0  0  0  0  0  0  0  0  0  0  0
   -0.6968   10.1212   -2.8506 H   0  0  0  0  0  0  0  0  0  0  0  0
   -3.0590   10.5731   -2.6293 H   0  0  0  0  0  0  0  0  0  0  0  0
   -3.1847    9.6021   -1.1467 H   0  0  0  0  0  0  0  0  0  0  0  0
   -3.1434   12.4575   -1.2638 H   0  0  0  0  0  0  0  0  0  0  0  0
   -2.8875   11.5259    0.2094 H   0  0  0  0  0  0  0  0  0  0  0  0
   -0.5645   13.8551   -2.0409 H   0  0  0  0  0  0  0  0  0  0  0  0
   -0.0376   12.3086   -2.7876 H   0  0  0  0  0  0  0  0  0  0  0  0
   -1.7764   12.7594   -2.7876 H   0  0  0  0  0  0  0  0  0  0  0  0
   -0.8583   12.3801    1.2188 H   0  0  0  0  0  0  0  0  0  0  0  0
   -2.2195   14.2493    0.0819 H   0  0  0  0  0  0  0  0  0  0  0  0
   -1.1437   14.6024    1.5339 H   0  0  0  0  0  0  0  0  0  0  0  0
   -1.0863   16.3708   -0.4176 H   0  0  0  0  0  0  0  0  0  0  0  0
    1.7145   13.6634   -1.4780 H   0  0  0  0  0  0  0  0  0  0  0  0
    2.9613   15.1598    0.9096 H   0  0  0  0  0  0  0  0  0  0  0  0
    3.7076   13.7955   -0.0352 H   0  0  0  0  0  0  0  0  0  0  0  0
    4.6375   15.9970   -0.6762 H   0  0  0  0  0  0  0  0  0  0  0  0
    3.7729   15.1738   -2.0326 H   0  0  0  0  0  0  0  0  0  0  0  0
    3.1802   17.5001   -2.0406 H   0  0  0  0  0  0  0  0  0  0  0  0
    2.9660   16.9990    0.7130 H   0  0  0  0  0  0  0  0  0  0  0  0
    1.3374   14.9112   -3.1309 H   0  0  0  0  0  0  0  0  0  0  0  0
    0.4135   16.3636   -3.6442 H   0  0  0  0  0  0  0  0  0  0  0  0
    2.2095   16.3953   -3.6442 H   0  0  0  0  0  0  0  0  0  0  0  0
    0.2687   18.1363   -0.6304 H   0  0  0  0  0  0  0  0  0  0  0  0
    1.0247   18.6212   -2.1860 H   0  0  0  0  0  0  0  0  0  0  0  0
   -0.4852   17.6481   -2.1860 H   0  0  0  0  0  0  0  0  0  0  0  0
    0.7808   12.7793    2.5975 H   0  0  0  0  0  0  0  0  0  0  0  0
    2.4494   13.2435    2.1213 H   0  0  0  0  0  0  0  0  0  0  0  0
    1.1404   14.4736    2.1213 H   0  0  0  0  0  0  0  0  0  0  0  0
    2.8083   11.9287   -0.1491 H   0  0  0  0  0  0  0  0  0  0  0  0
    1.6706   11.1122    1.0650 H   0  0  0  0  0  0  0  0  0  0  0  0
    1.3393   11.2987   -1.9421 H   0  0  0  0  0  0  0  0  0  0  0  0
    1.6276    9.8310   -0.9278 H   0  0  0  0  0  0  0  0  0  0  0  0
   -0.3682   10.6026    1.4325 H   0  0  0  0  0  0  0  0  0  0  0  0
   -1.6112    9.5613    0.6595 H   0  0  0  0  0  0  0  0  0  0  0  0
    0.1120    9.0538    0.6595 H   0  0  0  0  0  0  0  0  0  0  0  0
  1  2  1  0
  2  3  1  0
  3  4  1  0
  4  5  1  0
  5  6  1  0
  6  7  1  0
  7  8  1  0
  7  9  1  0
  2 10  1  0
 10 11  1  0
 11 12  1  0
 12 13  1  0
 13 14  1  6
 13 15  1  0
 15 16  1  0
 16 17  1  0
 17 18  2  0
 18 19  1  0
 19 20  1  0
 20 21  1  0
 21 22  1  0
 22 23  1  0
 22 24  1  0
 24 25  1  0
 24 26  1  0
 19 27  1  0
 27 28  1  1
 27 29  1  0
 29 30  1  0
 30 31  1  0
 31 32  1  1
  7  5  1  0
 31 10  1  0
 31 13  1  0
 27 15  1  0
 24 18  1  0
  1 33  1  0
  1 34  1  0
  1 35  1  0
  2 36  1  1
  3 37  1  0
  3 38  1  0
  4 39  1  0
  4 40  1  0
  5 41  1  1
  8 42  1  0
  8 43  1  0
  8 44  1  0
  9 45  1  0
  9 46  1  0
  9 47  1  0
 10 48  1  6
 11 49  1  0
 11 50  1  0
 12 51  1  0
 12 52  1  0
 14 53  1  0
 14 54  1  0
 14 55  1  0
 15 56  1  1
 16 57  1  0
 16 58  1  0
 17 59  1  0
 19 60  1  6
 20 61  1  0
 20 62  1  0
 21 63  1  0
 21 64  1  0
 22 65  1  6
 23 66  1  0
 25 67  1  0
 25 68  1  0
 25 69  1  0
 26 70  1  0
 26 71  1  0
 26 72  1  0
 28 73  1  0
 28 74  1  0
 28 75  1  0
 29 76  1  0
 29 77  1  0
 30 78  1  0
 30 79  1  0
 32 80  1  0
 32 81  1  0
 32 82  1  0
M  END
>  <meeko>  (16) 
{"is_sidechain": [false], "intermolecular_energy": 2.731, "internal_energy": -0.839}

$$$$
EPH_relaxed_0001_pdb2pqr_Repair_100_r2_0001_out
     RDKit          3D

 82 86  0  0  0  0  0  0  0  0999 V2000
    1.6410   11.5950   -3.3280 C   0  0  0  0  0  0  0  0  0  0  0  0
    1.0390   11.5740   -1.9200 C   0  0  2  0  0  0  0  0  0  0  0  0
    2.1240   11.5470   -0.8250 C   0  0  0  0  0  0  0  0  0  0  0  0
    2.1980   12.8330    0.0010 C   0  0  0  0  0  0  0  0  0  0  0  0
    2.3390   14.0440   -0.8700 C   0  0  2  0  0  0  0  0  0  0  0  0
    2.2160   15.2960   -0.1810 O   0  0  0  0  0  0  0  0  0  0  0  0
    1.2010   15.0060   -1.1560 C   0  0  0  0  0  0  0  0  0  0  0  0
   -0.1610   14.7990   -0.5730 C   0  0  0  0  0  0  0  0  0  0  0  0
    1.2800   15.8640   -2.3810 C   0  0  0  0  0  0  0  0  0  0  0  0
    0.1140   10.3720   -1.7670 C   0  0  1  0  0  0  0  0  0  0  0  0
    0.6900    9.2930   -0.8120 C   0  0  0  0  0  0  0  0  0  0  0  0
   -0.5160    8.6700   -0.0630 C   0  0  0  0  0  0  0  0  0  0  0  0
   -1.7570    9.1670   -0.8400 C   0  0  1  0  0  0  0  0  0  0  0  0
   -1.8680    8.2130   -2.0710 C   0  0  0  0  0  0  0  0  0  0  0  0
   -3.0970    9.2300   -0.0360 C   0  0  2  0  0  0  0  0  0  0  0  0
   -3.6080    7.8760    0.4880 C   0  0  0  0  0  0  0  0  0  0  0  0
   -4.5220    7.1400   -0.4340 C   0  0  0  0  0  0  0  0  0  0  0  0
   -5.1440    7.6680   -1.5050 C   0  0  0  0  0  0  0  0  0  0  0  0
   -5.0300    9.1640   -1.8240 C   0  0  1  0  0  0  0  0  0  0  0  0
   -6.4360    9.7330   -2.1490 C   0  0  0  0  0  0  0  0  0  0  0  0
   -7.1420    8.9530   -3.2540 C   0  0  0  0  0  0  0  0  0  0  0  0
   -7.2880    7.4820   -2.8740 C   0  0  2  0  0  0  0  0  0  0  0  0
   -8.1870    7.3790   -1.7650 O   0  0  0  0  0  0  0  0  0  0  0  0
   -5.9360    6.8040   -2.5170 C   0  0  0  0  0  0  0  0  0  0  0  0
   -5.0790    6.6450   -3.7970 C   0  0  0  0  0  0  0  0  0  0  0  0
   -6.2410    5.3650   -2.0180 C   0  0  0  0  0  0  0  0  0  0  0  0
   -4.2480   10.0430   -0.7560 C   0  0  1  0  0  0  0  0  0  0  0  0
   -5.2260   10.5160    0.3630 C   0  0  0  0  0  0  0  0  0  0  0  0
   -3.7110   11.3470   -1.4570 C   0  0  0  0  0  0  0  0  0  0  0  0
   -2.3280   11.2540   -2.1300 C   0  0  0  0  0  0  0  0  0  0  0  0
   -1.2980   10.6310   -1.1840 C   0  0  2  0  0  0  0  0  0  0  0  0
   -1.1480   11.5790    0.0530 C   0  0  0  0  0  0  0  0  0  0  0  0
    2.7381   11.6333   -3.2572 H   0  0  0  0  0  0  0  0  0  0  0  0
    1.3400   10.6858   -3.8691 H   0  0  0  0  0  0  0  0  0  0  0  0
    1.2774   12.4810   -3.8691 H   0  0  0  0  0  0  0  0  0  0  0  0
    0.4643   12.5032   -1.7924 H   0  0  0  0  0  0  0  0  0  0  0  0
    1.9099   10.7095   -0.1448 H   0  0  0  0  0  0  0  0  0  0  0  0
    3.0923   11.4371   -1.3352 H   0  0  0  0  0  0  0  0  0  0  0  0
    1.2781   12.9275    0.5966 H   0  0  0  0  0  0  0  0  0  0  0  0
    3.0838   12.7728    0.6504 H   0  0  0  0  0  0  0  0  0  0  0  0
    3.0423   13.5156   -1.5304 H   0  0  0  0  0  0  0  0  0  0  0  0
   -0.0952   14.8090    0.5250 H   0  0  0  0  0  0  0  0  0  0  0  0
   -0.8296   15.6058   -0.9076 H   0  0  0  0  0  0  0  0  0  0  0  0
   -0.5597   13.8299   -0.9076 H   0  0  0  0  0  0  0  0  0  0  0  0
    1.3771   16.9188   -2.0843 H   0  0  0  0  0  0  0  0  0  0  0  0
    2.1548   15.5694   -2.9792 H   0  0  0  0  0  0  0  0  0  0  0  0
    0.3661   15.7341   -2.9792 H   0  0  0  0  0  0  0  0  0  0  0  0
    0.0352   10.0644   -2.8202 H   0  0  0  0  0  0  0  0  0  0  0  0
    1.2184    8.5196   -1.3888 H   0  0  0  0  0  0  0  0  0  0  0  0
    1.4092    9.7335   -0.1058 H   0  0  0  0  0  0  0  0  0  0  0  0
   -0.4599    7.5716   -0.0825 H   0  0  0  0  0  0  0  0  0  0  0  0
   -0.5438    8.9609    0.9975 H   0  0  0  0  0  0  0  0  0  0  0  0
   -1.9886    7.1768   -1.7221 H   0  0  0  0  0  0  0  0  0  0  0  0
   -2.7389    8.4989   -2.6791 H   0  0  0  0  0  0  0  0  0  0  0  0
   -0.9547    8.2913   -2.6791 H   0  0  0  0  0  0  0  0  0  0  0  0
   -2.8096    9.8063    0.8558 H   0  0  0  0  0  0  0  0  0  0  0  0
   -2.7351    7.2359    0.6839 H   0  0  0  0  0  0  0  0  0  0  0  0
   -4.1996    8.1013    1.3876 H   0  0  0  0  0  0  0  0  0  0  0  0
   -4.7028    6.0762   -0.2205 H   0  0  0  0  0  0  0  0  0  0  0  0
   -4.3837    9.2372   -2.7111 H   0  0  0  0  0  0  0  0  0  0  0  0
   -7.0523    9.6911   -1.2388 H   0  0  0  0  0  0  0  0  0  0  0  0
   -6.3044   10.7666   -2.5018 H   0  0  0  0  0  0  0  0  0  0  0  0
   -8.1409    9.3837   -3.4172 H   0  0  0  0  0  0  0  0  0  0  0  0
   -6.5399    9.0209   -4.1720 H   0  0  0  0  0  0  0  0  0  0  0  0
   -7.6811    6.9515   -3.7538 H   0  0  0  0  0  0  0  0  0  0  0  0
   -8.0180    8.1350   -1.1790 H   0  0  0  0  0  0  0  0  0  0  0  0
   -4.0333    6.4510   -3.5163 H   0  0  0  0  0  0  0  0  0  0  0  0
   -5.4613    5.8025   -4.3919 H   0  0  0  0  0  0  0  0  0  0  0  0
   -5.1337    7.5686   -4.3919 H   0  0  0  0  0  0  0  0  0  0  0  0
   -6.2439    5.3512   -0.9181 H   0  0  0  0  0  0  0  0  0  0  0  0
   -7.2262    5.0486   -2.3913 H   0  0  0  0  0  0  0  0  0  0  0  0
   -5.4689    4.6761   -2.3913 H   0  0  0  0  0  0  0  0  0  0  0  0
   -4.7861   10.3032    1.3485 H   0  0  0  0  0  0  0  0  0  0  0  0
   -5.3998   11.5977    0.2649 H   0  0  0  0  0  0  0  0  0  0  0  0
   -6.1819    9.9806    0.2649 H   0  0  0  0  0  0  0  0  0  0  0  0
   -4.4390   11.6331   -2.2304 H   0  0  0  0  0  0  0  0  0  0  0  0
   -3.5882   12.0802   -0.6462 H   0  0  0  0  0  0  0  0  0  0  0  0
   -2.4088   10.6320   -3.0337 H   0  0  0  0  0  0  0  0  0  0  0  0
   -1.9957   12.2699   -2.3897 H   0  0  0  0  0  0  0  0  0  0  0  0
   -1.2409   10.9917    0.9784 H   0  0  0  0  0  0  0  0  0  0  0  0
   -0.1617   12.0653    0.0248 H   0  0  0  0  0  0  0  0  0  0  0  0
   -1.9360   12.3460    0.0248 H   0  0  0  0  0  0  0  0  0  0  0  0
  1  2  1  0
  2  3  1  0
  3  4  1  0
  4  5  1  0
  5  6  1  0
  6  7  1  0
  7  8  1  0
  7  9  1  0
  2 10  1  0
 10 11  1  0
 11 12  1  0
 12 13  1  0
 13 14  1  6
 13 15  1  0
 15 16  1  0
 16 17  1  0
 17 18  2  0
 18 19  1  0
 19 20  1  0
 20 21  1  0
 21 22  1  0
 22 23  1  0
 22 24  1  0
 24 25  1  0
 24 26  1  0
 19 27  1  0
 27 28  1  1
 27 29  1  0
 29 30  1  0
 30 31  1  0
 31 32  1  1
  7  5  1  0
 31 10  1  0
 31 13  1  0
 27 15  1  0
 24 18  1  0
  1 33  1  0
  1 34  1  0
  1 35  1  0
  2 36  1  1
  3 37  1  0
  3 38  1  0
  4 39  1  0
  4 40  1  0
  5 41  1  6
  8 42  1  0
  8 43  1  0
  8 44  1  0
  9 45  1  0
  9 46  1  0
  9 47  1  0
 10 48  1  6
 11 49  1  0
 11 50  1  0
 12 51  1  0
 12 52  1  0
 14 53  1  0
 14 54  1  0
 14 55  1  0
 15 56  1  1
 16 57  1  0
 16 58  1  0
 17 59  1  0
 19 60  1  6
 20 61  1  0
 20 62  1  0
 21 63  1  0
 21 64  1  0
 22 65  1  6
 23 66  1  0
 25 67  1  0
 25 68  1  0
 25 69  1  0
 26 70  1  0
 26 71  1  0
 26 72  1  0
 28 73  1  0
 28 74  1  0
 28 75  1  0
 29 76  1  0
 29 77  1  0
 30 78  1  0
 30 79  1  0
 32 80  1  0
 32 81  1  0
 32 82  1  0
M  END
>  <meeko>  (17) 
{"is_sidechain": [false], "intermolecular_energy": 2.731, "internal_energy": -0.839}

$$$$
EPH_relaxed_0001_pdb2pqr_Repair_100_r2_0001_out
     RDKit          3D

 82 86  0  0  0  0  0  0  0  0999 V2000
    0.9370   12.2270   -3.2380 C   0  0  0  0  0  0  0  0  0  0  0  0
    1.2670   11.4430   -1.9650 C   0  0  2  0  0  0  0  0  0  0  0  0
    2.7220   10.9310   -1.9580 C   0  0  0  0  0  0  0  0  0  0  0  0
    3.4690   11.1840   -3.2710 C   0  0  0  0  0  0  0  0  0  0  0  0
    4.9510   11.2490   -3.0610 C   0  0  2  0  0  0  0  0  0  0  0  0
    5.6220   12.2530   -3.8340 O   0  0  0  0  0  0  0  0  0  0  0  0
    5.9650   10.8890   -4.1310 C   0  0  0  0  0  0  0  0  0  0  0  0
    5.5350   10.4370   -5.4910 C   0  0  0  0  0  0  0  0  0  0  0  0
    7.3490   10.5090   -3.7070 C   0  0  0  0  0  0  0  0  0  0  0  0
    0.3020   10.2740   -1.8090 C   0  0  1  0  0  0  0  0  0  0  0  0
    0.8540    9.1650   -0.8740 C   0  0  0  0  0  0  0  0  0  0  0  0
   -0.3610    8.5780   -0.1110 C   0  0  0  0  0  0  0  0  0  0  0  0
   -1.5960    9.1270   -0.8630 C   0  0  1  0  0  0  0  0  0  0  0  0
   -1.7610    8.1910   -2.1010 C   0  0  0  0  0  0  0  0  0  0  0  0
   -2.9190    9.2300   -0.0360 C   0  0  2  0  0  0  0  0  0  0  0  0
   -3.4700    7.8900    0.4820 C   0  0  0  0  0  0  0  0  0  0  0  0
   -4.4260    7.1970   -0.4320 C   0  0  0  0  0  0  0  0  0  0  0  0
   -5.0450    7.7580   -1.4870 C   0  0  0  0  0  0  0  0  0  0  0  0
   -4.8820    9.2520   -1.7930 C   0  0  1  0  0  0  0  0  0  0  0  0
   -6.2720    9.8750   -2.0880 C   0  0  0  0  0  0  0  0  0  0  0  0
   -7.0240    9.1330   -3.1890 C   0  0  0  0  0  0  0  0  0  0  0  0
   -7.2170    7.6630   -2.8220 C   0  0  2  0  0  0  0  0  0  0  0  0
   -8.1000    7.5810   -1.6990 O   0  0  0  0  0  0  0  0  0  0  0  0
   -5.8850    6.9330   -2.4940 C   0  0  0  0  0  0  0  0  0  0  0  0
   -5.0550    6.7580   -3.7890 C   0  0  0  0  0  0  0  0  0  0  0  0
   -6.2330    5.5020   -2.0040 C   0  0  0  0  0  0  0  0  0  0  0  0
   -4.0520   10.0910   -0.7290 C   0  0  1  0  0  0  0  0  0  0  0  0
   -4.9940   10.5870    0.4110 C   0  0  0  0  0  0  0  0  0  0  0  0
   -3.4790   11.3820   -1.4250 C   0  0  0  0  0  0  0  0  0  0  0  0
   -2.1120   11.2470   -2.1230 C   0  0  0  0  0  0  0  0  0  0  0  0
   -1.0900   10.5770   -1.2000 C   0  0  2  0  0  0  0  0  0  0  0  0
   -0.8860   11.5070    0.0440 C   0  0  0  0  0  0  0  0  0  0  0  0
    0.5234   13.2095   -2.9667 H   0  0  0  0  0  0  0  0  0  0  0  0
    1.8530   12.3658   -3.8310 H   0  0  0  0  0  0  0  0  0  0  0  0
    0.1974   11.6689   -3.8310 H   0  0  0  0  0  0  0  0  0  0  0  0
    1.1561   12.1319   -1.1147 H   0  0  0  0  0  0  0  0  0  0  0  0
    3.2647   11.4376   -1.1463 H   0  0  0  0  0  0  0  0  0  0  0  0
    2.6790    9.8409   -1.8170 H   0  0  0  0  0  0  0  0  0  0  0  0
    3.2437   10.3672   -3.9725 H   0  0  0  0  0  0  0  0  0  0  0  0
    3.1367   12.1521   -3.6739 H   0  0  0  0  0  0  0  0  0  0  0  0
    4.8398   10.9316   -2.0137 H   0  0  0  0  0  0  0  0  0  0  0  0
    4.7799    9.6433   -5.3919 H   0  0  0  0  0  0  0  0  0  0  0  0
    5.1038   11.2868   -6.0405 H   0  0  0  0  0  0  0  0  0  0  0  0
    6.4052   10.0487   -6.0405 H   0  0  0  0  0  0  0  0  0  0  0  0
    7.4047   10.4937   -2.6085 H   0  0  0  0  0  0  0  0  0  0  0  0
    7.5920    9.5109   -4.1004 H   0  0  0  0  0  0  0  0  0  0  0  0
    8.0676   11.2431   -4.1004 H   0  0  0  0  0  0  0  0  0  0  0  0
    0.1952    9.9809   -2.8638 H   0  0  0  0  0  0  0  0  0  0  0  0
    1.3447    8.3791   -1.4670 H   0  0  0  0  0  0  0  0  0  0  0  0
    1.5999    9.5722   -0.1756 H   0  0  0  0  0  0  0  0  0  0  0  0
   -0.3446    7.4786   -0.1418 H   0  0  0  0  0  0  0  0  0  0  0  0
   -0.3612    8.8590    0.9525 H   0  0  0  0  0  0  0  0  0  0  0  0
   -1.9426    7.1610   -1.7603 H   0  0  0  0  0  0  0  0  0  0  0  0
   -2.6129    8.5321   -2.7076 H   0  0  0  0  0  0  0  0  0  0  0  0
   -0.8439    8.2202   -2.7076 H   0  0  0  0  0  0  0  0  0  0  0  0
   -2.5964    9.7863    0.8564 H   0  0  0  0  0  0  0  0  0  0  0  0
   -2.6178    7.2167    0.6562 H   0  0  0  0  0  0  0  0  0  0  0  0
   -4.0382    8.1268    1.3936 H   0  0  0  0  0  0  0  0  0  0  0  0
   -4.6426    6.1385   -0.2255 H   0  0  0  0  0  0  0  0  0  0  0  0
   -4.2481    9.3109   -2.6900 H   0  0  0  0  0  0  0  0  0  0  0  0
   -6.8742    9.8452   -1.1680 H   0  0  0  0  0  0  0  0  0  0  0  0
   -6.1091   10.9070   -2.4320 H   0  0  0  0  0  0  0  0  0  0  0  0
   -8.0093    9.6012   -3.3307 H   0  0  0  0  0  0  0  0  0  0  0  0
   -6.4349    9.1893   -4.1163 H   0  0  0  0  0  0  0  0  0  0  0  0
   -7.6431    7.1567   -3.7007 H   0  0  0  0  0  0  0  0  0  0  0  0
   -8.6750    6.8080   -1.8330 H   0  0  0  0  0  0  0  0  0  0  0  0
   -4.0095    6.5376   -3.5275 H   0  0  0  0  0  0  0  0  0  0  0  0
   -5.4681    5.9272   -4.3799 H   0  0  0  0  0  0  0  0  0  0  0  0
   -5.0976    7.6849   -4.3799 H   0  0  0  0  0  0  0  0  0  0  0  0
   -6.2378    5.4821   -0.9042 H   0  0  0  0  0  0  0  0  0  0  0  0
   -7.2266    5.2171   -2.3803 H   0  0  0  0  0  0  0  0  0  0  0  0
   -5.4812    4.7926   -2.3803 H   0  0  0  0  0  0  0  0  0  0  0  0
   -4.5448   10.3505    1.3868 H   0  0  0  0  0  0  0  0  0  0  0  0
   -5.1323   11.6749    0.3251 H   0  0  0  0  0  0  0  0  0  0  0  0
   -5.9692   10.0855    0.3251 H   0  0  0  0  0  0  0  0  0  0  0  0
   -4.2090   11.7034   -2.1825 H   0  0  0  0  0  0  0  0  0  0  0  0
   -3.3152   12.1004   -0.6082 H   0  0  0  0  0  0  0  0  0  0  0  0
   -2.2302   10.6381   -3.0314 H   0  0  0  0  0  0  0  0  0  0  0  0
   -1.7476   12.2528   -2.3789 H   0  0  0  0  0  0  0  0  0  0  0  0
   -1.0147   10.9202    0.9655 H   0  0  0  0  0  0  0  0  0  0  0  0
    0.1273   11.9345    0.0200 H   0  0  0  0  0  0  0  0  0  0  0  0
   -1.6273   12.3193    0.0200 H   0  0  0  0  0  0  0  0  0  0  0  0
  1  2  1  0
  2  3  1  0
  3  4  1  0
  4  5  1  0
  5  6  1  0
  6  7  1  0
  7  8  1  0
  7  9  1  0
  2 10  1  0
 10 11  1  0
 11 12  1  0
 12 13  1  0
 13 14  1  6
 13 15  1  0
 15 16  1  0
 16 17  1  0
 17 18  2  0
 18 19  1  0
 19 20  1  0
 20 21  1  0
 21 22  1  0
 22 23  1  0
 22 24  1  0
 24 25  1  0
 24 26  1  0
 19 27  1  0
 27 28  1  1
 27 29  1  0
 29 30  1  0
 30 31  1  0
 31 32  1  1
  7  5  1  0
 31 10  1  0
 31 13  1  0
 27 15  1  0
 24 18  1  0
  1 33  1  0
  1 34  1  0
  1 35  1  0
  2 36  1  1
  3 37  1  0
  3 38  1  0
  4 39  1  0
  4 40  1  0
  5 41  1  1
  8 42  1  0
  8 43  1  0
  8 44  1  0
  9 45  1  0
  9 46  1  0
  9 47  1  0
 10 48  1  6
 11 49  1  0
 11 50  1  0
 12 51  1  0
 12 52  1  0
 14 53  1  0
 14 54  1  0
 14 55  1  0
 15 56  1  1
 16 57  1  0
 16 58  1  0
 17 59  1  0
 19 60  1  6
 20 61  1  0
 20 62  1  0
 21 63  1  0
 21 64  1  0
 22 65  1  6
 23 66  1  0
 25 67  1  0
 25 68  1  0
 25 69  1  0
 26 70  1  0
 26 71  1  0
 26 72  1  0
 28 73  1  0
 28 74  1  0
 28 75  1  0
 29 76  1  0
 29 77  1  0
 30 78  1  0
 30 79  1  0
 32 80  1  0
 32 81  1  0
 32 82  1  0
M  END
>  <meeko>  (18) 
{"is_sidechain": [false], "intermolecular_energy": 2.731, "internal_energy": -0.839}

$$$$
