EPH_relaxed_0001_pdb2pqr_Repair_247_r2_0001_out
     RDKit          3D

 82 86  0  0  0  0  0  0  0  0999 V2000
   -1.7050    8.5900   -1.8710 C   0  0  0  0  0  0  0  0  0  0  0  0
   -2.0820    9.1180   -0.4840 C   0  0  2  0  0  0  0  0  0  0  0  0
   -3.5740    9.4940   -0.3920 C   0  0  0  0  0  0  0  0  0  0  0  0
   -4.5060    8.2880   -0.2470 C   0  0  0  0  0  0  0  0  0  0  0  0
   -5.2020    7.9670   -1.5350 C   0  0  2  0  0  0  0  0  0  0  0  0
   -6.3630    8.7650   -1.8030 O   0  0  0  0  0  0  0  0  0  0  0  0
   -6.5900    7.3600   -1.6070 C   0  0  0  0  0  0  0  0  0  0  0  0
   -7.3650    7.0360   -0.3680 C   0  0  0  0  0  0  0  0  0  0  0  0
   -6.9900    6.6340   -2.8540 C   0  0  0  0  0  0  0  0  0  0  0  0
   -1.2180   10.3240   -0.1350 C   0  0  1  0  0  0  0  0  0  0  0  0
   -0.1800   10.0130    0.9760 C   0  0  0  0  0  0  0  0  0  0  0  0
    1.0900   10.8390    0.6460 C   0  0  0  0  0  0  0  0  0  0  0  0
    0.6320   11.8410   -0.4400 C   0  0  1  0  0  0  0  0  0  0  0  0
   -0.0670   12.9940    0.3460 C   0  0  0  0  0  0  0  0  0  0  0  0
    1.7460   12.3840   -1.3920 C   0  0  2  0  0  0  0  0  0  0  0  0
    2.8560   13.1960   -0.7020 C   0  0  0  0  0  0  0  0  0  0  0  0
    2.6080   14.6660   -0.6110 C   0  0  0  0  0  0  0  0  0  0  0  0
    1.6820   15.3470   -1.3110 C   0  0  0  0  0  0  0  0  0  0  0  0
    0.8290   14.6490   -2.3770 C   0  0  1  0  0  0  0  0  0  0  0  0
    0.7950   15.5160   -3.6630 C   0  0  0  0  0  0  0  0  0  0  0  0
    0.3360   16.9460   -3.3930 C   0  0  0  0  0  0  0  0  0  0  0  0
    1.2430   17.6260   -2.3710 C   0  0  2  0  0  0  0  0  0  0  0  0
    2.5420   17.7950   -2.9480 O   0  0  0  0  0  0  0  0  0  0  0  0
    1.3630   16.8380   -1.0370 C   0  0  0  0  0  0  0  0  0  0  0  0
    0.0220   16.9140   -0.2650 C   0  0  0  0  0  0  0  0  0  0  0  0
    2.4150   17.5570   -0.1500 C   0  0  0  0  0  0  0  0  0  0  0  0
    1.1960   13.1310   -2.6740 C   0  0  1  0  0  0  0  0  0  0  0  0
    2.3210   13.0570   -3.7510 C   0  0  0  0  0  0  0  0  0  0  0  0
   -0.0600   12.4110   -3.2940 C   0  0  0  0  0  0  0  0  0  0  0  0
   -1.0630   11.7900   -2.3030 C   0  0  0  0  0  0  0  0  0  0  0  0
   -0.3440   10.9240   -1.2640 C   0  0  2  0  0  0  0  0  0  0  0  0
    0.3500    9.7430   -2.0240 C   0  0  0  0  0  0  0  0  0  0  0  0
   -1.0688    7.6990   -1.7637 H   0  0  0  0  0  0  0  0  0  0  0  0
   -2.6186    8.3239   -2.4228 H   0  0  0  0  0  0  0  0  0  0  0  0
   -1.1567    9.3677   -2.4228 H   0  0  0  0  0  0  0  0  0  0  0  0
   -1.9006    8.3091    0.2390 H   0  0  0  0  0  0  0  0  0  0  0  0
   -3.7139   10.1478    0.4815 H   0  0  0  0  0  0  0  0  0  0  0  0
   -3.8383    9.9921   -1.3365 H   0  0  0  0  0  0  0  0  0  0  0  0
   -3.9137    7.4153    0.0652 H   0  0  0  0  0  0  0  0  0  0  0  0
   -5.2711    8.5343    0.5040 H   0  0  0  0  0  0  0  0  0  0  0  0
   -4.2490    7.6869   -2.0076 H   0  0  0  0  0  0  0  0  0  0  0  0
   -6.7628    7.2877    0.5175 H   0  0  0  0  0  0  0  0  0  0  0  0
   -8.2973    7.6197   -0.3555 H   0  0  0  0  0  0  0  0  0  0  0  0
   -7.6044    5.9624   -0.3555 H   0  0  0  0  0  0  0  0  0  0  0  0
   -7.5047    5.6998   -2.5852 H   0  0  0  0  0  0  0  0  0  0  0  0
   -7.6662    7.2679   -3.4464 H   0  0  0  0  0  0  0  0  0  0  0  0
   -6.0929    6.4010   -3.4464 H   0  0  0  0  0  0  0  0  0  0  0  0
   -2.0048   11.0376    0.1509 H   0  0  0  0  0  0  0  0  0  0  0  0
   -0.5778   10.3062    1.9588 H   0  0  0  0  0  0  0  0  0  0  0  0
    0.0474    8.9374    1.0140 H   0  0  0  0  0  0  0  0  0  0  0  0
    1.4499   11.3714    1.5388 H   0  0  0  0  0  0  0  0  0  0  0  0
    1.9226   10.2060    0.3053 H   0  0  0  0  0  0  0  0  0  0  0  0
    0.0395   12.8182    1.4266 H   0  0  0  0  0  0  0  0  0  0  0  0
    0.4014   13.9538    0.0827 H   0  0  0  0  0  0  0  0  0  0  0  0
   -1.1346   13.0226    0.0827 H   0  0  0  0  0  0  0  0  0  0  0  0
    2.2268   11.4590   -1.7429 H   0  0  0  0  0  0  0  0  0  0  0  0
    2.9760   12.8076    0.3201 H   0  0  0  0  0  0  0  0  0  0  0  0
    3.7535   13.0768   -1.3267 H   0  0  0  0  0  0  0  0  0  0  0  0
    3.2350   15.2404    0.0869 H   0  0  0  0  0  0  0  0  0  0  0  0
   -0.1830   14.5707   -1.9530 H   0  0  0  0  0  0  0  0  0  0  0  0
    1.8062   15.5459   -4.0949 H   0  0  0  0  0  0  0  0  0  0  0  0
    0.0725   15.0586   -4.3549 H   0  0  0  0  0  0  0  0  0  0  0  0
    0.3622   17.5162   -4.3333 H   0  0  0  0  0  0  0  0  0  0  0  0
   -0.6870   16.9162   -2.9898 H   0  0  0  0  0  0  0  0  0  0  0  0
    0.7889   18.5964   -2.1218 H   0  0  0  0  0  0  0  0  0  0  0  0
    2.6800   17.0670   -3.5780 H   0  0  0  0  0  0  0  0  0  0  0  0
    0.2206   16.9027    0.8169 H   0  0  0  0  0  0  0  0  0  0  0  0
   -0.5026   17.8433   -0.5319 H   0  0  0  0  0  0  0  0  0  0  0  0
   -0.6042   16.0499   -0.5319 H   0  0  0  0  0  0  0  0  0  0  0  0
    2.1743   17.3925    0.9107 H   0  0  0  0  0  0  0  0  0  0  0  0
    3.4148   17.1525   -0.3661 H   0  0  0  0  0  0  0  0  0  0  0  0
    2.4012   18.6355   -0.3661 H   0  0  0  0  0  0  0  0  0  0  0  0
    3.3004   12.9926   -3.2544 H   0  0  0  0  0  0  0  0  0  0  0  0
    2.1692   12.1669   -4.3792 H   0  0  0  0  0  0  0  0  0  0  0  0
    2.2871   13.9593   -4.3792 H   0  0  0  0  0  0  0  0  0  0  0  0
   -0.6041   13.1520   -3.8980 H   0  0  0  0  0  0  0  0  0  0  0  0
    0.3462   11.5619   -3.8631 H   0  0  0  0  0  0  0  0  0  0  0  0
   -1.6044   12.5963   -1.7865 H   0  0  0  0  0  0  0  0  0  0  0  0
   -1.7628   11.1542   -2.8651 H   0  0  0  0  0  0  0  0  0  0  0  0
    0.7674    9.0328   -1.2950 H   0  0  0  0  0  0  0  0  0  0  0  0
   -0.3894    9.2284   -2.6553 H   0  0  0  0  0  0  0  0  0  0  0  0
    1.1593   10.1385   -2.6553 H   0  0  0  0  0  0  0  0  0  0  0  0
  1  2  1  0
  2  3  1  0
  3  4  1  0
  4  5  1  0
  5  6  1  0
  6  7  1  0
  7  8  1  0
  7  9  1  0
  2 10  1  0
 10 11  1  0
 11 12  1  0
 12 13  1  0
 13 14  1  1
 13 15  1  0
 15 16  1  0
 16 17  1  0
 17 18  2  0
 18 19  1  0
 19 20  1  0
 20 21  1  0
 21 22  1  0
 22 23  1  0
 22 24  1  0
 24 25  1  0
 24 26  1  0
 19 27  1  0
 27 28  1  6
 27 29  1  0
 29 30  1  0
 30 31  1  0
 31 32  1  6
  7  5  1  0
 31 10  1  0
 31 13  1  0
 27 15  1  0
 24 18  1  0
  1 33  1  0
  1 34  1  0
  1 35  1  0
  2 36  1  1
  3 37  1  0
  3 38  1  0
  4 39  1  0
  4 40  1  0
  5 41  1  6
  8 42  1  0
  8 43  1  0
  8 44  1  0
  9 45  1  0
  9 46  1  0
  9 47  1  0
 10 48  1  1
 11 49  1  0
 11 50  1  0
 12 51  1  0
 12 52  1  0
 14 53  1  0
 14 54  1  0
 14 55  1  0
 15 56  1  6
 16 57  1  0
 16 58  1  0
 17 59  1  0
 19 60  1  1
 20 61  1  0
 20 62  1  0
 21 63  1  0
 21 64  1  0
 22 65  1  1
 23 66  1  0
 25 67  1  0
 25 68  1  0
 25 69  1  0
 26 70  1  0
 26 71  1  0
 26 72  1  0
 28 73  1  0
 28 74  1  0
 28 75  1  0
 29 76  1  0
 29 77  1  0
 30 78  1  0
 30 79  1  0
 32 80  1  0
 32 81  1  0
 32 82  1  0
M  END
>  <meeko>  (1) 
{"is_sidechain": [false], "intermolecular_energy": 2.731, "internal_energy": -0.839}

$$$$
EPH_relaxed_0001_pdb2pqr_Repair_247_r2_0001_out
     RDKit          3D

 82 86  0  0  0  0  0  0  0  0999 V2000
    0.3640   18.4390   -0.0750 C   0  0  0  0  0  0  0  0  0  0  0  0
    1.4520   17.3780   -0.2640 C   0  0  2  0  0  0  0  0  0  0  0  0
    2.6790   17.9320   -1.0160 C   0  0  0  0  0  0  0  0  0  0  0  0
    3.9060   18.1360   -0.1250 C   0  0  0  0  0  0  0  0  0  0  0  0
    3.5250   18.6230    1.2410 C   0  0  2  0  0  0  0  0  0  0  0  0
    3.7450   20.0220    1.4610 O   0  0  0  0  0  0  0  0  0  0  0  0
    4.5300   19.1240    2.2610 C   0  0  0  0  0  0  0  0  0  0  0  0
    5.9950   19.1610    1.9600 C   0  0  0  0  0  0  0  0  0  0  0  0
    4.1460   19.1130    3.7080 C   0  0  0  0  0  0  0  0  0  0  0  0
    0.8820   16.1770   -1.0090 C   0  0  1  0  0  0  0  0  0  0  0  0
    0.7500   16.4280   -2.5350 C   0  0  0  0  0  0  0  0  0  0  0  0
    1.0450   15.0780   -3.2380 C   0  0  0  0  0  0  0  0  0  0  0  0
    1.0080   14.0300   -2.1010 C   0  0  1  0  0  0  0  0  0  0  0  0
   -0.5080   13.7290   -1.8810 C   0  0  0  0  0  0  0  0  0  0  0  0
    1.8280   12.7200   -2.3410 C   0  0  2  0  0  0  0  0  0  0  0  0
    1.3600   11.8680   -3.5340 C   0  0  0  0  0  0  0  0  0  0  0  0
    0.3330   10.8320   -3.2130 C   0  0  0  0  0  0  0  0  0  0  0  0
    0.0150   10.4030   -1.9780 C   0  0  0  0  0  0  0  0  0  0  0  0
    0.7850   10.9000   -0.7480 C   0  0  1  0  0  0  0  0  0  0  0  0
    1.1470    9.6940    0.1580 C   0  0  0  0  0  0  0  0  0  0  0  0
   -0.0720    8.8560    0.5320 C   0  0  0  0  0  0  0  0  0  0  0  0
   -0.7770    8.3320   -0.7160 C   0  0  2  0  0  0  0  0  0  0  0  0
    0.0830    7.3960   -1.3730 O   0  0  0  0  0  0  0  0  0  0  0  0
   -1.1820    9.4570   -1.7090 C   0  0  0  0  0  0  0  0  0  0  0  0
   -2.3370   10.2930   -1.1060 C   0  0  0  0  0  0  0  0  0  0  0  0
   -1.7550    8.7840   -2.9860 C   0  0  0  0  0  0  0  0  0  0  0  0
    2.0330   11.8370   -1.0440 C   0  0  1  0  0  0  0  0  0  0  0  0
    3.3040   10.9680   -1.2940 C   0  0  0  0  0  0  0  0  0  0  0  0
    2.3360   12.7090    0.2310 C   0  0  0  0  0  0  0  0  0  0  0  0
    1.5830   14.0480    0.3520 C   0  0  0  0  0  0  0  0  0  0  0  0
    1.6860   14.8540   -0.9460 C   0  0  2  0  0  0  0  0  0  0  0  0
    3.1980   15.1910   -1.1820 C   0  0  0  0  0  0  0  0  0  0  0  0
    0.1951   18.6037    0.9994 H   0  0  0  0  0  0  0  0  0  0  0  0
    0.6847   19.3807   -0.5443 H   0  0  0  0  0  0  0  0  0  0  0  0
   -0.5694   18.0947   -0.5443 H   0  0  0  0  0  0  0  0  0  0  0  0
    1.7905   17.0686    0.7359 H   0  0  0  0  0  0  0  0  0  0  0  0
    2.9444   17.2251   -1.8159 H   0  0  0  0  0  0  0  0  0  0  0  0
    2.3972   18.9210   -1.4063 H   0  0  0  0  0  0  0  0  0  0  0  0
    4.4381   17.1783   -0.0264 H   0  0  0  0  0  0  0  0  0  0  0  0
    4.5473   18.8970   -0.5937 H   0  0  0  0  0  0  0  0  0  0  0  0
    2.7158   17.8807    1.3054 H   0  0  0  0  0  0  0  0  0  0  0  0
    6.5626   19.1753    2.9021 H   0  0  0  0  0  0  0  0  0  0  0  0
    6.2724   18.2696    1.3783 H   0  0  0  0  0  0  0  0  0  0  0  0
    6.2271   20.0653    1.3783 H   0  0  0  0  0  0  0  0  0  0  0  0
    5.0539   19.1390    4.3285 H   0  0  0  0  0  0  0  0  0  0  0  0
    3.5253   19.9937    3.9293 H   0  0  0  0  0  0  0  0  0  0  0  0
    3.5767   18.1982    3.9293 H   0  0  0  0  0  0  0  0  0  0  0  0
   -0.0720   16.0637   -0.4733 H   0  0  0  0  0  0  0  0  0  0  0  0
   -0.2685   16.7661   -2.7765 H   0  0  0  0  0  0  0  0  0  0  0  0
    1.4500   17.2081   -2.8688 H   0  0  0  0  0  0  0  0  0  0  0  0
    0.2770   14.8579   -3.9942 H   0  0  0  0  0  0  0  0  0  0  0  0
    2.0091   15.0853   -3.7675 H   0  0  0  0  0  0  0  0  0  0  0  0
   -0.7207   13.6868   -0.8026 H   0  0  0  0  0  0  0  0  0  0  0  0
   -1.1106   14.5250   -2.3427 H   0  0  0  0  0  0  0  0  0  0  0  0
   -0.7608   12.7631   -2.3427 H   0  0  0  0  0  0  0  0  0  0  0  0
    2.8182   13.1083   -2.6214 H   0  0  0  0  0  0  0  0  0  0  0  0
    0.9353   12.5452   -4.2897 H   0  0  0  0  0  0  0  0  0  0  0  0
    2.2472   11.3196   -3.8835 H   0  0  0  0  0  0  0  0  0  0  0  0
   -0.2091   10.3817   -4.0576 H   0  0  0  0  0  0  0  0  0  0  0  0
    0.1015   11.5763   -0.2137 H   0  0  0  0  0  0  0  0  0  0  0  0
    1.8641    9.0540   -0.3769 H   0  0  0  0  0  0  0  0  0  0  0  0
    1.5761   10.0929    1.0890 H   0  0  0  0  0  0  0  0  0  0  0  0
    0.2521    8.0036    1.1471 H   0  0  0  0  0  0  0  0  0  0  0  0
   -0.7751    9.4895    1.0927 H   0  0  0  0  0  0  0  0  0  0  0  0
   -1.7110    7.8512   -0.3897 H   0  0  0  0  0  0  0  0  0  0  0  0
   -0.4700    6.8420   -1.9490 H   0  0  0  0  0  0  0  0  0  0  0  0
   -2.2833   10.2541   -0.0080 H   0  0  0  0  0  0  0  0  0  0  0  0
   -2.2476   11.3370   -1.4408 H   0  0  0  0  0  0  0  0  0  0  0  0
   -3.3008    9.8819   -1.4408 H   0  0  0  0  0  0  0  0  0  0  0  0
   -2.4431    7.9758   -2.6973 H   0  0  0  0  0  0  0  0  0  0  0  0
   -2.2977    9.5320   -3.5826 H   0  0  0  0  0  0  0  0  0  0  0  0
   -0.9300    8.3675   -3.5826 H   0  0  0  0  0  0  0  0  0  0  0  0
    3.7400   10.6699   -0.3291 H   0  0  0  0  0  0  0  0  0  0  0  0
    3.0272   10.0692   -1.8646 H   0  0  0  0  0  0  0  0  0  0  0  0
    4.0411   11.5521   -1.8646 H   0  0  0  0  0  0  0  0  0  0  0  0
    2.0843   12.1046    1.1150 H   0  0  0  0  0  0  0  0  0  0  0  0
    3.3981   12.9827    0.1468 H   0  0  0  0  0  0  0  0  0  0  0  0
    0.5233   13.8467    0.5674 H   0  0  0  0  0  0  0  0  0  0  0  0
    2.0368   14.6334    1.1653 H   0  0  0  0  0  0  0  0  0  0  0  0
    3.7043   15.3038   -0.2120 H   0  0  0  0  0  0  0  0  0  0  0  0
    3.6710   14.3762   -1.7499 H   0  0  0  0  0  0  0  0  0  0  0  0
    3.2802   16.1295   -1.7499 H   0  0  0  0  0  0  0  0  0  0  0  0
  1  2  1  0
  2  3  1  0
  3  4  1  0
  4  5  1  0
  5  6  1  0
  6  7  1  0
  7  8  1  0
  7  9  1  0
  2 10  1  0
 10 11  1  0
 11 12  1  0
 12 13  1  0
 13 14  1  1
 13 15  1  0
 15 16  1  0
 16 17  1  0
 17 18  2  0
 18 19  1  0
 19 20  1  0
 20 21  1  0
 21 22  1  0
 22 23  1  0
 22 24  1  0
 24 25  1  0
 24 26  1  0
 19 27  1  0
 27 28  1  6
 27 29  1  0
 29 30  1  0
 30 31  1  0
 31 32  1  6
  7  5  1  0
 31 10  1  0
 31 13  1  0
 27 15  1  0
 24 18  1  0
  1 33  1  0
  1 34  1  0
  1 35  1  0
  2 36  1  1
  3 37  1  0
  3 38  1  0
  4 39  1  0
  4 40  1  0
  5 41  1  1
  8 42  1  0
  8 43  1  0
  8 44  1  0
  9 45  1  0
  9 46  1  0
  9 47  1  0
 10 48  1  1
 11 49  1  0
 11 50  1  0
 12 51  1  0
 12 52  1  0
 14 53  1  0
 14 54  1  0
 14 55  1  0
 15 56  1  6
 16 57  1  0
 16 58  1  0
 17 59  1  0
 19 60  1  1
 20 61  1  0
 20 62  1  0
 21 63  1  0
 21 64  1  0
 22 65  1  1
 23 66  1  0
 25 67  1  0
 25 68  1  0
 25 69  1  0
 26 70  1  0
 26 71  1  0
 26 72  1  0
 28 73  1  0
 28 74  1  0
 28 75  1  0
 29 76  1  0
 29 77  1  0
 30 78  1  0
 30 79  1  0
 32 80  1  0
 32 81  1  0
 32 82  1  0
M  END
>  <meeko>  (2) 
{"is_sidechain": [false], "intermolecular_energy": 2.731, "internal_energy": -0.839}

$$$$
EPH_relaxed_0001_pdb2pqr_Repair_247_r2_0001_out
     RDKit          3D

 82 86  0  0  0  0  0  0  0  0999 V2000
    4.1570   17.5120   -0.0680 C   0  0  0  0  0  0  0  0  0  0  0  0
    2.7490   18.1080   -0.1470 C   0  0  2  0  0  0  0  0  0  0  0  0
    2.4600   19.0720    1.0210 C   0  0  0  0  0  0  0  0  0  0  0  0
    3.6940   19.8350    1.5080 C   0  0  0  0  0  0  0  0  0  0  0  0
    4.2210   19.2750    2.7950 C   0  0  2  0  0  0  0  0  0  0  0  0
    4.9960   20.1930    3.5750 O   0  0  0  0  0  0  0  0  0  0  0  0
    5.6960   19.0460    3.0660 C   0  0  0  0  0  0  0  0  0  0  0  0
    6.7370   19.3730    2.0430 C   0  0  0  0  0  0  0  0  0  0  0  0
    6.0840   18.0590    4.1230 C   0  0  0  0  0  0  0  0  0  0  0  0
    1.7120   16.9900   -0.1680 C   0  0  1  0  0  0  0  0  0  0  0  0
    0.2920   17.5000   -0.5340 C   0  0  0  0  0  0  0  0  0  0  0  0
   -0.3880   16.3760   -1.3580 C   0  0  0  0  0  0  0  0  0  0  0  0
    0.5220   15.1410   -1.1580 C   0  0  1  0  0  0  0  0  0  0  0  0
    0.1030   14.5540    0.2260 C   0  0  0  0  0  0  0  0  0  0  0  0
    0.4730   14.0570   -2.2840 C   0  0  2  0  0  0  0  0  0  0  0  0
   -0.8940   13.3790   -2.4770 C   0  0  0  0  0  0  0  0  0  0  0  0
   -1.1140   12.1440   -1.6680 C   0  0  0  0  0  0  0  0  0  0  0  0
   -0.1550   11.4410   -1.0370 C   0  0  0  0  0  0  0  0  0  0  0  0
    1.3250   11.8190   -1.1850 C   0  0  1  0  0  0  0  0  0  0  0  0
    2.1600   10.5420   -1.4650 C   0  0  0  0  0  0  0  0  0  0  0  0
    1.9370    9.4560   -0.4170 C   0  0  0  0  0  0  0  0  0  0  0  0
    0.4630    9.0660   -0.3410 C   0  0  2  0  0  0  0  0  0  0  0  0
    0.0900    8.4300   -1.5670 O   0  0  0  0  0  0  0  0  0  0  0  0
   -0.4770   10.2740   -0.0720 C   0  0  0  0  0  0  0  0  0  0  0  0
   -0.2780   10.7760    1.3800 C   0  0  0  0  0  0  0  0  0  0  0  0
   -1.9420    9.7680   -0.1590 C   0  0  0  0  0  0  0  0  0  0  0  0
    1.6410   12.9920   -2.2100 C   0  0  1  0  0  0  0  0  0  0  0  0
    1.8070   12.4130   -3.6480 C   0  0  0  0  0  0  0  0  0  0  0  0
    3.0230   13.6450   -1.8320 C   0  0  0  0  0  0  0  0  0  0  0  0
    2.9920   14.7920   -0.8030 C   0  0  0  0  0  0  0  0  0  0  0  0
    1.9330   15.8340   -1.1750 C   0  0  2  0  0  0  0  0  0  0  0  0
    2.3400   16.4580   -2.5530 C   0  0  0  0  0  0  0  0  0  0  0  0
    4.4449   17.3901    0.9866 H   0  0  0  0  0  0  0  0  0  0  0  0
    4.1687   16.5317   -0.5669 H   0  0  0  0  0  0  0  0  0  0  0  0
    4.8690   18.1859   -0.5669 H   0  0  0  0  0  0  0  0  0  0  0  0
    2.6878   18.6901   -1.0784 H   0  0  0  0  0  0  0  0  0  0  0  0
    1.7078   19.8031    0.6900 H   0  0  0  0  0  0  0  0  0  0  0  0
    2.1071   18.4595    1.8638 H   0  0  0  0  0  0  0  0  0  0  0  0
    4.4802   19.7674    0.7416 H   0  0  0  0  0  0  0  0  0  0  0  0
    3.4028   20.8811    1.6834 H   0  0  0  0  0  0  0  0  0  0  0  0
    3.3420   18.6217    2.8973 H   0  0  0  0  0  0  0  0  0  0  0  0
    7.6689   19.6657    2.5488 H   0  0  0  0  0  0  0  0  0  0  0  0
    6.9230   18.4900    1.4139 H   0  0  0  0  0  0  0  0  0  0  0  0
    6.3847   20.2037    1.4139 H   0  0  0  0  0  0  0  0  0  0  0  0
    5.9112   18.4987    5.1164 H   0  0  0  0  0  0  0  0  0  0  0  0
    5.4771   17.1480    4.0146 H   0  0  0  0  0  0  0  0  0  0  0  0
    7.1488   17.8052    4.0146 H   0  0  0  0  0  0  0  0  0  0  0  0
    1.8205   16.6178    0.8614 H   0  0  0  0  0  0  0  0  0  0  0  0
   -0.2854   17.7018    0.3803 H   0  0  0  0  0  0  0  0  0  0  0  0
    0.3445   18.4357   -1.1100 H   0  0  0  0  0  0  0  0  0  0  0  0
   -1.4018   16.1767   -0.9804 H   0  0  0  0  0  0  0  0  0  0  0  0
   -0.4991   16.6451   -2.4188 H   0  0  0  0  0  0  0  0  0  0  0  0
    0.5389   15.1647    1.0304 H   0  0  0  0  0  0  0  0  0  0  0  0
   -0.9936   14.5636    0.3115 H   0  0  0  0  0  0  0  0  0  0  0  0
    0.4684   13.5200    0.3115 H   0  0  0  0  0  0  0  0  0  0  0  0
    0.6421   14.6531   -3.1929 H   0  0  0  0  0  0  0  0  0  0  0  0
   -1.6747   14.1055   -2.2071 H   0  0  0  0  0  0  0  0  0  0  0  0
   -0.9306   13.0631   -3.5300 H   0  0  0  0  0  0  0  0  0  0  0  0
   -2.1473   11.7773   -1.5800 H   0  0  0  0  0  0  0  0  0  0  0  0
    1.6254   12.2571   -0.2218 H   0  0  0  0  0  0  0  0  0  0  0  0
    1.8766   10.1444   -2.4507 H   0  0  0  0  0  0  0  0  0  0  0  0
    3.2227   10.8241   -1.4327 H   0  0  0  0  0  0  0  0  0  0  0  0
    2.5306    8.5696   -0.6851 H   0  0  0  0  0  0  0  0  0  0  0  0
    2.2484    9.8450    0.5637 H   0  0  0  0  0  0  0  0  0  0  0  0
    0.3467    8.3818    0.5124 H   0  0  0  0  0  0  0  0  0  0  0  0
   -0.7560    8.8140   -1.8520 H   0  0  0  0  0  0  0  0  0  0  0  0
   -0.5891    9.9912    2.0852 H   0  0  0  0  0  0  0  0  0  0  0  0
    0.7831   11.0157    1.5429 H   0  0  0  0  0  0  0  0  0  0  0  0
   -0.8867   11.6776    1.5429 H   0  0  0  0  0  0  0  0  0  0  0  0
   -2.3430    9.6295    0.8559 H   0  0  0  0  0  0  0  0  0  0  0  0
   -2.5538   10.5069   -0.6973 H   0  0  0  0  0  0  0  0  0  0  0  0
   -1.9673    8.8090   -0.6973 H   0  0  0  0  0  0  0  0  0  0  0  0
    2.1097   11.3573   -3.5855 H   0  0  0  0  0  0  0  0  0  0  0  0
    0.8509   12.4891   -4.1865 H   0  0  0  0  0  0  0  0  0  0  0  0
    2.5776   12.9841   -4.1865 H   0  0  0  0  0  0  0  0  0  0  0  0
    3.6661   12.8506   -1.4254 H   0  0  0  0  0  0  0  0  0  0  0  0
    3.3886   14.1034   -2.7627 H   0  0  0  0  0  0  0  0  0  0  0  0
    2.7575   14.3790    0.1892 H   0  0  0  0  0  0  0  0  0  0  0  0
    3.9772   15.2813   -0.7935 H   0  0  0  0  0  0  0  0  0  0  0  0
    2.9337   17.3682   -2.3823 H   0  0  0  0  0  0  0  0  0  0  0  0
    2.9383   15.7313   -3.1222 H   0  0  0  0  0  0  0  0  0  0  0  0
    1.4338   16.7127   -3.1222 H   0  0  0  0  0  0  0  0  0  0  0  0
  1  2  1  0
  2  3  1  0
  3  4  1  0
  4  5  1  0
  5  6  1  0
  6  7  1  0
  7  8  1  0
  7  9  1  0
  2 10  1  0
 10 11  1  0
 11 12  1  0
 12 13  1  0
 13 14  1  1
 13 15  1  0
 15 16  1  0
 16 17  1  0
 17 18  2  0
 18 19  1  0
 19 20  1  0
 20 21  1  0
 21 22  1  0
 22 23  1  0
 22 24  1  0
 24 25  1  0
 24 26  1  0
 19 27  1  0
 27 28  1  6
 27 29  1  0
 29 30  1  0
 30 31  1  0
 31 32  1  6
  7  5  1  0
 31 10  1  0
 31 13  1  0
 27 15  1  0
 24 18  1  0
  1 33  1  0
  1 34  1  0
  1 35  1  0
  2 36  1  6
  3 37  1  0
  3 38  1  0
  4 39  1  0
  4 40  1  0
  5 41  1  1
  8 42  1  0
  8 43  1  0
  8 44  1  0
  9 45  1  0
  9 46  1  0
  9 47  1  0
 10 48  1  1
 11 49  1  0
 11 50  1  0
 12 51  1  0
 12 52  1  0
 14 53  1  0
 14 54  1  0
 14 55  1  0
 15 56  1  6
 16 57  1  0
 16 58  1  0
 17 59  1  0
 19 60  1  1
 20 61  1  0
 20 62  1  0
 21 63  1  0
 21 64  1  0
 22 65  1  1
 23 66  1  0
 25 67  1  0
 25 68  1  0
 25 69  1  0
 26 70  1  0
 26 71  1  0
 26 72  1  0
 28 73  1  0
 28 74  1  0
 28 75  1  0
 29 76  1  0
 29 77  1  0
 30 78  1  0
 30 79  1  0
 32 80  1  0
 32 81  1  0
 32 82  1  0
M  END
>  <meeko>  (3) 
{"is_sidechain": [false], "intermolecular_energy": 2.731, "internal_energy": -0.839}

$$$$
EPH_relaxed_0001_pdb2pqr_Repair_247_r2_0001_out
     RDKit          3D

 82 86  0  0  0  0  0  0  0  0999 V2000
    2.1340   18.1190   -2.7940 C   0  0  0  0  0  0  0  0  0  0  0  0
    0.9250   17.6600   -1.9750 C   0  0  2  0  0  0  0  0  0  0  0  0
    1.2060   17.6860   -0.4600 C   0  0  0  0  0  0  0  0  0  0  0  0
    1.2540   19.0970    0.1330 C   0  0  0  0  0  0  0  0  0  0  0  0
   -0.0180   19.8480   -0.1190 C   0  0  2  0  0  0  0  0  0  0  0  0
   -0.7540   20.1940    1.0620 O   0  0  0  0  0  0  0  0  0  0  0  0
   -1.3960   19.2770    0.1610 C   0  0  0  0  0  0  0  0  0  0  0  0
   -1.5720   17.8990    0.7180 C   0  0  0  0  0  0  0  0  0  0  0  0
   -2.5720   19.8620   -0.5560 C   0  0  0  0  0  0  0  0  0  0  0  0
    0.5100   16.2570   -2.4040 C   0  0  1  0  0  0  0  0  0  0  0  0
    0.6290   16.0410   -3.9360 C   0  0  0  0  0  0  0  0  0  0  0  0
    1.0620   14.5670   -4.1480 C   0  0  0  0  0  0  0  0  0  0  0  0
    0.8560   13.8980   -2.7680 C   0  0  1  0  0  0  0  0  0  0  0  0
   -0.6690   13.5730   -2.7040 C   0  0  0  0  0  0  0  0  0  0  0  0
    1.7290   12.6340   -2.4760 C   0  0  2  0  0  0  0  0  0  0  0  0
    1.4820   11.4400   -3.4140 C   0  0  0  0  0  0  0  0  0  0  0  0
    0.4360   10.4770   -2.9600 C   0  0  0  0  0  0  0  0  0  0  0  0
   -0.0760   10.4080   -1.7170 C   0  0  0  0  0  0  0  0  0  0  0  0
    0.4690   11.2940   -0.5900 C   0  0  1  0  0  0  0  0  0  0  0  0
    0.6980   10.4340    0.6810 C   0  0  0  0  0  0  0  0  0  0  0  0
   -0.5500    9.6620    1.0980 C   0  0  0  0  0  0  0  0  0  0  0  0
   -1.0280    8.7490   -0.0290 C   0  0  2  0  0  0  0  0  0  0  0  0
   -0.0530    7.7220   -0.2340 O   0  0  0  0  0  0  0  0  0  0  0  0
   -1.2820    9.5030   -1.3630 C   0  0  0  0  0  0  0  0  0  0  0  0
   -2.5370   10.4000   -1.2230 C   0  0  0  0  0  0  0  0  0  0  0  0
   -1.6220    8.4490   -2.4510 C   0  0  0  0  0  0  0  0  0  0  0  0
    1.7320   12.1860   -0.9580 C   0  0  1  0  0  0  0  0  0  0  0  0
    3.0420   11.3700   -0.7380 C   0  0  0  0  0  0  0  0  0  0  0  0
    1.8010   13.4120    0.0280 C   0  0  0  0  0  0  0  0  0  0  0  0
    1.0140   14.6730   -0.3760 C   0  0  0  0  0  0  0  0  0  0  0  0
    1.3170   15.0680   -1.8240 C   0  0  2  0  0  0  0  0  0  0  0  0
    2.8400   15.4230   -1.9150 C   0  0  0  0  0  0  0  0  0  0  0  0
    2.9424   18.4259   -2.1140 H   0  0  0  0  0  0  0  0  0  0  0  0
    2.4830   17.2908   -3.4283 H   0  0  0  0  0  0  0  0  0  0  0  0
    1.8454   18.9701   -3.4283 H   0  0  0  0  0  0  0  0  0  0  0  0
    0.1051   18.3669   -2.1702 H   0  0  0  0  0  0  0  0  0  0  0  0
    0.4116   17.1217    0.0503 H   0  0  0  0  0  0  0  0  0  0  0  0
    2.2003   17.2402   -0.3098 H   0  0  0  0  0  0  0  0  0  0  0  0
    1.4146   19.0221    1.2186 H   0  0  0  0  0  0  0  0  0  0  0  0
    2.0767   19.6442   -0.3505 H   0  0  0  0  0  0  0  0  0  0  0  0
    0.4149   20.3290   -1.0085 H   0  0  0  0  0  0  0  0  0  0  0  0
   -1.5662   17.9443    1.8171 H   0  0  0  0  0  0  0  0  0  0  0  0
   -2.5305   17.4838    0.3732 H   0  0  0  0  0  0  0  0  0  0  0  0
   -0.7487   17.2562    0.3732 H   0  0  0  0  0  0  0  0  0  0  0  0
   -3.3051   20.2267    0.1786 H   0  0  0  0  0  0  0  0  0  0  0  0
   -2.2377   20.6988   -1.1868 H   0  0  0  0  0  0  0  0  0  0  0  0
   -3.0377   19.0905   -1.1868 H   0  0  0  0  0  0  0  0  0  0  0  0
   -0.5177   16.2408   -2.0121 H   0  0  0  0  0  0  0  0  0  0  0  0
   -0.3413   16.2242   -4.4208 H   0  0  0  0  0  0  0  0  0  0  0  0
    1.3601   16.7346   -4.3769 H   0  0  0  0  0  0  0  0  0  0  0  0
    0.4346   14.0838   -4.9114 H   0  0  0  0  0  0  0  0  0  0  0  0
    2.1003   14.4837   -4.5014 H   0  0  0  0  0  0  0  0  0  0  0  0
   -0.9857   13.5055   -1.6527 H   0  0  0  0  0  0  0  0  0  0  0  0
   -1.2353   14.3706   -3.2071 H   0  0  0  0  0  0  0  0  0  0  0  0
   -0.8609   12.6138   -3.2071 H   0  0  0  0  0  0  0  0  0  0  0  0
    2.7443   12.9892   -2.7063 H   0  0  0  0  0  0  0  0  0  0  0  0
    1.1772   11.8354   -4.3942 H   0  0  0  0  0  0  0  0  0  0  0  0
    2.4250   10.8742   -3.4404 H   0  0  0  0  0  0  0  0  0  0  0  0
    0.0511    9.7637   -3.7037 H   0  0  0  0  0  0  0  0  0  0  0  0
   -0.3071   12.0488   -0.3953 H   0  0  0  0  0  0  0  0  0  0  0  0
    1.5062    9.7155    0.4796 H   0  0  0  0  0  0  0  0  0  0  0  0
    0.9586   11.1165    1.5033 H   0  0  0  0  0  0  0  0  0  0  0  0
   -0.3167    9.0507    1.9822 H   0  0  0  0  0  0  0  0  0  0  0  0
   -1.3483   10.3827    1.3289 H   0  0  0  0  0  0  0  0  0  0  0  0
   -1.9948    8.3237    0.2783 H   0  0  0  0  0  0  0  0  0  0  0  0
   -0.5230    6.8720   -0.2630 H   0  0  0  0  0  0  0  0  0  0  0  0
   -2.7578   10.5578   -0.1570 H   0  0  0  0  0  0  0  0  0  0  0  0
   -2.3500   11.3703   -1.7063 H   0  0  0  0  0  0  0  0  0  0  0  0
   -3.3945    9.9089   -1.7063 H   0  0  0  0  0  0  0  0  0  0  0  0
   -1.9254    7.5084   -1.9681 H   0  0  0  0  0  0  0  0  0  0  0  0
   -2.4455    8.8217   -3.0779 H   0  0  0  0  0  0  0  0  0  0  0  0
   -0.7360    8.2702   -3.0779 H   0  0  0  0  0  0  0  0  0  0  0  0
    3.2259   11.2555    0.3405 H   0  0  0  0  0  0  0  0  0  0  0  0
    2.9374   10.3770   -1.1996 H   0  0  0  0  0  0  0  0  0  0  0  0
    3.8871   11.9017   -1.1996 H   0  0  0  0  0  0  0  0  0  0  0  0
    1.4160   13.0774    1.0026 H   0  0  0  0  0  0  0  0  0  0  0  0
    2.8569   13.7202    0.0308 H   0  0  0  0  0  0  0  0  0  0  0  0
   -0.0629   14.4726   -0.2756 H   0  0  0  0  0  0  0  0  0  0  0  0
    1.3149   15.5004    0.2834 H   0  0  0  0  0  0  0  0  0  0  0  0
    3.2552   15.5198   -0.9010 H   0  0  0  0  0  0  0  0  0  0  0  0
    3.3710   14.6246   -2.4540 H   0  0  0  0  0  0  0  0  0  0  0  0
    2.9633   16.3740   -2.4540 H   0  0  0  0  0  0  0  0  0  0  0  0
  1  2  1  0
  2  3  1  0
  3  4  1  0
  4  5  1  0
  5  6  1  0
  6  7  1  0
  7  8  1  0
  7  9  1  0
  2 10  1  0
 10 11  1  0
 11 12  1  0
 12 13  1  0
 13 14  1  1
 13 15  1  0
 15 16  1  0
 16 17  1  0
 17 18  2  0
 18 19  1  0
 19 20  1  0
 20 21  1  0
 21 22  1  0
 22 23  1  0
 22 24  1  0
 24 25  1  0
 24 26  1  0
 19 27  1  0
 27 28  1  6
 27 29  1  0
 29 30  1  0
 30 31  1  0
 31 32  1  1
  7  5  1  0
 31 10  1  0
 31 13  1  0
 27 15  1  0
 24 18  1  0
  1 33  1  0
  1 34  1  0
  1 35  1  0
  2 36  1  1
  3 37  1  0
  3 38  1  0
  4 39  1  0
  4 40  1  0
  5 41  1  6
  8 42  1  0
  8 43  1  0
  8 44  1  0
  9 45  1  0
  9 46  1  0
  9 47  1  0
 10 48  1  1
 11 49  1  0
 11 50  1  0
 12 51  1  0
 12 52  1  0
 14 53  1  0
 14 54  1  0
 14 55  1  0
 15 56  1  6
 16 57  1  0
 16 58  1  0
 17 59  1  0
 19 60  1  1
 20 61  1  0
 20 62  1  0
 21 63  1  0
 21 64  1  0
 22 65  1  1
 23 66  1  0
 25 67  1  0
 25 68  1  0
 25 69  1  0
 26 70  1  0
 26 71  1  0
 26 72  1  0
 28 73  1  0
 28 74  1  0
 28 75  1  0
 29 76  1  0
 29 77  1  0
 30 78  1  0
 30 79  1  0
 32 80  1  0
 32 81  1  0
 32 82  1  0
M  END
>  <meeko>  (4) 
{"is_sidechain": [false], "intermolecular_energy": 2.731, "internal_energy": -0.839}

$$$$
EPH_relaxed_0001_pdb2pqr_Repair_247_r2_0001_out
     RDKit          3D

 82 86  0  0  0  0  0  0  0  0999 V2000
   -5.2370    5.8030   -1.5690 C   0  0  0  0  0  0  0  0  0  0  0  0
   -5.4680    7.3010   -1.7880 C   0  0  2  0  0  0  0  0  0  0  0  0
   -5.1830    8.1240   -0.5160 C   0  0  0  0  0  0  0  0  0  0  0  0
   -4.1950    9.2730   -0.7350 C   0  0  0  0  0  0  0  0  0  0  0  0
   -2.7990    8.8840   -0.3520 C   0  0  2  0  0  0  0  0  0  0  0  0
   -2.2430    9.6390    0.7320 O   0  0  0  0  0  0  0  0  0  0  0  0
   -1.5960    9.7890   -0.5430 C   0  0  0  0  0  0  0  0  0  0  0  0
   -1.7350   11.1550   -1.1380 C   0  0  0  0  0  0  0  0  0  0  0  0
   -0.2360    9.1680   -0.6050 C   0  0  0  0  0  0  0  0  0  0  0  0
   -6.8980    7.5430   -2.2560 C   0  0  1  0  0  0  0  0  0  0  0  0
   -7.2080    6.8550   -3.6120 C   0  0  0  0  0  0  0  0  0  0  0  0
   -8.6880    6.3970   -3.5530 C   0  0  0  0  0  0  0  0  0  0  0  0
   -9.2710    7.1200   -2.3170 C   0  0  1  0  0  0  0  0  0  0  0  0
   -9.6060    8.5610   -2.8170 C   0  0  0  0  0  0  0  0  0  0  0  0
  -10.5070    6.4430   -1.6400 C   0  0  2  0  0  0  0  0  0  0  0  0
  -11.7590    6.3330   -2.5270 C   0  0  0  0  0  0  0  0  0  0  0  0
  -12.7020    7.4880   -2.4460 C   0  0  0  0  0  0  0  0  0  0  0  0
  -12.6990    8.4340   -1.4880 C   0  0  0  0  0  0  0  0  0  0  0  0
  -11.7390    8.3430   -0.2950 C   0  0  1  0  0  0  0  0  0  0  0  0
  -12.5170    8.6260    1.0180 C   0  0  0  0  0  0  0  0  0  0  0  0
  -13.2730    9.9510    0.9750 C   0  0  0  0  0  0  0  0  0  0  0  0
  -14.2590    9.9800   -0.1900 C   0  0  2  0  0  0  0  0  0  0  0  0
  -15.2870    9.0150    0.0520 O   0  0  0  0  0  0  0  0  0  0  0  0
  -13.5900    9.6980   -1.5650 C   0  0  0  0  0  0  0  0  0  0  0  0
  -12.6980   10.8980   -1.9660 C   0  0  0  0  0  0  0  0  0  0  0  0
  -14.7140    9.6150   -2.6330 C   0  0  0  0  0  0  0  0  0  0  0  0
  -10.8610    7.0220   -0.2100 C   0  0  1  0  0  0  0  0  0  0  0  0
  -11.6490    5.9050    0.5400 C   0  0  0  0  0  0  0  0  0  0  0  0
   -9.5760    7.3130    0.6520 C   0  0  0  0  0  0  0  0  0  0  0  0
   -8.3490    7.8690   -0.0960 C   0  0  0  0  0  0  0  0  0  0  0  0
   -8.0410    7.0340   -1.3420 C   0  0  2  0  0  0  0  0  0  0  0  0
   -7.6790    5.5850   -0.8700 C   0  0  0  0  0  0  0  0  0  0  0  0
   -5.2043    5.5909   -0.4901 H   0  0  0  0  0  0  0  0  0  0  0  0
   -6.0580    5.2342   -2.0298 H   0  0  0  0  0  0  0  0  0  0  0  0
   -4.2827    5.5079   -2.0298 H   0  0  0  0  0  0  0  0  0  0  0  0
   -4.7620    7.6355   -2.5624 H   0  0  0  0  0  0  0  0  0  0  0  0
   -6.1326    8.5464   -0.1556 H   0  0  0  0  0  0  0  0  0  0  0  0
   -4.7243    7.4402    0.2133 H   0  0  0  0  0  0  0  0  0  0  0  0
   -4.2073    9.5561   -1.7979 H   0  0  0  0  0  0  0  0  0  0  0  0
   -4.5029   10.1161   -0.0990 H   0  0  0  0  0  0  0  0  0  0  0  0
   -2.9876    7.8381   -0.6356 H   0  0  0  0  0  0  0  0  0  0  0  0
   -1.8108   11.8999   -0.3322 H   0  0  0  0  0  0  0  0  0  0  0  0
   -0.8547   11.3755   -1.7596 H   0  0  0  0  0  0  0  0  0  0  0  0
   -2.6417   11.1937   -1.7596 H   0  0  0  0  0  0  0  0  0  0  0  0
    0.1363    8.9980    0.4160 H   0  0  0  0  0  0  0  0  0  0  0  0
   -0.2953    8.2078   -1.1383 H   0  0  0  0  0  0  0  0  0  0  0  0
    0.4508    9.8418   -1.1383 H   0  0  0  0  0  0  0  0  0  0  0  0
   -6.8991    8.6427   -2.2834 H   0  0  0  0  0  0  0  0  0  0  0  0
   -7.0641    7.5658   -4.4391 H   0  0  0  0  0  0  0  0  0  0  0  0
   -6.5367    6.0007   -3.7841 H   0  0  0  0  0  0  0  0  0  0  0  0
   -9.2236    6.6957   -4.4661 H   0  0  0  0  0  0  0  0  0  0  0  0
   -8.7837    5.3036   -3.4804 H   0  0  0  0  0  0  0  0  0  0  0  0
   -9.7598    9.2228   -1.9519 H   0  0  0  0  0  0  0  0  0  0  0  0
   -8.7722    8.9410   -3.4256 H   0  0  0  0  0  0  0  0  0  0  0  0
  -10.5219    8.5343   -3.4256 H   0  0  0  0  0  0  0  0  0  0  0  0
  -10.1566    5.4112   -1.4893 H   0  0  0  0  0  0  0  0  0  0  0  0
  -11.4280    6.2371   -3.5716 H   0  0  0  0  0  0  0  0  0  0  0  0
  -12.3164    5.4589   -2.1593 H   0  0  0  0  0  0  0  0  0  0  0  0
  -13.4632    7.5731   -3.2355 H   0  0  0  0  0  0  0  0  0  0  0  0
  -10.9800    9.1228   -0.4558 H   0  0  0  0  0  0  0  0  0  0  0  0
  -13.2393    7.8128    1.1824 H   0  0  0  0  0  0  0  0  0  0  0  0
  -11.7831    8.6862    1.8352 H   0  0  0  0  0  0  0  0  0  0  0  0
  -13.8255   10.0808    1.9173 H   0  0  0  0  0  0  0  0  0  0  0  0
  -12.5460   10.7653    0.8395 H   0  0  0  0  0  0  0  0  0  0  0  0
  -14.6746   10.9969   -0.2458 H   0  0  0  0  0  0  0  0  0  0  0  0
  -15.2210    8.7410    0.9830 H   0  0  0  0  0  0  0  0  0  0  0  0
  -12.3265   11.3978   -1.0593 H   0  0  0  0  0  0  0  0  0  0  0  0
  -11.8460   10.5386   -2.5618 H   0  0  0  0  0  0  0  0  0  0  0  0
  -13.2877   11.6102   -2.5618 H   0  0  0  0  0  0  0  0  0  0  0  0
  -15.6908    9.5429   -2.1324 H   0  0  0  0  0  0  0  0  0  0  0  0
  -14.6899   10.5174   -3.2616 H   0  0  0  0  0  0  0  0  0  0  0  0
  -14.5576    8.7260   -3.2616 H   0  0  0  0  0  0  0  0  0  0  0  0
  -11.5467    6.0500    1.6256 H   0  0  0  0  0  0  0  0  0  0  0  0
  -12.7120    5.9562    0.2618 H   0  0  0  0  0  0  0  0  0  0  0  0
  -11.2442    4.9208    0.2618 H   0  0  0  0  0  0  0  0  0  0  0  0
   -9.8530    8.0437    1.4262 H   0  0  0  0  0  0  0  0  0  0  0  0
   -9.2589    6.3323    1.0362 H   0  0  0  0  0  0  0  0  0  0  0  0
   -8.5525    8.9065   -0.3996 H   0  0  0  0  0  0  0  0  0  0  0  0
   -7.4799    7.8277    0.5771 H   0  0  0  0  0  0  0  0  0  0  0  0
   -7.6700    5.5490    0.2294 H   0  0  0  0  0  0  0  0  0  0  0  0
   -8.4277    4.8765   -1.2540 H   0  0  0  0  0  0  0  0  0  0  0  0
   -6.6850    5.3119   -1.2540 H   0  0  0  0  0  0  0  0  0  0  0  0
  1  2  1  0
  2  3  1  0
  3  4  1  0
  4  5  1  0
  5  6  1  0
  6  7  1  0
  7  8  1  0
  7  9  1  0
  2 10  1  0
 10 11  1  0
 11 12  1  0
 12 13  1  0
 13 14  1  6
 13 15  1  0
 15 16  1  0
 16 17  1  0
 17 18  2  0
 18 19  1  0
 19 20  1  0
 20 21  1  0
 21 22  1  0
 22 23  1  0
 22 24  1  0
 24 25  1  0
 24 26  1  0
 19 27  1  0
 27 28  1  1
 27 29  1  0
 29 30  1  0
 30 31  1  0
 31 32  1  1
  7  5  1  0
 31 10  1  0
 31 13  1  0
 27 15  1  0
 24 18  1  0
  1 33  1  0
  1 34  1  0
  1 35  1  0
  2 36  1  6
  3 37  1  0
  3 38  1  0
  4 39  1  0
  4 40  1  0
  5 41  1  1
  8 42  1  0
  8 43  1  0
  8 44  1  0
  9 45  1  0
  9 46  1  0
  9 47  1  0
 10 48  1  6
 11 49  1  0
 11 50  1  0
 12 51  1  0
 12 52  1  0
 14 53  1  0
 14 54  1  0
 14 55  1  0
 15 56  1  1
 16 57  1  0
 16 58  1  0
 17 59  1  0
 19 60  1  6
 20 61  1  0
 20 62  1  0
 21 63  1  0
 21 64  1  0
 22 65  1  6
 23 66  1  0
 25 67  1  0
 25 68  1  0
 25 69  1  0
 26 70  1  0
 26 71  1  0
 26 72  1  0
 28 73  1  0
 28 74  1  0
 28 75  1  0
 29 76  1  0
 29 77  1  0
 30 78  1  0
 30 79  1  0
 32 80  1  0
 32 81  1  0
 32 82  1  0
M  END
>  <meeko>  (5) 
{"is_sidechain": [false], "intermolecular_energy": 2.731, "internal_energy": -0.839}

$$$$
EPH_relaxed_0001_pdb2pqr_Repair_247_r2_0001_out
     RDKit          3D

 82 86  0  0  0  0  0  0  0  0999 V2000
   -0.2500   10.5010   -3.9920 C   0  0  0  0  0  0  0  0  0  0  0  0
    0.9730   10.3530   -3.0820 C   0  0  2  0  0  0  0  0  0  0  0  0
    0.9690    9.0140   -2.3180 C   0  0  0  0  0  0  0  0  0  0  0  0
   -0.4220    8.5730   -1.8560 C   0  0  0  0  0  0  0  0  0  0  0  0
   -0.6700    8.9330   -0.4220 C   0  0  2  0  0  0  0  0  0  0  0  0
   -2.0500    8.9190   -0.0310 O   0  0  0  0  0  0  0  0  0  0  0  0
   -1.3930   10.1960    0.0100 C   0  0  0  0  0  0  0  0  0  0  0  0
   -1.9110   11.1800   -0.9910 C   0  0  0  0  0  0  0  0  0  0  0  0
   -1.1640   10.7120    1.3970 C   0  0  0  0  0  0  0  0  0  0  0  0
    1.0320   11.5150   -2.0970 C   0  0  1  0  0  0  0  0  0  0  0  0
    2.0700   11.2870   -0.9660 C   0  0  0  0  0  0  0  0  0  0  0  0
    2.6760   12.6740   -0.6300 C   0  0  0  0  0  0  0  0  0  0  0  0
    1.7420   13.6880   -1.3320 C   0  0  1  0  0  0  0  0  0  0  0  0
    0.5250   13.8460   -0.3680 C   0  0  0  0  0  0  0  0  0  0  0  0
    2.3740   15.0720   -1.6960 C   0  0  2  0  0  0  0  0  0  0  0  0
    2.8540   15.9060   -0.4960 C   0  0  0  0  0  0  0  0  0  0  0  0
    1.8400   16.8370    0.0810 C   0  0  0  0  0  0  0  0  0  0  0  0
    0.6910   17.2080   -0.5140 C   0  0  0  0  0  0  0  0  0  0  0  0
    0.3620   16.7540   -1.9430 C   0  0  1  0  0  0  0  0  0  0  0  0
   -0.1440   17.9670   -2.7670 C   0  0  0  0  0  0  0  0  0  0  0  0
   -1.3130   18.6830   -2.0980 C   0  0  0  0  0  0  0  0  0  0  0  0
   -0.9290   19.1700   -0.7030 C   0  0  2  0  0  0  0  0  0  0  0  0
    0.0630   20.1940   -0.8300 O   0  0  0  0  0  0  0  0  0  0  0  0
   -0.3950   18.0360    0.2160 C   0  0  0  0  0  0  0  0  0  0  0  0
   -1.5560   17.0850    0.5970 C   0  0  0  0  0  0  0  0  0  0  0  0
    0.0890   18.6830    1.5410 C   0  0  0  0  0  0  0  0  0  0  0  0
    1.5030   15.9400   -2.6920 C   0  0  1  0  0  0  0  0  0  0  0  0
    2.4830   16.9250   -3.3980 C   0  0  0  0  0  0  0  0  0  0  0  0
    0.8500   15.0700   -3.8300 C   0  0  0  0  0  0  0  0  0  0  0  0
    0.3540   13.6660   -3.4340 C   0  0  0  0  0  0  0  0  0  0  0  0
    1.4310   12.9030   -2.6580 C   0  0  2  0  0  0  0  0  0  0  0  0
    2.6600   12.7090   -3.6090 C   0  0  0  0  0  0  0  0  0  0  0  0
   -1.1545   10.6105   -3.3757 H   0  0  0  0  0  0  0  0  0  0  0  0
   -0.1290   11.3911   -4.6270 H   0  0  0  0  0  0  0  0  0  0  0  0
   -0.3448    9.6078   -4.6270 H   0  0  0  0  0  0  0  0  0  0  0  0
    1.8664   10.3643   -3.7236 H   0  0  0  0  0  0  0  0  0  0  0  0
    1.3782    8.2358   -2.9791 H   0  0  0  0  0  0  0  0  0  0  0  0
    1.5773    9.1586   -1.4130 H   0  0  0  0  0  0  0  0  0  0  0  0
   -1.1790    9.0662   -2.4834 H   0  0  0  0  0  0  0  0  0  0  0  0
   -0.4838    7.4788   -1.9505 H   0  0  0  0  0  0  0  0  0  0  0  0
    0.2920    8.4931   -0.1202 H   0  0  0  0  0  0  0  0  0  0  0  0
   -2.3612   12.0351   -0.4655 H   0  0  0  0  0  0  0  0  0  0  0  0
   -1.0816   11.5325   -1.6217 H   0  0  0  0  0  0  0  0  0  0  0  0
   -2.6711   10.6958   -1.6217 H   0  0  0  0  0  0  0  0  0  0  0  0
   -1.4976    9.9604    2.1276 H   0  0  0  0  0  0  0  0  0  0  0  0
   -0.0922   10.9130    1.5411 H   0  0  0  0  0  0  0  0  0  0  0  0
   -1.7340   11.6417    1.5411 H   0  0  0  0  0  0  0  0  0  0  0  0
   -0.0171   11.5307   -1.7667 H   0  0  0  0  0  0  0  0  0  0  0  0
    1.5767   10.8639   -0.0785 H   0  0  0  0  0  0  0  0  0  0  0  0
    2.8513   10.5805   -1.2830 H   0  0  0  0  0  0  0  0  0  0  0  0
    2.6839   12.8413    0.4572 H   0  0  0  0  0  0  0  0  0  0  0  0
    3.7194   12.7659   -0.9659 H   0  0  0  0  0  0  0  0  0  0  0  0
    0.8744   13.8006    0.6741 H   0  0  0  0  0  0  0  0  0  0  0  0
    0.0370   14.8150   -0.5493 H   0  0  0  0  0  0  0  0  0  0  0  0
   -0.1942   13.0337   -0.5493 H   0  0  0  0  0  0  0  0  0  0  0  0
    3.2846   14.7799   -2.2395 H   0  0  0  0  0  0  0  0  0  0  0  0
    3.1673   15.2111    0.2971 H   0  0  0  0  0  0  0  0  0  0  0  0
    3.6691   16.5407   -0.8737 H   0  0  0  0  0  0  0  0  0  0  0  0
    2.0494   17.2553    1.0766 H   0  0  0  0  0  0  0  0  0  0  0  0
   -0.4393   16.0064   -1.8484 H   0  0  0  0  0  0  0  0  0  0  0  0
    0.6840   18.6810   -2.8879 H   0  0  0  0  0  0  0  0  0  0  0  0
   -0.4967   17.5873   -3.7373 H   0  0  0  0  0  0  0  0  0  0  0  0
   -1.6054   19.5469   -2.7130 H   0  0  0  0  0  0  0  0  0  0  0  0
   -2.1505   17.9759   -2.0046 H   0  0  0  0  0  0  0  0  0  0  0  0
   -1.8411   19.5571   -0.2253 H   0  0  0  0  0  0  0  0  0  0  0  0
   -0.3520   20.9510   -1.2760 H   0  0  0  0  0  0  0  0  0  0  0  0
   -1.6335   17.0215    1.6924 H   0  0  0  0  0  0  0  0  0  0  0  0
   -2.4988   17.4737    0.1846 H   0  0  0  0  0  0  0  0  0  0  0  0
   -1.3605   16.0841    0.1846 H   0  0  0  0  0  0  0  0  0  0  0  0
   -0.3270   18.1269    2.3940 H   0  0  0  0  0  0  0  0  0  0  0  0
    1.1877   18.6524    1.5841 H   0  0  0  0  0  0  0  0  0  0  0  0
   -0.2506   19.7284    1.5841 H   0  0  0  0  0  0  0  0  0  0  0  0
    3.0449   17.4898   -2.6395 H   0  0  0  0  0  0  0  0  0  0  0  0
    3.1846   16.3567   -4.0264 H   0  0  0  0  0  0  0  0  0  0  0  0
    1.9112   17.6237   -4.0264 H   0  0  0  0  0  0  0  0  0  0  0  0
   -0.0122   15.6289   -4.2227 H   0  0  0  0  0  0  0  0  0  0  0  0
    1.6567   14.8955   -4.5572 H   0  0  0  0  0  0  0  0  0  0  0  0
   -0.5416   13.7654   -2.8032 H   0  0  0  0  0  0  0  0  0  0  0  0
    0.1189   13.1055   -4.3508 H   0  0  0  0  0  0  0  0  0  0  0  0
    3.5698   12.5654   -3.0077 H   0  0  0  0  0  0  0  0  0  0  0  0
    2.4967   11.8255   -4.2436 H   0  0  0  0  0  0  0  0  0  0  0  0
    2.7768   13.5998   -4.2436 H   0  0  0  0  0  0  0  0  0  0  0  0
  1  2  1  0
  2  3  1  0
  3  4  1  0
  4  5  1  0
  5  6  1  0
  6  7  1  0
  7  8  1  0
  7  9  1  0
  2 10  1  0
 10 11  1  0
 11 12  1  0
 12 13  1  0
 13 14  1  1
 13 15  1  0
 15 16  1  0
 16 17  1  0
 17 18  2  0
 18 19  1  0
 19 20  1  0
 20 21  1  0
 21 22  1  0
 22 23  1  0
 22 24  1  0
 24 25  1  0
 24 26  1  0
 19 27  1  0
 27 28  1  6
 27 29  1  0
 29 30  1  0
 30 31  1  0
 31 32  1  6
  7  5  1  0
 31 10  1  0
 31 13  1  0
 27 15  1  0
 24 18  1  0
  1 33  1  0
  1 34  1  0
  1 35  1  0
  2 36  1  6
  3 37  1  0
  3 38  1  0
  4 39  1  0
  4 40  1  0
  5 41  1  1
  8 42  1  0
  8 43  1  0
  8 44  1  0
  9 45  1  0
  9 46  1  0
  9 47  1  0
 10 48  1  1
 11 49  1  0
 11 50  1  0
 12 51  1  0
 12 52  1  0
 14 53  1  0
 14 54  1  0
 14 55  1  0
 15 56  1  6
 16 57  1  0
 16 58  1  0
 17 59  1  0
 19 60  1  1
 20 61  1  0
 20 62  1  0
 21 63  1  0
 21 64  1  0
 22 65  1  1
 23 66  1  0
 25 67  1  0
 25 68  1  0
 25 69  1  0
 26 70  1  0
 26 71  1  0
 26 72  1  0
 28 73  1  0
 28 74  1  0
 28 75  1  0
 29 76  1  0
 29 77  1  0
 30 78  1  0
 30 79  1  0
 32 80  1  0
 32 81  1  0
 32 82  1  0
M  END
>  <meeko>  (6) 
{"is_sidechain": [false], "intermolecular_energy": 2.731, "internal_energy": -0.839}

$$$$
EPH_relaxed_0001_pdb2pqr_Repair_247_r2_0001_out
     RDKit          3D

 82 86  0  0  0  0  0  0  0  0999 V2000
    0.4570    8.8490   -2.4710 C   0  0  0  0  0  0  0  0  0  0  0  0
    1.2070   10.0060   -3.1370 C   0  0  2  0  0  0  0  0  0  0  0  0
    2.7040   10.0170   -2.7680 C   0  0  0  0  0  0  0  0  0  0  0  0
    3.6030   10.6020   -3.8610 C   0  0  0  0  0  0  0  0  0  0  0  0
    4.9950   10.8440   -3.3620 C   0  0  2  0  0  0  0  0  0  0  0  0
    5.5980   12.0570   -3.8330 O   0  0  0  0  0  0  0  0  0  0  0  0
    6.2190   10.8340   -4.2590 C   0  0  0  0  0  0  0  0  0  0  0  0
    6.1070   10.5740   -5.7290 C   0  0  0  0  0  0  0  0  0  0  0  0
    7.5590   10.5900   -3.6380 C   0  0  0  0  0  0  0  0  0  0  0  0
    0.5650   11.3330   -2.7500 C   0  0  1  0  0  0  0  0  0  0  0  0
   -0.8130   11.1510   -2.0610 C   0  0  0  0  0  0  0  0  0  0  0  0
   -0.9340   12.2740   -0.9980 C   0  0  0  0  0  0  0  0  0  0  0  0
    0.2160   13.2530   -1.3340 C   0  0  1  0  0  0  0  0  0  0  0  0
   -0.3320   14.1290   -2.5040 C   0  0  0  0  0  0  0  0  0  0  0  0
    0.7420   14.1320   -0.1530 C   0  0  2  0  0  0  0  0  0  0  0  0
   -0.2920   15.0980    0.4530 C   0  0  0  0  0  0  0  0  0  0  0  0
   -0.3360   16.4550   -0.1670 C   0  0  0  0  0  0  0  0  0  0  0  0
    0.6070   16.9780   -0.9720 C   0  0  0  0  0  0  0  0  0  0  0  0
    1.9100   16.2200   -1.2550 C   0  0  1  0  0  0  0  0  0  0  0  0
    3.1150   17.1860   -1.1070 C   0  0  0  0  0  0  0  0  0  0  0  0
    2.9700   18.4380   -1.9670 C   0  0  0  0  0  0  0  0  0  0  0  0
    1.6920   19.1960   -1.6160 C   0  0  2  0  0  0  0  0  0  0  0  0
    1.8130   19.7140   -0.2870 O   0  0  0  0  0  0  0  0  0  0  0  0
    0.4120   18.3200   -1.7200 C   0  0  0  0  0  0  0  0  0  0  0  0
    0.1140   18.0090   -3.2070 C   0  0  0  0  0  0  0  0  0  0  0  0
   -0.7860   19.1630   -1.2040 C   0  0  0  0  0  0  0  0  0  0  0  0
    2.1130   14.8650   -0.4500 C   0  0  1  0  0  0  0  0  0  0  0  0
    2.7690   15.1600    0.9330 C   0  0  0  0  0  0  0  0  0  0  0  0
    3.1240   13.9470   -1.2340 C   0  0  0  0  0  0  0  0  0  0  0  0
    2.5280   13.0140   -2.3060 C   0  0  0  0  0  0  0  0  0  0  0  0
    1.3350   12.2310   -1.7500 C   0  0  2  0  0  0  0  0  0  0  0  0
    1.8600   11.3240   -0.5850 C   0  0  0  0  0  0  0  0  0  0  0  0
    0.5228    8.9505   -1.3777 H   0  0  0  0  0  0  0  0  0  0  0  0
   -0.5989    8.8712   -2.7784 H   0  0  0  0  0  0  0  0  0  0  0  0
    0.9084    7.8942   -2.7784 H   0  0  0  0  0  0  0  0  0  0  0  0
    1.1368    9.8627   -4.2254 H   0  0  0  0  0  0  0  0  0  0  0  0
    2.8322   10.6168   -1.8549 H   0  0  0  0  0  0  0  0  0  0  0  0
    3.0083    8.9693   -2.6280 H   0  0  0  0  0  0  0  0  0  0  0  0
    3.6440    9.8969   -4.7043 H   0  0  0  0  0  0  0  0  0  0  0  0
    3.1783   11.5670   -4.1748 H   0  0  0  0  0  0  0  0  0  0  0  0
    4.7697   10.3316   -2.4151 H   0  0  0  0  0  0  0  0  0  0  0  0
    5.6767    9.5750   -5.8929 H   0  0  0  0  0  0  0  0  0  0  0  0
    5.4561   11.3333   -6.1871 H   0  0  0  0  0  0  0  0  0  0  0  0
    7.1059   10.6226   -6.1871 H   0  0  0  0  0  0  0  0  0  0  0  0
    7.4639   10.6073   -2.5423 H   0  0  0  0  0  0  0  0  0  0  0  0
    7.9380    9.6081   -3.9577 H   0  0  0  0  0  0  0  0  0  0  0  0
    8.2598   11.3753   -3.9577 H   0  0  0  0  0  0  0  0  0  0  0  0
    0.5294   11.8155   -3.7379 H   0  0  0  0  0  0  0  0  0  0  0  0
   -1.6215   11.2416   -2.8013 H   0  0  0  0  0  0  0  0  0  0  0  0
   -0.8939   10.1572   -1.5964 H   0  0  0  0  0  0  0  0  0  0  0  0
   -1.9086   12.7783   -1.0748 H   0  0  0  0  0  0  0  0  0  0  0  0
   -0.8657   11.8861    0.0291 H   0  0  0  0  0  0  0  0  0  0  0  0
   -0.8730   14.9938   -2.0923 H   0  0  0  0  0  0  0  0  0  0  0  0
    0.5068   14.4816   -3.1221 H   0  0  0  0  0  0  0  0  0  0  0  0
   -1.0160   13.5289   -3.1221 H   0  0  0  0  0  0  0  0  0  0  0  0
    0.9434   13.3824    0.6264 H   0  0  0  0  0  0  0  0  0  0  0  0
   -1.2873   14.6423    0.3448 H   0  0  0  0  0  0  0  0  0  0  0  0
    0.0108   15.2509    1.4994 H   0  0  0  0  0  0  0  0  0  0  0  0
   -1.2137   17.0806    0.0527 H   0  0  0  0  0  0  0  0  0  0  0  0
    1.8374   15.8705   -2.2955 H   0  0  0  0  0  0  0  0  0  0  0  0
    3.1961   17.4897   -0.0529 H   0  0  0  0  0  0  0  0  0  0  0  0
    4.0151   16.6513   -1.4446 H   0  0  0  0  0  0  0  0  0  0  0  0
    3.8362   19.0942   -1.7964 H   0  0  0  0  0  0  0  0  0  0  0  0
    2.9195   18.1346   -3.0231 H   0  0  0  0  0  0  0  0  0  0  0  0
    1.5779   20.0073   -2.3500 H   0  0  0  0  0  0  0  0  0  0  0  0
    2.7310   19.5710    0.0020 H   0  0  0  0  0  0  0  0  0  0  0  0
   -0.6458   17.2161   -3.2706 H   0  0  0  0  0  0  0  0  0  0  0  0
   -0.2605   18.9164   -3.7035 H   0  0  0  0  0  0  0  0  0  0  0  0
    1.0365   17.6736   -3.7035 H   0  0  0  0  0  0  0  0  0  0  0  0
   -0.7870   19.1637   -0.1040 H   0  0  0  0  0  0  0  0  0  0  0  0
   -0.6929   20.1957   -1.5713 H   0  0  0  0  0  0  0  0  0  0  0  0
   -1.7266   18.7266   -1.5713 H   0  0  0  0  0  0  0  0  0  0  0  0
    2.0842   14.8520    1.7368 H   0  0  0  0  0  0  0  0  0  0  0  0
    3.7112   14.5989    1.0190 H   0  0  0  0  0  0  0  0  0  0  0  0
    2.9745   16.2372    1.0190 H   0  0  0  0  0  0  0  0  0  0  0  0
    3.8523   14.6038   -1.7322 H   0  0  0  0  0  0  0  0  0  0  0  0
    3.5521   13.2762   -0.4745 H   0  0  0  0  0  0  0  0  0  0  0  0
    2.1943   13.6176   -3.1629 H   0  0  0  0  0  0  0  0  0  0  0  0
    3.3028   12.2980   -2.6175 H   0  0  0  0  0  0  0  0  0  0  0  0
    1.5966   11.7791    0.3812 H   0  0  0  0  0  0  0  0  0  0  0  0
    1.3987   10.3282   -0.6592 H   0  0  0  0  0  0  0  0  0  0  0  0
    2.9533   11.2281   -0.6592 H   0  0  0  0  0  0  0  0  0  0  0  0
  1  2  1  0
  2  3  1  0
  3  4  1  0
  4  5  1  0
  5  6  1  0
  6  7  1  0
  7  8  1  0
  7  9  1  0
  2 10  1  0
 10 11  1  0
 11 12  1  0
 12 13  1  0
 13 14  1  6
 13 15  1  0
 15 16  1  0
 16 17  1  0
 17 18  2  0
 18 19  1  0
 19 20  1  0
 20 21  1  0
 21 22  1  0
 22 23  1  0
 22 24  1  0
 24 25  1  0
 24 26  1  0
 19 27  1  0
 27 28  1  1
 27 29  1  0
 29 30  1  0
 30 31  1  0
 31 32  1  1
  7  5  1  0
 31 10  1  0
 31 13  1  0
 27 15  1  0
 24 18  1  0
  1 33  1  0
  1 34  1  0
  1 35  1  0
  2 36  1  6
  3 37  1  0
  3 38  1  0
  4 39  1  0
  4 40  1  0
  5 41  1  1
  8 42  1  0
  8 43  1  0
  8 44  1  0
  9 45  1  0
  9 46  1  0
  9 47  1  0
 10 48  1  6
 11 49  1  0
 11 50  1  0
 12 51  1  0
 12 52  1  0
 14 53  1  0
 14 54  1  0
 14 55  1  0
 15 56  1  1
 16 57  1  0
 16 58  1  0
 17 59  1  0
 19 60  1  6
 20 61  1  0
 20 62  1  0
 21 63  1  0
 21 64  1  0
 22 65  1  6
 23 66  1  0
 25 67  1  0
 25 68  1  0
 25 69  1  0
 26 70  1  0
 26 71  1  0
 26 72  1  0
 28 73  1  0
 28 74  1  0
 28 75  1  0
 29 76  1  0
 29 77  1  0
 30 78  1  0
 30 79  1  0
 32 80  1  0
 32 81  1  0
 32 82  1  0
M  END
>  <meeko>  (7) 
{"is_sidechain": [false], "intermolecular_energy": 2.731, "internal_energy": -0.839}

$$$$
EPH_relaxed_0001_pdb2pqr_Repair_247_r2_0001_out
     RDKit          3D

 82 86  0  0  0  0  0  0  0  0999 V2000
    2.8690   19.4120   -0.7460 C   0  0  0  0  0  0  0  0  0  0  0  0
    2.7170   18.4610   -1.9360 C   0  0  2  0  0  0  0  0  0  0  0  0
    1.3380   18.5930   -2.6120 C   0  0  0  0  0  0  0  0  0  0  0  0
    0.4690   19.7090   -2.0260 C   0  0  0  0  0  0  0  0  0  0  0  0
   -0.8300   19.1810   -1.4980 C   0  0  2  0  0  0  0  0  0  0  0  0
   -1.8010   20.1870   -1.1800 O   0  0  0  0  0  0  0  0  0  0  0  0
   -1.3100   19.4090   -0.0760 C   0  0  0  0  0  0  0  0  0  0  0  0
   -0.4960   20.1930    0.9050 C   0  0  0  0  0  0  0  0  0  0  0  0
   -2.3240   18.4680    0.4960 C   0  0  0  0  0  0  0  0  0  0  0  0
    2.9400   17.0230   -1.4840 C   0  0  1  0  0  0  0  0  0  0  0  0
    3.6370   16.9330   -0.1000 C   0  0  0  0  0  0  0  0  0  0  0  0
    3.0470   15.6920    0.6180 C   0  0  0  0  0  0  0  0  0  0  0  0
    2.2860   14.9260   -0.4890 C   0  0  1  0  0  0  0  0  0  0  0  0
    3.3870   14.1200   -1.2480 C   0  0  0  0  0  0  0  0  0  0  0  0
    1.1190   14.0010   -0.0120 C   0  0  2  0  0  0  0  0  0  0  0  0
    1.5410   12.8390    0.9050 C   0  0  0  0  0  0  0  0  0  0  0  0
    1.8880   11.5680    0.2050 C   0  0  0  0  0  0  0  0  0  0  0  0
    1.5930   11.2740   -1.0750 C   0  0  0  0  0  0  0  0  0  0  0  0
    0.7540   12.2330   -1.9300 C   0  0  1  0  0  0  0  0  0  0  0  0
   -0.3410   11.4320   -2.6830 C   0  0  0  0  0  0  0  0  0  0  0  0
    0.2350   10.2770   -3.4970 C   0  0  0  0  0  0  0  0  0  0  0  0
    1.0130    9.3150   -2.6030 C   0  0  2  0  0  0  0  0  0  0  0  0
    0.0980    8.6720   -1.7100 O   0  0  0  0  0  0  0  0  0  0  0  0
    2.1380   10.0110   -1.7860 C   0  0  0  0  0  0  0  0  0  0  0  0
    3.2810   10.4430   -2.7370 C   0  0  0  0  0  0  0  0  0  0  0  0
    2.7500    8.9580   -0.8230 C   0  0  0  0  0  0  0  0  0  0  0  0
    0.1690   13.5030   -1.1750 C   0  0  1  0  0  0  0  0  0  0  0  0
   -1.1970   13.1480   -0.5130 C   0  0  0  0  0  0  0  0  0  0  0  0
   -0.1290   14.6350   -2.2290 C   0  0  0  0  0  0  0  0  0  0  0  0
    1.0310   15.5900   -2.5700 C   0  0  0  0  0  0  0  0  0  0  0  0
    1.6850   16.1340   -1.2960 C   0  0  2  0  0  0  0  0  0  0  0  0
    0.6080   16.9680   -0.5220 C   0  0  0  0  0  0  0  0  0  0  0  0
    2.7782   18.8437    0.1914 H   0  0  0  0  0  0  0  0  0  0  0  0
    3.8559   19.8961   -0.7872 H   0  0  0  0  0  0  0  0  0  0  0  0
    2.0821   20.1796   -0.7872 H   0  0  0  0  0  0  0  0  0  0  0  0
    3.4776   18.7386   -2.6806 H   0  0  0  0  0  0  0  0  0  0  0  0
    1.4938   18.7995   -3.6812 H   0  0  0  0  0  0  0  0  0  0  0  0
    0.8042   17.6466   -2.4404 H   0  0  0  0  0  0  0  0  0  0  0  0
    1.0171   20.1934   -1.2045 H   0  0  0  0  0  0  0  0  0  0  0  0
    0.2461   20.4272   -2.8288 H   0  0  0  0  0  0  0  0  0  0  0  0
   -0.7344   18.2704   -2.1076 H   0  0  0  0  0  0  0  0  0  0  0  0
   -0.7862   19.9135    1.9285 H   0  0  0  0  0  0  0  0  0  0  0  0
    0.5713   19.9740    0.7538 H   0  0  0  0  0  0  0  0  0  0  0  0
   -0.6748   21.2678    0.7538 H   0  0  0  0  0  0  0  0  0  0  0  0
   -2.2819   18.5071    1.5945 H   0  0  0  0  0  0  0  0  0  0  0  0
   -3.3286   18.7611    0.1569 H   0  0  0  0  0  0  0  0  0  0  0  0
   -2.1067   17.4444    0.1569 H   0  0  0  0  0  0  0  0  0  0  0  0
    3.5390   16.6546   -2.3299 H   0  0  0  0  0  0  0  0  0  0  0  0
    4.7229   16.8149   -0.2297 H   0  0  0  0  0  0  0  0  0  0  0  0
    3.4674   17.8472    0.4878 H   0  0  0  0  0  0  0  0  0  0  0  0
    3.8497   15.0692    1.0396 H   0  0  0  0  0  0  0  0  0  0  0  0
    2.3937   15.9679    1.4589 H   0  0  0  0  0  0  0  0  0  0  0  0
    4.0523   13.6329   -0.5199 H   0  0  0  0  0  0  0  0  0  0  0  0
    2.9116   13.3549   -1.8794 H   0  0  0  0  0  0  0  0  0  0  0  0
    3.9727   14.8043   -1.8794 H   0  0  0  0  0  0  0  0  0  0  0  0
    0.5238   14.6786    0.6178 H   0  0  0  0  0  0  0  0  0  0  0  0
    2.4218   13.1620    1.4794 H   0  0  0  0  0  0  0  0  0  0  0  0
    0.6654   12.6122    1.5310 H   0  0  0  0  0  0  0  0  0  0  0  0
    2.4310   10.8065    0.7841 H   0  0  0  0  0  0  0  0  0  0  0  0
    1.4500   12.6846   -2.6523 H   0  0  0  0  0  0  0  0  0  0  0  0
   -1.0498   11.0255   -1.9466 H   0  0  0  0  0  0  0  0  0  0  0  0
   -0.8360   12.1204   -3.3838 H   0  0  0  0  0  0  0  0  0  0  0  0
   -0.5886    9.7320   -3.9815 H   0  0  0  0  0  0  0  0  0  0  0  0
    0.9212   10.6874   -4.2524 H   0  0  0  0  0  0  0  0  0  0  0  0
    1.5080    8.5837   -3.2589 H   0  0  0  0  0  0  0  0  0  0  0  0
   -0.7520    8.5820   -2.1750 H   0  0  0  0  0  0  0  0  0  0  0  0
    4.1475   10.7705   -2.1438 H   0  0  0  0  0  0  0  0  0  0  0  0
    3.5713    9.5926   -3.3714 H   0  0  0  0  0  0  0  0  0  0  0  0
    2.9362   11.2728   -3.3714 H   0  0  0  0  0  0  0  0  0  0  0  0
    2.5713    9.2655    0.2179 H   0  0  0  0  0  0  0  0  0  0  0  0
    2.2796    7.9800   -1.0023 H   0  0  0  0  0  0  0  0  0  0  0  0
    3.8327    8.8826   -1.0023 H   0  0  0  0  0  0  0  0  0  0  0  0
   -1.0920   13.1753    0.5816 H   0  0  0  0  0  0  0  0  0  0  0  0
   -1.9573   13.8784   -0.8268 H   0  0  0  0  0  0  0  0  0  0  0  0
   -1.5055   12.1398   -0.8268 H   0  0  0  0  0  0  0  0  0  0  0  0
   -0.4427   14.1458   -3.1629 H   0  0  0  0  0  0  0  0  0  0  0  0
   -0.8958   15.2695   -1.7606 H   0  0  0  0  0  0  0  0  0  0  0  0
    1.7849   15.0453   -3.1573 H   0  0  0  0  0  0  0  0  0  0  0  0
    0.6308   16.4361   -3.1479 H   0  0  0  0  0  0  0  0  0  0  0  0
    0.7610   16.8495    0.5608 H   0  0  0  0  0  0  0  0  0  0  0  0
    0.7033   18.0302   -0.7917 H   0  0  0  0  0  0  0  0  0  0  0  0
   -0.3965   16.6099   -0.7917 H   0  0  0  0  0  0  0  0  0  0  0  0
  1  2  1  0
  2  3  1  0
  3  4  1  0
  4  5  1  0
  5  6  1  0
  6  7  1  0
  7  8  1  0
  7  9  1  0
  2 10  1  0
 10 11  1  0
 11 12  1  0
 12 13  1  0
 13 14  1  6
 13 15  1  0
 15 16  1  0
 16 17  1  0
 17 18  2  0
 18 19  1  0
 19 20  1  0
 20 21  1  0
 21 22  1  0
 22 23  1  0
 22 24  1  0
 24 25  1  0
 24 26  1  0
 19 27  1  0
 27 28  1  1
 27 29  1  0
 29 30  1  0
 30 31  1  0
 31 32  1  1
  7  5  1  0
 31 10  1  0
 31 13  1  0
 27 15  1  0
 24 18  1  0
  1 33  1  0
  1 34  1  0
  1 35  1  0
  2 36  1  6
  3 37  1  0
  3 38  1  0
  4 39  1  0
  4 40  1  0
  5 41  1  6
  8 42  1  0
  8 43  1  0
  8 44  1  0
  9 45  1  0
  9 46  1  0
  9 47  1  0
 10 48  1  6
 11 49  1  0
 11 50  1  0
 12 51  1  0
 12 52  1  0
 14 53  1  0
 14 54  1  0
 14 55  1  0
 15 56  1  1
 16 57  1  0
 16 58  1  0
 17 59  1  0
 19 60  1  6
 20 61  1  0
 20 62  1  0
 21 63  1  0
 21 64  1  0
 22 65  1  6
 23 66  1  0
 25 67  1  0
 25 68  1  0
 25 69  1  0
 26 70  1  0
 26 71  1  0
 26 72  1  0
 28 73  1  0
 28 74  1  0
 28 75  1  0
 29 76  1  0
 29 77  1  0
 30 78  1  0
 30 79  1  0
 32 80  1  0
 32 81  1  0
 32 82  1  0
M  END
>  <meeko>  (8) 
{"is_sidechain": [false], "intermolecular_energy": 2.731, "internal_energy": -0.839}

$$$$
EPH_relaxed_0001_pdb2pqr_Repair_247_r2_0001_out
     RDKit          3D

 82 86  0  0  0  0  0  0  0  0999 V2000
   -3.7310    7.2260   -3.4080 C   0  0  0  0  0  0  0  0  0  0  0  0
   -3.7390    7.2990   -1.8790 C   0  0  2  0  0  0  0  0  0  0  0  0
   -5.1480    7.0730   -1.2940 C   0  0  0  0  0  0  0  0  0  0  0  0
   -6.2700    7.1980   -2.3280 C   0  0  0  0  0  0  0  0  0  0  0  0
   -7.5990    7.4370   -1.6770 C   0  0  2  0  0  0  0  0  0  0  0  0
   -8.2170    6.2650   -1.1300 O   0  0  0  0  0  0  0  0  0  0  0  0
   -8.9070    6.8940   -2.2220 C   0  0  0  0  0  0  0  0  0  0  0  0
   -8.9500    6.0700   -3.4700 C   0  0  0  0  0  0  0  0  0  0  0  0
  -10.1830    7.5670   -1.8210 C   0  0  0  0  0  0  0  0  0  0  0  0
   -3.1940    8.6460   -1.4190 C   0  0  1  0  0  0  0  0  0  0  0  0
   -3.8150    9.1150   -0.0770 C   0  0  0  0  0  0  0  0  0  0  0  0
   -2.7010    9.8710    0.6920 C   0  0  0  0  0  0  0  0  0  0  0  0
   -1.5890   10.1000   -0.3580 C   0  0  1  0  0  0  0  0  0  0  0  0
   -2.0530   11.3510   -1.1680 C   0  0  0  0  0  0  0  0  0  0  0  0
   -0.1390   10.2780    0.1980 C   0  0  2  0  0  0  0  0  0  0  0  0
    0.0660   11.5030    1.1060 C   0  0  0  0  0  0  0  0  0  0  0  0
    0.4830   12.7530    0.4050 C   0  0  0  0  0  0  0  0  0  0  0  0
    0.9600   12.8240   -0.8520 C   0  0  0  0  0  0  0  0  0  0  0  0
    1.2130   11.5510   -1.6700 C   0  0  1  0  0  0  0  0  0  0  0  0
    2.6060   11.6400   -2.3480 C   0  0  0  0  0  0  0  0  0  0  0  0
    2.7730   12.9100   -3.1770 C   0  0  0  0  0  0  0  0  0  0  0  0
    2.5720   14.1540   -2.3150 C   0  0  2  0  0  0  0  0  0  0  0  0
    3.6370   14.2320   -1.3620 O   0  0  0  0  0  0  0  0  0  0  0  0
    1.2050   14.1710   -1.5740 C   0  0  0  0  0  0  0  0  0  0  0  0
    0.0620   14.3900   -2.5960 C   0  0  0  0  0  0  0  0  0  0  0  0
    1.1880   15.4060   -0.6330 C   0  0  0  0  0  0  0  0  0  0  0  0
    0.9940   10.1770   -0.9020 C   0  0  1  0  0  0  0  0  0  0  0  0
    2.3030    9.7700   -0.1570 C   0  0  0  0  0  0  0  0  0  0  0  0
    0.7090    9.0400   -1.9530 C   0  0  0  0  0  0  0  0  0  0  0  0
   -0.7580    8.8340   -2.3730 C   0  0  0  0  0  0  0  0  0  0  0  0
   -1.6720    8.7420   -1.1470 C   0  0  2  0  0  0  0  0  0  0  0  0
   -1.2430    7.4790   -0.3250 C   0  0  0  0  0  0  0  0  0  0  0  0
   -3.6162    6.1788   -3.7245 H   0  0  0  0  0  0  0  0  0  0  0  0
   -4.6783    7.6255   -3.7991 H   0  0  0  0  0  0  0  0  0  0  0  0
   -2.8927    7.8212   -3.7991 H   0  0  0  0  0  0  0  0  0  0  0  0
   -3.0931    6.4903   -1.5064 H   0  0  0  0  0  0  0  0  0  0  0  0
   -5.1862    6.0628   -0.8603 H   0  0  0  0  0  0  0  0  0  0  0  0
   -5.3142    7.8586   -0.5422 H   0  0  0  0  0  0  0  0  0  0  0  0
   -6.0447    8.0404   -2.9985 H   0  0  0  0  0  0  0  0  0  0  0  0
   -6.3273    6.2531   -2.8882 H   0  0  0  0  0  0  0  0  0  0  0  0
   -7.2916    8.4462   -1.3656 H   0  0  0  0  0  0  0  0  0  0  0  0
   -9.0056    5.0041   -3.2039 H   0  0  0  0  0  0  0  0  0  0  0  0
   -9.8349    6.3468   -4.0618 H   0  0  0  0  0  0  0  0  0  0  0  0
   -8.0411    6.2532   -4.0618 H   0  0  0  0  0  0  0  0  0  0  0  0
  -10.2498    7.6022   -0.7236 H   0  0  0  0  0  0  0  0  0  0  0  0
  -10.1993    8.5910   -2.2224 H   0  0  0  0  0  0  0  0  0  0  0  0
  -11.0373    7.0022   -2.2224 H   0  0  0  0  0  0  0  0  0  0  0  0
   -3.4595    9.2600   -2.2922 H   0  0  0  0  0  0  0  0  0  0  0  0
   -4.6658    9.7857   -0.2673 H   0  0  0  0  0  0  0  0  0  0  0  0
   -4.1865    8.2596    0.5063 H   0  0  0  0  0  0  0  0  0  0  0  0
   -3.0767   10.8311    1.0755 H   0  0  0  0  0  0  0  0  0  0  0  0
   -2.3406    9.3075    1.5652 H   0  0  0  0  0  0  0  0  0  0  0  0
   -2.3492   12.1495   -0.4718 H   0  0  0  0  0  0  0  0  0  0  0  0
   -1.2263   11.7049   -1.8015 H   0  0  0  0  0  0  0  0  0  0  0  0
   -2.9105   11.0802   -1.8015 H   0  0  0  0  0  0  0  0  0  0  0  0
   -0.0278    9.4003    0.8517 H   0  0  0  0  0  0  0  0  0  0  0  0
   -0.8830   11.7044    1.6246 H   0  0  0  0  0  0  0  0  0  0  0  0
    0.8923   11.2443    1.7845 H   0  0  0  0  0  0  0  0  0  0  0  0
    0.3929   13.6967    0.9630 H   0  0  0  0  0  0  0  0  0  0  0  0
    0.4253   11.5211   -2.4372 H   0  0  0  0  0  0  0  0  0  0  0  0
    3.3801   11.6246   -1.5667 H   0  0  0  0  0  0  0  0  0  0  0  0
    2.7013   10.7816   -3.0292 H   0  0  0  0  0  0  0  0  0  0  0  0
    3.7856   12.9292   -3.6064 H   0  0  0  0  0  0  0  0  0  0  0  0
    2.0167   12.9101   -3.9758 H   0  0  0  0  0  0  0  0  0  0  0  0
    2.5759   15.0251   -2.9867 H   0  0  0  0  0  0  0  0  0  0  0  0
    3.3510   14.8290   -0.6500 H   0  0  0  0  0  0  0  0  0  0  0  0
   -0.8807   14.5706   -2.0587 H   0  0  0  0  0  0  0  0  0  0  0  0
    0.2965   15.2596   -3.2276 H   0  0  0  0  0  0  0  0  0  0  0  0
   -0.0416   13.4954   -3.2276 H   0  0  0  0  0  0  0  0  0  0  0  0
    1.1926   15.0692    0.4142 H   0  0  0  0  0  0  0  0  0  0  0  0
    2.0777   16.0242   -0.8233 H   0  0  0  0  0  0  0  0  0  0  0  0
    0.2816   15.9995   -0.8233 H   0  0  0  0  0  0  0  0  0  0  0  0
    2.1377    9.8214    0.9293 H   0  0  0  0  0  0  0  0  0  0  0  0
    2.5804    8.7432   -0.4375 H   0  0  0  0  0  0  0  0  0  0  0  0
    3.1137   10.4585   -0.4375 H   0  0  0  0  0  0  0  0  0  0  0  0
    1.2852    9.2737   -2.8604 H   0  0  0  0  0  0  0  0  0  0  0  0
    0.9984    8.1051   -1.4509 H   0  0  0  0  0  0  0  0  0  0  0  0
   -1.0764    9.6827   -2.9962 H   0  0  0  0  0  0  0  0  0  0  0  0
   -0.8323    7.8926   -2.9371 H   0  0  0  0  0  0  0  0  0  0  0  0
   -1.3176    7.6986    0.7503 H   0  0  0  0  0  0  0  0  0  0  0  0
   -1.9055    6.6370   -0.5741 H   0  0  0  0  0  0  0  0  0  0  0  0
   -0.2047    7.2147   -0.5741 H   0  0  0  0  0  0  0  0  0  0  0  0
  1  2  1  0
  2  3  1  0
  3  4  1  0
  4  5  1  0
  5  6  1  0
  6  7  1  0
  7  8  1  0
  7  9  1  0
  2 10  1  0
 10 11  1  0
 11 12  1  0
 12 13  1  0
 13 14  1  6
 13 15  1  0
 15 16  1  0
 16 17  1  0
 17 18  2  0
 18 19  1  0
 19 20  1  0
 20 21  1  0
 21 22  1  0
 22 23  1  0
 22 24  1  0
 24 25  1  0
 24 26  1  0
 19 27  1  0
 27 28  1  1
 27 29  1  0
 29 30  1  0
 30 31  1  0
 31 32  1  1
  7  5  1  0
 31 10  1  0
 31 13  1  0
 27 15  1  0
 24 18  1  0
  1 33  1  0
  1 34  1  0
  1 35  1  0
  2 36  1  1
  3 37  1  0
  3 38  1  0
  4 39  1  0
  4 40  1  0
  5 41  1  1
  8 42  1  0
  8 43  1  0
  8 44  1  0
  9 45  1  0
  9 46  1  0
  9 47  1  0
 10 48  1  6
 11 49  1  0
 11 50  1  0
 12 51  1  0
 12 52  1  0
 14 53  1  0
 14 54  1  0
 14 55  1  0
 15 56  1  1
 16 57  1  0
 16 58  1  0
 17 59  1  0
 19 60  1  6
 20 61  1  0
 20 62  1  0
 21 63  1  0
 21 64  1  0
 22 65  1  6
 23 66  1  0
 25 67  1  0
 25 68  1  0
 25 69  1  0
 26 70  1  0
 26 71  1  0
 26 72  1  0
 28 73  1  0
 28 74  1  0
 28 75  1  0
 29 76  1  0
 29 77  1  0
 30 78  1  0
 30 79  1  0
 32 80  1  0
 32 81  1  0
 32 82  1  0
M  END
>  <meeko>  (9) 
{"is_sidechain": [false], "intermolecular_energy": 2.731, "internal_energy": -0.839}

$$$$
EPH_relaxed_0001_pdb2pqr_Repair_247_r2_0001_out
     RDKit          3D

 82 86  0  0  0  0  0  0  0  0999 V2000
   -0.8710   16.3680   -5.8290 C   0  0  0  0  0  0  0  0  0  0  0  0
    0.2130   15.6640   -6.6500 C   0  0  2  0  0  0  0  0  0  0  0  0
   -0.1990   15.4890   -8.1260 C   0  0  0  0  0  0  0  0  0  0  0  0
    0.4450   16.5090   -9.0690 C   0  0  0  0  0  0  0  0  0  0  0  0
    1.8460   16.1210   -9.4340 C   0  0  2  0  0  0  0  0  0  0  0  0
    2.3180   16.6740  -10.6690 O   0  0  0  0  0  0  0  0  0  0  0  0
    2.1880   15.2430  -10.6240 C   0  0  0  0  0  0  0  0  0  0  0  0
    1.1240   14.7000  -11.5250 C   0  0  0  0  0  0  0  0  0  0  0  0
    3.4980   14.5190  -10.6250 C   0  0  0  0  0  0  0  0  0  0  0  0
    0.5320   14.3070   -6.0340 C   0  0  1  0  0  0  0  0  0  0  0  0
    1.7840   13.6430   -6.6680 C   0  0  0  0  0  0  0  0  0  0  0  0
    2.5030   12.8700   -5.5330 C   0  0  0  0  0  0  0  0  0  0  0  0
    1.4790   12.8370   -4.3740 C   0  0  1  0  0  0  0  0  0  0  0  0
    0.5100   11.6660   -4.7280 C   0  0  0  0  0  0  0  0  0  0  0  0
    2.0700   12.6820   -2.9340 C   0  0  2  0  0  0  0  0  0  0  0  0
    2.8350   11.3710   -2.6800 C   0  0  0  0  0  0  0  0  0  0  0  0
    2.0090   10.2420   -2.1600 C   0  0  0  0  0  0  0  0  0  0  0  0
    0.7740   10.3520   -1.6380 C   0  0  0  0  0  0  0  0  0  0  0  0
    0.1210   11.7260   -1.4410 C   0  0  1  0  0  0  0  0  0  0  0  0
   -0.5050   11.8050   -0.0240 C   0  0  0  0  0  0  0  0  0  0  0  0
   -1.4700   10.6560    0.2540 C   0  0  0  0  0  0  0  0  0  0  0  0
   -0.7690    9.3080    0.1050 C   0  0  2  0  0  0  0  0  0  0  0  0
    0.2100    9.1800    1.1410 O   0  0  0  0  0  0  0  0  0  0  0  0
   -0.0920    9.1180   -1.2810 C   0  0  0  0  0  0  0  0  0  0  0  0
   -1.1780    8.9540   -2.3730 C   0  0  0  0  0  0  0  0  0  0  0  0
    0.6960    7.7810   -1.2480 C   0  0  0  0  0  0  0  0  0  0  0  0
    1.0360   12.9820   -1.7740 C   0  0  1  0  0  0  0  0  0  0  0  0
    1.8760   13.3760   -0.5210 C   0  0  0  0  0  0  0  0  0  0  0  0
    0.1160   14.2180   -2.0980 C   0  0  0  0  0  0  0  0  0  0  0  0
   -0.3370   14.3830   -3.5610 C   0  0  0  0  0  0  0  0  0  0  0  0
    0.8530   14.2720   -4.5190 C   0  0  2  0  0  0  0  0  0  0  0  0
    1.8350   15.4510   -4.2010 C   0  0  0  0  0  0  0  0  0  0  0  0
   -0.6642   16.2337   -4.7570 H   0  0  0  0  0  0  0  0  0  0  0  0
   -0.8746   17.4412   -6.0701 H   0  0  0  0  0  0  0  0  0  0  0  0
   -1.8529   15.9348   -6.0701 H   0  0  0  0  0  0  0  0  0  0  0  0
    1.1095   16.3011   -6.6306 H   0  0  0  0  0  0  0  0  0  0  0  0
    0.0955   14.4804   -8.4517 H   0  0  0  0  0  0  0  0  0  0  0  0
   -1.2866   15.6452   -8.1772 H   0  0  0  0  0  0  0  0  0  0  0  0
   -0.1571   16.5750   -9.9872 H   0  0  0  0  0  0  0  0  0  0  0  0
    0.4823   17.4785   -8.5507 H   0  0  0  0  0  0  0  0  0  0  0  0
    2.1335   16.0709   -8.3734 H   0  0  0  0  0  0  0  0  0  0  0  0
    0.3070   14.2831  -10.9178 H   0  0  0  0  0  0  0  0  0  0  0  0
    0.7331   15.5089  -12.1598 H   0  0  0  0  0  0  0  0  0  0  0  0
    1.5497   13.9089  -12.1598 H   0  0  0  0  0  0  0  0  0  0  0  0
    3.8195   14.3413   -9.5882 H   0  0  0  0  0  0  0  0  0  0  0  0
    3.3842   13.5557  -11.1438 H   0  0  0  0  0  0  0  0  0  0  0  0
    4.2531   15.1279  -11.1438 H   0  0  0  0  0  0  0  0  0  0  0  0
   -0.4176   13.7874   -6.2294 H   0  0  0  0  0  0  0  0  0  0  0  0
    1.4816   12.9493   -7.4663 H   0  0  0  0  0  0  0  0  0  0  0  0
    2.4482   14.3978   -7.1143 H   0  0  0  0  0  0  0  0  0  0  0  0
    2.7554   11.8497   -5.8574 H   0  0  0  0  0  0  0  0  0  0  0  0
    3.4503   13.3458   -5.2393 H   0  0  0  0  0  0  0  0  0  0  0  0
    0.1324   11.2096   -3.8011 H   0  0  0  0  0  0  0  0  0  0  0  0
   -0.3346   12.0541   -5.3162 H   0  0  0  0  0  0  0  0  0  0  0  0
    1.0493   10.9089   -5.3162 H   0  0  0  0  0  0  0  0  0  0  0  0
    2.8266   13.4799   -2.9020 H   0  0  0  0  0  0  0  0  0  0  0  0
    3.2874   11.0517   -3.6305 H   0  0  0  0  0  0  0  0  0  0  0  0
    3.5722   11.5957   -1.8951 H   0  0  0  0  0  0  0  0  0  0  0  0
    2.4473    9.2342   -2.2076 H   0  0  0  0  0  0  0  0  0  0  0  0
   -0.6698   11.7980   -2.2023 H   0  0  0  0  0  0  0  0  0  0  0  0
    0.3037   11.7744    0.7210 H   0  0  0  0  0  0  0  0  0  0  0  0
   -1.0762   12.7431    0.0370 H   0  0  0  0  0  0  0  0  0  0  0  0
   -1.8559   10.7499    1.2798 H   0  0  0  0  0  0  0  0  0  0  0  0
   -2.2944   10.7057   -0.4725 H   0  0  0  0  0  0  0  0  0  0  0  0
   -1.5384    8.5261    0.1869 H   0  0  0  0  0  0  0  0  0  0  0  0
    0.3050   10.0500    1.5650 H   0  0  0  0  0  0  0  0  0  0  0  0
   -2.1581    8.8060   -1.8961 H   0  0  0  0  0  0  0  0  0  0  0  0
   -1.2077    9.8578   -2.9992 H   0  0  0  0  0  0  0  0  0  0  0  0
   -0.9395    8.0817   -2.9992 H   0  0  0  0  0  0  0  0  0  0  0  0
    0.8709    7.4842   -0.2033 H   0  0  0  0  0  0  0  0  0  0  0  0
    0.1140    6.9997   -1.7586 H   0  0  0  0  0  0  0  0  0  0  0  0
    1.6615    7.9117   -1.7586 H   0  0  0  0  0  0  0  0  0  0  0  0
    1.3190   13.1147    0.3908 H   0  0  0  0  0  0  0  0  0  0  0  0
    2.8322   12.8325   -0.5349 H   0  0  0  0  0  0  0  0  0  0  0  0
    2.0694   14.4588   -0.5349 H   0  0  0  0  0  0  0  0  0  0  0  0
   -0.7882   14.1313   -1.4776 H   0  0  0  0  0  0  0  0  0  0  0  0
    0.7368   15.1014   -1.8879 H   0  0  0  0  0  0  0  0  0  0  0  0
   -1.0678   13.5970   -3.8023 H   0  0  0  0  0  0  0  0  0  0  0  0
   -0.7898   15.3786   -3.6779 H   0  0  0  0  0  0  0  0  0  0  0  0
    1.9301   15.5652   -3.1111 H   0  0  0  0  0  0  0  0  0  0  0  0
    2.8222   15.2329   -4.6343 H   0  0  0  0  0  0  0  0  0  0  0  0
    1.4420   16.3825   -4.6343 H   0  0  0  0  0  0  0  0  0  0  0  0
  1  2  1  0
  2  3  1  0
  3  4  1  0
  4  5  1  0
  5  6  1  0
  6  7  1  0
  7  8  1  0
  7  9  1  0
  2 10  1  0
 10 11  1  0
 11 12  1  0
 12 13  1  0
 13 14  1  6
 13 15  1  0
 15 16  1  0
 16 17  1  0
 17 18  2  0
 18 19  1  0
 19 20  1  0
 20 21  1  0
 21 22  1  0
 22 23  1  0
 22 24  1  0
 24 25  1  0
 24 26  1  0
 19 27  1  0
 27 28  1  1
 27 29  1  0
 29 30  1  0
 30 31  1  0
 31 32  1  1
  7  5  1  0
 31 10  1  0
 31 13  1  0
 27 15  1  0
 24 18  1  0
  1 33  1  0
  1 34  1  0
  1 35  1  0
  2 36  1  6
  3 37  1  0
  3 38  1  0
  4 39  1  0
  4 40  1  0
  5 41  1  1
  8 42  1  0
  8 43  1  0
  8 44  1  0
  9 45  1  0
  9 46  1  0
  9 47  1  0
 10 48  1  1
 11 49  1  0
 11 50  1  0
 12 51  1  0
 12 52  1  0
 14 53  1  0
 14 54  1  0
 14 55  1  0
 15 56  1  6
 16 57  1  0
 16 58  1  0
 17 59  1  0
 19 60  1  6
 20 61  1  0
 20 62  1  0
 21 63  1  0
 21 64  1  0
 22 65  1  1
 23 66  1  0
 25 67  1  0
 25 68  1  0
 25 69  1  0
 26 70  1  0
 26 71  1  0
 26 72  1  0
 28 73  1  0
 28 74  1  0
 28 75  1  0
 29 76  1  0
 29 77  1  0
 30 78  1  0
 30 79  1  0
 32 80  1  0
 32 81  1  0
 32 82  1  0
M  END
>  <meeko>  (10) 
{"is_sidechain": [false], "intermolecular_energy": 2.731, "internal_energy": -0.839}

$$$$
EPH_relaxed_0001_pdb2pqr_Repair_247_r2_0001_out
     RDKit          3D

 82 86  0  0  0  0  0  0  0  0999 V2000
   -2.1250    7.8730   -2.0280 C   0  0  0  0  0  0  0  0  0  0  0  0
   -2.1420    8.5370   -0.6480 C   0  0  2  0  0  0  0  0  0  0  0  0
   -3.5530    8.5490   -0.0260 C   0  0  0  0  0  0  0  0  0  0  0  0
   -4.6810    8.5330   -1.0610 C   0  0  0  0  0  0  0  0  0  0  0  0
   -5.5150    7.2920   -0.9530 C   0  0  2  0  0  0  0  0  0  0  0  0
   -5.6520    6.5550   -2.1750 O   0  0  0  0  0  0  0  0  0  0  0  0
   -6.8580    7.1240   -1.6390 C   0  0  0  0  0  0  0  0  0  0  0  0
   -7.4440    8.2120   -2.4830 C   0  0  0  0  0  0  0  0  0  0  0  0
   -7.8150    6.1080   -1.0980 C   0  0  0  0  0  0  0  0  0  0  0  0
   -1.6060    9.9600   -0.7500 C   0  0  1  0  0  0  0  0  0  0  0  0
   -1.1190   10.5140    0.6160 C   0  0  0  0  0  0  0  0  0  0  0  0
    0.1020   11.4230    0.3200 C   0  0  0  0  0  0  0  0  0  0  0  0
    0.0730   11.6280   -1.2130 C   0  0  1  0  0  0  0  0  0  0  0  0
   -0.9820   12.7540   -1.4470 C   0  0  0  0  0  0  0  0  0  0  0  0
    1.4410   11.9680   -1.8900 C   0  0  2  0  0  0  0  0  0  0  0  0
    2.0840   13.2900   -1.4350 C   0  0  0  0  0  0  0  0  0  0  0  0
    1.7070   14.4910   -2.2370 C   0  0  0  0  0  0  0  0  0  0  0  0
    1.1170   14.4710   -3.4470 C   0  0  0  0  0  0  0  0  0  0  0  0
    0.8560   13.1450   -4.1730 C   0  0  1  0  0  0  0  0  0  0  0  0
    1.3050   13.2690   -5.6530 C   0  0  0  0  0  0  0  0  0  0  0  0
    0.6640   14.4590   -6.3610 C   0  0  0  0  0  0  0  0  0  0  0  0
    0.9940   15.7640   -5.6420 C   0  0  2  0  0  0  0  0  0  0  0  0
    2.3980   16.0160   -5.7660 O   0  0  0  0  0  0  0  0  0  0  0  0
    0.5960   15.7540   -4.1400 C   0  0  0  0  0  0  0  0  0  0  0  0
   -0.9470   15.7840   -4.0100 C   0  0  0  0  0  0  0  0  0  0  0  0
    1.1110   17.0720   -3.5000 C   0  0  0  0  0  0  0  0  0  0  0  0
    1.4310   11.8430   -3.4680 C   0  0  1  0  0  0  0  0  0  0  0  0
    2.9100   11.6110   -3.9050 C   0  0  0  0  0  0  0  0  0  0  0  0
    0.6200   10.5880   -3.9640 C   0  0  0  0  0  0  0  0  0  0  0  0
   -0.6580   10.2330   -3.1790 C   0  0  0  0  0  0  0  0  0  0  0  0
   -0.3840   10.1960   -1.6730 C   0  0  2  0  0  0  0  0  0  0  0  0
    0.6570    9.0570   -1.4040 C   0  0  0  0  0  0  0  0  0  0  0  0
   -2.0970    6.7799   -1.9086 H   0  0  0  0  0  0  0  0  0  0  0  0
   -3.0307    8.1581   -2.5833 H   0  0  0  0  0  0  0  0  0  0  0  0
   -1.2350    8.2041   -2.5833 H   0  0  0  0  0  0  0  0  0  0  0  0
   -1.4951    7.9420    0.0134 H   0  0  0  0  0  0  0  0  0  0  0  0
   -3.6575    7.6616    0.6155 H   0  0  0  0  0  0  0  0  0  0  0  0
   -3.6478    9.4881    0.5389 H   0  0  0  0  0  0  0  0  0  0  0  0
   -5.3248    9.4103   -0.9002 H   0  0  0  0  0  0  0  0  0  0  0  0
   -4.2274    8.5552   -2.0629 H   0  0  0  0  0  0  0  0  0  0  0  0
   -5.1942    7.1385    0.0879 H   0  0  0  0  0  0  0  0  0  0  0  0
   -7.8649    8.9935   -1.8334 H   0  0  0  0  0  0  0  0  0  0  0  0
   -6.6582    8.6470   -3.1180 H   0  0  0  0  0  0  0  0  0  0  0  0
   -8.2396    7.7952   -3.1180 H   0  0  0  0  0  0  0  0  0  0  0  0
   -7.7924    6.1320    0.0015 H   0  0  0  0  0  0  0  0  0  0  0  0
   -8.8317    6.3385   -1.4490 H   0  0  0  0  0  0  0  0  0  0  0  0
   -7.5241    5.1069   -1.4490 H   0  0  0  0  0  0  0  0  0  0  0  0
   -2.4928   10.4615   -1.1648 H   0  0  0  0  0  0  0  0  0  0  0  0
   -1.9188   11.0979    1.0949 H   0  0  0  0  0  0  0  0  0  0  0  0
   -0.8464    9.6963    1.2995 H   0  0  0  0  0  0  0  0  0  0  0  0
    0.0049   12.3861    0.8425 H   0  0  0  0  0  0  0  0  0  0  0  0
    1.0471   10.9772    0.6635 H   0  0  0  0  0  0  0  0  0  0  0  0
   -1.3362   13.1320   -0.4766 H   0  0  0  0  0  0  0  0  0  0  0  0
   -0.5213   13.5759   -2.0147 H   0  0  0  0  0  0  0  0  0  0  0  0
   -1.8321   12.3477   -2.0147 H   0  0  0  0  0  0  0  0  0  0  0  0
    2.0972   11.1711   -1.5101 H   0  0  0  0  0  0  0  0  0  0  0  0
    1.7869   13.4711   -0.3915 H   0  0  0  0  0  0  0  0  0  0  0  0
    3.1685   13.1629   -1.5684 H   0  0  0  0  0  0  0  0  0  0  0  0
    1.9302   15.4765   -1.8024 H   0  0  0  0  0  0  0  0  0  0  0  0
   -0.2305   12.9803   -4.1244 H   0  0  0  0  0  0  0  0  0  0  0  0
    2.3981   13.3889   -5.6810 H   0  0  0  0  0  0  0  0  0  0  0  0
    0.9844   12.3564   -6.1768 H   0  0  0  0  0  0  0  0  0  0  0  0
    1.0425   14.5107   -7.3926 H   0  0  0  0  0  0  0  0  0  0  0  0
   -0.4275   14.3229   -6.3581 H   0  0  0  0  0  0  0  0  0  0  0  0
    0.4033   16.5609   -6.1173 H   0  0  0  0  0  0  0  0  0  0  0  0
    2.5090   16.7700   -6.3710 H   0  0  0  0  0  0  0  0  0  0  0  0
   -1.2253   15.7894   -2.9458 H   0  0  0  0  0  0  0  0  0  0  0  0
   -1.3384   16.6899   -4.4959 H   0  0  0  0  0  0  0  0  0  0  0  0
   -1.3733   14.8940   -4.4959 H   0  0  0  0  0  0  0  0  0  0  0  0
    1.0770   16.9851   -2.4040 H   0  0  0  0  0  0  0  0  0  0  0  0
    2.1469   17.2553   -3.8214 H   0  0  0  0  0  0  0  0  0  0  0  0
    0.4738   17.9091   -3.8214 H   0  0  0  0  0  0  0  0  0  0  0  0
    3.5448   11.5114   -3.0122 H   0  0  0  0  0  0  0  0  0  0  0  0
    2.9750   10.6917   -4.5055 H   0  0  0  0  0  0  0  0  0  0  0  0
    3.2534   12.4663   -4.5055 H   0  0  0  0  0  0  0  0  0  0  0  0
    0.3289   10.7714   -5.0088 H   0  0  0  0  0  0  0  0  0  0  0  0
    1.2953    9.7321   -3.8176 H   0  0  0  0  0  0  0  0  0  0  0  0
   -1.4292   10.9896   -3.3859 H   0  0  0  0  0  0  0  0  0  0  0  0
   -1.0000    9.2373   -3.4977 H   0  0  0  0  0  0  0  0  0  0  0  0
    0.7805    8.9218   -0.3193 H   0  0  0  0  0  0  0  0  0  0  0  0
    0.2978    8.1187   -1.8519 H   0  0  0  0  0  0  0  0  0  0  0  0
    1.6237    9.3306   -1.8519 H   0  0  0  0  0  0  0  0  0  0  0  0
  1  2  1  0
  2  3  1  0
  3  4  1  0
  4  5  1  0
  5  6  1  0
  6  7  1  0
  7  8  1  0
  7  9  1  0
  2 10  1  0
 10 11  1  0
 11 12  1  0
 12 13  1  0
 13 14  1  1
 13 15  1  0
 15 16  1  0
 16 17  1  0
 17 18  2  0
 18 19  1  0
 19 20  1  0
 20 21  1  0
 21 22  1  0
 22 23  1  0
 22 24  1  0
 24 25  1  0
 24 26  1  0
 19 27  1  0
 27 28  1  6
 27 29  1  0
 29 30  1  0
 30 31  1  0
 31 32  1  6
  7  5  1  0
 31 10  1  0
 31 13  1  0
 27 15  1  0
 24 18  1  0
  1 33  1  0
  1 34  1  0
  1 35  1  0
  2 36  1  1
  3 37  1  0
  3 38  1  0
  4 39  1  0
  4 40  1  0
  5 41  1  1
  8 42  1  0
  8 43  1  0
  8 44  1  0
  9 45  1  0
  9 46  1  0
  9 47  1  0
 10 48  1  6
 11 49  1  0
 11 50  1  0
 12 51  1  0
 12 52  1  0
 14 53  1  0
 14 54  1  0
 14 55  1  0
 15 56  1  1
 16 57  1  0
 16 58  1  0
 17 59  1  0
 19 60  1  6
 20 61  1  0
 20 62  1  0
 21 63  1  0
 21 64  1  0
 22 65  1  6
 23 66  1  0
 25 67  1  0
 25 68  1  0
 25 69  1  0
 26 70  1  0
 26 71  1  0
 26 72  1  0
 28 73  1  0
 28 74  1  0
 28 75  1  0
 29 76  1  0
 29 77  1  0
 30 78  1  0
 30 79  1  0
 32 80  1  0
 32 81  1  0
 32 82  1  0
M  END
>  <meeko>  (11) 
{"is_sidechain": [false], "intermolecular_energy": 2.731, "internal_energy": -0.839}

$$$$
EPH_relaxed_0001_pdb2pqr_Repair_247_r2_0001_out
     RDKit          3D

 82 86  0  0  0  0  0  0  0  0999 V2000
   -0.6550    9.2320   -1.6610 C   0  0  0  0  0  0  0  0  0  0  0  0
    0.3880   10.1400   -2.3200 C   0  0  2  0  0  0  0  0  0  0  0  0
    1.7320    9.4170   -2.5380 C   0  0  0  0  0  0  0  0  0  0  0  0
    2.5960   10.0420   -3.6370 C   0  0  0  0  0  0  0  0  0  0  0  0
    4.0420   10.0920   -3.2450 C   0  0  2  0  0  0  0  0  0  0  0  0
    4.5160   11.3930   -2.8730 O   0  0  0  0  0  0  0  0  0  0  0  0
    5.1030   10.8170   -4.0520 C   0  0  0  0  0  0  0  0  0  0  0  0
    4.7620   11.5410   -5.3170 C   0  0  0  0  0  0  0  0  0  0  0  0
    6.5340   10.4140   -3.8780 C   0  0  0  0  0  0  0  0  0  0  0  0
    0.6000   11.3890   -1.4730 C   0  0  1  0  0  0  0  0  0  0  0  0
    1.7250   11.2110   -0.4180 C   0  0  0  0  0  0  0  0  0  0  0  0
    2.4320   12.5840   -0.2840 C   0  0  0  0  0  0  0  0  0  0  0  0
    1.4930   13.5790   -1.0060 C   0  0  1  0  0  0  0  0  0  0  0  0
    0.3800   13.9090    0.0370 C   0  0  0  0  0  0  0  0  0  0  0  0
    2.1610   14.8760   -1.5680 C   0  0  2  0  0  0  0  0  0  0  0  0
    2.7950   15.7950   -0.5090 C   0  0  0  0  0  0  0  0  0  0  0  0
    1.8890   16.8410    0.0520 C   0  0  0  0  0  0  0  0  0  0  0  0
    0.7120   17.2220   -0.4780 C   0  0  0  0  0  0  0  0  0  0  0  0
    0.2280   16.6490   -1.8160 C   0  0  1  0  0  0  0  0  0  0  0  0
   -0.2860   17.8020   -2.7170 C   0  0  0  0  0  0  0  0  0  0  0  0
   -1.3490   18.6530   -2.0290 C   0  0  0  0  0  0  0  0  0  0  0  0
   -0.8110   19.2530   -0.7320 C   0  0  2  0  0  0  0  0  0  0  0  0
    0.2180   20.1940   -1.0510 O   0  0  0  0  0  0  0  0  0  0  0  0
   -0.2560   18.1860    0.2520 C   0  0  0  0  0  0  0  0  0  0  0  0
   -1.4260   17.3530    0.8310 C   0  0  0  0  0  0  0  0  0  0  0  0
    0.3820   18.9320    1.4550 C   0  0  0  0  0  0  0  0  0  0  0  0
    1.2500   15.6930   -2.5710 C   0  0  1  0  0  0  0  0  0  0  0  0
    2.2120   16.5390   -3.4600 C   0  0  0  0  0  0  0  0  0  0  0  0
    0.4490   14.7560   -3.5500 C   0  0  0  0  0  0  0  0  0  0  0  0
   -0.0830   13.4330   -2.9660 C   0  0  0  0  0  0  0  0  0  0  0  0
    1.0190   12.6850   -2.2090 C   0  0  2  0  0  0  0  0  0  0  0  0
    2.1430   12.3200   -3.2380 C   0  0  0  0  0  0  0  0  0  0  0  0
   -0.5681    9.3076   -0.5670 H   0  0  0  0  0  0  0  0  0  0  0  0
   -1.6626    9.5456   -1.9714 H   0  0  0  0  0  0  0  0  0  0  0  0
   -0.4832    8.1908   -1.9714 H   0  0  0  0  0  0  0  0  0  0  0  0
    0.0012   10.4238   -3.3099 H   0  0  0  0  0  0  0  0  0  0  0  0
    2.2974    9.4431   -1.5948 H   0  0  0  0  0  0  0  0  0  0  0  0
    1.4970    8.3912   -2.8582 H   0  0  0  0  0  0  0  0  0  0  0  0
    2.4958    9.4421   -4.5535 H   0  0  0  0  0  0  0  0  0  0  0  0
    2.2494   11.0731   -3.8006 H   0  0  0  0  0  0  0  0  0  0  0  0
    3.9927    9.0699   -2.8414 H   0  0  0  0  0  0  0  0  0  0  0  0
    4.3050   12.5112   -5.0724 H   0  0  0  0  0  0  0  0  0  0  0  0
    5.6777   11.7046   -5.9041 H   0  0  0  0  0  0  0  0  0  0  0  0
    4.0527   10.9392   -5.9041 H   0  0  0  0  0  0  0  0  0  0  0  0
    6.7685   10.3480   -2.8053 H   0  0  0  0  0  0  0  0  0  0  0  0
    6.6991    9.4344   -4.3504 H   0  0  0  0  0  0  0  0  0  0  0  0
    7.1860   11.1635   -4.3504 H   0  0  0  0  0  0  0  0  0  0  0  0
   -0.4120   11.5038   -1.0573 H   0  0  0  0  0  0  0  0  0  0  0  0
    1.2941   10.9106    0.5485 H   0  0  0  0  0  0  0  0  0  0  0  0
    2.4350   10.4289   -0.7251 H   0  0  0  0  0  0  0  0  0  0  0  0
    2.5489   12.8589    0.7747 H   0  0  0  0  0  0  0  0  0  0  0  0
    3.4433   12.5762   -0.7166 H   0  0  0  0  0  0  0  0  0  0  0  0
    0.7830   13.7895    1.0535 H   0  0  0  0  0  0  0  0  0  0  0  0
    0.0415   14.9461   -0.1037 H   0  0  0  0  0  0  0  0  0  0  0  0
   -0.4691   13.2240   -0.1037 H   0  0  0  0  0  0  0  0  0  0  0  0
    2.9995   14.4731   -2.1550 H   0  0  0  0  0  0  0  0  0  0  0  0
    3.1434   15.1653    0.3229 H   0  0  0  0  0  0  0  0  0  0  0  0
    3.6046   16.3360   -1.0208 H   0  0  0  0  0  0  0  0  0  0  0  0
    2.2108   17.3426    0.9766 H   0  0  0  0  0  0  0  0  0  0  0  0
   -0.6005   15.9673   -1.5735 H   0  0  0  0  0  0  0  0  0  0  0  0
    0.5642   18.4472   -2.9833 H   0  0  0  0  0  0  0  0  0  0  0  0
   -0.7458   17.3497   -3.6081 H   0  0  0  0  0  0  0  0  0  0  0  0
   -1.6513   19.4671   -2.7042 H   0  0  0  0  0  0  0  0  0  0  0  0
   -2.2108   18.0128   -1.7892 H   0  0  0  0  0  0  0  0  0  0  0  0
   -1.6530   19.7433   -0.2214 H   0  0  0  0  0  0  0  0  0  0  0  0
   -0.1670   20.8600   -1.6460 H   0  0  0  0  0  0  0  0  0  0  0  0
   -1.3871   17.3807    1.9300 H   0  0  0  0  0  0  0  0  0  0  0  0
   -2.3819   17.7750    0.4872 H   0  0  0  0  0  0  0  0  0  0  0  0
   -1.3401   16.3117    0.4872 H   0  0  0  0  0  0  0  0  0  0  0  0
    0.0104   18.4975    2.3947 H   0  0  0  0  0  0  0  0  0  0  0  0
    1.4764   18.8298    1.4113 H   0  0  0  0  0  0  0  0  0  0  0  0
    0.1112   19.9973    1.4113 H   0  0  0  0  0  0  0  0  0  0  0  0
    2.8822   17.1284   -2.8170 H   0  0  0  0  0  0  0  0  0  0  0  0
    2.8093   15.8683   -4.0951 H   0  0  0  0  0  0  0  0  0  0  0  0
    1.6231   17.2171   -4.0951 H   0  0  0  0  0  0  0  0  0  0  0  0
   -0.4145   15.3258   -3.9238 H   0  0  0  0  0  0  0  0  0  0  0  0
    1.1744   14.4588   -4.3217 H   0  0  0  0  0  0  0  0  0  0  0  0
   -0.9098   13.6518   -2.2743 H   0  0  0  0  0  0  0  0  0  0  0  0
   -0.4315   12.7990   -3.7946 H   0  0  0  0  0  0  0  0  0  0  0  0
    3.0537   12.0243   -2.6966 H   0  0  0  0  0  0  0  0  0  0  0  0
    1.8047   11.4855   -3.8699 H   0  0  0  0  0  0  0  0  0  0  0  0
    2.3595   13.1940   -3.8699 H   0  0  0  0  0  0  0  0  0  0  0  0
  1  2  1  0
  2  3  1  0
  3  4  1  0
  4  5  1  0
  5  6  1  0
  6  7  1  0
  7  8  1  0
  7  9  1  0
  2 10  1  0
 10 11  1  0
 11 12  1  0
 12 13  1  0
 13 14  1  1
 13 15  1  0
 15 16  1  0
 16 17  1  0
 17 18  2  0
 18 19  1  0
 19 20  1  0
 20 21  1  0
 21 22  1  0
 22 23  1  0
 22 24  1  0
 24 25  1  0
 24 26  1  0
 19 27  1  0
 27 28  1  6
 27 29  1  0
 29 30  1  0
 30 31  1  0
 31 32  1  6
  7  5  1  0
 31 10  1  0
 31 13  1  0
 27 15  1  0
 24 18  1  0
  1 33  1  0
  1 34  1  0
  1 35  1  0
  2 36  1  6
  3 37  1  0
  3 38  1  0
  4 39  1  0
  4 40  1  0
  5 41  1  1
  8 42  1  0
  8 43  1  0
  8 44  1  0
  9 45  1  0
  9 46  1  0
  9 47  1  0
 10 48  1  1
 11 49  1  0
 11 50  1  0
 12 51  1  0
 12 52  1  0
 14 53  1  0
 14 54  1  0
 14 55  1  0
 15 56  1  6
 16 57  1  0
 16 58  1  0
 17 59  1  0
 19 60  1  1
 20 61  1  0
 20 62  1  0
 21 63  1  0
 21 64  1  0
 22 65  1  1
 23 66  1  0
 25 67  1  0
 25 68  1  0
 25 69  1  0
 26 70  1  0
 26 71  1  0
 26 72  1  0
 28 73  1  0
 28 74  1  0
 28 75  1  0
 29 76  1  0
 29 77  1  0
 30 78  1  0
 30 79  1  0
 32 80  1  0
 32 81  1  0
 32 82  1  0
M  END
>  <meeko>  (12) 
{"is_sidechain": [false], "intermolecular_energy": 2.731, "internal_energy": -0.839}

$$$$
EPH_relaxed_0001_pdb2pqr_Repair_247_r2_0001_out
     RDKit          3D

 82 86  0  0  0  0  0  0  0  0999 V2000
    1.6750   10.6840   -4.7710 C   0  0  0  0  0  0  0  0  0  0  0  0
    0.8730   10.5260   -3.4770 C   0  0  2  0  0  0  0  0  0  0  0  0
   -0.3060    9.5460   -3.6400 C   0  0  0  0  0  0  0  0  0  0  0  0
   -0.3360    8.4390   -2.5820 C   0  0  0  0  0  0  0  0  0  0  0  0
   -0.0360    8.9710   -1.2140 C   0  0  2  0  0  0  0  0  0  0  0  0
   -0.3650    8.0800   -0.1400 O   0  0  0  0  0  0  0  0  0  0  0  0
   -1.1080    9.3090   -0.1940 C   0  0  0  0  0  0  0  0  0  0  0  0
   -2.5610    9.1280   -0.5010 C   0  0  0  0  0  0  0  0  0  0  0  0
   -0.7710   10.2660    0.9070 C   0  0  0  0  0  0  0  0  0  0  0  0
    0.3600   11.8850   -3.0140 C   0  0  1  0  0  0  0  0  0  0  0  0
   -1.0610   11.8080   -2.3950 C   0  0  0  0  0  0  0  0  0  0  0  0
   -1.1090   12.8580   -1.2550 C   0  0  0  0  0  0  0  0  0  0  0  0
    0.1530   13.7250   -1.4690 C   0  0  1  0  0  0  0  0  0  0  0  0
   -0.2420   14.7380   -2.5890 C   0  0  0  0  0  0  0  0  0  0  0  0
    0.7150   14.4530   -0.2050 C   0  0  2  0  0  0  0  0  0  0  0  0
   -0.2360   15.4810    0.4330 C   0  0  0  0  0  0  0  0  0  0  0  0
   -0.1050   16.8760   -0.0830 C   0  0  0  0  0  0  0  0  0  0  0  0
    0.9260   17.3480   -0.8080 C   0  0  0  0  0  0  0  0  0  0  0  0
    2.1520   16.4720   -1.0970 C   0  0  1  0  0  0  0  0  0  0  0  0
    3.4450   17.2860   -0.8290 C   0  0  0  0  0  0  0  0  0  0  0  0
    3.4760   18.6050   -1.5950 C   0  0  0  0  0  0  0  0  0  0  0  0
    2.2720   19.4720   -1.2370 C   0  0  2  0  0  0  0  0  0  0  0  0
    2.3860   19.8770    0.1310 O   0  0  0  0  0  0  0  0  0  0  0  0
    0.9120   18.7540   -1.4570 C   0  0  0  0  0  0  0  0  0  0  0  0
    0.6520   18.5850   -2.9750 C   0  0  0  0  0  0  0  0  0  0  0  0
   -0.2120   19.6840   -0.9260 C   0  0  0  0  0  0  0  0  0  0  0  0
    2.1690   15.0480   -0.3910 C   0  0  1  0  0  0  0  0  0  0  0  0
    2.7870   15.1690    1.0350 C   0  0  0  0  0  0  0  0  0  0  0  0
    3.1110   14.0830   -1.2040 C   0  0  0  0  0  0  0  0  0  0  0  0
    2.4700   13.3020   -2.3660 C   0  0  0  0  0  0  0  0  0  0  0  0
    1.1750   12.6170   -1.9190 C   0  0  2  0  0  0  0  0  0  0  0  0
    1.5430   11.5760   -0.8070 C   0  0  0  0  0  0  0  0  0  0  0  0
    2.7274   10.8913   -4.5271 H   0  0  0  0  0  0  0  0  0  0  0  0
    1.6106    9.7559   -5.3579 H   0  0  0  0  0  0  0  0  0  0  0  0
    1.2634   11.5183   -5.3579 H   0  0  0  0  0  0  0  0  0  0  0  0
    1.5493   10.1054   -2.7183 H   0  0  0  0  0  0  0  0  0  0  0  0
   -1.2440   10.1166   -3.5725 H   0  0  0  0  0  0  0  0  0  0  0  0
   -0.1835    9.0547   -4.6165 H   0  0  0  0  0  0  0  0  0  0  0  0
   -1.3357    7.9801   -2.5746 H   0  0  0  0  0  0  0  0  0  0  0  0
    0.4360    7.6987   -2.8387 H   0  0  0  0  0  0  0  0  0  0  0  0
    0.8229    9.5410   -1.5981 H   0  0  0  0  0  0  0  0  0  0  0  0
   -3.1283    9.0573    0.4388 H   0  0  0  0  0  0  0  0  0  0  0  0
   -2.9225    9.9880   -1.0838 H   0  0  0  0  0  0  0  0  0  0  0  0
   -2.7005    8.2055   -1.0838 H   0  0  0  0  0  0  0  0  0  0  0  0
   -0.9418    9.7810    1.8794 H   0  0  0  0  0  0  0  0  0  0  0  0
    0.2853   10.5617    0.8252 H   0  0  0  0  0  0  0  0  0  0  0  0
   -1.4090   11.1584    0.8252 H   0  0  0  0  0  0  0  0  0  0  0  0
    0.4227   12.4388   -3.9624 H   0  0  0  0  0  0  0  0  0  0  0  0
   -1.8194   12.0410   -3.1570 H   0  0  0  0  0  0  0  0  0  0  0  0
   -1.2710   10.7985   -2.0117 H   0  0  0  0  0  0  0  0  0  0  0  0
   -2.0189   13.4716   -1.3304 H   0  0  0  0  0  0  0  0  0  0  0  0
   -1.1302   12.3914   -0.2591 H   0  0  0  0  0  0  0  0  0  0  0  0
   -0.6051   15.6692   -2.1297 H   0  0  0  0  0  0  0  0  0  0  0  0
    0.6372   14.9556   -3.2133 H   0  0  0  0  0  0  0  0  0  0  0  0
   -1.0364   14.3030   -3.2133 H   0  0  0  0  0  0  0  0  0  0  0  0
    0.7980   13.6314    0.5217 H   0  0  0  0  0  0  0  0  0  0  0  0
   -1.2684   15.1471    0.2523 H   0  0  0  0  0  0  0  0  0  0  0  0
    0.0325   15.5239    1.4989 H   0  0  0  0  0  0  0  0  0  0  0  0
   -0.9201   17.5773    0.1490 H   0  0  0  0  0  0  0  0  0  0  0  0
    2.0922   16.2075   -2.1630 H   0  0  0  0  0  0  0  0  0  0  0  0
    3.5087   17.5021    0.2477 H   0  0  0  0  0  0  0  0  0  0  0  0
    4.2972   16.6809   -1.1719 H   0  0  0  0  0  0  0  0  0  0  0  0
    4.3986   19.1474   -1.3407 H   0  0  0  0  0  0  0  0  0  0  0  0
    3.4431   18.3862   -2.6725 H   0  0  0  0  0  0  0  0  0  0  0  0
    2.2800   20.3411   -1.9112 H   0  0  0  0  0  0  0  0  0  0  0  0
    3.1670   19.4340    0.5050 H   0  0  0  0  0  0  0  0  0  0  0  0
   -0.2615   17.9912   -3.1267 H   0  0  0  0  0  0  0  0  0  0  0  0
    0.5270   19.5749   -3.4380 H   0  0  0  0  0  0  0  0  0  0  0  0
    1.5059   18.0688   -3.4380 H   0  0  0  0  0  0  0  0  0  0  0  0
   -0.2042   19.6775    0.1740 H   0  0  0  0  0  0  0  0  0  0  0  0
   -0.0416   20.7087   -1.2879 H   0  0  0  0  0  0  0  0  0  0  0  0
   -1.1867   19.3247   -1.2879 H   0  0  0  0  0  0  0  0  0  0  0  0
    2.0013   15.0152    1.7894 H   0  0  0  0  0  0  0  0  0  0  0  0
    3.5704   14.4072    1.1609 H   0  0  0  0  0  0  0  0  0  0  0  0
    3.2253   16.1700    1.1609 H   0  0  0  0  0  0  0  0  0  0  0  0
    3.9280   14.6897   -1.6217 H   0  0  0  0  0  0  0  0  0  0  0  0
    3.4283   13.3158   -0.4824 H   0  0  0  0  0  0  0  0  0  0  0  0
    2.2435   13.9991   -3.1862 H   0  0  0  0  0  0  0  0  0  0  0  0
    3.1775   12.5292   -2.7011 H   0  0  0  0  0  0  0  0  0  0  0  0
    1.3838   12.0263    0.1839 H   0  0  0  0  0  0  0  0  0  0  0  0
    0.9050   10.6861   -0.9122 H   0  0  0  0  0  0  0  0  0  0  0  0
    2.5985   11.2848   -0.9122 H   0  0  0  0  0  0  0  0  0  0  0  0
  1  2  1  0
  2  3  1  0
  3  4  1  0
  4  5  1  0
  5  6  1  0
  6  7  1  0
  7  8  1  0
  7  9  1  0
  2 10  1  0
 10 11  1  0
 11 12  1  0
 12 13  1  0
 13 14  1  6
 13 15  1  0
 15 16  1  0
 16 17  1  0
 17 18  2  0
 18 19  1  0
 19 20  1  0
 20 21  1  0
 21 22  1  0
 22 23  1  0
 22 24  1  0
 24 25  1  0
 24 26  1  0
 19 27  1  0
 27 28  1  1
 27 29  1  0
 29 30  1  0
 30 31  1  0
 31 32  1  1
  7  5  1  0
 31 10  1  0
 31 13  1  0
 27 15  1  0
 24 18  1  0
  1 33  1  0
  1 34  1  0
  1 35  1  0
  2 36  1  1
  3 37  1  0
  3 38  1  0
  4 39  1  0
  4 40  1  0
  5 41  1  6
  8 42  1  0
  8 43  1  0
  8 44  1  0
  9 45  1  0
  9 46  1  0
  9 47  1  0
 10 48  1  6
 11 49  1  0
 11 50  1  0
 12 51  1  0
 12 52  1  0
 14 53  1  0
 14 54  1  0
 14 55  1  0
 15 56  1  1
 16 57  1  0
 16 58  1  0
 17 59  1  0
 19 60  1  6
 20 61  1  0
 20 62  1  0
 21 63  1  0
 21 64  1  0
 22 65  1  6
 23 66  1  0
 25 67  1  0
 25 68  1  0
 25 69  1  0
 26 70  1  0
 26 71  1  0
 26 72  1  0
 28 73  1  0
 28 74  1  0
 28 75  1  0
 29 76  1  0
 29 77  1  0
 30 78  1  0
 30 79  1  0
 32 80  1  0
 32 81  1  0
 32 82  1  0
M  END
>  <meeko>  (13) 
{"is_sidechain": [false], "intermolecular_energy": 2.731, "internal_energy": -0.839}

$$$$
EPH_relaxed_0001_pdb2pqr_Repair_247_r2_0001_out
     RDKit          3D

 82 86  0  0  0  0  0  0  0  0999 V2000
    0.9180   14.9150   -2.6400 C   0  0  0  0  0  0  0  0  0  0  0  0
    1.1690   14.2420   -3.9920 C   0  0  2  0  0  0  0  0  0  0  0  0
    0.4540   14.9720   -5.1460 C   0  0  0  0  0  0  0  0  0  0  0  0
    0.9660   14.5800   -6.5350 C   0  0  0  0  0  0  0  0  0  0  0  0
    0.7530   15.6760   -7.5340 C   0  0  2  0  0  0  0  0  0  0  0  0
    0.4200   15.2260   -8.8540 O   0  0  0  0  0  0  0  0  0  0  0  0
    1.6720   15.9190   -8.7180 C   0  0  0  0  0  0  0  0  0  0  0  0
    2.8720   15.0600   -8.9630 C   0  0  0  0  0  0  0  0  0  0  0  0
    1.6820   17.2760   -9.3490 C   0  0  0  0  0  0  0  0  0  0  0  0
    0.7220   12.7860   -3.9400 C   0  0  1  0  0  0  0  0  0  0  0  0
    1.8530   11.7990   -4.3310 C   0  0  0  0  0  0  0  0  0  0  0  0
    1.6610   10.5310   -3.4600 C   0  0  0  0  0  0  0  0  0  0  0  0
    0.2510   10.6900   -2.8450 C   0  0  1  0  0  0  0  0  0  0  0  0
   -0.7300   10.2220   -3.9640 C   0  0  0  0  0  0  0  0  0  0  0  0
   -0.0050    9.9340   -1.5000 C   0  0  2  0  0  0  0  0  0  0  0  0
    0.1020    8.4010   -1.5820 C   0  0  0  0  0  0  0  0  0  0  0  0
   -1.1710    7.6900   -1.9000 C   0  0  0  0  0  0  0  0  0  0  0  0
   -2.4040    8.2240   -1.8300 C   0  0  0  0  0  0  0  0  0  0  0  0
   -2.6160    9.6500   -1.3040 C   0  0  1  0  0  0  0  0  0  0  0  0
   -3.7900    9.6580   -0.2900 C   0  0  0  0  0  0  0  0  0  0  0  0
   -5.0660    9.0530   -0.8670 C   0  0  0  0  0  0  0  0  0  0  0  0
   -4.8300    7.6160   -1.3250 C   0  0  2  0  0  0  0  0  0  0  0  0
   -4.5630    6.8040   -0.1780 O   0  0  0  0  0  0  0  0  0  0  0  0
   -3.6630    7.4820   -2.3430 C   0  0  0  0  0  0  0  0  0  0  0  0
   -4.0790    8.1090   -3.6970 C   0  0  0  0  0  0  0  0  0  0  0  0
   -3.4380    5.9700   -2.6150 C   0  0  0  0  0  0  0  0  0  0  0  0
   -1.3220   10.3820   -0.7450 C   0  0  1  0  0  0  0  0  0  0  0  0
   -1.1160   10.0260    0.7590 C   0  0  0  0  0  0  0  0  0  0  0  0
   -1.5450   11.9400   -0.8060 C   0  0  0  0  0  0  0  0  0  0  0  0
   -1.1610   12.6460   -2.1200 C   0  0  0  0  0  0  0  0  0  0  0  0
    0.2440   12.2380   -2.5710 C   0  0  2  0  0  0  0  0  0  0  0  0
    1.2560   12.7150   -1.4750 C   0  0  0  0  0  0  0  0  0  0  0  0
    1.1779   14.2181   -1.8296 H   0  0  0  0  0  0  0  0  0  0  0  0
    1.5394   15.8191   -2.5595 H   0  0  0  0  0  0  0  0  0  0  0  0
   -0.1437   15.1914   -2.5595 H   0  0  0  0  0  0  0  0  0  0  0  0
    2.2499   14.2915   -4.1898 H   0  0  0  0  0  0  0  0  0  0  0  0
   -0.6194   14.7375   -5.0928 H   0  0  0  0  0  0  0  0  0  0  0  0
    0.6563   16.0459   -5.0207 H   0  0  0  0  0  0  0  0  0  0  0  0
    2.0421   14.3615   -6.4696 H   0  0  0  0  0  0  0  0  0  0  0  0
    0.4038   13.6961   -6.8707 H   0  0  0  0  0  0  0  0  0  0  0  0
    0.3636   16.3453   -6.7527 H   0  0  0  0  0  0  0  0  0  0  0  0
    3.3042   14.7506   -8.0000 H   0  0  0  0  0  0  0  0  0  0  0  0
    2.5743   14.1686   -9.5346 H   0  0  0  0  0  0  0  0  0  0  0  0
    3.6199   15.6292   -9.5346 H   0  0  0  0  0  0  0  0  0  0  0  0
    1.6877   18.0457   -8.5632 H   0  0  0  0  0  0  0  0  0  0  0  0
    2.5810   17.3832   -9.9738 H   0  0  0  0  0  0  0  0  0  0  0  0
    0.7847   17.3965   -9.9738 H   0  0  0  0  0  0  0  0  0  0  0  0
   -0.1214   12.8266   -4.6450 H   0  0  0  0  0  0  0  0  0  0  0  0
    1.7784   11.5407   -5.3976 H   0  0  0  0  0  0  0  0  0  0  0  0
    2.8436   12.2470   -4.1634 H   0  0  0  0  0  0  0  0  0  0  0  0
    1.7147    9.6231   -4.0787 H   0  0  0  0  0  0  0  0  0  0  0  0
    2.4421   10.4302   -2.6921 H   0  0  0  0  0  0  0  0  0  0  0  0
   -1.6320    9.7917   -3.5044 H   0  0  0  0  0  0  0  0  0  0  0  0
   -1.0116   11.0828   -4.5883 H   0  0  0  0  0  0  0  0  0  0  0  0
   -0.2381    9.4615   -4.5883 H   0  0  0  0  0  0  0  0  0  0  0  0
    0.8442   10.2598   -0.8814 H   0  0  0  0  0  0  0  0  0  0  0  0
    0.8347    8.1526   -2.3640 H   0  0  0  0  0  0  0  0  0  0  0  0
    0.3977    8.0621   -0.5781 H   0  0  0  0  0  0  0  0  0  0  0  0
   -1.0948    6.6400   -2.2188 H   0  0  0  0  0  0  0  0  0  0  0  0
   -2.8752   10.2623   -2.1803 H   0  0  0  0  0  0  0  0  0  0  0  0
   -3.4942    9.0777    0.5964 H   0  0  0  0  0  0  0  0  0  0  0  0
   -4.0035   10.7065   -0.0349 H   0  0  0  0  0  0  0  0  0  0  0  0
   -5.8492    9.0606   -0.0946 H   0  0  0  0  0  0  0  0  0  0  0  0
   -5.3767    9.6518   -1.7359 H   0  0  0  0  0  0  0  0  0  0  0  0
   -5.7401    7.2818   -1.8446 H   0  0  0  0  0  0  0  0  0  0  0  0
   -3.6270    6.5440   -0.2130 H   0  0  0  0  0  0  0  0  0  0  0  0
   -4.6786    9.0128   -3.5137 H   0  0  0  0  0  0  0  0  0  0  0  0
   -3.1785    8.3763   -4.2694 H   0  0  0  0  0  0  0  0  0  0  0  0
   -4.6753    7.3832   -4.2694 H   0  0  0  0  0  0  0  0  0  0  0  0
   -3.3581    5.4332   -1.6582 H   0  0  0  0  0  0  0  0  0  0  0  0
   -4.2866    5.5706   -3.1898 H   0  0  0  0  0  0  0  0  0  0  0  0
   -2.5099    5.8350   -3.1898 H   0  0  0  0  0  0  0  0  0  0  0  0
   -1.5686   10.8081    1.3862 H   0  0  0  0  0  0  0  0  0  0  0  0
   -1.5944    9.0595    0.9759 H   0  0  0  0  0  0  0  0  0  0  0  0
   -0.0397    9.9592    0.9759 H   0  0  0  0  0  0  0  0  0  0  0  0
   -2.6133   12.1305   -0.6259 H   0  0  0  0  0  0  0  0  0  0  0  0
   -0.8676   12.3575   -0.0465 H   0  0  0  0  0  0  0  0  0  0  0  0
   -1.8842   12.3698   -2.9015 H   0  0  0  0  0  0  0  0  0  0  0  0
   -1.1732   13.7328   -1.9508 H   0  0  0  0  0  0  0  0  0  0  0  0
    0.8364   12.5172   -0.4776 H   0  0  0  0  0  0  0  0  0  0  0  0
    2.2041   12.1690   -1.5888 H   0  0  0  0  0  0  0  0  0  0  0  0
    1.4382   13.7938   -1.5888 H   0  0  0  0  0  0  0  0  0  0  0  0
  1  2  1  0
  2  3  1  0
  3  4  1  0
  4  5  1  0
  5  6  1  0
  6  7  1  0
  7  8  1  0
  7  9  1  0
  2 10  1  0
 10 11  1  0
 11 12  1  0
 12 13  1  0
 13 14  1  6
 13 15  1  0
 15 16  1  0
 16 17  1  0
 17 18  2  0
 18 19  1  0
 19 20  1  0
 20 21  1  0
 21 22  1  0
 22 23  1  0
 22 24  1  0
 24 25  1  0
 24 26  1  0
 19 27  1  0
 27 28  1  1
 27 29  1  0
 29 30  1  0
 30 31  1  0
 31 32  1  1
  7  5  1  0
 31 10  1  0
 31 13  1  0
 27 15  1  0
 24 18  1  0
  1 33  1  0
  1 34  1  0
  1 35  1  0
  2 36  1  6
  3 37  1  0
  3 38  1  0
  4 39  1  0
  4 40  1  0
  5 41  1  1
  8 42  1  0
  8 43  1  0
  8 44  1  0
  9 45  1  0
  9 46  1  0
  9 47  1  0
 10 48  1  6
 11 49  1  0
 11 50  1  0
 12 51  1  0
 12 52  1  0
 14 53  1  0
 14 54  1  0
 14 55  1  0
 15 56  1  1
 16 57  1  0
 16 58  1  0
 17 59  1  0
 19 60  1  6
 20 61  1  0
 20 62  1  0
 21 63  1  0
 21 64  1  0
 22 65  1  6
 23 66  1  0
 25 67  1  0
 25 68  1  0
 25 69  1  0
 26 70  1  0
 26 71  1  0
 26 72  1  0
 28 73  1  0
 28 74  1  0
 28 75  1  0
 29 76  1  0
 29 77  1  0
 30 78  1  0
 30 79  1  0
 32 80  1  0
 32 81  1  0
 32 82  1  0
M  END
>  <meeko>  (14) 
{"is_sidechain": [false], "intermolecular_energy": 2.731, "internal_energy": -0.839}

$$$$
EPH_relaxed_0001_pdb2pqr_Repair_247_r2_0001_out
     RDKit          3D

 82 86  0  0  0  0  0  0  0  0999 V2000
   -1.6940   14.8350    0.5390 C   0  0  0  0  0  0  0  0  0  0  0  0
   -0.3550   15.5340    0.2870 C   0  0  2  0  0  0  0  0  0  0  0  0
   -0.4320   16.5300   -0.8870 C   0  0  0  0  0  0  0  0  0  0  0  0
   -0.0240   17.9570   -0.5120 C   0  0  0  0  0  0  0  0  0  0  0  0
    1.3990   18.0230   -0.0480 C   0  0  2  0  0  0  0  0  0  0  0  0
    2.0700   19.2540   -0.3460 O   0  0  0  0  0  0  0  0  0  0  0  0
    2.5860   18.0780   -0.9920 C   0  0  0  0  0  0  0  0  0  0  0  0
    2.4020   18.0690   -2.4770 C   0  0  0  0  0  0  0  0  0  0  0  0
    3.9260   17.6490   -0.4820 C   0  0  0  0  0  0  0  0  0  0  0  0
    0.7310   14.4980    0.0210 C   0  0  1  0  0  0  0  0  0  0  0  0
    0.8620   13.4620    1.1690 C   0  0  0  0  0  0  0  0  0  0  0  0
    1.2300   12.1080    0.5090 C   0  0  0  0  0  0  0  0  0  0  0  0
    1.6210   12.4740   -0.9410 C   0  0  1  0  0  0  0  0  0  0  0  0
    3.0980   12.9710   -0.8450 C   0  0  0  0  0  0  0  0  0  0  0  0
    1.4620   11.3410   -2.0070 C   0  0  2  0  0  0  0  0  0  0  0  0
    2.3420   10.1000   -1.7760 C   0  0  0  0  0  0  0  0  0  0  0  0
    3.6840   10.1390   -2.4280 C   0  0  0  0  0  0  0  0  0  0  0  0
    4.0580   10.9940   -3.3980 C   0  0  0  0  0  0  0  0  0  0  0  0
    3.0550   11.9840   -4.0050 C   0  0  1  0  0  0  0  0  0  0  0  0
    3.1730   11.9580   -5.5510 C   0  0  0  0  0  0  0  0  0  0  0  0
    4.5990   12.2040   -6.0330 C   0  0  0  0  0  0  0  0  0  0  0  0
    5.5570   11.1660   -5.4550 C   0  0  2  0  0  0  0  0  0  0  0  0
    5.2340    9.8840   -6.0040 O   0  0  0  0  0  0  0  0  0  0  0  0
    5.5180   11.0940   -3.9030 C   0  0  0  0  0  0  0  0  0  0  0  0
    6.1530   12.3740   -3.3070 C   0  0  0  0  0  0  0  0  0  0  0  0
    6.4230    9.9130   -3.4570 C   0  0  0  0  0  0  0  0  0  0  0  0
    1.5530   11.8420   -3.5050 C   0  0  1  0  0  0  0  0  0  0  0  0
    0.8000   10.7890   -4.3740 C   0  0  0  0  0  0  0  0  0  0  0  0
    0.8070   13.2120   -3.7230 C   0  0  0  0  0  0  0  0  0  0  0  0
    0.9020   14.2440   -2.5840 C   0  0  0  0  0  0  0  0  0  0  0  0
    0.5670   13.6030   -1.2340 C   0  0  2  0  0  0  0  0  0  0  0  0
   -0.9200   13.1130   -1.2930 C   0  0  0  0  0  0  0  0  0  0  0  0
   -1.8633   14.7466    1.6223 H   0  0  0  0  0  0  0  0  0  0  0  0
   -2.5059   15.4243    0.0879 H   0  0  0  0  0  0  0  0  0  0  0  0
   -1.6746   13.8320    0.0879 H   0  0  0  0  0  0  0  0  0  0  0  0
   -0.1066   16.1085    1.1916 H   0  0  0  0  0  0  0  0  0  0  0  0
    0.2360   16.1767   -1.6864 H   0  0  0  0  0  0  0  0  0  0  0  0
   -1.4840   16.5700   -1.2057 H   0  0  0  0  0  0  0  0  0  0  0  0
   -0.1419   18.6047   -1.3933 H   0  0  0  0  0  0  0  0  0  0  0  0
   -0.6695   18.2924    0.3131 H   0  0  0  0  0  0  0  0  0  0  0  0
    1.1716   17.3790    0.8143 H   0  0  0  0  0  0  0  0  0  0  0  0
    1.3289   18.0165   -2.7132 H   0  0  0  0  0  0  0  0  0  0  0  0
    2.8270   18.9890   -2.9047 H   0  0  0  0  0  0  0  0  0  0  0  0
    2.9148   17.1949   -2.9047 H   0  0  0  0  0  0  0  0  0  0  0  0
    3.9177   17.6517    0.6180 H   0  0  0  0  0  0  0  0  0  0  0  0
    4.1488   16.6346   -0.8446 H   0  0  0  0  0  0  0  0  0  0  0  0
    4.6964   18.3454   -0.8446 H   0  0  0  0  0  0  0  0  0  0  0  0
    1.5969   15.1650   -0.1025 H   0  0  0  0  0  0  0  0  0  0  0  0
    1.6530   13.7698    1.8687 H   0  0  0  0  0  0  0  0  0  0  0  0
   -0.0759   13.3822    1.7383 H   0  0  0  0  0  0  0  0  0  0  0  0
    2.0758   11.6381    1.0324 H   0  0  0  0  0  0  0  0  0  0  0  0
    0.4008   11.3862    0.5477 H   0  0  0  0  0  0  0  0  0  0  0  0
    3.3844   13.0674    0.2127 H   0  0  0  0  0  0  0  0  0  0  0  0
    3.7615   12.2466   -1.3400 H   0  0  0  0  0  0  0  0  0  0  0  0
    3.1886   13.9491   -1.3400 H   0  0  0  0  0  0  0  0  0  0  0  0
    0.4262   11.0085   -1.8441 H   0  0  0  0  0  0  0  0  0  0  0  0
    2.4939    9.9881   -0.6923 H   0  0  0  0  0  0  0  0  0  0  0  0
    1.8052    9.2569   -2.2354 H   0  0  0  0  0  0  0  0  0  0  0  0
    4.4308    9.4069   -2.0869 H   0  0  0  0  0  0  0  0  0  0  0  0
    3.3394   12.9767   -3.6260 H   0  0  0  0  0  0  0  0  0  0  0  0
    2.8433   10.9731   -5.9133 H   0  0  0  0  0  0  0  0  0  0  0  0
    2.5422   12.7672   -5.9476 H   0  0  0  0  0  0  0  0  0  0  0  0
    4.6232   12.1441   -7.1311 H   0  0  0  0  0  0  0  0  0  0  0  0
    4.9166   13.2014   -5.6950 H   0  0  0  0  0  0  0  0  0  0  0  0
    6.5778   11.4702   -5.7297 H   0  0  0  0  0  0  0  0  0  0  0  0
    4.3900    9.9720   -6.4780 H   0  0  0  0  0  0  0  0  0  0  0  0
    6.1260   12.3195   -2.2087 H   0  0  0  0  0  0  0  0  0  0  0  0
    7.1967   12.4568   -3.6444 H   0  0  0  0  0  0  0  0  0  0  0  0
    5.5875   13.2551   -3.6444 H   0  0  0  0  0  0  0  0  0  0  0  0
    6.4555    9.8706   -2.3583 H   0  0  0  0  0  0  0  0  0  0  0  0
    6.0143    8.9697   -3.8484 H   0  0  0  0  0  0  0  0  0  0  0  0
    7.4401   10.0623   -3.8484 H   0  0  0  0  0  0  0  0  0  0  0  0
    0.2867   10.0712   -3.7173 H   0  0  0  0  0  0  0  0  0  0  0  0
    0.0605   11.2989   -5.0089 H   0  0  0  0  0  0  0  0  0  0  0  0
    1.5216   10.2540   -5.0089 H   0  0  0  0  0  0  0  0  0  0  0  0
    1.2233   13.6770   -4.6288 H   0  0  0  0  0  0  0  0  0  0  0  0
   -0.2598   12.9515   -3.7868 H   0  0  0  0  0  0  0  0  0  0  0  0
    1.9252   14.6462   -2.5473 H   0  0  0  0  0  0  0  0  0  0  0  0
    0.1784   15.0492   -2.7791 H   0  0  0  0  0  0  0  0  0  0  0  0
   -1.3051   12.9861   -0.2705 H   0  0  0  0  0  0  0  0  0  0  0  0
   -1.5305   13.8575   -1.8250 H   0  0  0  0  0  0  0  0  0  0  0  0
   -0.9684   12.1514   -1.8250 H   0  0  0  0  0  0  0  0  0  0  0  0
  1  2  1  0
  2  3  1  0
  3  4  1  0
  4  5  1  0
  5  6  1  0
  6  7  1  0
  7  8  1  0
  7  9  1  0
  2 10  1  0
 10 11  1  0
 11 12  1  0
 12 13  1  0
 13 14  1  1
 13 15  1  0
 15 16  1  0
 16 17  1  0
 17 18  2  0
 18 19  1  0
 19 20  1  0
 20 21  1  0
 21 22  1  0
 22 23  1  0
 22 24  1  0
 24 25  1  0
 24 26  1  0
 19 27  1  0
 27 28  1  6
 27 29  1  0
 29 30  1  0
 30 31  1  0
 31 32  1  6
  7  5  1  0
 31 10  1  0
 31 13  1  0
 27 15  1  0
 24 18  1  0
  1 33  1  0
  1 34  1  0
  1 35  1  0
  2 36  1  1
  3 37  1  0
  3 38  1  0
  4 39  1  0
  4 40  1  0
  5 41  1  1
  8 42  1  0
  8 43  1  0
  8 44  1  0
  9 45  1  0
  9 46  1  0
  9 47  1  0
 10 48  1  6
 11 49  1  0
 11 50  1  0
 12 51  1  0
 12 52  1  0
 14 53  1  0
 14 54  1  0
 14 55  1  0
 15 56  1  6
 16 57  1  0
 16 58  1  0
 17 59  1  0
 19 60  1  1
 20 61  1  0
 20 62  1  0
 21 63  1  0
 21 64  1  0
 22 65  1  1
 23 66  1  0
 25 67  1  0
 25 68  1  0
 25 69  1  0
 26 70  1  0
 26 71  1  0
 26 72  1  0
 28 73  1  0
 28 74  1  0
 28 75  1  0
 29 76  1  0
 29 77  1  0
 30 78  1  0
 30 79  1  0
 32 80  1  0
 32 81  1  0
 32 82  1  0
M  END
>  <meeko>  (15) 
{"is_sidechain": [false], "intermolecular_energy": 2.731, "internal_energy": -0.839}

$$$$
EPH_relaxed_0001_pdb2pqr_Repair_247_r2_0001_out
     RDKit          3D

 82 86  0  0  0  0  0  0  0  0999 V2000
   -0.1030    9.3230   -4.2010 C   0  0  0  0  0  0  0  0  0  0  0  0
    0.0870    9.5340   -2.6960 C   0  0  2  0  0  0  0  0  0  0  0  0
   -0.6930    8.4990   -1.8620 C   0  0  0  0  0  0  0  0  0  0  0  0
   -2.2110    8.5750   -2.0480 C   0  0  0  0  0  0  0  0  0  0  0  0
   -2.7560    7.3270   -2.6730 C   0  0  2  0  0  0  0  0  0  0  0  0
   -3.7850    7.5440   -3.6470 O   0  0  0  0  0  0  0  0  0  0  0  0
   -4.1760    6.8360   -2.4600 C   0  0  0  0  0  0  0  0  0  0  0  0
   -5.1390    7.5860   -1.5940 C   0  0  0  0  0  0  0  0  0  0  0  0
   -4.4760    5.3880   -2.6930 C   0  0  0  0  0  0  0  0  0  0  0  0
   -0.3430   10.9450   -2.3110 C   0  0  1  0  0  0  0  0  0  0  0  0
   -1.5560   10.9560   -1.3420 C   0  0  0  0  0  0  0  0  0  0  0  0
   -1.3530   12.1580   -0.3850 C   0  0  0  0  0  0  0  0  0  0  0  0
   -0.2210   12.9880   -1.0350 C   0  0  1  0  0  0  0  0  0  0  0  0
   -0.9260   13.8280   -2.1460 C   0  0  0  0  0  0  0  0  0  0  0  0
    0.6160   13.8910   -0.0710 C   0  0  2  0  0  0  0  0  0  0  0  0
   -0.1810   14.9990    0.6400 C   0  0  0  0  0  0  0  0  0  0  0  0
   -0.2380   16.3050   -0.0800 C   0  0  0  0  0  0  0  0  0  0  0  0
    0.5550   16.6690   -1.1050 C   0  0  0  0  0  0  0  0  0  0  0  0
    1.7000   15.7630   -1.5750 C   0  0  1  0  0  0  0  0  0  0  0  0
    2.9860   16.6080   -1.7640 C   0  0  0  0  0  0  0  0  0  0  0  0
    2.7710   17.8030   -2.6880 C   0  0  0  0  0  0  0  0  0  0  0  0
    1.6650   18.7120   -2.1560 C   0  0  2  0  0  0  0  0  0  0  0  0
    2.1080   19.3090   -0.9330 O   0  0  0  0  0  0  0  0  0  0  0  0
    0.3220   17.9670   -1.9170 C   0  0  0  0  0  0  0  0  0  0  0  0
   -0.3080   17.5810   -3.2780 C   0  0  0  0  0  0  0  0  0  0  0  0
   -0.6640   18.9630   -1.2490 C   0  0  0  0  0  0  0  0  0  0  0  0
    1.9500   14.4550   -0.7070 C   0  0  1  0  0  0  0  0  0  0  0  0
    2.9060   14.7810    0.4810 C   0  0  0  0  0  0  0  0  0  0  0  0
    2.6910   13.3840   -1.5920 C   0  0  0  0  0  0  0  0  0  0  0  0
    1.8060   12.4430   -2.4310 C   0  0  0  0  0  0  0  0  0  0  0  0
    0.6950   11.8280   -1.5740 C   0  0  2  0  0  0  0  0  0  0  0  0
    1.3740   10.9590   -0.4620 C   0  0  0  0  0  0  0  0  0  0  0  0
   -0.8304    8.5152   -4.3690 H   0  0  0  0  0  0  0  0  0  0  0  0
   -0.4749   10.2521   -4.6574 H   0  0  0  0  0  0  0  0  0  0  0  0
    0.8599    9.0501   -4.6574 H   0  0  0  0  0  0  0  0  0  0  0  0
    1.1558    9.3978   -2.4746 H   0  0  0  0  0  0  0  0  0  0  0  0
   -0.3574    7.4932   -2.1549 H   0  0  0  0  0  0  0  0  0  0  0  0
   -0.4878    8.7190   -0.8039 H   0  0  0  0  0  0  0  0  0  0  0  0
   -2.6839    8.7172   -1.0651 H   0  0  0  0  0  0  0  0  0  0  0  0
   -2.4325    9.4189   -2.7179 H   0  0  0  0  0  0  0  0  0  0  0  0
   -1.7804    6.8273   -2.5807 H   0  0  0  0  0  0  0  0  0  0  0  0
   -4.9015    7.4010   -0.5360 H   0  0  0  0  0  0  0  0  0  0  0  0
   -5.0598    8.6627   -1.8047 H   0  0  0  0  0  0  0  0  0  0  0  0
   -6.1635    7.2455   -1.8047 H   0  0  0  0  0  0  0  0  0  0  0  0
   -4.5822    4.8753   -1.7256 H   0  0  0  0  0  0  0  0  0  0  0  0
   -5.4126    5.2946   -3.2623 H   0  0  0  0  0  0  0  0  0  0  0  0
   -3.6536    4.9302   -3.2623 H   0  0  0  0  0  0  0  0  0  0  0  0
   -0.5445   11.3564   -3.3111 H   0  0  0  0  0  0  0  0  0  0  0  0
   -2.4917   11.0761   -1.9078 H   0  0  0  0  0  0  0  0  0  0  0  0
   -1.6223   10.0118   -0.7816 H   0  0  0  0  0  0  0  0  0  0  0  0
   -2.2751   12.7527   -0.3076 H   0  0  0  0  0  0  0  0  0  0  0  0
   -1.1020   11.8392    0.6374 H   0  0  0  0  0  0  0  0  0  0  0  0
   -1.5661   14.5907   -1.6784 H   0  0  0  0  0  0  0  0  0  0  0  0
   -0.1664   14.3200   -2.7712 H   0  0  0  0  0  0  0  0  0  0  0  0
   -1.5423   13.1652   -2.7712 H   0  0  0  0  0  0  0  0  0  0  0  0
    0.9132   13.1839    0.7175 H   0  0  0  0  0  0  0  0  0  0  0  0
   -1.2121   14.6413    0.7775 H   0  0  0  0  0  0  0  0  0  0  0  0
    0.3468   15.1951    1.5850 H   0  0  0  0  0  0  0  0  0  0  0  0
   -0.9922   17.0320    0.2555 H   0  0  0  0  0  0  0  0  0  0  0  0
    1.3816   15.3485   -2.5429 H   0  0  0  0  0  0  0  0  0  0  0  0
    3.3130   16.9771   -0.7807 H   0  0  0  0  0  0  0  0  0  0  0  0
    3.7455   15.9608   -2.2269 H   0  0  0  0  0  0  0  0  0  0  0  0
    3.7066   18.3772   -2.7576 H   0  0  0  0  0  0  0  0  0  0  0  0
    2.4734   17.4312   -3.6796 H   0  0  0  0  0  0  0  0  0  0  0  0
    1.4679   19.4757   -2.9227 H   0  0  0  0  0  0  0  0  0  0  0  0
    2.2610   20.2530   -1.1060 H   0  0  0  0  0  0  0  0  0  0  0  0
   -1.2343   17.0134   -3.1054 H   0  0  0  0  0  0  0  0  0  0  0  0
   -0.5378   18.4935   -3.8476 H   0  0  0  0  0  0  0  0  0  0  0  0
    0.4006   16.9619   -3.8476 H   0  0  0  0  0  0  0  0  0  0  0  0
   -0.5829   18.8811   -0.1551 H   0  0  0  0  0  0  0  0  0  0  0  0
   -0.4155   19.9887   -1.5593 H   0  0  0  0  0  0  0  0  0  0  0  0
   -1.6921   18.7249   -1.5593 H   0  0  0  0  0  0  0  0  0  0  0  0
    2.3830   14.6026    1.4321 H   0  0  0  0  0  0  0  0  0  0  0  0
    3.7946   14.1351    0.4245 H   0  0  0  0  0  0  0  0  0  0  0  0
    3.2148   15.8352    0.4245 H   0  0  0  0  0  0  0  0  0  0  0  0
    3.3519   13.9250   -2.2852 H   0  0  0  0  0  0  0  0  0  0  0  0
    3.2097   12.7290   -0.8766 H   0  0  0  0  0  0  0  0  0  0  0  0
    1.3515   13.0146   -3.2536 H   0  0  0  0  0  0  0  0  0  0  0  0
    2.4337   11.6314   -2.8276 H   0  0  0  0  0  0  0  0  0  0  0  0
    1.0796   11.3358    0.5286 H   0  0  0  0  0  0  0  0  0  0  0  0
    1.0519    9.9124   -0.5668 H   0  0  0  0  0  0  0  0  0  0  0  0
    2.4674   11.0184   -0.5668 H   0  0  0  0  0  0  0  0  0  0  0  0
  1  2  1  0
  2  3  1  0
  3  4  1  0
  4  5  1  0
  5  6  1  0
  6  7  1  0
  7  8  1  0
  7  9  1  0
  2 10  1  0
 10 11  1  0
 11 12  1  0
 12 13  1  0
 13 14  1  6
 13 15  1  0
 15 16  1  0
 16 17  1  0
 17 18  2  0
 18 19  1  0
 19 20  1  0
 20 21  1  0
 21 22  1  0
 22 23  1  0
 22 24  1  0
 24 25  1  0
 24 26  1  0
 19 27  1  0
 27 28  1  1
 27 29  1  0
 29 30  1  0
 30 31  1  0
 31 32  1  1
  7  5  1  0
 31 10  1  0
 31 13  1  0
 27 15  1  0
 24 18  1  0
  1 33  1  0
  1 34  1  0
  1 35  1  0
  2 36  1  6
  3 37  1  0
  3 38  1  0
  4 39  1  0
  4 40  1  0
  5 41  1  6
  8 42  1  0
  8 43  1  0
  8 44  1  0
  9 45  1  0
  9 46  1  0
  9 47  1  0
 10 48  1  6
 11 49  1  0
 11 50  1  0
 12 51  1  0
 12 52  1  0
 14 53  1  0
 14 54  1  0
 14 55  1  0
 15 56  1  1
 16 57  1  0
 16 58  1  0
 17 59  1  0
 19 60  1  6
 20 61  1  0
 20 62  1  0
 21 63  1  0
 21 64  1  0
 22 65  1  6
 23 66  1  0
 25 67  1  0
 25 68  1  0
 25 69  1  0
 26 70  1  0
 26 71  1  0
 26 72  1  0
 28 73  1  0
 28 74  1  0
 28 75  1  0
 29 76  1  0
 29 77  1  0
 30 78  1  0
 30 79  1  0
 32 80  1  0
 32 81  1  0
 32 82  1  0
M  END
>  <meeko>  (16) 
{"is_sidechain": [false], "intermolecular_energy": 2.731, "internal_energy": -0.839}

$$$$
EPH_relaxed_0001_pdb2pqr_Repair_247_r2_0001_out
     RDKit          3D

 82 86  0  0  0  0  0  0  0  0999 V2000
    3.1380   14.8440   -7.5360 C   0  0  0  0  0  0  0  0  0  0  0  0
    1.6140   14.8900   -7.3950 C   0  0  2  0  0  0  0  0  0  0  0  0
    1.0070   16.1420   -8.0610 C   0  0  0  0  0  0  0  0  0  0  0  0
    1.9310   16.8030   -9.0870 C   0  0  0  0  0  0  0  0  0  0  0  0
    1.5810   16.4020  -10.4880 C   0  0  2  0  0  0  0  0  0  0  0  0
    0.9760   15.1080  -10.6070 O   0  0  0  0  0  0  0  0  0  0  0  0
    2.2620   15.2670  -11.2290 C   0  0  0  0  0  0  0  0  0  0  0  0
    3.3500   14.4610  -10.5910 C   0  0  0  0  0  0  0  0  0  0  0  0
    2.2130   15.2570  -12.7250 C   0  0  0  0  0  0  0  0  0  0  0  0
    1.2260   14.8440   -5.9220 C   0  0  1  0  0  0  0  0  0  0  0  0
   -0.0300   15.6990   -5.6070 C   0  0  0  0  0  0  0  0  0  0  0  0
   -0.8100   14.9550   -4.4940 C   0  0  0  0  0  0  0  0  0  0  0  0
    0.1770   13.8840   -3.9740 C   0  0  1  0  0  0  0  0  0  0  0  0
    1.1120   14.6470   -2.9840 C   0  0  0  0  0  0  0  0  0  0  0  0
   -0.4600   12.6210   -3.3090 C   0  0  2  0  0  0  0  0  0  0  0  0
   -1.2810   12.8970   -2.0370 C   0  0  0  0  0  0  0  0  0  0  0  0
   -0.5130   12.8370   -0.7580 C   0  0  0  0  0  0  0  0  0  0  0  0
    0.7100   12.2970   -0.6040 C   0  0  0  0  0  0  0  0  0  0  0  0
    1.4070   11.5810   -1.7690 C   0  0  1  0  0  0  0  0  0  0  0  0
    1.9940   10.2340   -1.2720 C   0  0  0  0  0  0  0  0  0  0  0  0
    2.9070   10.4040   -0.0610 C   0  0  0  0  0  0  0  0  0  0  0  0
    2.1620   11.0660    1.0950 C   0  0  2  0  0  0  0  0  0  0  0  0
    1.1480   10.1700    1.5630 O   0  0  0  0  0  0  0  0  0  0  0  0
    1.5180   12.4280    0.7100 C   0  0  0  0  0  0  0  0  0  0  0  0
    2.6290   13.4850    0.4940 C   0  0  0  0  0  0  0  0  0  0  0  0
    0.6800   12.9190    1.9210 C   0  0  0  0  0  0  0  0  0  0  0  0
    0.5490   11.4210   -3.0970 C   0  0  1  0  0  0  0  0  0  0  0  0
   -0.3110   10.1230   -3.0210 C   0  0  0  0  0  0  0  0  0  0  0  0
    1.5240   11.2360   -4.3190 C   0  0  0  0  0  0  0  0  0  0  0  0
    2.0250   12.5190   -5.0090 C   0  0  0  0  0  0  0  0  0  0  0  0
    0.8600   13.4620   -5.3260 C   0  0  2  0  0  0  0  0  0  0  0  0
   -0.0860   12.7300   -6.3380 C   0  0  0  0  0  0  0  0  0  0  0  0
    3.5984   14.8301   -6.5371 H   0  0  0  0  0  0  0  0  0  0  0  0
    3.4281   13.9367   -8.0861 H   0  0  0  0  0  0  0  0  0  0  0  0
    3.4823   15.7322   -8.0861 H   0  0  0  0  0  0  0  0  0  0  0  0
    1.2072   14.0095   -7.9138 H   0  0  0  0  0  0  0  0  0  0  0  0
    0.0770   15.8482   -8.5698 H   0  0  0  0  0  0  0  0  0  0  0  0
    0.8343   16.8787   -7.2626 H   0  0  0  0  0  0  0  0  0  0  0  0
    1.8410   17.8955   -8.9959 H   0  0  0  0  0  0  0  0  0  0  0  0
    2.9606   16.4738   -8.8833 H   0  0  0  0  0  0  0  0  0  0  0  0
    1.3840   17.4487  -10.7629 H   0  0  0  0  0  0  0  0  0  0  0  0
    3.2613   14.5267   -9.4966 H   0  0  0  0  0  0  0  0  0  0  0  0
    3.2595   13.4103  -10.9038 H   0  0  0  0  0  0  0  0  0  0  0  0
    4.3288   14.8537  -10.9038 H   0  0  0  0  0  0  0  0  0  0  0  0
    1.1854   15.0473  -13.0568 H   0  0  0  0  0  0  0  0  0  0  0  0
    2.5292   16.2382  -13.1088 H   0  0  0  0  0  0  0  0  0  0  0  0
    2.8884   14.4782  -13.1088 H   0  0  0  0  0  0  0  0  0  0  0  0
    2.1611   15.2117   -5.4743 H   0  0  0  0  0  0  0  0  0  0  0  0
    0.2698   16.6977   -5.2566 H   0  0  0  0  0  0  0  0  0  0  0  0
   -0.6525   15.8317   -6.5042 H   0  0  0  0  0  0  0  0  0  0  0  0
   -1.0912   15.6480   -3.6874 H   0  0  0  0  0  0  0  0  0  0  0  0
   -1.7466   14.5135   -4.8653 H   0  0  0  0  0  0  0  0  0  0  0  0
    0.8220   14.4104   -1.9496 H   0  0  0  0  0  0  0  0  0  0  0  0
    2.1543   14.3383   -3.1524 H   0  0  0  0  0  0  0  0  0  0  0  0
    1.0186   15.7300   -3.1524 H   0  0  0  0  0  0  0  0  0  0  0  0
   -1.1864   12.2961   -4.0685 H   0  0  0  0  0  0  0  0  0  0  0  0
   -1.7168   13.9031   -2.1251 H   0  0  0  0  0  0  0  0  0  0  0  0
   -2.0323   12.0956   -1.9793 H   0  0  0  0  0  0  0  0  0  0  0  0
   -0.9873   13.2712    0.1345 H   0  0  0  0  0  0  0  0  0  0  0  0
    2.2216   12.2461   -2.0916 H   0  0  0  0  0  0  0  0  0  0  0  0
    1.1632    9.5678   -0.9963 H   0  0  0  0  0  0  0  0  0  0  0  0
    2.5981    9.8118   -2.0886 H   0  0  0  0  0  0  0  0  0  0  0  0
    3.2657    9.4153    0.2611 H   0  0  0  0  0  0  0  0  0  0  0  0
    3.7534   11.0458   -0.3467 H   0  0  0  0  0  0  0  0  0  0  0  0
    2.8991   11.2794    1.8831 H   0  0  0  0  0  0  0  0  0  0  0  0
    1.4450    9.8110    2.4160 H   0  0  0  0  0  0  0  0  0  0  0  0
    2.9968   13.8350    1.4698 H   0  0  0  0  0  0  0  0  0  0  0  0
    3.4587   13.0347   -0.0706 H   0  0  0  0  0  0  0  0  0  0  0  0
    2.2206   14.3361   -0.0706 H   0  0  0  0  0  0  0  0  0  0  0  0
    1.1801   12.6260    2.8559 H   0  0  0  0  0  0  0  0  0  0  0  0
    0.5871   14.0144    1.8826 H   0  0  0  0  0  0  0  0  0  0  0  0
   -0.3210   12.4645    1.8826 H   0  0  0  0  0  0  0  0  0  0  0  0
   -0.4854    9.8599   -1.9673 H   0  0  0  0  0  0  0  0  0  0  0  0
   -1.2760   10.2927   -3.5211 H   0  0  0  0  0  0  0  0  0  0  0  0
    0.2215    9.3006   -3.5211 H   0  0  0  0  0  0  0  0  0  0  0  0
    2.4060   10.6850   -3.9604 H   0  0  0  0  0  0  0  0  0  0  0  0
    0.9314   10.7113   -5.0829 H   0  0  0  0  0  0  0  0  0  0  0  0
    2.7329   13.0332   -4.3423 H   0  0  0  0  0  0  0  0  0  0  0  0
    2.5174   12.2404   -5.9524 H   0  0  0  0  0  0  0  0  0  0  0  0
   -0.8372   12.1488   -5.7831 H   0  0  0  0  0  0  0  0  0  0  0  0
   -0.5921   13.4740   -6.9707 H   0  0  0  0  0  0  0  0  0  0  0  0
    0.5071   12.0533   -6.9707 H   0  0  0  0  0  0  0  0  0  0  0  0
  1  2  1  0
  2  3  1  0
  3  4  1  0
  4  5  1  0
  5  6  1  0
  6  7  1  0
  7  8  1  0
  7  9  1  0
  2 10  1  0
 10 11  1  0
 11 12  1  0
 12 13  1  0
 13 14  1  1
 13 15  1  0
 15 16  1  0
 16 17  1  0
 17 18  2  0
 18 19  1  0
 19 20  1  0
 20 21  1  0
 21 22  1  0
 22 23  1  0
 22 24  1  0
 24 25  1  0
 24 26  1  0
 19 27  1  0
 27 28  1  1
 27 29  1  0
 29 30  1  0
 30 31  1  0
 31 32  1  6
  7  5  1  0
 31 10  1  0
 31 13  1  0
 27 15  1  0
 24 18  1  0
  1 33  1  0
  1 34  1  0
  1 35  1  0
  2 36  1  6
  3 37  1  0
  3 38  1  0
  4 39  1  0
  4 40  1  0
  5 41  1  6
  8 42  1  0
  8 43  1  0
  8 44  1  0
  9 45  1  0
  9 46  1  0
  9 47  1  0
 10 48  1  1
 11 49  1  0
 11 50  1  0
 12 51  1  0
 12 52  1  0
 14 53  1  0
 14 54  1  0
 14 55  1  0
 15 56  1  6
 16 57  1  0
 16 58  1  0
 17 59  1  0
 19 60  1  6
 20 61  1  0
 20 62  1  0
 21 63  1  0
 21 64  1  0
 22 65  1  1
 23 66  1  0
 25 67  1  0
 25 68  1  0
 25 69  1  0
 26 70  1  0
 26 71  1  0
 26 72  1  0
 28 73  1  0
 28 74  1  0
 28 75  1  0
 29 76  1  0
 29 77  1  0
 30 78  1  0
 30 79  1  0
 32 80  1  0
 32 81  1  0
 32 82  1  0
M  END
>  <meeko>  (17) 
{"is_sidechain": [false], "intermolecular_energy": 2.731, "internal_energy": -0.839}

$$$$
EPH_relaxed_0001_pdb2pqr_Repair_247_r2_0001_out
     RDKit          3D

 82 86  0  0  0  0  0  0  0  0999 V2000
   -2.8200    7.5600   -0.4850 C   0  0  0  0  0  0  0  0  0  0  0  0
   -3.1850    9.0120   -0.1630 C   0  0  2  0  0  0  0  0  0  0  0  0
   -4.6960    9.2790   -0.3180 C   0  0  0  0  0  0  0  0  0  0  0  0
   -5.4010    8.2990   -1.2590 C   0  0  0  0  0  0  0  0  0  0  0  0
   -6.4850    7.5380   -0.5570 C   0  0  2  0  0  0  0  0  0  0  0  0
   -6.8170    6.2790   -1.1560 O   0  0  0  0  0  0  0  0  0  0  0  0
   -7.8510    7.2770   -1.1630 C   0  0  0  0  0  0  0  0  0  0  0  0
   -8.2070    7.7750   -2.5290 C   0  0  0  0  0  0  0  0  0  0  0  0
   -8.9930    6.9680   -0.2470 C   0  0  0  0  0  0  0  0  0  0  0  0
   -2.3940    9.9570   -1.0600 C   0  0  1  0  0  0  0  0  0  0  0  0
   -3.0280   11.3720   -1.1430 C   0  0  0  0  0  0  0  0  0  0  0  0
   -1.8560   12.3810   -1.2520 C   0  0  0  0  0  0  0  0  0  0  0  0
   -0.6170   11.5080   -1.5610 C   0  0  1  0  0  0  0  0  0  0  0  0
   -0.6910   11.2360   -3.0960 C   0  0  0  0  0  0  0  0  0  0  0  0
    0.7680   12.1030   -1.1460 C   0  0  2  0  0  0  0  0  0  0  0  0
    1.1550   13.4120   -1.8560 C   0  0  0  0  0  0  0  0  0  0  0  0
    1.9210   13.2470   -3.1260 C   0  0  0  0  0  0  0  0  0  0  0  0
    2.5310   12.1180   -3.5310 C   0  0  0  0  0  0  0  0  0  0  0  0
    2.5670   10.8760   -2.6300 C   0  0  1  0  0  0  0  0  0  0  0  0
    4.0060   10.2960   -2.6050 C   0  0  0  0  0  0  0  0  0  0  0  0
    4.5490   10.0190   -4.0030 C   0  0  0  0  0  0  0  0  0  0  0  0
    4.5520   11.2890   -4.8490 C   0  0  2  0  0  0  0  0  0  0  0  0
    5.5000   12.2090   -4.2980 O   0  0  0  0  0  0  0  0  0  0  0  0
    3.1570   11.9680   -4.9390 C   0  0  0  0  0  0  0  0  0  0  0  0
    2.2090   11.0990   -5.8020 C   0  0  0  0  0  0  0  0  0  0  0  0
    3.3270   13.3110   -5.7010 C   0  0  0  0  0  0  0  0  0  0  0  0
    1.9570   11.0580   -1.1740 C   0  0  1  0  0  0  0  0  0  0  0  0
    3.0490   11.6010   -0.2030 C   0  0  0  0  0  0  0  0  0  0  0  0
    1.5280    9.6490   -0.6170 C   0  0  0  0  0  0  0  0  0  0  0  0
    0.1050    9.1700   -0.9610 C   0  0  0  0  0  0  0  0  0  0  0  0
   -0.9290   10.2590   -0.6590 C   0  0  2  0  0  0  0  0  0  0  0  0
   -0.8930   10.5380    0.8820 C   0  0  0  0  0  0  0  0  0  0  0  0
   -2.6794    7.0009    0.4518 H   0  0  0  0  0  0  0  0  0  0  0  0
   -3.6302    7.0991   -1.0691 H   0  0  0  0  0  0  0  0  0  0  0  0
   -1.8881    7.5370   -1.0691 H   0  0  0  0  0  0  0  0  0  0  0  0
   -2.9245    9.1936    0.8902 H   0  0  0  0  0  0  0  0  0  0  0  0
   -5.1651    9.2060    0.6743 H   0  0  0  0  0  0  0  0  0  0  0  0
   -4.8016   10.2809   -0.7596 H   0  0  0  0  0  0  0  0  0  0  0  0
   -5.8441    8.8624   -2.0935 H   0  0  0  0  0  0  0  0  0  0  0  0
   -4.6554    7.5766   -1.6226 H   0  0  0  0  0  0  0  0  0  0  0  0
   -6.1757    7.9486    0.4155 H   0  0  0  0  0  0  0  0  0  0  0  0
   -8.8446    8.6669   -2.4395 H   0  0  0  0  0  0  0  0  0  0  0  0
   -7.2884    8.0343   -3.0757 H   0  0  0  0  0  0  0  0  0  0  0  0
   -8.7497    6.9897   -3.0757 H   0  0  0  0  0  0  0  0  0  0  0  0
   -8.6600    7.0581    0.7975 H   0  0  0  0  0  0  0  0  0  0  0  0
   -9.8139    7.6763   -0.4325 H   0  0  0  0  0  0  0  0  0  0  0  0
   -9.3447    5.9424   -0.4325 H   0  0  0  0  0  0  0  0  0  0  0  0
   -2.4161    9.3826   -1.9978 H   0  0  0  0  0  0  0  0  0  0  0  0
   -3.6752   11.4458   -2.0294 H   0  0  0  0  0  0  0  0  0  0  0  0
   -3.6475   11.5800   -0.2581 H   0  0  0  0  0  0  0  0  0  0  0  0
   -2.0369   13.1000   -2.0646 H   0  0  0  0  0  0  0  0  0  0  0  0
   -1.7298   12.9745   -0.3345 H   0  0  0  0  0  0  0  0  0  0  0  0
   -0.9762   10.1878   -3.2693 H   0  0  0  0  0  0  0  0  0  0  0  0
   -1.4411   11.9000   -3.5503 H   0  0  0  0  0  0  0  0  0  0  0  0
    0.2921   11.4284   -3.5503 H   0  0  0  0  0  0  0  0  0  0  0  0
    0.6028   12.3717   -0.0922 H   0  0  0  0  0  0  0  0  0  0  0  0
    0.2295   13.9600   -2.0863 H   0  0  0  0  0  0  0  0  0  0  0  0
    1.8237   13.9463   -1.1650 H   0  0  0  0  0  0  0  0  0  0  0  0
    1.9931   14.1229   -3.7875 H   0  0  0  0  0  0  0  0  0  0  0  0
    1.8794   10.1489   -3.0866 H   0  0  0  0  0  0  0  0  0  0  0  0
    4.6687   11.0183   -2.1060 H   0  0  0  0  0  0  0  0  0  0  0  0
    3.9709    9.3386   -2.0646 H   0  0  0  0  0  0  0  0  0  0  0  0
    5.5780    9.6390   -3.9207 H   0  0  0  0  0  0  0  0  0  0  0  0
    3.9016    9.2747   -4.4897 H   0  0  0  0  0  0  0  0  0  0  0  0
    4.8280   11.0012   -5.8742 H   0  0  0  0  0  0  0  0  0  0  0  0
    5.8820   11.7960   -3.5050 H   0  0  0  0  0  0  0  0  0  0  0  0
    1.5586   10.5028   -5.1452 H   0  0  0  0  0  0  0  0  0  0  0  0
    1.5907   11.7506   -6.4369 H   0  0  0  0  0  0  0  0  0  0  0  0
    2.8045   10.4264   -6.4369 H   0  0  0  0  0  0  0  0  0  0  0  0
    3.4310   14.1327   -4.9771 H   0  0  0  0  0  0  0  0  0  0  0  0
    4.2262   13.2629   -6.3327 H   0  0  0  0  0  0  0  0  0  0  0  0
    2.4441   13.4884   -6.3327 H   0  0  0  0  0  0  0  0  0  0  0  0
    2.7274   11.4411    0.8367 H   0  0  0  0  0  0  0  0  0  0  0  0
    3.9950   11.0683   -0.3803 H   0  0  0  0  0  0  0  0  0  0  0  0
    3.1952   12.6767   -0.3803 H   0  0  0  0  0  0  0  0  0  0  0  0
    2.2345    8.9051   -1.0138 H   0  0  0  0  0  0  0  0  0  0  0  0
    1.5386    9.7569    0.4776 H   0  0  0  0  0  0  0  0  0  0  0  0
    0.0593    8.9173   -2.0306 H   0  0  0  0  0  0  0  0  0  0  0  0
   -0.1258    8.2875   -0.3462 H   0  0  0  0  0  0  0  0  0  0  0  0
   -1.0151    9.5915    1.4289 H   0  0  0  0  0  0  0  0  0  0  0  0
    0.0715   10.9943    1.1496 H   0  0  0  0  0  0  0  0  0  0  0  0
   -1.7101   11.2242    1.1496 H   0  0  0  0  0  0  0  0  0  0  0  0
  1  2  1  0
  2  3  1  0
  3  4  1  0
  4  5  1  0
  5  6  1  0
  6  7  1  0
  7  8  1  0
  7  9  1  0
  2 10  1  0
 10 11  1  0
 11 12  1  0
 12 13  1  0
 13 14  1  6
 13 15  1  0
 15 16  1  0
 16 17  1  0
 17 18  2  0
 18 19  1  0
 19 20  1  0
 20 21  1  0
 21 22  1  0
 22 23  1  0
 22 24  1  0
 24 25  1  0
 24 26  1  0
 19 27  1  0
 27 28  1  1
 27 29  1  0
 29 30  1  0
 30 31  1  0
 31 32  1  1
  7  5  1  0
 31 10  1  0
 31 13  1  0
 27 15  1  0
 24 18  1  0
  1 33  1  0
  1 34  1  0
  1 35  1  0
  2 36  1  1
  3 37  1  0
  3 38  1  0
  4 39  1  0
  4 40  1  0
  5 41  1  1
  8 42  1  0
  8 43  1  0
  8 44  1  0
  9 45  1  0
  9 46  1  0
  9 47  1  0
 10 48  1  6
 11 49  1  0
 11 50  1  0
 12 51  1  0
 12 52  1  0
 14 53  1  0
 14 54  1  0
 14 55  1  0
 15 56  1  1
 16 57  1  0
 16 58  1  0
 17 59  1  0
 19 60  1  6
 20 61  1  0
 20 62  1  0
 21 63  1  0
 21 64  1  0
 22 65  1  6
 23 66  1  0
 25 67  1  0
 25 68  1  0
 25 69  1  0
 26 70  1  0
 26 71  1  0
 26 72  1  0
 28 73  1  0
 28 74  1  0
 28 75  1  0
 29 76  1  0
 29 77  1  0
 30 78  1  0
 30 79  1  0
 32 80  1  0
 32 81  1  0
 32 82  1  0
M  END
>  <meeko>  (18) 
{"is_sidechain": [false], "intermolecular_energy": 2.731, "internal_energy": -0.839}

$$$$
