EPH_relaxed_0001_pdb2pqr_Repair_314_r2_0001_out
     RDKit          3D

 82 86  0  0  0  0  0  0  0  0999 V2000
   -0.7850    8.9420   -1.9860 C   0  0  0  0  0  0  0  0  0  0  0  0
   -1.2150    9.3190   -0.5660 C   0  0  2  0  0  0  0  0  0  0  0  0
   -2.7480    9.4180   -0.4300 C   0  0  0  0  0  0  0  0  0  0  0  0
   -3.5040    8.3230   -1.1870 C   0  0  0  0  0  0  0  0  0  0  0  0
   -4.9350    8.2340   -0.7500 C   0  0  2  0  0  0  0  0  0  0  0  0
   -5.3490    6.9320   -0.3170 O   0  0  0  0  0  0  0  0  0  0  0  0
   -5.9910    7.4410   -1.4970 C   0  0  0  0  0  0  0  0  0  0  0  0
   -5.6600    6.6840   -2.7450 C   0  0  0  0  0  0  0  0  0  0  0  0
   -7.4310    7.7980   -1.2940 C   0  0  0  0  0  0  0  0  0  0  0  0
   -0.5700   10.6390   -0.1610 C   0  0  1  0  0  0  0  0  0  0  0  0
    0.4340   10.4780    1.0120 C   0  0  0  0  0  0  0  0  0  0  0  0
    1.5790   11.4940    0.7620 C   0  0  0  0  0  0  0  0  0  0  0  0
    1.0390   12.4250   -0.3480 C   0  0  1  0  0  0  0  0  0  0  0  0
    0.1240   13.4480    0.3960 C   0  0  0  0  0  0  0  0  0  0  0  0
    2.1120   13.1450   -1.2290 C   0  0  2  0  0  0  0  0  0  0  0  0
    3.0390   14.1100   -0.4690 C   0  0  0  0  0  0  0  0  0  0  0  0
    2.5640   15.5220   -0.3910 C   0  0  0  0  0  0  0  0  0  0  0  0
    1.5880   16.0620   -1.1450 C   0  0  0  0  0  0  0  0  0  0  0  0
    0.9190   15.2530   -2.2630 C   0  0  1  0  0  0  0  0  0  0  0  0
    0.8300   16.1200   -3.5470 C   0  0  0  0  0  0  0  0  0  0  0  0
    0.1400   17.4580   -3.3020 C   0  0  0  0  0  0  0  0  0  0  0  0
    0.8680   18.2580   -2.2250 C   0  0  2  0  0  0  0  0  0  0  0  0
    2.1580   18.6310   -2.7210 O   0  0  0  0  0  0  0  0  0  0  0  0
    1.0270   17.4820   -0.8880 C   0  0  0  0  0  0  0  0  0  0  0  0
   -0.3540   17.3420   -0.2010 C   0  0  0  0  0  0  0  0  0  0  0  0
    1.9000   18.3440    0.0640 C   0  0  0  0  0  0  0  0  0  0  0  0
    1.5320   13.8130   -2.5400 C   0  0  1  0  0  0  0  0  0  0  0  0
    2.7190   13.9250   -3.5450 C   0  0  0  0  0  0  0  0  0  0  0  0
    0.4430   12.9160   -3.2380 C   0  0  0  0  0  0  0  0  0  0  0  0
   -0.5110   12.1360   -2.3130 C   0  0  0  0  0  0  0  0  0  0  0  0
    0.2680   11.3800   -1.2330 C   0  0  2  0  0  0  0  0  0  0  0  0
    1.1810   10.3280   -1.9510 C   0  0  0  0  0  0  0  0  0  0  0  0
    0.0414    8.2175   -1.9387 H   0  0  0  0  0  0  0  0  0  0  0  0
   -1.6358    8.4935   -2.5198 H   0  0  0  0  0  0  0  0  0  0  0  0
   -0.4516    9.8441   -2.5198 H   0  0  0  0  0  0  0  0  0  0  0  0
   -0.8753    8.5173    0.1063 H   0  0  0  0  0  0  0  0  0  0  0  0
   -3.0076    9.3457    0.6365 H   0  0  0  0  0  0  0  0  0  0  0  0
   -3.0488   10.3801   -0.8704 H   0  0  0  0  0  0  0  0  0  0  0  0
   -3.4733    8.5475   -2.2634 H   0  0  0  0  0  0  0  0  0  0  0  0
   -3.0190    7.3595   -0.9713 H   0  0  0  0  0  0  0  0  0  0  0  0
   -4.9122    9.2716   -0.3856 H   0  0  0  0  0  0  0  0  0  0  0  0
   -5.2325    5.7062   -2.4782 H   0  0  0  0  0  0  0  0  0  0  0  0
   -6.5751    6.5349   -3.3370 H   0  0  0  0  0  0  0  0  0  0  0  0
   -4.9292    7.2545   -3.3370 H   0  0  0  0  0  0  0  0  0  0  0  0
   -7.6471    7.8516   -0.2168 H   0  0  0  0  0  0  0  0  0  0  0  0
   -7.6357    8.7741   -1.7581 H   0  0  0  0  0  0  0  0  0  0  0  0
   -8.0680    7.0306   -1.7581 H   0  0  0  0  0  0  0  0  0  0  0  0
   -1.4731   11.2198    0.0777 H   0  0  0  0  0  0  0  0  0  0  0  0
   -0.0632   10.6951    1.9689 H   0  0  0  0  0  0  0  0  0  0  0  0
    0.8217    9.4498    1.0624 H   0  0  0  0  0  0  0  0  0  0  0  0
    1.7974   12.0656    1.6761 H   0  0  0  0  0  0  0  0  0  0  0  0
    2.5185   11.0007    0.4722 H   0  0  0  0  0  0  0  0  0  0  0  0
    0.2386   13.3199    1.4825 H   0  0  0  0  0  0  0  0  0  0  0  0
    0.4138   14.4712    0.1149 H   0  0  0  0  0  0  0  0  0  0  0  0
   -0.9251   13.2737    0.1149 H   0  0  0  0  0  0  0  0  0  0  0  0
    2.7506   12.3099   -1.5526 H   0  0  0  0  0  0  0  0  0  0  0  0
    3.1537   13.7329    0.5580 H   0  0  0  0  0  0  0  0  0  0  0  0
    3.9809   14.1370   -1.0365 H   0  0  0  0  0  0  0  0  0  0  0  0
    3.0526   16.1775    0.3449 H   0  0  0  0  0  0  0  0  0  0  0  0
   -0.0925   15.0146   -1.9023 H   0  0  0  0  0  0  0  0  0  0  0  0
    1.8489   16.3108   -3.9151 H   0  0  0  0  0  0  0  0  0  0  0  0
    0.2308   15.5651   -4.2840 H   0  0  0  0  0  0  0  0  0  0  0  0
    0.1337   18.0364   -4.2376 H   0  0  0  0  0  0  0  0  0  0  0  0
   -0.8882   17.2657   -2.9618 H   0  0  0  0  0  0  0  0  0  0  0  0
    0.2561   19.1446   -2.0022 H   0  0  0  0  0  0  0  0  0  0  0  0
    2.7820   17.9280   -2.4740 H   0  0  0  0  0  0  0  0  0  0  0  0
   -0.2233   17.3553    0.8911 H   0  0  0  0  0  0  0  0  0  0  0  0
   -1.0004   18.1792   -0.5031 H   0  0  0  0  0  0  0  0  0  0  0  0
   -0.8192   16.3921   -0.5031 H   0  0  0  0  0  0  0  0  0  0  0  0
    1.6537   18.1008    1.1081 H   0  0  0  0  0  0  0  0  0  0  0  0
    2.9634   18.1318   -0.1209 H   0  0  0  0  0  0  0  0  0  0  0  0
    1.7013   19.4100   -0.1209 H   0  0  0  0  0  0  0  0  0  0  0  0
    3.6636   14.0141   -2.9884 H   0  0  0  0  0  0  0  0  0  0  0  0
    2.7498   13.0258   -4.1778 H   0  0  0  0  0  0  0  0  0  0  0  0
    2.5810   14.8141   -4.1778 H   0  0  0  0  0  0  0  0  0  0  0  0
   -0.1711   13.5715   -3.8730 H   0  0  0  0  0  0  0  0  0  0  0  0
    1.0097   12.1463   -3.7824 H   0  0  0  0  0  0  0  0  0  0  0  0
   -1.2017   12.8429   -1.8300 H   0  0  0  0  0  0  0  0  0  0  0  0
   -1.0679   11.4062   -2.9190 H   0  0  0  0  0  0  0  0  0  0  0  0
    1.7061    9.7230   -1.1972 H   0  0  0  0  0  0  0  0  0  0  0  0
    0.5606    9.6726   -2.5799 H   0  0  0  0  0  0  0  0  0  0  0  0
    1.9172   10.8500   -2.5799 H   0  0  0  0  0  0  0  0  0  0  0  0
  1  2  1  0
  2  3  1  0
  3  4  1  0
  4  5  1  0
  5  6  1  0
  6  7  1  0
  7  8  1  0
  7  9  1  0
  2 10  1  0
 10 11  1  0
 11 12  1  0
 12 13  1  0
 13 14  1  1
 13 15  1  0
 15 16  1  0
 16 17  1  0
 17 18  2  0
 18 19  1  0
 19 20  1  0
 20 21  1  0
 21 22  1  0
 22 23  1  0
 22 24  1  0
 24 25  1  0
 24 26  1  0
 19 27  1  0
 27 28  1  6
 27 29  1  0
 29 30  1  0
 30 31  1  0
 31 32  1  6
  7  5  1  0
 31 10  1  0
 31 13  1  0
 27 15  1  0
 24 18  1  0
  1 33  1  0
  1 34  1  0
  1 35  1  0
  2 36  1  1
  3 37  1  0
  3 38  1  0
  4 39  1  0
  4 40  1  0
  5 41  1  1
  8 42  1  0
  8 43  1  0
  8 44  1  0
  9 45  1  0
  9 46  1  0
  9 47  1  0
 10 48  1  1
 11 49  1  0
 11 50  1  0
 12 51  1  0
 12 52  1  0
 14 53  1  0
 14 54  1  0
 14 55  1  0
 15 56  1  6
 16 57  1  0
 16 58  1  0
 17 59  1  0
 19 60  1  1
 20 61  1  0
 20 62  1  0
 21 63  1  0
 21 64  1  0
 22 65  1  1
 23 66  1  0
 25 67  1  0
 25 68  1  0
 25 69  1  0
 26 70  1  0
 26 71  1  0
 26 72  1  0
 28 73  1  0
 28 74  1  0
 28 75  1  0
 29 76  1  0
 29 77  1  0
 30 78  1  0
 30 79  1  0
 32 80  1  0
 32 81  1  0
 32 82  1  0
M  END
>  <meeko>  (1) 
{"is_sidechain": [false], "intermolecular_energy": 2.731, "internal_energy": -0.839}

$$$$
EPH_relaxed_0001_pdb2pqr_Repair_314_r2_0001_out
     RDKit          3D

 82 86  0  0  0  0  0  0  0  0999 V2000
    2.3020   20.1940   -0.6720 C   0  0  0  0  0  0  0  0  0  0  0  0
    2.2020   19.1580    0.4510 C   0  0  2  0  0  0  0  0  0  0  0  0
    3.5900   18.7060    0.9480 C   0  0  0  0  0  0  0  0  0  0  0  0
    3.8720   19.0740    2.4070 C   0  0  0  0  0  0  0  0  0  0  0  0
    5.3310   19.3190    2.6450 C   0  0  2  0  0  0  0  0  0  0  0  0
    6.0270   18.2310    3.2660 O   0  0  0  0  0  0  0  0  0  0  0  0
    5.9430   19.4470    4.0270 C   0  0  0  0  0  0  0  0  0  0  0  0
    5.1080   19.3340    5.2640 C   0  0  0  0  0  0  0  0  0  0  0  0
    7.2510   20.1620    4.1680 C   0  0  0  0  0  0  0  0  0  0  0  0
    1.4000   17.9530   -0.0240 C   0  0  1  0  0  0  0  0  0  0  0  0
    0.1920   18.3510   -0.9130 C   0  0  0  0  0  0  0  0  0  0  0  0
    0.0330   17.2360   -1.9780 C   0  0  0  0  0  0  0  0  0  0  0  0
    0.9290   16.0820   -1.4710 C   0  0  1  0  0  0  0  0  0  0  0  0
    0.0690   15.3500   -0.3940 C   0  0  0  0  0  0  0  0  0  0  0  0
    1.4600   15.0910   -2.5580 C   0  0  2  0  0  0  0  0  0  0  0  0
    0.3720   14.3020   -3.3080 C   0  0  0  0  0  0  0  0  0  0  0  0
   -0.0010   12.9920   -2.6980 C   0  0  0  0  0  0  0  0  0  0  0  0
    0.7060   12.3370   -1.7590 C   0  0  0  0  0  0  0  0  0  0  0  0
    2.0660   12.8650   -1.2860 C   0  0  1  0  0  0  0  0  0  0  0  0
    3.0900   11.6990   -1.2500 C   0  0  0  0  0  0  0  0  0  0  0  0
    2.6010   10.5170   -0.4180 C   0  0  0  0  0  0  0  0  0  0  0  0
    1.2750    9.9840   -0.9540 C   0  0  2  0  0  0  0  0  0  0  0  0
    1.4970    9.4140   -2.2480 O   0  0  0  0  0  0  0  0  0  0  0  0
    0.1690   11.0720   -1.0450 C   0  0  0  0  0  0  0  0  0  0  0  0
   -0.2850   11.4730    0.3800 C   0  0  0  0  0  0  0  0  0  0  0  0
   -1.0700   10.4360   -1.7320 C   0  0  0  0  0  0  0  0  0  0  0  0
    2.6210   14.1400   -2.0560 C   0  0  1  0  0  0  0  0  0  0  0  0
    3.4110   13.6940   -3.3240 C   0  0  0  0  0  0  0  0  0  0  0  0
    3.6520   14.8900   -1.1320 C   0  0  0  0  0  0  0  0  0  0  0  0
    3.0790   15.9430   -0.1640 C   0  0  0  0  0  0  0  0  0  0  0  0
    2.1380   16.9060   -0.8950 C   0  0  2  0  0  0  0  0  0  0  0  0
    2.9800   17.6730   -1.9710 C   0  0  0  0  0  0  0  0  0  0  0  0
    2.3990   21.1992   -0.2360 H   0  0  0  0  0  0  0  0  0  0  0  0
    3.1834   19.9772   -1.2934 H   0  0  0  0  0  0  0  0  0  0  0  0
    1.3954   20.1498   -1.2934 H   0  0  0  0  0  0  0  0  0  0  0  0
    1.6876   19.6354    1.2980 H   0  0  0  0  0  0  0  0  0  0  0  0
    3.6558   17.6126    0.8468 H   0  0  0  0  0  0  0  0  0  0  0  0
    4.3373   19.2305    0.3344 H   0  0  0  0  0  0  0  0  0  0  0  0
    3.3116   19.9863    2.6592 H   0  0  0  0  0  0  0  0  0  0  0  0
    3.5583   18.2308    3.0400 H   0  0  0  0  0  0  0  0  0  0  0  0
    5.3949   19.9530    1.7484 H   0  0  0  0  0  0  0  0  0  0  0  0
    5.7528   19.4213    6.1509 H   0  0  0  0  0  0  0  0  0  0  0  0
    4.3583   20.1389    5.2751 H   0  0  0  0  0  0  0  0  0  0  0  0
    4.5992   18.3588    5.2751 H   0  0  0  0  0  0  0  0  0  0  0  0
    7.4856   20.2902    5.2350 H   0  0  0  0  0  0  0  0  0  0  0  0
    8.0450   19.5724    3.6863 H   0  0  0  0  0  0  0  0  0  0  0  0
    7.1834   21.1486    3.6863 H   0  0  0  0  0  0  0  0  0  0  0  0
    1.1348   17.5139    0.9491 H   0  0  0  0  0  0  0  0  0  0  0  0
   -0.7199   18.4240   -0.3022 H   0  0  0  0  0  0  0  0  0  0  0  0
    0.3567   19.3295   -1.3877 H   0  0  0  0  0  0  0  0  0  0  0  0
   -1.0158   16.9117   -2.0472 H   0  0  0  0  0  0  0  0  0  0  0  0
    0.3199   17.5759   -2.9840 H   0  0  0  0  0  0  0  0  0  0  0  0
    0.4120   15.6419    0.6096 H   0  0  0  0  0  0  0  0  0  0  0  0
   -0.9877   15.6300   -0.5162 H   0  0  0  0  0  0  0  0  0  0  0  0
    0.1766   14.2621   -0.5162 H   0  0  0  0  0  0  0  0  0  0  0  0
    1.9028   15.7704   -3.3012 H   0  0  0  0  0  0  0  0  0  0  0  0
   -0.5324   14.9268   -3.3506 H   0  0  0  0  0  0  0  0  0  0  0  0
    0.7932   14.0680   -4.2969 H   0  0  0  0  0  0  0  0  0  0  0  0
   -0.9329   12.5221   -3.0455 H   0  0  0  0  0  0  0  0  0  0  0  0
    1.9047   13.2525   -0.2692 H   0  0  0  0  0  0  0  0  0  0  0  0
    3.2696   11.3554   -2.2794 H   0  0  0  0  0  0  0  0  0  0  0  0
    4.0113   12.0777   -0.7833 H   0  0  0  0  0  0  0  0  0  0  0  0
    3.3529    9.7149   -0.4553 H   0  0  0  0  0  0  0  0  0  0  0  0
    2.4505   10.8552    0.6178 H   0  0  0  0  0  0  0  0  0  0  0  0
    0.9120    9.2271   -0.2431 H   0  0  0  0  0  0  0  0  0  0  0  0
    1.3090    8.4620   -2.1860 H   0  0  0  0  0  0  0  0  0  0  0  0
    0.3228   10.9361    1.1232 H   0  0  0  0  0  0  0  0  0  0  0  0
   -0.1556   12.5570    0.5146 H   0  0  0  0  0  0  0  0  0  0  0  0
   -1.3448   11.2107    0.5146 H   0  0  0  0  0  0  0  0  0  0  0  0
   -1.7707   10.0763   -0.9641 H   0  0  0  0  0  0  0  0  0  0  0  0
   -1.5686   11.1896   -2.3593 H   0  0  0  0  0  0  0  0  0  0  0  0
   -0.7483    9.5916   -2.3593 H   0  0  0  0  0  0  0  0  0  0  0  0
    4.3313   13.1745   -3.0187 H   0  0  0  0  0  0  0  0  0  0  0  0
    2.7880   13.0143   -3.9239 H   0  0  0  0  0  0  0  0  0  0  0  0
    3.6711   14.5786   -3.9239 H   0  0  0  0  0  0  0  0  0  0  0  0
    4.1716   14.1311   -0.5287 H   0  0  0  0  0  0  0  0  0  0  0  0
    4.2989   15.4535   -1.8205 H   0  0  0  0  0  0  0  0  0  0  0  0
    2.5213   15.4319    0.6346 H   0  0  0  0  0  0  0  0  0  0  0  0
    3.9136   16.5216    0.2586 H   0  0  0  0  0  0  0  0  0  0  0  0
    3.7035   18.3321   -1.4689 H   0  0  0  0  0  0  0  0  0  0  0  0
    3.5186   16.9487   -2.5997 H   0  0  0  0  0  0  0  0  0  0  0  0
    2.3090   18.2767   -2.5997 H   0  0  0  0  0  0  0  0  0  0  0  0
  1  2  1  0
  2  3  1  0
  3  4  1  0
  4  5  1  0
  5  6  1  0
  6  7  1  0
  7  8  1  0
  7  9  1  0
  2 10  1  0
 10 11  1  0
 11 12  1  0
 12 13  1  0
 13 14  1  1
 13 15  1  0
 15 16  1  0
 16 17  1  0
 17 18  2  0
 18 19  1  0
 19 20  1  0
 20 21  1  0
 21 22  1  0
 22 23  1  0
 22 24  1  0
 24 25  1  0
 24 26  1  0
 19 27  1  0
 27 28  1  6
 27 29  1  0
 29 30  1  0
 30 31  1  0
 31 32  1  6
  7  5  1  0
 31 10  1  0
 31 13  1  0
 27 15  1  0
 24 18  1  0
  1 33  1  0
  1 34  1  0
  1 35  1  0
  2 36  1  1
  3 37  1  0
  3 38  1  0
  4 39  1  0
  4 40  1  0
  5 41  1  6
  8 42  1  0
  8 43  1  0
  8 44  1  0
  9 45  1  0
  9 46  1  0
  9 47  1  0
 10 48  1  1
 11 49  1  0
 11 50  1  0
 12 51  1  0
 12 52  1  0
 14 53  1  0
 14 54  1  0
 14 55  1  0
 15 56  1  6
 16 57  1  0
 16 58  1  0
 17 59  1  0
 19 60  1  1
 20 61  1  0
 20 62  1  0
 21 63  1  0
 21 64  1  0
 22 65  1  1
 23 66  1  0
 25 67  1  0
 25 68  1  0
 25 69  1  0
 26 70  1  0
 26 71  1  0
 26 72  1  0
 28 73  1  0
 28 74  1  0
 28 75  1  0
 29 76  1  0
 29 77  1  0
 30 78  1  0
 30 79  1  0
 32 80  1  0
 32 81  1  0
 32 82  1  0
M  END
>  <meeko>  (2) 
{"is_sidechain": [false], "intermolecular_energy": 2.731, "internal_energy": -0.839}

$$$$
EPH_relaxed_0001_pdb2pqr_Repair_314_r2_0001_out
     RDKit          3D

 82 86  0  0  0  0  0  0  0  0999 V2000
    2.4350   17.1720   -0.4670 C   0  0  0  0  0  0  0  0  0  0  0  0
    1.9240   17.3040   -1.9040 C   0  0  2  0  0  0  0  0  0  0  0  0
    1.0090   18.5320   -2.0860 C   0  0  0  0  0  0  0  0  0  0  0  0
    1.0860   19.5330   -0.9300 C   0  0  0  0  0  0  0  0  0  0  0  0
   -0.2570   20.1190   -0.6140 C   0  0  2  0  0  0  0  0  0  0  0  0
   -0.5630   20.1940    0.7850 O   0  0  0  0  0  0  0  0  0  0  0  0
   -1.3930   19.3230    0.0000 C   0  0  0  0  0  0  0  0  0  0  0  0
   -1.2390   17.8720    0.3340 C   0  0  0  0  0  0  0  0  0  0  0  0
   -2.7930   19.8220   -0.1760 C   0  0  0  0  0  0  0  0  0  0  0  0
    1.1820   16.0360   -2.3100 C   0  0  1  0  0  0  0  0  0  0  0  0
    0.7850   16.0310   -3.8110 C   0  0  0  0  0  0  0  0  0  0  0  0
    0.8930   14.5630   -4.2960 C   0  0  0  0  0  0  0  0  0  0  0  0
    1.0220   13.7310   -2.9990 C   0  0  1  0  0  0  0  0  0  0  0  0
   -0.4390   13.5810   -2.4720 C   0  0  0  0  0  0  0  0  0  0  0  0
    1.7320   12.3440   -3.1340 C   0  0  2  0  0  0  0  0  0  0  0  0
    1.0220   11.3350   -4.0540 C   0  0  0  0  0  0  0  0  0  0  0  0
    0.0300   10.4460   -3.3800 C   0  0  0  0  0  0  0  0  0  0  0  0
   -0.0760   10.2590   -2.0510 C   0  0  0  0  0  0  0  0  0  0  0  0
    0.9240   10.9030   -1.0820 C   0  0  1  0  0  0  0  0  0  0  0  0
    1.3960    9.8480   -0.0480 C   0  0  0  0  0  0  0  0  0  0  0  0
    0.2330    9.1760    0.6750 C   0  0  0  0  0  0  0  0  0  0  0  0
   -0.7070    8.4970   -0.3170 C   0  0  2  0  0  0  0  0  0  0  0  0
   -0.0180    7.4040   -0.9310 O   0  0  0  0  0  0  0  0  0  0  0  0
   -1.2400    9.4610   -1.4130 C   0  0  0  0  0  0  0  0  0  0  0  0
   -2.2320   10.4690   -0.7830 C   0  0  0  0  0  0  0  0  0  0  0  0
   -2.0620    8.6210   -2.4290 C   0  0  0  0  0  0  0  0  0  0  0  0
    2.1340   11.6840   -1.7540 C   0  0  1  0  0  0  0  0  0  0  0  0
    3.3030   10.6970   -2.0560 C   0  0  0  0  0  0  0  0  0  0  0  0
    2.6970   12.7380   -0.7280 C   0  0  0  0  0  0  0  0  0  0  0  0
    2.0330   14.1280   -0.7250 C   0  0  0  0  0  0  0  0  0  0  0  0
    1.9310   14.6900   -2.1470 C   0  0  2  0  0  0  0  0  0  0  0  0
    3.3870   14.8720   -2.6950 C   0  0  0  0  0  0  0  0  0  0  0  0
    1.6148   17.3839    0.2347 H   0  0  0  0  0  0  0  0  0  0  0  0
    2.8040   16.1490   -0.3016 H   0  0  0  0  0  0  0  0  0  0  0  0
    3.2533   17.8882   -0.3016 H   0  0  0  0  0  0  0  0  0  0  0  0
    2.7996   17.4470   -2.5543 H   0  0  0  0  0  0  0  0  0  0  0  0
    1.3006   19.0482   -3.0125 H   0  0  0  0  0  0  0  0  0  0  0  0
   -0.0256   18.1599   -2.1210 H   0  0  0  0  0  0  0  0  0  0  0  0
    1.4691   19.0176   -0.0370 H   0  0  0  0  0  0  0  0  0  0  0  0
    1.7558   20.3524   -1.2298 H   0  0  0  0  0  0  0  0  0  0  0  0
   -0.2069   20.7716   -1.4981 H   0  0  0  0  0  0  0  0  0  0  0  0
   -1.2257   17.7467    1.4268 H   0  0  0  0  0  0  0  0  0  0  0  0
   -2.0822   17.3067   -0.0897 H   0  0  0  0  0  0  0  0  0  0  0  0
   -0.2959   17.4963   -0.0897 H   0  0  0  0  0  0  0  0  0  0  0  0
   -3.2509   19.9852    0.8108 H   0  0  0  0  0  0  0  0  0  0  0  0
   -2.7770   20.7698   -0.7341 H   0  0  0  0  0  0  0  0  0  0  0  0
   -3.3801   19.0778   -0.7341 H   0  0  0  0  0  0  0  0  0  0  0  0
    0.3375   16.0836   -1.6067 H   0  0  0  0  0  0  0  0  0  0  0  0
   -0.2460   16.3951   -3.9316 H   0  0  0  0  0  0  0  0  0  0  0  0
    1.4430   16.6902   -4.3962 H   0  0  0  0  0  0  0  0  0  0  0  0
   -0.0080   14.2719   -4.8559 H   0  0  0  0  0  0  0  0  0  0  0  0
    1.7444   14.4102   -4.9755 H   0  0  0  0  0  0  0  0  0  0  0  0
   -0.4339   13.5815   -1.3720 H   0  0  0  0  0  0  0  0  0  0  0  0
   -1.0483   14.4213   -2.8362 H   0  0  0  0  0  0  0  0  0  0  0  0
   -0.8648   12.6344   -2.8362 H   0  0  0  0  0  0  0  0  0  0  0  0
    2.6693   12.6078   -3.6458 H   0  0  0  0  0  0  0  0  0  0  0  0
    0.4949   11.9008   -4.8364 H   0  0  0  0  0  0  0  0  0  0  0  0
    1.8089   10.6725   -4.4438 H   0  0  0  0  0  0  0  0  0  0  0  0
   -0.6736    9.8975   -4.0235 H   0  0  0  0  0  0  0  0  0  0  0  0
    0.3767   11.7078   -0.5694 H   0  0  0  0  0  0  0  0  0  0  0  0
    1.9783    9.0761   -0.5726 H   0  0  0  0  0  0  0  0  0  0  0  0
    2.0023   10.3691    0.7075 H   0  0  0  0  0  0  0  0  0  0  0  0
    0.6292    8.4210    1.3700 H   0  0  0  0  0  0  0  0  0  0  0  0
   -0.3311    9.9451    1.2230 H   0  0  0  0  0  0  0  0  0  0  0  0
   -1.5845    8.1467    0.2463 H   0  0  0  0  0  0  0  0  0  0  0  0
    0.9240    7.6390   -0.9780 H   0  0  0  0  0  0  0  0  0  0  0  0
   -2.1709   10.4069    0.3135 H   0  0  0  0  0  0  0  0  0  0  0  0
   -1.9748   11.4881   -1.1075 H   0  0  0  0  0  0  0  0  0  0  0  0
   -3.2551   10.2281   -1.1075 H   0  0  0  0  0  0  0  0  0  0  0  0
   -2.7304    7.9380   -1.8842 H   0  0  0  0  0  0  0  0  0  0  0  0
   -2.6607    9.2933   -3.0611 H   0  0  0  0  0  0  0  0  0  0  0  0
   -1.3769    8.0370   -3.0611 H   0  0  0  0  0  0  0  0  0  0  0  0
    3.7313   10.3354   -1.1095 H   0  0  0  0  0  0  0  0  0  0  0  0
    2.9217    9.8435   -2.6357 H   0  0  0  0  0  0  0  0  0  0  0  0
    4.0805   11.2160   -2.6357 H   0  0  0  0  0  0  0  0  0  0  0  0
    2.5847   12.3134    0.2805 H   0  0  0  0  0  0  0  0  0  0  0  0
    3.7366   12.9164   -1.0401 H   0  0  0  0  0  0  0  0  0  0  0  0
    1.0227   14.0433   -0.2982 H   0  0  0  0  0  0  0  0  0  0  0  0
    2.6499   14.8102   -0.1216 H   0  0  0  0  0  0  0  0  0  0  0  0
    4.0879   14.9596   -1.8517 H   0  0  0  0  0  0  0  0  0  0  0  0
    3.6592   14.0009   -3.3091 H   0  0  0  0  0  0  0  0  0  0  0  0
    3.4364   15.7833   -3.3091 H   0  0  0  0  0  0  0  0  0  0  0  0
  1  2  1  0
  2  3  1  0
  3  4  1  0
  4  5  1  0
  5  6  1  0
  6  7  1  0
  7  8  1  0
  7  9  1  0
  2 10  1  0
 10 11  1  0
 11 12  1  0
 12 13  1  0
 13 14  1  1
 13 15  1  0
 15 16  1  0
 16 17  1  0
 17 18  2  0
 18 19  1  0
 19 20  1  0
 20 21  1  0
 21 22  1  0
 22 23  1  0
 22 24  1  0
 24 25  1  0
 24 26  1  0
 19 27  1  0
 27 28  1  6
 27 29  1  0
 29 30  1  0
 30 31  1  0
 31 32  1  6
  7  5  1  0
 31 10  1  0
 31 13  1  0
 27 15  1  0
 24 18  1  0
  1 33  1  0
  1 34  1  0
  1 35  1  0
  2 36  1  6
  3 37  1  0
  3 38  1  0
  4 39  1  0
  4 40  1  0
  5 41  1  6
  8 42  1  0
  8 43  1  0
  8 44  1  0
  9 45  1  0
  9 46  1  0
  9 47  1  0
 10 48  1  1
 11 49  1  0
 11 50  1  0
 12 51  1  0
 12 52  1  0
 14 53  1  0
 14 54  1  0
 14 55  1  0
 15 56  1  6
 16 57  1  0
 16 58  1  0
 17 59  1  0
 19 60  1  1
 20 61  1  0
 20 62  1  0
 21 63  1  0
 21 64  1  0
 22 65  1  1
 23 66  1  0
 25 67  1  0
 25 68  1  0
 25 69  1  0
 26 70  1  0
 26 71  1  0
 26 72  1  0
 28 73  1  0
 28 74  1  0
 28 75  1  0
 29 76  1  0
 29 77  1  0
 30 78  1  0
 30 79  1  0
 32 80  1  0
 32 81  1  0
 32 82  1  0
M  END
>  <meeko>  (3) 
{"is_sidechain": [false], "intermolecular_energy": 2.731, "internal_energy": -0.839}

$$$$
EPH_relaxed_0001_pdb2pqr_Repair_314_r2_0001_out
     RDKit          3D

 82 86  0  0  0  0  0  0  0  0999 V2000
    2.2770   18.2860   -2.3100 C   0  0  0  0  0  0  0  0  0  0  0  0
    1.7250   17.4330   -1.1640 C   0  0  2  0  0  0  0  0  0  0  0  0
    2.8210   17.0410   -0.1530 C   0  0  0  0  0  0  0  0  0  0  0  0
    3.7960   18.1760    0.1690 C   0  0  0  0  0  0  0  0  0  0  0  0
    3.5290   18.7700    1.5180 C   0  0  2  0  0  0  0  0  0  0  0  0
    3.9320   20.1390    1.6600 O   0  0  0  0  0  0  0  0  0  0  0  0
    4.6260   19.1850    2.4820 C   0  0  0  0  0  0  0  0  0  0  0  0
    6.0720   19.0210    2.1350 C   0  0  0  0  0  0  0  0  0  0  0  0
    4.2960   19.2920    3.9380 C   0  0  0  0  0  0  0  0  0  0  0  0
    1.0590   16.1810   -1.7230 C   0  0  1  0  0  0  0  0  0  0  0  0
    0.7670   16.2860   -3.2430 C   0  0  0  0  0  0  0  0  0  0  0  0
    0.9630   14.8670   -3.8360 C   0  0  0  0  0  0  0  0  0  0  0  0
    1.0320   13.9360   -2.6030 C   0  0  1  0  0  0  0  0  0  0  0  0
   -0.4560   13.6980   -2.1960 C   0  0  0  0  0  0  0  0  0  0  0  0
    1.7990   12.5880   -2.7980 C   0  0  2  0  0  0  0  0  0  0  0  0
    1.1920   11.6360   -3.8440 C   0  0  0  0  0  0  0  0  0  0  0  0
    0.1890   10.6650   -3.3160 C   0  0  0  0  0  0  0  0  0  0  0  0
   -0.0010   10.3650   -2.0170 C   0  0  0  0  0  0  0  0  0  0  0  0
    0.9050   10.9580   -0.9310 C   0  0  1  0  0  0  0  0  0  0  0  0
    1.3440    9.8360    0.0470 C   0  0  0  0  0  0  0  0  0  0  0  0
    0.1590    9.0710    0.6290 C   0  0  0  0  0  0  0  0  0  0  0  0
   -0.6860    8.4480   -0.4790 C   0  0  2  0  0  0  0  0  0  0  0  0
    0.0840    7.4310   -1.1280 O   0  0  0  0  0  0  0  0  0  0  0  0
   -1.1770    9.4820   -1.5310 C   0  0  0  0  0  0  0  0  0  0  0  0
   -2.2460   10.4040   -0.8940 C   0  0  0  0  0  0  0  0  0  0  0  0
   -1.8950    8.7040   -2.6660 C   0  0  0  0  0  0  0  0  0  0  0  0
    2.1300   11.8290   -1.4490 C   0  0  1  0  0  0  0  0  0  0  0  0
    3.3520   10.9060   -1.7440 C   0  0  0  0  0  0  0  0  0  0  0  0
    2.5820   12.8120   -0.3050 C   0  0  0  0  0  0  0  0  0  0  0  0
    1.8680   14.1760   -0.2380 C   0  0  0  0  0  0  0  0  0  0  0  0
    1.8440   14.8490   -1.6140 C   0  0  2  0  0  0  0  0  0  0  0  0
    3.3270   15.1210   -2.0400 C   0  0  0  0  0  0  0  0  0  0  0  0
    2.8308   19.1417   -1.8964 H   0  0  0  0  0  0  0  0  0  0  0  0
    2.9524   17.6765   -2.9284 H   0  0  0  0  0  0  0  0  0  0  0  0
    1.4443   18.6524   -2.9284 H   0  0  0  0  0  0  0  0  0  0  0  0
    0.9821   18.0404   -0.6262 H   0  0  0  0  0  0  0  0  0  0  0  0
    2.3344   16.7257    0.7817 H   0  0  0  0  0  0  0  0  0  0  0  0
    3.4089   16.2334   -0.6136 H   0  0  0  0  0  0  0  0  0  0  0  0
    4.8222   17.7804    0.1505 H   0  0  0  0  0  0  0  0  0  0  0  0
    3.6642   18.9656   -0.5854 H   0  0  0  0  0  0  0  0  0  0  0  0
    2.6352   18.1412    1.6440 H   0  0  0  0  0  0  0  0  0  0  0  0
    6.6654   18.9537    3.0588 H   0  0  0  0  0  0  0  0  0  0  0  0
    6.2057   18.1019    1.5455 H   0  0  0  0  0  0  0  0  0  0  0  0
    6.4081   19.8868    1.5455 H   0  0  0  0  0  0  0  0  0  0  0  0
    5.1748   19.0070    4.5351 H   0  0  0  0  0  0  0  0  0  0  0  0
    4.0123   20.3282    4.1745 H   0  0  0  0  0  0  0  0  0  0  0  0
    3.4583   18.6194    4.1745 H   0  0  0  0  0  0  0  0  0  0  0  0
    0.1662   16.1459   -1.0813 H   0  0  0  0  0  0  0  0  0  0  0  0
   -0.2662   16.6258   -3.4075 H   0  0  0  0  0  0  0  0  0  0  0  0
    1.4391   17.0113   -3.7248 H   0  0  0  0  0  0  0  0  0  0  0  0
    0.1146   14.5950   -4.4812 H   0  0  0  0  0  0  0  0  0  0  0  0
    1.8643   14.7973   -4.4628 H   0  0  0  0  0  0  0  0  0  0  0  0
   -0.5385   13.6848   -1.0992 H   0  0  0  0  0  0  0  0  0  0  0  0
   -1.0809   14.5076   -2.6010 H   0  0  0  0  0  0  0  0  0  0  0  0
   -0.7972   12.7339   -2.6010 H   0  0  0  0  0  0  0  0  0  0  0  0
    2.7582   12.9224   -3.2200 H   0  0  0  0  0  0  0  0  0  0  0  0
    0.7002   12.2472   -4.6151 H   0  0  0  0  0  0  0  0  0  0  0  0
    2.0277   11.0322   -4.2273 H   0  0  0  0  0  0  0  0  0  0  0  0
   -0.4490   10.1509   -4.0500 H   0  0  0  0  0  0  0  0  0  0  0  0
    0.2935   11.7006   -0.3974 H   0  0  0  0  0  0  0  0  0  0  0  0
    1.9889    9.1284   -0.4947 H   0  0  0  0  0  0  0  0  0  0  0  0
    1.8778   10.3115    0.8830 H   0  0  0  0  0  0  0  0  0  0  0  0
    0.5338    8.2735    1.2874 H   0  0  0  0  0  0  0  0  0  0  0  0
   -0.4687    9.7745    1.1955 H   0  0  0  0  0  0  0  0  0  0  0  0
   -1.5871    8.0267   -0.0094 H   0  0  0  0  0  0  0  0  0  0  0  0
    0.0830    7.6230   -2.0810 H   0  0  0  0  0  0  0  0  0  0  0  0
   -2.1761   10.3437    0.2021 H   0  0  0  0  0  0  0  0  0  0  0  0
   -2.0740   11.4417   -1.2158 H   0  0  0  0  0  0  0  0  0  0  0  0
   -3.2472   10.0815   -1.2158 H   0  0  0  0  0  0  0  0  0  0  0  0
   -2.5790    7.9629   -2.2267 H   0  0  0  0  0  0  0  0  0  0  0  0
   -2.4675    9.4080   -3.2878 H   0  0  0  0  0  0  0  0  0  0  0  0
   -1.1474    8.1897   -3.2878 H   0  0  0  0  0  0  0  0  0  0  0  0
    3.7958   10.5708   -0.7950 H   0  0  0  0  0  0  0  0  0  0  0  0
    3.0197   10.0314   -2.3225 H   0  0  0  0  0  0  0  0  0  0  0  0
    4.1024   11.4648   -2.3225 H   0  0  0  0  0  0  0  0  0  0  0  0
    2.4170   12.3026    0.6559 H   0  0  0  0  0  0  0  0  0  0  0  0
    3.6331   13.0482   -0.5273 H   0  0  0  0  0  0  0  0  0  0  0  0
    0.8345   14.0249    0.1070 H   0  0  0  0  0  0  0  0  0  0  0  0
    2.4156   14.8252    0.4611 H   0  0  0  0  0  0  0  0  0  0  0  0
    3.9514   15.2355   -1.1417 H   0  0  0  0  0  0  0  0  0  0  0  0
    3.6974   14.2758   -2.6387 H   0  0  0  0  0  0  0  0  0  0  0  0
    3.3734   16.0426   -2.6387 H   0  0  0  0  0  0  0  0  0  0  0  0
  1  2  1  0
  2  3  1  0
  3  4  1  0
  4  5  1  0
  5  6  1  0
  6  7  1  0
  7  8  1  0
  7  9  1  0
  2 10  1  0
 10 11  1  0
 11 12  1  0
 12 13  1  0
 13 14  1  1
 13 15  1  0
 15 16  1  0
 16 17  1  0
 17 18  2  0
 18 19  1  0
 19 20  1  0
 20 21  1  0
 21 22  1  0
 22 23  1  0
 22 24  1  0
 24 25  1  0
 24 26  1  0
 19 27  1  0
 27 28  1  6
 27 29  1  0
 29 30  1  0
 30 31  1  0
 31 32  1  6
  7  5  1  0
 31 10  1  0
 31 13  1  0
 27 15  1  0
 24 18  1  0
  1 33  1  0
  1 34  1  0
  1 35  1  0
  2 36  1  1
  3 37  1  0
  3 38  1  0
  4 39  1  0
  4 40  1  0
  5 41  1  1
  8 42  1  0
  8 43  1  0
  8 44  1  0
  9 45  1  0
  9 46  1  0
  9 47  1  0
 10 48  1  1
 11 49  1  0
 11 50  1  0
 12 51  1  0
 12 52  1  0
 14 53  1  0
 14 54  1  0
 14 55  1  0
 15 56  1  6
 16 57  1  0
 16 58  1  0
 17 59  1  0
 19 60  1  1
 20 61  1  0
 20 62  1  0
 21 63  1  0
 21 64  1  0
 22 65  1  1
 23 66  1  0
 25 67  1  0
 25 68  1  0
 25 69  1  0
 26 70  1  0
 26 71  1  0
 26 72  1  0
 28 73  1  0
 28 74  1  0
 28 75  1  0
 29 76  1  0
 29 77  1  0
 30 78  1  0
 30 79  1  0
 32 80  1  0
 32 81  1  0
 32 82  1  0
M  END
>  <meeko>  (4) 
{"is_sidechain": [false], "intermolecular_energy": 2.731, "internal_energy": -0.839}

$$$$
EPH_relaxed_0001_pdb2pqr_Repair_314_r2_0001_out
     RDKit          3D

 82 86  0  0  0  0  0  0  0  0999 V2000
   -3.4070    7.3680   -3.0240 C   0  0  0  0  0  0  0  0  0  0  0  0
   -3.4220    7.6530   -1.5190 C   0  0  2  0  0  0  0  0  0  0  0  0
   -4.8490    7.6170   -0.9360 C   0  0  0  0  0  0  0  0  0  0  0  0
   -5.8880    7.0180   -1.8870 C   0  0  0  0  0  0  0  0  0  0  0  0
   -7.2870    7.2850   -1.4200 C   0  0  2  0  0  0  0  0  0  0  0  0
   -8.0270    6.1150   -1.0470 O   0  0  0  0  0  0  0  0  0  0  0  0
   -8.5220    6.8430   -2.1820 C   0  0  0  0  0  0  0  0  0  0  0  0
   -8.4160    6.0980   -3.4760 C   0  0  0  0  0  0  0  0  0  0  0  0
   -9.8140    7.5550   -1.9260 C   0  0  0  0  0  0  0  0  0  0  0  0
   -2.7800    9.0070   -1.2410 C   0  0  1  0  0  0  0  0  0  0  0  0
   -3.1970    9.5950    0.1340 C   0  0  0  0  0  0  0  0  0  0  0  0
   -1.9660   10.3580    0.6860 C   0  0  0  0  0  0  0  0  0  0  0  0
   -1.0020   10.4680   -0.5190 C   0  0  1  0  0  0  0  0  0  0  0  0
   -1.5360   11.6760   -1.3510 C   0  0  0  0  0  0  0  0  0  0  0  0
    0.5150   10.6280   -0.1780 C   0  0  2  0  0  0  0  0  0  0  0  0
    0.8780   11.9050    0.5990 C   0  0  0  0  0  0  0  0  0  0  0  0
    1.2320   13.0850   -0.2450 C   0  0  0  0  0  0  0  0  0  0  0  0
    1.5340   13.0480   -1.5560 C   0  0  0  0  0  0  0  0  0  0  0  0
    1.6340   11.7110   -2.3030 C   0  0  1  0  0  0  0  0  0  0  0  0
    2.9220   11.6970   -3.1670 C   0  0  0  0  0  0  0  0  0  0  0  0
    3.0120   12.8970   -4.1040 C   0  0  0  0  0  0  0  0  0  0  0  0
    2.9670   14.2060   -3.3200 C   0  0  2  0  0  0  0  0  0  0  0  0
    4.1550   14.3100   -2.5280 O   0  0  0  0  0  0  0  0  0  0  0  0
    1.7170   14.3300   -2.4050 C   0  0  0  0  0  0  0  0  0  0  0  0
    0.4510   14.5210   -3.2770 C   0  0  0  0  0  0  0  0  0  0  0  0
    1.8660   15.6280   -1.5660 C   0  0  0  0  0  0  0  0  0  0  0  0
    1.4830   10.4050   -1.4100 C   0  0  1  0  0  0  0  0  0  0  0  0
    2.8690   10.0010   -0.8200 C   0  0  0  0  0  0  0  0  0  0  0  0
    1.0230    9.2080   -2.3240 C   0  0  0  0  0  0  0  0  0  0  0  0
   -0.4940    9.0310   -2.5260 C   0  0  0  0  0  0  0  0  0  0  0  0
   -1.2330    9.0620   -1.1840 C   0  0  2  0  0  0  0  0  0  0  0  0
   -0.7320    7.8450   -0.3340 C   0  0  0  0  0  0  0  0  0  0  0  0
   -3.3499    6.2823   -3.1910 H   0  0  0  0  0  0  0  0  0  0  0  0
   -4.3271    7.7613   -3.4809 H   0  0  0  0  0  0  0  0  0  0  0  0
   -2.5333    7.8557   -3.4809 H   0  0  0  0  0  0  0  0  0  0  0  0
   -2.8434    6.8584   -1.0252 H   0  0  0  0  0  0  0  0  0  0  0  0
   -4.8329    7.0148   -0.0156 H   0  0  0  0  0  0  0  0  0  0  0  0
   -5.1466    8.6596   -0.7507 H   0  0  0  0  0  0  0  0  0  0  0  0
   -5.7548    7.4609   -2.8850 H   0  0  0  0  0  0  0  0  0  0  0  0
   -5.7384    5.9286   -1.9157 H   0  0  0  0  0  0  0  0  0  0  0  0
   -6.9869    8.2570   -1.0013 H   0  0  0  0  0  0  0  0  0  0  0  0
   -8.2637    5.0279   -3.2716 H   0  0  0  0  0  0  0  0  0  0  0  0
   -9.3424    6.2328   -4.0536 H   0  0  0  0  0  0  0  0  0  0  0  0
   -7.5640    6.4858   -4.0536 H   0  0  0  0  0  0  0  0  0  0  0  0
   -9.9751    7.6438   -0.8415 H   0  0  0  0  0  0  0  0  0  0  0  0
   -9.7746    8.5588   -2.3742 H   0  0  0  0  0  0  0  0  0  0  0  0
  -10.6415    6.9855   -2.3742 H   0  0  0  0  0  0  0  0  0  0  0  0
   -3.1447    9.5669   -2.1148 H   0  0  0  0  0  0  0  0  0  0  0  0
   -4.0453   10.2841    0.0097 H   0  0  0  0  0  0  0  0  0  0  0  0
   -3.5107    8.7989    0.8252 H   0  0  0  0  0  0  0  0  0  0  0  0
   -2.2565   11.3570    1.0432 H   0  0  0  0  0  0  0  0  0  0  0  0
   -1.5060    9.8433    1.5424 H   0  0  0  0  0  0  0  0  0  0  0  0
   -1.8849   12.4653   -0.6689 H   0  0  0  0  0  0  0  0  0  0  0  0
   -0.7282   12.0701   -1.9852 H   0  0  0  0  0  0  0  0  0  0  0  0
   -2.3712   11.3438   -1.9852 H   0  0  0  0  0  0  0  0  0  0  0  0
    0.6894    9.7953    0.5193 H   0  0  0  0  0  0  0  0  0  0  0  0
    0.0152   12.1800    1.2234 H   0  0  0  0  0  0  0  0  0  0  0  0
    1.7811   11.6628    1.1785 H   0  0  0  0  0  0  0  0  0  0  0  0
    1.2472   14.0687    0.2470 H   0  0  0  0  0  0  0  0  0  0  0  0
    0.7480   11.6577   -2.9527 H   0  0  0  0  0  0  0  0  0  0  0  0
    3.7952   11.7059   -2.4981 H   0  0  0  0  0  0  0  0  0  0  0  0
    2.8967   10.7898   -3.7885 H   0  0  0  0  0  0  0  0  0  0  0  0
    3.9568   12.8457   -4.6649 H   0  0  0  0  0  0  0  0  0  0  0  0
    2.1542   12.8702   -4.7921 H   0  0  0  0  0  0  0  0  0  0  0  0
    2.9031   15.0258   -4.0507 H   0  0  0  0  0  0  0  0  0  0  0  0
    4.1250   15.1630   -2.0640 H   0  0  0  0  0  0  0  0  0  0  0  0
   -0.4259   14.6533   -2.6262 H   0  0  0  0  0  0  0  0  0  0  0  0
    0.5740   15.4108   -3.9120 H   0  0  0  0  0  0  0  0  0  0  0  0
    0.3060   13.6346   -3.9120 H   0  0  0  0  0  0  0  0  0  0  0  0
    1.8373   15.3778   -0.4952 H   0  0  0  0  0  0  0  0  0  0  0  0
    2.8254   16.1105   -1.8042 H   0  0  0  0  0  0  0  0  0  0  0  0
    1.0409   16.3153   -1.8042 H   0  0  0  0  0  0  0  0  0  0  0  0
    2.8182   10.0158    0.2787 H   0  0  0  0  0  0  0  0  0  0  0  0
    3.1319    8.9889   -1.1613 H   0  0  0  0  0  0  0  0  0  0  0  0
    3.6345   10.7134   -1.1613 H   0  0  0  0  0  0  0  0  0  0  0  0
    1.4760    9.3535   -3.3158 H   0  0  0  0  0  0  0  0  0  0  0  0
    1.3508    8.3004   -1.7960 H   0  0  0  0  0  0  0  0  0  0  0  0
   -0.8698    9.8455   -3.1627 H   0  0  0  0  0  0  0  0  0  0  0  0
   -0.6731    8.0560   -3.0027 H   0  0  0  0  0  0  0  0  0  0  0  0
   -0.8289    8.0805    0.7361 H   0  0  0  0  0  0  0  0  0  0  0  0
   -1.3382    6.9581   -0.5707 H   0  0  0  0  0  0  0  0  0  0  0  0
    0.3229    7.6419   -0.5707 H   0  0  0  0  0  0  0  0  0  0  0  0
  1  2  1  0
  2  3  1  0
  3  4  1  0
  4  5  1  0
  5  6  1  0
  6  7  1  0
  7  8  1  0
  7  9  1  0
  2 10  1  0
 10 11  1  0
 11 12  1  0
 12 13  1  0
 13 14  1  6
 13 15  1  0
 15 16  1  0
 16 17  1  0
 17 18  2  0
 18 19  1  0
 19 20  1  0
 20 21  1  0
 21 22  1  0
 22 23  1  0
 22 24  1  0
 24 25  1  0
 24 26  1  0
 19 27  1  0
 27 28  1  1
 27 29  1  0
 29 30  1  0
 30 31  1  0
 31 32  1  1
  7  5  1  0
 31 10  1  0
 31 13  1  0
 27 15  1  0
 24 18  1  0
  1 33  1  0
  1 34  1  0
  1 35  1  0
  2 36  1  1
  3 37  1  0
  3 38  1  0
  4 39  1  0
  4 40  1  0
  5 41  1  1
  8 42  1  0
  8 43  1  0
  8 44  1  0
  9 45  1  0
  9 46  1  0
  9 47  1  0
 10 48  1  6
 11 49  1  0
 11 50  1  0
 12 51  1  0
 12 52  1  0
 14 53  1  0
 14 54  1  0
 14 55  1  0
 15 56  1  1
 16 57  1  0
 16 58  1  0
 17 59  1  0
 19 60  1  6
 20 61  1  0
 20 62  1  0
 21 63  1  0
 21 64  1  0
 22 65  1  6
 23 66  1  0
 25 67  1  0
 25 68  1  0
 25 69  1  0
 26 70  1  0
 26 71  1  0
 26 72  1  0
 28 73  1  0
 28 74  1  0
 28 75  1  0
 29 76  1  0
 29 77  1  0
 30 78  1  0
 30 79  1  0
 32 80  1  0
 32 81  1  0
 32 82  1  0
M  END
>  <meeko>  (5) 
{"is_sidechain": [false], "intermolecular_energy": 2.731, "internal_energy": -0.839}

$$$$
EPH_relaxed_0001_pdb2pqr_Repair_314_r2_0001_out
     RDKit          3D

 82 86  0  0  0  0  0  0  0  0999 V2000
    4.2470   17.3280   -0.5250 C   0  0  0  0  0  0  0  0  0  0  0  0
    3.0230   17.7900   -1.3200 C   0  0  2  0  0  0  0  0  0  0  0  0
    2.4790   19.1420   -0.8160 C   0  0  0  0  0  0  0  0  0  0  0  0
    1.4690   19.0110    0.3280 C   0  0  0  0  0  0  0  0  0  0  0  0
    0.2550   19.8590    0.0950 C   0  0  2  0  0  0  0  0  0  0  0  0
   -0.4840   20.1830    1.2800 O   0  0  0  0  0  0  0  0  0  0  0  0
   -1.1630   19.3660    0.3120 C   0  0  0  0  0  0  0  0  0  0  0  0
   -1.4420   17.9720    0.7810 C   0  0  0  0  0  0  0  0  0  0  0  0
   -2.2810   20.0690   -0.3930 C   0  0  0  0  0  0  0  0  0  0  0  0
    1.9290   16.7310   -1.2530 C   0  0  1  0  0  0  0  0  0  0  0  0
    0.5890   17.2160   -1.8680 C   0  0  0  0  0  0  0  0  0  0  0  0
   -0.0660   15.9830   -2.5410 C   0  0  0  0  0  0  0  0  0  0  0  0
    0.7420   14.7740   -2.0130 C   0  0  1  0  0  0  0  0  0  0  0  0
    0.1450   14.4790   -0.6010 C   0  0  0  0  0  0  0  0  0  0  0  0
    0.7470   13.4980   -2.9170 C   0  0  2  0  0  0  0  0  0  0  0  0
   -0.6310   12.8490   -3.1370 C   0  0  0  0  0  0  0  0  0  0  0  0
   -1.0080   11.8010   -2.1430 C   0  0  0  0  0  0  0  0  0  0  0  0
   -0.1650   11.1950   -1.2870 C   0  0  0  0  0  0  0  0  0  0  0  0
    1.3420   11.4800   -1.3320 C   0  0  1  0  0  0  0  0  0  0  0  0
    2.1240   10.1410   -1.2730 C   0  0  0  0  0  0  0  0  0  0  0  0
    1.7280    9.2850   -0.0740 C   0  0  0  0  0  0  0  0  0  0  0  0
    0.2330    8.9740   -0.0960 C   0  0  2  0  0  0  0  0  0  0  0  0
   -0.0460    8.1310   -1.2180 O   0  0  0  0  0  0  0  0  0  0  0  0
   -0.6560   10.2470   -0.1650 C   0  0  0  0  0  0  0  0  0  0  0  0
   -0.5810   11.0080    1.1810 C   0  0  0  0  0  0  0  0  0  0  0  0
   -2.1310    9.7910   -0.3250 C   0  0  0  0  0  0  0  0  0  0  0  0
    1.8350   12.4230   -2.5130 C   0  0  1  0  0  0  0  0  0  0  0  0
    2.1160   11.5730   -3.7900 C   0  0  0  0  0  0  0  0  0  0  0  0
    3.2060   13.0810   -2.1070 C   0  0  0  0  0  0  0  0  0  0  0  0
    3.1350   14.4030   -1.3180 C   0  0  0  0  0  0  0  0  0  0  0  0
    2.1860   15.3960   -1.9960 C   0  0  2  0  0  0  0  0  0  0  0  0
    2.7720   15.7290   -3.4100 C   0  0  0  0  0  0  0  0  0  0  0  0
    4.0363   17.4075    0.5517 H   0  0  0  0  0  0  0  0  0  0  0  0
    4.4749   16.2820   -0.7777 H   0  0  0  0  0  0  0  0  0  0  0  0
    5.1093   17.9625   -0.7777 H   0  0  0  0  0  0  0  0  0  0  0  0
    3.3408   17.9305   -2.3637 H   0  0  0  0  0  0  0  0  0  0  0  0
    3.3267   19.7478   -0.4633 H   0  0  0  0  0  0  0  0  0  0  0  0
    1.9507   19.6106   -1.6594 H   0  0  0  0  0  0  0  0  0  0  0  0
    1.1585   17.9590    0.4108 H   0  0  0  0  0  0  0  0  0  0  0  0
    1.9537   19.3528    1.2544 H   0  0  0  0  0  0  0  0  0  0  0  0
    0.7391   20.3614   -0.7554 H   0  0  0  0  0  0  0  0  0  0  0  0
   -1.4466   17.9492    1.8808 H   0  0  0  0  0  0  0  0  0  0  0  0
   -2.4229   17.6475    0.4034 H   0  0  0  0  0  0  0  0  0  0  0  0
   -0.6615   17.2950    0.4034 H   0  0  0  0  0  0  0  0  0  0  0  0
   -2.9683   20.5012    0.3492 H   0  0  0  0  0  0  0  0  0  0  0  0
   -1.8700   20.8715   -1.0231 H   0  0  0  0  0  0  0  0  0  0  0  0
   -2.8262   19.3509   -1.0231 H   0  0  0  0  0  0  0  0  0  0  0  0
    1.9050   16.5590   -0.1668 H   0  0  0  0  0  0  0  0  0  0  0  0
   -0.0685   17.6113   -1.0797 H   0  0  0  0  0  0  0  0  0  0  0  0
    0.7579   18.0213   -2.5980 H   0  0  0  0  0  0  0  0  0  0  0  0
   -1.1239   15.8991   -2.2516 H   0  0  0  0  0  0  0  0  0  0  0  0
   -0.0482   16.0488   -3.6389 H   0  0  0  0  0  0  0  0  0  0  0  0
    0.8457   14.8253    0.1730 H   0  0  0  0  0  0  0  0  0  0  0  0
   -0.8136   15.0071   -0.4905 H   0  0  0  0  0  0  0  0  0  0  0  0
   -0.0178   13.3967   -0.4905 H   0  0  0  0  0  0  0  0  0  0  0  0
    1.0457   13.9022   -3.8954 H   0  0  0  0  0  0  0  0  0  0  0  0
   -1.3909   13.6433   -3.0983 H   0  0  0  0  0  0  0  0  0  0  0  0
   -0.5756   12.3395   -4.1103 H   0  0  0  0  0  0  0  0  0  0  0  0
   -2.0650   11.4984   -2.1073 H   0  0  0  0  0  0  0  0  0  0  0  0
    1.5643   12.0822   -0.4387 H   0  0  0  0  0  0  0  0  0  0  0  0
    1.9219    9.5737   -2.1935 H   0  0  0  0  0  0  0  0  0  0  0  0
    3.1925   10.3823   -1.1728 H   0  0  0  0  0  0  0  0  0  0  0  0
    2.2926    8.3414   -0.1031 H   0  0  0  0  0  0  0  0  0  0  0  0
    1.9574    9.8420    0.8464 H   0  0  0  0  0  0  0  0  0  0  0  0
   -0.0134    8.4701    0.8502 H   0  0  0  0  0  0  0  0  0  0  0  0
    0.7950    7.9630   -1.6760 H   0  0  0  0  0  0  0  0  0  0  0  0
   -0.6517   10.2909    2.0121 H   0  0  0  0  0  0  0  0  0  0  0  0
    0.3748   11.5489    1.2437 H   0  0  0  0  0  0  0  0  0  0  0  0
   -1.4128   11.7250    1.2437 H   0  0  0  0  0  0  0  0  0  0  0  0
   -2.5816    9.6517    0.6688 H   0  0  0  0  0  0  0  0  0  0  0  0
   -2.6937   10.5571   -0.8786 H   0  0  0  0  0  0  0  0  0  0  0  0
   -2.1631    8.8410   -0.8786 H   0  0  0  0  0  0  0  0  0  0  0  0
    2.4486   10.5669   -3.4949 H   0  0  0  0  0  0  0  0  0  0  0  0
    1.1960   11.4944   -4.3879 H   0  0  0  0  0  0  0  0  0  0  0  0
    2.9015   12.0582   -4.3879 H   0  0  0  0  0  0  0  0  0  0  0  0
    3.7543   12.3540   -1.4898 H   0  0  0  0  0  0  0  0  0  0  0  0
    3.6946   13.3391   -3.0582 H   0  0  0  0  0  0  0  0  0  0  0  0
    2.7720   14.1957   -0.3005 H   0  0  0  0  0  0  0  0  0  0  0  0
    4.1412   14.8462   -1.2850 H   0  0  0  0  0  0  0  0  0  0  0  0
    3.7231   16.2695   -3.2947 H   0  0  0  0  0  0  0  0  0  0  0  0
    2.9459   14.7948   -3.9641 H   0  0  0  0  0  0  0  0  0  0  0  0
    2.0585   16.3566   -3.9641 H   0  0  0  0  0  0  0  0  0  0  0  0
  1  2  1  0
  2  3  1  0
  3  4  1  0
  4  5  1  0
  5  6  1  0
  6  7  1  0
  7  8  1  0
  7  9  1  0
  2 10  1  0
 10 11  1  0
 11 12  1  0
 12 13  1  0
 13 14  1  1
 13 15  1  0
 15 16  1  0
 16 17  1  0
 17 18  2  0
 18 19  1  0
 19 20  1  0
 20 21  1  0
 21 22  1  0
 22 23  1  0
 22 24  1  0
 24 25  1  0
 24 26  1  0
 19 27  1  0
 27 28  1  6
 27 29  1  0
 29 30  1  0
 30 31  1  0
 31 32  1  6
  7  5  1  0
 31 10  1  0
 31 13  1  0
 27 15  1  0
 24 18  1  0
  1 33  1  0
  1 34  1  0
  1 35  1  0
  2 36  1  6
  3 37  1  0
  3 38  1  0
  4 39  1  0
  4 40  1  0
  5 41  1  6
  8 42  1  0
  8 43  1  0
  8 44  1  0
  9 45  1  0
  9 46  1  0
  9 47  1  0
 10 48  1  1
 11 49  1  0
 11 50  1  0
 12 51  1  0
 12 52  1  0
 14 53  1  0
 14 54  1  0
 14 55  1  0
 15 56  1  6
 16 57  1  0
 16 58  1  0
 17 59  1  0
 19 60  1  1
 20 61  1  0
 20 62  1  0
 21 63  1  0
 21 64  1  0
 22 65  1  1
 23 66  1  0
 25 67  1  0
 25 68  1  0
 25 69  1  0
 26 70  1  0
 26 71  1  0
 26 72  1  0
 28 73  1  0
 28 74  1  0
 28 75  1  0
 29 76  1  0
 29 77  1  0
 30 78  1  0
 30 79  1  0
 32 80  1  0
 32 81  1  0
 32 82  1  0
M  END
>  <meeko>  (6) 
{"is_sidechain": [false], "intermolecular_energy": 2.731, "internal_energy": -0.839}

$$$$
EPH_relaxed_0001_pdb2pqr_Repair_314_r2_0001_out
     RDKit          3D

 82 86  0  0  0  0  0  0  0  0999 V2000
   -0.5210   16.4250   -5.8390 C   0  0  0  0  0  0  0  0  0  0  0  0
    0.7300   15.8050   -6.4670 C   0  0  2  0  0  0  0  0  0  0  0  0
    0.6180   15.6990   -8.0010 C   0  0  0  0  0  0  0  0  0  0  0  0
    1.6690   16.5210   -8.7530 C   0  0  0  0  0  0  0  0  0  0  0  0
    1.5640   16.3310  -10.2360 C   0  0  2  0  0  0  0  0  0  0  0  0
    0.9240   15.1130  -10.6400 O   0  0  0  0  0  0  0  0  0  0  0  0
    2.3100   15.2490  -10.9950 C   0  0  0  0  0  0  0  0  0  0  0  0
    3.2160   14.2860  -10.2940 C   0  0  0  0  0  0  0  0  0  0  0  0
    2.5400   15.4350  -12.4630 C   0  0  0  0  0  0  0  0  0  0  0  0
    0.9840   14.4270   -5.8680 C   0  0  1  0  0  0  0  0  0  0  0  0
    2.2470   13.7430   -6.4550 C   0  0  0  0  0  0  0  0  0  0  0  0
    2.8900   12.9260   -5.3050 C   0  0  0  0  0  0  0  0  0  0  0  0
    1.8100   12.8960   -4.1980 C   0  0  1  0  0  0  0  0  0  0  0  0
    0.8290   11.7590   -4.6250 C   0  0  0  0  0  0  0  0  0  0  0  0
    2.3260   12.6940   -2.7360 C   0  0  2  0  0  0  0  0  0  0  0  0
    3.0430   11.3580   -2.4750 C   0  0  0  0  0  0  0  0  0  0  0  0
    2.1640   10.2400   -2.0200 C   0  0  0  0  0  0  0  0  0  0  0  0
    0.9080   10.3720   -1.5560 C   0  0  0  0  0  0  0  0  0  0  0  0
    0.2830   11.7590   -1.3600 C   0  0  1  0  0  0  0  0  0  0  0  0
   -0.4090   11.8240    0.0270 C   0  0  0  0  0  0  0  0  0  0  0  0
   -1.4160   10.6960    0.2320 C   0  0  0  0  0  0  0  0  0  0  0  0
   -0.7440    9.3330    0.0870 C   0  0  2  0  0  0  0  0  0  0  0  0
    0.1800    9.1570    1.1650 O   0  0  0  0  0  0  0  0  0  0  0  0
   -0.0060    9.1550   -1.2690 C   0  0  0  0  0  0  0  0  0  0  0  0
   -1.0410    9.0440   -2.4160 C   0  0  0  0  0  0  0  0  0  0  0  0
    0.7450    7.7970   -1.2300 C   0  0  0  0  0  0  0  0  0  0  0  0
    1.2450   12.9970   -1.6200 C   0  0  1  0  0  0  0  0  0  0  0  0
    2.0330   13.3410   -0.3190 C   0  0  0  0  0  0  0  0  0  0  0  0
    0.3740   14.2640   -1.9590 C   0  0  0  0  0  0  0  0  0  0  0  0
   -0.0020   14.4720   -3.4380 C   0  0  0  0  0  0  0  0  0  0  0  0
    1.2300   14.3500   -4.3400 C   0  0  2  0  0  0  0  0  0  0  0  0
    2.2250   15.4940   -3.9480 C   0  0  0  0  0  0  0  0  0  0  0  0
   -0.4394   16.3846   -4.7428 H   0  0  0  0  0  0  0  0  0  0  0  0
   -0.6124   17.4727   -6.1615 H   0  0  0  0  0  0  0  0  0  0  0  0
   -1.4100   15.8632   -6.1615 H   0  0  0  0  0  0  0  0  0  0  0  0
    1.5768   16.4702   -6.2425 H   0  0  0  0  0  0  0  0  0  0  0  0
    0.7343   14.6428   -8.2856 H   0  0  0  0  0  0  0  0  0  0  0  0
   -0.3663   16.1029   -8.2803 H   0  0  0  0  0  0  0  0  0  0  0  0
    1.5233   17.5859   -8.5188 H   0  0  0  0  0  0  0  0  0  0  0  0
    2.6646   16.1798   -8.4331 H   0  0  0  0  0  0  0  0  0  0  0  0
    1.4768   17.4162  -10.3930 H   0  0  0  0  0  0  0  0  0  0  0  0
    3.1051   14.4039   -9.2060 H   0  0  0  0  0  0  0  0  0  0  0  0
    2.9503   13.2577  -10.5804 H   0  0  0  0  0  0  0  0  0  0  0  0
    4.2586   14.4886  -10.5804 H   0  0  0  0  0  0  0  0  0  0  0  0
    3.3868   16.1198  -12.6176 H   0  0  0  0  0  0  0  0  0  0  0  0
    2.7658   14.4625  -12.9249 H   0  0  0  0  0  0  0  0  0  0  0  0
    1.6363   15.8593  -12.9249 H   0  0  0  0  0  0  0  0  0  0  0  0
    0.0318   13.9382   -6.1216 H   0  0  0  0  0  0  0  0  0  0  0  0
    1.9658   13.0752   -7.2826 H   0  0  0  0  0  0  0  0  0  0  0  0
    2.9518   14.4891   -6.8508 H   0  0  0  0  0  0  0  0  0  0  0  0
    3.1311   11.9065   -5.6403 H   0  0  0  0  0  0  0  0  0  0  0  0
    3.8342   13.3689   -4.9553 H   0  0  0  0  0  0  0  0  0  0  0  0
    0.4133   11.2772   -3.7277 H   0  0  0  0  0  0  0  0  0  0  0  0
    0.0112   12.1861   -5.2241 H   0  0  0  0  0  0  0  0  0  0  0  0
    1.3713   11.0126   -5.2241 H   0  0  0  0  0  0  0  0  0  0  0  0
    3.1009   13.4701   -2.6504 H   0  0  0  0  0  0  0  0  0  0  0  0
    3.5323   11.0467   -3.4097 H   0  0  0  0  0  0  0  0  0  0  0  0
    3.7465   11.5465   -1.6506 H   0  0  0  0  0  0  0  0  0  0  0  0
    2.5784    9.2222   -2.0682 H   0  0  0  0  0  0  0  0  0  0  0  0
   -0.4668   11.8693   -2.1573 H   0  0  0  0  0  0  0  0  0  0  0  0
    0.3615   11.7553    0.8090 H   0  0  0  0  0  0  0  0  0  0  0  0
   -0.9579   12.7757    0.0820 H   0  0  0  0  0  0  0  0  0  0  0  0
   -1.8492   10.7786    1.2397 H   0  0  0  0  0  0  0  0  0  0  0  0
   -2.2022   10.7834   -0.5324 H   0  0  0  0  0  0  0  0  0  0  0  0
   -1.5361    8.5703    0.1150 H   0  0  0  0  0  0  0  0  0  0  0  0
    0.6940    8.3520    0.9830 H   0  0  0  0  0  0  0  0  0  0  0  0
   -2.0496    8.9358   -1.9906 H   0  0  0  0  0  0  0  0  0  0  0  0
   -1.0000    9.9517   -3.0360 H   0  0  0  0  0  0  0  0  0  0  0  0
   -0.8084    8.1656   -3.0360 H   0  0  0  0  0  0  0  0  0  0  0  0
    0.9098    7.4990   -0.1840 H   0  0  0  0  0  0  0  0  0  0  0  0
    0.1427    7.0302   -1.7392 H   0  0  0  0  0  0  0  0  0  0  0  0
    1.7147    7.8995   -1.7392 H   0  0  0  0  0  0  0  0  0  0  0  0
    1.4253   13.0757    0.5587 H   0  0  0  0  0  0  0  0  0  0  0  0
    2.9741   12.7718   -0.2990 H   0  0  0  0  0  0  0  0  0  0  0  0
    2.2554   14.4181   -0.2990 H   0  0  0  0  0  0  0  0  0  0  0  0
   -0.5614   14.1881   -1.3852 H   0  0  0  0  0  0  0  0  0  0  0  0
    1.0057   15.1260   -1.6984 H   0  0  0  0  0  0  0  0  0  0  0  0
   -0.7399   13.7110   -3.7320 H   0  0  0  0  0  0  0  0  0  0  0  0
   -0.4227   15.4818   -3.5540 H   0  0  0  0  0  0  0  0  0  0  0  0
    2.2876   15.5660   -2.8521 H   0  0  0  0  0  0  0  0  0  0  0  0
    3.2208   15.2704   -4.3583 H   0  0  0  0  0  0  0  0  0  0  0  0
    1.8655   16.4492   -4.3583 H   0  0  0  0  0  0  0  0  0  0  0  0
  1  2  1  0
  2  3  1  0
  3  4  1  0
  4  5  1  0
  5  6  1  0
  6  7  1  0
  7  8  1  0
  7  9  1  0
  2 10  1  0
 10 11  1  0
 11 12  1  0
 12 13  1  0
 13 14  1  6
 13 15  1  0
 15 16  1  0
 16 17  1  0
 17 18  2  0
 18 19  1  0
 19 20  1  0
 20 21  1  0
 21 22  1  0
 22 23  1  0
 22 24  1  0
 24 25  1  0
 24 26  1  0
 19 27  1  0
 27 28  1  1
 27 29  1  0
 29 30  1  0
 30 31  1  0
 31 32  1  1
  7  5  1  0
 31 10  1  0
 31 13  1  0
 27 15  1  0
 24 18  1  0
  1 33  1  0
  1 34  1  0
  1 35  1  0
  2 36  1  6
  3 37  1  0
  3 38  1  0
  4 39  1  0
  4 40  1  0
  5 41  1  6
  8 42  1  0
  8 43  1  0
  8 44  1  0
  9 45  1  0
  9 46  1  0
  9 47  1  0
 10 48  1  1
 11 49  1  0
 11 50  1  0
 12 51  1  0
 12 52  1  0
 14 53  1  0
 14 54  1  0
 14 55  1  0
 15 56  1  1
 16 57  1  0
 16 58  1  0
 17 59  1  0
 19 60  1  6
 20 61  1  0
 20 62  1  0
 21 63  1  0
 21 64  1  0
 22 65  1  1
 23 66  1  0
 25 67  1  0
 25 68  1  0
 25 69  1  0
 26 70  1  0
 26 71  1  0
 26 72  1  0
 28 73  1  0
 28 74  1  0
 28 75  1  0
 29 76  1  0
 29 77  1  0
 30 78  1  0
 30 79  1  0
 32 80  1  0
 32 81  1  0
 32 82  1  0
M  END
>  <meeko>  (7) 
{"is_sidechain": [false], "intermolecular_energy": 2.731, "internal_energy": -0.839}

$$$$
EPH_relaxed_0001_pdb2pqr_Repair_314_r2_0001_out
     RDKit          3D

 82 86  0  0  0  0  0  0  0  0999 V2000
    0.0800   18.5370   -2.7810 C   0  0  0  0  0  0  0  0  0  0  0  0
    0.9210   17.6910   -1.8220 C   0  0  2  0  0  0  0  0  0  0  0  0
    2.3650   18.2180   -1.6970 C   0  0  0  0  0  0  0  0  0  0  0  0
    2.5430   19.2740   -0.6020 C   0  0  0  0  0  0  0  0  0  0  0  0
    3.6870   18.9420    0.3070 C   0  0  2  0  0  0  0  0  0  0  0  0
    3.3590   18.0520    1.3820 O   0  0  0  0  0  0  0  0  0  0  0  0
    3.7570   19.3810    1.7580 C   0  0  0  0  0  0  0  0  0  0  0  0
    2.6630   20.1890    2.3820 C   0  0  0  0  0  0  0  0  0  0  0  0
    5.0960   19.4430    2.4230 C   0  0  0  0  0  0  0  0  0  0  0  0
    0.9350   16.2390   -2.2840 C   0  0  1  0  0  0  0  0  0  0  0  0
    1.9260   15.9940   -3.4530 C   0  0  0  0  0  0  0  0  0  0  0  0
    2.5130   14.5730   -3.2510 C   0  0  0  0  0  0  0  0  0  0  0  0
    1.6050   13.9250   -2.1790 C   0  0  1  0  0  0  0  0  0  0  0  0
    0.3480   13.4320   -2.9620 C   0  0  0  0  0  0  0  0  0  0  0  0
    2.2460   12.7770   -1.3340 C   0  0  2  0  0  0  0  0  0  0  0  0
    2.6740   11.5360   -2.1370 C   0  0  0  0  0  0  0  0  0  0  0  0
    1.6330   10.4740   -2.2730 C   0  0  0  0  0  0  0  0  0  0  0  0
    0.5080   10.3830   -1.5390 C   0  0  0  0  0  0  0  0  0  0  0  0
    0.2400   11.3570   -0.3840 C   0  0  1  0  0  0  0  0  0  0  0  0
   -0.2350   10.5650    0.8620 C   0  0  0  0  0  0  0  0  0  0  0  0
   -1.4340    9.6700    0.5640 C   0  0  0  0  0  0  0  0  0  0  0  0
   -1.1100    8.6770   -0.5490 C   0  0  2  0  0  0  0  0  0  0  0  0
   -0.1170    7.7610   -0.0750 O   0  0  0  0  0  0  0  0  0  0  0  0
   -0.6100    9.3590   -1.8530 C   0  0  0  0  0  0  0  0  0  0  0  0
   -1.7830   10.1130   -2.5280 C   0  0  0  0  0  0  0  0  0  0  0  0
   -0.1840    8.2420   -2.8440 C   0  0  0  0  0  0  0  0  0  0  0  0
    1.4140   12.3750   -0.0490 C   0  0  1  0  0  0  0  0  0  0  0  0
    2.4200   11.7190    0.9450 C   0  0  0  0  0  0  0  0  0  0  0  0
    0.8130   13.6290    0.6900 C   0  0  0  0  0  0  0  0  0  0  0  0
    0.3050   14.7810   -0.1980 C   0  0  0  0  0  0  0  0  0  0  0  0
    1.3520   15.1660   -1.2480 C   0  0  2  0  0  0  0  0  0  0  0  0
    2.6210   15.6870   -0.4900 C   0  0  0  0  0  0  0  0  0  0  0  0
   -0.5796   19.2005   -2.2025 H   0  0  0  0  0  0  0  0  0  0  0  0
    0.7445   19.1425   -3.4149 H   0  0  0  0  0  0  0  0  0  0  0  0
   -0.5294   17.8761   -3.4149 H   0  0  0  0  0  0  0  0  0  0  0  0
    0.4568   17.7595   -0.8271 H   0  0  0  0  0  0  0  0  0  0  0  0
    3.0262   17.3685   -1.4709 H   0  0  0  0  0  0  0  0  0  0  0  0
    2.6144   18.7015   -2.6531 H   0  0  0  0  0  0  0  0  0  0  0  0
    2.7343   20.2488   -1.0745 H   0  0  0  0  0  0  0  0  0  0  0  0
    1.6231   19.3019    0.0005 H   0  0  0  0  0  0  0  0  0  0  0  0
    4.4025   19.0251   -0.5244 H   0  0  0  0  0  0  0  0  0  0  0  0
    2.7428   20.1301    3.4775 H   0  0  0  0  0  0  0  0  0  0  0  0
    2.7546   21.2379    2.0636 H   0  0  0  0  0  0  0  0  0  0  0  0
    1.6874   19.7930    2.0636 H   0  0  0  0  0  0  0  0  0  0  0  0
    4.9637   19.4369    3.5150 H   0  0  0  0  0  0  0  0  0  0  0  0
    5.6959   18.5717    2.1214 H   0  0  0  0  0  0  0  0  0  0  0  0
    5.6128   20.3660    2.1214 H   0  0  0  0  0  0  0  0  0  0  0  0
   -0.1273   16.1182   -2.5428 H   0  0  0  0  0  0  0  0  0  0  0  0
    1.3977   16.0523   -4.4161 H   0  0  0  0  0  0  0  0  0  0  0  0
    2.7223   16.7529   -3.4616 H   0  0  0  0  0  0  0  0  0  0  0  0
    2.4756   14.0003   -4.1894 H   0  0  0  0  0  0  0  0  0  0  0  0
    3.5690   14.5974   -2.9441 H   0  0  0  0  0  0  0  0  0  0  0  0
   -0.4316   13.1262   -2.2488 H   0  0  0  0  0  0  0  0  0  0  0  0
   -0.0331   14.2473   -3.5945 H   0  0  0  0  0  0  0  0  0  0  0  0
    0.6228   12.5750   -3.5945 H   0  0  0  0  0  0  0  0  0  0  0  0
    3.1788   13.2393   -0.9786 H   0  0  0  0  0  0  0  0  0  0  0  0
    2.9570   11.8660   -3.1475 H   0  0  0  0  0  0  0  0  0  0  0  0
    3.5020   11.0802   -1.5744 H   0  0  0  0  0  0  0  0  0  0  0  0
    1.7994    9.7007   -3.0375 H   0  0  0  0  0  0  0  0  0  0  0  0
   -0.5627   12.0249   -0.7297 H   0  0  0  0  0  0  0  0  0  0  0  0
    0.5946    9.9363    1.2176 H   0  0  0  0  0  0  0  0  0  0  0  0
   -0.5447   11.2954    1.6239 H   0  0  0  0  0  0  0  0  0  0  0  0
   -1.7040    9.1148    1.4744 H   0  0  0  0  0  0  0  0  0  0  0  0
   -2.2720   10.3030    0.2369 H   0  0  0  0  0  0  0  0  0  0  0  0
   -2.0432    8.1545   -0.8061 H   0  0  0  0  0  0  0  0  0  0  0  0
    0.7250    7.9950   -0.5000 H   0  0  0  0  0  0  0  0  0  0  0  0
   -2.4407   10.5358   -1.7543 H   0  0  0  0  0  0  0  0  0  0  0  0
   -1.3849   10.9248   -3.1545 H   0  0  0  0  0  0  0  0  0  0  0  0
   -2.3562    9.4138   -3.1545 H   0  0  0  0  0  0  0  0  0  0  0  0
    0.1524    7.3598   -2.2796 H   0  0  0  0  0  0  0  0  0  0  0  0
   -1.0405    7.9674   -3.4772 H   0  0  0  0  0  0  0  0  0  0  0  0
    0.6379    8.6075   -3.4772 H   0  0  0  0  0  0  0  0  0  0  0  0
    2.1027   11.9259    1.9777 H   0  0  0  0  0  0  0  0  0  0  0  0
    2.4430   10.6318    0.7793 H   0  0  0  0  0  0  0  0  0  0  0  0
    3.4241   12.1364    0.7793 H   0  0  0  0  0  0  0  0  0  0  0  0
   -0.0333   13.2814    1.3007 H   0  0  0  0  0  0  0  0  0  0  0  0
    1.6504   14.0545    1.2625 H   0  0  0  0  0  0  0  0  0  0  0  0
   -0.6162   14.4630   -0.7081 H   0  0  0  0  0  0  0  0  0  0  0  0
    0.1094   15.6557    0.4397 H   0  0  0  0  0  0  0  0  0  0  0  0
    2.4539   15.6184    0.5951 H   0  0  0  0  0  0  0  0  0  0  0  0
    3.4910   15.0733   -0.7665 H   0  0  0  0  0  0  0  0  0  0  0  0
    2.8088   16.7350   -0.7665 H   0  0  0  0  0  0  0  0  0  0  0  0
  1  2  1  0
  2  3  1  0
  3  4  1  0
  4  5  1  0
  5  6  1  0
  6  7  1  0
  7  8  1  0
  7  9  1  0
  2 10  1  0
 10 11  1  0
 11 12  1  0
 12 13  1  0
 13 14  1  6
 13 15  1  0
 15 16  1  0
 16 17  1  0
 17 18  2  0
 18 19  1  0
 19 20  1  0
 20 21  1  0
 21 22  1  0
 22 23  1  0
 22 24  1  0
 24 25  1  0
 24 26  1  0
 19 27  1  0
 27 28  1  1
 27 29  1  0
 29 30  1  0
 30 31  1  0
 31 32  1  1
  7  5  1  0
 31 10  1  0
 31 13  1  0
 27 15  1  0
 24 18  1  0
  1 33  1  0
  1 34  1  0
  1 35  1  0
  2 36  1  1
  3 37  1  0
  3 38  1  0
  4 39  1  0
  4 40  1  0
  5 41  1  6
  8 42  1  0
  8 43  1  0
  8 44  1  0
  9 45  1  0
  9 46  1  0
  9 47  1  0
 10 48  1  6
 11 49  1  0
 11 50  1  0
 12 51  1  0
 12 52  1  0
 14 53  1  0
 14 54  1  0
 14 55  1  0
 15 56  1  1
 16 57  1  0
 16 58  1  0
 17 59  1  0
 19 60  1  6
 20 61  1  0
 20 62  1  0
 21 63  1  0
 21 64  1  0
 22 65  1  6
 23 66  1  0
 25 67  1  0
 25 68  1  0
 25 69  1  0
 26 70  1  0
 26 71  1  0
 26 72  1  0
 28 73  1  0
 28 74  1  0
 28 75  1  0
 29 76  1  0
 29 77  1  0
 30 78  1  0
 30 79  1  0
 32 80  1  0
 32 81  1  0
 32 82  1  0
M  END
>  <meeko>  (8) 
{"is_sidechain": [false], "intermolecular_energy": 2.731, "internal_energy": -0.839}

$$$$
EPH_relaxed_0001_pdb2pqr_Repair_314_r2_0001_out
     RDKit          3D

 82 86  0  0  0  0  0  0  0  0999 V2000
    0.4550    9.1640   -2.6870 C   0  0  0  0  0  0  0  0  0  0  0  0
    1.2430   10.3510   -3.2490 C   0  0  2  0  0  0  0  0  0  0  0  0
    2.7170   10.3370   -2.7940 C   0  0  0  0  0  0  0  0  0  0  0  0
    3.7050   10.7290   -3.8960 C   0  0  0  0  0  0  0  0  0  0  0  0
    5.0980   10.8770   -3.3640 C   0  0  2  0  0  0  0  0  0  0  0  0
    5.7590   12.0910   -3.7450 O   0  0  0  0  0  0  0  0  0  0  0  0
    6.3340   10.8720   -4.2440 C   0  0  0  0  0  0  0  0  0  0  0  0
    6.2340   10.7150   -5.7290 C   0  0  0  0  0  0  0  0  0  0  0  0
    7.6530   10.5300   -3.6230 C   0  0  0  0  0  0  0  0  0  0  0  0
    0.5810   11.6580   -2.8310 C   0  0  1  0  0  0  0  0  0  0  0  0
   -0.6840   11.4360   -1.9610 C   0  0  0  0  0  0  0  0  0  0  0  0
   -0.7310   12.5970   -0.9340 C   0  0  0  0  0  0  0  0  0  0  0  0
    0.3070   13.6190   -1.4540 C   0  0  1  0  0  0  0  0  0  0  0  0
   -0.4360   14.4120   -2.5740 C   0  0  0  0  0  0  0  0  0  0  0  0
    0.9290   14.5750   -0.3850 C   0  0  2  0  0  0  0  0  0  0  0  0
   -0.0710   15.5120    0.3140 C   0  0  0  0  0  0  0  0  0  0  0  0
   -0.2730   16.8360   -0.3450 C   0  0  0  0  0  0  0  0  0  0  0  0
    0.5270   17.3720   -1.2850 C   0  0  0  0  0  0  0  0  0  0  0  0
    1.8250   16.6700   -1.7080 C   0  0  1  0  0  0  0  0  0  0  0  0
    2.9800   17.7040   -1.7550 C   0  0  0  0  0  0  0  0  0  0  0  0
    2.6540   18.9070   -2.6340 C   0  0  0  0  0  0  0  0  0  0  0  0
    1.3910   19.6120   -2.1480 C   0  0  2  0  0  0  0  0  0  0  0  0
    1.6520   20.1940   -0.8670 O   0  0  0  0  0  0  0  0  0  0  0  0
    0.1610   18.6670   -2.0510 C   0  0  0  0  0  0  0  0  0  0  0  0
   -0.3080   18.2750   -3.4740 C   0  0  0  0  0  0  0  0  0  0  0  0
   -1.0080   19.4680   -1.4150 C   0  0  0  0  0  0  0  0  0  0  0  0
    2.2060   15.3650   -0.8860 C   0  0  1  0  0  0  0  0  0  0  0  0
    3.0170   15.7550    0.3870 C   0  0  0  0  0  0  0  0  0  0  0  0
    3.1590   14.4670   -1.7610 C   0  0  0  0  0  0  0  0  0  0  0  0
    2.4850   13.4580   -2.7100 C   0  0  0  0  0  0  0  0  0  0  0  0
    1.4210   12.6390   -1.9740 C   0  0  2  0  0  0  0  0  0  0  0  0
    2.1420   11.8130   -0.8550 C   0  0  0  0  0  0  0  0  0  0  0  0
    0.4768    9.1969   -1.5877 H   0  0  0  0  0  0  0  0  0  0  0  0
   -0.5872    9.2180   -3.0348 H   0  0  0  0  0  0  0  0  0  0  0  0
    0.9094    8.2246   -3.0348 H   0  0  0  0  0  0  0  0  0  0  0  0
    1.2354   10.2646   -4.3456 H   0  0  0  0  0  0  0  0  0  0  0  0
    2.8295   11.0443   -1.9591 H   0  0  0  0  0  0  0  0  0  0  0  0
    2.9538    9.3030   -2.5029 H   0  0  0  0  0  0  0  0  0  0  0  0
    3.7008    9.9497   -4.6724 H   0  0  0  0  0  0  0  0  0  0  0  0
    3.3908   11.6988   -4.3094 H   0  0  0  0  0  0  0  0  0  0  0  0
    4.8364   10.3139   -2.4560 H   0  0  0  0  0  0  0  0  0  0  0  0
    5.6567    9.8086   -5.9638 H   0  0  0  0  0  0  0  0  0  0  0  0
    5.7284   11.5930   -6.1573 H   0  0  0  0  0  0  0  0  0  0  0  0
    7.2434   10.6280   -6.1573 H   0  0  0  0  0  0  0  0  0  0  0  0
    7.5596   10.5542   -2.5272 H   0  0  0  0  0  0  0  0  0  0  0  0
    7.9587    9.5229   -3.9428 H   0  0  0  0  0  0  0  0  0  0  0  0
    8.4096   11.2617   -3.9428 H   0  0  0  0  0  0  0  0  0  0  0  0
    0.3907   12.0931   -3.8232 H   0  0  0  0  0  0  0  0  0  0  0  0
   -1.5850   11.4518   -2.5918 H   0  0  0  0  0  0  0  0  0  0  0  0
   -0.6475   10.4610   -1.4530 H   0  0  0  0  0  0  0  0  0  0  0  0
   -1.7348   13.0456   -0.9005 H   0  0  0  0  0  0  0  0  0  0  0  0
   -0.5079   12.2590    0.0887 H   0  0  0  0  0  0  0  0  0  0  0  0
   -1.1195   15.1415   -2.1150 H   0  0  0  0  0  0  0  0  0  0  0  0
    0.2993   14.9408   -3.1982 H   0  0  0  0  0  0  0  0  0  0  0  0
   -1.0115   13.7127   -3.1982 H   0  0  0  0  0  0  0  0  0  0  0  0
    1.2708   13.8715    0.3885 H   0  0  0  0  0  0  0  0  0  0  0  0
   -1.0441   15.0008    0.3548 H   0  0  0  0  0  0  0  0  0  0  0  0
    0.3558   15.7275    1.3047 H   0  0  0  0  0  0  0  0  0  0  0  0
   -1.1502   17.4234   -0.0361 H   0  0  0  0  0  0  0  0  0  0  0  0
    1.6413   16.2701   -2.7161 H   0  0  0  0  0  0  0  0  0  0  0  0
    3.1779   18.0580   -0.7325 H   0  0  0  0  0  0  0  0  0  0  0  0
    3.8585   17.2031   -2.1878 H   0  0  0  0  0  0  0  0  0  0  0  0
    3.4958   19.6144   -2.6025 H   0  0  0  0  0  0  0  0  0  0  0  0
    2.4855   18.5547   -3.6624 H   0  0  0  0  0  0  0  0  0  0  0  0
    1.1369   20.3828   -2.8905 H   0  0  0  0  0  0  0  0  0  0  0  0
    2.4330   20.7660   -0.9580 H   0  0  0  0  0  0  0  0  0  0  0  0
   -1.1502   17.5711   -3.4016 H   0  0  0  0  0  0  0  0  0  0  0  0
   -0.6295   19.1769   -4.0156 H   0  0  0  0  0  0  0  0  0  0  0  0
    0.5225   17.7986   -4.0156 H   0  0  0  0  0  0  0  0  0  0  0  0
   -0.9337   19.4171   -0.3187 H   0  0  0  0  0  0  0  0  0  0  0  0
   -0.9514   20.5180   -1.7379 H   0  0  0  0  0  0  0  0  0  0  0  0
   -1.9668   19.0362   -1.7379 H   0  0  0  0  0  0  0  0  0  0  0  0
    2.4445   15.4797    1.2851 H   0  0  0  0  0  0  0  0  0  0  0  0
    3.9786   15.2208    0.3871 H   0  0  0  0  0  0  0  0  0  0  0  0
    3.2001   16.8397    0.3871 H   0  0  0  0  0  0  0  0  0  0  0  0
    3.7782   15.1382   -2.3743 H   0  0  0  0  0  0  0  0  0  0  0  0
    3.7190   13.8538   -1.0396 H   0  0  0  0  0  0  0  0  0  0  0  0
    2.0094   14.0048   -3.5375 H   0  0  0  0  0  0  0  0  0  0  0  0
    3.2532   12.7705   -3.0936 H   0  0  0  0  0  0  0  0  0  0  0  0
    1.8236   12.1778    0.1327 H   0  0  0  0  0  0  0  0  0  0  0  0
    1.8777   10.7500   -0.9560 H   0  0  0  0  0  0  0  0  0  0  0  0
    3.2310   11.9313   -0.9560 H   0  0  0  0  0  0  0  0  0  0  0  0
  1  2  1  0
  2  3  1  0
  3  4  1  0
  4  5  1  0
  5  6  1  0
  6  7  1  0
  7  8  1  0
  7  9  1  0
  2 10  1  0
 10 11  1  0
 11 12  1  0
 12 13  1  0
 13 14  1  6
 13 15  1  0
 15 16  1  0
 16 17  1  0
 17 18  2  0
 18 19  1  0
 19 20  1  0
 20 21  1  0
 21 22  1  0
 22 23  1  0
 22 24  1  0
 24 25  1  0
 24 26  1  0
 19 27  1  0
 27 28  1  1
 27 29  1  0
 29 30  1  0
 30 31  1  0
 31 32  1  1
  7  5  1  0
 31 10  1  0
 31 13  1  0
 27 15  1  0
 24 18  1  0
  1 33  1  0
  1 34  1  0
  1 35  1  0
  2 36  1  6
  3 37  1  0
  3 38  1  0
  4 39  1  0
  4 40  1  0
  5 41  1  1
  8 42  1  0
  8 43  1  0
  8 44  1  0
  9 45  1  0
  9 46  1  0
  9 47  1  0
 10 48  1  6
 11 49  1  0
 11 50  1  0
 12 51  1  0
 12 52  1  0
 14 53  1  0
 14 54  1  0
 14 55  1  0
 15 56  1  1
 16 57  1  0
 16 58  1  0
 17 59  1  0
 19 60  1  6
 20 61  1  0
 20 62  1  0
 21 63  1  0
 21 64  1  0
 22 65  1  6
 23 66  1  0
 25 67  1  0
 25 68  1  0
 25 69  1  0
 26 70  1  0
 26 71  1  0
 26 72  1  0
 28 73  1  0
 28 74  1  0
 28 75  1  0
 29 76  1  0
 29 77  1  0
 30 78  1  0
 30 79  1  0
 32 80  1  0
 32 81  1  0
 32 82  1  0
M  END
>  <meeko>  (9) 
{"is_sidechain": [false], "intermolecular_energy": 2.731, "internal_energy": -0.839}

$$$$
EPH_relaxed_0001_pdb2pqr_Repair_314_r2_0001_out
     RDKit          3D

 82 86  0  0  0  0  0  0  0  0999 V2000
    3.6550   11.6140   -4.6140 C   0  0  0  0  0  0  0  0  0  0  0  0
    2.5500   12.2450   -5.4660 C   0  0  2  0  0  0  0  0  0  0  0  0
    3.1190   13.1030   -6.6140 C   0  0  0  0  0  0  0  0  0  0  0  0
    2.2990   14.3620   -6.9070 C   0  0  0  0  0  0  0  0  0  0  0  0
    2.5010   14.8400   -8.3130 C   0  0  2  0  0  0  0  0  0  0  0  0
    2.4740   16.2650   -8.4710 O   0  0  0  0  0  0  0  0  0  0  0  0
    1.4230   15.5340   -9.1240 C   0  0  0  0  0  0  0  0  0  0  0  0
    0.0610   15.7880   -8.5560 C   0  0  0  0  0  0  0  0  0  0  0  0
    1.5330   15.5260  -10.6170 C   0  0  0  0  0  0  0  0  0  0  0  0
    1.6360   13.0910   -4.5880 C   0  0  1  0  0  0  0  0  0  0  0  0
    0.3200   12.3580   -4.2140 C   0  0  0  0  0  0  0  0  0  0  0  0
   -0.0480   12.8050   -2.7760 C   0  0  0  0  0  0  0  0  0  0  0  0
    0.8700   14.0180   -2.4980 C   0  0  1  0  0  0  0  0  0  0  0  0
    0.1610   15.2250   -3.1890 C   0  0  0  0  0  0  0  0  0  0  0  0
    1.1840   14.3170   -0.9950 C   0  0  2  0  0  0  0  0  0  0  0  0
   -0.0380   14.6770   -0.1330 C   0  0  0  0  0  0  0  0  0  0  0  0
   -0.3640   16.1320   -0.0630 C   0  0  0  0  0  0  0  0  0  0  0  0
    0.4550   17.1350   -0.4310 C   0  0  0  0  0  0  0  0  0  0  0  0
    1.8930   16.8520   -0.8850 C   0  0  1  0  0  0  0  0  0  0  0  0
    2.8620   17.8370   -0.1790 C   0  0  0  0  0  0  0  0  0  0  0  0
    2.4630   19.2960   -0.3810 C   0  0  0  0  0  0  0  0  0  0  0  0
    1.0500   19.5510    0.1360 C   0  0  2  0  0  0  0  0  0  0  0  0
    1.0440   19.3950    1.5580 O   0  0  0  0  0  0  0  0  0  0  0  0
   -0.0130   18.6100   -0.4980 C   0  0  0  0  0  0  0  0  0  0  0  0
   -0.2220   18.9870   -1.9850 C   0  0  0  0  0  0  0  0  0  0  0  0
   -1.3690   18.8750    0.2110 C   0  0  0  0  0  0  0  0  0  0  0  0
    2.3700   15.3400   -0.7720 C   0  0  1  0  0  0  0  0  0  0  0  0
    2.9330   15.0650    0.6550 C   0  0  0  0  0  0  0  0  0  0  0  0
    3.5620   15.1020   -1.7730 C   0  0  0  0  0  0  0  0  0  0  0  0
    3.1900   14.6920   -3.2110 C   0  0  0  0  0  0  0  0  0  0  0  0
    2.1860   13.5360   -3.2100 C   0  0  2  0  0  0  0  0  0  0  0  0
    2.8790   12.3010   -2.5400 C   0  0  0  0  0  0  0  0  0  0  0  0
    3.4185   11.7490   -3.5482 H   0  0  0  0  0  0  0  0  0  0  0  0
    3.7247   10.5399   -4.8409 H   0  0  0  0  0  0  0  0  0  0  0  0
    4.6155   12.0998   -4.8409 H   0  0  0  0  0  0  0  0  0  0  0  0
    1.9748   11.4251   -5.9208 H   0  0  0  0  0  0  0  0  0  0  0  0
    4.1408   13.4090   -6.3451 H   0  0  0  0  0  0  0  0  0  0  0  0
    3.0914   12.4832   -7.5223 H   0  0  0  0  0  0  0  0  0  0  0  0
    1.2330   14.1361   -6.7569 H   0  0  0  0  0  0  0  0  0  0  0  0
    2.6336   15.1561   -6.2233 H   0  0  0  0  0  0  0  0  0  0  0  0
    3.1547   13.9836   -8.5349 H   0  0  0  0  0  0  0  0  0  0  0  0
    0.1142   15.7781   -7.4573 H   0  0  0  0  0  0  0  0  0  0  0  0
   -0.3012   16.7692   -8.8967 H   0  0  0  0  0  0  0  0  0  0  0  0
   -0.6305   15.0033   -8.8967 H   0  0  0  0  0  0  0  0  0  0  0  0
    2.5915   15.4490  -10.9063 H   0  0  0  0  0  0  0  0  0  0  0  0
    0.9790   14.6658  -11.0209 H   0  0  0  0  0  0  0  0  0  0  0  0
    1.1093   16.4573  -11.0209 H   0  0  0  0  0  0  0  0  0  0  0  0
    1.5096   13.9656   -5.2431 H   0  0  0  0  0  0  0  0  0  0  0  0
   -0.4812   12.6372   -4.9141 H   0  0  0  0  0  0  0  0  0  0  0  0
    0.4468   11.2667   -4.2680 H   0  0  0  0  0  0  0  0  0  0  0  0
   -1.1067   13.0981   -2.7194 H   0  0  0  0  0  0  0  0  0  0  0  0
    0.0909   11.9993   -2.0401 H   0  0  0  0  0  0  0  0  0  0  0  0
   -0.2380   15.9043   -2.4213 H   0  0  0  0  0  0  0  0  0  0  0  0
    0.8851   15.7655   -3.8163 H   0  0  0  0  0  0  0  0  0  0  0  0
   -0.6637   14.8557   -3.8163 H   0  0  0  0  0  0  0  0  0  0  0  0
    1.5318   13.3403   -0.6275 H   0  0  0  0  0  0  0  0  0  0  0  0
   -0.9119   14.1526   -0.5468 H   0  0  0  0  0  0  0  0  0  0  0  0
    0.2140   14.3724    0.8935 H   0  0  0  0  0  0  0  0  0  0  0  0
   -1.3570   16.4078    0.3216 H   0  0  0  0  0  0  0  0  0  0  0  0
    1.9097   17.0264   -1.9710 H   0  0  0  0  0  0  0  0  0  0  0  0
    2.8639   17.6180    0.8990 H   0  0  0  0  0  0  0  0  0  0  0  0
    3.8594   17.6992   -0.6219 H   0  0  0  0  0  0  0  0  0  0  0  0
    3.1678   19.9409    0.1643 H   0  0  0  0  0  0  0  0  0  0  0  0
    2.4894   19.5217   -1.4573 H   0  0  0  0  0  0  0  0  0  0  0  0
    0.7732   20.5760   -0.1518 H   0  0  0  0  0  0  0  0  0  0  0  0
    0.1190   19.4450    1.8550 H   0  0  0  0  0  0  0  0  0  0  0  0
   -0.7545   19.9475   -2.0484 H   0  0  0  0  0  0  0  0  0  0  0  0
    0.7555   19.0762   -2.4815 H   0  0  0  0  0  0  0  0  0  0  0  0
   -0.8155   18.2052   -2.4815 H   0  0  0  0  0  0  0  0  0  0  0  0
   -1.2245   18.8468    1.3011 H   0  0  0  0  0  0  0  0  0  0  0  0
   -1.7493   19.8644   -0.0829 H   0  0  0  0  0  0  0  0  0  0  0  0
   -2.0938   18.1015   -0.0829 H   0  0  0  0  0  0  0  0  0  0  0  0
    2.2122   15.4171    1.4077 H   0  0  0  0  0  0  0  0  0  0  0  0
    3.0979   13.9849    0.7823 H   0  0  0  0  0  0  0  0  0  0  0  0
    3.8863   15.5989    0.7823 H   0  0  0  0  0  0  0  0  0  0  0  0
    4.1387   16.0368   -1.8321 H   0  0  0  0  0  0  0  0  0  0  0  0
    4.1154   14.2443   -1.3631 H   0  0  0  0  0  0  0  0  0  0  0  0
    2.7442   15.5551   -3.7271 H   0  0  0  0  0  0  0  0  0  0  0  0
    4.1030   14.3626   -3.7286 H   0  0  0  0  0  0  0  0  0  0  0  0
    2.8241   12.3988   -1.4457 H   0  0  0  0  0  0  0  0  0  0  0  0
    2.3665   11.3790   -2.8519 H   0  0  0  0  0  0  0  0  0  0  0  0
    3.9330   12.2581   -2.8519 H   0  0  0  0  0  0  0  0  0  0  0  0
  1  2  1  0
  2  3  1  0
  3  4  1  0
  4  5  1  0
  5  6  1  0
  6  7  1  0
  7  8  1  0
  7  9  1  0
  2 10  1  0
 10 11  1  0
 11 12  1  0
 12 13  1  0
 13 14  1  6
 13 15  1  0
 15 16  1  0
 16 17  1  0
 17 18  2  0
 18 19  1  0
 19 20  1  0
 20 21  1  0
 21 22  1  0
 22 23  1  0
 22 24  1  0
 24 25  1  0
 24 26  1  0
 19 27  1  0
 27 28  1  1
 27 29  1  0
 29 30  1  0
 30 31  1  0
 31 32  1  1
  7  5  1  0
 31 10  1  0
 31 13  1  0
 27 15  1  0
 24 18  1  0
  1 33  1  0
  1 34  1  0
  1 35  1  0
  2 36  1  6
  3 37  1  0
  3 38  1  0
  4 39  1  0
  4 40  1  0
  5 41  1  6
  8 42  1  0
  8 43  1  0
  8 44  1  0
  9 45  1  0
  9 46  1  0
  9 47  1  0
 10 48  1  6
 11 49  1  0
 11 50  1  0
 12 51  1  0
 12 52  1  0
 14 53  1  0
 14 54  1  0
 14 55  1  0
 15 56  1  1
 16 57  1  0
 16 58  1  0
 17 59  1  0
 19 60  1  6
 20 61  1  0
 20 62  1  0
 21 63  1  0
 21 64  1  0
 22 65  1  1
 23 66  1  0
 25 67  1  0
 25 68  1  0
 25 69  1  0
 26 70  1  0
 26 71  1  0
 26 72  1  0
 28 73  1  0
 28 74  1  0
 28 75  1  0
 29 76  1  0
 29 77  1  0
 30 78  1  0
 30 79  1  0
 32 80  1  0
 32 81  1  0
 32 82  1  0
M  END
>  <meeko>  (10) 
{"is_sidechain": [false], "intermolecular_energy": 2.731, "internal_energy": -0.839}

$$$$
EPH_relaxed_0001_pdb2pqr_Repair_314_r2_0001_out
     RDKit          3D

 82 86  0  0  0  0  0  0  0  0999 V2000
   -0.9580    9.0740   -2.8970 C   0  0  0  0  0  0  0  0  0  0  0  0
   -0.0760    8.8910   -1.6590 C   0  0  2  0  0  0  0  0  0  0  0  0
   -0.9040    8.8260   -0.3600 C   0  0  0  0  0  0  0  0  0  0  0  0
   -1.1390   10.1920    0.2890 C   0  0  0  0  0  0  0  0  0  0  0  0
   -0.0610   10.5310    1.2750 C   0  0  2  0  0  0  0  0  0  0  0  0
   -0.4980   11.3100    2.3960 O   0  0  0  0  0  0  0  0  0  0  0  0
    0.4420   11.9420    1.5120 C   0  0  0  0  0  0  0  0  0  0  0  0
   -0.1190   13.1080    0.7590 C   0  0  0  0  0  0  0  0  0  0  0  0
    1.8020   12.1260    2.1100 C   0  0  0  0  0  0  0  0  0  0  0  0
    0.9410   10.0240   -1.5720 C   0  0  1  0  0  0  0  0  0  0  0  0
    2.3960    9.5410   -1.8140 C   0  0  0  0  0  0  0  0  0  0  0  0
    3.1290   10.6860   -2.5590 C   0  0  0  0  0  0  0  0  0  0  0  0
    2.1850   11.9040   -2.4270 C   0  0  1  0  0  0  0  0  0  0  0  0
    2.4680   12.4790   -1.0040 C   0  0  0  0  0  0  0  0  0  0  0  0
    2.3180   13.0030   -3.5310 C   0  0  2  0  0  0  0  0  0  0  0  0
    3.6860   13.7050   -3.5920 C   0  0  0  0  0  0  0  0  0  0  0  0
    3.8120   14.9320   -2.7500 C   0  0  0  0  0  0  0  0  0  0  0  0
    2.7880   15.6110   -2.2010 C   0  0  0  0  0  0  0  0  0  0  0  0
    1.3340   15.2130   -2.4870 C   0  0  1  0  0  0  0  0  0  0  0  0
    0.5080   16.4810   -2.8260 C   0  0  0  0  0  0  0  0  0  0  0  0
    0.6170   17.5560   -1.7490 C   0  0  0  0  0  0  0  0  0  0  0  0
    2.0710   17.9670   -1.5340 C   0  0  2  0  0  0  0  0  0  0  0  0
    2.5430   18.6260   -2.7140 O   0  0  0  0  0  0  0  0  0  0  0  0
    3.0030   16.7700   -1.1960 C   0  0  0  0  0  0  0  0  0  0  0  0
    2.6810   16.2460    0.2260 C   0  0  0  0  0  0  0  0  0  0  0  0
    4.4610   17.2990   -1.1440 C   0  0  0  0  0  0  0  0  0  0  0  0
    1.1310   14.0500   -3.5500 C   0  0  1  0  0  0  0  0  0  0  0  0
    1.0860   14.6460   -4.9900 C   0  0  0  0  0  0  0  0  0  0  0  0
   -0.2690   13.3710   -3.3070 C   0  0  0  0  0  0  0  0  0  0  0  0
   -0.3120   12.2110   -2.2940 C   0  0  0  0  0  0  0  0  0  0  0  0
    0.7920   11.1900   -2.5810 C   0  0  2  0  0  0  0  0  0  0  0  0
    0.5220   10.5780   -3.9980 C   0  0  0  0  0  0  0  0  0  0  0  0
   -1.9903    9.2882   -2.5833 H   0  0  0  0  0  0  0  0  0  0  0  0
   -0.5762    9.9121   -3.4986 H   0  0  0  0  0  0  0  0  0  0  0  0
   -0.9411    8.1532   -3.4986 H   0  0  0  0  0  0  0  0  0  0  0  0
    0.4471    7.9293   -1.7656 H   0  0  0  0  0  0  0  0  0  0  0  0
   -1.8819    8.3797   -0.5935 H   0  0  0  0  0  0  0  0  0  0  0  0
   -0.3284    8.2237    0.3582 H   0  0  0  0  0  0  0  0  0  0  0  0
   -1.1580   10.9614   -0.4969 H   0  0  0  0  0  0  0  0  0  0  0  0
   -2.0972   10.1550    0.8280 H   0  0  0  0  0  0  0  0  0  0  0  0
    0.4624    9.5871    1.0625 H   0  0  0  0  0  0  0  0  0  0  0  0
   -0.4826   13.8636    1.4709 H   0  0  0  0  0  0  0  0  0  0  0  0
    0.6660   13.5479    0.1264 H   0  0  0  0  0  0  0  0  0  0  0  0
   -0.9527   12.7691    0.1264 H   0  0  0  0  0  0  0  0  0  0  0  0
    1.7246   12.1155    3.2072 H   0  0  0  0  0  0  0  0  0  0  0  0
    2.4608   11.3088    1.7811 H   0  0  0  0  0  0  0  0  0  0  0  0
    2.2200   13.0889    1.7811 H   0  0  0  0  0  0  0  0  0  0  0  0
    0.7351   10.3799   -0.5517 H   0  0  0  0  0  0  0  0  0  0  0  0
    2.8916    9.3356   -0.8537 H   0  0  0  0  0  0  0  0  0  0  0  0
    2.4111    8.6126   -2.4038 H   0  0  0  0  0  0  0  0  0  0  0  0
    4.1012   10.8954   -2.0889 H   0  0  0  0  0  0  0  0  0  0  0  0
    3.3397   10.4332   -3.6086 H   0  0  0  0  0  0  0  0  0  0  0  0
    2.1169   11.7657   -0.2438 H   0  0  0  0  0  0  0  0  0  0  0  0
    3.5491   12.6417   -0.8826 H   0  0  0  0  0  0  0  0  0  0  0  0
    1.9374   13.4349   -0.8826 H   0  0  0  0  0  0  0  0  0  0  0  0
    2.2415   12.4157   -4.4579 H   0  0  0  0  0  0  0  0  0  0  0  0
    4.4514   12.9869   -3.2627 H   0  0  0  0  0  0  0  0  0  0  0  0
    3.8115   14.0366   -4.6333 H   0  0  0  0  0  0  0  0  0  0  0  0
    4.8269   15.3127   -2.5629 H   0  0  0  0  0  0  0  0  0  0  0  0
    0.9546   14.7573   -1.5605 H   0  0  0  0  0  0  0  0  0  0  0  0
    0.8737   16.8962   -3.7768 H   0  0  0  0  0  0  0  0  0  0  0  0
   -0.5486   16.1827   -2.8940 H   0  0  0  0  0  0  0  0  0  0  0  0
    0.0360   18.4369   -2.0595 H   0  0  0  0  0  0  0  0  0  0  0  0
    0.2239   17.1491   -0.8056 H   0  0  0  0  0  0  0  0  0  0  0  0
    2.0981   18.6404   -0.6646 H   0  0  0  0  0  0  0  0  0  0  0  0
    2.0240   19.4400   -2.8240 H   0  0  0  0  0  0  0  0  0  0  0  0
    3.1032   16.9330    0.9742 H   0  0  0  0  0  0  0  0  0  0  0  0
    1.5904   16.1867    0.3567 H   0  0  0  0  0  0  0  0  0  0  0  0
    3.1208   15.2463    0.3567 H   0  0  0  0  0  0  0  0  0  0  0  0
    4.7728   17.4121   -0.0952 H   0  0  0  0  0  0  0  0  0  0  0  0
    5.1282   16.5856   -1.6500 H   0  0  0  0  0  0  0  0  0  0  0  0
    4.5155   18.2742   -1.6500 H   0  0  0  0  0  0  0  0  0  0  0  0
    1.0033   15.7413   -4.9311 H   0  0  0  0  0  0  0  0  0  0  0  0
    2.0071   14.3762   -5.5274 H   0  0  0  0  0  0  0  0  0  0  0  0
    0.2159   14.2410   -5.5274 H   0  0  0  0  0  0  0  0  0  0  0  0
   -0.9592   14.1498   -2.9506 H   0  0  0  0  0  0  0  0  0  0  0  0
   -0.5417   12.9201   -4.2726 H   0  0  0  0  0  0  0  0  0  0  0  0
   -0.1743   12.6140   -1.2798 H   0  0  0  0  0  0  0  0  0  0  0  0
   -1.2860   11.7070   -2.3798 H   0  0  0  0  0  0  0  0  0  0  0  0
    0.0803    9.5767   -3.8869 H   0  0  0  0  0  0  0  0  0  0  0  0
   -0.1736   11.2263   -4.5509 H   0  0  0  0  0  0  0  0  0  0  0  0
    1.4698   10.5013   -4.5509 H   0  0  0  0  0  0  0  0  0  0  0  0
  1  2  1  0
  2  3  1  0
  3  4  1  0
  4  5  1  0
  5  6  1  0
  6  7  1  0
  7  8  1  0
  7  9  1  0
  2 10  1  0
 10 11  1  0
 11 12  1  0
 12 13  1  0
 13 14  1  1
 13 15  1  0
 15 16  1  0
 16 17  1  0
 17 18  2  0
 18 19  1  0
 19 20  1  0
 20 21  1  0
 21 22  1  0
 22 23  1  0
 22 24  1  0
 24 25  1  0
 24 26  1  0
 19 27  1  0
 27 28  1  6
 27 29  1  0
 29 30  1  0
 30 31  1  0
 31 32  1  6
  7  5  1  0
 31 10  1  0
 31 13  1  0
 27 15  1  0
 24 18  1  0
  1 33  1  0
  1 34  1  0
  1 35  1  0
  2 36  1  6
  3 37  1  0
  3 38  1  0
  4 39  1  0
  4 40  1  0
  5 41  1  1
  8 42  1  0
  8 43  1  0
  8 44  1  0
  9 45  1  0
  9 46  1  0
  9 47  1  0
 10 48  1  1
 11 49  1  0
 11 50  1  0
 12 51  1  0
 12 52  1  0
 14 53  1  0
 14 54  1  0
 14 55  1  0
 15 56  1  6
 16 57  1  0
 16 58  1  0
 17 59  1  0
 19 60  1  1
 20 61  1  0
 20 62  1  0
 21 63  1  0
 21 64  1  0
 22 65  1  1
 23 66  1  0
 25 67  1  0
 25 68  1  0
 25 69  1  0
 26 70  1  0
 26 71  1  0
 26 72  1  0
 28 73  1  0
 28 74  1  0
 28 75  1  0
 29 76  1  0
 29 77  1  0
 30 78  1  0
 30 79  1  0
 32 80  1  0
 32 81  1  0
 32 82  1  0
M  END
>  <meeko>  (11) 
{"is_sidechain": [false], "intermolecular_energy": 2.731, "internal_energy": -0.839}

$$$$
EPH_relaxed_0001_pdb2pqr_Repair_314_r2_0001_out
     RDKit          3D

 82 86  0  0  0  0  0  0  0  0999 V2000
    3.3060   17.5560   -1.3080 C   0  0  0  0  0  0  0  0  0  0  0  0
    2.1800   17.1590   -2.2660 C   0  0  2  0  0  0  0  0  0  0  0  0
    0.8000   17.6320   -1.7670 C   0  0  0  0  0  0  0  0  0  0  0  0
    0.8690   18.5460   -0.5400 C   0  0  0  0  0  0  0  0  0  0  0  0
   -0.2820   19.5040   -0.4970 C   0  0  2  0  0  0  0  0  0  0  0  0
   -0.6110   19.9880    0.8120 O   0  0  0  0  0  0  0  0  0  0  0  0
   -1.6110   19.1870    0.1630 C   0  0  0  0  0  0  0  0  0  0  0  0
   -1.8590   17.8680    0.8240 C   0  0  0  0  0  0  0  0  0  0  0  0
   -2.8220   19.9600   -0.2580 C   0  0  0  0  0  0  0  0  0  0  0  0
    2.1720   15.6470   -2.4610 C   0  0  1  0  0  0  0  0  0  0  0  0
    3.5400   15.1020   -2.9510 C   0  0  0  0  0  0  0  0  0  0  0  0
    3.7260   13.7080   -2.2980 C   0  0  0  0  0  0  0  0  0  0  0  0
    2.3320   13.3550   -1.7280 C   0  0  1  0  0  0  0  0  0  0  0  0
    1.5240   12.8150   -2.9500 C   0  0  0  0  0  0  0  0  0  0  0  0
    2.3090   12.3500   -0.5310 C   0  0  2  0  0  0  0  0  0  0  0  0
    2.8540   10.9460   -0.8470 C   0  0  0  0  0  0  0  0  0  0  0  0
    1.8410    9.9620   -1.3280 C   0  0  0  0  0  0  0  0  0  0  0  0
    0.5050   10.1030   -1.2310 C   0  0  0  0  0  0  0  0  0  0  0  0
   -0.1080   11.3030   -0.4980 C   0  0  1  0  0  0  0  0  0  0  0  0
   -1.2320   10.8110    0.4520 C   0  0  0  0  0  0  0  0  0  0  0  0
   -2.2800    9.9680   -0.2690 C   0  0  0  0  0  0  0  0  0  0  0  0
   -1.6390    8.7530   -0.9350 C   0  0  2  0  0  0  0  0  0  0  0  0
   -1.1460    7.8760    0.0820 O   0  0  0  0  0  0  0  0  0  0  0  0
   -0.4860    9.1250   -1.9080 C   0  0  0  0  0  0  0  0  0  0  0  0
   -1.0690    9.8180   -3.1650 C   0  0  0  0  0  0  0  0  0  0  0  0
    0.1660    7.8060   -2.4030 C   0  0  0  0  0  0  0  0  0  0  0  0
    0.9210   12.2740    0.2250 C   0  0  1  0  0  0  0  0  0  0  0  0
    1.2250   11.7520    1.6630 C   0  0  0  0  0  0  0  0  0  0  0  0
    0.2560   13.6910    0.3990 C   0  0  0  0  0  0  0  0  0  0  0  0
    0.4150   14.6810   -0.7710 C   0  0  0  0  0  0  0  0  0  0  0  0
    1.8780   14.7710   -1.2180 C   0  0  2  0  0  0  0  0  0  0  0  0
    2.7110   15.3330   -0.0160 C   0  0  0  0  0  0  0  0  0  0  0  0
    2.9636   17.4353   -0.2696 H   0  0  0  0  0  0  0  0  0  0  0  0
    4.1804   16.9120   -1.4830 H   0  0  0  0  0  0  0  0  0  0  0  0
    3.5831   18.6060   -1.4830 H   0  0  0  0  0  0  0  0  0  0  0  0
    2.3728   17.6572   -3.2276 H   0  0  0  0  0  0  0  0  0  0  0  0
    0.3057   18.1813   -2.5818 H   0  0  0  0  0  0  0  0  0  0  0  0
    0.2412   16.7332   -1.4672 H   0  0  0  0  0  0  0  0  0  0  0  0
    0.8505   17.9256    0.3681 H   0  0  0  0  0  0  0  0  0  0  0  0
    1.7992   19.1301   -0.5995 H   0  0  0  0  0  0  0  0  0  0  0  0
   -0.0271   19.8904   -1.4948 H   0  0  0  0  0  0  0  0  0  0  0  0
   -1.8351   17.9951    1.9164 H   0  0  0  0  0  0  0  0  0  0  0  0
   -2.8448   17.4855    0.5208 H   0  0  0  0  0  0  0  0  0  0  0  0
   -1.0794   17.1536    0.5208 H   0  0  0  0  0  0  0  0  0  0  0  0
   -3.3644   20.3062    0.6341 H   0  0  0  0  0  0  0  0  0  0  0  0
   -2.5124   20.8279   -0.8587 H   0  0  0  0  0  0  0  0  0  0  0  0
   -3.4789   19.3138   -0.8587 H   0  0  0  0  0  0  0  0  0  0  0  0
    1.3497   15.5585   -3.1863 H   0  0  0  0  0  0  0  0  0  0  0  0
    3.5404   15.0099   -4.0471 H   0  0  0  0  0  0  0  0  0  0  0  0
    4.3588   15.7814   -2.6717 H   0  0  0  0  0  0  0  0  0  0  0  0
    4.0380   12.9663   -3.0481 H   0  0  0  0  0  0  0  0  0  0  0  0
    4.5054   13.7116   -1.5218 H   0  0  0  0  0  0  0  0  0  0  0  0
    0.6594   12.2372   -2.5914 H   0  0  0  0  0  0  0  0  0  0  0  0
    1.1726   13.6604   -3.5597 H   0  0  0  0  0  0  0  0  0  0  0  0
    2.1707   12.1670   -3.5597 H   0  0  0  0  0  0  0  0  0  0  0  0
    3.0293   12.7999    0.1681 H   0  0  0  0  0  0  0  0  0  0  0  0
    3.6249   11.0479   -1.6251 H   0  0  0  0  0  0  0  0  0  0  0  0
    3.2374   10.5475    0.1039 H   0  0  0  0  0  0  0  0  0  0  0  0
    2.2171    9.0434   -1.8021 H   0  0  0  0  0  0  0  0  0  0  0  0
   -0.5356   11.9495   -1.2785 H   0  0  0  0  0  0  0  0  0  0  0  0
   -0.7790   10.2040    1.2497 H   0  0  0  0  0  0  0  0  0  0  0  0
   -1.7390   11.6990    0.8576 H   0  0  0  0  0  0  0  0  0  0  0  0
   -3.0298    9.6255    0.4594 H   0  0  0  0  0  0  0  0  0  0  0  0
   -2.7532   10.5857   -1.0465 H   0  0  0  0  0  0  0  0  0  0  0  0
   -2.4146    8.2619   -1.5410 H   0  0  0  0  0  0  0  0  0  0  0  0
   -0.1900    8.0300    0.1650 H   0  0  0  0  0  0  0  0  0  0  0  0
   -1.7487   10.6259   -2.8563 H   0  0  0  0  0  0  0  0  0  0  0  0
   -0.2488   10.2383   -3.7656 H   0  0  0  0  0  0  0  0  0  0  0  0
   -1.6234    9.0819   -3.7656 H   0  0  0  0  0  0  0  0  0  0  0  0
    0.4665    7.1980   -1.5370 H   0  0  0  0  0  0  0  0  0  0  0  0
   -0.5584    7.2447   -3.0114 H   0  0  0  0  0  0  0  0  0  0  0  0
    1.0519    8.0407   -3.0114 H   0  0  0  0  0  0  0  0  0  0  0  0
    0.8153   12.4555    2.4027 H   0  0  0  0  0  0  0  0  0  0  0  0
    0.7609   10.7642    1.8002 H   0  0  0  0  0  0  0  0  0  0  0  0
    2.3132   11.6682    1.8002 H   0  0  0  0  0  0  0  0  0  0  0  0
   -0.8211   13.5358    0.5596 H   0  0  0  0  0  0  0  0  0  0  0  0
    0.7855   14.1559    1.2437 H   0  0  0  0  0  0  0  0  0  0  0  0
   -0.1995   14.3398   -1.6172 H   0  0  0  0  0  0  0  0  0  0  0  0
    0.0889   15.6764   -0.4351 H   0  0  0  0  0  0  0  0  0  0  0  0
    2.2464   15.0195    0.9305 H   0  0  0  0  0  0  0  0  0  0  0  0
    3.7381   14.9425   -0.0673 H   0  0  0  0  0  0  0  0  0  0  0  0
    2.7334   16.4316   -0.0673 H   0  0  0  0  0  0  0  0  0  0  0  0
  1  2  1  0
  2  3  1  0
  3  4  1  0
  4  5  1  0
  5  6  1  0
  6  7  1  0
  7  8  1  0
  7  9  1  0
  2 10  1  0
 10 11  1  0
 11 12  1  0
 12 13  1  0
 13 14  1  6
 13 15  1  0
 15 16  1  0
 16 17  1  0
 17 18  2  0
 18 19  1  0
 19 20  1  0
 20 21  1  0
 21 22  1  0
 22 23  1  0
 22 24  1  0
 24 25  1  0
 24 26  1  0
 19 27  1  0
 27 28  1  1
 27 29  1  0
 29 30  1  0
 30 31  1  0
 31 32  1  1
  7  5  1  0
 31 10  1  0
 31 13  1  0
 27 15  1  0
 24 18  1  0
  1 33  1  0
  1 34  1  0
  1 35  1  0
  2 36  1  6
  3 37  1  0
  3 38  1  0
  4 39  1  0
  4 40  1  0
  5 41  1  6
  8 42  1  0
  8 43  1  0
  8 44  1  0
  9 45  1  0
  9 46  1  0
  9 47  1  0
 10 48  1  6
 11 49  1  0
 11 50  1  0
 12 51  1  0
 12 52  1  0
 14 53  1  0
 14 54  1  0
 14 55  1  0
 15 56  1  1
 16 57  1  0
 16 58  1  0
 17 59  1  0
 19 60  1  6
 20 61  1  0
 20 62  1  0
 21 63  1  0
 21 64  1  0
 22 65  1  6
 23 66  1  0
 25 67  1  0
 25 68  1  0
 25 69  1  0
 26 70  1  0
 26 71  1  0
 26 72  1  0
 28 73  1  0
 28 74  1  0
 28 75  1  0
 29 76  1  0
 29 77  1  0
 30 78  1  0
 30 79  1  0
 32 80  1  0
 32 81  1  0
 32 82  1  0
M  END
>  <meeko>  (12) 
{"is_sidechain": [false], "intermolecular_energy": 2.731, "internal_energy": -0.839}

$$$$
EPH_relaxed_0001_pdb2pqr_Repair_314_r2_0001_out
     RDKit          3D

 82 86  0  0  0  0  0  0  0  0999 V2000
    1.4800   10.7600   -4.9440 C   0  0  0  0  0  0  0  0  0  0  0  0
    2.2030   12.0800   -5.2240 C   0  0  2  0  0  0  0  0  0  0  0  0
    3.6930   12.0210   -4.8340 C   0  0  0  0  0  0  0  0  0  0  0  0
    4.1040   10.7030   -4.1710 C   0  0  0  0  0  0  0  0  0  0  0  0
    5.4360   10.8150   -3.4930 C   0  0  2  0  0  0  0  0  0  0  0  0
    6.1450   12.0310   -3.7650 O   0  0  0  0  0  0  0  0  0  0  0  0
    6.7570   10.8200   -4.2390 C   0  0  0  0  0  0  0  0  0  0  0  0
    6.8100   10.7090   -5.7310 C   0  0  0  0  0  0  0  0  0  0  0  0
    8.0000   10.4410   -3.4960 C   0  0  0  0  0  0  0  0  0  0  0  0
    1.5150   13.2180   -4.4790 C   0  0  1  0  0  0  0  0  0  0  0  0
   -0.0070   12.9750   -4.2910 C   0  0  0  0  0  0  0  0  0  0  0  0
   -0.3900   13.5820   -2.9160 C   0  0  0  0  0  0  0  0  0  0  0  0
    0.8340   14.4370   -2.5130 C   0  0  1  0  0  0  0  0  0  0  0  0
    0.6620   15.7770   -3.2940 C   0  0  0  0  0  0  0  0  0  0  0  0
    1.0310   14.6830   -0.9810 C   0  0  2  0  0  0  0  0  0  0  0  0
   -0.1050   15.4620   -0.2950 C   0  0  0  0  0  0  0  0  0  0  0  0
    0.0650   16.9450   -0.2690 C   0  0  0  0  0  0  0  0  0  0  0  0
    1.2100   17.6060   -0.5190 C   0  0  0  0  0  0  0  0  0  0  0  0
    2.5190   16.8460   -0.7710 C   0  0  1  0  0  0  0  0  0  0  0  0
    3.6590   17.4880    0.0630 C   0  0  0  0  0  0  0  0  0  0  0  0
    3.7960   18.9870   -0.1900 C   0  0  0  0  0  0  0  0  0  0  0  0
    2.4930   19.7150    0.1270 C   0  0  2  0  0  0  0  0  0  0  0  0
    2.2500   19.6330    1.5350 O   0  0  0  0  0  0  0  0  0  0  0  0
    1.2700   19.1480   -0.6480 C   0  0  0  0  0  0  0  0  0  0  0  0
    1.3940   19.5060   -2.1490 C   0  0  0  0  0  0  0  0  0  0  0  0
   -0.0010   19.8750   -0.1320 C   0  0  0  0  0  0  0  0  0  0  0  0
    2.4490   15.2680   -0.5960 C   0  0  1  0  0  0  0  0  0  0  0  0
    2.6980   14.8870    0.8960 C   0  0  0  0  0  0  0  0  0  0  0  0
    3.6140   14.6070   -1.4230 C   0  0  0  0  0  0  0  0  0  0  0  0
    3.3190   14.2790   -2.8990 C   0  0  0  0  0  0  0  0  0  0  0  0
    1.9970   13.5180   -3.0370 C   0  0  2  0  0  0  0  0  0  0  0  0
    2.1480   12.1550   -2.2800 C   0  0  0  0  0  0  0  0  0  0  0  0
    1.3980   10.6102   -3.8573 H   0  0  0  0  0  0  0  0  0  0  0  0
    0.4735   10.7921   -5.3867 H   0  0  0  0  0  0  0  0  0  0  0  0
    2.0490    9.9292   -5.3867 H   0  0  0  0  0  0  0  0  0  0  0  0
    2.1525   12.2605   -6.3079 H   0  0  0  0  0  0  0  0  0  0  0  0
    4.2958   12.1546   -5.7444 H   0  0  0  0  0  0  0  0  0  0  0  0
    3.8642   12.8190   -4.0965 H   0  0  0  0  0  0  0  0  0  0  0  0
    3.3454   10.4284   -3.4233 H   0  0  0  0  0  0  0  0  0  0  0  0
    4.1816    9.9348   -4.9544 H   0  0  0  0  0  0  0  0  0  0  0  0
    5.0756   10.2276   -2.6356 H   0  0  0  0  0  0  0  0  0  0  0  0
    7.2683    9.7491   -6.0112 H   0  0  0  0  0  0  0  0  0  0  0  0
    5.7898   10.7612   -6.1390 H   0  0  0  0  0  0  0  0  0  0  0  0
    7.4108   11.5352   -6.1390 H   0  0  0  0  0  0  0  0  0  0  0  0
    7.8121   10.4983   -2.4137 H   0  0  0  0  0  0  0  0  0  0  0  0
    8.2887    9.4140   -3.7642 H   0  0  0  0  0  0  0  0  0  0  0  0
    8.8126   11.1322   -3.7642 H   0  0  0  0  0  0  0  0  0  0  0  0
    1.7723   14.0559   -5.1436 H   0  0  0  0  0  0  0  0  0  0  0  0
   -0.5719   13.4704   -5.0944 H   0  0  0  0  0  0  0  0  0  0  0  0
   -0.2434   11.9014   -4.3287 H   0  0  0  0  0  0  0  0  0  0  0  0
   -1.2894   14.2090   -3.0052 H   0  0  0  0  0  0  0  0  0  0  0  0
   -0.6233   12.8090   -2.1690 H   0  0  0  0  0  0  0  0  0  0  0  0
    0.5555   16.6067   -2.5796 H   0  0  0  0  0  0  0  0  0  0  0  0
    1.5455   15.9488   -3.9264 H   0  0  0  0  0  0  0  0  0  0  0  0
   -0.2362   15.7201   -3.9264 H   0  0  0  0  0  0  0  0  0  0  0  0
    0.9850   13.6639   -0.5695 H   0  0  0  0  0  0  0  0  0  0  0  0
   -1.0413   15.2363   -0.8264 H   0  0  0  0  0  0  0  0  0  0  0  0
   -0.1061   15.1370    0.7559 H   0  0  0  0  0  0  0  0  0  0  0  0
   -0.8214   17.5488   -0.0246 H   0  0  0  0  0  0  0  0  0  0  0  0
    2.7336   16.9569   -1.8441 H   0  0  0  0  0  0  0  0  0  0  0  0
    3.4478   17.3284    1.1307 H   0  0  0  0  0  0  0  0  0  0  0  0
    4.6031   17.0107   -0.2385 H   0  0  0  0  0  0  0  0  0  0  0  0
    4.5970   19.3881    0.4484 H   0  0  0  0  0  0  0  0  0  0  0  0
    4.0360   19.1433   -1.2521 H   0  0  0  0  0  0  0  0  0  0  0  0
    2.6120   20.7599   -0.1957 H   0  0  0  0  0  0  0  0  0  0  0  0
    3.1130   19.6450    1.9830 H   0  0  0  0  0  0  0  0  0  0  0  0
    1.7525   20.5410   -2.2507 H   0  0  0  0  0  0  0  0  0  0  0  0
    2.1075   18.8218   -2.6314 H   0  0  0  0  0  0  0  0  0  0  0  0
    0.4101   19.4097   -2.6314 H   0  0  0  0  0  0  0  0  0  0  0  0
   -0.0020   19.8756    0.9680 H   0  0  0  0  0  0  0  0  0  0  0  0
   -0.0049   20.9119   -0.4992 H   0  0  0  0  0  0  0  0  0  0  0  0
   -0.8967   19.3527   -0.4992 H   0  0  0  0  0  0  0  0  0  0  0  0
    2.2139   15.6278    1.5493 H   0  0  0  0  0  0  0  0  0  0  0  0
    2.2760   13.8909    1.0954 H   0  0  0  0  0  0  0  0  0  0  0  0
    3.7797   14.8736    1.0954 H   0  0  0  0  0  0  0  0  0  0  0  0
    4.4709   15.2963   -1.4002 H   0  0  0  0  0  0  0  0  0  0  0  0
    3.7921   13.6339   -0.9420 H   0  0  0  0  0  0  0  0  0  0  0  0
    3.2559   15.2168   -3.4705 H   0  0  0  0  0  0  0  0  0  0  0  0
    4.1306   13.6460   -3.2870 H   0  0  0  0  0  0  0  0  0  0  0  0
    2.1282   12.3341   -1.1949 H   0  0  0  0  0  0  0  0  0  0  0  0
    1.3183   11.4880   -2.5568 H   0  0  0  0  0  0  0  0  0  0  0  0
    3.1036   11.6858   -2.5568 H   0  0  0  0  0  0  0  0  0  0  0  0
  1  2  1  0
  2  3  1  0
  3  4  1  0
  4  5  1  0
  5  6  1  0
  6  7  1  0
  7  8  1  0
  7  9  1  0
  2 10  1  0
 10 11  1  0
 11 12  1  0
 12 13  1  0
 13 14  1  6
 13 15  1  0
 15 16  1  0
 16 17  1  0
 17 18  2  0
 18 19  1  0
 19 20  1  0
 20 21  1  0
 21 22  1  0
 22 23  1  0
 22 24  1  0
 24 25  1  0
 24 26  1  0
 19 27  1  0
 27 28  1  1
 27 29  1  0
 29 30  1  0
 30 31  1  0
 31 32  1  1
  7  5  1  0
 31 10  1  0
 31 13  1  0
 27 15  1  0
 24 18  1  0
  1 33  1  0
  1 34  1  0
  1 35  1  0
  2 36  1  6
  3 37  1  0
  3 38  1  0
  4 39  1  0
  4 40  1  0
  5 41  1  1
  8 42  1  0
  8 43  1  0
  8 44  1  0
  9 45  1  0
  9 46  1  0
  9 47  1  0
 10 48  1  6
 11 49  1  0
 11 50  1  0
 12 51  1  0
 12 52  1  0
 14 53  1  0
 14 54  1  0
 14 55  1  0
 15 56  1  1
 16 57  1  0
 16 58  1  0
 17 59  1  0
 19 60  1  6
 20 61  1  0
 20 62  1  0
 21 63  1  0
 21 64  1  0
 22 65  1  6
 23 66  1  0
 25 67  1  0
 25 68  1  0
 25 69  1  0
 26 70  1  0
 26 71  1  0
 26 72  1  0
 28 73  1  0
 28 74  1  0
 28 75  1  0
 29 76  1  0
 29 77  1  0
 30 78  1  0
 30 79  1  0
 32 80  1  0
 32 81  1  0
 32 82  1  0
M  END
>  <meeko>  (13) 
{"is_sidechain": [false], "intermolecular_energy": 2.731, "internal_energy": -0.839}

$$$$
EPH_relaxed_0001_pdb2pqr_Repair_314_r2_0001_out
     RDKit          3D

 82 86  0  0  0  0  0  0  0  0999 V2000
   -2.4490    7.8090   -0.8180 C   0  0  0  0  0  0  0  0  0  0  0  0
   -2.9080    9.2200   -0.4420 C   0  0  2  0  0  0  0  0  0  0  0  0
   -4.4010    9.4470   -0.7520 C   0  0  0  0  0  0  0  0  0  0  0  0
   -5.2710    8.2070   -0.5290 C   0  0  0  0  0  0  0  0  0  0  0  0
   -5.9190    7.7490   -1.8000 C   0  0  2  0  0  0  0  0  0  0  0  0
   -6.9770    8.5940   -2.2720 O   0  0  0  0  0  0  0  0  0  0  0  0
   -7.3540    7.2640   -1.8800 C   0  0  0  0  0  0  0  0  0  0  0  0
   -8.2290    7.2120   -0.6670 C   0  0  0  0  0  0  0  0  0  0  0  0
   -7.7510    6.3870   -3.0270 C   0  0  0  0  0  0  0  0  0  0  0  0
   -2.0610   10.2550   -1.1730 C   0  0  1  0  0  0  0  0  0  0  0  0
   -2.5650   11.7060   -0.9500 C   0  0  0  0  0  0  0  0  0  0  0  0
   -1.3090   12.6150   -0.9150 C   0  0  0  0  0  0  0  0  0  0  0  0
   -0.1650   11.7200   -1.4450 C   0  0  1  0  0  0  0  0  0  0  0  0
   -0.3080   11.7650   -2.9990 C   0  0  0  0  0  0  0  0  0  0  0  0
    1.2800   12.1030   -0.9880 C   0  0  2  0  0  0  0  0  0  0  0  0
    1.7640   13.4900   -1.4460 C   0  0  0  0  0  0  0  0  0  0  0  0
    2.4740   13.5170   -2.7580 C   0  0  0  0  0  0  0  0  0  0  0  0
    2.9660   12.4430   -3.4030 C   0  0  0  0  0  0  0  0  0  0  0  0
    2.9150   11.0490   -2.7650 C   0  0  1  0  0  0  0  0  0  0  0  0
    4.2950   10.3570   -2.9200 C   0  0  0  0  0  0  0  0  0  0  0  0
    4.7700   10.3180   -4.3690 C   0  0  0  0  0  0  0  0  0  0  0  0
    4.8630   11.7260   -4.9510 C   0  0  2  0  0  0  0  0  0  0  0  0
    5.9070   12.4350   -4.2760 O   0  0  0  0  0  0  0  0  0  0  0  0
    3.5340   12.5240   -4.8420 C   0  0  0  0  0  0  0  0  0  0  0  0
    2.4860   11.9240   -5.8120 C   0  0  0  0  0  0  0  0  0  0  0  0
    3.8040   13.9710   -5.3340 C   0  0  0  0  0  0  0  0  0  0  0  0
    2.3670   10.9890   -1.2740 C   0  0  1  0  0  0  0  0  0  0  0  0
    3.5330   11.2360   -0.2680 C   0  0  0  0  0  0  0  0  0  0  0  0
    1.8280    9.5390   -0.9820 C   0  0  0  0  0  0  0  0  0  0  0  0
    0.3580    9.2570   -1.3460 C   0  0  0  0  0  0  0  0  0  0  0  0
   -0.5630   10.3480   -0.7900 C   0  0  2  0  0  0  0  0  0  0  0  0
   -0.4560   10.3120    0.7730 C   0  0  0  0  0  0  0  0  0  0  0  0
   -2.2602    7.2287    0.0972 H   0  0  0  0  0  0  0  0  0  0  0  0
   -3.2325    7.3143   -1.4107 H   0  0  0  0  0  0  0  0  0  0  0  0
   -1.5244    7.8700   -1.4107 H   0  0  0  0  0  0  0  0  0  0  0  0
   -2.7757    9.3320    0.6443 H   0  0  0  0  0  0  0  0  0  0  0  0
   -4.7721   10.2531   -0.1020 H   0  0  0  0  0  0  0  0  0  0  0  0
   -4.4726    9.7024   -1.8195 H   0  0  0  0  0  0  0  0  0  0  0  0
   -4.6407    7.3950   -0.1375 H   0  0  0  0  0  0  0  0  0  0  0  0
   -6.0650    8.4691    0.1857 H   0  0  0  0  0  0  0  0  0  0  0  0
   -4.9723    7.3139   -2.1528 H   0  0  0  0  0  0  0  0  0  0  0  0
   -7.6043    7.2491    0.2376 H   0  0  0  0  0  0  0  0  0  0  0  0
   -8.9162    8.0709   -0.6735 H   0  0  0  0  0  0  0  0  0  0  0  0
   -8.8097    6.2778   -0.6735 H   0  0  0  0  0  0  0  0  0  0  0  0
   -8.1758    5.4486   -2.6411 H   0  0  0  0  0  0  0  0  0  0  0  0
   -8.5026    6.9045   -3.6412 H   0  0  0  0  0  0  0  0  0  0  0  0
   -6.8662    6.1637   -3.6412 H   0  0  0  0  0  0  0  0  0  0  0  0
   -2.1635    9.8815   -2.2026 H   0  0  0  0  0  0  0  0  0  0  0  0
   -3.2281   12.0076   -1.7742 H   0  0  0  0  0  0  0  0  0  0  0  0
   -3.1370   11.7861   -0.0138 H   0  0  0  0  0  0  0  0  0  0  0  0
   -1.4470   13.4932   -1.5629 H   0  0  0  0  0  0  0  0  0  0  0  0
   -1.1024   13.0025    0.0936 H   0  0  0  0  0  0  0  0  0  0  0  0
   -1.3263   12.0854   -3.2644 H   0  0  0  0  0  0  0  0  0  0  0  0
    0.4204   12.4774   -3.4138 H   0  0  0  0  0  0  0  0  0  0  0  0
   -0.1188   10.7639   -3.4138 H   0  0  0  0  0  0  0  0  0  0  0  0
    1.1708   12.1704    0.1045 H   0  0  0  0  0  0  0  0  0  0  0  0
    0.8860   14.1484   -1.5212 H   0  0  0  0  0  0  0  0  0  0  0  0
    2.4987   13.8184   -0.6961 H   0  0  0  0  0  0  0  0  0  0  0  0
    2.6065   14.4975   -3.2387 H   0  0  0  0  0  0  0  0  0  0  0  0
    2.1512   10.4873   -3.3228 H   0  0  0  0  0  0  0  0  0  0  0  0
    5.0350   10.9079   -2.3210 H   0  0  0  0  0  0  0  0  0  0  0  0
    4.1881    9.3178   -2.5754 H   0  0  0  0  0  0  0  0  0  0  0  0
    5.7624    9.8454   -4.4098 H   0  0  0  0  0  0  0  0  0  0  0  0
    4.0443    9.7408   -4.9608 H   0  0  0  0  0  0  0  0  0  0  0  0
    5.0801   11.6254   -6.0247 H   0  0  0  0  0  0  0  0  0  0  0  0
    6.4790   11.7770   -3.8450 H   0  0  0  0  0  0  0  0  0  0  0  0
    1.6743   11.4593   -5.2331 H   0  0  0  0  0  0  0  0  0  0  0  0
    2.0735   12.7228   -6.4459 H   0  0  0  0  0  0  0  0  0  0  0  0
    2.9660   11.1639   -6.4459 H   0  0  0  0  0  0  0  0  0  0  0  0
    3.9281   14.6360   -4.4666 H   0  0  0  0  0  0  0  0  0  0  0  0
    4.7205   13.9865   -5.9420 H   0  0  0  0  0  0  0  0  0  0  0  0
    2.9547   14.3160   -5.9420 H   0  0  0  0  0  0  0  0  0  0  0  0
    3.1527   11.1554    0.7610 H   0  0  0  0  0  0  0  0  0  0  0  0
    4.3204   10.4847   -0.4278 H   0  0  0  0  0  0  0  0  0  0  0  0
    3.9482   12.2420   -0.4278 H   0  0  0  0  0  0  0  0  0  0  0  0
    2.4523    8.8319   -1.5479 H   0  0  0  0  0  0  0  0  0  0  0  0
    1.8798    9.4279    0.1111 H   0  0  0  0  0  0  0  0  0  0  0  0
    0.2581    9.2251   -2.4410 H   0  0  0  0  0  0  0  0  0  0  0  0
    0.0659    8.2926   -0.9048 H   0  0  0  0  0  0  0  0  0  0  0  0
   -1.4114   10.6334    1.2134 H   0  0  0  0  0  0  0  0  0  0  0  0
   -0.2272    9.2874    1.1014 H   0  0  0  0  0  0  0  0  0  0  0  0
    0.3456   10.9899    1.1014 H   0  0  0  0  0  0  0  0  0  0  0  0
  1  2  1  0
  2  3  1  0
  3  4  1  0
  4  5  1  0
  5  6  1  0
  6  7  1  0
  7  8  1  0
  7  9  1  0
  2 10  1  0
 10 11  1  0
 11 12  1  0
 12 13  1  0
 13 14  1  6
 13 15  1  0
 15 16  1  0
 16 17  1  0
 17 18  2  0
 18 19  1  0
 19 20  1  0
 20 21  1  0
 21 22  1  0
 22 23  1  0
 22 24  1  0
 24 25  1  0
 24 26  1  0
 19 27  1  0
 27 28  1  1
 27 29  1  0
 29 30  1  0
 30 31  1  0
 31 32  1  1
  7  5  1  0
 31 10  1  0
 31 13  1  0
 27 15  1  0
 24 18  1  0
  1 33  1  0
  1 34  1  0
  1 35  1  0
  2 36  1  1
  3 37  1  0
  3 38  1  0
  4 39  1  0
  4 40  1  0
  5 41  1  6
  8 42  1  0
  8 43  1  0
  8 44  1  0
  9 45  1  0
  9 46  1  0
  9 47  1  0
 10 48  1  6
 11 49  1  0
 11 50  1  0
 12 51  1  0
 12 52  1  0
 14 53  1  0
 14 54  1  0
 14 55  1  0
 15 56  1  1
 16 57  1  0
 16 58  1  0
 17 59  1  0
 19 60  1  6
 20 61  1  0
 20 62  1  0
 21 63  1  0
 21 64  1  0
 22 65  1  6
 23 66  1  0
 25 67  1  0
 25 68  1  0
 25 69  1  0
 26 70  1  0
 26 71  1  0
 26 72  1  0
 28 73  1  0
 28 74  1  0
 28 75  1  0
 29 76  1  0
 29 77  1  0
 30 78  1  0
 30 79  1  0
 32 80  1  0
 32 81  1  0
 32 82  1  0
M  END
>  <meeko>  (14) 
{"is_sidechain": [false], "intermolecular_energy": 2.731, "internal_energy": -0.839}

$$$$
EPH_relaxed_0001_pdb2pqr_Repair_314_r2_0001_out
     RDKit          3D

 82 86  0  0  0  0  0  0  0  0999 V2000
   -5.1950    5.8830   -1.7800 C   0  0  0  0  0  0  0  0  0  0  0  0
   -5.4810    7.3820   -1.9000 C   0  0  2  0  0  0  0  0  0  0  0  0
   -5.2150    8.1310   -0.5790 C   0  0  0  0  0  0  0  0  0  0  0  0
   -4.2250    9.2910   -0.7180 C   0  0  0  0  0  0  0  0  0  0  0  0
   -2.8320    8.8780   -0.3490 C   0  0  2  0  0  0  0  0  0  0  0  0
   -2.2540    9.6220    0.7320 O   0  0  0  0  0  0  0  0  0  0  0  0
   -1.6160    9.7630   -0.5480 C   0  0  0  0  0  0  0  0  0  0  0  0
   -1.7370   11.1320   -1.1400 C   0  0  0  0  0  0  0  0  0  0  0  0
   -0.2670    9.1190   -0.6240 C   0  0  0  0  0  0  0  0  0  0  0  0
   -6.9230    7.6020   -2.3430 C   0  0  1  0  0  0  0  0  0  0  0  0
   -7.2480    6.9020   -3.6890 C   0  0  0  0  0  0  0  0  0  0  0  0
   -8.7200    6.4230   -3.6010 C   0  0  0  0  0  0  0  0  0  0  0  0
   -9.2910    7.1450   -2.3580 C   0  0  1  0  0  0  0  0  0  0  0  0
   -9.6550    8.5780   -2.8580 C   0  0  0  0  0  0  0  0  0  0  0  0
  -10.5040    6.4540   -1.6540 C   0  0  2  0  0  0  0  0  0  0  0  0
  -11.7710    6.3220   -2.5170 C   0  0  0  0  0  0  0  0  0  0  0  0
  -12.7280    7.4640   -2.4240 C   0  0  0  0  0  0  0  0  0  0  0  0
  -12.7210    8.4150   -1.4710 C   0  0  0  0  0  0  0  0  0  0  0  0
  -11.7380    8.3440   -0.2950 C   0  0  1  0  0  0  0  0  0  0  0  0
  -12.4950    8.6240    1.0300 C   0  0  0  0  0  0  0  0  0  0  0  0
  -13.2700    9.9370    0.9950 C   0  0  0  0  0  0  0  0  0  0  0  0
  -14.2770    9.9460   -0.1520 C   0  0  2  0  0  0  0  0  0  0  0  0
  -15.2870    8.9680    0.1140 O   0  0  0  0  0  0  0  0  0  0  0  0
  -13.6310    9.6660   -1.5370 C   0  0  0  0  0  0  0  0  0  0  0  0
  -12.7640   10.8770   -1.9610 C   0  0  0  0  0  0  0  0  0  0  0  0
  -14.7730    9.5620   -2.5850 C   0  0  0  0  0  0  0  0  0  0  0  0
  -10.8390    7.0360   -0.2210 C   0  0  1  0  0  0  0  0  0  0  0  0
  -11.5980    5.9120    0.5500 C   0  0  0  0  0  0  0  0  0  0  0  0
   -9.5420    7.3500    0.6160 C   0  0  0  0  0  0  0  0  0  0  0  0
   -8.3380    7.9190   -0.1570 C   0  0  0  0  0  0  0  0  0  0  0  0
   -8.0420    7.0820   -1.4050 C   0  0  2  0  0  0  0  0  0  0  0  0
   -7.6510    5.6400   -0.9320 C   0  0  0  0  0  0  0  0  0  0  0  0
   -5.1417    5.6038   -0.7174 H   0  0  0  0  0  0  0  0  0  0  0  0
   -6.0011    5.3157   -2.2682 H   0  0  0  0  0  0  0  0  0  0  0  0
   -4.2366    5.6523   -2.2682 H   0  0  0  0  0  0  0  0  0  0  0  0
   -4.7938    7.7910   -2.6553 H   0  0  0  0  0  0  0  0  0  0  0  0
   -6.1700    8.5319   -0.2087 H   0  0  0  0  0  0  0  0  0  0  0  0
   -4.7661    7.4067    0.1166 H   0  0  0  0  0  0  0  0  0  0  0  0
   -4.2289    9.6400   -1.7612 H   0  0  0  0  0  0  0  0  0  0  0  0
   -4.5378   10.0929   -0.0330 H   0  0  0  0  0  0  0  0  0  0  0  0
   -3.0403    7.8361   -0.6338 H   0  0  0  0  0  0  0  0  0  0  0  0
   -1.8028   11.8761   -0.3326 H   0  0  0  0  0  0  0  0  0  0  0  0
   -0.8539   11.3422   -1.7613 H   0  0  0  0  0  0  0  0  0  0  0  0
   -2.6432   11.1840   -1.7613 H   0  0  0  0  0  0  0  0  0  0  0  0
    0.1110    8.9386    0.3931 H   0  0  0  0  0  0  0  0  0  0  0  0
   -0.3472    8.1621   -1.1605 H   0  0  0  0  0  0  0  0  0  0  0  0
    0.4266    9.7831   -1.1605 H   0  0  0  0  0  0  0  0  0  0  0  0
   -6.9401    8.7014   -2.3764 H   0  0  0  0  0  0  0  0  0  0  0  0
   -7.1294    7.6101   -4.5224 H   0  0  0  0  0  0  0  0  0  0  0  0
   -6.5678    6.0563   -3.8683 H   0  0  0  0  0  0  0  0  0  0  0  0
   -9.2763    6.7089   -4.5059 H   0  0  0  0  0  0  0  0  0  0  0  0
   -8.7988    5.3287   -3.5209 H   0  0  0  0  0  0  0  0  0  0  0  0
   -9.8223    9.2367   -1.9930 H   0  0  0  0  0  0  0  0  0  0  0  0
   -8.8291    8.9748   -3.4667 H   0  0  0  0  0  0  0  0  0  0  0  0
  -10.5701    8.5325   -3.4667 H   0  0  0  0  0  0  0  0  0  0  0  0
  -10.1365    5.4281   -1.5043 H   0  0  0  0  0  0  0  0  0  0  0  0
  -11.4583    6.2253   -3.5672 H   0  0  0  0  0  0  0  0  0  0  0  0
  -12.3092    5.4422   -2.1346 H   0  0  0  0  0  0  0  0  0  0  0  0
  -13.5046    7.5344   -3.1998 H   0  0  0  0  0  0  0  0  0  0  0  0
  -10.9930    9.1336   -0.4726 H   0  0  0  0  0  0  0  0  0  0  0  0
  -13.2026    7.8017    1.2123 H   0  0  0  0  0  0  0  0  0  0  0  0
  -11.7464    8.6996    1.8324 H   0  0  0  0  0  0  0  0  0  0  0  0
  -13.8072   10.0634    1.9466 H   0  0  0  0  0  0  0  0  0  0  0  0
  -12.5575   10.7611    0.8430 H   0  0  0  0  0  0  0  0  0  0  0  0
  -14.7068   10.9571   -0.2054 H   0  0  0  0  0  0  0  0  0  0  0  0
  -15.3990    8.4330   -0.6900 H   0  0  0  0  0  0  0  0  0  0  0  0
  -12.3934   11.3946   -1.0639 H   0  0  0  0  0  0  0  0  0  0  0  0
  -11.9111   10.5255   -2.5601 H   0  0  0  0  0  0  0  0  0  0  0  0
  -13.3716   11.5711   -2.5601 H   0  0  0  0  0  0  0  0  0  0  0  0
  -15.7393    9.4740   -2.0668 H   0  0  0  0  0  0  0  0  0  0  0  0
  -14.7756   10.4636   -3.2151 H   0  0  0  0  0  0  0  0  0  0  0  0
  -14.6127    8.6747   -3.2151 H   0  0  0  0  0  0  0  0  0  0  0  0
  -11.4896    6.0726    1.6328 H   0  0  0  0  0  0  0  0  0  0  0  0
  -12.6641    5.9381    0.2804 H   0  0  0  0  0  0  0  0  0  0  0  0
  -11.1755    4.9328    0.2804 H   0  0  0  0  0  0  0  0  0  0  0  0
   -9.8151    8.0808    1.3915 H   0  0  0  0  0  0  0  0  0  0  0  0
   -9.2038    6.3760    0.9993 H   0  0  0  0  0  0  0  0  0  0  0  0
   -8.5616    8.9521   -0.4614 H   0  0  0  0  0  0  0  0  0  0  0  0
   -7.4559    7.8932    0.4997 H   0  0  0  0  0  0  0  0  0  0  0  0
   -7.6414    5.6047    0.1674 H   0  0  0  0  0  0  0  0  0  0  0  0
   -8.3854    4.9165   -1.3157 H   0  0  0  0  0  0  0  0  0  0  0  0
   -6.6517    5.3866   -1.3157 H   0  0  0  0  0  0  0  0  0  0  0  0
  1  2  1  0
  2  3  1  0
  3  4  1  0
  4  5  1  0
  5  6  1  0
  6  7  1  0
  7  8  1  0
  7  9  1  0
  2 10  1  0
 10 11  1  0
 11 12  1  0
 12 13  1  0
 13 14  1  6
 13 15  1  0
 15 16  1  0
 16 17  1  0
 17 18  2  0
 18 19  1  0
 19 20  1  0
 20 21  1  0
 21 22  1  0
 22 23  1  0
 22 24  1  0
 24 25  1  0
 24 26  1  0
 19 27  1  0
 27 28  1  1
 27 29  1  0
 29 30  1  0
 30 31  1  0
 31 32  1  1
  7  5  1  0
 31 10  1  0
 31 13  1  0
 27 15  1  0
 24 18  1  0
  1 33  1  0
  1 34  1  0
  1 35  1  0
  2 36  1  6
  3 37  1  0
  3 38  1  0
  4 39  1  0
  4 40  1  0
  5 41  1  1
  8 42  1  0
  8 43  1  0
  8 44  1  0
  9 45  1  0
  9 46  1  0
  9 47  1  0
 10 48  1  6
 11 49  1  0
 11 50  1  0
 12 51  1  0
 12 52  1  0
 14 53  1  0
 14 54  1  0
 14 55  1  0
 15 56  1  1
 16 57  1  0
 16 58  1  0
 17 59  1  0
 19 60  1  6
 20 61  1  0
 20 62  1  0
 21 63  1  0
 21 64  1  0
 22 65  1  6
 23 66  1  0
 25 67  1  0
 25 68  1  0
 25 69  1  0
 26 70  1  0
 26 71  1  0
 26 72  1  0
 28 73  1  0
 28 74  1  0
 28 75  1  0
 29 76  1  0
 29 77  1  0
 30 78  1  0
 30 79  1  0
 32 80  1  0
 32 81  1  0
 32 82  1  0
M  END
>  <meeko>  (15) 
{"is_sidechain": [false], "intermolecular_energy": 2.731, "internal_energy": -0.839}

$$$$
EPH_relaxed_0001_pdb2pqr_Repair_314_r2_0001_out
     RDKit          3D

 82 86  0  0  0  0  0  0  0  0999 V2000
    2.2210   17.4880   -2.9610 C   0  0  0  0  0  0  0  0  0  0  0  0
    0.8890   17.0840   -3.5990 C   0  0  2  0  0  0  0  0  0  0  0  0
   -0.3200   17.5930   -2.7900 C   0  0  0  0  0  0  0  0  0  0  0  0
    0.0420   18.6420   -1.7350 C   0  0  0  0  0  0  0  0  0  0  0  0
    0.8800   18.0580   -0.6380 C   0  0  2  0  0  0  0  0  0  0  0  0
    0.7260   18.6960    0.6370 O   0  0  0  0  0  0  0  0  0  0  0  0
    2.0230   18.8010    0.0280 C   0  0  0  0  0  0  0  0  0  0  0  0
    2.3920   20.1930   -0.3810 C   0  0  0  0  0  0  0  0  0  0  0  0
    3.0820   18.0070    0.7260 C   0  0  0  0  0  0  0  0  0  0  0  0
    0.8200   15.5680   -3.7420 C   0  0  1  0  0  0  0  0  0  0  0  0
    1.5800   15.0500   -4.9930 C   0  0  0  0  0  0  0  0  0  0  0  0
    2.1950   13.6810   -4.6070 C   0  0  0  0  0  0  0  0  0  0  0  0
    1.5020   13.3020   -3.2770 C   0  0  1  0  0  0  0  0  0  0  0  0
    0.1230   12.7050   -3.7000 C   0  0  0  0  0  0  0  0  0  0  0  0
    2.2890   12.3300   -2.3400 C   0  0  2  0  0  0  0  0  0  0  0  0
    2.5630   10.9350   -2.9290 C   0  0  0  0  0  0  0  0  0  0  0  0
    1.5170    9.9080   -2.6490 C   0  0  0  0  0  0  0  0  0  0  0  0
    0.5470   10.0120   -1.7220 C   0  0  0  0  0  0  0  0  0  0  0  0
    0.4940   11.2120   -0.7680 C   0  0  1  0  0  0  0  0  0  0  0  0
    0.2570   10.7120    0.6810 C   0  0  0  0  0  0  0  0  0  0  0  0
   -0.9740    9.8200    0.7980 C   0  0  0  0  0  0  0  0  0  0  0  0
   -0.8590    8.6070   -0.1220 C   0  0  2  0  0  0  0  0  0  0  0  0
    0.2050    7.7730    0.3470 O   0  0  0  0  0  0  0  0  0  0  0  0
   -0.6090    8.9870   -1.6080 C   0  0  0  0  0  0  0  0  0  0  0  0
   -1.8870    9.6280   -2.2030 C   0  0  0  0  0  0  0  0  0  0  0  0
   -0.3700    7.6750   -2.4030 C   0  0  0  0  0  0  0  0  0  0  0  0
    1.7080   12.2330   -0.8710 C   0  0  1  0  0  0  0  0  0  0  0  0
    2.8800   11.7590    0.0410 C   0  0  0  0  0  0  0  0  0  0  0  0
    1.2510   13.6330   -0.3150 C   0  0  0  0  0  0  0  0  0  0  0  0
    0.5870   14.5960   -1.3180 C   0  0  0  0  0  0  0  0  0  0  0  0
    1.4220   14.7170   -2.5960 C   0  0  2  0  0  0  0  0  0  0  0  0
    2.8070   15.3360   -2.2060 C   0  0  0  0  0  0  0  0  0  0  0  0
    2.1264   17.4593   -1.8654 H   0  0  0  0  0  0  0  0  0  0  0  0
    3.0074   16.7880   -3.2796 H   0  0  0  0  0  0  0  0  0  0  0  0
    2.4861   18.5069   -3.2796 H   0  0  0  0  0  0  0  0  0  0  0  0
    0.8419   17.5534   -4.5927 H   0  0  0  0  0  0  0  0  0  0  0  0
   -1.0427   18.0389   -3.4892 H   0  0  0  0  0  0  0  0  0  0  0  0
   -0.7345   16.7271   -2.2529 H   0  0  0  0  0  0  0  0  0  0  0  0
    0.6036   19.4549   -2.2185 H   0  0  0  0  0  0  0  0  0  0  0  0
   -0.8914   19.0180   -1.2907 H   0  0  0  0  0  0  0  0  0  0  0  0
    0.8143   17.0568   -1.0888 H   0  0  0  0  0  0  0  0  0  0  0  0
    2.5550   20.8078    0.5165 H   0  0  0  0  0  0  0  0  0  0  0  0
    3.3142   20.1669   -0.9800 H   0  0  0  0  0  0  0  0  0  0  0  0
    1.5779   20.6271   -0.9800 H   0  0  0  0  0  0  0  0  0  0  0  0
    2.9544   18.1026    1.8144 H   0  0  0  0  0  0  0  0  0  0  0  0
    2.9962   16.9487    0.4384 H   0  0  0  0  0  0  0  0  0  0  0  0
    4.0738   18.3859    0.4384 H   0  0  0  0  0  0  0  0  0  0  0  0
   -0.2716   15.4360   -3.7750 H   0  0  0  0  0  0  0  0  0  0  0  0
    0.8837   14.9284   -5.8359 H   0  0  0  0  0  0  0  0  0  0  0  0
    2.3605   15.7603   -5.3034 H   0  0  0  0  0  0  0  0  0  0  0  0
    1.9855   12.9290   -5.3819 H   0  0  0  0  0  0  0  0  0  0  0  0
    3.2895   13.7288   -4.5079 H   0  0  0  0  0  0  0  0  0  0  0  0
   -0.4588   12.4531   -2.8011 H   0  0  0  0  0  0  0  0  0  0  0  0
   -0.4288   13.4448   -4.2985 H   0  0  0  0  0  0  0  0  0  0  0  0
    0.2849   11.7964   -4.2985 H   0  0  0  0  0  0  0  0  0  0  0  0
    3.2707   12.8202   -2.2632 H   0  0  0  0  0  0  0  0  0  0  0  0
    2.6539   11.0387   -4.0203 H   0  0  0  0  0  0  0  0  0  0  0  0
    3.4814   10.5744   -2.4426 H   0  0  0  0  0  0  0  0  0  0  0  0
    1.5409    8.9880   -3.2515 H   0  0  0  0  0  0  0  0  0  0  0  0
   -0.3597   11.8236   -1.0953 H   0  0  0  0  0  0  0  0  0  0  0  0
    1.1389   10.1401    1.0053 H   0  0  0  0  0  0  0  0  0  0  0  0
    0.0910   11.5949    1.3158 H   0  0  0  0  0  0  0  0  0  0  0  0
   -1.0709    9.4750    1.8380 H   0  0  0  0  0  0  0  0  0  0  0  0
   -1.8588   10.4025    0.5017 H   0  0  0  0  0  0  0  0  0  0  0  0
   -1.8224    8.0769   -0.0919 H   0  0  0  0  0  0  0  0  0  0  0  0
    0.1240    6.9130   -0.1000 H   0  0  0  0  0  0  0  0  0  0  0  0
   -2.5458    9.9584   -1.3864 H   0  0  0  0  0  0  0  0  0  0  0  0
   -1.6088   10.4933   -2.8226 H   0  0  0  0  0  0  0  0  0  0  0  0
   -2.4142    8.8876   -2.8226 H   0  0  0  0  0  0  0  0  0  0  0  0
   -0.2184    6.8427   -1.6999 H   0  0  0  0  0  0  0  0  0  0  0  0
   -1.2447    7.4654   -3.0362 H   0  0  0  0  0  0  0  0  0  0  0  0
    0.5225    7.7873   -3.0362 H   0  0  0  0  0  0  0  0  0  0  0  0
    2.5932   11.8750    1.0966 H   0  0  0  0  0  0  0  0  0  0  0  0
    3.1002   10.7011   -0.1650 H   0  0  0  0  0  0  0  0  0  0  0  0
    3.7737   12.3664   -0.1650 H   0  0  0  0  0  0  0  0  0  0  0  0
    0.5315   13.4499    0.4967 H   0  0  0  0  0  0  0  0  0  0  0  0
    2.1786   14.1359   -0.0042 H   0  0  0  0  0  0  0  0  0  0  0  0
   -0.4121   14.2147   -1.5756 H   0  0  0  0  0  0  0  0  0  0  0  0
    0.5114   15.5899   -0.8528 H   0  0  0  0  0  0  0  0  0  0  0  0
    2.8955   15.3755   -1.1103 H   0  0  0  0  0  0  0  0  0  0  0  0
    3.6156   14.7136   -2.6169 H   0  0  0  0  0  0  0  0  0  0  0  0
    2.8826   16.3536   -2.6169 H   0  0  0  0  0  0  0  0  0  0  0  0
  1  2  1  0
  2  3  1  0
  3  4  1  0
  4  5  1  0
  5  6  1  0
  6  7  1  0
  7  8  1  0
  7  9  1  0
  2 10  1  0
 10 11  1  0
 11 12  1  0
 12 13  1  0
 13 14  1  6
 13 15  1  0
 15 16  1  0
 16 17  1  0
 17 18  2  0
 18 19  1  0
 19 20  1  0
 20 21  1  0
 21 22  1  0
 22 23  1  0
 22 24  1  0
 24 25  1  0
 24 26  1  0
 19 27  1  0
 27 28  1  1
 27 29  1  0
 29 30  1  0
 30 31  1  0
 31 32  1  1
  7  5  1  0
 31 10  1  0
 31 13  1  0
 27 15  1  0
 24 18  1  0
  1 33  1  0
  1 34  1  0
  1 35  1  0
  2 36  1  6
  3 37  1  0
  3 38  1  0
  4 39  1  0
  4 40  1  0
  5 41  1  1
  8 42  1  0
  8 43  1  0
  8 44  1  0
  9 45  1  0
  9 46  1  0
  9 47  1  0
 10 48  1  6
 11 49  1  0
 11 50  1  0
 12 51  1  0
 12 52  1  0
 14 53  1  0
 14 54  1  0
 14 55  1  0
 15 56  1  1
 16 57  1  0
 16 58  1  0
 17 59  1  0
 19 60  1  6
 20 61  1  0
 20 62  1  0
 21 63  1  0
 21 64  1  0
 22 65  1  6
 23 66  1  0
 25 67  1  0
 25 68  1  0
 25 69  1  0
 26 70  1  0
 26 71  1  0
 26 72  1  0
 28 73  1  0
 28 74  1  0
 28 75  1  0
 29 76  1  0
 29 77  1  0
 30 78  1  0
 30 79  1  0
 32 80  1  0
 32 81  1  0
 32 82  1  0
M  END
>  <meeko>  (16) 
{"is_sidechain": [false], "intermolecular_energy": 2.731, "internal_energy": -0.839}

$$$$
EPH_relaxed_0001_pdb2pqr_Repair_314_r2_0001_out
     RDKit          3D

 82 86  0  0  0  0  0  0  0  0999 V2000
   -0.2360   10.4440   -4.0530 C   0  0  0  0  0  0  0  0  0  0  0  0
    0.9620   10.2740   -3.1150 C   0  0  2  0  0  0  0  0  0  0  0  0
    0.8960    8.9530   -2.3210 C   0  0  0  0  0  0  0  0  0  0  0  0
   -0.5160    8.5840   -1.8580 C   0  0  0  0  0  0  0  0  0  0  0  0
   -0.7480    8.9680   -0.4280 C   0  0  2  0  0  0  0  0  0  0  0  0
   -2.1270    9.0210   -0.0390 O   0  0  0  0  0  0  0  0  0  0  0  0
   -1.4100   10.2660   -0.0070 C   0  0  0  0  0  0  0  0  0  0  0  0
   -1.8810   11.2650   -1.0180 C   0  0  0  0  0  0  0  0  0  0  0  0
   -1.1590   10.7830    1.3750 C   0  0  0  0  0  0  0  0  0  0  0  0
    1.0420   11.4550   -2.1550 C   0  0  1  0  0  0  0  0  0  0  0  0
    2.0360   11.2110   -0.9890 C   0  0  0  0  0  0  0  0  0  0  0  0
    2.6910   12.5780   -0.6650 C   0  0  0  0  0  0  0  0  0  0  0  0
    1.8220   13.6140   -1.4170 C   0  0  1  0  0  0  0  0  0  0  0  0
    0.5850   13.8460   -0.4940 C   0  0  0  0  0  0  0  0  0  0  0  0
    2.5220   14.9610   -1.7930 C   0  0  2  0  0  0  0  0  0  0  0  0
    3.0030   15.8020   -0.5970 C   0  0  0  0  0  0  0  0  0  0  0  0
    2.0130   16.7880   -0.0720 C   0  0  0  0  0  0  0  0  0  0  0  0
    0.8990   17.1930   -0.7100 C   0  0  0  0  0  0  0  0  0  0  0  0
    0.5920   16.7200   -2.1360 C   0  0  1  0  0  0  0  0  0  0  0  0
    0.1620   17.9330   -3.0030 C   0  0  0  0  0  0  0  0  0  0  0  0
   -0.9940   18.7130   -2.3850 C   0  0  0  0  0  0  0  0  0  0  0  0
   -0.6300   19.2160   -0.9900 C   0  0  2  0  0  0  0  0  0  0  0  0
    0.4080   20.1940   -1.1100 O   0  0  0  0  0  0  0  0  0  0  0  0
   -0.1710   18.0820   -0.0310 C   0  0  0  0  0  0  0  0  0  0  0  0
   -1.3830   17.1900    0.3370 C   0  0  0  0  0  0  0  0  0  0  0  0
    0.3010   18.7400    1.2940 C   0  0  0  0  0  0  0  0  0  0  0  0
    1.7180   15.8410   -2.8330 C   0  0  1  0  0  0  0  0  0  0  0  0
    2.7600   16.7670   -3.5320 C   0  0  0  0  0  0  0  0  0  0  0  0
    1.0620   14.9730   -3.9710 C   0  0  0  0  0  0  0  0  0  0  0  0
    0.4950   13.6010   -3.5590 C   0  0  0  0  0  0  0  0  0  0  0  0
    1.5160   12.8110   -2.7340 C   0  0  2  0  0  0  0  0  0  0  0  0
    2.7630   12.5440   -3.6440 C   0  0  0  0  0  0  0  0  0  0  0  0
   -1.1520   10.5740   -3.4580 H   0  0  0  0  0  0  0  0  0  0  0  0
   -0.0822   11.3293   -4.6875 H   0  0  0  0  0  0  0  0  0  0  0  0
   -0.3346    9.5508   -4.6875 H   0  0  0  0  0  0  0  0  0  0  0  0
    1.8677   10.2393   -3.7384 H   0  0  0  0  0  0  0  0  0  0  0  0
    1.2742    8.1431   -2.9621 H   0  0  0  0  0  0  0  0  0  0  0  0
    1.5057    9.0908   -1.4159 H   0  0  0  0  0  0  0  0  0  0  0  0
   -1.2472    9.1080   -2.4911 H   0  0  0  0  0  0  0  0  0  0  0  0
   -0.6310    7.4934   -1.9434 H   0  0  0  0  0  0  0  0  0  0  0  0
    0.1924    8.4866   -0.1215 H   0  0  0  0  0  0  0  0  0  0  0  0
   -2.2950   12.1430   -0.5006 H   0  0  0  0  0  0  0  0  0  0  0  0
   -1.0346   11.5760   -1.6481 H   0  0  0  0  0  0  0  0  0  0  0  0
   -2.6594   10.8099   -1.6481 H   0  0  0  0  0  0  0  0  0  0  0  0
   -1.5157   10.0482    2.1118 H   0  0  0  0  0  0  0  0  0  0  0  0
   -0.0804   10.9481    1.5145 H   0  0  0  0  0  0  0  0  0  0  0  0
   -1.6964   11.7326    1.5145 H   0  0  0  0  0  0  0  0  0  0  0  0
   -0.0147   11.5219   -1.8570 H   0  0  0  0  0  0  0  0  0  0  0  0
    1.4995   10.8298   -0.1076 H   0  0  0  0  0  0  0  0  0  0  0  0
    2.7955   10.4656   -1.2675 H   0  0  0  0  0  0  0  0  0  0  0  0
    2.6743   12.7699    0.4180 H   0  0  0  0  0  0  0  0  0  0  0  0
    3.7469   12.6180   -0.9709 H   0  0  0  0  0  0  0  0  0  0  0  0
    0.8972   13.7874    0.5591 H   0  0  0  0  0  0  0  0  0  0  0  0
    0.1585   14.8398   -0.6953 H   0  0  0  0  0  0  0  0  0  0  0  0
   -0.1726   13.0743   -0.6953 H   0  0  0  0  0  0  0  0  0  0  0  0
    3.4343   14.6187   -2.3035 H   0  0  0  0  0  0  0  0  0  0  0  0
    3.2629   15.1132    0.2203 H   0  0  0  0  0  0  0  0  0  0  0  0
    3.8557   16.3924   -0.9634 H   0  0  0  0  0  0  0  0  0  0  0  0
    2.2104   17.2202    0.9201 H   0  0  0  0  0  0  0  0  0  0  0  0
   -0.2432   16.0097   -2.0470 H   0  0  0  0  0  0  0  0  0  0  0  0
    1.0228   18.6085   -3.1159 H   0  0  0  0  0  0  0  0  0  0  0  0
   -0.1784   17.5452   -3.9745 H   0  0  0  0  0  0  0  0  0  0  0  0
   -1.2314   19.5739   -3.0273 H   0  0  0  0  0  0  0  0  0  0  0  0
   -1.8632   18.0441   -2.3009 H   0  0  0  0  0  0  0  0  0  0  0  0
   -1.5381   19.6521   -0.5482 H   0  0  0  0  0  0  0  0  0  0  0  0
    0.5710   20.5590   -0.2240 H   0  0  0  0  0  0  0  0  0  0  0  0
   -1.4714   17.1249    1.4315 H   0  0  0  0  0  0  0  0  0  0  0  0
   -2.3014   17.6292   -0.0796 H   0  0  0  0  0  0  0  0  0  0  0  0
   -1.2367   16.1825   -0.0796 H   0  0  0  0  0  0  0  0  0  0  0  0
   -0.1033   18.1763    2.1477 H   0  0  0  0  0  0  0  0  0  0  0  0
    1.4001   18.7314    1.3365 H   0  0  0  0  0  0  0  0  0  0  0  0
   -0.0595   19.7784    1.3365 H   0  0  0  0  0  0  0  0  0  0  0  0
    3.3525   17.2935   -2.7693 H   0  0  0  0  0  0  0  0  0  0  0  0
    3.4279   16.1590   -4.1599 H   0  0  0  0  0  0  0  0  0  0  0  0
    2.2346   17.5017   -4.1599 H   0  0  0  0  0  0  0  0  0  0  0  0
    0.2364   15.5584   -4.4020 H   0  0  0  0  0  0  0  0  0  0  0  0
    1.8813   14.7477   -4.6696 H   0  0  0  0  0  0  0  0  0  0  0  0
   -0.4134   13.7529   -2.9575 H   0  0  0  0  0  0  0  0  0  0  0  0
    0.2626   13.0297   -4.4698 H   0  0  0  0  0  0  0  0  0  0  0  0
    3.6439   12.3554   -3.0128 H   0  0  0  0  0  0  0  0  0  0  0  0
    2.5723   11.6663   -4.2791 H   0  0  0  0  0  0  0  0  0  0  0  0
    2.9484   13.4228   -4.2791 H   0  0  0  0  0  0  0  0  0  0  0  0
  1  2  1  0
  2  3  1  0
  3  4  1  0
  4  5  1  0
  5  6  1  0
  6  7  1  0
  7  8  1  0
  7  9  1  0
  2 10  1  0
 10 11  1  0
 11 12  1  0
 12 13  1  0
 13 14  1  1
 13 15  1  0
 15 16  1  0
 16 17  1  0
 17 18  2  0
 18 19  1  0
 19 20  1  0
 20 21  1  0
 21 22  1  0
 22 23  1  0
 22 24  1  0
 24 25  1  0
 24 26  1  0
 19 27  1  0
 27 28  1  6
 27 29  1  0
 29 30  1  0
 30 31  1  0
 31 32  1  6
  7  5  1  0
 31 10  1  0
 31 13  1  0
 27 15  1  0
 24 18  1  0
  1 33  1  0
  1 34  1  0
  1 35  1  0
  2 36  1  6
  3 37  1  0
  3 38  1  0
  4 39  1  0
  4 40  1  0
  5 41  1  1
  8 42  1  0
  8 43  1  0
  8 44  1  0
  9 45  1  0
  9 46  1  0
  9 47  1  0
 10 48  1  1
 11 49  1  0
 11 50  1  0
 12 51  1  0
 12 52  1  0
 14 53  1  0
 14 54  1  0
 14 55  1  0
 15 56  1  6
 16 57  1  0
 16 58  1  0
 17 59  1  0
 19 60  1  1
 20 61  1  0
 20 62  1  0
 21 63  1  0
 21 64  1  0
 22 65  1  1
 23 66  1  0
 25 67  1  0
 25 68  1  0
 25 69  1  0
 26 70  1  0
 26 71  1  0
 26 72  1  0
 28 73  1  0
 28 74  1  0
 28 75  1  0
 29 76  1  0
 29 77  1  0
 30 78  1  0
 30 79  1  0
 32 80  1  0
 32 81  1  0
 32 82  1  0
M  END
>  <meeko>  (17) 
{"is_sidechain": [false], "intermolecular_energy": 2.731, "internal_energy": -0.839}

$$$$
EPH_relaxed_0001_pdb2pqr_Repair_314_r2_0001_out
     RDKit          3D

 82 86  0  0  0  0  0  0  0  0999 V2000
    4.4690   17.5630   -0.7530 C   0  0  0  0  0  0  0  0  0  0  0  0
    3.0960   18.1340   -0.3840 C   0  0  2  0  0  0  0  0  0  0  0  0
    3.1200   18.8740    0.9690 C   0  0  0  0  0  0  0  0  0  0  0  0
    4.4440   18.7310    1.7250 C   0  0  0  0  0  0  0  0  0  0  0  0
    4.3550   19.2980    3.1100 C   0  0  2  0  0  0  0  0  0  0  0  0
    5.4170   20.1950    3.4590 O   0  0  0  0  0  0  0  0  0  0  0  0
    5.3460   18.9730    4.2120 C   0  0  0  0  0  0  0  0  0  0  0  0
    6.4970   18.0460    3.9780 C   0  0  0  0  0  0  0  0  0  0  0  0
    4.9220   19.1660    5.6350 C   0  0  0  0  0  0  0  0  0  0  0  0
    2.0610   17.0160   -0.3470 C   0  0  1  0  0  0  0  0  0  0  0  0
    0.6100   17.5390   -0.5140 C   0  0  0  0  0  0  0  0  0  0  0  0
   -0.1650   16.4620   -1.3150 C   0  0  0  0  0  0  0  0  0  0  0  0
    0.7590   15.2210   -1.2950 C   0  0  1  0  0  0  0  0  0  0  0  0
    0.5030   14.5540    0.0930 C   0  0  0  0  0  0  0  0  0  0  0  0
    0.5750   14.2030   -2.4680 C   0  0  2  0  0  0  0  0  0  0  0  0
   -0.8070   13.5320   -2.5380 C   0  0  0  0  0  0  0  0  0  0  0  0
   -0.9340   12.2520   -1.7800 C   0  0  0  0  0  0  0  0  0  0  0  0
    0.0910   11.5180   -1.3080 C   0  0  0  0  0  0  0  0  0  0  0  0
    1.5430   11.9100   -1.6060 C   0  0  1  0  0  0  0  0  0  0  0  0
    2.3360   10.6540   -2.0550 C   0  0  0  0  0  0  0  0  0  0  0  0
    2.2350    9.5090   -1.0520 C   0  0  0  0  0  0  0  0  0  0  0  0
    0.7790    9.1090   -0.8260 C   0  0  2  0  0  0  0  0  0  0  0  0
    0.2640    8.5430   -2.0340 O   0  0  0  0  0  0  0  0  0  0  0  0
   -0.1190   10.2960   -0.3800 C   0  0  0  0  0  0  0  0  0  0  0  0
    0.2500   10.7140    1.0650 C   0  0  0  0  0  0  0  0  0  0  0  0
   -1.5860    9.7900   -0.3240 C   0  0  0  0  0  0  0  0  0  0  0  0
    1.7410   13.1410   -2.5920 C   0  0  1  0  0  0  0  0  0  0  0  0
    1.7360   12.6450   -4.0700 C   0  0  0  0  0  0  0  0  0  0  0  0
    3.1600   13.7770   -2.3420 C   0  0  0  0  0  0  0  0  0  0  0  0
    3.2520   14.8620   -1.2530 C   0  0  0  0  0  0  0  0  0  0  0  0
    2.1600   15.9190   -1.4380 C   0  0  2  0  0  0  0  0  0  0  0  0
    2.4040   16.6230   -2.8160 C   0  0  0  0  0  0  0  0  0  0  0  0
    5.0282   17.3304    0.1653 H   0  0  0  0  0  0  0  0  0  0  0  0
    4.3374   16.6450   -1.3446 H   0  0  0  0  0  0  0  0  0  0  0  0
    5.0272   18.3036   -1.3446 H   0  0  0  0  0  0  0  0  0  0  0  0
    2.8238   18.8674   -1.1574 H   0  0  0  0  0  0  0  0  0  0  0  0
    2.9397   19.9431    0.7834 H   0  0  0  0  0  0  0  0  0  0  0  0
    2.3399   18.4200    1.5978 H   0  0  0  0  0  0  0  0  0  0  0  0
    4.7027   17.6640    1.7924 H   0  0  0  0  0  0  0  0  0  0  0  0
    5.2155   19.2893    1.1745 H   0  0  0  0  0  0  0  0  0  0  0  0
    3.2558   19.2727    3.0752 H   0  0  0  0  0  0  0  0  0  0  0  0
    6.9054   17.7171    4.9450 H   0  0  0  0  0  0  0  0  0  0  0  0
    6.1525   17.1702    3.4085 H   0  0  0  0  0  0  0  0  0  0  0  0
    7.2793   18.5692    3.4085 H   0  0  0  0  0  0  0  0  0  0  0  0
    5.7152   18.8049    6.3061 H   0  0  0  0  0  0  0  0  0  0  0  0
    4.7417   20.2349    5.8221 H   0  0  0  0  0  0  0  0  0  0  0  0
    3.9975   18.6000    5.8221 H   0  0  0  0  0  0  0  0  0  0  0  0
    2.2881   16.5871    0.6401 H   0  0  0  0  0  0  0  0  0  0  0  0
    0.1445   17.6856    0.4718 H   0  0  0  0  0  0  0  0  0  0  0  0
    0.5970   18.5060   -1.0381 H   0  0  0  0  0  0  0  0  0  0  0  0
   -1.1277   16.2372   -0.8327 H   0  0  0  0  0  0  0  0  0  0  0  0
   -0.3995   16.7912   -2.3381 H   0  0  0  0  0  0  0  0  0  0  0  0
    0.7733   15.2582    0.8936 H   0  0  0  0  0  0  0  0  0  0  0  0
   -0.5608   14.2887    0.1817 H   0  0  0  0  0  0  0  0  0  0  0  0
    1.1162   13.6451    0.1817 H   0  0  0  0  0  0  0  0  0  0  0  0
    0.6373   14.8502   -3.3553 H   0  0  0  0  0  0  0  0  0  0  0  0
   -1.5487   14.2389   -2.1378 H   0  0  0  0  0  0  0  0  0  0  0  0
   -0.9677   13.2763   -3.5957 H   0  0  0  0  0  0  0  0  0  0  0  0
   -1.9508   11.8771   -1.5913 H   0  0  0  0  0  0  0  0  0  0  0  0
    1.9545   12.2940   -0.6609 H   0  0  0  0  0  0  0  0  0  0  0  0
    1.9374   10.3122   -3.0216 H   0  0  0  0  0  0  0  0  0  0  0  0
    3.3959   10.9381   -2.1318 H   0  0  0  0  0  0  0  0  0  0  0  0
    2.7908    8.6419   -1.4382 H   0  0  0  0  0  0  0  0  0  0  0  0
    2.6604    9.8426   -0.0940 H   0  0  0  0  0  0  0  0  0  0  0  0
    0.7609    8.3765   -0.0056 H   0  0  0  0  0  0  0  0  0  0  0  0
    0.9390    8.6570   -2.7250 H   0  0  0  0  0  0  0  0  0  0  0  0
   -0.3030   10.0876    1.7804 H   0  0  0  0  0  0  0  0  0  0  0  0
    1.3308   10.5812    1.2204 H   0  0  0  0  0  0  0  0  0  0  0  0
   -0.0158   11.7700    1.2204 H   0  0  0  0  0  0  0  0  0  0  0  0
   -1.8970    9.6827    0.7256 H   0  0  0  0  0  0  0  0  0  0  0  0
   -2.2429   10.5135   -0.8290 H   0  0  0  0  0  0  0  0  0  0  0  0
   -1.6572    8.8154   -0.8290 H   0  0  0  0  0  0  0  0  0  0  0  0
    1.7249   11.5452   -4.0876 H   0  0  0  0  0  0  0  0  0  0  0  0
    0.8417   13.0290   -4.5826 H   0  0  0  0  0  0  0  0  0  0  0  0
    2.6379   13.0109   -4.5826 H   0  0  0  0  0  0  0  0  0  0  0  0
    3.8444   12.9634   -2.0599 H   0  0  0  0  0  0  0  0  0  0  0  0
    3.4156   14.2892   -3.2813 H   0  0  0  0  0  0  0  0  0  0  0  0
    3.1338   14.3916   -0.2657 H   0  0  0  0  0  0  0  0  0  0  0  0
    4.2328   15.3541   -1.3305 H   0  0  0  0  0  0  0  0  0  0  0  0
    2.7599   17.6497   -2.6453 H   0  0  0  0  0  0  0  0  0  0  0  0
    3.1604   16.0627   -3.3852 H   0  0  0  0  0  0  0  0  0  0  0  0
    1.4631   16.6509   -3.3852 H   0  0  0  0  0  0  0  0  0  0  0  0
  1  2  1  0
  2  3  1  0
  3  4  1  0
  4  5  1  0
  5  6  1  0
  6  7  1  0
  7  8  1  0
  7  9  1  0
  2 10  1  0
 10 11  1  0
 11 12  1  0
 12 13  1  0
 13 14  1  1
 13 15  1  0
 15 16  1  0
 16 17  1  0
 17 18  2  0
 18 19  1  0
 19 20  1  0
 20 21  1  0
 21 22  1  0
 22 23  1  0
 22 24  1  0
 24 25  1  0
 24 26  1  0
 19 27  1  0
 27 28  1  6
 27 29  1  0
 29 30  1  0
 30 31  1  0
 31 32  1  6
  7  5  1  0
 31 10  1  0
 31 13  1  0
 27 15  1  0
 24 18  1  0
  1 33  1  0
  1 34  1  0
  1 35  1  0
  2 36  1  6
  3 37  1  0
  3 38  1  0
  4 39  1  0
  4 40  1  0
  5 41  1  1
  8 42  1  0
  8 43  1  0
  8 44  1  0
  9 45  1  0
  9 46  1  0
  9 47  1  0
 10 48  1  1
 11 49  1  0
 11 50  1  0
 12 51  1  0
 12 52  1  0
 14 53  1  0
 14 54  1  0
 14 55  1  0
 15 56  1  6
 16 57  1  0
 16 58  1  0
 17 59  1  0
 19 60  1  1
 20 61  1  0
 20 62  1  0
 21 63  1  0
 21 64  1  0
 22 65  1  1
 23 66  1  0
 25 67  1  0
 25 68  1  0
 25 69  1  0
 26 70  1  0
 26 71  1  0
 26 72  1  0
 28 73  1  0
 28 74  1  0
 28 75  1  0
 29 76  1  0
 29 77  1  0
 30 78  1  0
 30 79  1  0
 32 80  1  0
 32 81  1  0
 32 82  1  0
M  END
>  <meeko>  (18) 
{"is_sidechain": [false], "intermolecular_energy": 2.731, "internal_energy": -0.839}

$$$$
EPH_relaxed_0001_pdb2pqr_Repair_314_r2_0001_out
     RDKit          3D

 82 86  0  0  0  0  0  0  0  0999 V2000
    0.3130   18.0090   -2.7850 C   0  0  0  0  0  0  0  0  0  0  0  0
    0.0270   17.0690   -1.6100 C   0  0  2  0  0  0  0  0  0  0  0  0
   -0.0990   17.8310   -0.2750 C   0  0  0  0  0  0  0  0  0  0  0  0
    0.5900   19.1980   -0.2790 C   0  0  0  0  0  0  0  0  0  0  0  0
    1.7200   19.2520    0.7040 C   0  0  2  0  0  0  0  0  0  0  0  0
    2.7500   20.1940    0.3800 O   0  0  0  0  0  0  0  0  0  0  0  0
    3.1340   18.8100    0.3780 C   0  0  0  0  0  0  0  0  0  0  0  0
    3.4940   18.2800   -0.9740 C   0  0  0  0  0  0  0  0  0  0  0  0
    4.0440   18.4350    1.5060 C   0  0  0  0  0  0  0  0  0  0  0  0
    1.1250   16.0170   -1.5080 C   0  0  1  0  0  0  0  0  0  0  0  0
    1.4020   15.5840   -0.0430 C   0  0  0  0  0  0  0  0  0  0  0  0
    1.7630   14.0770   -0.0840 C   0  0  0  0  0  0  0  0  0  0  0  0
    2.0070   13.7740   -1.5810 C   0  0  1  0  0  0  0  0  0  0  0  0
    3.4640   14.2590   -1.8570 C   0  0  0  0  0  0  0  0  0  0  0  0
    1.7980   12.2900   -2.0280 C   0  0  2  0  0  0  0  0  0  0  0  0
    2.7440   11.2710   -1.3710 C   0  0  0  0  0  0  0  0  0  0  0  0
    4.0190   11.0180   -2.1060 C   0  0  0  0  0  0  0  0  0  0  0  0
    4.2680   11.3650   -3.3820 C   0  0  0  0  0  0  0  0  0  0  0  0
    3.1750   11.9950   -4.2550 C   0  0  1  0  0  0  0  0  0  0  0  0
    3.1530   11.2990   -5.6410 C   0  0  0  0  0  0  0  0  0  0  0  0
    4.5190   11.3060   -6.3210 C   0  0  0  0  0  0  0  0  0  0  0  0
    5.5670   10.6200   -5.4480 C   0  0  2  0  0  0  0  0  0  0  0  0
    5.2470    9.2280   -5.3520 O   0  0  0  0  0  0  0  0  0  0  0  0
    5.6720   11.2310   -4.0220 C   0  0  0  0  0  0  0  0  0  0  0  0
    6.3050   12.6410   -4.1060 C   0  0  0  0  0  0  0  0  0  0  0  0
    6.6600   10.3590   -3.2010 C   0  0  0  0  0  0  0  0  0  0  0  0
    1.7310   12.0900   -3.5970 C   0  0  1  0  0  0  0  0  0  0  0  0
    0.9460   10.7650   -3.8430 C   0  0  0  0  0  0  0  0  0  0  0  0
    0.9140   13.2300   -4.3120 C   0  0  0  0  0  0  0  0  0  0  0  0
    1.0710   14.6550   -3.7480 C   0  0  0  0  0  0  0  0  0  0  0  0
    0.8850   14.6660   -2.2270 C   0  0  2  0  0  0  0  0  0  0  0  0
   -0.5800   14.2040   -1.9200 C   0  0  0  0  0  0  0  0  0  0  0  0
    0.6130   18.9952   -2.4010 H   0  0  0  0  0  0  0  0  0  0  0  0
    1.1249   17.5920   -3.3989 H   0  0  0  0  0  0  0  0  0  0  0  0
   -0.5936   18.1149   -3.3989 H   0  0  0  0  0  0  0  0  0  0  0  0
   -0.9393   16.5803   -1.8036 H   0  0  0  0  0  0  0  0  0  0  0  0
   -1.1674   17.9813   -0.0605 H   0  0  0  0  0  0  0  0  0  0  0  0
    0.4014   17.2211    0.4916 H   0  0  0  0  0  0  0  0  0  0  0  0
    0.9844   19.3955   -1.2867 H   0  0  0  0  0  0  0  0  0  0  0  0
   -0.1521   19.9569    0.0096 H   0  0  0  0  0  0  0  0  0  0  0  0
    1.0418   19.0025    1.5334 H   0  0  0  0  0  0  0  0  0  0  0  0
    4.1088   17.3749   -0.8612 H   0  0  0  0  0  0  0  0  0  0  0  0
    2.5760   18.0331   -1.5274 H   0  0  0  0  0  0  0  0  0  0  0  0
    4.0619   19.0424   -1.5274 H   0  0  0  0  0  0  0  0  0  0  0  0
    3.5444   18.6409    2.4641 H   0  0  0  0  0  0  0  0  0  0  0  0
    4.2859   17.3639    1.4414 H   0  0  0  0  0  0  0  0  0  0  0  0
    4.9703   19.0247    1.4414 H   0  0  0  0  0  0  0  0  0  0  0  0
    1.9478   16.5609   -1.9950 H   0  0  0  0  0  0  0  0  0  0  0  0
    2.2402   16.1634    0.3714 H   0  0  0  0  0  0  0  0  0  0  0  0
    0.5240   15.7631    0.5950 H   0  0  0  0  0  0  0  0  0  0  0  0
    2.6706   13.8791    0.5051 H   0  0  0  0  0  0  0  0  0  0  0  0
    0.9702   13.4466    0.3450 H   0  0  0  0  0  0  0  0  0  0  0  0
    3.9805   14.4309   -0.9011 H   0  0  0  0  0  0  0  0  0  0  0  0
    4.0030   13.4918   -2.4322 H   0  0  0  0  0  0  0  0  0  0  0  0
    3.4357   15.1962   -2.4322 H   0  0  0  0  0  0  0  0  0  0  0  0
    0.7964   12.0632   -1.6338 H   0  0  0  0  0  0  0  0  0  0  0  0
    2.9983   11.6415   -0.3670 H   0  0  0  0  0  0  0  0  0  0  0  0
    2.2021   10.3137   -1.3633 H   0  0  0  0  0  0  0  0  0  0  0  0
    4.8227   10.5045   -1.5579 H   0  0  0  0  0  0  0  0  0  0  0  0
    3.4529   13.0527   -4.3732 H   0  0  0  0  0  0  0  0  0  0  0  0
    2.8314   10.2557   -5.5066 H   0  0  0  0  0  0  0  0  0  0  0  0
    2.4570   11.8576   -6.2841 H   0  0  0  0  0  0  0  0  0  0  0  0
    4.4459   10.7738   -7.2809 H   0  0  0  0  0  0  0  0  0  0  0  0
    4.8254   12.3501   -6.4822 H   0  0  0  0  0  0  0  0  0  0  0  0
    6.5456   10.7712   -5.9270 H   0  0  0  0  0  0  0  0  0  0  0  0
    5.4040    8.8300   -6.2250 H   0  0  0  0  0  0  0  0  0  0  0  0
    6.4780   13.0264   -3.0903 H   0  0  0  0  0  0  0  0  0  0  0  0
    7.2628   12.5815   -4.6437 H   0  0  0  0  0  0  0  0  0  0  0  0
    5.6241   13.3172   -4.6437 H   0  0  0  0  0  0  0  0  0  0  0  0
    6.4822   10.5160   -2.1269 H   0  0  0  0  0  0  0  0  0  0  0  0
    6.5046    9.2982   -3.4472 H   0  0  0  0  0  0  0  0  0  0  0  0
    7.6932   10.6450   -3.4472 H   0  0  0  0  0  0  0  0  0  0  0  0
    0.6781   10.3128   -2.8767 H   0  0  0  0  0  0  0  0  0  0  0  0
    0.0304   10.9817   -4.4129 H   0  0  0  0  0  0  0  0  0  0  0  0
    1.5758   10.0661   -4.4129 H   0  0  0  0  0  0  0  0  0  0  0  0
    1.2272   13.2529   -5.3662 H   0  0  0  0  0  0  0  0  0  0  0  0
   -0.1429   12.9713   -4.1508 H   0  0  0  0  0  0  0  0  0  0  0  0
    2.0766   15.0292   -3.9903 H   0  0  0  0  0  0  0  0  0  0  0  0
    0.3017   15.2981   -4.2003 H   0  0  0  0  0  0  0  0  0  0  0  0
   -0.7291   14.1570   -0.8312 H   0  0  0  0  0  0  0  0  0  0  0  0
   -1.2900   14.9219   -2.3566 H   0  0  0  0  0  0  0  0  0  0  0  0
   -0.7497   13.2087   -2.3566 H   0  0  0  0  0  0  0  0  0  0  0  0
  1  2  1  0
  2  3  1  0
  3  4  1  0
  4  5  1  0
  5  6  1  0
  6  7  1  0
  7  8  1  0
  7  9  1  0
  2 10  1  0
 10 11  1  0
 11 12  1  0
 12 13  1  0
 13 14  1  6
 13 15  1  0
 15 16  1  0
 16 17  1  0
 17 18  2  0
 18 19  1  0
 19 20  1  0
 20 21  1  0
 21 22  1  0
 22 23  1  0
 22 24  1  0
 24 25  1  0
 24 26  1  0
 19 27  1  0
 27 28  1  1
 27 29  1  0
 29 30  1  0
 30 31  1  0
 31 32  1  6
  7  5  1  0
 31 10  1  0
 31 13  1  0
 27 15  1  0
 24 18  1  0
  1 33  1  0
  1 34  1  0
  1 35  1  0
  2 36  1  6
  3 37  1  0
  3 38  1  0
  4 39  1  0
  4 40  1  0
  5 41  1  1
  8 42  1  0
  8 43  1  0
  8 44  1  0
  9 45  1  0
  9 46  1  0
  9 47  1  0
 10 48  1  6
 11 49  1  0
 11 50  1  0
 12 51  1  0
 12 52  1  0
 14 53  1  0
 14 54  1  0
 14 55  1  0
 15 56  1  1
 16 57  1  0
 16 58  1  0
 17 59  1  0
 19 60  1  6
 20 61  1  0
 20 62  1  0
 21 63  1  0
 21 64  1  0
 22 65  1  6
 23 66  1  0
 25 67  1  0
 25 68  1  0
 25 69  1  0
 26 70  1  0
 26 71  1  0
 26 72  1  0
 28 73  1  0
 28 74  1  0
 28 75  1  0
 29 76  1  0
 29 77  1  0
 30 78  1  0
 30 79  1  0
 32 80  1  0
 32 81  1  0
 32 82  1  0
M  END
>  <meeko>  (19) 
{"is_sidechain": [false], "intermolecular_energy": 2.731, "internal_energy": -0.839}

$$$$
