EPH_relaxed_0001_pdb2pqr_Repair_378_r2_0001_out
     RDKit          3D

 82 86  0  0  0  0  0  0  0  0999 V2000
   -1.6870    8.5790   -1.8680 C   0  0  0  0  0  0  0  0  0  0  0  0
   -2.0670    9.1050   -0.4810 C   0  0  2  0  0  0  0  0  0  0  0  0
   -3.5620    9.4700   -0.3880 C   0  0  0  0  0  0  0  0  0  0  0  0
   -4.4870    8.2540   -0.2800 C   0  0  0  0  0  0  0  0  0  0  0  0
   -5.1660    7.9560   -1.5830 C   0  0  2  0  0  0  0  0  0  0  0  0
   -6.3540    8.7200   -1.8270 O   0  0  0  0  0  0  0  0  0  0  0  0
   -6.5300    7.3010   -1.6850 C   0  0  0  0  0  0  0  0  0  0  0  0
   -7.2980    6.9030   -0.4630 C   0  0  0  0  0  0  0  0  0  0  0  0
   -6.8980    6.6090   -2.9600 C   0  0  0  0  0  0  0  0  0  0  0  0
   -1.2120   10.3180   -0.1330 C   0  0  1  0  0  0  0  0  0  0  0  0
   -0.1790   10.0190    0.9860 C   0  0  0  0  0  0  0  0  0  0  0  0
    1.0870   10.8510    0.6590 C   0  0  0  0  0  0  0  0  0  0  0  0
    0.6300   11.8440   -0.4350 C   0  0  1  0  0  0  0  0  0  0  0  0
   -0.0810   12.9970    0.3410 C   0  0  0  0  0  0  0  0  0  0  0  0
    1.7470   12.3890   -1.3830 C   0  0  2  0  0  0  0  0  0  0  0  0
    2.8470   13.2110   -0.6900 C   0  0  0  0  0  0  0  0  0  0  0  0
    2.5910   14.6800   -0.6090 C   0  0  0  0  0  0  0  0  0  0  0  0
    1.6650   15.3520   -1.3170 C   0  0  0  0  0  0  0  0  0  0  0  0
    0.8220   14.6430   -2.3850 C   0  0  1  0  0  0  0  0  0  0  0  0
    0.7900   15.5040   -3.6760 C   0  0  0  0  0  0  0  0  0  0  0  0
    0.3210   16.9320   -3.4150 C   0  0  0  0  0  0  0  0  0  0  0  0
    1.2190   17.6230   -2.3920 C   0  0  2  0  0  0  0  0  0  0  0  0
    2.5190   17.7960   -2.9620 O   0  0  0  0  0  0  0  0  0  0  0  0
    1.3350   16.8420   -1.0530 C   0  0  0  0  0  0  0  0  0  0  0  0
   -0.0110   16.9140   -0.2900 C   0  0  0  0  0  0  0  0  0  0  0  0
    2.3780   17.5720   -0.1640 C   0  0  0  0  0  0  0  0  0  0  0  0
    1.1990   13.1270   -2.6720 C   0  0  1  0  0  0  0  0  0  0  0  0
    2.3320   13.0530   -3.7420 C   0  0  0  0  0  0  0  0  0  0  0  0
   -0.0480   12.3950   -3.2950 C   0  0  0  0  0  0  0  0  0  0  0  0
   -1.0540   11.7730   -2.3080 C   0  0  0  0  0  0  0  0  0  0  0  0
   -0.3360   10.9170   -1.2600 C   0  0  2  0  0  0  0  0  0  0  0  0
    0.3700    9.7360   -2.0090 C   0  0  0  0  0  0  0  0  0  0  0  0
   -1.0459    7.6916   -1.7606 H   0  0  0  0  0  0  0  0  0  0  0  0
   -2.5991    8.3078   -2.4199 H   0  0  0  0  0  0  0  0  0  0  0  0
   -1.1430    9.3597   -2.4199 H   0  0  0  0  0  0  0  0  0  0  0  0
   -1.8788    8.2977    0.2421 H   0  0  0  0  0  0  0  0  0  0  0  0
   -3.7110   10.0998    0.5014 H   0  0  0  0  0  0  0  0  0  0  0  0
   -3.8242    9.9916   -1.3203 H   0  0  0  0  0  0  0  0  0  0  0  0
   -3.8918    7.3790    0.0201 H   0  0  0  0  0  0  0  0  0  0  0  0
   -5.2625    8.4785    0.4672 H   0  0  0  0  0  0  0  0  0  0  0  0
   -4.2015    7.7292   -2.0607 H   0  0  0  0  0  0  0  0  0  0  0  0
   -6.7345    7.1950    0.4355 H   0  0  0  0  0  0  0  0  0  0  0  0
   -8.2751    7.4082   -0.4633 H   0  0  0  0  0  0  0  0  0  0  0  0
   -7.4486    5.8134   -0.4633 H   0  0  0  0  0  0  0  0  0  0  0  0
   -7.4030    5.6594   -2.7293 H   0  0  0  0  0  0  0  0  0  0  0  0
   -7.5737    7.2512   -3.5439 H   0  0  0  0  0  0  0  0  0  0  0  0
   -5.9878    6.4078   -3.5439 H   0  0  0  0  0  0  0  0  0  0  0  0
   -2.0043   11.0286    0.1450 H   0  0  0  0  0  0  0  0  0  0  0  0
   -0.5844   10.3149    1.9648 H   0  0  0  0  0  0  0  0  0  0  0  0
    0.0547    8.9451    1.0314 H   0  0  0  0  0  0  0  0  0  0  0  0
    1.4381   11.3906    1.5510 H   0  0  0  0  0  0  0  0  0  0  0  0
    1.9254   10.2213    0.3266 H   0  0  0  0  0  0  0  0  0  0  0  0
    0.0226   12.8290    1.4232 H   0  0  0  0  0  0  0  0  0  0  0  0
    0.3812   13.9586    0.0733 H   0  0  0  0  0  0  0  0  0  0  0  0
   -1.1478   13.0158    0.0733 H   0  0  0  0  0  0  0  0  0  0  0  0
    2.2364   11.4658   -1.7269 H   0  0  0  0  0  0  0  0  0  0  0  0
    2.9617   12.8291    0.3352 H   0  0  0  0  0  0  0  0  0  0  0  0
    3.7494   13.0933   -1.3079 H   0  0  0  0  0  0  0  0  0  0  0  0
    3.2118   15.2617    0.0883 H   0  0  0  0  0  0  0  0  0  0  0  0
   -0.1919   14.5605   -1.9664 H   0  0  0  0  0  0  0  0  0  0  0  0
    1.8034   15.5380   -4.1024 H   0  0  0  0  0  0  0  0  0  0  0  0
    0.0743   15.0390   -4.3699 H   0  0  0  0  0  0  0  0  0  0  0  0
    0.3480   17.4978   -4.3580 H   0  0  0  0  0  0  0  0  0  0  0  0
   -0.7036   16.8976   -3.0162 H   0  0  0  0  0  0  0  0  0  0  0  0
    0.7592   18.5928   -2.1509 H   0  0  0  0  0  0  0  0  0  0  0  0
    2.8700   18.6450   -2.6430 H   0  0  0  0  0  0  0  0  0  0  0  0
    0.1805   16.9038    0.7932 H   0  0  0  0  0  0  0  0  0  0  0  0
   -0.5367   17.8416   -0.5606 H   0  0  0  0  0  0  0  0  0  0  0  0
   -0.6327   16.0478   -0.5606 H   0  0  0  0  0  0  0  0  0  0  0  0
    2.1378   17.4039    0.8962 H   0  0  0  0  0  0  0  0  0  0  0  0
    3.3825   17.1788   -0.3792 H   0  0  0  0  0  0  0  0  0  0  0  0
    2.3525   18.6504   -0.3792 H   0  0  0  0  0  0  0  0  0  0  0  0
    3.3080   12.9893   -3.2387 H   0  0  0  0  0  0  0  0  0  0  0  0
    2.1849   12.1626   -4.3708 H   0  0  0  0  0  0  0  0  0  0  0  0
    2.3019   13.9550   -4.3708 H   0  0  0  0  0  0  0  0  0  0  0  0
   -0.5929   13.1288   -3.9071 H   0  0  0  0  0  0  0  0  0  0  0  0
    0.3681   11.5448   -3.8554 H   0  0  0  0  0  0  0  0  0  0  0  0
   -1.6040   12.5785   -1.7993 H   0  0  0  0  0  0  0  0  0  0  0  0
   -1.7464   11.1302   -2.8714 H   0  0  0  0  0  0  0  0  0  0  0  0
    0.7897    9.0340   -1.2734 H   0  0  0  0  0  0  0  0  0  0  0  0
   -0.3629    9.2115   -2.6397 H   0  0  0  0  0  0  0  0  0  0  0  0
    1.1789   10.1332   -2.6397 H   0  0  0  0  0  0  0  0  0  0  0  0
  1  2  1  0
  2  3  1  0
  3  4  1  0
  4  5  1  0
  5  6  1  0
  6  7  1  0
  7  8  1  0
  7  9  1  0
  2 10  1  0
 10 11  1  0
 11 12  1  0
 12 13  1  0
 13 14  1  1
 13 15  1  0
 15 16  1  0
 16 17  1  0
 17 18  2  0
 18 19  1  0
 19 20  1  0
 20 21  1  0
 21 22  1  0
 22 23  1  0
 22 24  1  0
 24 25  1  0
 24 26  1  0
 19 27  1  0
 27 28  1  6
 27 29  1  0
 29 30  1  0
 30 31  1  0
 31 32  1  6
  7  5  1  0
 31 10  1  0
 31 13  1  0
 27 15  1  0
 24 18  1  0
  1 33  1  0
  1 34  1  0
  1 35  1  0
  2 36  1  1
  3 37  1  0
  3 38  1  0
  4 39  1  0
  4 40  1  0
  5 41  1  6
  8 42  1  0
  8 43  1  0
  8 44  1  0
  9 45  1  0
  9 46  1  0
  9 47  1  0
 10 48  1  1
 11 49  1  0
 11 50  1  0
 12 51  1  0
 12 52  1  0
 14 53  1  0
 14 54  1  0
 14 55  1  0
 15 56  1  6
 16 57  1  0
 16 58  1  0
 17 59  1  0
 19 60  1  1
 20 61  1  0
 20 62  1  0
 21 63  1  0
 21 64  1  0
 22 65  1  1
 23 66  1  0
 25 67  1  0
 25 68  1  0
 25 69  1  0
 26 70  1  0
 26 71  1  0
 26 72  1  0
 28 73  1  0
 28 74  1  0
 28 75  1  0
 29 76  1  0
 29 77  1  0
 30 78  1  0
 30 79  1  0
 32 80  1  0
 32 81  1  0
 32 82  1  0
M  END
>  <meeko>  (1) 
{"is_sidechain": [false], "intermolecular_energy": 2.731, "internal_energy": -0.839}

$$$$
EPH_relaxed_0001_pdb2pqr_Repair_378_r2_0001_out
     RDKit          3D

 82 86  0  0  0  0  0  0  0  0999 V2000
    4.3140   17.3060   -0.5310 C   0  0  0  0  0  0  0  0  0  0  0  0
    2.9530   17.9300   -0.2100 C   0  0  2  0  0  0  0  0  0  0  0  0
    2.9660   18.6970    1.1270 C   0  0  0  0  0  0  0  0  0  0  0  0
    4.3050   18.6200    1.8670 C   0  0  0  0  0  0  0  0  0  0  0  0
    4.2130   19.2100    3.2420 C   0  0  2  0  0  0  0  0  0  0  0  0
    5.2120   20.1940    3.5390 O   0  0  0  0  0  0  0  0  0  0  0  0
    5.2580   18.9890    4.3190 C   0  0  0  0  0  0  0  0  0  0  0  0
    6.4710   18.1480    4.0680 C   0  0  0  0  0  0  0  0  0  0  0  0
    4.8630   19.1800    5.7500 C   0  0  0  0  0  0  0  0  0  0  0  0
    1.8790   16.8480   -0.1790 C   0  0  1  0  0  0  0  0  0  0  0  0
    0.4550   17.4120   -0.4300 C   0  0  0  0  0  0  0  0  0  0  0  0
   -0.3210   16.3310   -1.2240 C   0  0  0  0  0  0  0  0  0  0  0  0
    0.5580   15.0630   -1.1180 C   0  0  1  0  0  0  0  0  0  0  0  0
    0.2200   14.4570    0.2800 C   0  0  0  0  0  0  0  0  0  0  0  0
    0.3900   14.0080   -2.2600 C   0  0  2  0  0  0  0  0  0  0  0  0
   -1.0100   13.3790   -2.3670 C   0  0  0  0  0  0  0  0  0  0  0  0
   -1.2130   12.1340   -1.5690 C   0  0  0  0  0  0  0  0  0  0  0  0
   -0.2350   11.3850   -1.0260 C   0  0  0  0  0  0  0  0  0  0  0  0
    1.2420   11.7180   -1.2740 C   0  0  1  0  0  0  0  0  0  0  0  0
    2.0100   10.4210   -1.6410 C   0  0  0  0  0  0  0  0  0  0  0  0
    1.8260    9.3180   -0.6020 C   0  0  0  0  0  0  0  0  0  0  0  0
    0.3490    8.9750   -0.4260 C   0  0  2  0  0  0  0  0  0  0  0  0
   -0.1330    8.3810   -1.6350 O   0  0  0  0  0  0  0  0  0  0  0  0
   -0.5270   10.2070   -0.0640 C   0  0  0  0  0  0  0  0  0  0  0  0
   -0.2060   10.6670    1.3800 C   0  0  0  0  0  0  0  0  0  0  0  0
   -2.0110    9.7510   -0.0540 C   0  0  0  0  0  0  0  0  0  0  0  0
    1.5230   12.9040   -2.2940 C   0  0  1  0  0  0  0  0  0  0  0  0
    1.5650   12.3530   -3.7520 C   0  0  0  0  0  0  0  0  0  0  0  0
    2.9510   13.5020   -2.0040 C   0  0  0  0  0  0  0  0  0  0  0  0
    3.0340   14.6240   -0.9520 C   0  0  0  0  0  0  0  0  0  0  0  0
    1.9870   15.7090   -1.2240 C   0  0  2  0  0  0  0  0  0  0  0  0
    2.3150   16.3520   -2.6140 C   0  0  0  0  0  0  0  0  0  0  0  0
    4.8375   17.0660    0.4062 H   0  0  0  0  0  0  0  0  0  0  0  0
    4.1668   16.3855   -1.1149 H   0  0  0  0  0  0  0  0  0  0  0  0
    4.9154   18.0183   -1.1149 H   0  0  0  0  0  0  0  0  0  0  0  0
    2.7269   18.6561   -1.0048 H   0  0  0  0  0  0  0  0  0  0  0  0
    2.7420   19.7545    0.9231 H   0  0  0  0  0  0  0  0  0  0  0  0
    2.2124   18.2263    1.7754 H   0  0  0  0  0  0  0  0  0  0  0  0
    4.6058   17.5653    1.9510 H   0  0  0  0  0  0  0  0  0  0  0  0
    5.0467   19.1969    1.2951 H   0  0  0  0  0  0  0  0  0  0  0  0
    3.1186   19.0987    3.2420 H   0  0  0  0  0  0  0  0  0  0  0  0
    6.9109   17.8430    5.0289 H   0  0  0  0  0  0  0  0  0  0  0  0
    6.1849   17.2535    3.4953 H   0  0  0  0  0  0  0  0  0  0  0  0
    7.2084   18.7297    3.4953 H   0  0  0  0  0  0  0  0  0  0  0  0
    5.6589   18.7952    6.4046 H   0  0  0  0  0  0  0  0  0  0  0  0
    4.7109   20.2512    5.9486 H   0  0  0  0  0  0  0  0  0  0  0  0
    3.9289   18.6340    5.9486 H   0  0  0  0  0  0  0  0  0  0  0  0
    2.0484   16.4491    0.8320 H   0  0  0  0  0  0  0  0  0  0  0  0
   -0.0474   17.6119    0.5279 H   0  0  0  0  0  0  0  0  0  0  0  0
    0.4981   18.3580   -0.9897 H   0  0  0  0  0  0  0  0  0  0  0  0
   -1.3105   16.1561   -0.7766 H   0  0  0  0  0  0  0  0  0  0  0  0
   -0.5002   16.6283   -2.2678 H   0  0  0  0  0  0  0  0  0  0  0  0
    0.5931   15.1259    1.0695 H   0  0  0  0  0  0  0  0  0  0  0  0
   -0.8700   14.3465    0.3779 H   0  0  0  0  0  0  0  0  0  0  0  0
    0.6987   13.4715    0.3779 H   0  0  0  0  0  0  0  0  0  0  0  0
    0.5125   14.6200   -3.1658 H   0  0  0  0  0  0  0  0  0  0  0  0
   -1.7442   14.1241   -2.0268 H   0  0  0  0  0  0  0  0  0  0  0  0
   -1.1329   13.0881   -3.4207 H   0  0  0  0  0  0  0  0  0  0  0  0
   -2.2492   11.8003   -1.4113 H   0  0  0  0  0  0  0  0  0  0  0  0
    1.6265   12.1236   -0.3266 H   0  0  0  0  0  0  0  0  0  0  0  0
    1.6424   10.0562   -2.6115 H   0  0  0  0  0  0  0  0  0  0  0  0
    3.0814   10.6672   -1.6805 H   0  0  0  0  0  0  0  0  0  0  0  0
    2.3675    8.4190   -0.9316 H   0  0  0  0  0  0  0  0  0  0  0  0
    2.2210    9.6735    0.3611 H   0  0  0  0  0  0  0  0  0  0  0  0
    0.2710    8.2754    0.4193 H   0  0  0  0  0  0  0  0  0  0  0  0
    0.4500    7.6330   -1.8480 H   0  0  0  0  0  0  0  0  0  0  0  0
   -0.6832    9.9831    2.0973 H   0  0  0  0  0  0  0  0  0  0  0  0
    0.8831   10.6583    1.5340 H   0  0  0  0  0  0  0  0  0  0  0  0
   -0.5900   11.6862    1.5340 H   0  0  0  0  0  0  0  0  0  0  0  0
   -2.3551    9.6453    0.9854 H   0  0  0  0  0  0  0  0  0  0  0  0
   -2.6285   10.5009   -0.5702 H   0  0  0  0  0  0  0  0  0  0  0  0
   -2.1009    8.7838   -0.5702 H   0  0  0  0  0  0  0  0  0  0  0  0
    1.6486   11.2565   -3.7273 H   0  0  0  0  0  0  0  0  0  0  0  0
    0.6425   12.6386   -4.2786 H   0  0  0  0  0  0  0  0  0  0  0  0
    2.4336   12.7752   -4.2786 H   0  0  0  0  0  0  0  0  0  0  0  0
    3.5939   12.6774   -1.6624 H   0  0  0  0  0  0  0  0  0  0  0  0
    3.2642   13.9700   -2.9489 H   0  0  0  0  0  0  0  0  0  0  0  0
    2.8576   14.1957    0.0457 H   0  0  0  0  0  0  0  0  0  0  0  0
    4.0336   15.0802   -1.0037 H   0  0  0  0  0  0  0  0  0  0  0  0
    2.8100   17.3224   -2.4614 H   0  0  0  0  0  0  0  0  0  0  0  0
    2.9827   15.6845   -3.1784 H   0  0  0  0  0  0  0  0  0  0  0  0
    1.3826   16.5007   -3.1784 H   0  0  0  0  0  0  0  0  0  0  0  0
  1  2  1  0
  2  3  1  0
  3  4  1  0
  4  5  1  0
  5  6  1  0
  6  7  1  0
  7  8  1  0
  7  9  1  0
  2 10  1  0
 10 11  1  0
 11 12  1  0
 12 13  1  0
 13 14  1  1
 13 15  1  0
 15 16  1  0
 16 17  1  0
 17 18  2  0
 18 19  1  0
 19 20  1  0
 20 21  1  0
 21 22  1  0
 22 23  1  0
 22 24  1  0
 24 25  1  0
 24 26  1  0
 19 27  1  0
 27 28  1  6
 27 29  1  0
 29 30  1  0
 30 31  1  0
 31 32  1  6
  7  5  1  0
 31 10  1  0
 31 13  1  0
 27 15  1  0
 24 18  1  0
  1 33  1  0
  1 34  1  0
  1 35  1  0
  2 36  1  6
  3 37  1  0
  3 38  1  0
  4 39  1  0
  4 40  1  0
  5 41  1  1
  8 42  1  0
  8 43  1  0
  8 44  1  0
  9 45  1  0
  9 46  1  0
  9 47  1  0
 10 48  1  1
 11 49  1  0
 11 50  1  0
 12 51  1  0
 12 52  1  0
 14 53  1  0
 14 54  1  0
 14 55  1  0
 15 56  1  6
 16 57  1  0
 16 58  1  0
 17 59  1  0
 19 60  1  1
 20 61  1  0
 20 62  1  0
 21 63  1  0
 21 64  1  0
 22 65  1  1
 23 66  1  0
 25 67  1  0
 25 68  1  0
 25 69  1  0
 26 70  1  0
 26 71  1  0
 26 72  1  0
 28 73  1  0
 28 74  1  0
 28 75  1  0
 29 76  1  0
 29 77  1  0
 30 78  1  0
 30 79  1  0
 32 80  1  0
 32 81  1  0
 32 82  1  0
M  END
>  <meeko>  (2) 
{"is_sidechain": [false], "intermolecular_energy": 2.731, "internal_energy": -0.839}

$$$$
EPH_relaxed_0001_pdb2pqr_Repair_378_r2_0001_out
     RDKit          3D

 82 86  0  0  0  0  0  0  0  0999 V2000
    2.4760   18.0280   -2.6760 C   0  0  0  0  0  0  0  0  0  0  0  0
    1.1790   17.6660   -1.9460 C   0  0  2  0  0  0  0  0  0  0  0  0
    1.3400   17.7240   -0.4140 C   0  0  0  0  0  0  0  0  0  0  0  0
    0.9990   19.0890    0.1900 C   0  0  0  0  0  0  0  0  0  0  0  0
   -0.4480   19.1800    0.5720 C   0  0  2  0  0  0  0  0  0  0  0  0
   -1.3110   18.2770   -0.1310 O   0  0  0  0  0  0  0  0  0  0  0  0
   -1.5310   19.6770   -0.3680 C   0  0  0  0  0  0  0  0  0  0  0  0
   -1.2130   20.1150   -1.7630 C   0  0  0  0  0  0  0  0  0  0  0  0
   -2.8070   20.1940    0.2200 C   0  0  0  0  0  0  0  0  0  0  0  0
    0.7150   16.2770   -2.3690 C   0  0  1  0  0  0  0  0  0  0  0  0
    0.8170   16.0550   -3.9020 C   0  0  0  0  0  0  0  0  0  0  0  0
    1.1990   14.5670   -4.1140 C   0  0  0  0  0  0  0  0  0  0  0  0
    0.9810   13.9080   -2.7320 C   0  0  1  0  0  0  0  0  0  0  0  0
   -0.5540   13.6330   -2.6560 C   0  0  0  0  0  0  0  0  0  0  0  0
    1.8130   12.6160   -2.4430 C   0  0  2  0  0  0  0  0  0  0  0  0
    1.5210   11.4290   -3.3780 C   0  0  0  0  0  0  0  0  0  0  0  0
    0.4470   10.5020   -2.9140 C   0  0  0  0  0  0  0  0  0  0  0  0
   -0.0580   10.4510   -1.6680 C   0  0  0  0  0  0  0  0  0  0  0  0
    0.5240   11.3210   -0.5460 C   0  0  1  0  0  0  0  0  0  0  0  0
    0.7330   10.4560    0.7240 C   0  0  0  0  0  0  0  0  0  0  0  0
   -0.5370    9.7260    1.1510 C   0  0  0  0  0  0  0  0  0  0  0  0
   -1.0520    8.8270    0.0300 C   0  0  2  0  0  0  0  0  0  0  0  0
   -0.1130    7.7690   -0.1810 O   0  0  0  0  0  0  0  0  0  0  0  0
   -1.2910    9.5880   -1.3040 C   0  0  0  0  0  0  0  0  0  0  0  0
   -2.5150   10.5260   -1.1570 C   0  0  0  0  0  0  0  0  0  0  0  0
   -1.6730    8.5430   -2.3880 C   0  0  0  0  0  0  0  0  0  0  0  0
    1.8130   12.1700   -0.9250 C   0  0  1  0  0  0  0  0  0  0  0  0
    3.0970   11.3120   -0.7120 C   0  0  0  0  0  0  0  0  0  0  0  0
    1.9290   13.3950    0.0580 C   0  0  0  0  0  0  0  0  0  0  0  0
    1.1810   14.6810   -0.3420 C   0  0  0  0  0  0  0  0  0  0  0  0
    1.4870   15.0630   -1.7930 C   0  0  2  0  0  0  0  0  0  0  0  0
    3.0200   15.3670   -1.8950 C   0  0  0  0  0  0  0  0  0  0  0  0
    3.2625   18.2475   -1.9390 H   0  0  0  0  0  0  0  0  0  0  0  0
    2.7899   17.1831   -3.3066 H   0  0  0  0  0  0  0  0  0  0  0  0
    2.3070   18.9133   -3.3066 H   0  0  0  0  0  0  0  0  0  0  0  0
    0.4214   18.4124   -2.2268 H   0  0  0  0  0  0  0  0  0  0  0  0
    0.6754   16.9704    0.0337 H   0  0  0  0  0  0  0  0  0  0  0  0
    2.4007   17.5317   -0.1950 H   0  0  0  0  0  0  0  0  0  0  0  0
    1.6153   19.2458    1.0876 H   0  0  0  0  0  0  0  0  0  0  0  0
    1.2030   19.8600   -0.5675 H   0  0  0  0  0  0  0  0  0  0  0  0
   -0.1830   19.4546    1.6037 H   0  0  0  0  0  0  0  0  0  0  0  0
   -0.5670   21.0047   -1.7297 H   0  0  0  0  0  0  0  0  0  0  0  0
   -0.6923   19.3035   -2.2924 H   0  0  0  0  0  0  0  0  0  0  0  0
   -2.1459   20.3588   -2.2924 H   0  0  0  0  0  0  0  0  0  0  0  0
   -2.7420   20.1677    1.3178 H   0  0  0  0  0  0  0  0  0  0  0  0
   -2.9710   21.2295   -0.1129 H   0  0  0  0  0  0  0  0  0  0  0  0
   -3.6456   19.5647   -0.1129 H   0  0  0  0  0  0  0  0  0  0  0  0
   -0.3098   16.2949   -1.9697 H   0  0  0  0  0  0  0  0  0  0  0  0
   -0.1496   16.2699   -4.3810 H   0  0  0  0  0  0  0  0  0  0  0  0
    1.5680   16.7231   -4.3488 H   0  0  0  0  0  0  0  0  0  0  0  0
    0.5503   14.1036   -4.8719 H   0  0  0  0  0  0  0  0  0  0  0  0
    2.2314   14.4485   -4.4746 H   0  0  0  0  0  0  0  0  0  0  0  0
   -0.8648   13.5773   -1.6023 H   0  0  0  0  0  0  0  0  0  0  0  0
   -1.0977   14.4480   -3.1561 H   0  0  0  0  0  0  0  0  0  0  0  0
   -0.7810   12.6799   -3.1561 H   0  0  0  0  0  0  0  0  0  0  0  0
    2.8377   12.9381   -2.6802 H   0  0  0  0  0  0  0  0  0  0  0  0
    1.2224   11.8326   -4.3568 H   0  0  0  0  0  0  0  0  0  0  0  0
    2.4448   10.8327   -3.4110 H   0  0  0  0  0  0  0  0  0  0  0  0
    0.0332    9.8009   -3.6537 H   0  0  0  0  0  0  0  0  0  0  0  0
   -0.2249   12.1017   -0.3468 H   0  0  0  0  0  0  0  0  0  0  0  0
    1.5156    9.7109    0.5181 H   0  0  0  0  0  0  0  0  0  0  0  0
    1.0215   11.1307    1.5435 H   0  0  0  0  0  0  0  0  0  0  0  0
   -0.3179    9.1094    2.0352 H   0  0  0  0  0  0  0  0  0  0  0  0
   -1.3097   10.4730    1.3853 H   0  0  0  0  0  0  0  0  0  0  0  0
   -2.0292    8.4329    0.3457 H   0  0  0  0  0  0  0  0  0  0  0  0
    0.7670    8.1710   -0.2770 H   0  0  0  0  0  0  0  0  0  0  0  0
   -2.7266   10.6882   -0.0898 H   0  0  0  0  0  0  0  0  0  0  0  0
   -2.2975   11.4908   -1.6384 H   0  0  0  0  0  0  0  0  0  0  0  0
   -3.3901   10.0651   -1.6384 H   0  0  0  0  0  0  0  0  0  0  0  0
   -2.0116    7.6166   -1.9010 H   0  0  0  0  0  0  0  0  0  0  0  0
   -2.4825    8.9446   -3.0153 H   0  0  0  0  0  0  0  0  0  0  0  0
   -0.7954    8.3278   -3.0153 H   0  0  0  0  0  0  0  0  0  0  0  0
    3.2812   11.1889    0.3655 H   0  0  0  0  0  0  0  0  0  0  0  0
    2.9589   10.3241   -1.1756 H   0  0  0  0  0  0  0  0  0  0  0  0
    3.9569   11.8176   -1.1756 H   0  0  0  0  0  0  0  0  0  0  0  0
    1.5403   13.0747    1.0359 H   0  0  0  0  0  0  0  0  0  0  0  0
    2.9944   13.6685    0.0519 H   0  0  0  0  0  0  0  0  0  0  0  0
    0.0988   14.5166   -0.2336 H   0  0  0  0  0  0  0  0  0  0  0  0
    1.5133   15.4990    0.3141 H   0  0  0  0  0  0  0  0  0  0  0  0
    3.4451   15.4513   -0.8840 H   0  0  0  0  0  0  0  0  0  0  0  0
    3.5205   14.5506   -2.4363 H   0  0  0  0  0  0  0  0  0  0  0  0
    3.1711   16.3126   -2.4363 H   0  0  0  0  0  0  0  0  0  0  0  0
  1  2  1  0
  2  3  1  0
  3  4  1  0
  4  5  1  0
  5  6  1  0
  6  7  1  0
  7  8  1  0
  7  9  1  0
  2 10  1  0
 10 11  1  0
 11 12  1  0
 12 13  1  0
 13 14  1  1
 13 15  1  0
 15 16  1  0
 16 17  1  0
 17 18  2  0
 18 19  1  0
 19 20  1  0
 20 21  1  0
 21 22  1  0
 22 23  1  0
 22 24  1  0
 24 25  1  0
 24 26  1  0
 19 27  1  0
 27 28  1  6
 27 29  1  0
 29 30  1  0
 30 31  1  0
 31 32  1  1
  7  5  1  0
 31 10  1  0
 31 13  1  0
 27 15  1  0
 24 18  1  0
  1 33  1  0
  1 34  1  0
  1 35  1  0
  2 36  1  6
  3 37  1  0
  3 38  1  0
  4 39  1  0
  4 40  1  0
  5 41  1  1
  8 42  1  0
  8 43  1  0
  8 44  1  0
  9 45  1  0
  9 46  1  0
  9 47  1  0
 10 48  1  1
 11 49  1  0
 11 50  1  0
 12 51  1  0
 12 52  1  0
 14 53  1  0
 14 54  1  0
 14 55  1  0
 15 56  1  6
 16 57  1  0
 16 58  1  0
 17 59  1  0
 19 60  1  1
 20 61  1  0
 20 62  1  0
 21 63  1  0
 21 64  1  0
 22 65  1  1
 23 66  1  0
 25 67  1  0
 25 68  1  0
 25 69  1  0
 26 70  1  0
 26 71  1  0
 26 72  1  0
 28 73  1  0
 28 74  1  0
 28 75  1  0
 29 76  1  0
 29 77  1  0
 30 78  1  0
 30 79  1  0
 32 80  1  0
 32 81  1  0
 32 82  1  0
M  END
>  <meeko>  (3) 
{"is_sidechain": [false], "intermolecular_energy": 2.731, "internal_energy": -0.839}

$$$$
EPH_relaxed_0001_pdb2pqr_Repair_378_r2_0001_out
     RDKit          3D

 82 86  0  0  0  0  0  0  0  0999 V2000
    0.3820   18.4620   -0.1500 C   0  0  0  0  0  0  0  0  0  0  0  0
    1.4680   17.3950   -0.3060 C   0  0  2  0  0  0  0  0  0  0  0  0
    2.7120   17.9340   -1.0400 C   0  0  0  0  0  0  0  0  0  0  0  0
    3.9300   18.1210   -0.1310 C   0  0  0  0  0  0  0  0  0  0  0  0
    3.5370   18.6190    1.2270 C   0  0  2  0  0  0  0  0  0  0  0  0
    3.7590   20.0190    1.4390 O   0  0  0  0  0  0  0  0  0  0  0  0
    4.5340   19.1250    2.2530 C   0  0  0  0  0  0  0  0  0  0  0  0
    6.0020   19.1570    1.9650 C   0  0  0  0  0  0  0  0  0  0  0  0
    4.1360   19.1260    3.6970 C   0  0  0  0  0  0  0  0  0  0  0  0
    0.9080   16.1880   -1.0490 C   0  0  1  0  0  0  0  0  0  0  0  0
    0.8130   16.4210   -2.5810 C   0  0  0  0  0  0  0  0  0  0  0  0
    1.1140   15.0600   -3.2600 C   0  0  0  0  0  0  0  0  0  0  0  0
    1.0440   14.0270   -2.1110 C   0  0  1  0  0  0  0  0  0  0  0  0
   -0.4790   13.7390   -1.9230 C   0  0  0  0  0  0  0  0  0  0  0  0
    1.8590   12.7090   -2.3160 C   0  0  2  0  0  0  0  0  0  0  0  0
    1.4140   11.8440   -3.5080 C   0  0  0  0  0  0  0  0  0  0  0  0
    0.3720   10.8200   -3.1990 C   0  0  0  0  0  0  0  0  0  0  0  0
    0.0220   10.4080   -1.9670 C   0  0  0  0  0  0  0  0  0  0  0  0
    0.7670   10.9150   -0.7250 C   0  0  1  0  0  0  0  0  0  0  0  0
    1.0990    9.7180    0.2040 C   0  0  0  0  0  0  0  0  0  0  0  0
   -0.1340    8.8940    0.5600 C   0  0  0  0  0  0  0  0  0  0  0  0
   -0.8140    8.3590   -0.6980 C   0  0  2  0  0  0  0  0  0  0  0  0
    0.0550    7.4090   -1.3230 O   0  0  0  0  0  0  0  0  0  0  0  0
   -1.1870    9.4740   -1.7140 C   0  0  0  0  0  0  0  0  0  0  0  0
   -2.3500   10.3260   -1.1480 C   0  0  0  0  0  0  0  0  0  0  0  0
   -1.7350    8.7890   -2.9950 C   0  0  0  0  0  0  0  0  0  0  0  0
    2.0290   11.8410   -1.0040 C   0  0  1  0  0  0  0  0  0  0  0  0
    3.2980   10.9600   -1.2130 C   0  0  0  0  0  0  0  0  0  0  0  0
    2.3070   12.7260    0.2680 C   0  0  0  0  0  0  0  0  0  0  0  0
    1.5620   14.0720    0.3550 C   0  0  0  0  0  0  0  0  0  0  0  0
    1.7010   14.8610   -0.9510 C   0  0  2  0  0  0  0  0  0  0  0  0
    3.2200   15.1840   -1.1550 C   0  0  0  0  0  0  0  0  0  0  0  0
    0.1972   18.6435    0.9191 H   0  0  0  0  0  0  0  0  0  0  0  0
    0.7136   19.3953   -0.6285 H   0  0  0  0  0  0  0  0  0  0  0  0
   -0.5453   18.1140   -0.6285 H   0  0  0  0  0  0  0  0  0  0  0  0
    1.7847   17.0963    0.7042 H   0  0  0  0  0  0  0  0  0  0  0  0
    2.9793   17.2248   -1.8373 H   0  0  0  0  0  0  0  0  0  0  0  0
    2.4484   18.9271   -1.4328 H   0  0  0  0  0  0  0  0  0  0  0  0
    4.4446   17.1550   -0.0213 H   0  0  0  0  0  0  0  0  0  0  0  0
    4.5908   18.8695   -0.5927 H   0  0  0  0  0  0  0  0  0  0  0  0
    2.7249   17.8796    1.2890 H   0  0  0  0  0  0  0  0  0  0  0  0
    6.5613   19.1692    2.9121 H   0  0  0  0  0  0  0  0  0  0  0  0
    6.2815   18.2647    1.3856 H   0  0  0  0  0  0  0  0  0  0  0  0
    6.2424   20.0606    1.3856 H   0  0  0  0  0  0  0  0  0  0  0  0
    5.0384   19.1237    4.3261 H   0  0  0  0  0  0  0  0  0  0  0  0
    3.5409   20.0256    3.9127 H   0  0  0  0  0  0  0  0  0  0  0  0
    3.5364   18.2294    3.9127 H   0  0  0  0  0  0  0  0  0  0  0  0
   -0.0587   16.0871   -0.5339 H   0  0  0  0  0  0  0  0  0  0  0  0
   -0.1971   16.7634   -2.8502 H   0  0  0  0  0  0  0  0  0  0  0  0
    1.5262   17.1919   -2.9082 H   0  0  0  0  0  0  0  0  0  0  0  0
    0.3616   14.8355   -4.0304 H   0  0  0  0  0  0  0  0  0  0  0  0
    2.0898   15.0538   -3.7677 H   0  0  0  0  0  0  0  0  0  0  0  0
   -0.7140   13.6946   -0.8493 H   0  0  0  0  0  0  0  0  0  0  0  0
   -1.0649   14.5423   -2.3936 H   0  0  0  0  0  0  0  0  0  0  0  0
   -0.7311   12.7773   -2.3936 H   0  0  0  0  0  0  0  0  0  0  0  0
    2.8572   13.0889   -2.5794 H   0  0  0  0  0  0  0  0  0  0  0  0
    1.0131   12.5137   -4.2831 H   0  0  0  0  0  0  0  0  0  0  0  0
    2.3054   11.2843   -3.8275 H   0  0  0  0  0  0  0  0  0  0  0  0
   -0.1539   10.3639   -4.0507 H   0  0  0  0  0  0  0  0  0  0  0  0
    0.0763   11.6023   -0.2146 H   0  0  0  0  0  0  0  0  0  0  0  0
    1.8234    9.0661   -0.3062 H   0  0  0  0  0  0  0  0  0  0  0  0
    1.5096   10.1255    1.1396 H   0  0  0  0  0  0  0  0  0  0  0  0
    0.1693    8.0472    1.1932 H   0  0  0  0  0  0  0  0  0  0  0  0
   -0.8451    9.5396    1.0962 H   0  0  0  0  0  0  0  0  0  0  0  0
   -1.7589    7.8890   -0.3879 H   0  0  0  0  0  0  0  0  0  0  0  0
    0.9690    7.6580   -1.1040 H   0  0  0  0  0  0  0  0  0  0  0  0
   -2.3196   10.3037   -0.0486 H   0  0  0  0  0  0  0  0  0  0  0  0
   -2.2474   11.3642   -1.4967 H   0  0  0  0  0  0  0  0  0  0  0  0
   -3.3090    9.9152   -1.4967 H   0  0  0  0  0  0  0  0  0  0  0  0
   -2.3990    7.9590   -2.7116 H   0  0  0  0  0  0  0  0  0  0  0  0
   -2.2985    9.5224   -3.5905 H   0  0  0  0  0  0  0  0  0  0  0  0
   -0.8958    8.4002   -3.5905 H   0  0  0  0  0  0  0  0  0  0  0  0
    3.7107   10.6735   -0.2344 H   0  0  0  0  0  0  0  0  0  0  0  0
    3.0272   10.0547   -1.7760 H   0  0  0  0  0  0  0  0  0  0  0  0
    4.0516   11.5302   -1.7760 H   0  0  0  0  0  0  0  0  0  0  0  0
    2.0288   12.1340    1.1524 H   0  0  0  0  0  0  0  0  0  0  0  0
    3.3729   12.9908    0.2067 H   0  0  0  0  0  0  0  0  0  0  0  0
    0.4961   13.8815    0.5486 H   0  0  0  0  0  0  0  0  0  0  0  0
    2.0017   14.6642    1.1711 H   0  0  0  0  0  0  0  0  0  0  0  0
    3.7077   15.2877   -0.1745 H   0  0  0  0  0  0  0  0  0  0  0  0
    3.6963   14.3671   -1.7169 H   0  0  0  0  0  0  0  0  0  0  0  0
    3.3227   16.1241   -1.7169 H   0  0  0  0  0  0  0  0  0  0  0  0
  1  2  1  0
  2  3  1  0
  3  4  1  0
  4  5  1  0
  5  6  1  0
  6  7  1  0
  7  8  1  0
  7  9  1  0
  2 10  1  0
 10 11  1  0
 11 12  1  0
 12 13  1  0
 13 14  1  1
 13 15  1  0
 15 16  1  0
 16 17  1  0
 17 18  2  0
 18 19  1  0
 19 20  1  0
 20 21  1  0
 21 22  1  0
 22 23  1  0
 22 24  1  0
 24 25  1  0
 24 26  1  0
 19 27  1  0
 27 28  1  6
 27 29  1  0
 29 30  1  0
 30 31  1  0
 31 32  1  6
  7  5  1  0
 31 10  1  0
 31 13  1  0
 27 15  1  0
 24 18  1  0
  1 33  1  0
  1 34  1  0
  1 35  1  0
  2 36  1  1
  3 37  1  0
  3 38  1  0
  4 39  1  0
  4 40  1  0
  5 41  1  1
  8 42  1  0
  8 43  1  0
  8 44  1  0
  9 45  1  0
  9 46  1  0
  9 47  1  0
 10 48  1  1
 11 49  1  0
 11 50  1  0
 12 51  1  0
 12 52  1  0
 14 53  1  0
 14 54  1  0
 14 55  1  0
 15 56  1  6
 16 57  1  0
 16 58  1  0
 17 59  1  0
 19 60  1  1
 20 61  1  0
 20 62  1  0
 21 63  1  0
 21 64  1  0
 22 65  1  1
 23 66  1  0
 25 67  1  0
 25 68  1  0
 25 69  1  0
 26 70  1  0
 26 71  1  0
 26 72  1  0
 28 73  1  0
 28 74  1  0
 28 75  1  0
 29 76  1  0
 29 77  1  0
 30 78  1  0
 30 79  1  0
 32 80  1  0
 32 81  1  0
 32 82  1  0
M  END
>  <meeko>  (4) 
{"is_sidechain": [false], "intermolecular_energy": 2.731, "internal_energy": -0.839}

$$$$
EPH_relaxed_0001_pdb2pqr_Repair_378_r2_0001_out
     RDKit          3D

 82 86  0  0  0  0  0  0  0  0999 V2000
    3.7560   17.9880    0.4080 C   0  0  0  0  0  0  0  0  0  0  0  0
    2.6330   18.4230   -0.5390 C   0  0  2  0  0  0  0  0  0  0  0  0
    1.9070   19.6870   -0.0360 C   0  0  0  0  0  0  0  0  0  0  0  0
    0.7590   19.3930    0.9330 C   0  0  0  0  0  0  0  0  0  0  0  0
   -0.4990   20.1040    0.5340 C   0  0  2  0  0  0  0  0  0  0  0  0
   -1.5040   20.1620    1.5550 O   0  0  0  0  0  0  0  0  0  0  0  0
   -1.8390   19.4100    0.3770 C   0  0  0  0  0  0  0  0  0  0  0  0
   -1.9890   17.9400    0.6150 C   0  0  0  0  0  0  0  0  0  0  0  0
   -2.8850   20.0590   -0.4750 C   0  0  0  0  0  0  0  0  0  0  0  0
    1.6350   17.2860   -0.7180 C   0  0  1  0  0  0  0  0  0  0  0  0
    0.4010   17.7010   -1.5640 C   0  0  0  0  0  0  0  0  0  0  0  0
   -0.0140   16.4570   -2.3900 C   0  0  0  0  0  0  0  0  0  0  0  0
    0.7730   15.2870   -1.7560 C   0  0  1  0  0  0  0  0  0  0  0  0
   -0.0560   14.8830   -0.4960 C   0  0  0  0  0  0  0  0  0  0  0  0
    1.0510   14.0580   -2.6820 C   0  0  2  0  0  0  0  0  0  0  0  0
   -0.2040   13.3230   -3.1850 C   0  0  0  0  0  0  0  0  0  0  0  0
   -0.6780   12.2050   -2.3170 C   0  0  0  0  0  0  0  0  0  0  0  0
    0.0330   11.6210   -1.3350 C   0  0  0  0  0  0  0  0  0  0  0  0
    1.4930   12.0150   -1.0790 C   0  0  1  0  0  0  0  0  0  0  0  0
    2.3540   10.7350   -0.9140 C   0  0  0  0  0  0  0  0  0  0  0  0
    1.8070    9.7970    0.1570 C   0  0  0  0  0  0  0  0  0  0  0  0
    0.3730    9.3810   -0.1630 C   0  0  2  0  0  0  0  0  0  0  0  0
    0.3800    8.5730   -1.3440 O   0  0  0  0  0  0  0  0  0  0  0  0
   -0.5850   10.5890   -0.3610 C   0  0  0  0  0  0  0  0  0  0  0  0
   -0.8290   11.2890    0.9990 C   0  0  0  0  0  0  0  0  0  0  0  0
   -1.9630   10.0350   -0.8170 C   0  0  0  0  0  0  0  0  0  0  0  0
    2.1240   13.0460   -2.1110 C   0  0  1  0  0  0  0  0  0  0  0  0
    2.7100   12.2800   -3.3370 C   0  0  0  0  0  0  0  0  0  0  0  0
    3.3370   13.7820   -1.4270 C   0  0  0  0  0  0  0  0  0  0  0  0
    3.0120   15.0560   -0.6250 C   0  0  0  0  0  0  0  0  0  0  0  0
    2.1330   16.0090   -1.4410 C   0  0  2  0  0  0  0  0  0  0  0  0
    2.9490   16.4500   -2.7030 C   0  0  0  0  0  0  0  0  0  0  0  0
    3.4270   18.1154    1.4499 H   0  0  0  0  0  0  0  0  0  0  0  0
    3.9992   16.9306    0.2270 H   0  0  0  0  0  0  0  0  0  0  0  0
    4.6481   18.6056    0.2270 H   0  0  0  0  0  0  0  0  0  0  0  0
    3.0931   18.6696   -1.5072 H   0  0  0  0  0  0  0  0  0  0  0  0
    2.6396   20.3270    0.4775 H   0  0  0  0  0  0  0  0  0  0  0  0
    1.4665   20.1766   -0.9170 H   0  0  0  0  0  0  0  0  0  0  0  0
    0.5687   18.3096    0.9420 H   0  0  0  0  0  0  0  0  0  0  0  0
    1.0528   19.7499    1.9312 H   0  0  0  0  0  0  0  0  0  0  0  0
    0.0645   20.7782   -0.1277 H   0  0  0  0  0  0  0  0  0  0  0  0
   -2.0090   17.7439    1.6972 H   0  0  0  0  0  0  0  0  0  0  0  0
   -2.9276   17.5890    0.1614 H   0  0  0  0  0  0  0  0  0  0  0  0
   -1.1406   17.4067    0.1614 H   0  0  0  0  0  0  0  0  0  0  0  0
   -3.6427   20.5291    0.1691 H   0  0  0  0  0  0  0  0  0  0  0  0
   -2.4169   20.8255   -1.1101 H   0  0  0  0  0  0  0  0  0  0  0  0
   -3.3639   19.2992   -1.1101 H   0  0  0  0  0  0  0  0  0  0  0  0
    1.4205   17.0622    0.3374 H   0  0  0  0  0  0  0  0  0  0  0  0
   -0.4235   18.0102   -0.9048 H   0  0  0  0  0  0  0  0  0  0  0  0
    0.6404   18.5497   -2.2216 H   0  0  0  0  0  0  0  0  0  0  0  0
   -1.0974   16.2833   -2.3125 H   0  0  0  0  0  0  0  0  0  0  0  0
    0.2060   16.5754   -3.4613 H   0  0  0  0  0  0  0  0  0  0  0  0
    0.5016   15.1548    0.4124 H   0  0  0  0  0  0  0  0  0  0  0  0
   -1.0203   15.4122   -0.5064 H   0  0  0  0  0  0  0  0  0  0  0  0
   -0.2334   13.7974   -0.5064 H   0  0  0  0  0  0  0  0  0  0  0  0
    1.4976   14.5282   -3.5705 H   0  0  0  0  0  0  0  0  0  0  0  0
   -1.0182   14.0580   -3.2678 H   0  0  0  0  0  0  0  0  0  0  0  0
    0.0753   12.8656   -4.1456 H   0  0  0  0  0  0  0  0  0  0  0  0
   -1.6952   11.8262   -2.4952 H   0  0  0  0  0  0  0  0  0  0  0  0
    1.4929   12.5881   -0.1401 H   0  0  0  0  0  0  0  0  0  0  0  0
    2.3766   10.1989   -1.8743 H   0  0  0  0  0  0  0  0  0  0  0  0
    3.3612   11.0478   -0.6015 H   0  0  0  0  0  0  0  0  0  0  0  0
    2.4400    8.8987    0.2063 H   0  0  0  0  0  0  0  0  0  0  0  0
    1.8125   10.3247    1.1221 H   0  0  0  0  0  0  0  0  0  0  0  0
   -0.0080    8.8171    0.7012 H   0  0  0  0  0  0  0  0  0  0  0  0
    1.2700    8.1940   -1.4350 H   0  0  0  0  0  0  0  0  0  0  0  0
   -0.5870   10.5948    1.8173 H   0  0  0  0  0  0  0  0  0  0  0  0
   -0.1885   12.1803    1.0728 H   0  0  0  0  0  0  0  0  0  0  0  0
   -1.8847   11.5890    1.0728 H   0  0  0  0  0  0  0  0  0  0  0  0
   -2.5706    9.7907    0.0668 H   0  0  0  0  0  0  0  0  0  0  0  0
   -2.4820   10.7943   -1.4203 H   0  0  0  0  0  0  0  0  0  0  0  0
   -1.8120    9.1277   -1.4203 H   0  0  0  0  0  0  0  0  0  0  0  0
    3.3430   11.4526   -2.9840 H   0  0  0  0  0  0  0  0  0  0  0  0
    1.8868   11.8779   -3.9458 H   0  0  0  0  0  0  0  0  0  0  0  0
    3.3135   12.9694   -3.9458 H   0  0  0  0  0  0  0  0  0  0  0  0
    3.8146   13.0685   -0.7394 H   0  0  0  0  0  0  0  0  0  0  0  0
    3.9752   14.1189   -2.2572 H   0  0  0  0  0  0  0  0  0  0  0  0
    2.4798   14.7754    0.2959 H   0  0  0  0  0  0  0  0  0  0  0  0
    3.9550   15.5686   -0.3841 H   0  0  0  0  0  0  0  0  0  0  0  0
    3.8752   16.9506   -2.3843 H   0  0  0  0  0  0  0  0  0  0  0  0
    3.1995   15.5645   -3.3055 H   0  0  0  0  0  0  0  0  0  0  0  0
    2.3454   17.1447   -3.3055 H   0  0  0  0  0  0  0  0  0  0  0  0
  1  2  1  0
  2  3  1  0
  3  4  1  0
  4  5  1  0
  5  6  1  0
  6  7  1  0
  7  8  1  0
  7  9  1  0
  2 10  1  0
 10 11  1  0
 11 12  1  0
 12 13  1  0
 13 14  1  1
 13 15  1  0
 15 16  1  0
 16 17  1  0
 17 18  2  0
 18 19  1  0
 19 20  1  0
 20 21  1  0
 21 22  1  0
 22 23  1  0
 22 24  1  0
 24 25  1  0
 24 26  1  0
 19 27  1  0
 27 28  1  6
 27 29  1  0
 29 30  1  0
 30 31  1  0
 31 32  1  6
  7  5  1  0
 31 10  1  0
 31 13  1  0
 27 15  1  0
 24 18  1  0
  1 33  1  0
  1 34  1  0
  1 35  1  0
  2 36  1  6
  3 37  1  0
  3 38  1  0
  4 39  1  0
  4 40  1  0
  5 41  1  6
  8 42  1  0
  8 43  1  0
  8 44  1  0
  9 45  1  0
  9 46  1  0
  9 47  1  0
 10 48  1  1
 11 49  1  0
 11 50  1  0
 12 51  1  0
 12 52  1  0
 14 53  1  0
 14 54  1  0
 14 55  1  0
 15 56  1  6
 16 57  1  0
 16 58  1  0
 17 59  1  0
 19 60  1  1
 20 61  1  0
 20 62  1  0
 21 63  1  0
 21 64  1  0
 22 65  1  1
 23 66  1  0
 25 67  1  0
 25 68  1  0
 25 69  1  0
 26 70  1  0
 26 71  1  0
 26 72  1  0
 28 73  1  0
 28 74  1  0
 28 75  1  0
 29 76  1  0
 29 77  1  0
 30 78  1  0
 30 79  1  0
 32 80  1  0
 32 81  1  0
 32 82  1  0
M  END
>  <meeko>  (5) 
{"is_sidechain": [false], "intermolecular_energy": 2.731, "internal_energy": -0.839}

$$$$
EPH_relaxed_0001_pdb2pqr_Repair_378_r2_0001_out
     RDKit          3D

 82 86  0  0  0  0  0  0  0  0999 V2000
    0.4430    8.7970   -2.3480 C   0  0  0  0  0  0  0  0  0  0  0  0
    1.1790    9.9370   -3.0570 C   0  0  2  0  0  0  0  0  0  0  0  0
    2.6820    9.9630   -2.7110 C   0  0  0  0  0  0  0  0  0  0  0  0
    3.5580   10.5590   -3.8160 C   0  0  0  0  0  0  0  0  0  0  0  0
    4.9540   10.8180   -3.3360 C   0  0  2  0  0  0  0  0  0  0  0  0
    5.5410   12.0300   -3.8280 O   0  0  0  0  0  0  0  0  0  0  0  0
    6.1670   10.8070   -4.2480 C   0  0  0  0  0  0  0  0  0  0  0  0
    6.0400   10.5300   -5.7130 C   0  0  0  0  0  0  0  0  0  0  0  0
    7.5170   10.5810   -3.6410 C   0  0  0  0  0  0  0  0  0  0  0  0
    0.5390   11.2730   -2.6970 C   0  0  1  0  0  0  0  0  0  0  0  0
   -0.8390   11.1070   -2.0040 C   0  0  0  0  0  0  0  0  0  0  0  0
   -0.9580   12.2510   -0.9650 C   0  0  0  0  0  0  0  0  0  0  0  0
    0.1930   13.2220   -1.3200 C   0  0  1  0  0  0  0  0  0  0  0  0
   -0.3540   14.0740   -2.5070 C   0  0  0  0  0  0  0  0  0  0  0  0
    0.7200   14.1230   -0.1560 C   0  0  2  0  0  0  0  0  0  0  0  0
   -0.3120   15.1020    0.4290 C   0  0  0  0  0  0  0  0  0  0  0  0
   -0.3550   16.4470   -0.2180 C   0  0  0  0  0  0  0  0  0  0  0  0
    0.5890   16.9530   -1.0330 C   0  0  0  0  0  0  0  0  0  0  0  0
    1.8910   16.1870   -1.3010 C   0  0  1  0  0  0  0  0  0  0  0  0
    3.0970   17.1540   -1.1720 C   0  0  0  0  0  0  0  0  0  0  0  0
    2.9540   18.3890   -2.0570 C   0  0  0  0  0  0  0  0  0  0  0  0
    1.6770   19.1550   -1.7210 C   0  0  2  0  0  0  0  0  0  0  0  0
    1.7990   19.7000   -0.4040 O   0  0  0  0  0  0  0  0  0  0  0  0
    0.3960   18.2800   -1.8080 C   0  0  0  0  0  0  0  0  0  0  0  0
    0.0970   17.9390   -3.2890 C   0  0  0  0  0  0  0  0  0  0  0  0
   -0.8010   19.1340   -1.3090 C   0  0  0  0  0  0  0  0  0  0  0  0
    2.0920   14.8480   -0.4690 C   0  0  1  0  0  0  0  0  0  0  0  0
    2.7480   15.1700    0.9080 C   0  0  0  0  0  0  0  0  0  0  0  0
    3.1010   13.9130   -1.2340 C   0  0  0  0  0  0  0  0  0  0  0  0
    2.5040   12.9600   -2.2870 C   0  0  0  0  0  0  0  0  0  0  0  0
    1.3110   12.1890   -1.7150 C   0  0  2  0  0  0  0  0  0  0  0  0
    1.8340   11.3050   -0.5320 C   0  0  0  0  0  0  0  0  0  0  0  0
    0.5272    8.9275   -1.2590 H   0  0  0  0  0  0  0  0  0  0  0  0
   -0.6181    8.8094   -2.6378 H   0  0  0  0  0  0  0  0  0  0  0  0
    0.8910    7.8351   -2.6378 H   0  0  0  0  0  0  0  0  0  0  0  0
    1.0924    9.7628   -4.1397 H   0  0  0  0  0  0  0  0  0  0  0  0
    2.8180   10.5625   -1.7988 H   0  0  0  0  0  0  0  0  0  0  0  0
    2.9992    8.9182   -2.5779 H   0  0  0  0  0  0  0  0  0  0  0  0
    3.5959    9.8546   -4.6600 H   0  0  0  0  0  0  0  0  0  0  0  0
    3.1171   11.5186   -4.1237 H   0  0  0  0  0  0  0  0  0  0  0  0
    4.7444   10.3152   -2.3804 H   0  0  0  0  0  0  0  0  0  0  0  0
    5.5857    9.5391   -5.8608 H   0  0  0  0  0  0  0  0  0  0  0  0
    5.4040   11.2979   -6.1776 H   0  0  0  0  0  0  0  0  0  0  0  0
    7.0369   10.5493   -6.1776 H   0  0  0  0  0  0  0  0  0  0  0  0
    7.4329   10.5951   -2.5443 H   0  0  0  0  0  0  0  0  0  0  0  0
    7.9066    9.6051   -3.9664 H   0  0  0  0  0  0  0  0  0  0  0  0
    8.2032   11.3768   -3.9664 H   0  0  0  0  0  0  0  0  0  0  0  0
    0.5036   11.7359   -3.6942 H   0  0  0  0  0  0  0  0  0  0  0  0
   -1.6477   11.1834   -2.7458 H   0  0  0  0  0  0  0  0  0  0  0  0
   -0.9211   10.1231   -1.5191 H   0  0  0  0  0  0  0  0  0  0  0  0
   -1.9319   12.7549   -1.0521 H   0  0  0  0  0  0  0  0  0  0  0  0
   -0.8897   11.8836    0.0696 H   0  0  0  0  0  0  0  0  0  0  0  0
   -0.9088   14.9382   -2.1129 H   0  0  0  0  0  0  0  0  0  0  0  0
    0.4864   14.4275   -3.1225 H   0  0  0  0  0  0  0  0  0  0  0  0
   -1.0252   13.4570   -3.1225 H   0  0  0  0  0  0  0  0  0  0  0  0
    0.9200   13.3897    0.6391 H   0  0  0  0  0  0  0  0  0  0  0  0
   -1.3078   14.6453    0.3297 H   0  0  0  0  0  0  0  0  0  0  0  0
   -0.0085   15.2761    1.4719 H   0  0  0  0  0  0  0  0  0  0  0  0
   -1.2323   17.0775   -0.0111 H   0  0  0  0  0  0  0  0  0  0  0  0
    1.8179   15.8166   -2.3342 H   0  0  0  0  0  0  0  0  0  0  0  0
    3.1782   17.4786   -0.1241 H   0  0  0  0  0  0  0  0  0  0  0  0
    3.9964   16.6115   -1.4986 H   0  0  0  0  0  0  0  0  0  0  0  0
    3.8210   19.0474   -1.8993 H   0  0  0  0  0  0  0  0  0  0  0  0
    2.9035   18.0650   -3.1070 H   0  0  0  0  0  0  0  0  0  0  0  0
    1.5637   19.9513   -2.4714 H   0  0  0  0  0  0  0  0  0  0  0  0
    2.1260   18.9930    0.1780 H   0  0  0  0  0  0  0  0  0  0  0  0
   -0.6276   17.1127   -3.3359 H   0  0  0  0  0  0  0  0  0  0  0  0
   -0.3222   18.8232   -3.7914 H   0  0  0  0  0  0  0  0  0  0  0  0
    1.0284   17.6389   -3.7914 H   0  0  0  0  0  0  0  0  0  0  0  0
   -0.8123   19.1421   -0.2091 H   0  0  0  0  0  0  0  0  0  0  0  0
   -0.6977   20.1636   -1.6822 H   0  0  0  0  0  0  0  0  0  0  0  0
   -1.7409   18.7013   -1.6822 H   0  0  0  0  0  0  0  0  0  0  0  0
    2.0799   14.8421    1.7180 H   0  0  0  0  0  0  0  0  0  0  0  0
    3.7092   14.6413    0.9888 H   0  0  0  0  0  0  0  0  0  0  0  0
    2.9177   16.2538    0.9888 H   0  0  0  0  0  0  0  0  0  0  0  0
    3.8306   14.5584   -1.7450 H   0  0  0  0  0  0  0  0  0  0  0  0
    3.5275   13.2567   -0.4611 H   0  0  0  0  0  0  0  0  0  0  0  0
    2.1702   13.5469   -3.1554 H   0  0  0  0  0  0  0  0  0  0  0  0
    3.2781   12.2375   -2.5851 H   0  0  0  0  0  0  0  0  0  0  0  0
    1.5577   11.7721    0.4248 H   0  0  0  0  0  0  0  0  0  0  0  0
    1.3828   10.3038   -0.5951 H   0  0  0  0  0  0  0  0  0  0  0  0
    2.9288   11.2184   -0.5951 H   0  0  0  0  0  0  0  0  0  0  0  0
  1  2  1  0
  2  3  1  0
  3  4  1  0
  4  5  1  0
  5  6  1  0
  6  7  1  0
  7  8  1  0
  7  9  1  0
  2 10  1  0
 10 11  1  0
 11 12  1  0
 12 13  1  0
 13 14  1  6
 13 15  1  0
 15 16  1  0
 16 17  1  0
 17 18  2  0
 18 19  1  0
 19 20  1  0
 20 21  1  0
 21 22  1  0
 22 23  1  0
 22 24  1  0
 24 25  1  0
 24 26  1  0
 19 27  1  0
 27 28  1  1
 27 29  1  0
 29 30  1  0
 30 31  1  0
 31 32  1  1
  7  5  1  0
 31 10  1  0
 31 13  1  0
 27 15  1  0
 24 18  1  0
  1 33  1  0
  1 34  1  0
  1 35  1  0
  2 36  1  6
  3 37  1  0
  3 38  1  0
  4 39  1  0
  4 40  1  0
  5 41  1  1
  8 42  1  0
  8 43  1  0
  8 44  1  0
  9 45  1  0
  9 46  1  0
  9 47  1  0
 10 48  1  6
 11 49  1  0
 11 50  1  0
 12 51  1  0
 12 52  1  0
 14 53  1  0
 14 54  1  0
 14 55  1  0
 15 56  1  1
 16 57  1  0
 16 58  1  0
 17 59  1  0
 19 60  1  6
 20 61  1  0
 20 62  1  0
 21 63  1  0
 21 64  1  0
 22 65  1  6
 23 66  1  0
 25 67  1  0
 25 68  1  0
 25 69  1  0
 26 70  1  0
 26 71  1  0
 26 72  1  0
 28 73  1  0
 28 74  1  0
 28 75  1  0
 29 76  1  0
 29 77  1  0
 30 78  1  0
 30 79  1  0
 32 80  1  0
 32 81  1  0
 32 82  1  0
M  END
>  <meeko>  (6) 
{"is_sidechain": [false], "intermolecular_energy": 2.731, "internal_energy": -0.839}

$$$$
EPH_relaxed_0001_pdb2pqr_Repair_378_r2_0001_out
     RDKit          3D

 82 86  0  0  0  0  0  0  0  0999 V2000
   -4.9980    5.9940   -2.2400 C   0  0  0  0  0  0  0  0  0  0  0  0
   -5.4250    7.4510   -2.0400 C   0  0  2  0  0  0  0  0  0  0  0  0
   -5.2440    7.9150   -0.5810 C   0  0  0  0  0  0  0  0  0  0  0  0
   -4.1870    9.0090   -0.4100 C   0  0  0  0  0  0  0  0  0  0  0  0
   -2.8250    8.5330   -0.8150 C   0  0  2  0  0  0  0  0  0  0  0  0
   -1.7820    8.8350    0.1210 O   0  0  0  0  0  0  0  0  0  0  0  0
   -1.6820    9.4670   -1.1660 C   0  0  0  0  0  0  0  0  0  0  0  0
   -1.8490   10.9540   -1.1280 C   0  0  0  0  0  0  0  0  0  0  0  0
   -0.5620    8.9420   -2.0100 C   0  0  0  0  0  0  0  0  0  0  0  0
   -6.8770    7.6310   -2.4670 C   0  0  1  0  0  0  0  0  0  0  0  0
   -7.2040    6.8970   -3.7950 C   0  0  0  0  0  0  0  0  0  0  0  0
   -8.6640    6.3880   -3.6770 C   0  0  0  0  0  0  0  0  0  0  0  0
   -9.2340    7.1230   -2.4410 C   0  0  1  0  0  0  0  0  0  0  0  0
   -9.6360    8.5380   -2.9660 C   0  0  0  0  0  0  0  0  0  0  0  0
  -10.4230    6.4210   -1.7070 C   0  0  2  0  0  0  0  0  0  0  0  0
  -11.6970    6.2440   -2.5500 C   0  0  0  0  0  0  0  0  0  0  0  0
  -12.6780    7.3670   -2.4670 C   0  0  0  0  0  0  0  0  0  0  0  0
  -12.6790    8.3370   -1.5340 C   0  0  0  0  0  0  0  0  0  0  0  0
  -11.6800    8.3120   -0.3710 C   0  0  1  0  0  0  0  0  0  0  0  0
  -12.4250    8.6020    0.9580 C   0  0  0  0  0  0  0  0  0  0  0  0
  -13.2290    9.8980    0.9070 C   0  0  0  0  0  0  0  0  0  0  0  0
  -14.2510    9.8610   -0.2260 C   0  0  2  0  0  0  0  0  0  0  0  0
  -15.2360    8.8670    0.0740 O   0  0  0  0  0  0  0  0  0  0  0  0
  -13.6170    9.5670   -1.6140 C   0  0  0  0  0  0  0  0  0  0  0  0
  -12.7820   10.7870   -2.0740 C   0  0  0  0  0  0  0  0  0  0  0  0
  -14.7700    9.4170   -2.6430 C   0  0  0  0  0  0  0  0  0  0  0  0
  -10.7510    7.0250   -0.2820 C   0  0  1  0  0  0  0  0  0  0  0  0
  -11.4750    5.9020    0.5220 C   0  0  0  0  0  0  0  0  0  0  0  0
   -9.4510    7.3840    0.5310 C   0  0  0  0  0  0  0  0  0  0  0  0
   -8.2690    7.9630   -0.2700 C   0  0  0  0  0  0  0  0  0  0  0  0
   -7.9720    7.1060   -1.5050 C   0  0  2  0  0  0  0  0  0  0  0  0
   -7.5430    5.6840   -1.0080 C   0  0  0  0  0  0  0  0  0  0  0  0
   -4.8577    5.5152   -1.2597 H   0  0  0  0  0  0  0  0  0  0  0  0
   -5.7767    5.4575   -2.8020 H   0  0  0  0  0  0  0  0  0  0  0  0
   -4.0529    5.9627   -2.8020 H   0  0  0  0  0  0  0  0  0  0  0  0
   -4.7725    8.0753   -2.6681 H   0  0  0  0  0  0  0  0  0  0  0  0
   -6.2072    8.3029   -0.2179 H   0  0  0  0  0  0  0  0  0  0  0  0
   -4.8995    7.0425   -0.0065 H   0  0  0  0  0  0  0  0  0  0  0  0
   -4.4630    9.8718   -1.0339 H   0  0  0  0  0  0  0  0  0  0  0  0
   -4.1505    9.2868    0.6537 H   0  0  0  0  0  0  0  0  0  0  0  0
   -3.2577    7.6676   -1.3384 H   0  0  0  0  0  0  0  0  0  0  0  0
   -1.8870   11.2921   -0.0819 H   0  0  0  0  0  0  0  0  0  0  0  0
   -0.9988   11.4316   -1.6371 H   0  0  0  0  0  0  0  0  0  0  0  0
   -2.7839   11.2311   -1.6371 H   0  0  0  0  0  0  0  0  0  0  0  0
    0.2415    8.5654   -1.3600 H   0  0  0  0  0  0  0  0  0  0  0  0
   -0.9336    8.1243   -2.6450 H   0  0  0  0  0  0  0  0  0  0  0  0
   -0.1712    9.7507   -2.6450 H   0  0  0  0  0  0  0  0  0  0  0  0
   -6.9185    8.7289   -2.5208 H   0  0  0  0  0  0  0  0  0  0  0  0
   -7.1121    7.5906   -4.6438 H   0  0  0  0  0  0  0  0  0  0  0  0
   -6.5077    6.0630   -3.9672 H   0  0  0  0  0  0  0  0  0  0  0  0
   -9.2385    6.6431   -4.5797 H   0  0  0  0  0  0  0  0  0  0  0  0
   -8.7177    5.2942   -3.5737 H   0  0  0  0  0  0  0  0  0  0  0  0
   -9.8256    9.2055   -2.1125 H   0  0  0  0  0  0  0  0  0  0  0  0
   -8.8188    8.9480   -3.5776 H   0  0  0  0  0  0  0  0  0  0  0  0
  -10.5467    8.4571   -3.5776 H   0  0  0  0  0  0  0  0  0  0  0  0
  -10.0324    5.4061   -1.5413 H   0  0  0  0  0  0  0  0  0  0  0  0
  -11.3957    6.1330   -3.6021 H   0  0  0  0  0  0  0  0  0  0  0  0
  -12.2107    5.3605   -2.1432 H   0  0  0  0  0  0  0  0  0  0  0  0
  -13.4664    7.4045   -3.2332 H   0  0  0  0  0  0  0  0  0  0  0  0
  -10.9556    9.1142   -0.5753 H   0  0  0  0  0  0  0  0  0  0  0  0
  -13.1121    7.7686    1.1662 H   0  0  0  0  0  0  0  0  0  0  0  0
  -11.6679    8.7095    1.7487 H   0  0  0  0  0  0  0  0  0  0  0  0
  -13.7560   10.0327    1.8631 H   0  0  0  0  0  0  0  0  0  0  0  0
  -12.5368   10.7341    0.7286 H   0  0  0  0  0  0  0  0  0  0  0  0
  -14.7040   10.8611   -0.2944 H   0  0  0  0  0  0  0  0  0  0  0  0
  -15.9800    9.3140    0.5130 H   0  0  0  0  0  0  0  0  0  0  0  0
  -12.4102   11.3302   -1.1927 H   0  0  0  0  0  0  0  0  0  0  0  0
  -11.9301   10.4415   -2.6781 H   0  0  0  0  0  0  0  0  0  0  0  0
  -13.4124   11.4561   -2.6781 H   0  0  0  0  0  0  0  0  0  0  0  0
  -15.7239    9.2929   -2.1094 H   0  0  0  0  0  0  0  0  0  0  0  0
  -14.8174   10.3166   -3.2743 H   0  0  0  0  0  0  0  0  0  0  0  0
  -14.5856    8.5353   -3.2743 H   0  0  0  0  0  0  0  0  0  0  0  0
  -11.3555    6.0874    1.5997 H   0  0  0  0  0  0  0  0  0  0  0  0
  -12.5450    5.8999    0.2667 H   0  0  0  0  0  0  0  0  0  0  0  0
  -11.0352    4.9266    0.2667 H   0  0  0  0  0  0  0  0  0  0  0  0
   -9.7300    8.1247    1.2949 H   0  0  0  0  0  0  0  0  0  0  0  0
   -9.0868    6.4257    0.9298 H   0  0  0  0  0  0  0  0  0  0  0  0
   -8.5187    8.9846   -0.5924 H   0  0  0  0  0  0  0  0  0  0  0  0
   -7.3779    7.9701    0.3749 H   0  0  0  0  0  0  0  0  0  0  0  0
   -7.5376    5.6662    0.0918 H   0  0  0  0  0  0  0  0  0  0  0  0
   -8.2549    4.9342   -1.3834 H   0  0  0  0  0  0  0  0  0  0  0  0
   -6.5352    5.4530   -1.3834 H   0  0  0  0  0  0  0  0  0  0  0  0
  1  2  1  0
  2  3  1  0
  3  4  1  0
  4  5  1  0
  5  6  1  0
  6  7  1  0
  7  8  1  0
  7  9  1  0
  2 10  1  0
 10 11  1  0
 11 12  1  0
 12 13  1  0
 13 14  1  6
 13 15  1  0
 15 16  1  0
 16 17  1  0
 17 18  2  0
 18 19  1  0
 19 20  1  0
 20 21  1  0
 21 22  1  0
 22 23  1  0
 22 24  1  0
 24 25  1  0
 24 26  1  0
 19 27  1  0
 27 28  1  1
 27 29  1  0
 29 30  1  0
 30 31  1  0
 31 32  1  1
  7  5  1  0
 31 10  1  0
 31 13  1  0
 27 15  1  0
 24 18  1  0
  1 33  1  0
  1 34  1  0
  1 35  1  0
  2 36  1  6
  3 37  1  0
  3 38  1  0
  4 39  1  0
  4 40  1  0
  5 41  1  6
  8 42  1  0
  8 43  1  0
  8 44  1  0
  9 45  1  0
  9 46  1  0
  9 47  1  0
 10 48  1  6
 11 49  1  0
 11 50  1  0
 12 51  1  0
 12 52  1  0
 14 53  1  0
 14 54  1  0
 14 55  1  0
 15 56  1  1
 16 57  1  0
 16 58  1  0
 17 59  1  0
 19 60  1  6
 20 61  1  0
 20 62  1  0
 21 63  1  0
 21 64  1  0
 22 65  1  6
 23 66  1  0
 25 67  1  0
 25 68  1  0
 25 69  1  0
 26 70  1  0
 26 71  1  0
 26 72  1  0
 28 73  1  0
 28 74  1  0
 28 75  1  0
 29 76  1  0
 29 77  1  0
 30 78  1  0
 30 79  1  0
 32 80  1  0
 32 81  1  0
 32 82  1  0
M  END
>  <meeko>  (7) 
{"is_sidechain": [false], "intermolecular_energy": 2.731, "internal_energy": -0.839}

$$$$
EPH_relaxed_0001_pdb2pqr_Repair_378_r2_0001_out
     RDKit          3D

 82 86  0  0  0  0  0  0  0  0999 V2000
   -0.4140   10.4560   -3.9680 C   0  0  0  0  0  0  0  0  0  0  0  0
    0.8750   10.3610   -3.1470 C   0  0  2  0  0  0  0  0  0  0  0  0
    0.9900    9.0170   -2.4000 C   0  0  0  0  0  0  0  0  0  0  0  0
   -0.3400    8.5090   -1.8380 C   0  0  0  0  0  0  0  0  0  0  0  0
   -0.5460    8.9470   -0.4190 C   0  0  2  0  0  0  0  0  0  0  0  0
   -1.8900    8.8080    0.0610 O   0  0  0  0  0  0  0  0  0  0  0  0
   -1.3850   10.1500   -0.0290 C   0  0  0  0  0  0  0  0  0  0  0  0
   -2.0710   10.9900   -1.0600 C   0  0  0  0  0  0  0  0  0  0  0  0
   -1.1390   10.7920    1.3010 C   0  0  0  0  0  0  0  0  0  0  0  0
    0.9450   11.5160   -2.1540 C   0  0  1  0  0  0  0  0  0  0  0  0
    1.9820   11.2720   -1.0260 C   0  0  0  0  0  0  0  0  0  0  0  0
    2.6010   12.6510   -0.6810 C   0  0  0  0  0  0  0  0  0  0  0  0
    1.6760   13.6780   -1.3760 C   0  0  1  0  0  0  0  0  0  0  0  0
    0.4610   13.8410   -0.4100 C   0  0  0  0  0  0  0  0  0  0  0  0
    2.3190   15.0580   -1.7320 C   0  0  2  0  0  0  0  0  0  0  0  0
    2.8080   15.8800   -0.5260 C   0  0  0  0  0  0  0  0  0  0  0  0
    1.8030   16.8160    0.0570 C   0  0  0  0  0  0  0  0  0  0  0  0
    0.6570   17.2010   -0.5340 C   0  0  0  0  0  0  0  0  0  0  0  0
    0.3220   16.7600   -1.9650 C   0  0  1  0  0  0  0  0  0  0  0  0
   -0.1740   17.9820   -2.7810 C   0  0  0  0  0  0  0  0  0  0  0  0
   -1.3360   18.7040   -2.1060 C   0  0  0  0  0  0  0  0  0  0  0  0
   -0.9460   19.1790   -0.7090 C   0  0  2  0  0  0  0  0  0  0  0  0
    0.0550   20.1940   -0.8300 O   0  0  0  0  0  0  0  0  0  0  0  0
   -0.4210   18.0340    0.2020 C   0  0  0  0  0  0  0  0  0  0  0  0
   -1.5910   17.0910    0.5790 C   0  0  0  0  0  0  0  0  0  0  0  0
    0.0700   18.6690    1.5320 C   0  0  0  0  0  0  0  0  0  0  0  0
    1.4550   15.9400   -2.7210 C   0  0  1  0  0  0  0  0  0  0  0  0
    2.4430   16.9210   -3.4220 C   0  0  0  0  0  0  0  0  0  0  0  0
    0.7930   15.0840   -3.8640 C   0  0  0  0  0  0  0  0  0  0  0  0
    0.2850   13.6820   -3.4770 C   0  0  0  0  0  0  0  0  0  0  0  0
    1.3560   12.9040   -2.7060 C   0  0  2  0  0  0  0  0  0  0  0  0
    2.5820   12.7050   -3.6610 C   0  0  0  0  0  0  0  0  0  0  0  0
   -1.2772   10.5196   -3.2892 H   0  0  0  0  0  0  0  0  0  0  0  0
   -0.3794   11.3540   -4.6023 H   0  0  0  0  0  0  0  0  0  0  0  0
   -0.5114    9.5626   -4.6023 H   0  0  0  0  0  0  0  0  0  0  0  0
    1.7197   10.4220   -3.8490 H   0  0  0  0  0  0  0  0  0  0  0  0
    1.3818    8.2636   -3.0992 H   0  0  0  0  0  0  0  0  0  0  0  0
    1.6589    9.1823   -1.5425 H   0  0  0  0  0  0  0  0  0  0  0  0
   -1.1612    8.9022   -2.4552 H   0  0  0  0  0  0  0  0  0  0  0  0
   -0.3231    7.4093   -1.8584 H   0  0  0  0  0  0  0  0  0  0  0  0
    0.4763    8.6420   -0.1509 H   0  0  0  0  0  0  0  0  0  0  0  0
   -2.6911   11.7493   -0.5610 H   0  0  0  0  0  0  0  0  0  0  0  0
   -1.3175   11.4872   -1.6885 H   0  0  0  0  0  0  0  0  0  0  0  0
   -2.7087   10.3510   -1.6885 H   0  0  0  0  0  0  0  0  0  0  0  0
   -1.4084   10.0889    2.1030 H   0  0  0  0  0  0  0  0  0  0  0  0
   -0.0752   11.0580    1.3886 H   0  0  0  0  0  0  0  0  0  0  0  0
   -1.7526   11.7007    1.3886 H   0  0  0  0  0  0  0  0  0  0  0  0
   -0.1037   11.5382   -1.8226 H   0  0  0  0  0  0  0  0  0  0  0  0
    1.4859   10.8474   -0.1408 H   0  0  0  0  0  0  0  0  0  0  0  0
    2.7568   10.5611   -1.3490 H   0  0  0  0  0  0  0  0  0  0  0  0
    2.6108   12.8111    0.4072 H   0  0  0  0  0  0  0  0  0  0  0  0
    3.6452   12.7356   -1.0165 H   0  0  0  0  0  0  0  0  0  0  0  0
    0.8118   13.7939    0.6315 H   0  0  0  0  0  0  0  0  0  0  0  0
   -0.0231   14.8121   -0.5903 H   0  0  0  0  0  0  0  0  0  0  0  0
   -0.2620   13.0318   -0.5903 H   0  0  0  0  0  0  0  0  0  0  0  0
    3.2260   14.7617   -2.2793 H   0  0  0  0  0  0  0  0  0  0  0  0
    3.1152   15.1771    0.2623 H   0  0  0  0  0  0  0  0  0  0  0  0
    3.6292   16.5094   -0.8996 H   0  0  0  0  0  0  0  0  0  0  0  0
    2.0170   17.2263    1.0549 H   0  0  0  0  0  0  0  0  0  0  0  0
   -0.4865   16.0197   -1.8736 H   0  0  0  0  0  0  0  0  0  0  0  0
    0.6601   18.6894   -2.8986 H   0  0  0  0  0  0  0  0  0  0  0  0
   -0.5309   17.6114   -3.7532 H   0  0  0  0  0  0  0  0  0  0  0  0
   -1.6218   19.5741   -2.7153 H   0  0  0  0  0  0  0  0  0  0  0  0
   -2.1794   18.0036   -2.0158 H   0  0  0  0  0  0  0  0  0  0  0  0
   -1.8540   19.5719   -0.2283 H   0  0  0  0  0  0  0  0  0  0  0  0
    0.4060   20.1550   -1.7350 H   0  0  0  0  0  0  0  0  0  0  0  0
   -1.6714   17.0262    1.6741 H   0  0  0  0  0  0  0  0  0  0  0  0
   -2.5298   17.4879    0.1653 H   0  0  0  0  0  0  0  0  0  0  0  0
   -1.4025   16.0893    0.1653 H   0  0  0  0  0  0  0  0  0  0  0  0
   -0.3572   18.1165    2.3818 H   0  0  0  0  0  0  0  0  0  0  0  0
    1.1680   18.6207    1.5780 H   0  0  0  0  0  0  0  0  0  0  0  0
   -0.2531   19.7195    1.5780 H   0  0  0  0  0  0  0  0  0  0  0  0
    3.0063   17.4804   -2.6606 H   0  0  0  0  0  0  0  0  0  0  0  0
    3.1427   16.3501   -4.0500 H   0  0  0  0  0  0  0  0  0  0  0  0
    1.8771   17.6248   -4.0500 H   0  0  0  0  0  0  0  0  0  0  0  0
   -0.0646   15.6533   -4.2517 H   0  0  0  0  0  0  0  0  0  0  0  0
    1.5971   14.9073   -4.5935 H   0  0  0  0  0  0  0  0  0  0  0  0
   -0.6095   13.7852   -2.8452 H   0  0  0  0  0  0  0  0  0  0  0  0
    0.0448   13.1296   -4.3974 H   0  0  0  0  0  0  0  0  0  0  0  0
    3.4929   12.5571   -3.0623 H   0  0  0  0  0  0  0  0  0  0  0  0
    2.4130   11.8225   -4.2956 H   0  0  0  0  0  0  0  0  0  0  0  0
    2.7008   13.5956   -4.2956 H   0  0  0  0  0  0  0  0  0  0  0  0
  1  2  1  0
  2  3  1  0
  3  4  1  0
  4  5  1  0
  5  6  1  0
  6  7  1  0
  7  8  1  0
  7  9  1  0
  2 10  1  0
 10 11  1  0
 11 12  1  0
 12 13  1  0
 13 14  1  1
 13 15  1  0
 15 16  1  0
 16 17  1  0
 17 18  2  0
 18 19  1  0
 19 20  1  0
 20 21  1  0
 21 22  1  0
 22 23  1  0
 22 24  1  0
 24 25  1  0
 24 26  1  0
 19 27  1  0
 27 28  1  6
 27 29  1  0
 29 30  1  0
 30 31  1  0
 31 32  1  6
  7  5  1  0
 31 10  1  0
 31 13  1  0
 27 15  1  0
 24 18  1  0
  1 33  1  0
  1 34  1  0
  1 35  1  0
  2 36  1  6
  3 37  1  0
  3 38  1  0
  4 39  1  0
  4 40  1  0
  5 41  1  1
  8 42  1  0
  8 43  1  0
  8 44  1  0
  9 45  1  0
  9 46  1  0
  9 47  1  0
 10 48  1  1
 11 49  1  0
 11 50  1  0
 12 51  1  0
 12 52  1  0
 14 53  1  0
 14 54  1  0
 14 55  1  0
 15 56  1  6
 16 57  1  0
 16 58  1  0
 17 59  1  0
 19 60  1  1
 20 61  1  0
 20 62  1  0
 21 63  1  0
 21 64  1  0
 22 65  1  1
 23 66  1  0
 25 67  1  0
 25 68  1  0
 25 69  1  0
 26 70  1  0
 26 71  1  0
 26 72  1  0
 28 73  1  0
 28 74  1  0
 28 75  1  0
 29 76  1  0
 29 77  1  0
 30 78  1  0
 30 79  1  0
 32 80  1  0
 32 81  1  0
 32 82  1  0
M  END
>  <meeko>  (8) 
{"is_sidechain": [false], "intermolecular_energy": 2.731, "internal_energy": -0.839}

$$$$
EPH_relaxed_0001_pdb2pqr_Repair_378_r2_0001_out
     RDKit          3D

 82 86  0  0  0  0  0  0  0  0999 V2000
    2.7050   19.2790   -1.1150 C   0  0  0  0  0  0  0  0  0  0  0  0
    2.4500   18.2480   -2.2180 C   0  0  2  0  0  0  0  0  0  0  0  0
    1.0180   18.3410   -2.7810 C   0  0  0  0  0  0  0  0  0  0  0  0
    0.2270   19.5420   -2.2560 C   0  0  0  0  0  0  0  0  0  0  0  0
   -1.0370   19.1170   -1.5720 C   0  0  2  0  0  0  0  0  0  0  0  0
   -1.9070   20.1940   -1.1980 O   0  0  0  0  0  0  0  0  0  0  0  0
   -1.3480   19.4270   -0.1190 C   0  0  0  0  0  0  0  0  0  0  0  0
   -0.3880   20.1930    0.7370 C   0  0  0  0  0  0  0  0  0  0  0  0
   -2.3480   18.5750    0.5960 C   0  0  0  0  0  0  0  0  0  0  0  0
    2.7110   16.8430   -1.6870 C   0  0  1  0  0  0  0  0  0  0  0  0
    3.4680   16.8480   -0.3320 C   0  0  0  0  0  0  0  0  0  0  0  0
    2.9250   15.6490    0.4870 C   0  0  0  0  0  0  0  0  0  0  0  0
    2.1280   14.8060   -0.5360 C   0  0  1  0  0  0  0  0  0  0  0  0
    3.2050   13.9660   -1.2900 C   0  0  0  0  0  0  0  0  0  0  0  0
    0.9950   13.9010    0.0480 C   0  0  2  0  0  0  0  0  0  0  0  0
    1.4700   12.8040    1.0170 C   0  0  0  0  0  0  0  0  0  0  0  0
    1.8030   11.4940    0.3830 C   0  0  0  0  0  0  0  0  0  0  0  0
    1.4580   11.1180   -0.8620 C   0  0  0  0  0  0  0  0  0  0  0  0
    0.5700   12.0120   -1.7380 C   0  0  1  0  0  0  0  0  0  0  0  0
   -0.5440   11.1540   -2.3920 C   0  0  0  0  0  0  0  0  0  0  0  0
    0.0110    9.9560   -3.1560 C   0  0  0  0  0  0  0  0  0  0  0  0
    0.8390    9.0600   -2.2380 C   0  0  2  0  0  0  0  0  0  0  0  0
   -0.0290    8.4660   -1.2680 O   0  0  0  0  0  0  0  0  0  0  0  0
    1.9880    9.8180   -1.5150 C   0  0  0  0  0  0  0  0  0  0  0  0
    3.0840   10.2010   -2.5410 C   0  0  0  0  0  0  0  0  0  0  0  0
    2.6540    8.8340   -0.5160 C   0  0  0  0  0  0  0  0  0  0  0  0
    0.0020   13.3220   -1.0400 C   0  0  1  0  0  0  0  0  0  0  0  0
   -1.3300   12.9940   -0.2980 C   0  0  0  0  0  0  0  0  0  0  0  0
   -0.3550   14.3810   -2.1480 C   0  0  0  0  0  0  0  0  0  0  0  0
    0.7760   15.3260   -2.5970 C   0  0  0  0  0  0  0  0  0  0  0  0
    1.4770   15.9550   -1.3900 C   0  0  2  0  0  0  0  0  0  0  0  0
    0.4230   16.8250   -0.6240 C   0  0  0  0  0  0  0  0  0  0  0  0
    2.5867   18.8007   -0.1315 H   0  0  0  0  0  0  0  0  0  0  0  0
    3.7276   19.6729   -1.2105 H   0  0  0  0  0  0  0  0  0  0  0  0
    1.9839   20.1041   -1.2105 H   0  0  0  0  0  0  0  0  0  0  0  0
    3.1434   18.4684   -3.0430 H   0  0  0  0  0  0  0  0  0  0  0  0
    1.0799   18.4180   -3.8766 H   0  0  0  0  0  0  0  0  0  0  0  0
    0.4844   17.4366   -2.4533 H   0  0  0  0  0  0  0  0  0  0  0  0
    0.8519   20.0946   -1.5390 H   0  0  0  0  0  0  0  0  0  0  0  0
   -0.0435   20.1758   -3.1134 H   0  0  0  0  0  0  0  0  0  0  0  0
   -1.0611   18.1802   -2.1480 H   0  0  0  0  0  0  0  0  0  0  0  0
   -0.6164   20.0108    1.7975 H   0  0  0  0  0  0  0  0  0  0  0  0
    0.6391   19.8635    0.5212 H   0  0  0  0  0  0  0  0  0  0  0  0
   -0.4813   21.2676    0.5212 H   0  0  0  0  0  0  0  0  0  0  0  0
   -2.2158   18.6877    1.6822 H   0  0  0  0  0  0  0  0  0  0  0  0
   -3.3643   18.8890    0.3158 H   0  0  0  0  0  0  0  0  0  0  0  0
   -2.1994   17.5217    0.3158 H   0  0  0  0  0  0  0  0  0  0  0  0
    3.2781   16.4278   -2.5332 H   0  0  0  0  0  0  0  0  0  0  0  0
    4.5488   16.7329   -0.5013 H   0  0  0  0  0  0  0  0  0  0  0  0
    3.3126   17.7958    0.2042 H   0  0  0  0  0  0  0  0  0  0  0  0
    3.7528   15.0626    0.9123 H   0  0  0  0  0  0  0  0  0  0  0  0
    2.3039   15.9710    1.3359 H   0  0  0  0  0  0  0  0  0  0  0  0
    3.8533   13.4603   -0.5593 H   0  0  0  0  0  0  0  0  0  0  0  0
    2.7081   13.2145   -1.9212 H   0  0  0  0  0  0  0  0  0  0  0  0
    3.8129   14.6309   -1.9212 H   0  0  0  0  0  0  0  0  0  0  0  0
    0.4187   14.6103    0.6601 H   0  0  0  0  0  0  0  0  0  0  0  0
    2.3703   13.1713    1.5314 H   0  0  0  0  0  0  0  0  0  0  0  0
    0.6250   12.6087    1.6936 H   0  0  0  0  0  0  0  0  0  0  0  0
    2.3791   10.7755    0.9845 H   0  0  0  0  0  0  0  0  0  0  0  0
    1.2282   12.4245   -2.5169 H   0  0  0  0  0  0  0  0  0  0  0  0
   -1.2160   10.7875   -1.6020 H   0  0  0  0  0  0  0  0  0  0  0  0
   -1.0759   11.7919   -3.1132 H   0  0  0  0  0  0  0  0  0  0  0  0
   -0.8256    9.3733   -3.5690 H   0  0  0  0  0  0  0  0  0  0  0  0
    0.6589   10.3247   -3.9649 H   0  0  0  0  0  0  0  0  0  0  0  0
    1.3154    8.2940   -2.8675 H   0  0  0  0  0  0  0  0  0  0  0  0
   -0.6170    7.8500   -1.7380 H   0  0  0  0  0  0  0  0  0  0  0  0
    3.9917   10.5182   -2.0067 H   0  0  0  0  0  0  0  0  0  0  0  0
    3.3155    9.3305   -3.1724 H   0  0  0  0  0  0  0  0  0  0  0  0
    2.7229   11.0262   -3.1724 H   0  0  0  0  0  0  0  0  0  0  0  0
    2.4372    9.1543    0.5138 H   0  0  0  0  0  0  0  0  0  0  0  0
    2.2546    7.8218   -0.6769 H   0  0  0  0  0  0  0  0  0  0  0  0
    3.7422    8.8286   -0.6769 H   0  0  0  0  0  0  0  0  0  0  0  0
   -1.1641   13.0349    0.7886 H   0  0  0  0  0  0  0  0  0  0  0  0
   -2.0975   13.7300   -0.5797 H   0  0  0  0  0  0  0  0  0  0  0  0
   -1.6680   11.9858   -0.5797 H   0  0  0  0  0  0  0  0  0  0  0  0
   -0.7003   13.8304   -3.0354 H   0  0  0  0  0  0  0  0  0  0  0  0
   -1.1104   15.0350   -1.6879 H   0  0  0  0  0  0  0  0  0  0  0  0
    1.5112   14.7544   -3.1824 H   0  0  0  0  0  0  0  0  0  0  0  0
    0.3391   16.1304   -3.2070 H   0  0  0  0  0  0  0  0  0  0  0  0
    0.5674   16.7058    0.4600 H   0  0  0  0  0  0  0  0  0  0  0  0
    0.5525   17.8827   -0.8971 H   0  0  0  0  0  0  0  0  0  0  0  0
   -0.5909   16.4973   -0.8971 H   0  0  0  0  0  0  0  0  0  0  0  0
  1  2  1  0
  2  3  1  0
  3  4  1  0
  4  5  1  0
  5  6  1  0
  6  7  1  0
  7  8  1  0
  7  9  1  0
  2 10  1  0
 10 11  1  0
 11 12  1  0
 12 13  1  0
 13 14  1  6
 13 15  1  0
 15 16  1  0
 16 17  1  0
 17 18  2  0
 18 19  1  0
 19 20  1  0
 20 21  1  0
 21 22  1  0
 22 23  1  0
 22 24  1  0
 24 25  1  0
 24 26  1  0
 19 27  1  0
 27 28  1  1
 27 29  1  0
 29 30  1  0
 30 31  1  0
 31 32  1  1
  7  5  1  0
 31 10  1  0
 31 13  1  0
 27 15  1  0
 24 18  1  0
  1 33  1  0
  1 34  1  0
  1 35  1  0
  2 36  1  6
  3 37  1  0
  3 38  1  0
  4 39  1  0
  4 40  1  0
  5 41  1  6
  8 42  1  0
  8 43  1  0
  8 44  1  0
  9 45  1  0
  9 46  1  0
  9 47  1  0
 10 48  1  6
 11 49  1  0
 11 50  1  0
 12 51  1  0
 12 52  1  0
 14 53  1  0
 14 54  1  0
 14 55  1  0
 15 56  1  1
 16 57  1  0
 16 58  1  0
 17 59  1  0
 19 60  1  6
 20 61  1  0
 20 62  1  0
 21 63  1  0
 21 64  1  0
 22 65  1  6
 23 66  1  0
 25 67  1  0
 25 68  1  0
 25 69  1  0
 26 70  1  0
 26 71  1  0
 26 72  1  0
 28 73  1  0
 28 74  1  0
 28 75  1  0
 29 76  1  0
 29 77  1  0
 30 78  1  0
 30 79  1  0
 32 80  1  0
 32 81  1  0
 32 82  1  0
M  END
>  <meeko>  (9) 
{"is_sidechain": [false], "intermolecular_energy": 2.731, "internal_energy": -0.839}

$$$$
EPH_relaxed_0001_pdb2pqr_Repair_378_r2_0001_out
     RDKit          3D

 82 86  0  0  0  0  0  0  0  0999 V2000
   -0.8500   16.3550   -5.8400 C   0  0  0  0  0  0  0  0  0  0  0  0
    0.2330   15.6480   -6.6600 C   0  0  2  0  0  0  0  0  0  0  0  0
   -0.1780   15.4720   -8.1350 C   0  0  0  0  0  0  0  0  0  0  0  0
    0.4600   16.4950   -9.0790 C   0  0  0  0  0  0  0  0  0  0  0  0
    1.8590   16.1070   -9.4530 C   0  0  2  0  0  0  0  0  0  0  0  0
    2.3230   16.6620  -10.6910 O   0  0  0  0  0  0  0  0  0  0  0  0
    2.1930   15.2320  -10.6460 C   0  0  0  0  0  0  0  0  0  0  0  0
    1.1230   14.6900  -11.5410 C   0  0  0  0  0  0  0  0  0  0  0  0
    3.5030   14.5070  -10.6570 C   0  0  0  0  0  0  0  0  0  0  0  0
    0.5510   14.2920   -6.0420 C   0  0  1  0  0  0  0  0  0  0  0  0
    1.8160   13.6360   -6.6580 C   0  0  0  0  0  0  0  0  0  0  0  0
    2.5220   12.8650   -5.5130 C   0  0  0  0  0  0  0  0  0  0  0  0
    1.4810   12.8230   -4.3700 C   0  0  1  0  0  0  0  0  0  0  0  0
    0.5240   11.6470   -4.7420 C   0  0  0  0  0  0  0  0  0  0  0  0
    2.0500   12.6680   -2.9220 C   0  0  2  0  0  0  0  0  0  0  0  0
    2.8180   11.3610   -2.6600 C   0  0  0  0  0  0  0  0  0  0  0  0
    1.9910   10.2260   -2.1540 C   0  0  0  0  0  0  0  0  0  0  0  0
    0.7470   10.3280   -1.6510 C   0  0  0  0  0  0  0  0  0  0  0  0
    0.0840   11.6980   -1.4610 C   0  0  1  0  0  0  0  0  0  0  0  0
   -0.5640   11.7700   -0.0540 C   0  0  0  0  0  0  0  0  0  0  0  0
   -1.5270   10.6150    0.2070 C   0  0  0  0  0  0  0  0  0  0  0  0
   -0.8170    9.2710    0.0660 C   0  0  2  0  0  0  0  0  0  0  0  0
    0.1470    9.1470    1.1160 O   0  0  0  0  0  0  0  0  0  0  0  0
   -0.1170    9.0890   -1.3100 C   0  0  0  0  0  0  0  0  0  0  0  0
   -1.1860    8.9210   -2.4190 C   0  0  0  0  0  0  0  0  0  0  0  0
    0.6780    7.7560   -1.2690 C   0  0  0  0  0  0  0  0  0  0  0  0
    0.9970   12.9600   -1.7780 C   0  0  1  0  0  0  0  0  0  0  0  0
    1.8150   13.3550   -0.5110 C   0  0  0  0  0  0  0  0  0  0  0  0
    0.0750   14.1910   -2.1130 C   0  0  0  0  0  0  0  0  0  0  0  0
   -0.3560   14.3570   -3.5820 C   0  0  0  0  0  0  0  0  0  0  0  0
    0.8490   14.2550   -4.5220 C   0  0  2  0  0  0  0  0  0  0  0  0
    1.8190   15.4380   -4.1860 C   0  0  0  0  0  0  0  0  0  0  0  0
   -0.6443   16.2207   -4.7678 H   0  0  0  0  0  0  0  0  0  0  0  0
   -0.8508   17.4281   -6.0816 H   0  0  0  0  0  0  0  0  0  0  0  0
   -1.8328   15.9240   -6.0816 H   0  0  0  0  0  0  0  0  0  0  0  0
    1.1303   16.2841   -6.6413 H   0  0  0  0  0  0  0  0  0  0  0  0
    0.1214   14.4650   -8.4610 H   0  0  0  0  0  0  0  0  0  0  0  0
   -1.2663   15.6237   -8.1853 H   0  0  0  0  0  0  0  0  0  0  0  0
   -0.1475   16.5637   -9.9935 H   0  0  0  0  0  0  0  0  0  0  0  0
    0.5001   17.4634   -8.5589 H   0  0  0  0  0  0  0  0  0  0  0  0
    2.1533   16.0549   -8.3944 H   0  0  0  0  0  0  0  0  0  0  0  0
    0.3076   14.2769  -10.9291 H   0  0  0  0  0  0  0  0  0  0  0  0
    0.7316   15.4986  -12.1759 H   0  0  0  0  0  0  0  0  0  0  0  0
    1.5433   13.8961  -12.1759 H   0  0  0  0  0  0  0  0  0  0  0  0
    3.8305   14.3258   -9.6226 H   0  0  0  0  0  0  0  0  0  0  0  0
    3.3856   13.5455  -11.1782 H   0  0  0  0  0  0  0  0  0  0  0  0
    4.2554   15.1171  -11.1782 H   0  0  0  0  0  0  0  0  0  0  0  0
   -0.3928   13.7679   -6.2532 H   0  0  0  0  0  0  0  0  0  0  0  0
    1.5296   12.9419   -7.4618 H   0  0  0  0  0  0  0  0  0  0  0  0
    2.4827   14.3951   -7.0931 H   0  0  0  0  0  0  0  0  0  0  0  0
    2.7857   11.8469   -5.8355 H   0  0  0  0  0  0  0  0  0  0  0  0
    3.4615   13.3464   -5.2037 H   0  0  0  0  0  0  0  0  0  0  0  0
    0.1433   11.1791   -3.8222 H   0  0  0  0  0  0  0  0  0  0  0  0
   -0.3194   12.0335   -5.3330 H   0  0  0  0  0  0  0  0  0  0  0  0
    1.0738   10.8997   -5.3330 H   0  0  0  0  0  0  0  0  0  0  0  0
    2.8015   13.4699   -2.8756 H   0  0  0  0  0  0  0  0  0  0  0  0
    3.2855   11.0463   -3.6047 H   0  0  0  0  0  0  0  0  0  0  0  0
    3.5426   11.5881   -1.8641 H   0  0  0  0  0  0  0  0  0  0  0  0
    2.4362    9.2210   -2.1958 H   0  0  0  0  0  0  0  0  0  0  0  0
   -0.6954   11.7679   -2.2341 H   0  0  0  0  0  0  0  0  0  0  0  0
    0.2334   11.7422    0.7032 H   0  0  0  0  0  0  0  0  0  0  0  0
   -1.1414   12.7047    0.0001 H   0  0  0  0  0  0  0  0  0  0  0  0
   -1.9289   10.7047    1.2270 H   0  0  0  0  0  0  0  0  0  0  0  0
   -2.3404   10.6619   -0.5320 H   0  0  0  0  0  0  0  0  0  0  0  0
   -1.5829    8.4845    0.1345 H   0  0  0  0  0  0  0  0  0  0  0  0
    0.4370    8.2190    1.1410 H   0  0  0  0  0  0  0  0  0  0  0  0
   -2.1722    8.7660   -1.9571 H   0  0  0  0  0  0  0  0  0  0  0  0
   -1.2118    9.8261   -3.0436 H   0  0  0  0  0  0  0  0  0  0  0  0
   -0.9329    8.0516   -3.0436 H   0  0  0  0  0  0  0  0  0  0  0  0
    0.8517    7.4647   -0.2226 H   0  0  0  0  0  0  0  0  0  0  0  0
    0.1014    6.9694   -1.7777 H   0  0  0  0  0  0  0  0  0  0  0  0
    1.6441    7.8895   -1.7777 H   0  0  0  0  0  0  0  0  0  0  0  0
    1.2484   13.0814    0.3913 H   0  0  0  0  0  0  0  0  0  0  0  0
    2.7774   12.8224   -0.5151 H   0  0  0  0  0  0  0  0  0  0  0  0
    1.9963   14.4399   -0.5151 H   0  0  0  0  0  0  0  0  0  0  0  0
   -0.8382   14.0973   -1.5069 H   0  0  0  0  0  0  0  0  0  0  0  0
    0.6871   15.0776   -1.8910 H   0  0  0  0  0  0  0  0  0  0  0  0
   -1.0786   13.5676   -3.8364 H   0  0  0  0  0  0  0  0  0  0  0  0
   -0.8123   15.3505   -3.7034 H   0  0  0  0  0  0  0  0  0  0  0  0
    1.9050   15.5429   -3.0944 H   0  0  0  0  0  0  0  0  0  0  0  0
    2.8111   15.2315   -4.6138 H   0  0  0  0  0  0  0  0  0  0  0  0
    1.4221   16.3704   -4.6138 H   0  0  0  0  0  0  0  0  0  0  0  0
  1  2  1  0
  2  3  1  0
  3  4  1  0
  4  5  1  0
  5  6  1  0
  6  7  1  0
  7  8  1  0
  7  9  1  0
  2 10  1  0
 10 11  1  0
 11 12  1  0
 12 13  1  0
 13 14  1  6
 13 15  1  0
 15 16  1  0
 16 17  1  0
 17 18  2  0
 18 19  1  0
 19 20  1  0
 20 21  1  0
 21 22  1  0
 22 23  1  0
 22 24  1  0
 24 25  1  0
 24 26  1  0
 19 27  1  0
 27 28  1  1
 27 29  1  0
 29 30  1  0
 30 31  1  0
 31 32  1  1
  7  5  1  0
 31 10  1  0
 31 13  1  0
 27 15  1  0
 24 18  1  0
  1 33  1  0
  1 34  1  0
  1 35  1  0
  2 36  1  6
  3 37  1  0
  3 38  1  0
  4 39  1  0
  4 40  1  0
  5 41  1  1
  8 42  1  0
  8 43  1  0
  8 44  1  0
  9 45  1  0
  9 46  1  0
  9 47  1  0
 10 48  1  1
 11 49  1  0
 11 50  1  0
 12 51  1  0
 12 52  1  0
 14 53  1  0
 14 54  1  0
 14 55  1  0
 15 56  1  6
 16 57  1  0
 16 58  1  0
 17 59  1  0
 19 60  1  6
 20 61  1  0
 20 62  1  0
 21 63  1  0
 21 64  1  0
 22 65  1  1
 23 66  1  0
 25 67  1  0
 25 68  1  0
 25 69  1  0
 26 70  1  0
 26 71  1  0
 26 72  1  0
 28 73  1  0
 28 74  1  0
 28 75  1  0
 29 76  1  0
 29 77  1  0
 30 78  1  0
 30 79  1  0
 32 80  1  0
 32 81  1  0
 32 82  1  0
M  END
>  <meeko>  (10) 
{"is_sidechain": [false], "intermolecular_energy": 2.731, "internal_energy": -0.839}

$$$$
EPH_relaxed_0001_pdb2pqr_Repair_378_r2_0001_out
     RDKit          3D

 82 86  0  0  0  0  0  0  0  0999 V2000
   -4.0560    7.3550   -3.4300 C   0  0  0  0  0  0  0  0  0  0  0  0
   -3.8140    7.3220   -1.9180 C   0  0  2  0  0  0  0  0  0  0  0  0
   -5.0980    6.9870   -1.1320 C   0  0  0  0  0  0  0  0  0  0  0  0
   -6.2210    6.4160   -2.0020 C   0  0  0  0  0  0  0  0  0  0  0  0
   -7.4900    6.2420   -1.2250 C   0  0  2  0  0  0  0  0  0  0  0  0
   -8.5390    5.5700   -1.9340 O   0  0  0  0  0  0  0  0  0  0  0  0
   -8.7900    6.9400   -1.5790 C   0  0  0  0  0  0  0  0  0  0  0  0
   -8.8850    7.8640   -2.7520 C   0  0  0  0  0  0  0  0  0  0  0  0
   -9.8270    7.1060   -0.5130 C   0  0  0  0  0  0  0  0  0  0  0  0
   -3.2520    8.6600   -1.4520 C   0  0  1  0  0  0  0  0  0  0  0  0
   -3.8650    9.1290   -0.1060 C   0  0  0  0  0  0  0  0  0  0  0  0
   -2.7410    9.8670    0.6650 C   0  0  0  0  0  0  0  0  0  0  0  0
   -1.6280   10.0890   -0.3860 C   0  0  1  0  0  0  0  0  0  0  0  0
   -2.0790   11.3500   -1.1870 C   0  0  0  0  0  0  0  0  0  0  0  0
   -0.1750   10.2460    0.1690 C   0  0  2  0  0  0  0  0  0  0  0  0
    0.0460   11.4640    1.0830 C   0  0  0  0  0  0  0  0  0  0  0  0
    0.4770   12.7130    0.3880 C   0  0  0  0  0  0  0  0  0  0  0  0
    0.9520   12.7850   -0.8690 C   0  0  0  0  0  0  0  0  0  0  0  0
    1.1890   11.5140   -1.6950 C   0  0  1  0  0  0  0  0  0  0  0  0
    2.5810   11.5900   -2.3750 C   0  0  0  0  0  0  0  0  0  0  0  0
    2.7620   12.8620   -3.1970 C   0  0  0  0  0  0  0  0  0  0  0  0
    2.5770   14.1040   -2.3280 C   0  0  2  0  0  0  0  0  0  0  0  0
    3.6450   14.1640   -1.3770 O   0  0  0  0  0  0  0  0  0  0  0  0
    1.2120   14.1330   -1.5840 C   0  0  0  0  0  0  0  0  0  0  0  0
    0.0700   14.3720   -2.6030 C   0  0  0  0  0  0  0  0  0  0  0  0
    1.2120   15.3620   -0.6360 C   0  0  0  0  0  0  0  0  0  0  0  0
    0.9550   10.1390   -0.9340 C   0  0  1  0  0  0  0  0  0  0  0  0
    2.2600    9.7120   -0.1950 C   0  0  0  0  0  0  0  0  0  0  0  0
    0.6550    9.0110   -1.9910 C   0  0  0  0  0  0  0  0  0  0  0  0
   -0.8170    8.8250   -2.4090 C   0  0  0  0  0  0  0  0  0  0  0  0
   -1.7290    8.7370   -1.1820 C   0  0  2  0  0  0  0  0  0  0  0  0
   -1.3130    7.4640   -0.3680 C   0  0  0  0  0  0  0  0  0  0  0  0
   -5.1284    7.5012   -3.6266 H   0  0  0  0  0  0  0  0  0  0  0  0
   -3.4854    8.1836   -3.8747 H   0  0  0  0  0  0  0  0  0  0  0  0
   -3.7281    6.4038   -3.8747 H   0  0  0  0  0  0  0  0  0  0  0  0
   -3.0855    6.5228   -1.7167 H   0  0  0  0  0  0  0  0  0  0  0  0
   -4.8480    6.2467   -0.3577 H   0  0  0  0  0  0  0  0  0  0  0  0
   -5.4696    7.9307   -0.7061 H   0  0  0  0  0  0  0  0  0  0  0  0
   -6.4075    7.1038   -2.8399 H   0  0  0  0  0  0  0  0  0  0  0  0
   -5.9038    5.4277   -2.3663 H   0  0  0  0  0  0  0  0  0  0  0  0
   -6.9292    6.1608   -0.2822 H   0  0  0  0  0  0  0  0  0  0  0  0
   -8.9914    8.8992   -2.3956 H   0  0  0  0  0  0  0  0  0  0  0  0
   -7.9733    7.7779   -3.3614 H   0  0  0  0  0  0  0  0  0  0  0  0
   -9.7601    7.5942   -3.3614 H   0  0  0  0  0  0  0  0  0  0  0  0
   -9.3516    7.0299    0.4760 H   0  0  0  0  0  0  0  0  0  0  0  0
  -10.3039    8.0919   -0.6157 H   0  0  0  0  0  0  0  0  0  0  0  0
  -10.5878    6.3182   -0.6157 H   0  0  0  0  0  0  0  0  0  0  0  0
   -3.5115    9.2813   -2.3218 H   0  0  0  0  0  0  0  0  0  0  0  0
   -4.7080    9.8110   -0.2910 H   0  0  0  0  0  0  0  0  0  0  0  0
   -4.2457    8.2749    0.4732 H   0  0  0  0  0  0  0  0  0  0  0  0
   -3.1046   10.8292    1.0548 H   0  0  0  0  0  0  0  0  0  0  0  0
   -2.3857    9.2941    1.5342 H   0  0  0  0  0  0  0  0  0  0  0  0
   -2.3642   12.1475   -0.4852 H   0  0  0  0  0  0  0  0  0  0  0  0
   -1.2497   11.6981   -1.8202 H   0  0  0  0  0  0  0  0  0  0  0  0
   -2.9410   11.0932   -1.8202 H   0  0  0  0  0  0  0  0  0  0  0  0
   -0.0733    9.3632    0.8174 H   0  0  0  0  0  0  0  0  0  0  0  0
   -0.8997   11.6740    1.6040 H   0  0  0  0  0  0  0  0  0  0  0  0
    0.8703   11.1918    1.7587 H   0  0  0  0  0  0  0  0  0  0  0  0
    0.3997   13.6546    0.9514 H   0  0  0  0  0  0  0  0  0  0  0  0
    0.4002   11.4981   -2.4616 H   0  0  0  0  0  0  0  0  0  0  0  0
    3.3564   11.5608   -1.5953 H   0  0  0  0  0  0  0  0  0  0  0  0
    2.6644   10.7344   -3.0613 H   0  0  0  0  0  0  0  0  0  0  0  0
    3.7742   12.8714   -3.6277 H   0  0  0  0  0  0  0  0  0  0  0  0
    2.0046   12.8755   -3.9946 H   0  0  0  0  0  0  0  0  0  0  0  0
    2.5893   14.9787   -2.9949 H   0  0  0  0  0  0  0  0  0  0  0  0
    3.7760   15.0980   -1.1420 H   0  0  0  0  0  0  0  0  0  0  0  0
   -0.8681   14.5683   -2.0631 H   0  0  0  0  0  0  0  0  0  0  0  0
    0.3175   15.2378   -3.2348 H   0  0  0  0  0  0  0  0  0  0  0  0
   -0.0504   13.4796   -3.2348 H   0  0  0  0  0  0  0  0  0  0  0  0
    2.2491   15.6523   -0.4121 H   0  0  0  0  0  0  0  0  0  0  0  0
    0.6935   16.2009   -1.1232 H   0  0  0  0  0  0  0  0  0  0  0  0
    0.6935   15.1038    0.2991 H   0  0  0  0  0  0  0  0  0  0  0  0
    2.0997    9.7644    0.8920 H   0  0  0  0  0  0  0  0  0  0  0  0
    2.5211    8.6816   -0.4778 H   0  0  0  0  0  0  0  0  0  0  0  0
    3.0797   10.3888   -0.4778 H   0  0  0  0  0  0  0  0  0  0  0  0
    1.2320    9.2430   -2.8983 H   0  0  0  0  0  0  0  0  0  0  0  0
    0.9349    8.0698   -1.4953 H   0  0  0  0  0  0  0  0  0  0  0  0
   -1.1265    9.6810   -3.0266 H   0  0  0  0  0  0  0  0  0  0  0  0
   -0.9039    7.8877   -2.9782 H   0  0  0  0  0  0  0  0  0  0  0  0
   -1.3830    7.6782    0.7087 H   0  0  0  0  0  0  0  0  0  0  0  0
   -1.9857    6.6312   -0.6207 H   0  0  0  0  0  0  0  0  0  0  0  0
   -0.2783    7.1891   -0.6207 H   0  0  0  0  0  0  0  0  0  0  0  0
  1  2  1  0
  2  3  1  0
  3  4  1  0
  4  5  1  0
  5  6  1  0
  6  7  1  0
  7  8  1  0
  7  9  1  0
  2 10  1  0
 10 11  1  0
 11 12  1  0
 12 13  1  0
 13 14  1  6
 13 15  1  0
 15 16  1  0
 16 17  1  0
 17 18  2  0
 18 19  1  0
 19 20  1  0
 20 21  1  0
 21 22  1  0
 22 23  1  0
 22 24  1  0
 24 25  1  0
 24 26  1  0
 19 27  1  0
 27 28  1  1
 27 29  1  0
 29 30  1  0
 30 31  1  0
 31 32  1  1
  7  5  1  0
 31 10  1  0
 31 13  1  0
 27 15  1  0
 24 18  1  0
  1 33  1  0
  1 34  1  0
  1 35  1  0
  2 36  1  6
  3 37  1  0
  3 38  1  0
  4 39  1  0
  4 40  1  0
  5 41  1  1
  8 42  1  0
  8 43  1  0
  8 44  1  0
  9 45  1  0
  9 46  1  0
  9 47  1  0
 10 48  1  6
 11 49  1  0
 11 50  1  0
 12 51  1  0
 12 52  1  0
 14 53  1  0
 14 54  1  0
 14 55  1  0
 15 56  1  1
 16 57  1  0
 16 58  1  0
 17 59  1  0
 19 60  1  6
 20 61  1  0
 20 62  1  0
 21 63  1  0
 21 64  1  0
 22 65  1  6
 23 66  1  0
 25 67  1  0
 25 68  1  0
 25 69  1  0
 26 70  1  0
 26 71  1  0
 26 72  1  0
 28 73  1  0
 28 74  1  0
 28 75  1  0
 29 76  1  0
 29 77  1  0
 30 78  1  0
 30 79  1  0
 32 80  1  0
 32 81  1  0
 32 82  1  0
M  END
>  <meeko>  (11) 
{"is_sidechain": [false], "intermolecular_energy": 2.731, "internal_energy": -0.839}

$$$$
EPH_relaxed_0001_pdb2pqr_Repair_378_r2_0001_out
     RDKit          3D

 82 86  0  0  0  0  0  0  0  0999 V2000
   -2.3510    7.8390   -2.1760 C   0  0  0  0  0  0  0  0  0  0  0  0
   -2.2940    8.4430   -0.7700 C   0  0  2  0  0  0  0  0  0  0  0  0
   -3.6720    8.4370   -0.0780 C   0  0  0  0  0  0  0  0  0  0  0  0
   -4.8480    8.5780   -1.0490 C   0  0  0  0  0  0  0  0  0  0  0  0
   -5.9040    7.5450   -0.7940 C   0  0  2  0  0  0  0  0  0  0  0  0
   -5.4490    6.1890   -0.8830 O   0  0  0  0  0  0  0  0  0  0  0  0
   -6.4210    6.5960   -1.8590 C   0  0  0  0  0  0  0  0  0  0  0  0
   -5.8970    6.6360   -3.2600 C   0  0  0  0  0  0  0  0  0  0  0  0
   -7.7670    5.9700   -1.6670 C   0  0  0  0  0  0  0  0  0  0  0  0
   -1.7510    9.8650   -0.8360 C   0  0  1  0  0  0  0  0  0  0  0  0
   -1.3020   10.3990    0.5500 C   0  0  0  0  0  0  0  0  0  0  0  0
   -0.0710   11.3070    0.3030 C   0  0  0  0  0  0  0  0  0  0  0  0
   -0.0530   11.5330   -1.2270 C   0  0  1  0  0  0  0  0  0  0  0  0
   -1.0970   12.6660   -1.4780 C   0  0  0  0  0  0  0  0  0  0  0  0
    1.3350   11.8770   -1.8590 C   0  0  2  0  0  0  0  0  0  0  0  0
    1.9680   13.1900   -1.3670 C   0  0  0  0  0  0  0  0  0  0  0  0
    1.6200   14.4030   -2.1640 C   0  0  0  0  0  0  0  0  0  0  0  0
    1.0660   14.4010   -3.3910 C   0  0  0  0  0  0  0  0  0  0  0  0
    0.8220   13.0860   -4.1430 C   0  0  1  0  0  0  0  0  0  0  0  0
    1.3150   13.2280   -5.6070 C   0  0  0  0  0  0  0  0  0  0  0  0
    0.6990   14.4290   -6.3170 C   0  0  0  0  0  0  0  0  0  0  0  0
    1.0120   15.7240   -5.5710 C   0  0  2  0  0  0  0  0  0  0  0  0
    2.4190   15.9730   -5.6500 O   0  0  0  0  0  0  0  0  0  0  0  0
    0.5700   15.6950   -4.0820 C   0  0  0  0  0  0  0  0  0  0  0  0
   -0.9760   15.7290   -3.9980 C   0  0  0  0  0  0  0  0  0  0  0  0
    1.0700   17.0020   -3.4100 C   0  0  0  0  0  0  0  0  0  0  0  0
    1.3720   11.7730   -3.4380 C   0  0  1  0  0  0  0  0  0  0  0  0
    2.8630   11.5410   -3.8340 C   0  0  0  0  0  0  0  0  0  0  0  0
    0.5710   10.5280   -3.9740 C   0  0  0  0  0  0  0  0  0  0  0  0
   -0.7300   10.1670   -3.2330 C   0  0  0  0  0  0  0  0  0  0  0  0
   -0.5010   10.1090   -1.7200 C   0  0  2  0  0  0  0  0  0  0  0  0
    0.5280    8.9620   -1.4350 C   0  0  0  0  0  0  0  0  0  0  0  0
   -2.4541    6.7464   -2.1018 H   0  0  0  0  0  0  0  0  0  0  0  0
   -3.2141    8.2528   -2.7181 H   0  0  0  0  0  0  0  0  0  0  0  0
   -1.4257    8.0840   -2.7181 H   0  0  0  0  0  0  0  0  0  0  0  0
   -1.6200    7.8153   -0.1685 H   0  0  0  0  0  0  0  0  0  0  0  0
   -3.7831    7.4879    0.4668 H   0  0  0  0  0  0  0  0  0  0  0  0
   -3.7002    9.3099    0.5907 H   0  0  0  0  0  0  0  0  0  0  0  0
   -5.2910    9.5778   -0.9297 H   0  0  0  0  0  0  0  0  0  0  0  0
   -4.4679    8.4349   -2.0713 H   0  0  0  0  0  0  0  0  0  0  0  0
   -6.4192    8.2125   -0.0875 H   0  0  0  0  0  0  0  0  0  0  0  0
   -4.8004    6.7197   -3.2391 H   0  0  0  0  0  0  0  0  0  0  0  0
   -6.1843    5.7133   -3.7854 H   0  0  0  0  0  0  0  0  0  0  0  0
   -6.3211    7.5044   -3.7854 H   0  0  0  0  0  0  0  0  0  0  0  0
   -7.9761    5.8728   -0.5914 H   0  0  0  0  0  0  0  0  0  0  0  0
   -8.5358    6.6030   -2.1342 H   0  0  0  0  0  0  0  0  0  0  0  0
   -7.7783    4.9742   -2.1342 H   0  0  0  0  0  0  0  0  0  0  0  0
   -2.6242   10.3751   -1.2687 H   0  0  0  0  0  0  0  0  0  0  0  0
   -2.1136   10.9792    1.0132 H   0  0  0  0  0  0  0  0  0  0  0  0
   -1.0516    9.5711    1.2296 H   0  0  0  0  0  0  0  0  0  0  0  0
   -0.1808   12.2633    0.8354 H   0  0  0  0  0  0  0  0  0  0  0  0
    0.8620   10.8531    0.6684 H   0  0  0  0  0  0  0  0  0  0  0  0
   -1.4552   13.0548   -0.5134 H   0  0  0  0  0  0  0  0  0  0  0  0
   -0.6252   13.4794   -2.0488 H   0  0  0  0  0  0  0  0  0  0  0  0
   -1.9462   12.2622   -2.0488 H   0  0  0  0  0  0  0  0  0  0  0  0
    1.9770   11.0723   -1.4713 H   0  0  0  0  0  0  0  0  0  0  0  0
    1.6396   13.3583   -0.3307 H   0  0  0  0  0  0  0  0  0  0  0  0
    3.0556   13.0605   -1.4688 H   0  0  0  0  0  0  0  0  0  0  0  0
    1.8344   15.3818   -1.7103 H   0  0  0  0  0  0  0  0  0  0  0  0
   -0.2660   12.9247   -4.1300 H   0  0  0  0  0  0  0  0  0  0  0  0
    2.4088   13.3446   -5.6011 H   0  0  0  0  0  0  0  0  0  0  0  0
    1.0075   12.3236   -6.1524 H   0  0  0  0  0  0  0  0  0  0  0  0
    1.1076   14.4930   -7.3363 H   0  0  0  0  0  0  0  0  0  0  0  0
   -0.3926   14.2967   -6.3476 H   0  0  0  0  0  0  0  0  0  0  0  0
    0.4382   16.5292   -6.0530 H   0  0  0  0  0  0  0  0  0  0  0  0
    2.6380   16.6440   -4.9820 H   0  0  0  0  0  0  0  0  0  0  0  0
   -1.2858   15.7358   -2.9425 H   0  0  0  0  0  0  0  0  0  0  0  0
   -1.3504   16.6356   -4.4959 H   0  0  0  0  0  0  0  0  0  0  0  0
   -1.3899   14.8397   -4.4959 H   0  0  0  0  0  0  0  0  0  0  0  0
    1.0277   16.8914   -2.3164 H   0  0  0  0  0  0  0  0  0  0  0  0
    2.1072   17.1995   -3.7187 H   0  0  0  0  0  0  0  0  0  0  0  0
    0.4294   17.8413   -3.7187 H   0  0  0  0  0  0  0  0  0  0  0  0
    3.4736   11.4460   -2.9240 H   0  0  0  0  0  0  0  0  0  0  0  0
    2.9453   10.6192   -4.4286 H   0  0  0  0  0  0  0  0  0  0  0  0
    3.2215   12.3942   -4.4286 H   0  0  0  0  0  0  0  0  0  0  0  0
    0.3115   10.7265   -5.0244 H   0  0  0  0  0  0  0  0  0  0  0  0
    1.2387    9.6678   -3.8184 H   0  0  0  0  0  0  0  0  0  0  0  0
   -1.4925   10.9289   -3.4526 H   0  0  0  0  0  0  0  0  0  0  0  0
   -1.0654    9.1768   -3.5752 H   0  0  0  0  0  0  0  0  0  0  0  0
    0.6428    8.8340   -0.3485 H   0  0  0  0  0  0  0  0  0  0  0  0
    0.1632    8.0237   -1.8782 H   0  0  0  0  0  0  0  0  0  0  0  0
    1.5003    9.2232   -1.8782 H   0  0  0  0  0  0  0  0  0  0  0  0
  1  2  1  0
  2  3  1  0
  3  4  1  0
  4  5  1  0
  5  6  1  0
  6  7  1  0
  7  8  1  0
  7  9  1  0
  2 10  1  0
 10 11  1  0
 11 12  1  0
 12 13  1  0
 13 14  1  1
 13 15  1  0
 15 16  1  0
 16 17  1  0
 17 18  2  0
 18 19  1  0
 19 20  1  0
 20 21  1  0
 21 22  1  0
 22 23  1  0
 22 24  1  0
 24 25  1  0
 24 26  1  0
 19 27  1  0
 27 28  1  6
 27 29  1  0
 29 30  1  0
 30 31  1  0
 31 32  1  6
  7  5  1  0
 31 10  1  0
 31 13  1  0
 27 15  1  0
 24 18  1  0
  1 33  1  0
  1 34  1  0
  1 35  1  0
  2 36  1  1
  3 37  1  0
  3 38  1  0
  4 39  1  0
  4 40  1  0
  5 41  1  1
  8 42  1  0
  8 43  1  0
  8 44  1  0
  9 45  1  0
  9 46  1  0
  9 47  1  0
 10 48  1  6
 11 49  1  0
 11 50  1  0
 12 51  1  0
 12 52  1  0
 14 53  1  0
 14 54  1  0
 14 55  1  0
 15 56  1  1
 16 57  1  0
 16 58  1  0
 17 59  1  0
 19 60  1  6
 20 61  1  0
 20 62  1  0
 21 63  1  0
 21 64  1  0
 22 65  1  6
 23 66  1  0
 25 67  1  0
 25 68  1  0
 25 69  1  0
 26 70  1  0
 26 71  1  0
 26 72  1  0
 28 73  1  0
 28 74  1  0
 28 75  1  0
 29 76  1  0
 29 77  1  0
 30 78  1  0
 30 79  1  0
 32 80  1  0
 32 81  1  0
 32 82  1  0
M  END
>  <meeko>  (12) 
{"is_sidechain": [false], "intermolecular_energy": 2.731, "internal_energy": -0.839}

$$$$
EPH_relaxed_0001_pdb2pqr_Repair_378_r2_0001_out
     RDKit          3D

 82 86  0  0  0  0  0  0  0  0999 V2000
   -0.8760    9.3090   -1.6940 C   0  0  0  0  0  0  0  0  0  0  0  0
    0.2730   10.1310   -2.2850 C   0  0  2  0  0  0  0  0  0  0  0  0
    1.5780    9.3160   -2.3870 C   0  0  0  0  0  0  0  0  0  0  0  0
    2.4120    9.6430   -3.6280 C   0  0  0  0  0  0  0  0  0  0  0  0
    3.8570    9.8510   -3.2860 C   0  0  2  0  0  0  0  0  0  0  0  0
    4.1810   11.1720   -2.8360 O   0  0  0  0  0  0  0  0  0  0  0  0
    4.7810   10.7590   -4.0750 C   0  0  0  0  0  0  0  0  0  0  0  0
    4.2950   11.5190   -5.2690 C   0  0  0  0  0  0  0  0  0  0  0  0
    6.2570   10.5320   -3.9840 C   0  0  0  0  0  0  0  0  0  0  0  0
    0.5040   11.3810   -1.4430 C   0  0  1  0  0  0  0  0  0  0  0  0
    1.6270   11.1910   -0.3880 C   0  0  0  0  0  0  0  0  0  0  0  0
    2.3560   12.5540   -0.2610 C   0  0  0  0  0  0  0  0  0  0  0  0
    1.4320   13.5590   -0.9880 C   0  0  1  0  0  0  0  0  0  0  0  0
    0.3250   13.9120    0.0540 C   0  0  0  0  0  0  0  0  0  0  0  0
    2.1200   14.8430   -1.5560 C   0  0  2  0  0  0  0  0  0  0  0  0
    2.7680   15.7570   -0.5020 C   0  0  0  0  0  0  0  0  0  0  0  0
    1.8790   16.8200    0.0540 C   0  0  0  0  0  0  0  0  0  0  0  0
    0.7080   17.2170   -0.4780 C   0  0  0  0  0  0  0  0  0  0  0  0
    0.2150   16.6440   -1.8130 C   0  0  1  0  0  0  0  0  0  0  0  0
   -0.2820   17.8000   -2.7200 C   0  0  0  0  0  0  0  0  0  0  0  0
   -1.3310   18.6720   -2.0360 C   0  0  0  0  0  0  0  0  0  0  0  0
   -0.7840   19.2690   -0.7420 C   0  0  2  0  0  0  0  0  0  0  0  0
    0.2600   20.1930   -1.0660 O   0  0  0  0  0  0  0  0  0  0  0  0
   -0.2450   18.1990    0.2480 C   0  0  0  0  0  0  0  0  0  0  0  0
   -1.4280   17.3870    0.8310 C   0  0  0  0  0  0  0  0  0  0  0  0
    0.4050   18.9410    1.4460 C   0  0  0  0  0  0  0  0  0  0  0  0
    1.2210   15.6690   -2.5630 C   0  0  1  0  0  0  0  0  0  0  0  0
    2.1960   16.4950   -3.4560 C   0  0  0  0  0  0  0  0  0  0  0  0
    0.4060   14.7390   -3.5380 C   0  0  0  0  0  0  0  0  0  0  0  0
   -0.1470   13.4280   -2.9470 C   0  0  0  0  0  0  0  0  0  0  0  0
    0.9440   12.6670   -2.1870 C   0  0  2  0  0  0  0  0  0  0  0  0
    2.0610   12.2790   -3.2140 C   0  0  0  0  0  0  0  0  0  0  0  0
   -0.8256    9.3451   -0.5957 H   0  0  0  0  0  0  0  0  0  0  0  0
   -1.8364    9.7262   -2.0309 H   0  0  0  0  0  0  0  0  0  0  0  0
   -0.7913    8.2653   -2.0309 H   0  0  0  0  0  0  0  0  0  0  0  0
   -0.0169   10.4186   -3.3064 H   0  0  0  0  0  0  0  0  0  0  0  0
    2.1872    9.5227   -1.4948 H   0  0  0  0  0  0  0  0  0  0  0  0
    1.2906    8.2569   -2.4627 H   0  0  0  0  0  0  0  0  0  0  0  0
    2.3309    8.8099   -4.3417 H   0  0  0  0  0  0  0  0  0  0  0  0
    2.0254   10.5755   -4.0651 H   0  0  0  0  0  0  0  0  0  0  0  0
    3.9541    8.8057   -2.9576 H   0  0  0  0  0  0  0  0  0  0  0  0
    3.7301   12.4023   -4.9364 H   0  0  0  0  0  0  0  0  0  0  0  0
    5.1555   11.8405   -5.8741 H   0  0  0  0  0  0  0  0  0  0  0  0
    3.6422   10.8728   -5.8741 H   0  0  0  0  0  0  0  0  0  0  0  0
    6.5564   10.4860   -2.9265 H   0  0  0  0  0  0  0  0  0  0  0  0
    6.5134    9.5839   -4.4793 H   0  0  0  0  0  0  0  0  0  0  0  0
    6.7864   11.3593   -4.4793 H   0  0  0  0  0  0  0  0  0  0  0  0
   -0.5056   11.5134   -1.0268 H   0  0  0  0  0  0  0  0  0  0  0  0
    1.1923   10.9021    0.5803 H   0  0  0  0  0  0  0  0  0  0  0  0
    2.3245   10.3966   -0.6920 H   0  0  0  0  0  0  0  0  0  0  0  0
    2.4774   12.8326    0.7962 H   0  0  0  0  0  0  0  0  0  0  0  0
    3.3672   12.5285   -0.6933 H   0  0  0  0  0  0  0  0  0  0  0  0
    0.7246   13.7846    1.0709 H   0  0  0  0  0  0  0  0  0  0  0  0
    0.0079   14.9558   -0.0872 H   0  0  0  0  0  0  0  0  0  0  0  0
   -0.5378   13.2444   -0.0872 H   0  0  0  0  0  0  0  0  0  0  0  0
    2.9525   14.4246   -2.1407 H   0  0  0  0  0  0  0  0  0  0  0  0
    3.1065   15.1260    0.3330 H   0  0  0  0  0  0  0  0  0  0  0  0
    3.5857   16.2828   -1.0167 H   0  0  0  0  0  0  0  0  0  0  0  0
    2.2088   17.3209    0.9761 H   0  0  0  0  0  0  0  0  0  0  0  0
   -0.6234   15.9760   -1.5664 H   0  0  0  0  0  0  0  0  0  0  0  0
    0.5780   18.4302   -2.9908 H   0  0  0  0  0  0  0  0  0  0  0  0
   -0.7500   17.3497   -3.6078 H   0  0  0  0  0  0  0  0  0  0  0  0
   -1.6195   19.4878   -2.7152 H   0  0  0  0  0  0  0  0  0  0  0  0
   -2.2032   18.0472   -1.7934 H   0  0  0  0  0  0  0  0  0  0  0  0
   -1.6188   19.7737   -0.2337 H   0  0  0  0  0  0  0  0  0  0  0  0
    1.1020   19.7080   -1.0370 H   0  0  0  0  0  0  0  0  0  0  0  0
   -1.3862   17.4157    1.9298 H   0  0  0  0  0  0  0  0  0  0  0  0
   -2.3773   17.8248    0.4886 H   0  0  0  0  0  0  0  0  0  0  0  0
   -1.3607   16.3438    0.4886 H   0  0  0  0  0  0  0  0  0  0  0  0
    0.0310   18.5141    2.3883 H   0  0  0  0  0  0  0  0  0  0  0  0
    1.4979   18.8256    1.3994 H   0  0  0  0  0  0  0  0  0  0  0  0
    0.1468   20.0092    1.3994 H   0  0  0  0  0  0  0  0  0  0  0  0
    2.8786   17.0733   -2.8159 H   0  0  0  0  0  0  0  0  0  0  0  0
    2.7792   15.8120   -4.0911 H   0  0  0  0  0  0  0  0  0  0  0  0
    1.6181   17.1826   -4.0911 H   0  0  0  0  0  0  0  0  0  0  0  0
   -0.4482   15.3201   -3.9158 H   0  0  0  0  0  0  0  0  0  0  0  0
    1.1272   14.4263   -4.3075 H   0  0  0  0  0  0  0  0  0  0  0  0
   -0.9697   13.6635   -2.2558 H   0  0  0  0  0  0  0  0  0  0  0  0
   -0.5068   12.7953   -3.7718 H   0  0  0  0  0  0  0  0  0  0  0  0
    2.9649   11.9650   -2.6714 H   0  0  0  0  0  0  0  0  0  0  0  0
    1.7066   11.4513   -3.8459 H   0  0  0  0  0  0  0  0  0  0  0  0
    2.2960   13.1482   -3.8459 H   0  0  0  0  0  0  0  0  0  0  0  0
  1  2  1  0
  2  3  1  0
  3  4  1  0
  4  5  1  0
  5  6  1  0
  6  7  1  0
  7  8  1  0
  7  9  1  0
  2 10  1  0
 10 11  1  0
 11 12  1  0
 12 13  1  0
 13 14  1  1
 13 15  1  0
 15 16  1  0
 16 17  1  0
 17 18  2  0
 18 19  1  0
 19 20  1  0
 20 21  1  0
 21 22  1  0
 22 23  1  0
 22 24  1  0
 24 25  1  0
 24 26  1  0
 19 27  1  0
 27 28  1  6
 27 29  1  0
 29 30  1  0
 30 31  1  0
 31 32  1  6
  7  5  1  0
 31 10  1  0
 31 13  1  0
 27 15  1  0
 24 18  1  0
  1 33  1  0
  1 34  1  0
  1 35  1  0
  2 36  1  6
  3 37  1  0
  3 38  1  0
  4 39  1  0
  4 40  1  0
  5 41  1  1
  8 42  1  0
  8 43  1  0
  8 44  1  0
  9 45  1  0
  9 46  1  0
  9 47  1  0
 10 48  1  1
 11 49  1  0
 11 50  1  0
 12 51  1  0
 12 52  1  0
 14 53  1  0
 14 54  1  0
 14 55  1  0
 15 56  1  6
 16 57  1  0
 16 58  1  0
 17 59  1  0
 19 60  1  1
 20 61  1  0
 20 62  1  0
 21 63  1  0
 21 64  1  0
 22 65  1  1
 23 66  1  0
 25 67  1  0
 25 68  1  0
 25 69  1  0
 26 70  1  0
 26 71  1  0
 26 72  1  0
 28 73  1  0
 28 74  1  0
 28 75  1  0
 29 76  1  0
 29 77  1  0
 30 78  1  0
 30 79  1  0
 32 80  1  0
 32 81  1  0
 32 82  1  0
M  END
>  <meeko>  (13) 
{"is_sidechain": [false], "intermolecular_energy": 2.731, "internal_energy": -0.839}

$$$$
EPH_relaxed_0001_pdb2pqr_Repair_378_r2_0001_out
     RDKit          3D

 82 86  0  0  0  0  0  0  0  0999 V2000
    0.2610    9.9100   -4.6390 C   0  0  0  0  0  0  0  0  0  0  0  0
    1.3290   10.6250   -3.8060 C   0  0  2  0  0  0  0  0  0  0  0  0
    1.7550    9.7990   -2.5760 C   0  0  0  0  0  0  0  0  0  0  0  0
    0.7380    8.7300   -2.1700 C   0  0  0  0  0  0  0  0  0  0  0  0
   -0.1170    9.1840   -1.0260 C   0  0  2  0  0  0  0  0  0  0  0  0
   -0.6560    8.1250   -0.2230 O   0  0  0  0  0  0  0  0  0  0  0  0
   -1.6100    8.9240   -0.9420 C   0  0  0  0  0  0  0  0  0  0  0  0
   -2.3340    8.1810   -2.0210 C   0  0  0  0  0  0  0  0  0  0  0  0
   -2.4420    9.8050   -0.0630 C   0  0  0  0  0  0  0  0  0  0  0  0
    0.8140   11.9900   -3.3640 C   0  0  1  0  0  0  0  0  0  0  0  0
   -0.7010   11.9790   -3.0310 C   0  0  0  0  0  0  0  0  0  0  0  0
   -0.9090   12.9690   -1.8570 C   0  0  0  0  0  0  0  0  0  0  0  0
    0.4190   13.7590   -1.7730 C   0  0  1  0  0  0  0  0  0  0  0  0
    0.3060   14.8520   -2.8810 C   0  0  0  0  0  0  0  0  0  0  0  0
    0.7660   14.3810   -0.3820 C   0  0  2  0  0  0  0  0  0  0  0  0
   -0.2300   15.4380    0.1280 C   0  0  0  0  0  0  0  0  0  0  0  0
    0.0780   16.8450   -0.2640 C   0  0  0  0  0  0  0  0  0  0  0  0
    1.2540   17.2820   -0.7500 C   0  0  0  0  0  0  0  0  0  0  0  0
    2.4610   16.3410   -0.8570 C   0  0  1  0  0  0  0  0  0  0  0  0
    3.7220   17.0500   -0.2970 C   0  0  0  0  0  0  0  0  0  0  0  0
    3.9760   18.4010   -0.9590 C   0  0  0  0  0  0  0  0  0  0  0  0
    2.7770   19.3290   -0.7810 C   0  0  2  0  0  0  0  0  0  0  0  0
    2.6480   19.6550    0.6070 O   0  0  0  0  0  0  0  0  0  0  0  0
    1.4460   18.7170   -1.3000 C   0  0  0  0  0  0  0  0  0  0  0  0
    1.4750   18.6450   -2.8470 C   0  0  0  0  0  0  0  0  0  0  0  0
    0.2960   19.6930   -0.9330 C   0  0  0  0  0  0  0  0  0  0  0  0
    2.2600   14.8850   -0.2520 C   0  0  1  0  0  0  0  0  0  0  0  0
    2.5980   14.8900    1.2710 C   0  0  0  0  0  0  0  0  0  0  0  0
    3.2850   13.9010   -0.9300 C   0  0  0  0  0  0  0  0  0  0  0  0
    2.8360   13.2250   -2.2400 C   0  0  0  0  0  0  0  0  0  0  0  0
    1.4420   12.6090   -2.0900 C   0  0  2  0  0  0  0  0  0  0  0  0
    1.5300   11.4890   -0.9970 C   0  0  0  0  0  0  0  0  0  0  0  0
   -0.4634    9.4250   -3.9681 H   0  0  0  0  0  0  0  0  0  0  0  0
   -0.2600   10.6421   -5.2736 H   0  0  0  0  0  0  0  0  0  0  0  0
    0.7393    9.1494   -5.2736 H   0  0  0  0  0  0  0  0  0  0  0  0
    2.2172   10.7505   -4.4427 H   0  0  0  0  0  0  0  0  0  0  0  0
    2.7089    9.3014   -2.8053 H   0  0  0  0  0  0  0  0  0  0  0  0
    1.8390   10.4995   -1.7320 H   0  0  0  0  0  0  0  0  0  0  0  0
    0.0916    8.5075   -3.0317 H   0  0  0  0  0  0  0  0  0  0  0  0
    1.2911    7.8345   -1.8503 H   0  0  0  0  0  0  0  0  0  0  0  0
    0.4798   10.1012   -0.9140 H   0  0  0  0  0  0  0  0  0  0  0  0
   -3.0331    7.4636   -1.5665 H   0  0  0  0  0  0  0  0  0  0  0  0
   -2.8937    8.8935   -2.6447 H   0  0  0  0  0  0  0  0  0  0  0  0
   -1.6072    7.6399   -2.6447 H   0  0  0  0  0  0  0  0  0  0  0  0
   -2.2277    9.5781    0.9918 H   0  0  0  0  0  0  0  0  0  0  0  0
   -2.2019   10.8588   -0.2674 H   0  0  0  0  0  0  0  0  0  0  0  0
   -3.5078    9.6255   -0.2674 H   0  0  0  0  0  0  0  0  0  0  0  0
    1.0901   12.5847   -4.2472 H   0  0  0  0  0  0  0  0  0  0  0  0
   -1.2834   12.3021   -3.9064 H   0  0  0  0  0  0  0  0  0  0  0  0
   -1.0378   10.9678   -2.7588 H   0  0  0  0  0  0  0  0  0  0  0  0
   -1.7511   13.6458   -2.0642 H   0  0  0  0  0  0  0  0  0  0  0  0
   -1.1487   12.4545   -0.9148 H   0  0  0  0  0  0  0  0  0  0  0  0
    0.2037   15.8413   -2.4111 H   0  0  0  0  0  0  0  0  0  0  0  0
    1.2107   14.8350   -3.5065 H   0  0  0  0  0  0  0  0  0  0  0  0
   -0.5761   14.6502   -3.5065 H   0  0  0  0  0  0  0  0  0  0  0  0
    0.6593   13.5198    0.2939 H   0  0  0  0  0  0  0  0  0  0  0  0
   -1.2254   15.1854   -0.2661 H   0  0  0  0  0  0  0  0  0  0  0  0
   -0.1706   15.4078    1.2260 H   0  0  0  0  0  0  0  0  0  0  0  0
   -0.7247   17.5877   -0.1454 H   0  0  0  0  0  0  0  0  0  0  0  0
    2.5936   16.1369   -1.9297 H   0  0  0  0  0  0  0  0  0  0  0  0
    3.5880   17.2064    0.7835 H   0  0  0  0  0  0  0  0  0  0  0  0
    4.5886   16.4063   -0.5084 H   0  0  0  0  0  0  0  0  0  0  0  0
    4.8619   18.8654   -0.5013 H   0  0  0  0  0  0  0  0  0  0  0  0
    4.1391   18.2400   -2.0349 H   0  0  0  0  0  0  0  0  0  0  0  0
    2.9644   20.2292   -1.3847 H   0  0  0  0  0  0  0  0  0  0  0  0
    1.9790   19.0600    0.9870 H   0  0  0  0  0  0  0  0  0  0  0  0
    1.8689   17.6672   -3.1612 H   0  0  0  0  0  0  0  0  0  0  0  0
    0.4553   18.7728   -3.2392 H   0  0  0  0  0  0  0  0  0  0  0  0
    2.1215   19.4439   -3.2392 H   0  0  0  0  0  0  0  0  0  0  0  0
    0.2113   19.7649    0.1614 H   0  0  0  0  0  0  0  0  0  0  0  0
    0.5121   20.6876   -1.3502 H   0  0  0  0  0  0  0  0  0  0  0  0
   -0.6503   19.3181   -1.3502 H   0  0  0  0  0  0  0  0  0  0  0  0
    1.6651   14.8762    1.8537 H   0  0  0  0  0  0  0  0  0  0  0  0
    3.1969   14.0006    1.5166 H   0  0  0  0  0  0  0  0  0  0  0  0
    3.1703   15.7967    1.5166 H   0  0  0  0  0  0  0  0  0  0  0  0
    4.2005   14.4712   -1.1464 H   0  0  0  0  0  0  0  0  0  0  0  0
    3.4136   13.0786   -0.2109 H   0  0  0  0  0  0  0  0  0  0  0  0
    2.8127   13.9765   -3.0429 H   0  0  0  0  0  0  0  0  0  0  0  0
    3.5490   12.4234   -2.4830 H   0  0  0  0  0  0  0  0  0  0  0  0
    1.4939   11.9480    0.0020 H   0  0  0  0  0  0  0  0  0  0  0  0
    0.6835   10.7962   -1.1130 H   0  0  0  0  0  0  0  0  0  0  0  0
    2.4743   10.9369   -1.1130 H   0  0  0  0  0  0  0  0  0  0  0  0
  1  2  1  0
  2  3  1  0
  3  4  1  0
  4  5  1  0
  5  6  1  0
  6  7  1  0
  7  8  1  0
  7  9  1  0
  2 10  1  0
 10 11  1  0
 11 12  1  0
 12 13  1  0
 13 14  1  6
 13 15  1  0
 15 16  1  0
 16 17  1  0
 17 18  2  0
 18 19  1  0
 19 20  1  0
 20 21  1  0
 21 22  1  0
 22 23  1  0
 22 24  1  0
 24 25  1  0
 24 26  1  0
 19 27  1  0
 27 28  1  1
 27 29  1  0
 29 30  1  0
 30 31  1  0
 31 32  1  1
  7  5  1  0
 31 10  1  0
 31 13  1  0
 27 15  1  0
 24 18  1  0
  1 33  1  0
  1 34  1  0
  1 35  1  0
  2 36  1  6
  3 37  1  0
  3 38  1  0
  4 39  1  0
  4 40  1  0
  5 41  1  1
  8 42  1  0
  8 43  1  0
  8 44  1  0
  9 45  1  0
  9 46  1  0
  9 47  1  0
 10 48  1  6
 11 49  1  0
 11 50  1  0
 12 51  1  0
 12 52  1  0
 14 53  1  0
 14 54  1  0
 14 55  1  0
 15 56  1  1
 16 57  1  0
 16 58  1  0
 17 59  1  0
 19 60  1  6
 20 61  1  0
 20 62  1  0
 21 63  1  0
 21 64  1  0
 22 65  1  6
 23 66  1  0
 25 67  1  0
 25 68  1  0
 25 69  1  0
 26 70  1  0
 26 71  1  0
 26 72  1  0
 28 73  1  0
 28 74  1  0
 28 75  1  0
 29 76  1  0
 29 77  1  0
 30 78  1  0
 30 79  1  0
 32 80  1  0
 32 81  1  0
 32 82  1  0
M  END
>  <meeko>  (14) 
{"is_sidechain": [false], "intermolecular_energy": 2.731, "internal_energy": -0.839}

$$$$
EPH_relaxed_0001_pdb2pqr_Repair_378_r2_0001_out
     RDKit          3D

 82 86  0  0  0  0  0  0  0  0999 V2000
    0.8810   14.9110   -2.6020 C   0  0  0  0  0  0  0  0  0  0  0  0
    1.1620   14.2420   -3.9510 C   0  0  2  0  0  0  0  0  0  0  0  0
    0.4750   14.9790   -5.1180 C   0  0  0  0  0  0  0  0  0  0  0  0
    1.0360   14.6090   -6.4940 C   0  0  0  0  0  0  0  0  0  0  0  0
    0.7980   15.6950   -7.5000 C   0  0  2  0  0  0  0  0  0  0  0  0
    0.3480   15.2360   -8.7810 O   0  0  0  0  0  0  0  0  0  0  0  0
    1.6350   15.8730   -8.7530 C   0  0  0  0  0  0  0  0  0  0  0  0
    2.7750   14.9560   -9.0660 C   0  0  0  0  0  0  0  0  0  0  0  0
    1.6570   17.2160   -9.4130 C   0  0  0  0  0  0  0  0  0  0  0  0
    0.7080   12.7870   -3.9140 C   0  0  1  0  0  0  0  0  0  0  0  0
    1.8330   11.8000   -4.3240 C   0  0  0  0  0  0  0  0  0  0  0  0
    1.6400   10.5220   -3.4680 C   0  0  0  0  0  0  0  0  0  0  0  0
    0.2340   10.6790   -2.8430 C   0  0  1  0  0  0  0  0  0  0  0  0
   -0.7550   10.2300   -3.9630 C   0  0  0  0  0  0  0  0  0  0  0  0
   -0.0180    9.9080   -1.5060 C   0  0  2  0  0  0  0  0  0  0  0  0
    0.0820    8.3760   -1.6080 C   0  0  0  0  0  0  0  0  0  0  0  0
   -1.1960    7.6730   -1.9280 C   0  0  0  0  0  0  0  0  0  0  0  0
   -2.4270    8.2120   -1.8460 C   0  0  0  0  0  0  0  0  0  0  0  0
   -2.6300    9.6320   -1.3010 C   0  0  1  0  0  0  0  0  0  0  0  0
   -3.7980    9.6320   -0.2810 C   0  0  0  0  0  0  0  0  0  0  0  0
   -5.0800    9.0400   -0.8590 C   0  0  0  0  0  0  0  0  0  0  0  0
   -4.8520    7.6080   -1.3360 C   0  0  2  0  0  0  0  0  0  0  0  0
   -4.5830    6.7810   -0.2000 O   0  0  0  0  0  0  0  0  0  0  0  0
   -3.6910    7.4820   -2.3620 C   0  0  0  0  0  0  0  0  0  0  0  0
   -4.1110    8.1270   -3.7060 C   0  0  0  0  0  0  0  0  0  0  0  0
   -3.4740    5.9730   -2.6540 C   0  0  0  0  0  0  0  0  0  0  0  0
   -1.3290   10.3520   -0.7400 C   0  0  1  0  0  0  0  0  0  0  0  0
   -1.1180    9.9760    0.7590 C   0  0  0  0  0  0  0  0  0  0  0  0
   -1.5470   11.9110   -0.7790 C   0  0  0  0  0  0  0  0  0  0  0  0
   -1.1670   12.6320   -2.0860 C   0  0  0  0  0  0  0  0  0  0  0  0
    0.2350   12.2240   -2.5500 C   0  0  2  0  0  0  0  0  0  0  0  0
    1.2550   12.6830   -1.4530 C   0  0  0  0  0  0  0  0  0  0  0  0
    1.1674   14.2291   -1.7878 H   0  0  0  0  0  0  0  0  0  0  0  0
    1.4650   15.8400   -2.5247 H   0  0  0  0  0  0  0  0  0  0  0  0
   -0.1912   15.1444   -2.5247 H   0  0  0  0  0  0  0  0  0  0  0  0
    2.2473   14.2883   -4.1243 H   0  0  0  0  0  0  0  0  0  0  0  0
   -0.5968   14.7322   -5.1019 H   0  0  0  0  0  0  0  0  0  0  0  0
    0.6599   16.0537   -4.9734 H   0  0  0  0  0  0  0  0  0  0  0  0
    2.1189   14.4381   -6.4033 H   0  0  0  0  0  0  0  0  0  0  0  0
    0.5214   13.7009   -6.8413 H   0  0  0  0  0  0  0  0  0  0  0  0
    0.4983   16.3961   -6.7071 H   0  0  0  0  0  0  0  0  0  0  0  0
    3.2234   14.5953   -8.1286 H   0  0  0  0  0  0  0  0  0  0  0  0
    2.4069   14.0994   -9.6498 H   0  0  0  0  0  0  0  0  0  0  0  0
    3.5328   15.4991   -9.6498 H   0  0  0  0  0  0  0  0  0  0  0  0
    1.6699   18.0023   -8.6439 H   0  0  0  0  0  0  0  0  0  0  0  0
    2.5567   17.3017  -10.0401 H   0  0  0  0  0  0  0  0  0  0  0  0
    0.7606   17.3311  -10.0401 H   0  0  0  0  0  0  0  0  0  0  0  0
   -0.1396   12.8402   -4.6131 H   0  0  0  0  0  0  0  0  0  0  0  0
    1.7514   11.5556   -5.3934 H   0  0  0  0  0  0  0  0  0  0  0  0
    2.8265   12.2415   -4.1564 H   0  0  0  0  0  0  0  0  0  0  0  0
    1.6863    9.6218   -4.0985 H   0  0  0  0  0  0  0  0  0  0  0  0
    2.4248   10.4083   -2.7057 H   0  0  0  0  0  0  0  0  0  0  0  0
   -1.6653    9.8167   -3.5042 H   0  0  0  0  0  0  0  0  0  0  0  0
   -1.0198   11.0962   -4.5872 H   0  0  0  0  0  0  0  0  0  0  0  0
   -0.2772    9.4605   -4.5872 H   0  0  0  0  0  0  0  0  0  0  0  0
    0.8353   10.2224   -0.8871 H   0  0  0  0  0  0  0  0  0  0  0  0
    0.8094    8.1347   -2.3971 H   0  0  0  0  0  0  0  0  0  0  0  0
    0.3814    8.0236   -0.6099 H   0  0  0  0  0  0  0  0  0  0  0  0
   -1.1257    6.6262   -2.2587 H   0  0  0  0  0  0  0  0  0  0  0  0
   -2.8914   10.2566   -2.1679 H   0  0  0  0  0  0  0  0  0  0  0  0
   -3.5000    9.0389    0.5962 H   0  0  0  0  0  0  0  0  0  0  0  0
   -4.0055   10.6780   -0.0112 H   0  0  0  0  0  0  0  0  0  0  0  0
   -5.8592    9.0412   -0.0826 H   0  0  0  0  0  0  0  0  0  0  0  0
   -5.3930    9.6511   -1.7184 H   0  0  0  0  0  0  0  0  0  0  0  0
   -5.7657    7.2835   -1.8554 H   0  0  0  0  0  0  0  0  0  0  0  0
   -4.1020    7.3200    0.4500 H   0  0  0  0  0  0  0  0  0  0  0  0
   -4.7015    9.0339   -3.5088 H   0  0  0  0  0  0  0  0  0  0  0  0
   -3.2122    8.3927   -4.2819 H   0  0  0  0  0  0  0  0  0  0  0  0
   -4.7175    7.4125   -4.2819 H   0  0  0  0  0  0  0  0  0  0  0  0
   -3.3950    5.4234   -1.7044 H   0  0  0  0  0  0  0  0  0  0  0  0
   -4.3256    5.5853   -3.2323 H   0  0  0  0  0  0  0  0  0  0  0  0
   -2.5476    5.8409   -3.2323 H   0  0  0  0  0  0  0  0  0  0  0  0
   -1.5562   10.7568    1.3981 H   0  0  0  0  0  0  0  0  0  0  0  0
   -1.6078    9.0135    0.9680 H   0  0  0  0  0  0  0  0  0  0  0  0
   -0.0413    9.8926    0.9680 H   0  0  0  0  0  0  0  0  0  0  0  0
   -2.6137   12.1028   -0.5909 H   0  0  0  0  0  0  0  0  0  0  0  0
   -0.8649   12.3166   -0.0173 H   0  0  0  0  0  0  0  0  0  0  0  0
   -1.8954   12.3686   -2.8671 H   0  0  0  0  0  0  0  0  0  0  0  0
   -1.1739   13.7166   -1.9029 H   0  0  0  0  0  0  0  0  0  0  0  0
    0.8315   12.4924   -0.4558 H   0  0  0  0  0  0  0  0  0  0  0  0
    2.1934   12.1204   -1.5665 H   0  0  0  0  0  0  0  0  0  0  0  0
    1.4563   13.7585   -1.5665 H   0  0  0  0  0  0  0  0  0  0  0  0
  1  2  1  0
  2  3  1  0
  3  4  1  0
  4  5  1  0
  5  6  1  0
  6  7  1  0
  7  8  1  0
  7  9  1  0
  2 10  1  0
 10 11  1  0
 11 12  1  0
 12 13  1  0
 13 14  1  6
 13 15  1  0
 15 16  1  0
 16 17  1  0
 17 18  2  0
 18 19  1  0
 19 20  1  0
 20 21  1  0
 21 22  1  0
 22 23  1  0
 22 24  1  0
 24 25  1  0
 24 26  1  0
 19 27  1  0
 27 28  1  1
 27 29  1  0
 29 30  1  0
 30 31  1  0
 31 32  1  1
  7  5  1  0
 31 10  1  0
 31 13  1  0
 27 15  1  0
 24 18  1  0
  1 33  1  0
  1 34  1  0
  1 35  1  0
  2 36  1  6
  3 37  1  0
  3 38  1  0
  4 39  1  0
  4 40  1  0
  5 41  1  1
  8 42  1  0
  8 43  1  0
  8 44  1  0
  9 45  1  0
  9 46  1  0
  9 47  1  0
 10 48  1  6
 11 49  1  0
 11 50  1  0
 12 51  1  0
 12 52  1  0
 14 53  1  0
 14 54  1  0
 14 55  1  0
 15 56  1  1
 16 57  1  0
 16 58  1  0
 17 59  1  0
 19 60  1  6
 20 61  1  0
 20 62  1  0
 21 63  1  0
 21 64  1  0
 22 65  1  6
 23 66  1  0
 25 67  1  0
 25 68  1  0
 25 69  1  0
 26 70  1  0
 26 71  1  0
 26 72  1  0
 28 73  1  0
 28 74  1  0
 28 75  1  0
 29 76  1  0
 29 77  1  0
 30 78  1  0
 30 79  1  0
 32 80  1  0
 32 81  1  0
 32 82  1  0
M  END
>  <meeko>  (15) 
{"is_sidechain": [false], "intermolecular_energy": 2.731, "internal_energy": -0.839}

$$$$
EPH_relaxed_0001_pdb2pqr_Repair_378_r2_0001_out
     RDKit          3D

 82 86  0  0  0  0  0  0  0  0999 V2000
   -1.6730   14.9320    0.5020 C   0  0  0  0  0  0  0  0  0  0  0  0
   -0.3260   15.6110    0.2370 C   0  0  2  0  0  0  0  0  0  0  0  0
   -0.3970   16.5980   -0.9450 C   0  0  0  0  0  0  0  0  0  0  0  0
   -0.0700   18.0440   -0.5600 C   0  0  0  0  0  0  0  0  0  0  0  0
    1.3530   18.1900   -0.1130 C   0  0  2  0  0  0  0  0  0  0  0  0
    2.0230   19.3520   -0.6190 O   0  0  0  0  0  0  0  0  0  0  0  0
    2.5400   18.0830   -1.0520 C   0  0  0  0  0  0  0  0  0  0  0  0
    2.3570   17.8180   -2.5140 C   0  0  0  0  0  0  0  0  0  0  0  0
    3.8810   17.7500   -0.4760 C   0  0  0  0  0  0  0  0  0  0  0  0
    0.7440   14.5580   -0.0280 C   0  0  1  0  0  0  0  0  0  0  0  0
    0.8630   13.5250    1.1240 C   0  0  0  0  0  0  0  0  0  0  0  0
    1.2100   12.1630    0.4700 C   0  0  0  0  0  0  0  0  0  0  0  0
    1.6030   12.5170   -0.9840 C   0  0  1  0  0  0  0  0  0  0  0  0
    3.0860   12.9940   -0.8930 C   0  0  0  0  0  0  0  0  0  0  0  0
    1.4250   11.3820   -2.0440 C   0  0  2  0  0  0  0  0  0  0  0  0
    2.2870   10.1290   -1.8100 C   0  0  0  0  0  0  0  0  0  0  0  0
    3.6280   10.1460   -2.4660 C   0  0  0  0  0  0  0  0  0  0  0  0
    4.0110   10.9920   -3.4400 C   0  0  0  0  0  0  0  0  0  0  0  0
    3.0210   11.9930   -4.0490 C   0  0  1  0  0  0  0  0  0  0  0  0
    3.1350   11.9590   -5.5950 C   0  0  0  0  0  0  0  0  0  0  0  0
    4.5630   12.1830   -6.0820 C   0  0  0  0  0  0  0  0  0  0  0  0
    5.5080   11.1330   -5.5020 C   0  0  2  0  0  0  0  0  0  0  0  0
    5.1650    9.8540   -6.0450 O   0  0  0  0  0  0  0  0  0  0  0  0
    5.4720   11.0680   -3.9490 C   0  0  0  0  0  0  0  0  0  0  0  0
    6.1260   12.3420   -3.3600 C   0  0  0  0  0  0  0  0  0  0  0  0
    6.3600    9.8760   -3.5000 C   0  0  0  0  0  0  0  0  0  0  0  0
    1.5180   11.8760   -3.5440 C   0  0  1  0  0  0  0  0  0  0  0  0
    0.7480   10.8290   -4.4060 C   0  0  0  0  0  0  0  0  0  0  0  0
    0.7920   13.2550   -3.7670 C   0  0  0  0  0  0  0  0  0  0  0  0
    0.9050   14.2910   -2.6320 C   0  0  0  0  0  0  0  0  0  0  0  0
    0.5640   13.6600   -1.2780 C   0  0  2  0  0  0  0  0  0  0  0  0
   -0.9300   13.1910   -1.3310 C   0  0  0  0  0  0  0  0  0  0  0  0
   -1.8352   14.8502    1.5869 H   0  0  0  0  0  0  0  0  0  0  0  0
   -2.4799   15.5311    0.0547 H   0  0  0  0  0  0  0  0  0  0  0  0
   -1.6713   13.9270    0.0547 H   0  0  0  0  0  0  0  0  0  0  0  0
   -0.0642   16.1890    1.1355 H   0  0  0  0  0  0  0  0  0  0  0  0
    0.3201   16.2724   -1.7129 H   0  0  0  0  0  0  0  0  0  0  0  0
   -1.4349   16.5891   -1.3094 H   0  0  0  0  0  0  0  0  0  0  0  0
   -0.2378   18.6920   -1.4329 H   0  0  0  0  0  0  0  0  0  0  0  0
   -0.7236   18.3325    0.2764 H   0  0  0  0  0  0  0  0  0  0  0  0
    1.1260   17.7041    0.8474 H   0  0  0  0  0  0  0  0  0  0  0  0
    1.7367   16.9197   -2.6490 H   0  0  0  0  0  0  0  0  0  0  0  0
    1.8609   18.6802   -2.9836 H   0  0  0  0  0  0  0  0  0  0  0  0
    3.3390   17.6594   -2.9836 H   0  0  0  0  0  0  0  0  0  0  0  0
    3.8222   17.7646    0.6223 H   0  0  0  0  0  0  0  0  0  0  0  0
    4.1867   16.7487   -0.8135 H   0  0  0  0  0  0  0  0  0  0  0  0
    4.6196   18.4920   -0.8135 H   0  0  0  0  0  0  0  0  0  0  0  0
    1.6188   15.2122   -0.1572 H   0  0  0  0  0  0  0  0  0  0  0  0
    1.6599   13.8246    1.8205 H   0  0  0  0  0  0  0  0  0  0  0  0
   -0.0748   13.4610    1.6953 H   0  0  0  0  0  0  0  0  0  0  0  0
    2.0503   11.6837    0.9936 H   0  0  0  0  0  0  0  0  0  0  0  0
    0.3708   11.4532    0.5142 H   0  0  0  0  0  0  0  0  0  0  0  0
    3.3769   13.0876    0.1637 H   0  0  0  0  0  0  0  0  0  0  0  0
    3.7383   12.2603   -1.3893 H   0  0  0  0  0  0  0  0  0  0  0  0
    3.1882   13.9703   -1.3893 H   0  0  0  0  0  0  0  0  0  0  0  0
    0.3853   11.0641   -1.8766 H   0  0  0  0  0  0  0  0  0  0  0  0
    2.4401   10.0193   -0.7262 H   0  0  0  0  0  0  0  0  0  0  0  0
    1.7366    9.2918   -2.2641 H   0  0  0  0  0  0  0  0  0  0  0  0
    4.3652    9.4045   -2.1244 H   0  0  0  0  0  0  0  0  0  0  0  0
    3.3207   12.9832   -3.6752 H   0  0  0  0  0  0  0  0  0  0  0  0
    2.7906   10.9773   -5.9523 H   0  0  0  0  0  0  0  0  0  0  0  0
    2.5148   12.7756   -5.9932 H   0  0  0  0  0  0  0  0  0  0  0  0
    4.5833   12.1185   -7.1799 H   0  0  0  0  0  0  0  0  0  0  0  0
    4.8958   13.1772   -5.7491 H   0  0  0  0  0  0  0  0  0  0  0  0
    6.5325   11.4210   -5.7805 H   0  0  0  0  0  0  0  0  0  0  0  0
    5.7700    9.6770   -6.7840 H   0  0  0  0  0  0  0  0  0  0  0  0
    6.1007   12.2927   -2.2614 H   0  0  0  0  0  0  0  0  0  0  0  0
    7.1700   12.4090   -3.7001 H   0  0  0  0  0  0  0  0  0  0  0  0
    5.5719   13.2293   -3.7001 H   0  0  0  0  0  0  0  0  0  0  0  0
    6.3905    9.8350   -2.4012 H   0  0  0  0  0  0  0  0  0  0  0  0
    5.9390    8.9377   -3.8904 H   0  0  0  0  0  0  0  0  0  0  0  0
    7.3795   10.0108   -3.8904 H   0  0  0  0  0  0  0  0  0  0  0  0
    0.2273   10.1210   -3.7444 H   0  0  0  0  0  0  0  0  0  0  0  0
    0.0132   11.3459   -5.0408 H   0  0  0  0  0  0  0  0  0  0  0  0
    1.4603   10.2816   -5.0408 H   0  0  0  0  0  0  0  0  0  0  0  0
    1.2131   13.7097   -4.6758 H   0  0  0  0  0  0  0  0  0  0  0  0
   -0.2787   13.0102   -3.8278 H   0  0  0  0  0  0  0  0  0  0  0  0
    1.9340   14.6785   -2.5995 H   0  0  0  0  0  0  0  0  0  0  0  0
    0.1928   15.1060   -2.8286 H   0  0  0  0  0  0  0  0  0  0  0  0
   -1.3131   13.0707   -0.3069 H   0  0  0  0  0  0  0  0  0  0  0  0
   -1.5319   13.9434   -1.8617 H   0  0  0  0  0  0  0  0  0  0  0  0
   -0.9939   12.2296   -1.8617 H   0  0  0  0  0  0  0  0  0  0  0  0
  1  2  1  0
  2  3  1  0
  3  4  1  0
  4  5  1  0
  5  6  1  0
  6  7  1  0
  7  8  1  0
  7  9  1  0
  2 10  1  0
 10 11  1  0
 11 12  1  0
 12 13  1  0
 13 14  1  1
 13 15  1  0
 15 16  1  0
 16 17  1  0
 17 18  2  0
 18 19  1  0
 19 20  1  0
 20 21  1  0
 21 22  1  0
 22 23  1  0
 22 24  1  0
 24 25  1  0
 24 26  1  0
 19 27  1  0
 27 28  1  6
 27 29  1  0
 29 30  1  0
 30 31  1  0
 31 32  1  6
  7  5  1  0
 31 10  1  0
 31 13  1  0
 27 15  1  0
 24 18  1  0
  1 33  1  0
  1 34  1  0
  1 35  1  0
  2 36  1  1
  3 37  1  0
  3 38  1  0
  4 39  1  0
  4 40  1  0
  5 41  1  1
  8 42  1  0
  8 43  1  0
  8 44  1  0
  9 45  1  0
  9 46  1  0
  9 47  1  0
 10 48  1  6
 11 49  1  0
 11 50  1  0
 12 51  1  0
 12 52  1  0
 14 53  1  0
 14 54  1  0
 14 55  1  0
 15 56  1  6
 16 57  1  0
 16 58  1  0
 17 59  1  0
 19 60  1  1
 20 61  1  0
 20 62  1  0
 21 63  1  0
 21 64  1  0
 22 65  1  1
 23 66  1  0
 25 67  1  0
 25 68  1  0
 25 69  1  0
 26 70  1  0
 26 71  1  0
 26 72  1  0
 28 73  1  0
 28 74  1  0
 28 75  1  0
 29 76  1  0
 29 77  1  0
 30 78  1  0
 30 79  1  0
 32 80  1  0
 32 81  1  0
 32 82  1  0
M  END
>  <meeko>  (16) 
{"is_sidechain": [false], "intermolecular_energy": 2.731, "internal_energy": -0.839}

$$$$
EPH_relaxed_0001_pdb2pqr_Repair_378_r2_0001_out
     RDKit          3D

 82 86  0  0  0  0  0  0  0  0999 V2000
   -2.5870    7.6940   -0.1120 C   0  0  0  0  0  0  0  0  0  0  0  0
   -3.1900    9.1010   -0.0780 C   0  0  2  0  0  0  0  0  0  0  0  0
   -4.6840    9.1020   -0.4620 C   0  0  0  0  0  0  0  0  0  0  0  0
   -5.3080    7.7050   -0.5070 C   0  0  0  0  0  0  0  0  0  0  0  0
   -5.9850    7.4430   -1.8190 C   0  0  2  0  0  0  0  0  0  0  0  0
   -6.8700    8.4830   -2.2540 O   0  0  0  0  0  0  0  0  0  0  0  0
   -7.4790    7.2160   -1.9590 C   0  0  0  0  0  0  0  0  0  0  0  0
   -8.3860    7.2400   -0.7690 C   0  0  0  0  0  0  0  0  0  0  0  0
   -7.9830    6.4920   -3.1680 C   0  0  0  0  0  0  0  0  0  0  0  0
   -2.4120   10.0240   -1.0080 C   0  0  1  0  0  0  0  0  0  0  0  0
   -3.0590   11.4290   -1.1340 C   0  0  0  0  0  0  0  0  0  0  0  0
   -1.8960   12.4450   -1.2810 C   0  0  0  0  0  0  0  0  0  0  0  0
   -0.6510   11.5730   -1.5680 C   0  0  1  0  0  0  0  0  0  0  0  0
   -0.7300   11.2510   -3.0930 C   0  0  0  0  0  0  0  0  0  0  0  0
    0.7300   12.1930   -1.1790 C   0  0  2  0  0  0  0  0  0  0  0  0
    1.1020   13.4830   -1.9320 C   0  0  0  0  0  0  0  0  0  0  0  0
    1.8640   13.2840   -3.2000 C   0  0  0  0  0  0  0  0  0  0  0  0
    2.4820   12.1470   -3.5720 C   0  0  0  0  0  0  0  0  0  0  0  0
    2.5330   10.9360   -2.6320 C   0  0  1  0  0  0  0  0  0  0  0  0
    3.9770   10.3690   -2.5950 C   0  0  0  0  0  0  0  0  0  0  0  0
    4.5160   10.0520   -3.9870 C   0  0  0  0  0  0  0  0  0  0  0  0
    4.5030   11.2950   -4.8730 C   0  0  2  0  0  0  0  0  0  0  0  0
    5.4460   12.2390   -4.3560 O   0  0  0  0  0  0  0  0  0  0  0  0
    3.1020   11.9580   -4.9780 C   0  0  0  0  0  0  0  0  0  0  0  0
    2.1580   11.0530   -5.8080 C   0  0  0  0  0  0  0  0  0  0  0  0
    3.2570   13.2770   -5.7830 C   0  0  0  0  0  0  0  0  0  0  0  0
    1.9280   11.1590   -1.1790 C   0  0  1  0  0  0  0  0  0  0  0  0
    3.0200   11.7420   -0.2320 C   0  0  0  0  0  0  0  0  0  0  0  0
    1.5150    9.7650   -0.5750 C   0  0  0  0  0  0  0  0  0  0  0  0
    0.0940    9.2620   -0.8960 C   0  0  0  0  0  0  0  0  0  0  0  0
   -0.9480   10.3510   -0.6240 C   0  0  2  0  0  0  0  0  0  0  0  0
   -0.9070   10.6800    0.9070 C   0  0  0  0  0  0  0  0  0  0  0  0
   -2.4335    7.3359    0.9167 H   0  0  0  0  0  0  0  0  0  0  0  0
   -3.2727    7.0138   -0.6386 H   0  0  0  0  0  0  0  0  0  0  0  0
   -1.6216    7.7214   -0.6386 H   0  0  0  0  0  0  0  0  0  0  0  0
   -3.1147    9.4678    0.9563 H   0  0  0  0  0  0  0  0  0  0  0  0
   -5.2324    9.7038    0.2777 H   0  0  0  0  0  0  0  0  0  0  0  0
   -4.7549    9.5189   -1.4774 H   0  0  0  0  0  0  0  0  0  0  0  0
   -4.5164    6.9558   -0.3583 H   0  0  0  0  0  0  0  0  0  0  0  0
   -6.0649    7.6413    0.2886 H   0  0  0  0  0  0  0  0  0  0  0  0
   -5.1152    6.8754   -2.1813 H   0  0  0  0  0  0  0  0  0  0  0  0
   -7.7838    7.2241    0.1514 H   0  0  0  0  0  0  0  0  0  0  0  0
   -8.9967    8.1546   -0.7918 H   0  0  0  0  0  0  0  0  0  0  0  0
   -9.0442    6.3590   -0.7918 H   0  0  0  0  0  0  0  0  0  0  0  0
   -8.5851    5.6270   -2.8529 H   0  0  0  0  0  0  0  0  0  0  0  0
   -8.6043    7.1716   -3.7698 H   0  0  0  0  0  0  0  0  0  0  0  0
   -7.1300    6.1453   -3.7698 H   0  0  0  0  0  0  0  0  0  0  0  0
   -2.4333    9.4199   -1.9270 H   0  0  0  0  0  0  0  0  0  0  0  0
   -3.7105   11.4681   -2.0194 H   0  0  0  0  0  0  0  0  0  0  0  0
   -3.6767   11.6600   -0.2536 H   0  0  0  0  0  0  0  0  0  0  0  0
   -2.0870   13.1360   -2.1153 H   0  0  0  0  0  0  0  0  0  0  0  0
   -1.7708   13.0689   -0.3837 H   0  0  0  0  0  0  0  0  0  0  0  0
   -0.9900   10.1911   -3.2310 H   0  0  0  0  0  0  0  0  0  0  0  0
   -1.5001   11.8815   -3.5615 H   0  0  0  0  0  0  0  0  0  0  0  0
    0.2445   11.4535   -3.5615 H   0  0  0  0  0  0  0  0  0  0  0  0
    0.5669   12.4934   -0.1334 H   0  0  0  0  0  0  0  0  0  0  0  0
    0.1705   14.0152   -2.1752 H   0  0  0  0  0  0  0  0  0  0  0  0
    1.7686   14.0453   -1.2615 H   0  0  0  0  0  0  0  0  0  0  0  0
    1.9260   14.1390   -3.8893 H   0  0  0  0  0  0  0  0  0  0  0  0
    1.8493   10.1892   -3.0621 H   0  0  0  0  0  0  0  0  0  0  0  0
    4.6359   11.1123   -2.1224 H   0  0  0  0  0  0  0  0  0  0  0  0
    3.9526    9.4292   -2.0239 H   0  0  0  0  0  0  0  0  0  0  0  0
    5.5488    9.6841   -3.8980 H   0  0  0  0  0  0  0  0  0  0  0  0
    3.8734    9.2865   -4.4465 H   0  0  0  0  0  0  0  0  0  0  0  0
    4.7757   10.9782   -5.8905 H   0  0  0  0  0  0  0  0  0  0  0  0
    6.3310   11.8470   -4.4390 H   0  0  0  0  0  0  0  0  0  0  0  0
    1.5334   10.4542   -5.1289 H   0  0  0  0  0  0  0  0  0  0  0  0
    1.5136   11.6794   -6.4423 H   0  0  0  0  0  0  0  0  0  0  0  0
    2.7567   10.3827   -6.4423 H   0  0  0  0  0  0  0  0  0  0  0  0
    3.3563   14.1223   -5.0862 H   0  0  0  0  0  0  0  0  0  0  0  0
    4.1542   13.2166   -6.4165 H   0  0  0  0  0  0  0  0  0  0  0  0
    2.3702   13.4263   -6.4165 H   0  0  0  0  0  0  0  0  0  0  0  0
    2.7210   11.5824    0.8145 H   0  0  0  0  0  0  0  0  0  0  0  0
    3.9778   11.2352   -0.4211 H   0  0  0  0  0  0  0  0  0  0  0  0
    3.1318   12.8198   -0.4211 H   0  0  0  0  0  0  0  0  0  0  0  0
    2.2264    9.0153   -0.9516 H   0  0  0  0  0  0  0  0  0  0  0  0
    1.5302    9.9080    0.5156 H   0  0  0  0  0  0  0  0  0  0  0  0
    0.0452    8.9743   -1.9566 H   0  0  0  0  0  0  0  0  0  0  0  0
   -0.1258    8.3978   -0.2519 H   0  0  0  0  0  0  0  0  0  0  0  0
   -1.0227    9.7512    1.4849 H   0  0  0  0  0  0  0  0  0  0  0  0
    0.0565   11.1489    1.1556 H   0  0  0  0  0  0  0  0  0  0  0  0
   -1.7260   11.3710    1.1556 H   0  0  0  0  0  0  0  0  0  0  0  0
  1  2  1  0
  2  3  1  0
  3  4  1  0
  4  5  1  0
  5  6  1  0
  6  7  1  0
  7  8  1  0
  7  9  1  0
  2 10  1  0
 10 11  1  0
 11 12  1  0
 12 13  1  0
 13 14  1  6
 13 15  1  0
 15 16  1  0
 16 17  1  0
 17 18  2  0
 18 19  1  0
 19 20  1  0
 20 21  1  0
 21 22  1  0
 22 23  1  0
 22 24  1  0
 24 25  1  0
 24 26  1  0
 19 27  1  0
 27 28  1  1
 27 29  1  0
 29 30  1  0
 30 31  1  0
 31 32  1  1
  7  5  1  0
 31 10  1  0
 31 13  1  0
 27 15  1  0
 24 18  1  0
  1 33  1  0
  1 34  1  0
  1 35  1  0
  2 36  1  1
  3 37  1  0
  3 38  1  0
  4 39  1  0
  4 40  1  0
  5 41  1  6
  8 42  1  0
  8 43  1  0
  8 44  1  0
  9 45  1  0
  9 46  1  0
  9 47  1  0
 10 48  1  6
 11 49  1  0
 11 50  1  0
 12 51  1  0
 12 52  1  0
 14 53  1  0
 14 54  1  0
 14 55  1  0
 15 56  1  1
 16 57  1  0
 16 58  1  0
 17 59  1  0
 19 60  1  6
 20 61  1  0
 20 62  1  0
 21 63  1  0
 21 64  1  0
 22 65  1  6
 23 66  1  0
 25 67  1  0
 25 68  1  0
 25 69  1  0
 26 70  1  0
 26 71  1  0
 26 72  1  0
 28 73  1  0
 28 74  1  0
 28 75  1  0
 29 76  1  0
 29 77  1  0
 30 78  1  0
 30 79  1  0
 32 80  1  0
 32 81  1  0
 32 82  1  0
M  END
>  <meeko>  (17) 
{"is_sidechain": [false], "intermolecular_energy": 2.731, "internal_energy": -0.839}

$$$$
EPH_relaxed_0001_pdb2pqr_Repair_378_r2_0001_out
     RDKit          3D

 82 86  0  0  0  0  0  0  0  0999 V2000
    3.1250   14.7960   -7.5340 C   0  0  0  0  0  0  0  0  0  0  0  0
    1.6030   14.8830   -7.3900 C   0  0  2  0  0  0  0  0  0  0  0  0
    1.0290   16.1530   -8.0490 C   0  0  0  0  0  0  0  0  0  0  0  0
    1.9710   16.7960   -9.0710 C   0  0  0  0  0  0  0  0  0  0  0  0
    1.6220   16.3980  -10.4730 C   0  0  2  0  0  0  0  0  0  0  0  0
    1.0140   15.1060  -10.5960 O   0  0  0  0  0  0  0  0  0  0  0  0
    2.3020   15.2620  -11.2140 C   0  0  0  0  0  0  0  0  0  0  0  0
    3.3860   14.4520  -10.5760 C   0  0  0  0  0  0  0  0  0  0  0  0
    2.2560   15.2550  -12.7100 C   0  0  0  0  0  0  0  0  0  0  0  0
    1.2170   14.8400   -5.9160 C   0  0  1  0  0  0  0  0  0  0  0  0
   -0.0430   15.6910   -5.6040 C   0  0  0  0  0  0  0  0  0  0  0  0
   -0.8190   14.9470   -4.4870 C   0  0  0  0  0  0  0  0  0  0  0  0
    0.1740   13.8830   -3.9640 C   0  0  1  0  0  0  0  0  0  0  0  0
    1.1060   14.6540   -2.9780 C   0  0  0  0  0  0  0  0  0  0  0  0
   -0.4570   12.6190   -3.2940 C   0  0  2  0  0  0  0  0  0  0  0  0
   -1.2770   12.8970   -2.0220 C   0  0  0  0  0  0  0  0  0  0  0  0
   -0.5090   12.8450   -0.7430 C   0  0  0  0  0  0  0  0  0  0  0  0
    0.7170   12.3110   -0.5880 C   0  0  0  0  0  0  0  0  0  0  0  0
    1.4170   11.5950   -1.7510 C   0  0  1  0  0  0  0  0  0  0  0  0
    2.0100   10.2520   -1.2490 C   0  0  0  0  0  0  0  0  0  0  0  0
    2.9230   10.4310   -0.0400 C   0  0  0  0  0  0  0  0  0  0  0  0
    2.1760   11.0940    1.1140 C   0  0  2  0  0  0  0  0  0  0  0  0
    1.1670   10.1960    1.5860 O   0  0  0  0  0  0  0  0  0  0  0  0
    1.5260   12.4510    0.7250 C   0  0  0  0  0  0  0  0  0  0  0  0
    2.6310   13.5130    0.5040 C   0  0  0  0  0  0  0  0  0  0  0  0
    0.6870   12.9430    1.9350 C   0  0  0  0  0  0  0  0  0  0  0  0
    0.5580   11.4250   -3.0780 C   0  0  1  0  0  0  0  0  0  0  0  0
   -0.2960   10.1230   -2.9950 C   0  0  0  0  0  0  0  0  0  0  0  0
    1.5330   11.2400   -4.3000 C   0  0  0  0  0  0  0  0  0  0  0  0
    2.0270   12.5220   -4.9950 C   0  0  0  0  0  0  0  0  0  0  0  0
    0.8580   13.4580   -5.3150 C   0  0  2  0  0  0  0  0  0  0  0  0
   -0.0860   12.7180   -6.3230 C   0  0  0  0  0  0  0  0  0  0  0  0
    3.5868   14.7696   -6.5360 H   0  0  0  0  0  0  0  0  0  0  0  0
    3.3895   13.8813   -8.0847 H   0  0  0  0  0  0  0  0  0  0  0  0
    3.4920   15.6746   -8.0847 H   0  0  0  0  0  0  0  0  0  0  0  0
    1.1710   14.0167   -7.9124 H   0  0  0  0  0  0  0  0  0  0  0  0
    0.0923   15.8859   -8.5601 H   0  0  0  0  0  0  0  0  0  0  0  0
    0.8743   16.8895   -7.2467 H   0  0  0  0  0  0  0  0  0  0  0  0
    1.8996   17.8901   -8.9827 H   0  0  0  0  0  0  0  0  0  0  0  0
    2.9936   16.4496   -8.8605 H   0  0  0  0  0  0  0  0  0  0  0  0
    1.4277   17.4456  -10.7464 H   0  0  0  0  0  0  0  0  0  0  0  0
    3.2974   14.5182   -9.4816 H   0  0  0  0  0  0  0  0  0  0  0  0
    3.2912   13.4016  -10.8887 H   0  0  0  0  0  0  0  0  0  0  0  0
    4.3664   14.8406  -10.8887 H   0  0  0  0  0  0  0  0  0  0  0  0
    1.2199   15.0973  -13.0442 H   0  0  0  0  0  0  0  0  0  0  0  0
    2.6220   16.2192  -13.0926 H   0  0  0  0  0  0  0  0  0  0  0  0
    2.8922   14.4433  -13.0926 H   0  0  0  0  0  0  0  0  0  0  0  0
    2.1506   15.2128   -5.4694 H   0  0  0  0  0  0  0  0  0  0  0  0
    0.2523   16.6924   -5.2577 H   0  0  0  0  0  0  0  0  0  0  0  0
   -0.6665   15.8177   -6.5013 H   0  0  0  0  0  0  0  0  0  0  0  0
   -1.1030   15.6416   -3.6827 H   0  0  0  0  0  0  0  0  0  0  0  0
   -1.7538   14.4995   -4.8557 H   0  0  0  0  0  0  0  0  0  0  0  0
    0.8201   14.4175   -1.9425 H   0  0  0  0  0  0  0  0  0  0  0  0
    2.1499   14.3520   -3.1483 H   0  0  0  0  0  0  0  0  0  0  0  0
    1.0049   15.7360   -3.1483 H   0  0  0  0  0  0  0  0  0  0  0  0
   -1.1825   12.2872   -4.0513 H   0  0  0  0  0  0  0  0  0  0  0  0
   -1.7164   13.9013   -2.1138 H   0  0  0  0  0  0  0  0  0  0  0  0
   -2.0245   12.0924   -1.9605 H   0  0  0  0  0  0  0  0  0  0  0  0
   -0.9851   13.2798    0.1482 H   0  0  0  0  0  0  0  0  0  0  0  0
    2.2280   12.2630   -2.0767 H   0  0  0  0  0  0  0  0  0  0  0  0
    1.1822    9.5835   -0.9698 H   0  0  0  0  0  0  0  0  0  0  0  0
    2.6150    9.8287   -2.0644 H   0  0  0  0  0  0  0  0  0  0  0  0
    3.2867    9.4452    0.2856 H   0  0  0  0  0  0  0  0  0  0  0  0
    3.7661   11.0757   -0.3290 H   0  0  0  0  0  0  0  0  0  0  0  0
    2.9130   11.3135    1.9005 H   0  0  0  0  0  0  0  0  0  0  0  0
    0.3040   10.6160    1.4350 H   0  0  0  0  0  0  0  0  0  0  0  0
    2.9994   13.8670    1.4781 H   0  0  0  0  0  0  0  0  0  0  0  0
    3.4617   13.0656   -0.0616 H   0  0  0  0  0  0  0  0  0  0  0  0
    2.2169   14.3608   -0.0616 H   0  0  0  0  0  0  0  0  0  0  0  0
    1.1861   12.6503    2.8705 H   0  0  0  0  0  0  0  0  0  0  0  0
    0.5945   14.0384    1.8959 H   0  0  0  0  0  0  0  0  0  0  0  0
   -0.3141   12.4889    1.8959 H   0  0  0  0  0  0  0  0  0  0  0  0
   -0.4665    9.8630   -1.9399 H   0  0  0  0  0  0  0  0  0  0  0  0
   -1.2630   10.2864   -3.4933 H   0  0  0  0  0  0  0  0  0  0  0  0
    0.2391    9.3012   -3.4933 H   0  0  0  0  0  0  0  0  0  0  0  0
    2.4179   10.6947   -3.9400 H   0  0  0  0  0  0  0  0  0  0  0  0
    0.9424   10.7095   -5.0614 H   0  0  0  0  0  0  0  0  0  0  0  0
    2.7329   13.0421   -4.3308 H   0  0  0  0  0  0  0  0  0  0  0  0
    2.5199   12.2419   -5.9377 H   0  0  0  0  0  0  0  0  0  0  0  0
   -0.8320   12.1332   -5.7649 H   0  0  0  0  0  0  0  0  0  0  0  0
   -0.5985   13.4575   -6.9559 H   0  0  0  0  0  0  0  0  0  0  0  0
    0.5097   12.0438   -6.9559 H   0  0  0  0  0  0  0  0  0  0  0  0
  1  2  1  0
  2  3  1  0
  3  4  1  0
  4  5  1  0
  5  6  1  0
  6  7  1  0
  7  8  1  0
  7  9  1  0
  2 10  1  0
 10 11  1  0
 11 12  1  0
 12 13  1  0
 13 14  1  1
 13 15  1  0
 15 16  1  0
 16 17  1  0
 17 18  2  0
 18 19  1  0
 19 20  1  0
 20 21  1  0
 21 22  1  0
 22 23  1  0
 22 24  1  0
 24 25  1  0
 24 26  1  0
 19 27  1  0
 27 28  1  1
 27 29  1  0
 29 30  1  0
 30 31  1  0
 31 32  1  6
  7  5  1  0
 31 10  1  0
 31 13  1  0
 27 15  1  0
 24 18  1  0
  1 33  1  0
  1 34  1  0
  1 35  1  0
  2 36  1  6
  3 37  1  0
  3 38  1  0
  4 39  1  0
  4 40  1  0
  5 41  1  6
  8 42  1  0
  8 43  1  0
  8 44  1  0
  9 45  1  0
  9 46  1  0
  9 47  1  0
 10 48  1  1
 11 49  1  0
 11 50  1  0
 12 51  1  0
 12 52  1  0
 14 53  1  0
 14 54  1  0
 14 55  1  0
 15 56  1  6
 16 57  1  0
 16 58  1  0
 17 59  1  0
 19 60  1  6
 20 61  1  0
 20 62  1  0
 21 63  1  0
 21 64  1  0
 22 65  1  1
 23 66  1  0
 25 67  1  0
 25 68  1  0
 25 69  1  0
 26 70  1  0
 26 71  1  0
 26 72  1  0
 28 73  1  0
 28 74  1  0
 28 75  1  0
 29 76  1  0
 29 77  1  0
 30 78  1  0
 30 79  1  0
 32 80  1  0
 32 81  1  0
 32 82  1  0
M  END
>  <meeko>  (18) 
{"is_sidechain": [false], "intermolecular_energy": 2.731, "internal_energy": -0.839}

$$$$
EPH_relaxed_0001_pdb2pqr_Repair_378_r2_0001_out
     RDKit          3D

 82 86  0  0  0  0  0  0  0  0999 V2000
    0.8630   14.7230   -4.8630 C   0  0  0  0  0  0  0  0  0  0  0  0
    0.5890   14.1840   -3.4560 C   0  0  2  0  0  0  0  0  0  0  0  0
    1.7950   14.3770   -2.5150 C   0  0  0  0  0  0  0  0  0  0  0  0
    1.5510   15.4030   -1.4050 C   0  0  0  0  0  0  0  0  0  0  0  0
    1.5390   16.8040   -1.9380 C   0  0  2  0  0  0  0  0  0  0  0  0
    2.0820   17.7880   -1.0480 O   0  0  0  0  0  0  0  0  0  0  0  0
    0.6840   17.9130   -1.3550 C   0  0  0  0  0  0  0  0  0  0  0  0
   -0.2200   17.6700   -0.1870 C   0  0  0  0  0  0  0  0  0  0  0  0
    0.3600   19.0940   -2.2160 C   0  0  0  0  0  0  0  0  0  0  0  0
    0.2160   12.7080   -3.5290 C   0  0  1  0  0  0  0  0  0  0  0  0
    1.4260   11.8020   -3.8780 C   0  0  0  0  0  0  0  0  0  0  0  0
    1.2290   10.4740   -3.1040 C   0  0  0  0  0  0  0  0  0  0  0  0
   -0.2340   10.5260   -2.6050 C   0  0  1  0  0  0  0  0  0  0  0  0
   -1.0920   10.0850   -3.8320 C   0  0  0  0  0  0  0  0  0  0  0  0
   -0.5620    9.6760   -1.3350 C   0  0  2  0  0  0  0  0  0  0  0  0
   -0.3670    8.1580   -1.4980 C   0  0  0  0  0  0  0  0  0  0  0  0
   -1.5700    7.4080   -1.9660 C   0  0  0  0  0  0  0  0  0  0  0  0
   -2.8310    7.8780   -1.9730 C   0  0  0  0  0  0  0  0  0  0  0  0
   -3.1620    9.2550   -1.3850 C   0  0  1  0  0  0  0  0  0  0  0  0
   -4.4150    9.1440   -0.4780 C   0  0  0  0  0  0  0  0  0  0  0  0
   -5.6050    8.5160   -1.1980 C   0  0  0  0  0  0  0  0  0  0  0  0
   -5.2550    7.1250   -1.7190 C   0  0  2  0  0  0  0  0  0  0  0  0
   -5.0440    6.2550   -0.6020 O   0  0  0  0  0  0  0  0  0  0  0  0
   -4.0020    7.1110   -2.6370 C   0  0  0  0  0  0  0  0  0  0  0  0
   -4.3340    7.8010   -3.9830 C   0  0  0  0  0  0  0  0  0  0  0  0
   -3.6750    5.6320   -2.9770 C   0  0  0  0  0  0  0  0  0  0  0  0
   -1.9590   10.0120   -0.6730 C   0  0  1  0  0  0  0  0  0  0  0  0
   -1.8620    9.5710    0.8200 C   0  0  0  0  0  0  0  0  0  0  0  0
   -2.2590   11.5570   -0.6600 C   0  0  0  0  0  0  0  0  0  0  0  0
   -1.8040   12.3630   -1.8920 C   0  0  0  0  0  0  0  0  0  0  0  0
   -0.3460   12.0520   -2.2420 C   0  0  2  0  0  0  0  0  0  0  0  0
    0.5440   12.5060   -1.0360 C   0  0  0  0  0  0  0  0  0  0  0  0
    1.3604   15.7014   -4.7904 H   0  0  0  0  0  0  0  0  0  0  0  0
    1.5133   14.0204   -5.4046 H   0  0  0  0  0  0  0  0  0  0  0  0
   -0.0879   14.8344   -5.4046 H   0  0  0  0  0  0  0  0  0  0  0  0
   -0.2503   14.7596   -3.0385 H   0  0  0  0  0  0  0  0  0  0  0  0
    2.0295   13.4091   -2.0479 H   0  0  0  0  0  0  0  0  0  0  0  0
    2.6242   14.7584   -3.1289 H   0  0  0  0  0  0  0  0  0  0  0  0
    0.5801   15.1930   -0.9326 H   0  0  0  0  0  0  0  0  0  0  0  0
    2.3703   15.3206   -0.6756 H   0  0  0  0  0  0  0  0  0  0  0  0
    1.6728   16.4388   -2.9670 H   0  0  0  0  0  0  0  0  0  0  0  0
    0.3401   17.8206    0.7477 H   0  0  0  0  0  0  0  0  0  0  0  0
   -1.0654   18.3728   -0.2252 H   0  0  0  0  0  0  0  0  0  0  0  0
   -0.5991   16.6381   -0.2252 H   0  0  0  0  0  0  0  0  0  0  0  0
    0.1228   19.9585   -1.5785 H   0  0  0  0  0  0  0  0  0  0  0  0
    1.2257   19.3333   -2.8511 H   0  0  0  0  0  0  0  0  0  0  0  0
   -0.5066   18.8580   -2.8511 H   0  0  0  0  0  0  0  0  0  0  0  0
   -0.5664   12.7539   -4.3009 H   0  0  0  0  0  0  0  0  0  0  0  0
    1.4546   11.6087   -4.9605 H   0  0  0  0  0  0  0  0  0  0  0  0
    2.3741   12.2848   -3.5986 H   0  0  0  0  0  0  0  0  0  0  0  0
    1.3821    9.6109   -3.7686 H   0  0  0  0  0  0  0  0  0  0  0  0
    1.9474   10.3620   -2.2785 H   0  0  0  0  0  0  0  0  0  0  0  0
   -2.0187    9.6087   -3.4792 H   0  0  0  0  0  0  0  0  0  0  0  0
   -1.3416   10.9666   -4.4407 H   0  0  0  0  0  0  0  0  0  0  0  0
   -0.5204    9.3689   -4.4407 H   0  0  0  0  0  0  0  0  0  0  0  0
    0.2131   10.0023   -0.6259 H   0  0  0  0  0  0  0  0  0  0  0  0
    0.4402    7.9952   -2.2273 H   0  0  0  0  0  0  0  0  0  0  0  0
   -0.1379    7.7707   -0.4942 H   0  0  0  0  0  0  0  0  0  0  0  0
   -1.4123    6.3844   -2.3365 H   0  0  0  0  0  0  0  0  0  0  0  0
   -3.3797    9.9074   -2.2435 H   0  0  0  0  0  0  0  0  0  0  0  0
   -4.1642    8.5242    0.3955 H   0  0  0  0  0  0  0  0  0  0  0  0
   -4.7040   10.1632   -0.1817 H   0  0  0  0  0  0  0  0  0  0  0  0
   -6.4487    8.4360   -0.4968 H   0  0  0  0  0  0  0  0  0  0  0  0
   -5.8745    9.1536   -2.0529 H   0  0  0  0  0  0  0  0  0  0  0  0
   -6.0982    6.7821   -2.3366 H   0  0  0  0  0  0  0  0  0  0  0  0
   -5.7650    6.4090    0.0320 H   0  0  0  0  0  0  0  0  0  0  0  0
   -4.8035    8.7767   -3.7889 H   0  0  0  0  0  0  0  0  0  0  0  0
   -3.4079    7.9476   -4.5581 H   0  0  0  0  0  0  0  0  0  0  0  0
   -5.0265    7.1688   -4.5581 H   0  0  0  0  0  0  0  0  0  0  0  0
   -3.5487    5.0609   -2.0454 H   0  0  0  0  0  0  0  0  0  0  0  0
   -4.4992    5.1997   -3.5633 H   0  0  0  0  0  0  0  0  0  0  0  0
   -2.7453    5.5875   -3.5633 H   0  0  0  0  0  0  0  0  0  0  0  0
   -2.0524   10.4368    1.4712 H   0  0  0  0  0  0  0  0  0  0  0  0
   -2.6098    8.7896    1.0209 H   0  0  0  0  0  0  0  0  0  0  0  0
   -0.8554    9.1755    1.0209 H   0  0  0  0  0  0  0  0  0  0  0  0
   -3.3473   11.6840   -0.5625 H   0  0  0  0  0  0  0  0  0  0  0  0
   -1.6714   11.9575    0.1793 H   0  0  0  0  0  0  0  0  0  0  0  0
   -2.4432   12.1027   -2.7486 H   0  0  0  0  0  0  0  0  0  0  0  0
   -1.8884   13.4351   -1.6607 H   0  0  0  0  0  0  0  0  0  0  0  0
    0.0410   12.2494   -0.0920 H   0  0  0  0  0  0  0  0  0  0  0  0
    1.5162   11.9937   -1.0845 H   0  0  0  0  0  0  0  0  0  0  0  0
    0.7000   13.5938   -1.0845 H   0  0  0  0  0  0  0  0  0  0  0  0
  1  2  1  0
  2  3  1  0
  3  4  1  0
  4  5  1  0
  5  6  1  0
  6  7  1  0
  7  8  1  0
  7  9  1  0
  2 10  1  0
 10 11  1  0
 11 12  1  0
 12 13  1  0
 13 14  1  6
 13 15  1  0
 15 16  1  0
 16 17  1  0
 17 18  2  0
 18 19  1  0
 19 20  1  0
 20 21  1  0
 21 22  1  0
 22 23  1  0
 22 24  1  0
 24 25  1  0
 24 26  1  0
 19 27  1  0
 27 28  1  1
 27 29  1  0
 29 30  1  0
 30 31  1  0
 31 32  1  1
  7  5  1  0
 31 10  1  0
 31 13  1  0
 27 15  1  0
 24 18  1  0
  1 33  1  0
  1 34  1  0
  1 35  1  0
  2 36  1  1
  3 37  1  0
  3 38  1  0
  4 39  1  0
  4 40  1  0
  5 41  1  6
  8 42  1  0
  8 43  1  0
  8 44  1  0
  9 45  1  0
  9 46  1  0
  9 47  1  0
 10 48  1  6
 11 49  1  0
 11 50  1  0
 12 51  1  0
 12 52  1  0
 14 53  1  0
 14 54  1  0
 14 55  1  0
 15 56  1  1
 16 57  1  0
 16 58  1  0
 17 59  1  0
 19 60  1  6
 20 61  1  0
 20 62  1  0
 21 63  1  0
 21 64  1  0
 22 65  1  6
 23 66  1  0
 25 67  1  0
 25 68  1  0
 25 69  1  0
 26 70  1  0
 26 71  1  0
 26 72  1  0
 28 73  1  0
 28 74  1  0
 28 75  1  0
 29 76  1  0
 29 77  1  0
 30 78  1  0
 30 79  1  0
 32 80  1  0
 32 81  1  0
 32 82  1  0
M  END
>  <meeko>  (19) 
{"is_sidechain": [false], "intermolecular_energy": 2.731, "internal_energy": -0.839}

$$$$
