EPH_relaxed_0001_pdb2pqr_Repair_168_r2_0001_out
     RDKit          3D

 82 86  0  0  0  0  0  0  0  0999 V2000
    3.8250   17.9700    0.6290 C   0  0  0  0  0  0  0  0  0  0  0  0
    2.9460   18.3650   -0.5620 C   0  0  2  0  0  0  0  0  0  0  0  0
    2.2020   19.6930   -0.3190 C   0  0  0  0  0  0  0  0  0  0  0  0
    1.1590   19.6190    0.7990 C   0  0  0  0  0  0  0  0  0  0  0  0
   -0.1620   20.1780    0.3620 C   0  0  2  0  0  0  0  0  0  0  0  0
   -1.1700   20.1940    1.3810 O   0  0  0  0  0  0  0  0  0  0  0  0
   -1.4250   19.3450    0.2500 C   0  0  0  0  0  0  0  0  0  0  0  0
   -1.4290   17.8850    0.5740 C   0  0  0  0  0  0  0  0  0  0  0  0
   -2.5290   19.8360   -0.6350 C   0  0  0  0  0  0  0  0  0  0  0  0
    1.9460   17.2540   -0.8600 C   0  0  1  0  0  0  0  0  0  0  0  0
    0.8160   17.7100   -1.8210 C   0  0  0  0  0  0  0  0  0  0  0  0
    0.4590   16.4870   -2.7040 C   0  0  0  0  0  0  0  0  0  0  0  0
    1.1490   15.2900   -2.0090 C   0  0  1  0  0  0  0  0  0  0  0  0
    0.1860   14.8910   -0.8480 C   0  0  0  0  0  0  0  0  0  0  0  0
    1.4930   14.0660   -2.9200 C   0  0  2  0  0  0  0  0  0  0  0  0
    0.2800   13.3680   -3.5600 C   0  0  0  0  0  0  0  0  0  0  0  0
   -0.3070   12.2520   -2.7620 C   0  0  0  0  0  0  0  0  0  0  0  0
    0.2860   11.6390   -1.7210 C   0  0  0  0  0  0  0  0  0  0  0  0
    1.7210   11.9940   -1.3100 C   0  0  1  0  0  0  0  0  0  0  0  0
    2.5300   10.6910   -1.0760 C   0  0  0  0  0  0  0  0  0  0  0  0
    1.8530    9.7530   -0.0800 C   0  0  0  0  0  0  0  0  0  0  0  0
    0.4510    9.3770   -0.5520 C   0  0  2  0  0  0  0  0  0  0  0  0
    0.5610    8.5840   -1.7380 O   0  0  0  0  0  0  0  0  0  0  0  0
   -0.4540   10.6100   -0.8300 C   0  0  0  0  0  0  0  0  0  0  0  0
   -0.8200   11.2990    0.5080 C   0  0  0  0  0  0  0  0  0  0  0  0
   -1.7890   10.0960   -1.4330 C   0  0  0  0  0  0  0  0  0  0  0  0
    2.4780   13.0210   -2.2570 C   0  0  1  0  0  0  0  0  0  0  0  0
    3.1690   12.2560   -3.4270 C   0  0  0  0  0  0  0  0  0  0  0  0
    3.6300   13.7190   -1.4410 C   0  0  0  0  0  0  0  0  0  0  0  0
    3.2540   14.9910   -0.6580 C   0  0  0  0  0  0  0  0  0  0  0  0
    2.4860   15.9750   -1.5460 C   0  0  2  0  0  0  0  0  0  0  0  0
    3.4380   16.4110   -2.7110 C   0  0  0  0  0  0  0  0  0  0  0  0
    3.3000   18.2059    1.5664 H   0  0  0  0  0  0  0  0  0  0  0  0
    4.0349   16.8910    0.5879 H   0  0  0  0  0  0  0  0  0  0  0  0
    4.7712   18.5295    0.5879 H   0  0  0  0  0  0  0  0  0  0  0  0
    3.6078   18.5117   -1.4283 H   0  0  0  0  0  0  0  0  0  0  0  0
    2.9422   20.4620   -0.0529 H   0  0  0  0  0  0  0  0  0  0  0  0
    1.6619   19.9331   -1.2467 H   0  0  0  0  0  0  0  0  0  0  0  0
    1.0223   18.5671    1.0902 H   0  0  0  0  0  0  0  0  0  0  0  0
    1.5217   20.2184    1.6470 H   0  0  0  0  0  0  0  0  0  0  0  0
    0.3326   20.8660   -0.3394 H   0  0  0  0  0  0  0  0  0  0  0  0
   -1.4294   17.7517    1.6659 H   0  0  0  0  0  0  0  0  0  0  0  0
   -2.3284   17.4172    0.1472 H   0  0  0  0  0  0  0  0  0  0  0  0
   -0.5321   17.4122    0.1472 H   0  0  0  0  0  0  0  0  0  0  0  0
   -3.3592   20.2052   -0.0150 H   0  0  0  0  0  0  0  0  0  0  0  0
   -2.1543   20.6523   -1.2700 H   0  0  0  0  0  0  0  0  0  0  0  0
   -2.8843   19.0110   -1.2700 H   0  0  0  0  0  0  0  0  0  0  0  0
    1.6191   17.0214    0.1642 H   0  0  0  0  0  0  0  0  0  0  0  0
   -0.0644   18.0312   -1.2450 H   0  0  0  0  0  0  0  0  0  0  0  0
    1.1414   18.5608   -2.4377 H   0  0  0  0  0  0  0  0  0  0  0  0
   -0.6304   16.3394   -2.7410 H   0  0  0  0  0  0  0  0  0  0  0  0
    0.7907   16.6129   -3.7452 H   0  0  0  0  0  0  0  0  0  0  0  0
    0.6726   15.0926    0.1177 H   0  0  0  0  0  0  0  0  0  0  0  0
   -0.7406   15.4793   -0.9216 H   0  0  0  0  0  0  0  0  0  0  0  0
   -0.0530   13.8198   -0.9216 H   0  0  0  0  0  0  0  0  0  0  0  0
    2.0396   14.5364   -3.7506 H   0  0  0  0  0  0  0  0  0  0  0  0
   -0.5040   14.1237   -3.7156 H   0  0  0  0  0  0  0  0  0  0  0  0
    0.6466   12.9152   -4.4930 H   0  0  0  0  0  0  0  0  0  0  0  0
   -1.3091   11.9007   -3.0489 H   0  0  0  0  0  0  0  0  0  0  0  0
    1.6383   12.5555   -0.3677 H   0  0  0  0  0  0  0  0  0  0  0  0
    2.6390   10.1663   -2.0366 H   0  0  0  0  0  0  0  0  0  0  0  0
    3.5066   10.9749   -0.6568 H   0  0  0  0  0  0  0  0  0  0  0  0
    2.4563    8.8387    0.0209 H   0  0  0  0  0  0  0  0  0  0  0  0
    1.7713   10.2684    0.8884 H   0  0  0  0  0  0  0  0  0  0  0  0
   -0.0297    8.8124    0.2605 H   0  0  0  0  0  0  0  0  0  0  0  0
    0.3440    7.6660   -1.5000 H   0  0  0  0  0  0  0  0  0  0  0  0
   -0.4864   10.6709    1.3471 H   0  0  0  0  0  0  0  0  0  0  0  0
   -0.3236   12.2791    0.5636 H   0  0  0  0  0  0  0  0  0  0  0  0
   -1.9100   11.4364    0.5636 H   0  0  0  0  0  0  0  0  0  0  0  0
   -2.4802    9.8299   -0.6198 H   0  0  0  0  0  0  0  0  0  0  0  0
   -2.2391   10.8851   -2.0533 H   0  0  0  0  0  0  0  0  0  0  0  0
   -1.5936    9.2088   -2.0533 H   0  0  0  0  0  0  0  0  0  0  0  0
    3.8531   11.4987   -3.0165 H   0  0  0  0  0  0  0  0  0  0  0  0
    2.4042   11.7628   -4.0449 H   0  0  0  0  0  0  0  0  0  0  0  0
    3.7372   12.9669   -4.0449 H   0  0  0  0  0  0  0  0  0  0  0  0
    4.0174   12.9857   -0.7184 H   0  0  0  0  0  0  0  0  0  0  0  0
    4.3577   14.0505   -2.1964 H   0  0  0  0  0  0  0  0  0  0  0  0
    2.6236   14.7126    0.1993 H   0  0  0  0  0  0  0  0  0  0  0  0
    4.1788   15.4773   -0.3142 H   0  0  0  0  0  0  0  0  0  0  0  0
    4.3621   16.8342   -2.2904 H   0  0  0  0  0  0  0  0  0  0  0  0
    3.6842   15.5359   -3.3303 H   0  0  0  0  0  0  0  0  0  0  0  0
    2.9362   17.1691   -3.3303 H   0  0  0  0  0  0  0  0  0  0  0  0
  1  2  1  0
  2  3  1  0
  3  4  1  0
  4  5  1  0
  5  6  1  0
  6  7  1  0
  7  8  1  0
  7  9  1  0
  2 10  1  0
 10 11  1  0
 11 12  1  0
 12 13  1  0
 13 14  1  1
 13 15  1  0
 15 16  1  0
 16 17  1  0
 17 18  2  0
 18 19  1  0
 19 20  1  0
 20 21  1  0
 21 22  1  0
 22 23  1  0
 22 24  1  0
 24 25  1  0
 24 26  1  0
 19 27  1  0
 27 28  1  6
 27 29  1  0
 29 30  1  0
 30 31  1  0
 31 32  1  6
  7  5  1  0
 31 10  1  0
 31 13  1  0
 27 15  1  0
 24 18  1  0
  1 33  1  0
  1 34  1  0
  1 35  1  0
  2 36  1  6
  3 37  1  0
  3 38  1  0
  4 39  1  0
  4 40  1  0
  5 41  1  6
  8 42  1  0
  8 43  1  0
  8 44  1  0
  9 45  1  0
  9 46  1  0
  9 47  1  0
 10 48  1  1
 11 49  1  0
 11 50  1  0
 12 51  1  0
 12 52  1  0
 14 53  1  0
 14 54  1  0
 14 55  1  0
 15 56  1  6
 16 57  1  0
 16 58  1  0
 17 59  1  0
 19 60  1  1
 20 61  1  0
 20 62  1  0
 21 63  1  0
 21 64  1  0
 22 65  1  1
 23 66  1  0
 25 67  1  0
 25 68  1  0
 25 69  1  0
 26 70  1  0
 26 71  1  0
 26 72  1  0
 28 73  1  0
 28 74  1  0
 28 75  1  0
 29 76  1  0
 29 77  1  0
 30 78  1  0
 30 79  1  0
 32 80  1  0
 32 81  1  0
 32 82  1  0
M  END
>  <meeko>  (1) 
{"is_sidechain": [false], "intermolecular_energy": 2.731, "internal_energy": -0.839}

$$$$
EPH_relaxed_0001_pdb2pqr_Repair_168_r2_0001_out
     RDKit          3D

 82 86  0  0  0  0  0  0  0  0999 V2000
    4.5230   17.6910   -0.7750 C   0  0  0  0  0  0  0  0  0  0  0  0
    3.1480   18.2770   -0.4430 C   0  0  2  0  0  0  0  0  0  0  0  0
    3.1030   18.8890    0.9710 C   0  0  0  0  0  0  0  0  0  0  0  0
    4.3640   18.6230    1.7970 C   0  0  0  0  0  0  0  0  0  0  0  0
    4.2700   19.2310    3.1640 C   0  0  2  0  0  0  0  0  0  0  0  0
    5.2900   20.1930    3.4620 O   0  0  0  0  0  0  0  0  0  0  0  0
    5.2960   18.9960    4.2570 C   0  0  0  0  0  0  0  0  0  0  0  0
    6.4900   18.1220    4.0310 C   0  0  0  0  0  0  0  0  0  0  0  0
    4.8880   19.2150    5.6800 C   0  0  0  0  0  0  0  0  0  0  0  0
    2.0780   17.1990   -0.5790 C   0  0  1  0  0  0  0  0  0  0  0  0
    0.7560   17.7420   -1.1840 C   0  0  0  0  0  0  0  0  0  0  0  0
    0.1620   16.6050   -2.0540 C   0  0  0  0  0  0  0  0  0  0  0  0
    0.9740   15.3490   -1.6620 C   0  0  1  0  0  0  0  0  0  0  0  0
    0.3210   14.8470   -0.3360 C   0  0  0  0  0  0  0  0  0  0  0  0
    1.0520   14.2130   -2.7330 C   0  0  2  0  0  0  0  0  0  0  0  0
   -0.2980   13.5780   -3.1090 C   0  0  0  0  0  0  0  0  0  0  0  0
   -0.6950   12.3940   -2.2910 C   0  0  0  0  0  0  0  0  0  0  0  0
    0.1230   11.6880   -1.4890 C   0  0  0  0  0  0  0  0  0  0  0  0
    1.6230   12.0020   -1.4200 C   0  0  1  0  0  0  0  0  0  0  0  0
    2.4330   10.6830   -1.5100 C   0  0  0  0  0  0  0  0  0  0  0  0
    2.0030    9.6590   -0.4640 C   0  0  0  0  0  0  0  0  0  0  0  0
    0.5190    9.3280   -0.6030 C   0  0  2  0  0  0  0  0  0  0  0  0
    0.3120    8.6470   -1.8430 O   0  0  0  0  0  0  0  0  0  0  0  0
   -0.3960   10.5830   -0.5360 C   0  0  0  0  0  0  0  0  0  0  0  0
   -0.4020   11.1470    0.9060 C   0  0  0  0  0  0  0  0  0  0  0  0
   -1.8520   10.1270   -0.8300 C   0  0  0  0  0  0  0  0  0  0  0  0
    2.1460   13.1110   -2.4320 C   0  0  1  0  0  0  0  0  0  0  0  0
    2.5060   12.4550   -3.8000 C   0  0  0  0  0  0  0  0  0  0  0  0
    3.4810   13.7300   -1.8710 C   0  0  0  0  0  0  0  0  0  0  0  0
    3.3420   14.9250   -0.9100 C   0  0  0  0  0  0  0  0  0  0  0  0
    2.4010   15.9870   -1.4880 C   0  0  2  0  0  0  0  0  0  0  0  0
    3.0430   16.5270   -2.8110 C   0  0  0  0  0  0  0  0  0  0  0  0
    5.0592   17.4625    0.1579 H   0  0  0  0  0  0  0  0  0  0  0  0
    4.3967   16.7685   -1.3607 H   0  0  0  0  0  0  0  0  0  0  0  0
    5.1010   18.4210   -1.3607 H   0  0  0  0  0  0  0  0  0  0  0  0
    2.9521   19.0885   -1.1593 H   0  0  0  0  0  0  0  0  0  0  0  0
    2.9742   19.9772    0.8745 H   0  0  0  0  0  0  0  0  0  0  0  0
    2.2651   18.4125    1.5010 H   0  0  0  0  0  0  0  0  0  0  0  0
    4.5008   17.5363    1.8988 H   0  0  0  0  0  0  0  0  0  0  0  0
    5.2179   19.0807    1.2762 H   0  0  0  0  0  0  0  0  0  0  0  0
    3.1733   19.1473    3.1517 H   0  0  0  0  0  0  0  0  0  0  0  0
    6.9088   17.8154    5.0008 H   0  0  0  0  0  0  0  0  0  0  0  0
    6.1888   17.2294    3.4630 H   0  0  0  0  0  0  0  0  0  0  0  0
    7.2498   18.6789    3.4630 H   0  0  0  0  0  0  0  0  0  0  0  0
    5.6570   18.8023    6.3496 H   0  0  0  0  0  0  0  0  0  0  0  0
    4.7783   20.2932    5.8682 H   0  0  0  0  0  0  0  0  0  0  0  0
    3.9288   18.7105    5.8682 H   0  0  0  0  0  0  0  0  0  0  0  0
    2.0090   16.8747    0.4699 H   0  0  0  0  0  0  0  0  0  0  0  0
    0.0540   18.0105   -0.3808 H   0  0  0  0  0  0  0  0  0  0  0  0
    0.9384   18.6450   -1.7851 H   0  0  0  0  0  0  0  0  0  0  0  0
   -0.9056   16.4625   -1.8307 H   0  0  0  0  0  0  0  0  0  0  0  0
    0.2277   16.8252   -3.1297 H   0  0  0  0  0  0  0  0  0  0  0  0
    0.8661   15.2660    0.5227 H   0  0  0  0  0  0  0  0  0  0  0  0
   -0.7290   15.1727   -0.2981 H   0  0  0  0  0  0  0  0  0  0  0  0
    0.3658   13.7486   -0.2981 H   0  0  0  0  0  0  0  0  0  0  0  0
    1.3866   14.7564   -3.6290 H   0  0  0  0  0  0  0  0  0  0  0  0
   -1.0778   14.3457   -2.9968 H   0  0  0  0  0  0  0  0  0  0  0  0
   -0.1857   13.2119   -4.1402 H   0  0  0  0  0  0  0  0  0  0  0  0
   -1.7450   12.0714   -2.3487 H   0  0  0  0  0  0  0  0  0  0  0  0
    1.7903   12.4755   -0.4413 H   0  0  0  0  0  0  0  0  0  0  0  0
    2.2879   10.2478   -2.5098 H   0  0  0  0  0  0  0  0  0  0  0  0
    3.4893   10.9269   -1.3236 H   0  0  0  0  0  0  0  0  0  0  0  0
    2.5912    8.7391   -0.5976 H   0  0  0  0  0  0  0  0  0  0  0  0
    2.1760   10.0841    0.5357 H   0  0  0  0  0  0  0  0  0  0  0  0
    0.2415    8.6909    0.2497 H   0  0  0  0  0  0  0  0  0  0  0  0
    0.8810    9.0690   -2.5090 H   0  0  0  0  0  0  0  0  0  0  0  0
   -0.3931   10.3148    1.6253 H   0  0  0  0  0  0  0  0  0  0  0  0
    0.4895   11.7730    1.0586 H   0  0  0  0  0  0  0  0  0  0  0  0
   -1.3067   11.7539    1.0586 H   0  0  0  0  0  0  0  0  0  0  0  0
   -2.3828    9.9607    0.1190 H   0  0  0  0  0  0  0  0  0  0  0  0
   -2.3704   10.9058   -1.4086 H   0  0  0  0  0  0  0  0  0  0  0  0
   -1.8335    9.1916   -1.4086 H   0  0  0  0  0  0  0  0  0  0  0  0
    3.0284   11.5031   -3.6240 H   0  0  0  0  0  0  0  0  0  0  0  0
    1.5844   12.2675   -4.3705 H   0  0  0  0  0  0  0  0  0  0  0  0
    3.1592   13.1317   -4.3705 H   0  0  0  0  0  0  0  0  0  0  0  0
    4.0181   12.9332   -1.3357 H   0  0  0  0  0  0  0  0  0  0  0  0
    4.0059   14.1284   -2.7517 H   0  0  0  0  0  0  0  0  0  0  0  0
    2.9379   14.5700    0.0495 H   0  0  0  0  0  0  0  0  0  0  0  0
    4.3346   15.3768   -0.7662 H   0  0  0  0  0  0  0  0  0  0  0  0
    3.8635   17.2172   -2.5653 H   0  0  0  0  0  0  0  0  0  0  0  0
    3.4363   15.6842   -3.3983 H   0  0  0  0  0  0  0  0  0  0  0  0
    2.2800   17.0588   -3.3983 H   0  0  0  0  0  0  0  0  0  0  0  0
  1  2  1  0
  2  3  1  0
  3  4  1  0
  4  5  1  0
  5  6  1  0
  6  7  1  0
  7  8  1  0
  7  9  1  0
  2 10  1  0
 10 11  1  0
 11 12  1  0
 12 13  1  0
 13 14  1  1
 13 15  1  0
 15 16  1  0
 16 17  1  0
 17 18  2  0
 18 19  1  0
 19 20  1  0
 20 21  1  0
 21 22  1  0
 22 23  1  0
 22 24  1  0
 24 25  1  0
 24 26  1  0
 19 27  1  0
 27 28  1  6
 27 29  1  0
 29 30  1  0
 30 31  1  0
 31 32  1  6
  7  5  1  0
 31 10  1  0
 31 13  1  0
 27 15  1  0
 24 18  1  0
  1 33  1  0
  1 34  1  0
  1 35  1  0
  2 36  1  6
  3 37  1  0
  3 38  1  0
  4 39  1  0
  4 40  1  0
  5 41  1  1
  8 42  1  0
  8 43  1  0
  8 44  1  0
  9 45  1  0
  9 46  1  0
  9 47  1  0
 10 48  1  1
 11 49  1  0
 11 50  1  0
 12 51  1  0
 12 52  1  0
 14 53  1  0
 14 54  1  0
 14 55  1  0
 15 56  1  6
 16 57  1  0
 16 58  1  0
 17 59  1  0
 19 60  1  1
 20 61  1  0
 20 62  1  0
 21 63  1  0
 21 64  1  0
 22 65  1  1
 23 66  1  0
 25 67  1  0
 25 68  1  0
 25 69  1  0
 26 70  1  0
 26 71  1  0
 26 72  1  0
 28 73  1  0
 28 74  1  0
 28 75  1  0
 29 76  1  0
 29 77  1  0
 30 78  1  0
 30 79  1  0
 32 80  1  0
 32 81  1  0
 32 82  1  0
M  END
>  <meeko>  (2) 
{"is_sidechain": [false], "intermolecular_energy": 2.731, "internal_energy": -0.839}

$$$$
EPH_relaxed_0001_pdb2pqr_Repair_168_r2_0001_out
     RDKit          3D

 82 86  0  0  0  0  0  0  0  0999 V2000
    2.3780   18.1550   -2.3020 C   0  0  0  0  0  0  0  0  0  0  0  0
    1.7760   17.3950   -1.1170 C   0  0  2  0  0  0  0  0  0  0  0  0
    2.8480   16.9820   -0.0870 C   0  0  0  0  0  0  0  0  0  0  0  0
    3.8350   18.1010    0.2560 C   0  0  0  0  0  0  0  0  0  0  0  0
    3.5320   18.7180    1.5880 C   0  0  2  0  0  0  0  0  0  0  0  0
    3.8640   20.1090    1.6930 O   0  0  0  0  0  0  0  0  0  0  0  0
    4.6020   19.2150    2.5420 C   0  0  0  0  0  0  0  0  0  0  0  0
    6.0570   19.1160    2.2030 C   0  0  0  0  0  0  0  0  0  0  0  0
    4.2620   19.3440    3.9940 C   0  0  0  0  0  0  0  0  0  0  0  0
    1.0300   16.1630   -1.6140 C   0  0  1  0  0  0  0  0  0  0  0  0
    0.5230   16.3200   -3.0720 C   0  0  0  0  0  0  0  0  0  0  0  0
    0.6220   14.9210   -3.7340 C   0  0  0  0  0  0  0  0  0  0  0  0
    0.8640   13.9490   -2.5560 C   0  0  1  0  0  0  0  0  0  0  0  0
   -0.5510   13.6980   -1.9460 C   0  0  0  0  0  0  0  0  0  0  0  0
    1.5880   12.6070   -2.9040 C   0  0  2  0  0  0  0  0  0  0  0  0
    0.8310   11.6920   -3.8820 C   0  0  0  0  0  0  0  0  0  0  0  0
   -0.0900   10.7040   -3.2470 C   0  0  0  0  0  0  0  0  0  0  0  0
   -0.0930   10.3610   -1.9460 C   0  0  0  0  0  0  0  0  0  0  0  0
    0.9640   10.9160   -0.9830 C   0  0  1  0  0  0  0  0  0  0  0  0
    1.5330    9.7620   -0.1160 C   0  0  0  0  0  0  0  0  0  0  0  0
    0.4410    8.9790    0.6050 C   0  0  0  0  0  0  0  0  0  0  0  0
   -0.5580    8.3930   -0.3900 C   0  0  2  0  0  0  0  0  0  0  0  0
    0.1040    7.3980   -1.1760 O   0  0  0  0  0  0  0  0  0  0  0  0
   -1.1900    9.4620   -1.3240 C   0  0  0  0  0  0  0  0  0  0  0  0
   -2.1520   10.3630   -0.5100 C   0  0  0  0  0  0  0  0  0  0  0  0
   -2.0690    8.7230   -2.3700 C   0  0  0  0  0  0  0  0  0  0  0  0
    2.1060   11.8040   -1.6430 C   0  0  1  0  0  0  0  0  0  0  0  0
    3.2670   10.8910   -2.1420 C   0  0  0  0  0  0  0  0  0  0  0  0
    2.7230   12.7470   -0.5440 C   0  0  0  0  0  0  0  0  0  0  0  0
    2.0350   14.1080   -0.3300 C   0  0  0  0  0  0  0  0  0  0  0  0
    1.8150   14.8280   -1.6640 C   0  0  2  0  0  0  0  0  0  0  0  0
    3.2220   15.1130   -2.2910 C   0  0  0  0  0  0  0  0  0  0  0  0
    3.0206   18.9662   -1.9291 H   0  0  0  0  0  0  0  0  0  0  0  0
    2.9770   17.4647   -2.9141 H   0  0  0  0  0  0  0  0  0  0  0  0
    1.5689   18.5801   -2.9141 H   0  0  0  0  0  0  0  0  0  0  0  0
    1.0750   18.0744   -0.6101 H   0  0  0  0  0  0  0  0  0  0  0  0
    2.3397   16.6716    0.8378 H   0  0  0  0  0  0  0  0  0  0  0  0
    3.4312   16.1663   -0.5393 H   0  0  0  0  0  0  0  0  0  0  0  0
    4.8526   17.6840    0.2794 H   0  0  0  0  0  0  0  0  0  0  0  0
    3.7473   18.8833   -0.5124 H   0  0  0  0  0  0  0  0  0  0  0  0
    2.6710   18.0482    1.7291 H   0  0  0  0  0  0  0  0  0  0  0  0
    6.6476   19.0758    3.1301 H   0  0  0  0  0  0  0  0  0  0  0  0
    6.2352   18.2037    1.6149 H   0  0  0  0  0  0  0  0  0  0  0  0
    6.3572   19.9958    1.6149 H   0  0  0  0  0  0  0  0  0  0  0  0
    5.1193   19.0187    4.6016 H   0  0  0  0  0  0  0  0  0  0  0  0
    4.0270   20.3938    4.2237 H   0  0  0  0  0  0  0  0  0  0  0  0
    3.3898   18.7143    4.2237 H   0  0  0  0  0  0  0  0  0  0  0  0
    0.2393   16.1060   -0.8514 H   0  0  0  0  0  0  0  0  0  0  0  0
   -0.5208   16.6672   -3.0746 H   0  0  0  0  0  0  0  0  0  0  0  0
    1.1237   17.0599   -3.6212 H   0  0  0  0  0  0  0  0  0  0  0  0
   -0.3129   14.6719   -4.2574 H   0  0  0  0  0  0  0  0  0  0  0  0
    1.4221   14.8713   -4.4872 H   0  0  0  0  0  0  0  0  0  0  0  0
   -0.4843   13.7098   -0.8481 H   0  0  0  0  0  0  0  0  0  0  0  0
   -1.2397   14.4880   -2.2801 H   0  0  0  0  0  0  0  0  0  0  0  0
   -0.9260   12.7193   -2.2801 H   0  0  0  0  0  0  0  0  0  0  0  0
    2.4786   12.9536   -3.4487 H   0  0  0  0  0  0  0  0  0  0  0  0
    0.2359   12.3294   -4.5525 H   0  0  0  0  0  0  0  0  0  0  0  0
    1.5990   11.1013   -4.4028 H   0  0  0  0  0  0  0  0  0  0  0  0
   -0.8293   10.2146   -3.8981 H   0  0  0  0  0  0  0  0  0  0  0  0
    0.4400   11.6404   -0.3421 H   0  0  0  0  0  0  0  0  0  0  0  0
    2.0894    9.0725   -0.7679 H   0  0  0  0  0  0  0  0  0  0  0  0
    2.1840   10.2093    0.6496 H   0  0  0  0  0  0  0  0  0  0  0  0
    0.9026    8.1601    1.1762 H   0  0  0  0  0  0  0  0  0  0  0  0
   -0.0951    9.6635    1.2788 H   0  0  0  0  0  0  0  0  0  0  0  0
   -1.3839    7.9557    0.1901 H   0  0  0  0  0  0  0  0  0  0  0  0
   -0.4360    7.2430   -1.9700 H   0  0  0  0  0  0  0  0  0  0  0  0
   -1.9820   10.2037    0.5650 H   0  0  0  0  0  0  0  0  0  0  0  0
   -1.9646   11.4180   -0.7585 H   0  0  0  0  0  0  0  0  0  0  0  0
   -3.1925   10.1070   -0.7585 H   0  0  0  0  0  0  0  0  0  0  0  0
   -2.8110    8.0992   -1.8502 H   0  0  0  0  0  0  0  0  0  0  0  0
   -2.5872    9.4607   -3.0003 H   0  0  0  0  0  0  0  0  0  0  0  0
   -1.4312    8.0858   -3.0003 H   0  0  0  0  0  0  0  0  0  0  0  0
    3.8010   10.4711   -1.2768 H   0  0  0  0  0  0  0  0  0  0  0  0
    2.8544   10.0729   -2.7506 H   0  0  0  0  0  0  0  0  0  0  0  0
    3.9648   11.4849   -2.7506 H   0  0  0  0  0  0  0  0  0  0  0  0
    2.6942   12.2056    0.4131 H   0  0  0  0  0  0  0  0  0  0  0  0
    3.7328   12.9892   -0.9070 H   0  0  0  0  0  0  0  0  0  0  0  0
    1.0617   13.9465    0.1563 H   0  0  0  0  0  0  0  0  0  0  0  0
    2.6830   14.7325    0.3025 H   0  0  0  0  0  0  0  0  0  0  0  0
    3.9582   15.2621   -1.4874 H   0  0  0  0  0  0  0  0  0  0  0  0
    3.5262   14.2582   -2.9130 H   0  0  0  0  0  0  0  0  0  0  0  0
    3.1696   16.0188   -2.9130 H   0  0  0  0  0  0  0  0  0  0  0  0
  1  2  1  0
  2  3  1  0
  3  4  1  0
  4  5  1  0
  5  6  1  0
  6  7  1  0
  7  8  1  0
  7  9  1  0
  2 10  1  0
 10 11  1  0
 11 12  1  0
 12 13  1  0
 13 14  1  1
 13 15  1  0
 15 16  1  0
 16 17  1  0
 17 18  2  0
 18 19  1  0
 19 20  1  0
 20 21  1  0
 21 22  1  0
 22 23  1  0
 22 24  1  0
 24 25  1  0
 24 26  1  0
 19 27  1  0
 27 28  1  6
 27 29  1  0
 29 30  1  0
 30 31  1  0
 31 32  1  6
  7  5  1  0
 31 10  1  0
 31 13  1  0
 27 15  1  0
 24 18  1  0
  1 33  1  0
  1 34  1  0
  1 35  1  0
  2 36  1  1
  3 37  1  0
  3 38  1  0
  4 39  1  0
  4 40  1  0
  5 41  1  1
  8 42  1  0
  8 43  1  0
  8 44  1  0
  9 45  1  0
  9 46  1  0
  9 47  1  0
 10 48  1  1
 11 49  1  0
 11 50  1  0
 12 51  1  0
 12 52  1  0
 14 53  1  0
 14 54  1  0
 14 55  1  0
 15 56  1  6
 16 57  1  0
 16 58  1  0
 17 59  1  0
 19 60  1  1
 20 61  1  0
 20 62  1  0
 21 63  1  0
 21 64  1  0
 22 65  1  1
 23 66  1  0
 25 67  1  0
 25 68  1  0
 25 69  1  0
 26 70  1  0
 26 71  1  0
 26 72  1  0
 28 73  1  0
 28 74  1  0
 28 75  1  0
 29 76  1  0
 29 77  1  0
 30 78  1  0
 30 79  1  0
 32 80  1  0
 32 81  1  0
 32 82  1  0
M  END
>  <meeko>  (3) 
{"is_sidechain": [false], "intermolecular_energy": 2.731, "internal_energy": -0.839}

$$$$
EPH_relaxed_0001_pdb2pqr_Repair_168_r2_0001_out
     RDKit          3D

 82 86  0  0  0  0  0  0  0  0999 V2000
   -1.6280    8.6710   -1.8900 C   0  0  0  0  0  0  0  0  0  0  0  0
   -2.0470    9.1430   -0.4950 C   0  0  2  0  0  0  0  0  0  0  0  0
   -3.5550    9.4530   -0.4150 C   0  0  0  0  0  0  0  0  0  0  0  0
   -4.4350    8.2040   -0.3040 C   0  0  0  0  0  0  0  0  0  0  0  0
   -5.1570    7.9190   -1.5850 C   0  0  2  0  0  0  0  0  0  0  0  0
   -6.3390    8.7030   -1.7940 O   0  0  0  0  0  0  0  0  0  0  0  0
   -6.5350    7.2880   -1.6460 C   0  0  0  0  0  0  0  0  0  0  0  0
   -7.2730    6.9020   -0.4020 C   0  0  0  0  0  0  0  0  0  0  0  0
   -6.9530    6.6020   -2.9100 C   0  0  0  0  0  0  0  0  0  0  0  0
   -1.2410   10.3740   -0.0990 C   0  0  1  0  0  0  0  0  0  0  0  0
   -0.2890   10.1060    1.0980 C   0  0  0  0  0  0  0  0  0  0  0  0
    0.9840   10.9560    0.8560 C   0  0  0  0  0  0  0  0  0  0  0  0
    0.5940   11.9280   -0.2820 C   0  0  1  0  0  0  0  0  0  0  0  0
   -0.1910   13.0780    0.4240 C   0  0  0  0  0  0  0  0  0  0  0  0
    1.7700   12.4820   -1.1510 C   0  0  2  0  0  0  0  0  0  0  0  0
    2.8020   13.3310   -0.3880 C   0  0  0  0  0  0  0  0  0  0  0  0
    2.5160   14.7950   -0.3450 C   0  0  0  0  0  0  0  0  0  0  0  0
    1.6350   15.4440   -1.1300 C   0  0  0  0  0  0  0  0  0  0  0  0
    0.8860   14.7080   -2.2480 C   0  0  1  0  0  0  0  0  0  0  0  0
    0.9380   15.5530   -3.5490 C   0  0  0  0  0  0  0  0  0  0  0  0
    0.4270   16.9750   -3.3420 C   0  0  0  0  0  0  0  0  0  0  0  0
    1.2340   17.6940   -2.2640 C   0  0  2  0  0  0  0  0  0  0  0  0
    2.5710   17.8830   -2.7370 O   0  0  0  0  0  0  0  0  0  0  0  0
    1.2620   16.9310   -0.9100 C   0  0  0  0  0  0  0  0  0  0  0  0
   -0.1380   16.9880   -0.2510 C   0  0  0  0  0  0  0  0  0  0  0  0
    2.2230   17.6890    0.0460 C   0  0  0  0  0  0  0  0  0  0  0  0
    1.3090   13.1950   -2.4870 C   0  0  1  0  0  0  0  0  0  0  0  0
    2.5200   13.1280   -3.4670 C   0  0  0  0  0  0  0  0  0  0  0  0
    0.1240   12.4350   -3.1920 C   0  0  0  0  0  0  0  0  0  0  0  0
   -0.9430   11.8070   -2.2750 C   0  0  0  0  0  0  0  0  0  0  0  0
   -0.2910   10.9760   -1.1650 C   0  0  2  0  0  0  0  0  0  0  0  0
    0.4880    9.7990   -1.8440 C   0  0  0  0  0  0  0  0  0  0  0  0
   -0.9004    7.8513   -1.7966 H   0  0  0  0  0  0  0  0  0  0  0  0
   -2.5130    8.3150   -2.4378 H   0  0  0  0  0  0  0  0  0  0  0  0
   -1.1696    9.5075   -2.4378 H   0  0  0  0  0  0  0  0  0  0  0  0
   -1.8412    8.3218    0.2074 H   0  0  0  0  0  0  0  0  0  0  0  0
   -3.7336   10.0834    0.4686 H   0  0  0  0  0  0  0  0  0  0  0  0
   -3.8298    9.9577   -1.3529 H   0  0  0  0  0  0  0  0  0  0  0  0
   -3.7998    7.3416   -0.0534 H   0  0  0  0  0  0  0  0  0  0  0  0
   -5.1856    8.3821    0.4802 H   0  0  0  0  0  0  0  0  0  0  0  0
   -4.2110    7.6762   -2.0911 H   0  0  0  0  0  0  0  0  0  0  0  0
   -6.6901    7.2069    0.4796 H   0  0  0  0  0  0  0  0  0  0  0  0
   -8.2518    7.4036   -0.3858 H   0  0  0  0  0  0  0  0  0  0  0  0
   -7.4193    5.8119   -0.3858 H   0  0  0  0  0  0  0  0  0  0  0  0
   -7.5108    5.6866   -2.6632 H   0  0  0  0  0  0  0  0  0  0  0  0
   -7.5946    7.2751   -3.4976 H   0  0  0  0  0  0  0  0  0  0  0  0
   -6.0606    6.3404   -3.4976 H   0  0  0  0  0  0  0  0  0  0  0  0
   -2.0643   11.0730    0.1099 H   0  0  0  0  0  0  0  0  0  0  0  0
   -0.7713   10.4059    2.0400 H   0  0  0  0  0  0  0  0  0  0  0  0
   -0.0414    9.0369    1.1740 H   0  0  0  0  0  0  0  0  0  0  0  0
    1.2581   11.5120    1.7647 H   0  0  0  0  0  0  0  0  0  0  0  0
    1.8553   10.3372    0.5956 H   0  0  0  0  0  0  0  0  0  0  0  0
   -0.1110   12.9607    1.5148 H   0  0  0  0  0  0  0  0  0  0  0  0
    0.2342   14.0481    0.1273 H   0  0  0  0  0  0  0  0  0  0  0  0
   -1.2494   13.0354    0.1273 H   0  0  0  0  0  0  0  0  0  0  0  0
    2.2985   11.5633   -1.4454 H   0  0  0  0  0  0  0  0  0  0  0  0
    2.8462   12.9627    0.6476 H   0  0  0  0  0  0  0  0  0  0  0  0
    3.7501   13.2220   -0.9351 H   0  0  0  0  0  0  0  0  0  0  0  0
    3.0720   15.3950    0.3904 H   0  0  0  0  0  0  0  0  0  0  0  0
   -0.1548   14.6127   -1.9050 H   0  0  0  0  0  0  0  0  0  0  0  0
    1.9801   15.5998   -3.8979 H   0  0  0  0  0  0  0  0  0  0  0  0
    0.2853   15.0675   -4.2895 H   0  0  0  0  0  0  0  0  0  0  0  0
    0.5148   17.5301   -4.2876 H   0  0  0  0  0  0  0  0  0  0  0  0
   -0.6237   16.9268   -3.0200 H   0  0  0  0  0  0  0  0  0  0  0  0
    0.7413   18.6585   -2.0714 H   0  0  0  0  0  0  0  0  0  0  0  0
    3.1760   17.5910   -2.0350 H   0  0  0  0  0  0  0  0  0  0  0  0
   -0.0285   16.9835    0.8435 H   0  0  0  0  0  0  0  0  0  0  0  0
   -0.6535   17.9079   -0.5642 H   0  0  0  0  0  0  0  0  0  0  0  0
   -0.7266   16.1131   -0.5642 H   0  0  0  0  0  0  0  0  0  0  0  0
    1.9486   17.4726    1.0890 H   0  0  0  0  0  0  0  0  0  0  0  0
    3.2567   17.3605   -0.1370 H   0  0  0  0  0  0  0  0  0  0  0  0
    2.1443   18.7708   -0.1370 H   0  0  0  0  0  0  0  0  0  0  0  0
    3.4556   13.0762   -2.8908 H   0  0  0  0  0  0  0  0  0  0  0  0
    2.4297   12.2335   -4.1008 H   0  0  0  0  0  0  0  0  0  0  0  0
    2.5290   14.0270   -4.1008 H   0  0  0  0  0  0  0  0  0  0  0  0
   -0.3854   13.1525   -3.8521 H   0  0  0  0  0  0  0  0  0  0  0  0
    0.5945   11.5857   -3.7091 H   0  0  0  0  0  0  0  0  0  0  0  0
   -1.5430   12.6085   -1.8194 H   0  0  0  0  0  0  0  0  0  0  0  0
   -1.5806   11.1457   -2.8801 H   0  0  0  0  0  0  0  0  0  0  0  0
    0.9185    9.1486   -1.0684 H   0  0  0  0  0  0  0  0  0  0  0  0
   -0.2027    9.2152   -2.4702 H   0  0  0  0  0  0  0  0  0  0  0  0
    1.2953   10.2066   -2.4702 H   0  0  0  0  0  0  0  0  0  0  0  0
  1  2  1  0
  2  3  1  0
  3  4  1  0
  4  5  1  0
  5  6  1  0
  6  7  1  0
  7  8  1  0
  7  9  1  0
  2 10  1  0
 10 11  1  0
 11 12  1  0
 12 13  1  0
 13 14  1  1
 13 15  1  0
 15 16  1  0
 16 17  1  0
 17 18  2  0
 18 19  1  0
 19 20  1  0
 20 21  1  0
 21 22  1  0
 22 23  1  0
 22 24  1  0
 24 25  1  0
 24 26  1  0
 19 27  1  0
 27 28  1  6
 27 29  1  0
 29 30  1  0
 30 31  1  0
 31 32  1  6
  7  5  1  0
 31 10  1  0
 31 13  1  0
 27 15  1  0
 24 18  1  0
  1 33  1  0
  1 34  1  0
  1 35  1  0
  2 36  1  1
  3 37  1  0
  3 38  1  0
  4 39  1  0
  4 40  1  0
  5 41  1  6
  8 42  1  0
  8 43  1  0
  8 44  1  0
  9 45  1  0
  9 46  1  0
  9 47  1  0
 10 48  1  1
 11 49  1  0
 11 50  1  0
 12 51  1  0
 12 52  1  0
 14 53  1  0
 14 54  1  0
 14 55  1  0
 15 56  1  6
 16 57  1  0
 16 58  1  0
 17 59  1  0
 19 60  1  1
 20 61  1  0
 20 62  1  0
 21 63  1  0
 21 64  1  0
 22 65  1  1
 23 66  1  0
 25 67  1  0
 25 68  1  0
 25 69  1  0
 26 70  1  0
 26 71  1  0
 26 72  1  0
 28 73  1  0
 28 74  1  0
 28 75  1  0
 29 76  1  0
 29 77  1  0
 30 78  1  0
 30 79  1  0
 32 80  1  0
 32 81  1  0
 32 82  1  0
M  END
>  <meeko>  (4) 
{"is_sidechain": [false], "intermolecular_energy": 2.731, "internal_energy": -0.839}

$$$$
EPH_relaxed_0001_pdb2pqr_Repair_168_r2_0001_out
     RDKit          3D

 82 86  0  0  0  0  0  0  0  0999 V2000
   -0.6550    7.8680   -0.4320 C   0  0  0  0  0  0  0  0  0  0  0  0
   -1.0880    9.2530    0.0570 C   0  0  2  0  0  0  0  0  0  0  0  0
   -2.3340    9.7700   -0.6910 C   0  0  0  0  0  0  0  0  0  0  0  0
   -3.6570    9.3120   -0.0720 C   0  0  0  0  0  0  0  0  0  0  0  0
   -4.0480    7.9450   -0.5470 C   0  0  2  0  0  0  0  0  0  0  0  0
   -4.1580    7.8140   -1.9700 O   0  0  0  0  0  0  0  0  0  0  0  0
   -5.3720    7.6410   -1.2220 C   0  0  0  0  0  0  0  0  0  0  0  0
   -6.3910    8.7110   -1.4590 C   0  0  0  0  0  0  0  0  0  0  0  0
   -5.8750    6.2310   -1.2080 C   0  0  0  0  0  0  0  0  0  0  0  0
    0.0610   10.2420   -0.1000 C   0  0  1  0  0  0  0  0  0  0  0  0
    1.4500    9.5500   -0.0950 C   0  0  0  0  0  0  0  0  0  0  0  0
    2.3510   10.3490   -1.0720 C   0  0  0  0  0  0  0  0  0  0  0  0
    1.5660   11.6530   -1.3480 C   0  0  1  0  0  0  0  0  0  0  0  0
    1.8680   12.5690   -0.1210 C   0  0  0  0  0  0  0  0  0  0  0  0
    1.8800   12.3750   -2.6990 C   0  0  2  0  0  0  0  0  0  0  0  0
    3.3280   12.8720   -2.8530 C   0  0  0  0  0  0  0  0  0  0  0  0
    3.5790   14.2630   -2.3740 C   0  0  0  0  0  0  0  0  0  0  0  0
    2.6310   15.1810   -2.1070 C   0  0  0  0  0  0  0  0  0  0  0  0
    1.1500   14.8850   -2.3760 C   0  0  1  0  0  0  0  0  0  0  0  0
    0.5050   16.0910   -3.1080 C   0  0  0  0  0  0  0  0  0  0  0  0
    0.7120   17.4070   -2.3630 C   0  0  0  0  0  0  0  0  0  0  0  0
    2.1980   17.6950   -2.1670 C   0  0  2  0  0  0  0  0  0  0  0  0
    2.7940   17.9370   -3.4450 O   0  0  0  0  0  0  0  0  0  0  0  0
    2.9550   16.5440   -1.4470 C   0  0  0  0  0  0  0  0  0  0  0  0
    2.5180   16.4810    0.0370 C   0  0  0  0  0  0  0  0  0  0  0  0
    4.4670   16.8990   -1.4390 C   0  0  0  0  0  0  0  0  0  0  0  0
    0.8380   13.5000   -3.0890 C   0  0  1  0  0  0  0  0  0  0  0  0
    0.9230   13.6680   -4.6370 C   0  0  0  0  0  0  0  0  0  0  0  0
   -0.6450   13.0790   -2.7690 C   0  0  0  0  0  0  0  0  0  0  0  0
   -0.8740   12.2650   -1.4820 C   0  0  0  0  0  0  0  0  0  0  0  0
    0.1000   11.0870   -1.3980 C   0  0  2  0  0  0  0  0  0  0  0  0
   -0.1940   10.1350   -2.6070 C   0  0  0  0  0  0  0  0  0  0  0  0
   -0.4525    7.2203    0.4337 H   0  0  0  0  0  0  0  0  0  0  0  0
   -1.4580    7.4264   -1.0405 H   0  0  0  0  0  0  0  0  0  0  0  0
    0.2565    7.9624   -1.0405 H   0  0  0  0  0  0  0  0  0  0  0  0
   -1.3561    9.1598    1.1198 H   0  0  0  0  0  0  0  0  0  0  0  0
   -2.3106   10.8697   -0.6862 H   0  0  0  0  0  0  0  0  0  0  0  0
   -2.2939    9.3540   -1.7085 H   0  0  0  0  0  0  0  0  0  0  0  0
   -3.5503    9.2920    1.0226 H   0  0  0  0  0  0  0  0  0  0  0  0
   -4.4419   10.0190   -0.3789 H   0  0  0  0  0  0  0  0  0  0  0  0
   -3.5271    7.4760    0.3008 H   0  0  0  0  0  0  0  0  0  0  0  0
   -6.7539    9.0921   -0.4931 H   0  0  0  0  0  0  0  0  0  0  0  0
   -5.9336    9.5331   -2.0291 H   0  0  0  0  0  0  0  0  0  0  0  0
   -7.2344    8.2943   -2.0291 H   0  0  0  0  0  0  0  0  0  0  0  0
   -5.9949    5.8948   -0.1675 H   0  0  0  0  0  0  0  0  0  0  0  0
   -6.8458    6.1829   -1.7231 H   0  0  0  0  0  0  0  0  0  0  0  0
   -5.1539    5.5793   -1.7231 H   0  0  0  0  0  0  0  0  0  0  0  0
   -0.1358   10.8919    0.7654 H   0  0  0  0  0  0  0  0  0  0  0  0
    1.8791    9.5691    0.9177 H   0  0  0  0  0  0  0  0  0  0  0  0
    1.3682    8.4975   -0.4041 H   0  0  0  0  0  0  0  0  0  0  0  0
    3.3237   10.5718   -0.6092 H   0  0  0  0  0  0  0  0  0  0  0  0
    2.5667    9.7887   -1.9937 H   0  0  0  0  0  0  0  0  0  0  0  0
    1.6837   12.0099    0.8082 H   0  0  0  0  0  0  0  0  0  0  0  0
    2.9196   12.8902   -0.1532 H   0  0  0  0  0  0  0  0  0  0  0  0
    1.2136   13.4526   -0.1532 H   0  0  0  0  0  0  0  0  0  0  0  0
    1.7641   11.5636   -3.4326 H   0  0  0  0  0  0  0  0  0  0  0  0
    3.9823   12.1939   -2.2855 H   0  0  0  0  0  0  0  0  0  0  0  0
    3.5334   12.8806   -3.9336 H   0  0  0  0  0  0  0  0  0  0  0  0
    4.6268   14.5636   -2.2267 H   0  0  0  0  0  0  0  0  0  0  0  0
    0.6823   14.7544   -1.3890 H   0  0  0  0  0  0  0  0  0  0  0  0
    0.9543   16.1777   -4.1083 H   0  0  0  0  0  0  0  0  0  0  0  0
   -0.5779   15.9065   -3.1651 H   0  0  0  0  0  0  0  0  0  0  0  0
    0.2605   18.2245   -2.9441 H   0  0  0  0  0  0  0  0  0  0  0  0
    0.2360   17.3294   -1.3743 H   0  0  0  0  0  0  0  0  0  0  0  0
    2.2795   18.5790   -1.5174 H   0  0  0  0  0  0  0  0  0  0  0  0
    3.6820   17.5430   -3.4350 H   0  0  0  0  0  0  0  0  0  0  0  0
    3.3984   16.6079    0.6842 H   0  0  0  0  0  0  0  0  0  0  0  0
    1.7944   17.2841    0.2406 H   0  0  0  0  0  0  0  0  0  0  0  0
    2.0507   15.5062    0.2406 H   0  0  0  0  0  0  0  0  0  0  0  0
    4.8188   16.9816   -0.4000 H   0  0  0  0  0  0  0  0  0  0  0  0
    5.0318   16.1091   -1.9557 H   0  0  0  0  0  0  0  0  0  0  0  0
    4.6213   17.8578   -1.9557 H   0  0  0  0  0  0  0  0  0  0  0  0
    1.4078   14.6261   -4.8758 H   0  0  0  0  0  0  0  0  0  0  0  0
    1.5120   12.8427   -5.0636 H   0  0  0  0  0  0  0  0  0  0  0  0
   -0.0908   13.6537   -5.0636 H   0  0  0  0  0  0  0  0  0  0  0  0
   -1.2427   13.9992   -2.6914 H   0  0  0  0  0  0  0  0  0  0  0  0
   -0.9367   12.4073   -3.5898 H   0  0  0  0  0  0  0  0  0  0  0  0
   -0.7232   12.9194   -0.6108 H   0  0  0  0  0  0  0  0  0  0  0  0
   -1.9009   11.8708   -1.4944 H   0  0  0  0  0  0  0  0  0  0  0  0
   -0.4990    9.1475   -2.2304 H   0  0  0  0  0  0  0  0  0  0  0  0
   -1.0029   10.5596   -3.2197 H   0  0  0  0  0  0  0  0  0  0  0  0
    0.7134   10.0295   -3.2197 H   0  0  0  0  0  0  0  0  0  0  0  0
  1  2  1  0
  2  3  1  0
  3  4  1  0
  4  5  1  0
  5  6  1  0
  6  7  1  0
  7  8  1  0
  7  9  1  0
  2 10  1  0
 10 11  1  0
 11 12  1  0
 12 13  1  0
 13 14  1  1
 13 15  1  0
 15 16  1  0
 16 17  1  0
 17 18  2  0
 18 19  1  0
 19 20  1  0
 20 21  1  0
 21 22  1  0
 22 23  1  0
 22 24  1  0
 24 25  1  0
 24 26  1  0
 19 27  1  0
 27 28  1  6
 27 29  1  0
 29 30  1  0
 30 31  1  0
 31 32  1  6
  7  5  1  0
 31 10  1  0
 31 13  1  0
 27 15  1  0
 24 18  1  0
  1 33  1  0
  1 34  1  0
  1 35  1  0
  2 36  1  1
  3 37  1  0
  3 38  1  0
  4 39  1  0
  4 40  1  0
  5 41  1  1
  8 42  1  0
  8 43  1  0
  8 44  1  0
  9 45  1  0
  9 46  1  0
  9 47  1  0
 10 48  1  1
 11 49  1  0
 11 50  1  0
 12 51  1  0
 12 52  1  0
 14 53  1  0
 14 54  1  0
 14 55  1  0
 15 56  1  6
 16 57  1  0
 16 58  1  0
 17 59  1  0
 19 60  1  1
 20 61  1  0
 20 62  1  0
 21 63  1  0
 21 64  1  0
 22 65  1  1
 23 66  1  0
 25 67  1  0
 25 68  1  0
 25 69  1  0
 26 70  1  0
 26 71  1  0
 26 72  1  0
 28 73  1  0
 28 74  1  0
 28 75  1  0
 29 76  1  0
 29 77  1  0
 30 78  1  0
 30 79  1  0
 32 80  1  0
 32 81  1  0
 32 82  1  0
M  END
>  <meeko>  (5) 
{"is_sidechain": [false], "intermolecular_energy": 2.731, "internal_energy": -0.839}

$$$$
EPH_relaxed_0001_pdb2pqr_Repair_168_r2_0001_out
     RDKit          3D

 82 86  0  0  0  0  0  0  0  0999 V2000
    3.6760   17.9390   -1.3860 C   0  0  0  0  0  0  0  0  0  0  0  0
    2.6330   17.4690   -2.4040 C   0  0  2  0  0  0  0  0  0  0  0  0
    1.2160   17.9640   -2.0550 C   0  0  0  0  0  0  0  0  0  0  0  0
    1.1650   18.8630   -0.8160 C   0  0  0  0  0  0  0  0  0  0  0  0
   -0.0840   19.6910   -0.7820 C   0  0  2  0  0  0  0  0  0  0  0  0
   -0.4330   20.1940    0.5130 O   0  0  0  0  0  0  0  0  0  0  0  0
   -1.3540   19.2600   -0.0730 C   0  0  0  0  0  0  0  0  0  0  0  0
   -1.4380   17.9530    0.6520 C   0  0  0  0  0  0  0  0  0  0  0  0
   -2.6520   19.8750   -0.4920 C   0  0  0  0  0  0  0  0  0  0  0  0
    2.6460   15.9480   -2.4970 C   0  0  1  0  0  0  0  0  0  0  0  0
    4.0760   15.3720   -2.6760 C   0  0  0  0  0  0  0  0  0  0  0  0
    4.1160   14.0260   -1.9080 C   0  0  0  0  0  0  0  0  0  0  0  0
    2.6340   13.7110   -1.5970 C   0  0  1  0  0  0  0  0  0  0  0  0
    2.0710   13.0880   -2.9130 C   0  0  0  0  0  0  0  0  0  0  0  0
    2.3680   12.7890   -0.3620 C   0  0  2  0  0  0  0  0  0  0  0  0
    2.9470   11.3680   -0.4730 C   0  0  0  0  0  0  0  0  0  0  0  0
    2.0340   10.3510   -1.0740 C   0  0  0  0  0  0  0  0  0  0  0  0
    0.7070   10.4970   -1.2470 C   0  0  0  0  0  0  0  0  0  0  0  0
   -0.0220   11.7430   -0.7290 C   0  0  1  0  0  0  0  0  0  0  0  0
   -1.3140   11.3150    0.0160 C   0  0  0  0  0  0  0  0  0  0  0  0
   -2.2130   10.4240   -0.8360 C   0  0  0  0  0  0  0  0  0  0  0  0
   -1.4700    9.1680   -1.2840 C   0  0  2  0  0  0  0  0  0  0  0  0
   -1.1930    8.3620   -0.1340 O   0  0  0  0  0  0  0  0  0  0  0  0
   -0.1460    9.4750   -2.0380 C   0  0  0  0  0  0  0  0  0  0  0  0
   -0.4670   10.0800   -3.4270 C   0  0  0  0  0  0  0  0  0  0  0  0
    0.5730    8.1260   -2.3080 C   0  0  0  0  0  0  0  0  0  0  0  0
    0.8590   12.7620    0.1140 C   0  0  1  0  0  0  0  0  0  0  0  0
    0.8730   12.3390    1.6140 C   0  0  0  0  0  0  0  0  0  0  0  0
    0.1900   14.1860    0.0610 C   0  0  0  0  0  0  0  0  0  0  0  0
    0.5840   15.0960   -1.1190 C   0  0  0  0  0  0  0  0  0  0  0  0
    2.1060   15.1570   -1.2790 C   0  0  2  0  0  0  0  0  0  0  0  0
    2.6990   15.8000    0.0220 C   0  0  0  0  0  0  0  0  0  0  0  0
    3.2972   17.7683   -0.3675 H   0  0  0  0  0  0  0  0  0  0  0  0
    4.6090   17.3743   -1.5296 H   0  0  0  0  0  0  0  0  0  0  0  0
    3.8710   19.0120   -1.5296 H   0  0  0  0  0  0  0  0  0  0  0  0
    2.9027   17.9031   -3.3781 H   0  0  0  0  0  0  0  0  0  0  0  0
    0.8257   18.5320   -2.9124 H   0  0  0  0  0  0  0  0  0  0  0  0
    0.6108   17.0733   -1.8307 H   0  0  0  0  0  0  0  0  0  0  0  0
    1.1985   18.2315    0.0841 H   0  0  0  0  0  0  0  0  0  0  0  0
    2.0273   19.5450   -0.8519 H   0  0  0  0  0  0  0  0  0  0  0  0
    0.1032   20.0580   -1.8019 H   0  0  0  0  0  0  0  0  0  0  0  0
   -1.4264   18.1341    1.7369 H   0  0  0  0  0  0  0  0  0  0  0  0
   -2.3710   17.4398    0.3759 H   0  0  0  0  0  0  0  0  0  0  0  0
   -0.5784   17.3246    0.3759 H   0  0  0  0  0  0  0  0  0  0  0  0
   -3.2326   20.1501    0.4009 H   0  0  0  0  0  0  0  0  0  0  0  0
   -2.4543   20.7752   -1.0925 H   0  0  0  0  0  0  0  0  0  0  0  0
   -3.2234   19.1519   -1.0925 H   0  0  0  0  0  0  0  0  0  0  0  0
    1.9795   15.8105   -3.3612 H   0  0  0  0  0  0  0  0  0  0  0  0
    4.2865   15.2057   -3.7428 H   0  0  0  0  0  0  0  0  0  0  0  0
    4.8337   16.0696   -2.2897 H   0  0  0  0  0  0  0  0  0  0  0  0
    4.5584   13.2356   -2.5321 H   0  0  0  0  0  0  0  0  0  0  0  0
    4.7307   14.0830   -0.9975 H   0  0  0  0  0  0  0  0  0  0  0  0
    1.3526   12.2930   -2.6642 H   0  0  0  0  0  0  0  0  0  0  0  0
    1.5655   13.8682   -3.5010 H   0  0  0  0  0  0  0  0  0  0  0  0
    2.8982   12.6638   -3.5010 H   0  0  0  0  0  0  0  0  0  0  0  0
    2.9443   13.2862    0.4322 H   0  0  0  0  0  0  0  0  0  0  0  0
    3.8543   11.4184   -1.0929 H   0  0  0  0  0  0  0  0  0  0  0  0
    3.1352   11.0353    0.5585 H   0  0  0  0  0  0  0  0  0  0  0  0
    2.4835    9.4025   -1.4032 H   0  0  0  0  0  0  0  0  0  0  0  0
   -0.2827   12.3343   -1.6192 H   0  0  0  0  0  0  0  0  0  0  0  0
   -1.0308   10.7639    0.9249 H   0  0  0  0  0  0  0  0  0  0  0  0
   -1.8792   12.2278    0.2555 H   0  0  0  0  0  0  0  0  0  0  0  0
   -3.0929   10.1301   -0.2448 H   0  0  0  0  0  0  0  0  0  0  0  0
   -2.5204   10.9874   -1.7294 H   0  0  0  0  0  0  0  0  0  0  0  0
   -2.1194    8.6365   -1.9952 H   0  0  0  0  0  0  0  0  0  0  0  0
   -1.7660    8.6720    0.5870 H   0  0  0  0  0  0  0  0  0  0  0  0
   -0.9790   11.0449   -3.2972 H   0  0  0  0  0  0  0  0  0  0  0  0
    0.4684   10.2334   -3.9852 H   0  0  0  0  0  0  0  0  0  0  0  0
   -1.1184    9.3915   -3.9852 H   0  0  0  0  0  0  0  0  0  0  0  0
    0.8277    7.6482   -1.3505 H   0  0  0  0  0  0  0  0  0  0  0  0
   -0.0922    7.4645   -2.8824 H   0  0  0  0  0  0  0  0  0  0  0  0
    1.4930    8.3094   -2.8824 H   0  0  0  0  0  0  0  0  0  0  0  0
    0.8433   13.2371    2.2485 H   0  0  0  0  0  0  0  0  0  0  0  0
   -0.0049   11.7110    1.8261 H   0  0  0  0  0  0  0  0  0  0  0  0
    1.7905   11.7704    1.8261 H   0  0  0  0  0  0  0  0  0  0  0  0
   -0.8995   14.0404    0.0194 H   0  0  0  0  0  0  0  0  0  0  0  0
    0.5518   14.7073    0.9595 H   0  0  0  0  0  0  0  0  0  0  0  0
    0.1405   14.6985   -2.0438 H   0  0  0  0  0  0  0  0  0  0  0  0
    0.2111   16.1114   -0.9190 H   0  0  0  0  0  0  0  0  0  0  0  0
    2.2542   15.3177    0.9049 H   0  0  0  0  0  0  0  0  0  0  0  0
    3.7897   15.6578    0.0370 H   0  0  0  0  0  0  0  0  0  0  0  0
    2.4692   16.8756    0.0370 H   0  0  0  0  0  0  0  0  0  0  0  0
  1  2  1  0
  2  3  1  0
  3  4  1  0
  4  5  1  0
  5  6  1  0
  6  7  1  0
  7  8  1  0
  7  9  1  0
  2 10  1  0
 10 11  1  0
 11 12  1  0
 12 13  1  0
 13 14  1  6
 13 15  1  0
 15 16  1  0
 16 17  1  0
 17 18  2  0
 18 19  1  0
 19 20  1  0
 20 21  1  0
 21 22  1  0
 22 23  1  0
 22 24  1  0
 24 25  1  0
 24 26  1  0
 19 27  1  0
 27 28  1  1
 27 29  1  0
 29 30  1  0
 30 31  1  0
 31 32  1  1
  7  5  1  0
 31 10  1  0
 31 13  1  0
 27 15  1  0
 24 18  1  0
  1 33  1  0
  1 34  1  0
  1 35  1  0
  2 36  1  6
  3 37  1  0
  3 38  1  0
  4 39  1  0
  4 40  1  0
  5 41  1  6
  8 42  1  0
  8 43  1  0
  8 44  1  0
  9 45  1  0
  9 46  1  0
  9 47  1  0
 10 48  1  6
 11 49  1  0
 11 50  1  0
 12 51  1  0
 12 52  1  0
 14 53  1  0
 14 54  1  0
 14 55  1  0
 15 56  1  1
 16 57  1  0
 16 58  1  0
 17 59  1  0
 19 60  1  6
 20 61  1  0
 20 62  1  0
 21 63  1  0
 21 64  1  0
 22 65  1  6
 23 66  1  0
 25 67  1  0
 25 68  1  0
 25 69  1  0
 26 70  1  0
 26 71  1  0
 26 72  1  0
 28 73  1  0
 28 74  1  0
 28 75  1  0
 29 76  1  0
 29 77  1  0
 30 78  1  0
 30 79  1  0
 32 80  1  0
 32 81  1  0
 32 82  1  0
M  END
>  <meeko>  (6) 
{"is_sidechain": [false], "intermolecular_energy": 2.731, "internal_energy": -0.839}

$$$$
EPH_relaxed_0001_pdb2pqr_Repair_168_r2_0001_out
     RDKit          3D

 82 86  0  0  0  0  0  0  0  0999 V2000
   -2.5850    7.6230   -3.0570 C   0  0  0  0  0  0  0  0  0  0  0  0
   -2.8730    7.8730   -1.5740 C   0  0  2  0  0  0  0  0  0  0  0  0
   -4.3820    7.8280   -1.2590 C   0  0  0  0  0  0  0  0  0  0  0  0
   -5.1140    6.6580   -1.9220 C   0  0  0  0  0  0  0  0  0  0  0  0
   -6.3250    7.1170   -2.6760 C   0  0  2  0  0  0  0  0  0  0  0  0
   -6.8800    8.3570   -2.2190 O   0  0  0  0  0  0  0  0  0  0  0  0
   -7.7110    7.1950   -2.0650 C   0  0  0  0  0  0  0  0  0  0  0  0
   -7.9590    6.8090   -0.6410 C   0  0  0  0  0  0  0  0  0  0  0  0
   -8.8980    7.1780   -2.9780 C   0  0  0  0  0  0  0  0  0  0  0  0
   -2.2930    9.2180   -1.1510 C   0  0  1  0  0  0  0  0  0  0  0  0
   -2.8060    9.6800    0.2380 C   0  0  0  0  0  0  0  0  0  0  0  0
   -1.6340   10.4310    0.9210 C   0  0  0  0  0  0  0  0  0  0  0  0
   -0.6080   10.6650   -0.2120 C   0  0  1  0  0  0  0  0  0  0  0  0
   -1.1340   11.9210   -0.9760 C   0  0  0  0  0  0  0  0  0  0  0  0
    0.8810   10.8400    0.2300 C   0  0  2  0  0  0  0  0  0  0  0  0
    1.1580   12.0600    1.1250 C   0  0  0  0  0  0  0  0  0  0  0  0
    1.5190   13.3140    0.4010 C   0  0  0  0  0  0  0  0  0  0  0  0
    1.8960   13.3910   -0.8890 C   0  0  0  0  0  0  0  0  0  0  0  0
    2.0830   12.1230   -1.7320 C   0  0  1  0  0  0  0  0  0  0  0  0
    3.4180   12.2150   -2.5170 C   0  0  0  0  0  0  0  0  0  0  0  0
    3.5210   13.4890   -3.3490 C   0  0  0  0  0  0  0  0  0  0  0  0
    3.3890   14.7280   -2.4670 C   0  0  2  0  0  0  0  0  0  0  0  0
    4.5250   14.8010   -1.6010 O   0  0  0  0  0  0  0  0  0  0  0  0
    2.0850   14.7420   -1.6220 C   0  0  0  0  0  0  0  0  0  0  0  0
    0.8650   14.9670   -2.5490 C   0  0  0  0  0  0  0  0  0  0  0  0
    2.1430   15.9720   -0.6750 C   0  0  0  0  0  0  0  0  0  0  0  0
    1.9250   10.7450   -0.9560 C   0  0  1  0  0  0  0  0  0  0  0  0
    3.2870   10.3330   -0.3190 C   0  0  0  0  0  0  0  0  0  0  0  0
    1.5570    9.6140   -1.9880 C   0  0  0  0  0  0  0  0  0  0  0  0
    0.0610    9.4110   -2.2920 C   0  0  0  0  0  0  0  0  0  0  0  0
   -0.7540    9.3120   -0.9990 C   0  0  2  0  0  0  0  0  0  0  0  0
   -0.2630    8.0440   -0.2200 C   0  0  0  0  0  0  0  0  0  0  0  0
   -1.7575    6.9047   -3.1538 H   0  0  0  0  0  0  0  0  0  0  0  0
   -3.4840    7.2141   -3.5413 H   0  0  0  0  0  0  0  0  0  0  0  0
   -2.3065    8.5706   -3.5413 H   0  0  0  0  0  0  0  0  0  0  0  0
   -2.3925    7.0645   -1.0035 H   0  0  0  0  0  0  0  0  0  0  0  0
   -4.5070    7.7434   -0.1694 H   0  0  0  0  0  0  0  0  0  0  0  0
   -4.8223    8.7523   -1.6612 H   0  0  0  0  0  0  0  0  0  0  0  0
   -4.4273    6.1580   -2.6209 H   0  0  0  0  0  0  0  0  0  0  0  0
   -5.4437    5.9678   -1.1315 H   0  0  0  0  0  0  0  0  0  0  0  0
   -5.9522    6.6555   -3.6023 H   0  0  0  0  0  0  0  0  0  0  0  0
   -7.4862    7.5449    0.0260 H   0  0  0  0  0  0  0  0  0  0  0  0
   -9.0422    6.7846   -0.4510 H   0  0  0  0  0  0  0  0  0  0  0  0
   -7.5309    5.8137   -0.4510 H   0  0  0  0  0  0  0  0  0  0  0  0
   -9.8208    7.1648   -2.3795 H   0  0  0  0  0  0  0  0  0  0  0  0
   -8.8854    8.0764   -3.6126 H   0  0  0  0  0  0  0  0  0  0  0  0
   -8.8597    6.2803   -3.6126 H   0  0  0  0  0  0  0  0  0  0  0  0
   -2.6264    9.8368   -1.9972 H   0  0  0  0  0  0  0  0  0  0  0  0
   -3.6684   10.3523    0.1188 H   0  0  0  0  0  0  0  0  0  0  0  0
   -3.1316    8.8217    0.8441 H   0  0  0  0  0  0  0  0  0  0  0  0
   -1.9773   11.3892    1.3381 H   0  0  0  0  0  0  0  0  0  0  0  0
   -1.2066    9.8624    1.7601 H   0  0  0  0  0  0  0  0  0  0  0  0
   -1.4535   12.6840   -0.2510 H   0  0  0  0  0  0  0  0  0  0  0  0
   -0.3311   12.3289   -1.6076 H   0  0  0  0  0  0  0  0  0  0  0  0
   -1.9879   11.6350   -1.6076 H   0  0  0  0  0  0  0  0  0  0  0  0
    1.0413    9.9589    0.8687 H   0  0  0  0  0  0  0  0  0  0  0  0
    0.2532   12.2587    1.7181 H   0  0  0  0  0  0  0  0  0  0  0  0
    2.0356   11.7972    1.7339 H   0  0  0  0  0  0  0  0  0  0  0  0
    1.4732   14.2547    0.9693 H   0  0  0  0  0  0  0  0  0  0  0  0
    1.2376   12.0981   -2.4353 H   0  0  0  0  0  0  0  0  0  0  0  0
    4.2512   12.1944   -1.7992 H   0  0  0  0  0  0  0  0  0  0  0  0
    3.4580   11.3606   -3.2086 H   0  0  0  0  0  0  0  0  0  0  0  0
    4.4970   13.5101   -3.8559 H   0  0  0  0  0  0  0  0  0  0  0  0
    2.7048   13.4940   -4.0864 H   0  0  0  0  0  0  0  0  0  0  0  0
    3.3407   15.6028   -3.1322 H   0  0  0  0  0  0  0  0  0  0  0  0
    4.2420   14.5070   -0.7190 H   0  0  0  0  0  0  0  0  0  0  0  0
   -0.0343   15.1329   -1.9377 H   0  0  0  0  0  0  0  0  0  0  0  0
    1.0443   15.8472   -3.1839 H   0  0  0  0  0  0  0  0  0  0  0  0
    0.7185   14.0807   -3.1839 H   0  0  0  0  0  0  0  0  0  0  0  0
    2.1269   15.6308    0.3706 H   0  0  0  0  0  0  0  0  0  0  0  0
    3.0687   16.5358   -0.8625 H   0  0  0  0  0  0  0  0  0  0  0  0
    1.2744   16.6204   -0.8625 H   0  0  0  0  0  0  0  0  0  0  0  0
    3.2017   10.3588    0.7774 H   0  0  0  0  0  0  0  0  0  0  0  0
    3.5501    9.3151   -0.6425 H   0  0  0  0  0  0  0  0  0  0  0  0
    4.0702   11.0344   -0.6425 H   0  0  0  0  0  0  0  0  0  0  0  0
    2.0599    9.8528   -2.9367 H   0  0  0  0  0  0  0  0  0  0  0  0
    1.8845    8.6760   -1.5158 H   0  0  0  0  0  0  0  0  0  0  0  0
   -0.3047   10.2635   -2.8832 H   0  0  0  0  0  0  0  0  0  0  0  0
   -0.0580    8.4727   -2.8537 H   0  0  0  0  0  0  0  0  0  0  0  0
   -0.3343    8.2281    0.8621 H   0  0  0  0  0  0  0  0  0  0  0  0
   -0.8926    7.1826   -0.4877 H   0  0  0  0  0  0  0  0  0  0  0  0
    0.7825    7.8313   -0.4877 H   0  0  0  0  0  0  0  0  0  0  0  0
  1  2  1  0
  2  3  1  0
  3  4  1  0
  4  5  1  0
  5  6  1  0
  6  7  1  0
  7  8  1  0
  7  9  1  0
  2 10  1  0
 10 11  1  0
 11 12  1  0
 12 13  1  0
 13 14  1  6
 13 15  1  0
 15 16  1  0
 16 17  1  0
 17 18  2  0
 18 19  1  0
 19 20  1  0
 20 21  1  0
 21 22  1  0
 22 23  1  0
 22 24  1  0
 24 25  1  0
 24 26  1  0
 19 27  1  0
 27 28  1  1
 27 29  1  0
 29 30  1  0
 30 31  1  0
 31 32  1  1
  7  5  1  0
 31 10  1  0
 31 13  1  0
 27 15  1  0
 24 18  1  0
  1 33  1  0
  1 34  1  0
  1 35  1  0
  2 36  1  1
  3 37  1  0
  3 38  1  0
  4 39  1  0
  4 40  1  0
  5 41  1  6
  8 42  1  0
  8 43  1  0
  8 44  1  0
  9 45  1  0
  9 46  1  0
  9 47  1  0
 10 48  1  6
 11 49  1  0
 11 50  1  0
 12 51  1  0
 12 52  1  0
 14 53  1  0
 14 54  1  0
 14 55  1  0
 15 56  1  1
 16 57  1  0
 16 58  1  0
 17 59  1  0
 19 60  1  6
 20 61  1  0
 20 62  1  0
 21 63  1  0
 21 64  1  0
 22 65  1  6
 23 66  1  0
 25 67  1  0
 25 68  1  0
 25 69  1  0
 26 70  1  0
 26 71  1  0
 26 72  1  0
 28 73  1  0
 28 74  1  0
 28 75  1  0
 29 76  1  0
 29 77  1  0
 30 78  1  0
 30 79  1  0
 32 80  1  0
 32 81  1  0
 32 82  1  0
M  END
>  <meeko>  (7) 
{"is_sidechain": [false], "intermolecular_energy": 2.731, "internal_energy": -0.839}

$$$$
EPH_relaxed_0001_pdb2pqr_Repair_168_r2_0001_out
     RDKit          3D

 82 86  0  0  0  0  0  0  0  0999 V2000
    0.3740   17.8030   -0.1940 C   0  0  0  0  0  0  0  0  0  0  0  0
    1.2800   17.1150   -1.2190 C   0  0  2  0  0  0  0  0  0  0  0  0
    1.6250   18.0420   -2.4030 C   0  0  0  0  0  0  0  0  0  0  0  0
    3.1260   18.2920   -2.5720 C   0  0  0  0  0  0  0  0  0  0  0  0
    3.9330   17.0820   -2.2100 C   0  0  2  0  0  0  0  0  0  0  0  0
    5.0830   17.3510   -1.3970 O   0  0  0  0  0  0  0  0  0  0  0  0
    5.3440   16.8370   -2.7140 C   0  0  0  0  0  0  0  0  0  0  0  0
    6.0280   17.8100   -3.6220 C   0  0  0  0  0  0  0  0  0  0  0  0
    5.8670   15.4350   -2.7210 C   0  0  0  0  0  0  0  0  0  0  0  0
    0.6140   15.8430   -1.7300 C   0  0  1  0  0  0  0  0  0  0  0  0
    0.1810   15.9510   -3.2160 C   0  0  0  0  0  0  0  0  0  0  0  0
    0.3750   14.5460   -3.8420 C   0  0  0  0  0  0  0  0  0  0  0  0
    0.5920   13.6070   -2.6330 C   0  0  1  0  0  0  0  0  0  0  0  0
   -0.8420   13.3070   -2.0940 C   0  0  0  0  0  0  0  0  0  0  0  0
    1.3900   12.2920   -2.9130 C   0  0  2  0  0  0  0  0  0  0  0  0
    0.7260   11.3270   -3.9110 C   0  0  0  0  0  0  0  0  0  0  0  0
   -0.1860   10.3120   -3.3060 C   0  0  0  0  0  0  0  0  0  0  0  0
   -0.2450    9.9930   -2.0000 C   0  0  0  0  0  0  0  0  0  0  0  0
    0.7340   10.6120   -0.9930 C   0  0  1  0  0  0  0  0  0  0  0  0
    1.3020    9.4990   -0.0740 C   0  0  0  0  0  0  0  0  0  0  0  0
    0.2060    8.6830    0.6040 C   0  0  0  0  0  0  0  0  0  0  0  0
   -0.7120    8.0370   -0.4300 C   0  0  2  0  0  0  0  0  0  0  0  0
    0.0330    7.0570   -1.1590 O   0  0  0  0  0  0  0  0  0  0  0  0
   -1.3360    9.0600   -1.4200 C   0  0  0  0  0  0  0  0  0  0  0  0
   -2.3780    9.9340   -0.6770 C   0  0  0  0  0  0  0  0  0  0  0  0
   -2.1250    8.2650   -2.4950 C   0  0  0  0  0  0  0  0  0  0  0  0
    1.8710   11.5350   -1.6100 C   0  0  1  0  0  0  0  0  0  0  0  0
    3.0950   10.6640   -2.0270 C   0  0  0  0  0  0  0  0  0  0  0  0
    2.3880   12.5240   -0.4990 C   0  0  0  0  0  0  0  0  0  0  0  0
    1.6320   13.8580   -0.3510 C   0  0  0  0  0  0  0  0  0  0  0  0
    1.4560   14.5430   -1.7100 C   0  0  2  0  0  0  0  0  0  0  0  0
    2.8820   14.8760   -2.2660 C   0  0  0  0  0  0  0  0  0  0  0  0
    0.7099   17.5479    0.8219 H   0  0  0  0  0  0  0  0  0  0  0  0
    0.4238   18.8929   -0.3338 H   0  0  0  0  0  0  0  0  0  0  0  0
   -0.6625   17.4624   -0.3338 H   0  0  0  0  0  0  0  0  0  0  0  0
    2.2227   16.8626   -0.7115 H   0  0  0  0  0  0  0  0  0  0  0  0
    1.2434   17.5823   -3.3266 H   0  0  0  0  0  0  0  0  0  0  0  0
    1.1583   19.0162   -2.1951 H   0  0  0  0  0  0  0  0  0  0  0  0
    3.3279   18.5546   -3.6209 H   0  0  0  0  0  0  0  0  0  0  0  0
    3.4154   19.1118   -1.8981 H   0  0  0  0  0  0  0  0  0  0  0  0
    3.0313   16.4520   -2.2051 H   0  0  0  0  0  0  0  0  0  0  0  0
    6.5575   18.5633   -3.0202 H   0  0  0  0  0  0  0  0  0  0  0  0
    6.7494   17.2745   -4.2567 H   0  0  0  0  0  0  0  0  0  0  0  0
    5.2799   18.3075   -4.2567 H   0  0  0  0  0  0  0  0  0  0  0  0
    5.9968   15.0869   -1.6856 H   0  0  0  0  0  0  0  0  0  0  0  0
    5.1528   14.7798   -3.2413 H   0  0  0  0  0  0  0  0  0  0  0  0
    6.8358   15.4076   -3.2413 H   0  0  0  0  0  0  0  0  0  0  0  0
   -0.2143   15.7663   -1.0103 H   0  0  0  0  0  0  0  0  0  0  0  0
   -0.8748   16.2525   -3.2819 H   0  0  0  0  0  0  0  0  0  0  0  0
    0.7788   16.7060   -3.7476 H   0  0  0  0  0  0  0  0  0  0  0  0
   -0.5182   14.2473   -4.4103 H   0  0  0  0  0  0  0  0  0  0  0  0
    1.2171   14.5170   -4.5491 H   0  0  0  0  0  0  0  0  0  0  0  0
   -0.8283   13.3099   -0.9941 H   0  0  0  0  0  0  0  0  0  0  0  0
   -1.5380   14.0790   -2.4541 H   0  0  0  0  0  0  0  0  0  0  0  0
   -1.1702   12.3208   -2.4541 H   0  0  0  0  0  0  0  0  0  0  0  0
    2.2940   12.6670   -3.4152 H   0  0  0  0  0  0  0  0  0  0  0  0
    0.1420   11.9257   -4.6254 H   0  0  0  0  0  0  0  0  0  0  0  0
    1.5454   10.7603   -4.3773 H   0  0  0  0  0  0  0  0  0  0  0  0
   -0.8678    9.7795   -3.9854 H   0  0  0  0  0  0  0  0  0  0  0  0
    0.1475   11.3257   -0.3958 H   0  0  0  0  0  0  0  0  0  0  0  0
    1.9207    8.8221   -0.6814 H   0  0  0  0  0  0  0  0  0  0  0  0
    1.8913    9.9874    0.7161 H   0  0  0  0  0  0  0  0  0  0  0  0
    0.6699    7.8952    1.2156 H   0  0  0  0  0  0  0  0  0  0  0  0
   -0.3939    9.3561    1.2342 H   0  0  0  0  0  0  0  0  0  0  0  0
   -1.5493    7.5764    0.1148 H   0  0  0  0  0  0  0  0  0  0  0  0
    0.3160    7.4640   -1.9950 H   0  0  0  0  0  0  0  0  0  0  0  0
   -2.2436    9.8213    0.4089 H   0  0  0  0  0  0  0  0  0  0  0  0
   -2.2378   10.9887   -0.9563 H   0  0  0  0  0  0  0  0  0  0  0  0
   -3.3922    9.6124   -0.9563 H   0  0  0  0  0  0  0  0  0  0  0  0
   -2.8172    7.5675   -2.0007 H   0  0  0  0  0  0  0  0  0  0  0  0
   -2.6959    8.9648   -3.1230 H   0  0  0  0  0  0  0  0  0  0  0  0
   -1.4209    7.6994   -3.1230 H   0  0  0  0  0  0  0  0  0  0  0  0
    3.6089   10.2983   -1.1258 H   0  0  0  0  0  0  0  0  0  0  0  0
    2.7491    9.8078   -2.6247 H   0  0  0  0  0  0  0  0  0  0  0  0
    3.7906   11.2713   -2.6247 H   0  0  0  0  0  0  0  0  0  0  0  0
    2.3303   11.9998    0.4663 H   0  0  0  0  0  0  0  0  0  0  0  0
    3.4051   12.8025   -0.8119 H   0  0  0  0  0  0  0  0  0  0  0  0
    0.6409   13.6634    0.0848 H   0  0  0  0  0  0  0  0  0  0  0  0
    2.2169   14.5216    0.3028 H   0  0  0  0  0  0  0  0  0  0  0  0
    3.5743   15.0377   -1.4266 H   0  0  0  0  0  0  0  0  0  0  0  0
    3.2408   14.0375   -2.8809 H   0  0  0  0  0  0  0  0  0  0  0  0
    2.8323   15.7867   -2.8809 H   0  0  0  0  0  0  0  0  0  0  0  0
  1  2  1  0
  2  3  1  0
  3  4  1  0
  4  5  1  0
  5  6  1  0
  6  7  1  0
  7  8  1  0
  7  9  1  0
  2 10  1  0
 10 11  1  0
 11 12  1  0
 12 13  1  0
 13 14  1  1
 13 15  1  0
 15 16  1  0
 16 17  1  0
 17 18  2  0
 18 19  1  0
 19 20  1  0
 20 21  1  0
 21 22  1  0
 22 23  1  0
 22 24  1  0
 24 25  1  0
 24 26  1  0
 19 27  1  0
 27 28  1  6
 27 29  1  0
 29 30  1  0
 30 31  1  0
 31 32  1  6
  7  5  1  0
 31 10  1  0
 31 13  1  0
 27 15  1  0
 24 18  1  0
  1 33  1  0
  1 34  1  0
  1 35  1  0
  2 36  1  1
  3 37  1  0
  3 38  1  0
  4 39  1  0
  4 40  1  0
  5 41  1  1
  8 42  1  0
  8 43  1  0
  8 44  1  0
  9 45  1  0
  9 46  1  0
  9 47  1  0
 10 48  1  1
 11 49  1  0
 11 50  1  0
 12 51  1  0
 12 52  1  0
 14 53  1  0
 14 54  1  0
 14 55  1  0
 15 56  1  6
 16 57  1  0
 16 58  1  0
 17 59  1  0
 19 60  1  1
 20 61  1  0
 20 62  1  0
 21 63  1  0
 21 64  1  0
 22 65  1  1
 23 66  1  0
 25 67  1  0
 25 68  1  0
 25 69  1  0
 26 70  1  0
 26 71  1  0
 26 72  1  0
 28 73  1  0
 28 74  1  0
 28 75  1  0
 29 76  1  0
 29 77  1  0
 30 78  1  0
 30 79  1  0
 32 80  1  0
 32 81  1  0
 32 82  1  0
M  END
>  <meeko>  (8) 
{"is_sidechain": [false], "intermolecular_energy": 2.731, "internal_energy": -0.839}

$$$$
EPH_relaxed_0001_pdb2pqr_Repair_168_r2_0001_out
     RDKit          3D

 82 86  0  0  0  0  0  0  0  0999 V2000
    4.3440   17.5750   -2.6430 C   0  0  0  0  0  0  0  0  0  0  0  0
    2.9840   17.0900   -2.1320 C   0  0  2  0  0  0  0  0  0  0  0  0
    2.7380   17.4910   -0.6640 C   0  0  0  0  0  0  0  0  0  0  0  0
    3.7620   18.4900   -0.1190 C   0  0  0  0  0  0  0  0  0  0  0  0
    3.4790   18.8520    1.3080 C   0  0  2  0  0  0  0  0  0  0  0  0
    3.8360   20.1930    1.6670 O   0  0  0  0  0  0  0  0  0  0  0  0
    4.5640   19.1450    2.3270 C   0  0  0  0  0  0  0  0  0  0  0  0
    6.0140   19.0880    1.9620 C   0  0  0  0  0  0  0  0  0  0  0  0
    4.2360   19.0060    3.7810 C   0  0  0  0  0  0  0  0  0  0  0  0
    2.8830   15.5760   -2.2820 C   0  0  1  0  0  0  0  0  0  0  0  0
    4.2630   14.9040   -2.5090 C   0  0  0  0  0  0  0  0  0  0  0  0
    4.2140   13.5300   -1.7940 C   0  0  0  0  0  0  0  0  0  0  0  0
    2.7180   13.3120   -1.4680 C   0  0  1  0  0  0  0  0  0  0  0  0
    2.0910   12.7850   -2.7970 C   0  0  0  0  0  0  0  0  0  0  0  0
    2.4040   12.3640   -0.2650 C   0  0  2  0  0  0  0  0  0  0  0  0
    2.8750   10.9100   -0.4400 C   0  0  0  0  0  0  0  0  0  0  0  0
    1.8800    9.9880   -1.0630 C   0  0  0  0  0  0  0  0  0  0  0  0
    0.5650   10.2380   -1.2060 C   0  0  0  0  0  0  0  0  0  0  0  0
   -0.0630   11.5120   -0.6270 C   0  0  1  0  0  0  0  0  0  0  0  0
   -1.3700   11.1510    0.1240 C   0  0  0  0  0  0  0  0  0  0  0  0
   -2.3460   10.3630   -0.7450 C   0  0  0  0  0  0  0  0  0  0  0  0
   -1.7050    9.0740   -1.2530 C   0  0  2  0  0  0  0  0  0  0  0  0
   -1.4710    8.2060   -0.1400 O   0  0  0  0  0  0  0  0  0  0  0  0
   -0.3740    9.3130   -2.0190 C   0  0  0  0  0  0  0  0  0  0  0  0
   -0.6710    9.9940   -3.3780 C   0  0  0  0  0  0  0  0  0  0  0  0
    0.2390    7.9260   -2.3540 C   0  0  0  0  0  0  0  0  0  0  0  0
    0.9050   12.4300    0.2370 C   0  0  1  0  0  0  0  0  0  0  0  0
    0.9110   11.9480    1.7200 C   0  0  0  0  0  0  0  0  0  0  0  0
    0.3420   13.9010    0.2510 C   0  0  0  0  0  0  0  0  0  0  0  0
    0.7850   14.8240   -0.9000 C   0  0  0  0  0  0  0  0  0  0  0  0
    2.3040   14.7800   -1.0860 C   0  0  2  0  0  0  0  0  0  0  0  0
    2.9630   15.3260    0.2270 C   0  0  0  0  0  0  0  0  0  0  0  0
    4.9955   17.8073   -1.7877 H   0  0  0  0  0  0  0  0  0  0  0  0
    4.8083   16.7870   -3.2542 H   0  0  0  0  0  0  0  0  0  0  0  0
    4.2049   18.4790   -3.2542 H   0  0  0  0  0  0  0  0  0  0  0  0
    2.2086   17.5774   -2.7413 H   0  0  0  0  0  0  0  0  0  0  0  0
    1.7381   17.9436   -0.5905 H   0  0  0  0  0  0  0  0  0  0  0  0
    2.8296   16.5756   -0.0610 H   0  0  0  0  0  0  0  0  0  0  0  0
    4.7648   18.0421   -0.1809 H   0  0  0  0  0  0  0  0  0  0  0  0
    3.7016   19.4069   -0.7236 H   0  0  0  0  0  0  0  0  0  0  0  0
    2.6074   18.1813    1.3305 H   0  0  0  0  0  0  0  0  0  0  0  0
    6.6221   19.0641    2.8783 H   0  0  0  0  0  0  0  0  0  0  0  0
    6.2076   18.1815    1.3697 H   0  0  0  0  0  0  0  0  0  0  0  0
    6.2782   19.9765    1.3697 H   0  0  0  0  0  0  0  0  0  0  0  0
    5.0831   19.3650    4.3839 H   0  0  0  0  0  0  0  0  0  0  0  0
    3.3415   19.6024    4.0137 H   0  0  0  0  0  0  0  0  0  0  0  0
    4.0424   17.9485    4.0137 H   0  0  0  0  0  0  0  0  0  0  0  0
    2.1949   15.5217   -3.1385 H   0  0  0  0  0  0  0  0  0  0  0  0
    4.4442   14.7649   -3.5850 H   0  0  0  0  0  0  0  0  0  0  0  0
    5.0765   15.5279   -2.1104 H   0  0  0  0  0  0  0  0  0  0  0  0
    4.5870   12.7345   -2.4558 H   0  0  0  0  0  0  0  0  0  0  0  0
    4.8447   13.5062   -0.8931 H   0  0  0  0  0  0  0  0  0  0  0  0
    1.2679   12.0932   -2.5650 H   0  0  0  0  0  0  0  0  0  0  0  0
    1.7038   13.6328   -3.3812 H   0  0  0  0  0  0  0  0  0  0  0  0
    2.8595   12.2577   -3.3812 H   0  0  0  0  0  0  0  0  0  0  0  0
    3.0281   12.7850    0.5370 H   0  0  0  0  0  0  0  0  0  0  0  0
    3.7742   10.9179   -1.0735 H   0  0  0  0  0  0  0  0  0  0  0  0
    3.0541   10.5240    0.5744 H   0  0  0  0  0  0  0  0  0  0  0  0
    2.2527    9.0229   -1.4368 H   0  0  0  0  0  0  0  0  0  0  0  0
   -0.2950   12.1554   -1.4885 H   0  0  0  0  0  0  0  0  0  0  0  0
   -1.1142   10.5448    1.0055 H   0  0  0  0  0  0  0  0  0  0  0  0
   -1.8621   12.0926    0.4090 H   0  0  0  0  0  0  0  0  0  0  0  0
   -3.2364   10.1121   -0.1498 H   0  0  0  0  0  0  0  0  0  0  0  0
   -2.6243   10.9819   -1.6107 H   0  0  0  0  0  0  0  0  0  0  0  0
   -2.4027    8.6188   -1.9714 H   0  0  0  0  0  0  0  0  0  0  0  0
   -2.2160    7.5830   -0.0920 H   0  0  0  0  0  0  0  0  0  0  0  0
   -1.1051   10.9893   -3.2022 H   0  0  0  0  0  0  0  0  0  0  0  0
    0.2638   10.0972   -3.9485 H   0  0  0  0  0  0  0  0  0  0  0  0
   -1.3827    9.3791   -3.9485 H   0  0  0  0  0  0  0  0  0  0  0  0
    0.4742    7.3939   -1.4204 H   0  0  0  0  0  0  0  0  0  0  0  0
   -0.4830    7.3378   -2.9394 H   0  0  0  0  0  0  0  0  0  0  0  0
    1.1600    8.0639   -2.9394 H   0  0  0  0  0  0  0  0  0  0  0  0
    0.9001   12.8209    2.3893 H   0  0  0  0  0  0  0  0  0  0  0  0
    0.0205   11.3304    1.9084 H   0  0  0  0  0  0  0  0  0  0  0  0
    1.8166   11.3527    1.9084 H   0  0  0  0  0  0  0  0  0  0  0  0
   -0.7558   13.8377    0.2233 H   0  0  0  0  0  0  0  0  0  0  0  0
    0.7539   14.3587    1.1625 H   0  0  0  0  0  0  0  0  0  0  0  0
    0.2991   14.4964   -1.8309 H   0  0  0  0  0  0  0  0  0  0  0  0
    0.4921   15.8554   -0.6542 H   0  0  0  0  0  0  0  0  0  0  0  0
    2.4481   14.8994    1.1005 H   0  0  0  0  0  0  0  0  0  0  0  0
    4.0247   15.0393    0.2510 H   0  0  0  0  0  0  0  0  0  0  0  0
    2.8787   16.4225    0.2510 H   0  0  0  0  0  0  0  0  0  0  0  0
  1  2  1  0
  2  3  1  0
  3  4  1  0
  4  5  1  0
  5  6  1  0
  6  7  1  0
  7  8  1  0
  7  9  1  0
  2 10  1  0
 10 11  1  0
 11 12  1  0
 12 13  1  0
 13 14  1  6
 13 15  1  0
 15 16  1  0
 16 17  1  0
 17 18  2  0
 18 19  1  0
 19 20  1  0
 20 21  1  0
 21 22  1  0
 22 23  1  0
 22 24  1  0
 24 25  1  0
 24 26  1  0
 19 27  1  0
 27 28  1  1
 27 29  1  0
 29 30  1  0
 30 31  1  0
 31 32  1  1
  7  5  1  0
 31 10  1  0
 31 13  1  0
 27 15  1  0
 24 18  1  0
  1 33  1  0
  1 34  1  0
  1 35  1  0
  2 36  1  6
  3 37  1  0
  3 38  1  0
  4 39  1  0
  4 40  1  0
  5 41  1  1
  8 42  1  0
  8 43  1  0
  8 44  1  0
  9 45  1  0
  9 46  1  0
  9 47  1  0
 10 48  1  6
 11 49  1  0
 11 50  1  0
 12 51  1  0
 12 52  1  0
 14 53  1  0
 14 54  1  0
 14 55  1  0
 15 56  1  1
 16 57  1  0
 16 58  1  0
 17 59  1  0
 19 60  1  6
 20 61  1  0
 20 62  1  0
 21 63  1  0
 21 64  1  0
 22 65  1  6
 23 66  1  0
 25 67  1  0
 25 68  1  0
 25 69  1  0
 26 70  1  0
 26 71  1  0
 26 72  1  0
 28 73  1  0
 28 74  1  0
 28 75  1  0
 29 76  1  0
 29 77  1  0
 30 78  1  0
 30 79  1  0
 32 80  1  0
 32 81  1  0
 32 82  1  0
M  END
>  <meeko>  (9) 
{"is_sidechain": [false], "intermolecular_energy": 2.731, "internal_energy": -0.839}

$$$$
EPH_relaxed_0001_pdb2pqr_Repair_168_r2_0001_out
     RDKit          3D

 82 86  0  0  0  0  0  0  0  0999 V2000
    2.1800   19.3130    0.0650 C   0  0  0  0  0  0  0  0  0  0  0  0
    2.8440   17.9630   -0.2200 C   0  0  2  0  0  0  0  0  0  0  0  0
    3.6590   17.9810   -1.5290 C   0  0  0  0  0  0  0  0  0  0  0  0
    5.1190   17.5580   -1.3510 C   0  0  0  0  0  0  0  0  0  0  0  0
    5.9330   17.8440   -2.5760 C   0  0  2  0  0  0  0  0  0  0  0  0
    5.2420   17.6360   -3.8150 O   0  0  0  0  0  0  0  0  0  0  0  0
    6.3640   16.7750   -3.5630 C   0  0  0  0  0  0  0  0  0  0  0  0
    5.9960   15.3380   -3.3660 C   0  0  0  0  0  0  0  0  0  0  0  0
    7.5440   17.0480   -4.4430 C   0  0  0  0  0  0  0  0  0  0  0  0
    1.7870   16.8660   -0.2790 C   0  0  1  0  0  0  0  0  0  0  0  0
    0.3890   17.4050   -0.6850 C   0  0  0  0  0  0  0  0  0  0  0  0
   -0.2870   16.2990   -1.5350 C   0  0  0  0  0  0  0  0  0  0  0  0
    0.5920   15.0460   -1.3150 C   0  0  1  0  0  0  0  0  0  0  0  0
    0.1200   14.4590    0.0520 C   0  0  0  0  0  0  0  0  0  0  0  0
    0.5560   13.9690   -2.4480 C   0  0  2  0  0  0  0  0  0  0  0  0
   -0.8170   13.3180   -2.6870 C   0  0  0  0  0  0  0  0  0  0  0  0
   -1.0850   12.0840   -1.8910 C   0  0  0  0  0  0  0  0  0  0  0  0
   -0.1600   11.3590   -1.2360 C   0  0  0  0  0  0  0  0  0  0  0  0
    1.3310   11.7090   -1.3370 C   0  0  1  0  0  0  0  0  0  0  0  0
    2.1490   10.4170   -1.5990 C   0  0  0  0  0  0  0  0  0  0  0  0
    1.8740    9.3300   -0.5650 C   0  0  0  0  0  0  0  0  0  0  0  0
    0.3910    8.9690   -0.5350 C   0  0  2  0  0  0  0  0  0  0  0  0
    0.0430    8.3470   -1.7750 O   0  0  0  0  0  0  0  0  0  0  0  0
   -0.5330   10.1940   -0.2870 C   0  0  0  0  0  0  0  0  0  0  0  0
   -0.3690   10.6840    1.1730 C   0  0  0  0  0  0  0  0  0  0  0  0
   -2.0050    9.7160   -0.4220 C   0  0  0  0  0  0  0  0  0  0  0  0
    1.7010   12.8810   -2.3450 C   0  0  1  0  0  0  0  0  0  0  0  0
    1.8990   12.3060   -3.7810 C   0  0  0  0  0  0  0  0  0  0  0  0
    3.0830   13.5050   -1.9220 C   0  0  0  0  0  0  0  0  0  0  0  0
    3.0430   14.6460   -0.8880 C   0  0  0  0  0  0  0  0  0  0  0  0
    2.0160   15.7110   -1.2850 C   0  0  2  0  0  0  0  0  0  0  0  0
    2.4770   16.3350   -2.6470 C   0  0  0  0  0  0  0  0  0  0  0  0
    2.1062   19.4631    1.1522 H   0  0  0  0  0  0  0  0  0  0  0  0
    2.7843   20.1193   -0.3762 H   0  0  0  0  0  0  0  0  0  0  0  0
    1.1725   19.3265   -0.3762 H   0  0  0  0  0  0  0  0  0  0  0  0
    3.5456   17.7593    0.6023 H   0  0  0  0  0  0  0  0  0  0  0  0
    3.1830   17.2936   -2.2438 H   0  0  0  0  0  0  0  0  0  0  0  0
    3.6672   19.0207   -1.8881 H   0  0  0  0  0  0  0  0  0  0  0  0
    5.5485   18.1088   -0.5012 H   0  0  0  0  0  0  0  0  0  0  0  0
    5.1417   16.4732   -1.1702 H   0  0  0  0  0  0  0  0  0  0  0  0
    6.4933   18.6305   -2.0491 H   0  0  0  0  0  0  0  0  0  0  0  0
    5.9397   15.1182   -2.2897 H   0  0  0  0  0  0  0  0  0  0  0  0
    5.0188   15.1426   -3.8318 H   0  0  0  0  0  0  0  0  0  0  0  0
    6.7590   14.6969   -3.8318 H   0  0  0  0  0  0  0  0  0  0  0  0
    8.4269   17.2523   -3.8195 H   0  0  0  0  0  0  0  0  0  0  0  0
    7.7385   16.1711   -5.0780 H   0  0  0  0  0  0  0  0  0  0  0  0
    7.3336   17.9212   -5.0780 H   0  0  0  0  0  0  0  0  0  0  0  0
    1.8571   16.4869    0.7512 H   0  0  0  0  0  0  0  0  0  0  0  0
   -0.2119   17.6135    0.2125 H   0  0  0  0  0  0  0  0  0  0  0  0
    0.4770   18.3422   -1.2541 H   0  0  0  0  0  0  0  0  0  0  0  0
   -1.3153   16.1175   -1.1892 H   0  0  0  0  0  0  0  0  0  0  0  0
   -0.3607   16.5756   -2.5971 H   0  0  0  0  0  0  0  0  0  0  0  0
    0.5783   15.0290    0.8736 H   0  0  0  0  0  0  0  0  0  0  0  0
   -0.9754   14.5300    0.1229 H   0  0  0  0  0  0  0  0  0  0  0  0
    0.4245   13.4044    0.1229 H   0  0  0  0  0  0  0  0  0  0  0  0
    0.7633   14.5672   -3.3475 H   0  0  0  0  0  0  0  0  0  0  0  0
   -1.5919   14.0580   -2.4381 H   0  0  0  0  0  0  0  0  0  0  0  0
   -0.8269   13.0075   -3.7422 H   0  0  0  0  0  0  0  0  0  0  0  0
   -2.1276   11.7379   -1.8352 H   0  0  0  0  0  0  0  0  0  0  0  0
    1.6104   12.1365   -0.3627 H   0  0  0  0  0  0  0  0  0  0  0  0
    1.8876   10.0302   -2.5950 H   0  0  0  0  0  0  0  0  0  0  0  0
    3.2155   10.6782   -1.5328 H   0  0  0  0  0  0  0  0  0  0  0  0
    2.4577    8.4335   -0.8210 H   0  0  0  0  0  0  0  0  0  0  0  0
    2.1639    9.7071    0.4268 H   0  0  0  0  0  0  0  0  0  0  0  0
    0.2355    8.2830    0.3108 H   0  0  0  0  0  0  0  0  0  0  0  0
   -0.8850    8.5660   -1.9650 H   0  0  0  0  0  0  0  0  0  0  0  0
   -0.6405    9.8729    1.8647 H   0  0  0  0  0  0  0  0  0  0  0  0
    0.6767   10.9785    1.3457 H   0  0  0  0  0  0  0  0  0  0  0  0
   -1.0267   11.5486    1.3457 H   0  0  0  0  0  0  0  0  0  0  0  0
   -2.4381    9.5753    0.5793 H   0  0  0  0  0  0  0  0  0  0  0  0
   -2.5870   10.4713   -0.9704 H   0  0  0  0  0  0  0  0  0  0  0  0
   -2.0322    8.7629   -0.9704 H   0  0  0  0  0  0  0  0  0  0  0  0
    2.2565   11.2679   -3.7142 H   0  0  0  0  0  0  0  0  0  0  0  0
    0.9409   12.3299   -4.3209 H   0  0  0  0  0  0  0  0  0  0  0  0
    2.6393   12.9147   -4.3209 H   0  0  0  0  0  0  0  0  0  0  0  0
    3.6984   12.6961   -1.5012 H   0  0  0  0  0  0  0  0  0  0  0  0
    3.4851   13.9614   -2.8385 H   0  0  0  0  0  0  0  0  0  0  0  0
    2.7706   14.2321    0.0941 H   0  0  0  0  0  0  0  0  0  0  0  0
    4.0367   15.1159   -0.8461 H   0  0  0  0  0  0  0  0  0  0  0  0
    3.1203   17.2058   -2.4523 H   0  0  0  0  0  0  0  0  0  0  0  0
    3.0395   15.5849   -3.2223 H   0  0  0  0  0  0  0  0  0  0  0  0
    1.5947   16.6523   -3.2223 H   0  0  0  0  0  0  0  0  0  0  0  0
  1  2  1  0
  2  3  1  0
  3  4  1  0
  4  5  1  0
  5  6  1  0
  6  7  1  0
  7  8  1  0
  7  9  1  0
  2 10  1  0
 10 11  1  0
 11 12  1  0
 12 13  1  0
 13 14  1  1
 13 15  1  0
 15 16  1  0
 16 17  1  0
 17 18  2  0
 18 19  1  0
 19 20  1  0
 20 21  1  0
 21 22  1  0
 22 23  1  0
 22 24  1  0
 24 25  1  0
 24 26  1  0
 19 27  1  0
 27 28  1  6
 27 29  1  0
 29 30  1  0
 30 31  1  0
 31 32  1  6
  7  5  1  0
 31 10  1  0
 31 13  1  0
 27 15  1  0
 24 18  1  0
  1 33  1  0
  1 34  1  0
  1 35  1  0
  2 36  1  1
  3 37  1  0
  3 38  1  0
  4 39  1  0
  4 40  1  0
  5 41  1  1
  8 42  1  0
  8 43  1  0
  8 44  1  0
  9 45  1  0
  9 46  1  0
  9 47  1  0
 10 48  1  1
 11 49  1  0
 11 50  1  0
 12 51  1  0
 12 52  1  0
 14 53  1  0
 14 54  1  0
 14 55  1  0
 15 56  1  6
 16 57  1  0
 16 58  1  0
 17 59  1  0
 19 60  1  1
 20 61  1  0
 20 62  1  0
 21 63  1  0
 21 64  1  0
 22 65  1  1
 23 66  1  0
 25 67  1  0
 25 68  1  0
 25 69  1  0
 26 70  1  0
 26 71  1  0
 26 72  1  0
 28 73  1  0
 28 74  1  0
 28 75  1  0
 29 76  1  0
 29 77  1  0
 30 78  1  0
 30 79  1  0
 32 80  1  0
 32 81  1  0
 32 82  1  0
M  END
>  <meeko>  (10) 
{"is_sidechain": [false], "intermolecular_energy": 2.731, "internal_energy": -0.839}

$$$$
EPH_relaxed_0001_pdb2pqr_Repair_168_r2_0001_out
     RDKit          3D

 82 86  0  0  0  0  0  0  0  0999 V2000
    4.9350   15.7900   -1.7000 C   0  0  0  0  0  0  0  0  0  0  0  0
    3.7270   16.6220   -1.2600 C   0  0  2  0  0  0  0  0  0  0  0  0
    4.0620   17.5530   -0.0790 C   0  0  0  0  0  0  0  0  0  0  0  0
    3.0500   18.6850    0.1190 C   0  0  0  0  0  0  0  0  0  0  0  0
    2.1510   18.8390   -1.0700 C   0  0  2  0  0  0  0  0  0  0  0  0
    1.9400   20.1940   -1.4890 O   0  0  0  0  0  0  0  0  0  0  0  0
    0.7830   19.4920   -1.0060 C   0  0  0  0  0  0  0  0  0  0  0  0
    0.2350   20.0310    0.2780 C   0  0  0  0  0  0  0  0  0  0  0  0
   -0.2150   19.1680   -2.0740 C   0  0  0  0  0  0  0  0  0  0  0  0
    2.5710   15.7010   -0.8860 C   0  0  1  0  0  0  0  0  0  0  0  0
    1.3110   16.4810   -0.4260 C   0  0  0  0  0  0  0  0  0  0  0  0
    0.0810   15.6750   -0.9190 C   0  0  0  0  0  0  0  0  0  0  0  0
    0.6590   14.3070   -1.3490 C   0  0  1  0  0  0  0  0  0  0  0  0
    0.8120   13.5010   -0.0220 C   0  0  0  0  0  0  0  0  0  0  0  0
   -0.1660   13.5130   -2.4140 C   0  0  2  0  0  0  0  0  0  0  0  0
   -1.5810   13.1020   -1.9700 C   0  0  0  0  0  0  0  0  0  0  0  0
   -1.6790   11.7670   -1.3100 C   0  0  0  0  0  0  0  0  0  0  0  0
   -0.7320   10.8100   -1.3340 C   0  0  0  0  0  0  0  0  0  0  0  0
    0.5470   10.9890   -2.1620 C   0  0  1  0  0  0  0  0  0  0  0  0
    0.8260    9.6950   -2.9710 C   0  0  0  0  0  0  0  0  0  0  0  0
    0.8720    8.4520   -2.0870 C   0  0  0  0  0  0  0  0  0  0  0  0
   -0.4390    8.2760   -1.3250 C   0  0  2  0  0  0  0  0  0  0  0  0
   -1.4810    7.9830   -2.2610 O   0  0  0  0  0  0  0  0  0  0  0  0
   -0.8290    9.5220   -0.4810 C   0  0  0  0  0  0  0  0  0  0  0  0
    0.1390    9.6600    0.7200 C   0  0  0  0  0  0  0  0  0  0  0  0
   -2.2360    9.2680    0.1230 C   0  0  0  0  0  0  0  0  0  0  0  0
    0.6120   12.2970   -3.0630 C   0  0  1  0  0  0  0  0  0  0  0  0
   -0.0570   12.0260   -4.4450 C   0  0  0  0  0  0  0  0  0  0  0  0
    2.1200   12.6420   -3.3590 C   0  0  0  0  0  0  0  0  0  0  0  0
    2.8460   13.5290   -2.3300 C   0  0  0  0  0  0  0  0  0  0  0  0
    2.0150   14.7710   -1.9940 C   0  0  2  0  0  0  0  0  0  0  0  0
    1.8630   15.6130   -3.3060 C   0  0  0  0  0  0  0  0  0  0  0  0
    5.4696   15.4218   -0.8120 H   0  0  0  0  0  0  0  0  0  0  0  0
    4.5921   14.9356   -2.3020 H   0  0  0  0  0  0  0  0  0  0  0  0
    5.6110   16.4150   -2.3020 H   0  0  0  0  0  0  0  0  0  0  0  0
    3.4364   17.2583   -2.1089 H   0  0  0  0  0  0  0  0  0  0  0  0
    4.0929   16.9501    0.8405 H   0  0  0  0  0  0  0  0  0  0  0  0
    5.0302   18.0235   -0.3053 H   0  0  0  0  0  0  0  0  0  0  0  0
    2.4356   18.4632    1.0041 H   0  0  0  0  0  0  0  0  0  0  0  0
    3.6074   19.6240    0.2513 H   0  0  0  0  0  0  0  0  0  0  0  0
    2.4904   17.8767   -1.4809 H   0  0  0  0  0  0  0  0  0  0  0  0
    0.7351   19.5391    1.1253 H   0  0  0  0  0  0  0  0  0  0  0  0
    0.4133   21.1154    0.3263 H   0  0  0  0  0  0  0  0  0  0  0  0
   -0.8463   19.8347    0.3263 H   0  0  0  0  0  0  0  0  0  0  0  0
   -1.1630   18.8602   -1.6087 H   0  0  0  0  0  0  0  0  0  0  0  0
   -0.3849   20.0571   -2.6990 H   0  0  0  0  0  0  0  0  0  0  0  0
    0.1697   18.3486   -2.6990 H   0  0  0  0  0  0  0  0  0  0  0  0
    3.0582   15.1026   -0.1021 H   0  0  0  0  0  0  0  0  0  0  0  0
    1.2955   16.5626    0.6709 H   0  0  0  0  0  0  0  0  0  0  0  0
    1.3057   17.5010   -0.8378 H   0  0  0  0  0  0  0  0  0  0  0  0
   -0.6517   15.5496   -0.1081 H   0  0  0  0  0  0  0  0  0  0  0  0
   -0.4481   16.1812   -1.7398 H   0  0  0  0  0  0  0  0  0  0  0  0
    0.6834   14.1782    0.8352 H   0  0  0  0  0  0  0  0  0  0  0  0
    0.0478   12.7107    0.0172 H   0  0  0  0  0  0  0  0  0  0  0  0
    1.8126   13.0457    0.0172 H   0  0  0  0  0  0  0  0  0  0  0  0
   -0.3074   14.2614   -3.2077 H   0  0  0  0  0  0  0  0  0  0  0  0
   -1.9484   13.8592   -1.2617 H   0  0  0  0  0  0  0  0  0  0  0  0
   -2.1803   13.0317   -2.8897 H   0  0  0  0  0  0  0  0  0  0  0  0
   -2.6037   11.5460   -0.7568 H   0  0  0  0  0  0  0  0  0  0  0  0
    1.3570   11.1581   -1.4372 H   0  0  0  0  0  0  0  0  0  0  0  0
    0.0289    9.5673   -3.7182 H   0  0  0  0  0  0  0  0  0  0  0  0
    1.8120    9.8039   -3.4463 H   0  0  0  0  0  0  0  0  0  0  0  0
    1.0432    7.5675   -2.7181 H   0  0  0  0  0  0  0  0  0  0  0  0
    1.6884    8.5687   -1.3591 H   0  0  0  0  0  0  0  0  0  0  0  0
   -0.2991    7.4476   -0.6149 H   0  0  0  0  0  0  0  0  0  0  0  0
   -2.0940    7.3610   -1.8340 H   0  0  0  0  0  0  0  0  0  0  0  0
   -0.4280    9.5792    1.6591 H   0  0  0  0  0  0  0  0  0  0  0  0
    0.8930    8.8603    0.6770 H   0  0  0  0  0  0  0  0  0  0  0  0
    0.6395   10.6386    0.6770 H   0  0  0  0  0  0  0  0  0  0  0  0
   -2.1712    9.2797    1.2210 H   0  0  0  0  0  0  0  0  0  0  0  0
   -2.9265   10.0560   -0.2120 H   0  0  0  0  0  0  0  0  0  0  0  0
   -2.6074    8.2883   -0.2120 H   0  0  0  0  0  0  0  0  0  0  0  0
   -1.0663   11.6171   -4.2899 H   0  0  0  0  0  0  0  0  0  0  0  0
   -0.1255   12.9673   -5.0101 H   0  0  0  0  0  0  0  0  0  0  0  0
    0.5489   11.3024   -5.0101 H   0  0  0  0  0  0  0  0  0  0  0  0
    2.6711   11.6925   -3.4271 H   0  0  0  0  0  0  0  0  0  0  0  0
    2.1026   13.2334   -4.2863 H   0  0  0  0  0  0  0  0  0  0  0  0
    3.0146   12.9493   -1.4105 H   0  0  0  0  0  0  0  0  0  0  0  0
    3.8043   13.8542   -2.7612 H   0  0  0  0  0  0  0  0  0  0  0  0
    1.6731   16.6650   -3.0466 H   0  0  0  0  0  0  0  0  0  0  0  0
    2.7884   15.5422   -3.8964 H   0  0  0  0  0  0  0  0  0  0  0  0
    1.0207   15.2231   -3.8964 H   0  0  0  0  0  0  0  0  0  0  0  0
  1  2  1  0
  2  3  1  0
  3  4  1  0
  4  5  1  0
  5  6  1  0
  6  7  1  0
  7  8  1  0
  7  9  1  0
  2 10  1  0
 10 11  1  0
 11 12  1  0
 12 13  1  0
 13 14  1  1
 13 15  1  0
 15 16  1  0
 16 17  1  0
 17 18  2  0
 18 19  1  0
 19 20  1  0
 20 21  1  0
 21 22  1  0
 22 23  1  0
 22 24  1  0
 24 25  1  0
 24 26  1  0
 19 27  1  0
 27 28  1  6
 27 29  1  0
 29 30  1  0
 30 31  1  0
 31 32  1  6
  7  5  1  0
 31 10  1  0
 31 13  1  0
 27 15  1  0
 24 18  1  0
  1 33  1  0
  1 34  1  0
  1 35  1  0
  2 36  1  6
  3 37  1  0
  3 38  1  0
  4 39  1  0
  4 40  1  0
  5 41  1  6
  8 42  1  0
  8 43  1  0
  8 44  1  0
  9 45  1  0
  9 46  1  0
  9 47  1  0
 10 48  1  1
 11 49  1  0
 11 50  1  0
 12 51  1  0
 12 52  1  0
 14 53  1  0
 14 54  1  0
 14 55  1  0
 15 56  1  6
 16 57  1  0
 16 58  1  0
 17 59  1  0
 19 60  1  1
 20 61  1  0
 20 62  1  0
 21 63  1  0
 21 64  1  0
 22 65  1  1
 23 66  1  0
 25 67  1  0
 25 68  1  0
 25 69  1  0
 26 70  1  0
 26 71  1  0
 26 72  1  0
 28 73  1  0
 28 74  1  0
 28 75  1  0
 29 76  1  0
 29 77  1  0
 30 78  1  0
 30 79  1  0
 32 80  1  0
 32 81  1  0
 32 82  1  0
M  END
>  <meeko>  (11) 
{"is_sidechain": [false], "intermolecular_energy": 2.731, "internal_energy": -0.839}

$$$$
EPH_relaxed_0001_pdb2pqr_Repair_168_r2_0001_out
     RDKit          3D

 82 86  0  0  0  0  0  0  0  0999 V2000
    0.4480    8.9690   -2.5280 C   0  0  0  0  0  0  0  0  0  0  0  0
    1.2230   10.1330   -3.1520 C   0  0  2  0  0  0  0  0  0  0  0  0
    2.7130   10.1180   -2.7570 C   0  0  0  0  0  0  0  0  0  0  0  0
    3.6520   10.5750   -3.8760 C   0  0  0  0  0  0  0  0  0  0  0  0
    5.0340   10.8480   -3.3640 C   0  0  2  0  0  0  0  0  0  0  0  0
    5.6210   12.0640   -3.8450 O   0  0  0  0  0  0  0  0  0  0  0  0
    6.2690   10.8450   -4.2460 C   0  0  0  0  0  0  0  0  0  0  0  0
    6.1790   10.5630   -5.7130 C   0  0  0  0  0  0  0  0  0  0  0  0
    7.6050   10.6340   -3.6060 C   0  0  0  0  0  0  0  0  0  0  0  0
    0.5900   11.4580   -2.7440 C   0  0  1  0  0  0  0  0  0  0  0  0
   -0.6620   11.2700   -1.8460 C   0  0  0  0  0  0  0  0  0  0  0  0
   -0.6710   12.4480   -0.8380 C   0  0  0  0  0  0  0  0  0  0  0  0
    0.3730   13.4450   -1.3940 C   0  0  1  0  0  0  0  0  0  0  0  0
   -0.3800   14.2310   -2.5130 C   0  0  0  0  0  0  0  0  0  0  0  0
    1.0310   14.4090   -0.3540 C   0  0  2  0  0  0  0  0  0  0  0  0
    0.0580   15.3720    0.3480 C   0  0  0  0  0  0  0  0  0  0  0  0
   -0.1360   16.6890   -0.3290 C   0  0  0  0  0  0  0  0  0  0  0  0
    0.6540   17.1960   -1.2930 C   0  0  0  0  0  0  0  0  0  0  0  0
    1.9320   16.4670   -1.7290 C   0  0  1  0  0  0  0  0  0  0  0  0
    3.1030   17.4820   -1.8150 C   0  0  0  0  0  0  0  0  0  0  0  0
    2.7780   18.6750   -2.7080 C   0  0  0  0  0  0  0  0  0  0  0  0
    1.5350   19.4080   -2.2090 C   0  0  2  0  0  0  0  0  0  0  0  0
    1.8310   20.0070   -0.9440 O   0  0  0  0  0  0  0  0  0  0  0  0
    0.2930   18.4840   -2.0730 C   0  0  0  0  0  0  0  0  0  0  0  0
   -0.2090   18.0760   -3.4800 C   0  0  0  0  0  0  0  0  0  0  0  0
   -0.8500   19.3140   -1.4280 C   0  0  0  0  0  0  0  0  0  0  0  0
    2.3090   15.1690   -0.8930 C   0  0  1  0  0  0  0  0  0  0  0  0
    3.1510   15.5680    0.3580 C   0  0  0  0  0  0  0  0  0  0  0  0
    3.2310   14.2430   -1.7710 C   0  0  0  0  0  0  0  0  0  0  0  0
    2.5230   13.2290   -2.6900 C   0  0  0  0  0  0  0  0  0  0  0  0
    1.4610   12.4390   -1.9200 C   0  0  2  0  0  0  0  0  0  0  0  0
    2.1910   11.6200   -0.8010 C   0  0  0  0  0  0  0  0  0  0  0  0
    0.4966    9.0421   -1.4315 H   0  0  0  0  0  0  0  0  0  0  0  0
   -0.6023    9.0122   -2.8521 H   0  0  0  0  0  0  0  0  0  0  0  0
    0.8929    8.0166   -2.8521 H   0  0  0  0  0  0  0  0  0  0  0  0
    1.1701   10.0163   -4.2445 H   0  0  0  0  0  0  0  0  0  0  0  0
    2.8501   10.7865   -1.8942 H   0  0  0  0  0  0  0  0  0  0  0  0
    2.9732    9.0745   -2.5258 H   0  0  0  0  0  0  0  0  0  0  0  0
    3.7048    9.7865   -4.6412 H   0  0  0  0  0  0  0  0  0  0  0  0
    3.2525   11.5087   -4.2985 H   0  0  0  0  0  0  0  0  0  0  0  0
    4.8061   10.3456   -2.4123 H   0  0  0  0  0  0  0  0  0  0  0  0
    5.8479    9.5254   -5.8673 H   0  0  0  0  0  0  0  0  0  0  0  0
    5.4559   11.2512   -6.1750 H   0  0  0  0  0  0  0  0  0  0  0  0
    7.1671   10.7051   -6.1750 H   0  0  0  0  0  0  0  0  0  0  0  0
    7.4942   10.6515   -2.5117 H   0  0  0  0  0  0  0  0  0  0  0  0
    8.0113    9.6605   -3.9179 H   0  0  0  0  0  0  0  0  0  0  0  0
    8.2916   11.4348   -3.9179 H   0  0  0  0  0  0  0  0  0  0  0  0
    0.3880   11.8800   -3.7395 H   0  0  0  0  0  0  0  0  0  0  0  0
   -1.5747   11.2897   -2.4597 H   0  0  0  0  0  0  0  0  0  0  0  0
   -0.6309   10.3029   -1.3228 H   0  0  0  0  0  0  0  0  0  0  0  0
   -1.6668   12.9132   -0.7931 H   0  0  0  0  0  0  0  0  0  0  0  0
   -0.4337   12.1230    0.1857 H   0  0  0  0  0  0  0  0  0  0  0  0
   -1.0711   14.9524   -2.0527 H   0  0  0  0  0  0  0  0  0  0  0  0
    0.3488   14.7685   -3.1374 H   0  0  0  0  0  0  0  0  0  0  0  0
   -0.9483   13.5259   -3.1374 H   0  0  0  0  0  0  0  0  0  0  0  0
    1.3787   13.7148    0.4252 H   0  0  0  0  0  0  0  0  0  0  0  0
   -0.9218   14.8765    0.4145 H   0  0  0  0  0  0  0  0  0  0  0  0
    0.5057   15.5964    1.3274 H   0  0  0  0  0  0  0  0  0  0  0  0
   -0.9974   17.2957   -0.0129 H   0  0  0  0  0  0  0  0  0  0  0  0
    1.7220   16.0541   -2.7267 H   0  0  0  0  0  0  0  0  0  0  0  0
    3.3261   17.8497   -0.8026 H   0  0  0  0  0  0  0  0  0  0  0  0
    3.9656   16.9604   -2.2552 H   0  0  0  0  0  0  0  0  0  0  0  0
    3.6309   19.3696   -2.7051 H   0  0  0  0  0  0  0  0  0  0  0  0
    2.5838   18.3082   -3.7267 H   0  0  0  0  0  0  0  0  0  0  0  0
    1.2772   20.1705   -2.9587 H   0  0  0  0  0  0  0  0  0  0  0  0
    2.6300   20.5500   -1.0540 H   0  0  0  0  0  0  0  0  0  0  0  0
   -1.0591   17.3851   -3.3799 H   0  0  0  0  0  0  0  0  0  0  0  0
   -0.5287   18.9735   -4.0298 H   0  0  0  0  0  0  0  0  0  0  0  0
    0.6042   17.5796   -4.0298 H   0  0  0  0  0  0  0  0  0  0  0  0
   -0.7713   19.2569   -0.3323 H   0  0  0  0  0  0  0  0  0  0  0  0
   -0.7664   20.3633   -1.7474 H   0  0  0  0  0  0  0  0  0  0  0  0
   -1.8219   18.9098   -1.7474 H   0  0  0  0  0  0  0  0  0  0  0  0
    2.5973   15.3056    1.2715 H   0  0  0  0  0  0  0  0  0  0  0  0
    4.1093   15.0282    0.3423 H   0  0  0  0  0  0  0  0  0  0  0  0
    3.3401   16.6515    0.3423 H   0  0  0  0  0  0  0  0  0  0  0  0
    3.8479   14.8946   -2.4072 H   0  0  0  0  0  0  0  0  0  0  0  0
    3.7962   13.6332   -1.0508 H   0  0  0  0  0  0  0  0  0  0  0  0
    2.0398   13.7695   -3.5173 H   0  0  0  0  0  0  0  0  0  0  0  0
    3.2729   12.5233   -3.0768 H   0  0  0  0  0  0  0  0  0  0  0  0
    1.8691   11.9812    0.1869 H   0  0  0  0  0  0  0  0  0  0  0  0
    1.9377   10.5544   -0.9022 H   0  0  0  0  0  0  0  0  0  0  0  0
    3.2786   11.7496   -0.9022 H   0  0  0  0  0  0  0  0  0  0  0  0
  1  2  1  0
  2  3  1  0
  3  4  1  0
  4  5  1  0
  5  6  1  0
  6  7  1  0
  7  8  1  0
  7  9  1  0
  2 10  1  0
 10 11  1  0
 11 12  1  0
 12 13  1  0
 13 14  1  6
 13 15  1  0
 15 16  1  0
 16 17  1  0
 17 18  2  0
 18 19  1  0
 19 20  1  0
 20 21  1  0
 21 22  1  0
 22 23  1  0
 22 24  1  0
 24 25  1  0
 24 26  1  0
 19 27  1  0
 27 28  1  1
 27 29  1  0
 29 30  1  0
 30 31  1  0
 31 32  1  1
  7  5  1  0
 31 10  1  0
 31 13  1  0
 27 15  1  0
 24 18  1  0
  1 33  1  0
  1 34  1  0
  1 35  1  0
  2 36  1  6
  3 37  1  0
  3 38  1  0
  4 39  1  0
  4 40  1  0
  5 41  1  1
  8 42  1  0
  8 43  1  0
  8 44  1  0
  9 45  1  0
  9 46  1  0
  9 47  1  0
 10 48  1  6
 11 49  1  0
 11 50  1  0
 12 51  1  0
 12 52  1  0
 14 53  1  0
 14 54  1  0
 14 55  1  0
 15 56  1  1
 16 57  1  0
 16 58  1  0
 17 59  1  0
 19 60  1  6
 20 61  1  0
 20 62  1  0
 21 63  1  0
 21 64  1  0
 22 65  1  6
 23 66  1  0
 25 67  1  0
 25 68  1  0
 25 69  1  0
 26 70  1  0
 26 71  1  0
 26 72  1  0
 28 73  1  0
 28 74  1  0
 28 75  1  0
 29 76  1  0
 29 77  1  0
 30 78  1  0
 30 79  1  0
 32 80  1  0
 32 81  1  0
 32 82  1  0
M  END
>  <meeko>  (12) 
{"is_sidechain": [false], "intermolecular_energy": 2.731, "internal_energy": -0.839}

$$$$
EPH_relaxed_0001_pdb2pqr_Repair_168_r2_0001_out
     RDKit          3D

 82 86  0  0  0  0  0  0  0  0999 V2000
    0.9010    8.7270   -0.2270 C   0  0  0  0  0  0  0  0  0  0  0  0
   -0.1500    9.4610   -1.0640 C   0  0  2  0  0  0  0  0  0  0  0  0
   -0.8260    8.5330   -2.0920 C   0  0  0  0  0  0  0  0  0  0  0  0
   -2.3430    8.4170   -1.9130 C   0  0  0  0  0  0  0  0  0  0  0  0
   -2.8990    7.2340   -2.6460 C   0  0  2  0  0  0  0  0  0  0  0  0
   -3.9350    7.5440   -3.5860 O   0  0  0  0  0  0  0  0  0  0  0  0
   -4.3190    6.7300   -2.4660 C   0  0  0  0  0  0  0  0  0  0  0  0
   -5.2710    7.4000   -1.5250 C   0  0  0  0  0  0  0  0  0  0  0  0
   -4.6260    5.3110   -2.8290 C   0  0  0  0  0  0  0  0  0  0  0  0
    0.4880   10.6490   -1.7750 C   0  0  1  0  0  0  0  0  0  0  0  0
    0.1510   10.6900   -3.2890 C   0  0  0  0  0  0  0  0  0  0  0  0
    0.0320   12.1850   -3.6800 C   0  0  0  0  0  0  0  0  0  0  0  0
    0.6250   12.9520   -2.4750 C   0  0  1  0  0  0  0  0  0  0  0  0
    2.1710   12.8910   -2.6820 C   0  0  0  0  0  0  0  0  0  0  0  0
    0.1270   14.4210   -2.2780 C   0  0  2  0  0  0  0  0  0  0  0  0
    0.4660   15.3850   -3.4280 C   0  0  0  0  0  0  0  0  0  0  0  0
    1.7670   16.1060   -3.2930 C   0  0  0  0  0  0  0  0  0  0  0  0
    2.4940   16.2040   -2.1650 C   0  0  0  0  0  0  0  0  0  0  0  0
    1.9710   15.6340   -0.8390 C   0  0  1  0  0  0  0  0  0  0  0  0
    2.1720   16.6790    0.2890 C   0  0  0  0  0  0  0  0  0  0  0  0
    3.6160   17.1610    0.3900 C   0  0  0  0  0  0  0  0  0  0  0  0
    4.0800   17.7740   -0.9290 C   0  0  2  0  0  0  0  0  0  0  0  0
    3.3420   18.9770   -1.1630 O   0  0  0  0  0  0  0  0  0  0  0  0
    3.9160   16.8150   -2.1410 C   0  0  0  0  0  0  0  0  0  0  0  0
    4.9400   15.6580   -2.0320 C   0  0  0  0  0  0  0  0  0  0  0  0
    4.2870   17.6030   -3.4270 C   0  0  0  0  0  0  0  0  0  0  0  0
    0.4950   15.0470   -0.8720 C   0  0  1  0  0  0  0  0  0  0  0  0
   -0.5370   16.1860   -0.6080 C   0  0  0  0  0  0  0  0  0  0  0  0
    0.3270   14.0140    0.3050 C   0  0  0  0  0  0  0  0  0  0  0  0
    0.7240   12.5550    0.0110 C   0  0  0  0  0  0  0  0  0  0  0  0
    0.0870   12.0660   -1.2940 C   0  0  2  0  0  0  0  0  0  0  0  0
   -1.4680   12.0950   -1.1080 C   0  0  0  0  0  0  0  0  0  0  0  0
    0.6879    8.8759    0.8418 H   0  0  0  0  0  0  0  0  0  0  0  0
    0.8709    7.6525   -0.4607 H   0  0  0  0  0  0  0  0  0  0  0  0
    1.8994    9.1252   -0.4607 H   0  0  0  0  0  0  0  0  0  0  0  0
   -0.9315    9.8155   -0.3758 H   0  0  0  0  0  0  0  0  0  0  0  0
   -0.6242    8.9255   -3.0996 H   0  0  0  0  0  0  0  0  0  0  0  0
   -0.4068    7.5272   -1.9416 H   0  0  0  0  0  0  0  0  0  0  0  0
   -2.5684    8.3106   -0.8416 H   0  0  0  0  0  0  0  0  0  0  0  0
   -2.8073    9.3250   -2.3254 H   0  0  0  0  0  0  0  0  0  0  0  0
   -1.9248    6.7244   -2.6094 H   0  0  0  0  0  0  0  0  0  0  0  0
   -4.9710    7.1889   -0.4880 H   0  0  0  0  0  0  0  0  0  0  0  0
   -5.2539    8.4862   -1.6978 H   0  0  0  0  0  0  0  0  0  0  0  0
   -6.2877    7.0172   -1.6978 H   0  0  0  0  0  0  0  0  0  0  0  0
   -4.7544    4.7175   -1.9118 H   0  0  0  0  0  0  0  0  0  0  0  0
   -5.5525    5.2762   -3.4210 H   0  0  0  0  0  0  0  0  0  0  0  0
   -3.7968    4.8963   -3.4210 H   0  0  0  0  0  0  0  0  0  0  0  0
    1.5454   10.4578   -1.5399 H   0  0  0  0  0  0  0  0  0  0  0  0
    0.9529   10.2095   -3.8687 H   0  0  0  0  0  0  0  0  0  0  0  0
   -0.7842   10.1507   -3.5003 H   0  0  0  0  0  0  0  0  0  0  0  0
    0.6067   12.3942   -4.5943 H   0  0  0  0  0  0  0  0  0  0  0  0
   -1.0065   12.4794   -3.8916 H   0  0  0  0  0  0  0  0  0  0  0  0
    2.6716   12.8712   -1.7027 H   0  0  0  0  0  0  0  0  0  0  0  0
    2.4300   11.9819   -3.2446 H   0  0  0  0  0  0  0  0  0  0  0  0
    2.5008   13.7768   -3.2446 H   0  0  0  0  0  0  0  0  0  0  0  0
   -0.9665   14.3038   -2.2992 H   0  0  0  0  0  0  0  0  0  0  0  0
    0.4947   14.8038   -4.3615 H   0  0  0  0  0  0  0  0  0  0  0  0
   -0.3144   16.1601   -3.4156 H   0  0  0  0  0  0  0  0  0  0  0  0
    2.1648   16.5989   -4.1924 H   0  0  0  0  0  0  0  0  0  0  0  0
    2.5777   14.7403   -0.6312 H   0  0  0  0  0  0  0  0  0  0  0  0
    1.5246   17.5450    0.0867 H   0  0  0  0  0  0  0  0  0  0  0  0
    1.9144   16.1946    1.2424 H   0  0  0  0  0  0  0  0  0  0  0  0
    3.6879   17.9187    1.1842 H   0  0  0  0  0  0  0  0  0  0  0  0
    4.2586   16.2988    0.6218 H   0  0  0  0  0  0  0  0  0  0  0  0
    5.1565   17.9807   -0.8366 H   0  0  0  0  0  0  0  0  0  0  0  0
    3.8380   19.5050   -1.8110 H   0  0  0  0  0  0  0  0  0  0  0  0
    5.1340   15.4388   -0.9717 H   0  0  0  0  0  0  0  0  0  0  0  0
    4.5340   14.7615   -2.5235 H   0  0  0  0  0  0  0  0  0  0  0  0
    5.8792   15.9520   -2.5235 H   0  0  0  0  0  0  0  0  0  0  0  0
    4.7404   18.5659   -3.1490 H   0  0  0  0  0  0  0  0  0  0  0  0
    5.0043   17.0180   -4.0214 H   0  0  0  0  0  0  0  0  0  0  0  0
    3.3791   17.7832   -4.0214 H   0  0  0  0  0  0  0  0  0  0  0  0
   -0.6618   16.3237    0.4762 H   0  0  0  0  0  0  0  0  0  0  0  0
   -0.1730   17.1219   -1.0570 H   0  0  0  0  0  0  0  0  0  0  0  0
   -1.5042   15.9158   -1.0570 H   0  0  0  0  0  0  0  0  0  0  0  0
    0.9444   14.3639    1.1454 H   0  0  0  0  0  0  0  0  0  0  0  0
   -0.7536   13.9827    0.5083 H   0  0  0  0  0  0  0  0  0  0  0  0
    1.8186   12.4905   -0.0765 H   0  0  0  0  0  0  0  0  0  0  0  0
    0.3658   11.9209    0.8354 H   0  0  0  0  0  0  0  0  0  0  0  0
   -1.7089   12.0995   -0.0347 H   0  0  0  0  0  0  0  0  0  0  0  0
   -1.8768   13.0009   -1.5793 H   0  0  0  0  0  0  0  0  0  0  0  0
   -1.9103   11.2049   -1.5793 H   0  0  0  0  0  0  0  0  0  0  0  0
  1  2  1  0
  2  3  1  0
  3  4  1  0
  4  5  1  0
  5  6  1  0
  6  7  1  0
  7  8  1  0
  7  9  1  0
  2 10  1  0
 10 11  1  0
 11 12  1  0
 12 13  1  0
 13 14  1  6
 13 15  1  0
 15 16  1  0
 16 17  1  0
 17 18  2  0
 18 19  1  0
 19 20  1  0
 20 21  1  0
 21 22  1  0
 22 23  1  0
 22 24  1  0
 24 25  1  0
 24 26  1  0
 19 27  1  0
 27 28  1  1
 27 29  1  0
 29 30  1  0
 30 31  1  0
 31 32  1  1
  7  5  1  0
 31 10  1  0
 31 13  1  0
 27 15  1  0
 24 18  1  0
  1 33  1  0
  1 34  1  0
  1 35  1  0
  2 36  1  1
  3 37  1  0
  3 38  1  0
  4 39  1  0
  4 40  1  0
  5 41  1  6
  8 42  1  0
  8 43  1  0
  8 44  1  0
  9 45  1  0
  9 46  1  0
  9 47  1  0
 10 48  1  6
 11 49  1  0
 11 50  1  0
 12 51  1  0
 12 52  1  0
 14 53  1  0
 14 54  1  0
 14 55  1  0
 15 56  1  1
 16 57  1  0
 16 58  1  0
 17 59  1  0
 19 60  1  1
 20 61  1  0
 20 62  1  0
 21 63  1  0
 21 64  1  0
 22 65  1  1
 23 66  1  0
 25 67  1  0
 25 68  1  0
 25 69  1  0
 26 70  1  0
 26 71  1  0
 26 72  1  0
 28 73  1  0
 28 74  1  0
 28 75  1  0
 29 76  1  0
 29 77  1  0
 30 78  1  0
 30 79  1  0
 32 80  1  0
 32 81  1  0
 32 82  1  0
M  END
>  <meeko>  (13) 
{"is_sidechain": [false], "intermolecular_energy": 2.731, "internal_energy": -0.839}

$$$$
EPH_relaxed_0001_pdb2pqr_Repair_168_r2_0001_out
     RDKit          3D

 82 86  0  0  0  0  0  0  0  0999 V2000
   -5.1050    5.9600   -1.7570 C   0  0  0  0  0  0  0  0  0  0  0  0
   -5.4390    7.4540   -1.7860 C   0  0  2  0  0  0  0  0  0  0  0  0
   -5.2250    8.1230   -0.4130 C   0  0  0  0  0  0  0  0  0  0  0  0
   -4.1480    9.2110   -0.4200 C   0  0  0  0  0  0  0  0  0  0  0  0
   -2.8080    8.6620   -0.8040 C   0  0  2  0  0  0  0  0  0  0  0  0
   -1.7570    8.9400    0.1310 O   0  0  0  0  0  0  0  0  0  0  0  0
   -1.6210    9.5340   -1.1710 C   0  0  0  0  0  0  0  0  0  0  0  0
   -1.7200   11.0270   -1.1710 C   0  0  0  0  0  0  0  0  0  0  0  0
   -0.5220    8.9370   -1.9940 C   0  0  0  0  0  0  0  0  0  0  0  0
   -6.8770    7.6560   -2.2460 C   0  0  1  0  0  0  0  0  0  0  0  0
   -7.1770    6.9530   -3.5960 C   0  0  0  0  0  0  0  0  0  0  0  0
   -8.6440    6.4560   -3.5260 C   0  0  0  0  0  0  0  0  0  0  0  0
   -9.2390    7.1720   -2.2900 C   0  0  1  0  0  0  0  0  0  0  0  0
   -9.6140    8.6000   -2.7960 C   0  0  0  0  0  0  0  0  0  0  0  0
  -10.4530    6.4660   -1.6010 C   0  0  2  0  0  0  0  0  0  0  0  0
  -11.7070    6.3190   -2.4800 C   0  0  0  0  0  0  0  0  0  0  0  0
  -12.6790    7.4490   -2.4000 C   0  0  0  0  0  0  0  0  0  0  0  0
  -12.6950    8.4010   -1.4470 C   0  0  0  0  0  0  0  0  0  0  0  0
  -11.7260    8.3420   -0.2590 C   0  0  1  0  0  0  0  0  0  0  0  0
  -12.5030    8.6120    1.0560 C   0  0  0  0  0  0  0  0  0  0  0  0
  -13.2930    9.9160    1.0110 C   0  0  0  0  0  0  0  0  0  0  0  0
  -14.2860    9.9130   -0.1480 C   0  0  2  0  0  0  0  0  0  0  0  0
  -15.2870    8.9230    0.1060 O   0  0  0  0  0  0  0  0  0  0  0  0
  -13.6190    9.6400   -1.5250 C   0  0  0  0  0  0  0  0  0  0  0  0
  -12.7610   10.8620   -1.9380 C   0  0  0  0  0  0  0  0  0  0  0  0
  -14.7460    9.5230   -2.5860 C   0  0  0  0  0  0  0  0  0  0  0  0
  -10.8120    7.0440   -0.1730 C   0  0  1  0  0  0  0  0  0  0  0  0
  -11.5670    5.9120    0.5880 C   0  0  0  0  0  0  0  0  0  0  0  0
   -9.5300    7.3740    0.6800 C   0  0  0  0  0  0  0  0  0  0  0  0
   -8.3230    7.9570   -0.0790 C   0  0  0  0  0  0  0  0  0  0  0  0
   -8.0010    7.1230   -1.3230 C   0  0  2  0  0  0  0  0  0  0  0  0
   -7.5990    5.6870   -0.8440 C   0  0  0  0  0  0  0  0  0  0  0  0
   -5.0293    5.6214   -0.7132 H   0  0  0  0  0  0  0  0  0  0  0  0
   -5.8994    5.3967   -2.2685 H   0  0  0  0  0  0  0  0  0  0  0  0
   -4.1464    5.7886   -2.2685 H   0  0  0  0  0  0  0  0  0  0  0  0
   -4.7509    7.9337   -2.4976 H   0  0  0  0  0  0  0  0  0  0  0  0
   -6.1754    8.5771   -0.0960 H   0  0  0  0  0  0  0  0  0  0  0  0
   -4.8842    7.3377    0.2777 H   0  0  0  0  0  0  0  0  0  0  0  0
   -4.4337    9.9908   -1.1413 H   0  0  0  0  0  0  0  0  0  0  0  0
   -4.0709    9.6236    0.5968 H   0  0  0  0  0  0  0  0  0  0  0  0
   -3.2771    7.8041   -1.3079 H   0  0  0  0  0  0  0  0  0  0  0  0
   -1.7443   11.3929   -0.1339 H   0  0  0  0  0  0  0  0  0  0  0  0
   -0.8481   11.4523   -1.6895 H   0  0  0  0  0  0  0  0  0  0  0  0
   -2.6404   11.3334   -1.6895 H   0  0  0  0  0  0  0  0  0  0  0  0
    0.2481    8.5187   -1.3292 H   0  0  0  0  0  0  0  0  0  0  0  0
   -0.9320    8.1376   -2.6287 H   0  0  0  0  0  0  0  0  0  0  0  0
   -0.0746    9.7161   -2.6287 H   0  0  0  0  0  0  0  0  0  0  0  0
   -6.9066    8.7551   -2.2787 H   0  0  0  0  0  0  0  0  0  0  0  0
   -7.0570    7.6630   -4.4276 H   0  0  0  0  0  0  0  0  0  0  0  0
   -6.4844    6.1158   -3.7675 H   0  0  0  0  0  0  0  0  0  0  0  0
   -9.1925    6.7346   -4.4379 H   0  0  0  0  0  0  0  0  0  0  0  0
   -8.7105    5.3609   -3.4464 H   0  0  0  0  0  0  0  0  0  0  0  0
   -9.7875    9.2607   -1.9338 H   0  0  0  0  0  0  0  0  0  0  0  0
   -8.7907    9.0010   -3.4054 H   0  0  0  0  0  0  0  0  0  0  0  0
  -10.5281    8.5448   -3.4054 H   0  0  0  0  0  0  0  0  0  0  0  0
  -10.0761    5.4442   -1.4465 H   0  0  0  0  0  0  0  0  0  0  0  0
  -11.3796    6.2260   -3.5260 H   0  0  0  0  0  0  0  0  0  0  0  0
  -12.2395    5.4330   -2.1039 H   0  0  0  0  0  0  0  0  0  0  0  0
  -13.4469    7.5095   -3.1853 H   0  0  0  0  0  0  0  0  0  0  0  0
  -10.9886    9.1406   -0.4277 H   0  0  0  0  0  0  0  0  0  0  0  0
  -13.2031    7.7813    1.2289 H   0  0  0  0  0  0  0  0  0  0  0  0
  -11.7660    8.6958    1.8683 H   0  0  0  0  0  0  0  0  0  0  0  0
  -13.8431   10.0363    1.9559 H   0  0  0  0  0  0  0  0  0  0  0  0
  -12.5884   10.7484    0.8672 H   0  0  0  0  0  0  0  0  0  0  0  0
  -14.7276   10.9187   -0.2072 H   0  0  0  0  0  0  0  0  0  0  0  0
  -14.9290    8.0630   -0.1720 H   0  0  0  0  0  0  0  0  0  0  0  0
  -12.3991   11.3775   -1.0362 H   0  0  0  0  0  0  0  0  0  0  0  0
  -11.9023   10.5220   -2.5355 H   0  0  0  0  0  0  0  0  0  0  0  0
  -13.3724   11.5542   -2.5355 H   0  0  0  0  0  0  0  0  0  0  0  0
  -15.7173    9.4222   -2.0796 H   0  0  0  0  0  0  0  0  0  0  0  0
  -14.7524   10.4253   -3.2151 H   0  0  0  0  0  0  0  0  0  0  0  0
  -14.5669    8.6386   -3.2151 H   0  0  0  0  0  0  0  0  0  0  0  0
  -11.4637    6.0669    1.6721 H   0  0  0  0  0  0  0  0  0  0  0  0
  -12.6322    5.9335    0.3144 H   0  0  0  0  0  0  0  0  0  0  0  0
  -11.1378    4.9368    0.3144 H   0  0  0  0  0  0  0  0  0  0  0  0
   -9.8216    8.1021    1.4513 H   0  0  0  0  0  0  0  0  0  0  0  0
   -9.1851    6.4045    1.0688 H   0  0  0  0  0  0  0  0  0  0  0  0
   -8.5553    8.9872   -0.3869 H   0  0  0  0  0  0  0  0  0  0  0  0
   -7.4489    7.9418    0.5887 H   0  0  0  0  0  0  0  0  0  0  0  0
   -7.5904    5.6563    0.2555 H   0  0  0  0  0  0  0  0  0  0  0  0
   -8.3270    4.9560   -1.2256 H   0  0  0  0  0  0  0  0  0  0  0  0
   -6.5972    5.4402   -1.2256 H   0  0  0  0  0  0  0  0  0  0  0  0
  1  2  1  0
  2  3  1  0
  3  4  1  0
  4  5  1  0
  5  6  1  0
  6  7  1  0
  7  8  1  0
  7  9  1  0
  2 10  1  0
 10 11  1  0
 11 12  1  0
 12 13  1  0
 13 14  1  6
 13 15  1  0
 15 16  1  0
 16 17  1  0
 17 18  2  0
 18 19  1  0
 19 20  1  0
 20 21  1  0
 21 22  1  0
 22 23  1  0
 22 24  1  0
 24 25  1  0
 24 26  1  0
 19 27  1  0
 27 28  1  1
 27 29  1  0
 29 30  1  0
 30 31  1  0
 31 32  1  1
  7  5  1  0
 31 10  1  0
 31 13  1  0
 27 15  1  0
 24 18  1  0
  1 33  1  0
  1 34  1  0
  1 35  1  0
  2 36  1  6
  3 37  1  0
  3 38  1  0
  4 39  1  0
  4 40  1  0
  5 41  1  6
  8 42  1  0
  8 43  1  0
  8 44  1  0
  9 45  1  0
  9 46  1  0
  9 47  1  0
 10 48  1  6
 11 49  1  0
 11 50  1  0
 12 51  1  0
 12 52  1  0
 14 53  1  0
 14 54  1  0
 14 55  1  0
 15 56  1  1
 16 57  1  0
 16 58  1  0
 17 59  1  0
 19 60  1  6
 20 61  1  0
 20 62  1  0
 21 63  1  0
 21 64  1  0
 22 65  1  6
 23 66  1  0
 25 67  1  0
 25 68  1  0
 25 69  1  0
 26 70  1  0
 26 71  1  0
 26 72  1  0
 28 73  1  0
 28 74  1  0
 28 75  1  0
 29 76  1  0
 29 77  1  0
 30 78  1  0
 30 79  1  0
 32 80  1  0
 32 81  1  0
 32 82  1  0
M  END
>  <meeko>  (14) 
{"is_sidechain": [false], "intermolecular_energy": 2.731, "internal_energy": -0.839}

$$$$
EPH_relaxed_0001_pdb2pqr_Repair_168_r2_0001_out
     RDKit          3D

 82 86  0  0  0  0  0  0  0  0999 V2000
    0.4110    9.9520    1.6200 C   0  0  0  0  0  0  0  0  0  0  0  0
    0.5920   10.3050    0.1410 C   0  0  2  0  0  0  0  0  0  0  0  0
    1.1000    9.1060   -0.6840 C   0  0  0  0  0  0  0  0  0  0  0  0
    0.1730    8.7180   -1.8400 C   0  0  0  0  0  0  0  0  0  0  0  0
   -1.1660    8.2610   -1.3460 C   0  0  2  0  0  0  0  0  0  0  0  0
   -2.2470    8.4770   -2.2630 O   0  0  0  0  0  0  0  0  0  0  0  0
   -2.3080    9.2090   -1.0280 C   0  0  0  0  0  0  0  0  0  0  0  0
   -2.1620   10.6890   -1.1900 C   0  0  0  0  0  0  0  0  0  0  0  0
   -3.3890    8.7420   -0.1030 C   0  0  0  0  0  0  0  0  0  0  0  0
    1.5540   11.4790    0.0020 C   0  0  1  0  0  0  0  0  0  0  0  0
    2.8910   11.0780   -0.6780 C   0  0  0  0  0  0  0  0  0  0  0  0
    3.3420   12.2930   -1.5290 C   0  0  0  0  0  0  0  0  0  0  0  0
    2.4400   13.4570   -1.0560 C   0  0  1  0  0  0  0  0  0  0  0  0
    3.1050   13.9710    0.2590 C   0  0  0  0  0  0  0  0  0  0  0  0
    2.2140   14.6160   -2.0810 C   0  0  2  0  0  0  0  0  0  0  0  0
    3.4830   15.3830   -2.4890 C   0  0  0  0  0  0  0  0  0  0  0  0
    3.8100   16.5700   -1.6440 C   0  0  0  0  0  0  0  0  0  0  0  0
    2.9700   17.1720   -0.7820 C   0  0  0  0  0  0  0  0  0  0  0  0
    1.5080   16.7210   -0.6630 C   0  0  1  0  0  0  0  0  0  0  0  0
    0.5800   17.9640   -0.6700 C   0  0  0  0  0  0  0  0  0  0  0  0
    0.9640   18.9870    0.3950 C   0  0  0  0  0  0  0  0  0  0  0  0
    2.4050   19.4550    0.2070 C   0  0  2  0  0  0  0  0  0  0  0  0
    2.4950   20.1940   -1.0150 O   0  0  0  0  0  0  0  0  0  0  0  0
    3.4310   18.2870    0.1880 C   0  0  0  0  0  0  0  0  0  0  0  0
    3.5520   17.6770    1.6070 C   0  0  0  0  0  0  0  0  0  0  0  0
    4.8250   18.8810   -0.1490 C   0  0  0  0  0  0  0  0  0  0  0  0
    1.0410   15.6050   -1.6920 C   0  0  1  0  0  0  0  0  0  0  0  0
    0.5620   16.2710   -3.0190 C   0  0  0  0  0  0  0  0  0  0  0  0
   -0.2070   14.8490   -1.1000 C   0  0  0  0  0  0  0  0  0  0  0  0
    0.0800   13.6390   -0.1910 C   0  0  0  0  0  0  0  0  0  0  0  0
    1.0850   12.6870   -0.8470 C   0  0  2  0  0  0  0  0  0  0  0  0
    0.4340   12.1360   -2.1610 C   0  0  0  0  0  0  0  0  0  0  0  0
    0.8247   10.7588    2.2428 H   0  0  0  0  0  0  0  0  0  0  0  0
   -0.6601    9.8316    1.8398 H   0  0  0  0  0  0  0  0  0  0  0  0
    0.9384    9.0120    1.8398 H   0  0  0  0  0  0  0  0  0  0  0  0
   -0.3950   10.5839   -0.2567 H   0  0  0  0  0  0  0  0  0  0  0  0
    2.0853    9.3631   -1.1001 H   0  0  0  0  0  0  0  0  0  0  0  0
    1.1444    8.2429   -0.0035 H   0  0  0  0  0  0  0  0  0  0  0  0
    0.0329    9.5917   -2.4935 H   0  0  0  0  0  0  0  0  0  0  0  0
    0.6385    7.8863   -2.3891 H   0  0  0  0  0  0  0  0  0  0  0  0
   -0.7030    7.4448   -0.7720 H   0  0  0  0  0  0  0  0  0  0  0  0
   -2.1152   11.1635   -0.1987 H   0  0  0  0  0  0  0  0  0  0  0  0
   -1.2379   10.9077   -1.7452 H   0  0  0  0  0  0  0  0  0  0  0  0
   -3.0255   11.0840   -1.7452 H   0  0  0  0  0  0  0  0  0  0  0  0
   -3.0656    8.8817    0.9391 H   0  0  0  0  0  0  0  0  0  0  0  0
   -4.3039    9.3251   -0.2843 H   0  0  0  0  0  0  0  0  0  0  0  0
   -3.5916    7.6761   -0.2843 H   0  0  0  0  0  0  0  0  0  0  0  0
    1.6400   11.7728    1.0586 H   0  0  0  0  0  0  0  0  0  0  0  0
    3.6495   10.8471    0.0845 H   0  0  0  0  0  0  0  0  0  0  0  0
    2.7626   10.1829   -1.3044 H   0  0  0  0  0  0  0  0  0  0  0  0
    4.4018   12.5237   -1.3455 H   0  0  0  0  0  0  0  0  0  0  0  0
    3.2476   12.1042   -2.6086 H   0  0  0  0  0  0  0  0  0  0  0  0
    2.5698   13.5574    1.1265 H   0  0  0  0  0  0  0  0  0  0  0  0
    4.1562   13.6483    0.2887 H   0  0  0  0  0  0  0  0  0  0  0  0
    3.0577   15.0696    0.2887 H   0  0  0  0  0  0  0  0  0  0  0  0
    1.8901   14.0744   -2.9820 H   0  0  0  0  0  0  0  0  0  0  0  0
    4.3324   14.6858   -2.4391 H   0  0  0  0  0  0  0  0  0  0  0  0
    3.2916   15.7724   -3.4998 H   0  0  0  0  0  0  0  0  0  0  0  0
    4.8236   16.9878   -1.7338 H   0  0  0  0  0  0  0  0  0  0  0  0
    1.4280   16.2014    0.3033 H   0  0  0  0  0  0  0  0  0  0  0  0
    0.6408   18.4438   -1.6580 H   0  0  0  0  0  0  0  0  0  0  0  0
   -0.4411   17.6195   -0.4493 H   0  0  0  0  0  0  0  0  0  0  0  0
    0.2912   19.8541    0.3206 H   0  0  0  0  0  0  0  0  0  0  0  0
    0.8743   18.5146    1.3844 H   0  0  0  0  0  0  0  0  0  0  0  0
    2.6622   20.0848    1.0715 H   0  0  0  0  0  0  0  0  0  0  0  0
    3.0140   20.9960   -0.8360 H   0  0  0  0  0  0  0  0  0  0  0  0
    3.3958   18.4644    2.3591 H   0  0  0  0  0  0  0  0  0  0  0  0
    2.7921   16.8920    1.7347 H   0  0  0  0  0  0  0  0  0  0  0  0
    4.5540   17.2415    1.7347 H   0  0  0  0  0  0  0  0  0  0  0  0
    5.3614   19.1096    0.7838 H   0  0  0  0  0  0  0  0  0  0  0  0
    5.4028   18.1509   -0.7348 H   0  0  0  0  0  0  0  0  0  0  0  0
    4.6986   19.8034   -0.7348 H   0  0  0  0  0  0  0  0  0  0  0  0
   -0.0656   17.1437   -2.7855 H   0  0  0  0  0  0  0  0  0  0  0  0
    1.4361   16.5939   -3.6036 H   0  0  0  0  0  0  0  0  0  0  0  0
   -0.0222   15.5450   -3.6036 H   0  0  0  0  0  0  0  0  0  0  0  0
   -0.7884   15.5754   -0.5132 H   0  0  0  0  0  0  0  0  0  0  0  0
   -0.7328   14.4346   -1.9728 H   0  0  0  0  0  0  0  0  0  0  0  0
    0.4930   13.9962    0.7639 H   0  0  0  0  0  0  0  0  0  0  0  0
   -0.8612   13.0948   -0.0237 H   0  0  0  0  0  0  0  0  0  0  0  0
   -0.3824   11.4450   -1.9039 H   0  0  0  0  0  0  0  0  0  0  0  0
    0.0334   12.9736   -2.7509 H   0  0  0  0  0  0  0  0  0  0  0  0
    1.1939   11.6025   -2.7509 H   0  0  0  0  0  0  0  0  0  0  0  0
  1  2  1  0
  2  3  1  0
  3  4  1  0
  4  5  1  0
  5  6  1  0
  6  7  1  0
  7  8  1  0
  7  9  1  0
  2 10  1  0
 10 11  1  0
 11 12  1  0
 12 13  1  0
 13 14  1  1
 13 15  1  0
 15 16  1  0
 16 17  1  0
 17 18  2  0
 18 19  1  0
 19 20  1  0
 20 21  1  0
 21 22  1  0
 22 23  1  0
 22 24  1  0
 24 25  1  0
 24 26  1  0
 19 27  1  0
 27 28  1  6
 27 29  1  0
 29 30  1  0
 30 31  1  0
 31 32  1  6
  7  5  1  0
 31 10  1  0
 31 13  1  0
 27 15  1  0
 24 18  1  0
  1 33  1  0
  1 34  1  0
  1 35  1  0
  2 36  1  6
  3 37  1  0
  3 38  1  0
  4 39  1  0
  4 40  1  0
  5 41  1  1
  8 42  1  0
  8 43  1  0
  8 44  1  0
  9 45  1  0
  9 46  1  0
  9 47  1  0
 10 48  1  1
 11 49  1  0
 11 50  1  0
 12 51  1  0
 12 52  1  0
 14 53  1  0
 14 54  1  0
 14 55  1  0
 15 56  1  6
 16 57  1  0
 16 58  1  0
 17 59  1  0
 19 60  1  1
 20 61  1  0
 20 62  1  0
 21 63  1  0
 21 64  1  0
 22 65  1  1
 23 66  1  0
 25 67  1  0
 25 68  1  0
 25 69  1  0
 26 70  1  0
 26 71  1  0
 26 72  1  0
 28 73  1  0
 28 74  1  0
 28 75  1  0
 29 76  1  0
 29 77  1  0
 30 78  1  0
 30 79  1  0
 32 80  1  0
 32 81  1  0
 32 82  1  0
M  END
>  <meeko>  (15) 
{"is_sidechain": [false], "intermolecular_energy": 2.731, "internal_energy": -0.839}

$$$$
EPH_relaxed_0001_pdb2pqr_Repair_168_r2_0001_out
     RDKit          3D

 82 86  0  0  0  0  0  0  0  0999 V2000
    4.5250   17.5210   -2.3180 C   0  0  0  0  0  0  0  0  0  0  0  0
    3.2680   16.7730   -2.7690 C   0  0  2  0  0  0  0  0  0  0  0  0
    2.0080   17.6600   -2.7010 C   0  0  0  0  0  0  0  0  0  0  0  0
    2.2870   19.0900   -2.2320 C   0  0  0  0  0  0  0  0  0  0  0  0
    2.4310   19.1670   -0.7420 C   0  0  2  0  0  0  0  0  0  0  0  0
    1.5620   18.2920   -0.0110 O   0  0  0  0  0  0  0  0  0  0  0  0
    1.3480   19.7000    0.1770 C   0  0  0  0  0  0  0  0  0  0  0  0
    0.0420   20.1940   -0.3610 C   0  0  0  0  0  0  0  0  0  0  0  0
    1.7400   20.1940    1.5340 C   0  0  0  0  0  0  0  0  0  0  0  0
    3.0720   15.5240   -1.9180 C   0  0  1  0  0  0  0  0  0  0  0  0
    3.4570   15.7490   -0.4310 C   0  0  0  0  0  0  0  0  0  0  0  0
    2.4790   14.8970    0.4180 C   0  0  0  0  0  0  0  0  0  0  0  0
    1.7880   13.9630   -0.6040 C   0  0  1  0  0  0  0  0  0  0  0  0
    2.8020   12.7980   -0.8320 C   0  0  0  0  0  0  0  0  0  0  0  0
    0.3750   13.4270   -0.2040 C   0  0  2  0  0  0  0  0  0  0  0  0
    0.3430   12.5470    1.0580 C   0  0  0  0  0  0  0  0  0  0  0  0
    0.5210   11.0840    0.8200 C   0  0  0  0  0  0  0  0  0  0  0  0
    0.4150   10.4670   -0.3710 C   0  0  0  0  0  0  0  0  0  0  0  0
   -0.0100   11.2420   -1.6250 C   0  0  1  0  0  0  0  0  0  0  0  0
   -1.0940   10.4370   -2.3890 C   0  0  0  0  0  0  0  0  0  0  0  0
   -0.6490    9.0120   -2.7060 C   0  0  0  0  0  0  0  0  0  0  0  0
   -0.2910    8.2550   -1.4300 C   0  0  2  0  0  0  0  0  0  0  0  0
   -1.4790    8.0710   -0.6540 O   0  0  0  0  0  0  0  0  0  0  0  0
    0.7860    8.9770   -0.5720 C   0  0  0  0  0  0  0  0  0  0  0  0
    2.1560    8.9100   -1.2920 C   0  0  0  0  0  0  0  0  0  0  0  0
    0.9530    8.1830    0.7520 C   0  0  0  0  0  0  0  0  0  0  0  0
   -0.4250   12.7580   -1.3950 C   0  0  1  0  0  0  0  0  0  0  0  0
   -1.9370   12.8450   -1.0200 C   0  0  0  0  0  0  0  0  0  0  0  0
   -0.2570   13.5480   -2.7460 C   0  0  0  0  0  0  0  0  0  0  0  0
    1.1300   14.1560   -3.0280 C   0  0  0  0  0  0  0  0  0  0  0  0
    1.6380   14.9480   -1.8190 C   0  0  2  0  0  0  0  0  0  0  0  0
    0.6490   16.1390   -1.5790 C   0  0  0  0  0  0  0  0  0  0  0  0
    4.5635   17.5439   -1.2189 H   0  0  0  0  0  0  0  0  0  0  0  0
    5.4167   17.0065   -2.7055 H   0  0  0  0  0  0  0  0  0  0  0  0
    4.4981   18.5501   -2.7055 H   0  0  0  0  0  0  0  0  0  0  0  0
    3.4138   16.4866   -3.8210 H   0  0  0  0  0  0  0  0  0  0  0  0
    1.5602   17.7048   -3.7047 H   0  0  0  0  0  0  0  0  0  0  0  0
    1.3338   17.2046   -1.9607 H   0  0  0  0  0  0  0  0  0  0  0  0
    3.2184   19.4429   -2.6988 H   0  0  0  0  0  0  0  0  0  0  0  0
    1.4348   19.7199   -2.5270 H   0  0  0  0  0  0  0  0  0  0  0  0
    3.5017   19.4017   -0.8340 H   0  0  0  0  0  0  0  0  0  0  0  0
   -0.6268   20.4470    0.4749 H   0  0  0  0  0  0  0  0  0  0  0  0
    0.2141   21.0891   -0.9767 H   0  0  0  0  0  0  0  0  0  0  0  0
   -0.4214   19.4090   -0.9767 H   0  0  0  0  0  0  0  0  0  0  0  0
    1.2514   19.5783    2.3036 H   0  0  0  0  0  0  0  0  0  0  0  0
    2.8319   20.1251    1.6480 H   0  0  0  0  0  0  0  0  0  0  0  0
    1.4248   21.2417    1.6480 H   0  0  0  0  0  0  0  0  0  0  0  0
    3.7208   14.8243   -2.4652 H   0  0  0  0  0  0  0  0  0  0  0  0
    4.4932   15.4245   -0.2547 H   0  0  0  0  0  0  0  0  0  0  0  0
    3.3891   16.8135   -0.1621 H   0  0  0  0  0  0  0  0  0  0  0  0
    3.0270   14.3114    1.1708 H   0  0  0  0  0  0  0  0  0  0  0  0
    1.7579   15.5166    0.9714 H   0  0  0  0  0  0  0  0  0  0  0  0
    3.1396   12.4101    0.1404 H   0  0  0  0  0  0  0  0  0  0  0  0
    2.3130   11.9918   -1.3985 H   0  0  0  0  0  0  0  0  0  0  0  0
    3.6679   13.1712   -1.3985 H   0  0  0  0  0  0  0  0  0  0  0  0
   -0.1602   14.3503    0.0626 H   0  0  0  0  0  0  0  0  0  0  0  0
    1.1488   12.8830    1.7272 H   0  0  0  0  0  0  0  0  0  0  0  0
   -0.6633   12.6654    1.4861 H   0  0  0  0  0  0  0  0  0  0  0  0
    0.7590   10.4574    1.6922 H   0  0  0  0  0  0  0  0  0  0  0  0
    0.8932   11.3342   -2.2461 H   0  0  0  0  0  0  0  0  0  0  0  0
   -2.0025   10.3934   -1.7703 H   0  0  0  0  0  0  0  0  0  0  0  0
   -1.2794   10.9495   -3.3445 H   0  0  0  0  0  0  0  0  0  0  0  0
   -1.4670    8.4854   -3.2194 H   0  0  0  0  0  0  0  0  0  0  0  0
    0.2426    9.0577   -3.3486 H   0  0  0  0  0  0  0  0  0  0  0  0
    0.1412    7.2889   -1.7298 H   0  0  0  0  0  0  0  0  0  0  0  0
   -1.8380    8.9510   -0.4510 H   0  0  0  0  0  0  0  0  0  0  0  0
    2.9617    8.8706   -0.5441 H   0  0  0  0  0  0  0  0  0  0  0  0
    2.1957    8.0088   -1.9216 H   0  0  0  0  0  0  0  0  0  0  0  0
    2.2834    9.8030   -1.9216 H   0  0  0  0  0  0  0  0  0  0  0  0
    0.8104    8.8608    1.6065 H   0  0  0  0  0  0  0  0  0  0  0  0
    0.2045    7.3780    0.7937 H   0  0  0  0  0  0  0  0  0  0  0  0
    1.9623    7.7477    0.7937 H   0  0  0  0  0  0  0  0  0  0  0  0
   -2.0435   12.8511    0.0748 H   0  0  0  0  0  0  0  0  0  0  0  0
   -2.3652   13.7693   -1.4352 H   0  0  0  0  0  0  0  0  0  0  0  0
   -2.4684   11.9759   -1.4352 H   0  0  0  0  0  0  0  0  0  0  0  0
   -0.4897   12.8548   -3.5678 H   0  0  0  0  0  0  0  0  0  0  0  0
   -0.9366   14.4089   -2.6621 H   0  0  0  0  0  0  0  0  0  0  0  0
    1.8395   13.3455   -3.2511 H   0  0  0  0  0  0  0  0  0  0  0  0
    1.0451   14.8404   -3.8850 H   0  0  0  0  0  0  0  0  0  0  0  0
    0.5190   16.2955   -0.4980 H   0  0  0  0  0  0  0  0  0  0  0  0
    1.0577   17.0527   -2.0353 H   0  0  0  0  0  0  0  0  0  0  0  0
   -0.3242   15.9051   -2.0353 H   0  0  0  0  0  0  0  0  0  0  0  0
  1  2  1  0
  2  3  1  0
  3  4  1  0
  4  5  1  0
  5  6  1  0
  6  7  1  0
  7  8  1  0
  7  9  1  0
  2 10  1  0
 10 11  1  0
 11 12  1  0
 12 13  1  0
 13 14  1  6
 13 15  1  0
 15 16  1  0
 16 17  1  0
 17 18  2  0
 18 19  1  0
 19 20  1  0
 20 21  1  0
 21 22  1  0
 22 23  1  0
 22 24  1  0
 24 25  1  0
 24 26  1  0
 19 27  1  0
 27 28  1  1
 27 29  1  0
 29 30  1  0
 30 31  1  0
 31 32  1  1
  7  5  1  0
 31 10  1  0
 31 13  1  0
 27 15  1  0
 24 18  1  0
  1 33  1  0
  1 34  1  0
  1 35  1  0
  2 36  1  6
  3 37  1  0
  3 38  1  0
  4 39  1  0
  4 40  1  0
  5 41  1  6
  8 42  1  0
  8 43  1  0
  8 44  1  0
  9 45  1  0
  9 46  1  0
  9 47  1  0
 10 48  1  6
 11 49  1  0
 11 50  1  0
 12 51  1  0
 12 52  1  0
 14 53  1  0
 14 54  1  0
 14 55  1  0
 15 56  1  1
 16 57  1  0
 16 58  1  0
 17 59  1  0
 19 60  1  6
 20 61  1  0
 20 62  1  0
 21 63  1  0
 21 64  1  0
 22 65  1  6
 23 66  1  0
 25 67  1  0
 25 68  1  0
 25 69  1  0
 26 70  1  0
 26 71  1  0
 26 72  1  0
 28 73  1  0
 28 74  1  0
 28 75  1  0
 29 76  1  0
 29 77  1  0
 30 78  1  0
 30 79  1  0
 32 80  1  0
 32 81  1  0
 32 82  1  0
M  END
>  <meeko>  (16) 
{"is_sidechain": [false], "intermolecular_energy": 2.731, "internal_energy": -0.839}

$$$$
EPH_relaxed_0001_pdb2pqr_Repair_168_r2_0001_out
     RDKit          3D

 82 86  0  0  0  0  0  0  0  0999 V2000
   -0.1540   17.8600   -2.2830 C   0  0  0  0  0  0  0  0  0  0  0  0
   -0.2480   16.9030   -1.0910 C   0  0  2  0  0  0  0  0  0  0  0  0
   -0.2940   17.6540    0.2550 C   0  0  0  0  0  0  0  0  0  0  0  0
    0.3210   19.0550    0.1990 C   0  0  0  0  0  0  0  0  0  0  0  0
    1.5940   19.1330    0.9860 C   0  0  2  0  0  0  0  0  0  0  0  0
    2.4750   20.1940    0.5950 O   0  0  0  0  0  0  0  0  0  0  0  0
    2.9630   18.8580    0.3920 C   0  0  0  0  0  0  0  0  0  0  0  0
    3.1270   18.4830   -1.0470 C   0  0  0  0  0  0  0  0  0  0  0  0
    4.0790   18.4770    1.3130 C   0  0  0  0  0  0  0  0  0  0  0  0
    0.9290   15.9350   -1.1070 C   0  0  1  0  0  0  0  0  0  0  0  0
    1.4290   15.5790    0.3180 C   0  0  0  0  0  0  0  0  0  0  0  0
    1.8930   14.1000    0.2730 C   0  0  0  0  0  0  0  0  0  0  0  0
    1.9560   13.7570   -1.2340 C   0  0  1  0  0  0  0  0  0  0  0  0
    3.3240   14.3320   -1.7190 C   0  0  0  0  0  0  0  0  0  0  0  0
    1.8010   12.2460   -1.6050 C   0  0  2  0  0  0  0  0  0  0  0  0
    2.9000   11.3220   -1.0520 C   0  0  0  0  0  0  0  0  0  0  0  0
    4.0800   11.1300   -1.9450 C   0  0  0  0  0  0  0  0  0  0  0  0
    4.1310   11.4440   -3.2540 C   0  0  0  0  0  0  0  0  0  0  0  0
    2.8870   11.9610   -3.9880 C   0  0  1  0  0  0  0  0  0  0  0  0
    2.7330   11.2110   -5.3370 C   0  0  0  0  0  0  0  0  0  0  0  0
    3.9920   11.2870   -6.1960 C   0  0  0  0  0  0  0  0  0  0  0  0
    5.1950   10.7100   -5.4530 C   0  0  2  0  0  0  0  0  0  0  0  0
    4.9950    9.3050   -5.2750 O   0  0  0  0  0  0  0  0  0  0  0  0
    5.4430   11.3820   -4.0740 C   0  0  0  0  0  0  0  0  0  0  0  0
    5.9530   12.8290   -4.2840 C   0  0  0  0  0  0  0  0  0  0  0  0
    6.5940   10.6140   -3.3690 C   0  0  0  0  0  0  0  0  0  0  0  0
    1.5410   11.9810   -3.1430 C   0  0  1  0  0  0  0  0  0  0  0  0
    0.8310   10.5960   -3.2420 C   0  0  0  0  0  0  0  0  0  0  0  0
    0.5540   13.0320   -3.7740 C   0  0  0  0  0  0  0  0  0  0  0  0
    0.6770   14.4860   -3.2790 C   0  0  0  0  0  0  0  0  0  0  0  0
    0.6960   14.5440   -1.7480 C   0  0  2  0  0  0  0  0  0  0  0  0
   -0.6770   13.9920   -1.2320 C   0  0  0  0  0  0  0  0  0  0  0  0
   -0.0526   18.8924   -1.9172 H   0  0  0  0  0  0  0  0  0  0  0  0
    0.7229   17.5997   -2.8940 H   0  0  0  0  0  0  0  0  0  0  0  0
   -1.0648   17.7753   -2.8940 H   0  0  0  0  0  0  0  0  0  0  0  0
   -1.1903   16.3442   -1.1896 H   0  0  0  0  0  0  0  0  0  0  0  0
   -1.3454   17.7483    0.5644 H   0  0  0  0  0  0  0  0  0  0  0  0
    0.3029   17.0691    0.9702 H   0  0  0  0  0  0  0  0  0  0  0  0
    0.5341   19.3092   -0.8498 H   0  0  0  0  0  0  0  0  0  0  0  0
   -0.3976   19.7629    0.6378 H   0  0  0  0  0  0  0  0  0  0  0  0
    1.0895   18.7498    1.8852 H   0  0  0  0  0  0  0  0  0  0  0  0
    3.5669   17.4771   -1.1159 H   0  0  0  0  0  0  0  0  0  0  0  0
    2.1445   18.4882   -1.5415 H   0  0  0  0  0  0  0  0  0  0  0  0
    3.7902   19.2079   -1.5415 H   0  0  0  0  0  0  0  0  0  0  0  0
    3.7484   18.5899    2.3560 H   0  0  0  0  0  0  0  0  0  0  0  0
    4.3644   17.4305    1.1300 H   0  0  0  0  0  0  0  0  0  0  0  0
    4.9447   19.1305    1.1300 H   0  0  0  0  0  0  0  0  0  0  0  0
    1.6379   16.5160   -1.7152 H   0  0  0  0  0  0  0  0  0  0  0  0
    2.2692   16.2312    0.5985 H   0  0  0  0  0  0  0  0  0  0  0  0
    0.6321   15.7204    1.0629 H   0  0  0  0  0  0  0  0  0  0  0  0
    2.8836   13.9894    0.7383 H   0  0  0  0  0  0  0  0  0  0  0  0
    1.2146   13.4328    0.8249 H   0  0  0  0  0  0  0  0  0  0  0  0
    3.9423   14.5919   -0.8471 H   0  0  0  0  0  0  0  0  0  0  0  0
    3.8448   13.5766   -2.3258 H   0  0  0  0  0  0  0  0  0  0  0  0
    3.1488   15.2326   -2.3258 H   0  0  0  0  0  0  0  0  0  0  0  0
    0.8805   11.9647   -1.0726 H   0  0  0  0  0  0  0  0  0  0  0  0
    3.2575   11.7489   -0.1034 H   0  0  0  0  0  0  0  0  0  0  0  0
    2.4370   10.3303   -0.9419 H   0  0  0  0  0  0  0  0  0  0  0  0
    4.9852   10.6951   -1.4962 H   0  0  0  0  0  0  0  0  0  0  0  0
    3.0660   13.0303   -4.1738 H   0  0  0  0  0  0  0  0  0  0  0  0
    2.5111   10.1538   -5.1293 H   0  0  0  0  0  0  0  0  0  0  0  0
    1.9178   11.6936   -5.8961 H   0  0  0  0  0  0  0  0  0  0  0  0
    3.8317   10.7142   -7.1213 H   0  0  0  0  0  0  0  0  0  0  0  0
    4.1958   12.3428   -6.4279 H   0  0  0  0  0  0  0  0  0  0  0  0
    6.0878   10.9100   -6.0637 H   0  0  0  0  0  0  0  0  0  0  0  0
    4.0390    9.1520   -5.1850 H   0  0  0  0  0  0  0  0  0  0  0  0
    6.1205   13.3043   -3.3062 H   0  0  0  0  0  0  0  0  0  0  0  0
    6.8975   12.8067   -4.8475 H   0  0  0  0  0  0  0  0  0  0  0  0
    5.2033   13.4039   -4.8475 H   0  0  0  0  0  0  0  0  0  0  0  0
    6.4741   10.6940   -2.2785 H   0  0  0  0  0  0  0  0  0  0  0  0
    6.5631    9.5549   -3.6646 H   0  0  0  0  0  0  0  0  0  0  0  0
    7.5601   11.0491   -3.6646 H   0  0  0  0  0  0  0  0  0  0  0  0
    0.6340   10.2118   -2.2303 H   0  0  0  0  0  0  0  0  0  0  0  0
   -0.1202   10.7094   -3.7828 H   0  0  0  0  0  0  0  0  0  0  0  0
    1.4783    9.8899   -3.7828 H   0  0  0  0  0  0  0  0  0  0  0  0
    0.7221   13.0353   -4.8611 H   0  0  0  0  0  0  0  0  0  0  0  0
   -0.4498   12.7064   -3.4634 H   0  0  0  0  0  0  0  0  0  0  0  0
    1.6099   14.9207   -3.6672 H   0  0  0  0  0  0  0  0  0  0  0  0
   -0.1923   15.0546   -3.6409 H   0  0  0  0  0  0  0  0  0  0  0  0
   -0.6814   13.9902   -0.1320 H   0  0  0  0  0  0  0  0  0  0  0  0
   -1.4917   14.6325   -1.6009 H   0  0  0  0  0  0  0  0  0  0  0  0
   -0.8216   12.9658   -1.6009 H   0  0  0  0  0  0  0  0  0  0  0  0
  1  2  1  0
  2  3  1  0
  3  4  1  0
  4  5  1  0
  5  6  1  0
  6  7  1  0
  7  8  1  0
  7  9  1  0
  2 10  1  0
 10 11  1  0
 11 12  1  0
 12 13  1  0
 13 14  1  6
 13 15  1  0
 15 16  1  0
 16 17  1  0
 17 18  2  0
 18 19  1  0
 19 20  1  0
 20 21  1  0
 21 22  1  0
 22 23  1  0
 22 24  1  0
 24 25  1  0
 24 26  1  0
 19 27  1  0
 27 28  1  1
 27 29  1  0
 29 30  1  0
 30 31  1  0
 31 32  1  1
  7  5  1  0
 31 10  1  0
 31 13  1  0
 27 15  1  0
 24 18  1  0
  1 33  1  0
  1 34  1  0
  1 35  1  0
  2 36  1  6
  3 37  1  0
  3 38  1  0
  4 39  1  0
  4 40  1  0
  5 41  1  1
  8 42  1  0
  8 43  1  0
  8 44  1  0
  9 45  1  0
  9 46  1  0
  9 47  1  0
 10 48  1  6
 11 49  1  0
 11 50  1  0
 12 51  1  0
 12 52  1  0
 14 53  1  0
 14 54  1  0
 14 55  1  0
 15 56  1  1
 16 57  1  0
 16 58  1  0
 17 59  1  0
 19 60  1  6
 20 61  1  0
 20 62  1  0
 21 63  1  0
 21 64  1  0
 22 65  1  6
 23 66  1  0
 25 67  1  0
 25 68  1  0
 25 69  1  0
 26 70  1  0
 26 71  1  0
 26 72  1  0
 28 73  1  0
 28 74  1  0
 28 75  1  0
 29 76  1  0
 29 77  1  0
 30 78  1  0
 30 79  1  0
 32 80  1  0
 32 81  1  0
 32 82  1  0
M  END
>  <meeko>  (17) 
{"is_sidechain": [false], "intermolecular_energy": 2.731, "internal_energy": -0.839}

$$$$
EPH_relaxed_0001_pdb2pqr_Repair_168_r2_0001_out
     RDKit          3D

 82 86  0  0  0  0  0  0  0  0999 V2000
   -1.3650   10.4350    1.6660 C   0  0  0  0  0  0  0  0  0  0  0  0
   -1.9970   10.1330    0.3050 C   0  0  2  0  0  0  0  0  0  0  0  0
   -2.8080    8.8220    0.3200 C   0  0  0  0  0  0  0  0  0  0  0  0
   -4.1510    8.9210   -0.4100 C   0  0  0  0  0  0  0  0  0  0  0  0
   -4.6480    7.5740   -0.8400 C   0  0  2  0  0  0  0  0  0  0  0  0
   -4.8380    7.4300   -2.2540 O   0  0  0  0  0  0  0  0  0  0  0  0
   -6.0210    7.3440   -1.4440 C   0  0  0  0  0  0  0  0  0  0  0  0
   -6.9830    8.4720   -1.6490 C   0  0  0  0  0  0  0  0  0  0  0  0
   -6.6090    5.9680   -1.3800 C   0  0  0  0  0  0  0  0  0  0  0  0
   -0.9150   10.0630   -0.7660 C   0  0  1  0  0  0  0  0  0  0  0  0
   -1.3280    9.1850   -1.9770 C   0  0  0  0  0  0  0  0  0  0  0  0
   -0.7060    9.8390   -3.2380 C   0  0  0  0  0  0  0  0  0  0  0  0
    0.3080   10.8670   -2.6830 C   0  0  1  0  0  0  0  0  0  0  0  0
    1.5790   10.0290   -2.3360 C   0  0  0  0  0  0  0  0  0  0  0  0
    0.6500   12.0730   -3.6170 C   0  0  2  0  0  0  0  0  0  0  0  0
    1.3200   11.6970   -4.9500 C   0  0  0  0  0  0  0  0  0  0  0  0
    2.8120   11.6570   -4.9250 C   0  0  0  0  0  0  0  0  0  0  0  0
    3.5920   12.1850   -3.9630 C   0  0  0  0  0  0  0  0  0  0  0  0
    2.9830   12.9900   -2.8080 C   0  0  1  0  0  0  0  0  0  0  0  0
    3.7960   14.2950   -2.6010 C   0  0  0  0  0  0  0  0  0  0  0  0
    5.2860   14.0300   -2.4060 C   0  0  0  0  0  0  0  0  0  0  0  0
    5.8680   13.2800   -3.6010 C   0  0  2  0  0  0  0  0  0  0  0  0
    5.8260   14.1350   -4.7470 O   0  0  0  0  0  0  0  0  0  0  0  0
    5.1220   11.9520   -3.9120 C   0  0  0  0  0  0  0  0  0  0  0  0
    5.4190   10.9150   -2.8010 C   0  0  0  0  0  0  0  0  0  0  0  0
    5.7160   11.3660   -5.2220 C   0  0  0  0  0  0  0  0  0  0  0  0
    1.4180   13.2540   -2.8960 C   0  0  1  0  0  0  0  0  0  0  0  0
    1.1420   14.5410   -3.7320 C   0  0  0  0  0  0  0  0  0  0  0  0
    0.8620   13.5350   -1.4500 C   0  0  0  0  0  0  0  0  0  0  0  0
    0.4300   12.3100   -0.6220 C   0  0  0  0  0  0  0  0  0  0  0  0
   -0.4890   11.3940   -1.4360 C   0  0  2  0  0  0  0  0  0  0  0  0
   -1.7870   12.2030   -1.7800 C   0  0  0  0  0  0  0  0  0  0  0  0
   -2.0456   10.1098    2.4666 H   0  0  0  0  0  0  0  0  0  0  0  0
   -0.4104    9.8958    1.7547 H   0  0  0  0  0  0  0  0  0  0  0  0
   -1.1848   11.5165    1.7547 H   0  0  0  0  0  0  0  0  0  0  0  0
   -2.6955   10.9512    0.0754 H   0  0  0  0  0  0  0  0  0  0  0  0
   -2.2076    8.0366   -0.1622 H   0  0  0  0  0  0  0  0  0  0  0  0
   -3.0302    8.5932    1.3727 H   0  0  0  0  0  0  0  0  0  0  0  0
   -4.8912    9.3754    0.2650 H   0  0  0  0  0  0  0  0  0  0  0  0
   -4.0079    9.5373   -1.3098 H   0  0  0  0  0  0  0  0  0  0  0  0
   -4.1149    7.0854   -0.0111 H   0  0  0  0  0  0  0  0  0  0  0  0
   -7.3109    8.8564   -0.6719 H   0  0  0  0  0  0  0  0  0  0  0  0
   -6.4892    9.2771   -2.2129 H   0  0  0  0  0  0  0  0  0  0  0  0
   -7.8560    8.1115   -2.2129 H   0  0  0  0  0  0  0  0  0  0  0  0
   -6.7355    5.6719   -0.3282 H   0  0  0  0  0  0  0  0  0  0  0  0
   -7.5876    5.9637   -1.8824 H   0  0  0  0  0  0  0  0  0  0  0  0
   -5.9358    5.2578   -1.8824 H   0  0  0  0  0  0  0  0  0  0  0  0
   -0.0864    9.6625   -0.1634 H   0  0  0  0  0  0  0  0  0  0  0  0
   -0.9429    8.1622   -1.8519 H   0  0  0  0  0  0  0  0  0  0  0  0
   -2.4228    9.1229   -2.0641 H   0  0  0  0  0  0  0  0  0  0  0  0
   -0.1962    9.0848   -3.8555 H   0  0  0  0  0  0  0  0  0  0  0  0
   -1.4643   10.3068   -3.8830 H   0  0  0  0  0  0  0  0  0  0  0  0
    1.6850    9.9591   -1.2434 H   0  0  0  0  0  0  0  0  0  0  0  0
    1.4793    9.0189   -2.7601 H   0  0  0  0  0  0  0  0  0  0  0  0
    2.4681   10.5186   -2.7601 H   0  0  0  0  0  0  0  0  0  0  0  0
   -0.3466   12.4557   -3.8820 H   0  0  0  0  0  0  0  0  0  0  0  0
    0.9582   10.7004   -5.2430 H   0  0  0  0  0  0  0  0  0  0  0  0
    1.0488   12.4910   -5.6614 H   0  0  0  0  0  0  0  0  0  0  0  0
    3.3166   11.1538   -5.7630 H   0  0  0  0  0  0  0  0  0  0  0  0
    3.0669   12.3522   -1.9157 H   0  0  0  0  0  0  0  0  0  0  0  0
    3.6644   14.9366   -3.4848 H   0  0  0  0  0  0  0  0  0  0  0  0
    3.4207   14.7817   -1.6887 H   0  0  0  0  0  0  0  0  0  0  0  0
    5.8106   14.9903   -2.2935 H   0  0  0  0  0  0  0  0  0  0  0  0
    5.4176   13.4118   -1.5057 H   0  0  0  0  0  0  0  0  0  0  0  0
    6.9030   13.0070   -3.3474 H   0  0  0  0  0  0  0  0  0  0  0  0
    5.8540   13.5690   -5.5380 H   0  0  0  0  0  0  0  0  0  0  0  0
    5.2845   11.3848   -1.8155 H   0  0  0  0  0  0  0  0  0  0  0  0
    4.7283   10.0645   -2.8991 H   0  0  0  0  0  0  0  0  0  0  0  0
    6.4552   10.5591   -2.8991 H   0  0  0  0  0  0  0  0  0  0  0  0
    6.4789   10.6133   -4.9741 H   0  0  0  0  0  0  0  0  0  0  0  0
    4.9141   10.8954   -5.8098 H   0  0  0  0  0  0  0  0  0  0  0  0
    6.1756   12.1742   -5.8098 H   0  0  0  0  0  0  0  0  0  0  0  0
    0.9605   15.3873   -3.0531 H   0  0  0  0  0  0  0  0  0  0  0  0
    2.0136   14.7601   -4.3663 H   0  0  0  0  0  0  0  0  0  0  0  0
    0.2572   14.3835   -4.3663 H   0  0  0  0  0  0  0  0  0  0  0  0
    1.6493   14.0569   -0.8863 H   0  0  0  0  0  0  0  0  0  0  0  0
   -0.0582   14.1178   -1.6036 H   0  0  0  0  0  0  0  0  0  0  0  0
    1.3249   11.7458   -0.3205 H   0  0  0  0  0  0  0  0  0  0  0  0
   -0.1202   12.6616    0.2633 H   0  0  0  0  0  0  0  0  0  0  0  0
   -2.2837   12.5126   -0.8486 H   0  0  0  0  0  0  0  0  0  0  0  0
   -1.5190   13.0943   -2.3664 H   0  0  0  0  0  0  0  0  0  0  0  0
   -2.4691   11.5698   -2.3664 H   0  0  0  0  0  0  0  0  0  0  0  0
  1  2  1  0
  2  3  1  0
  3  4  1  0
  4  5  1  0
  5  6  1  0
  6  7  1  0
  7  8  1  0
  7  9  1  0
  2 10  1  0
 10 11  1  0
 11 12  1  0
 12 13  1  0
 13 14  1  1
 13 15  1  0
 15 16  1  0
 16 17  1  0
 17 18  2  0
 18 19  1  0
 19 20  1  0
 20 21  1  0
 21 22  1  0
 22 23  1  0
 22 24  1  0
 24 25  1  0
 24 26  1  0
 19 27  1  0
 27 28  1  6
 27 29  1  0
 29 30  1  0
 30 31  1  0
 31 32  1  6
  7  5  1  0
 31 10  1  0
 31 13  1  0
 27 15  1  0
 24 18  1  0
  1 33  1  0
  1 34  1  0
  1 35  1  0
  2 36  1  6
  3 37  1  0
  3 38  1  0
  4 39  1  0
  4 40  1  0
  5 41  1  1
  8 42  1  0
  8 43  1  0
  8 44  1  0
  9 45  1  0
  9 46  1  0
  9 47  1  0
 10 48  1  1
 11 49  1  0
 11 50  1  0
 12 51  1  0
 12 52  1  0
 14 53  1  0
 14 54  1  0
 14 55  1  0
 15 56  1  6
 16 57  1  0
 16 58  1  0
 17 59  1  0
 19 60  1  1
 20 61  1  0
 20 62  1  0
 21 63  1  0
 21 64  1  0
 22 65  1  1
 23 66  1  0
 25 67  1  0
 25 68  1  0
 25 69  1  0
 26 70  1  0
 26 71  1  0
 26 72  1  0
 28 73  1  0
 28 74  1  0
 28 75  1  0
 29 76  1  0
 29 77  1  0
 30 78  1  0
 30 79  1  0
 32 80  1  0
 32 81  1  0
 32 82  1  0
M  END
>  <meeko>  (18) 
{"is_sidechain": [false], "intermolecular_energy": 2.731, "internal_energy": -0.839}

$$$$
EPH_relaxed_0001_pdb2pqr_Repair_168_r2_0001_out
     RDKit          3D

 82 86  0  0  0  0  0  0  0  0999 V2000
   -0.2550   10.3640   -2.2520 C   0  0  0  0  0  0  0  0  0  0  0  0
    0.7010   10.2120   -1.0660 C   0  0  2  0  0  0  0  0  0  0  0  0
   -0.0510   10.0560    0.2710 C   0  0  0  0  0  0  0  0  0  0  0  0
    0.7080   10.6220    1.4740 C   0  0  0  0  0  0  0  0  0  0  0  0
   -0.0740   11.6960    2.1680 C   0  0  2  0  0  0  0  0  0  0  0  0
    0.5050   13.0050    2.0850 O   0  0  0  0  0  0  0  0  0  0  0  0
    0.4240   12.4300    3.3990 C   0  0  0  0  0  0  0  0  0  0  0  0
    1.7540   12.1180    4.0090 C   0  0  0  0  0  0  0  0  0  0  0  0
   -0.5790   13.0980    4.2880 C   0  0  0  0  0  0  0  0  0  0  0  0
    1.6410   11.4100   -0.9980 C   0  0  1  0  0  0  0  0  0  0  0  0
    3.0030   11.1400   -1.6900 C   0  0  0  0  0  0  0  0  0  0  0  0
    3.4500   12.4780   -2.3350 C   0  0  0  0  0  0  0  0  0  0  0  0
    2.5090   13.5400   -1.7200 C   0  0  1  0  0  0  0  0  0  0  0  0
    3.1280   13.8630   -0.3240 C   0  0  0  0  0  0  0  0  0  0  0  0
    2.2850   14.8370   -2.5650 C   0  0  2  0  0  0  0  0  0  0  0  0
    3.5480   15.6790   -2.8150 C   0  0  0  0  0  0  0  0  0  0  0  0
    3.8250   16.7310   -1.7930 C   0  0  0  0  0  0  0  0  0  0  0  0
    2.9490   17.1810   -0.8760 C   0  0  0  0  0  0  0  0  0  0  0  0
    1.4950   16.6910   -0.8690 C   0  0  1  0  0  0  0  0  0  0  0  0
    0.5400   17.9040   -0.7170 C   0  0  0  0  0  0  0  0  0  0  0  0
    0.8720   18.7620    0.5000 C   0  0  0  0  0  0  0  0  0  0  0  0
    2.3070   19.2780    0.4280 C   0  0  2  0  0  0  0  0  0  0  0  0
    2.4130   20.1940   -0.6660 O   0  0  0  0  0  0  0  0  0  0  0  0
    3.3580   18.1450    0.2650 C   0  0  0  0  0  0  0  0  0  0  0  0
    3.4540   17.3310    1.5790 C   0  0  0  0  0  0  0  0  0  0  0  0
    4.7480   18.8090    0.0630 C   0  0  0  0  0  0  0  0  0  0  0  0
    1.0800   15.7340   -2.0680 C   0  0  1  0  0  0  0  0  0  0  0  0
    0.6230   16.5840   -3.2930 C   0  0  0  0  0  0  0  0  0  0  0  0
   -0.1660   14.8760   -1.6340 C   0  0  0  0  0  0  0  0  0  0  0  0
    0.1240   13.5480   -0.9090 C   0  0  0  0  0  0  0  0  0  0  0  0
    1.1670   12.7240   -1.6700 C   0  0  2  0  0  0  0  0  0  0  0  0
    0.5640   12.3650   -3.0710 C   0  0  0  0  0  0  0  0  0  0  0  0
   -1.2774   10.5266   -1.8803 H   0  0  0  0  0  0  0  0  0  0  0  0
    0.0538   11.2243   -2.8639 H   0  0  0  0  0  0  0  0  0  0  0  0
   -0.2283    9.4503   -2.8639 H   0  0  0  0  0  0  0  0  0  0  0  0
    1.2823    9.2921   -1.2268 H   0  0  0  0  0  0  0  0  0  0  0  0
   -1.0147   10.5802    0.1905 H   0  0  0  0  0  0  0  0  0  0  0  0
   -0.1733    8.9771    0.4469 H   0  0  0  0  0  0  0  0  0  0  0  0
    0.9049    9.8075    2.1866 H   0  0  0  0  0  0  0  0  0  0  0  0
    1.6476   11.0631    1.1098 H   0  0  0  0  0  0  0  0  0  0  0  0
   -1.0214   11.1820    1.9485 H   0  0  0  0  0  0  0  0  0  0  0  0
    1.6683   12.1381    5.1055 H   0  0  0  0  0  0  0  0  0  0  0  0
    2.0807   11.1188    3.6850 H   0  0  0  0  0  0  0  0  0  0  0  0
    2.4909   12.8677    3.6850 H   0  0  0  0  0  0  0  0  0  0  0  0
   -0.3122   12.9203    5.3402 H   0  0  0  0  0  0  0  0  0  0  0  0
   -0.5829   14.1797    4.0884 H   0  0  0  0  0  0  0  0  0  0  0  0
   -1.5787   12.6847    4.0884 H   0  0  0  0  0  0  0  0  0  0  0  0
    1.6936   11.5425    0.0927 H   0  0  0  0  0  0  0  0  0  0  0  0
    3.7457   10.8100   -0.9487 H   0  0  0  0  0  0  0  0  0  0  0  0
    2.9111   10.3476   -2.4474 H   0  0  0  0  0  0  0  0  0  0  0  0
    4.4988   12.6977   -2.0866 H   0  0  0  0  0  0  0  0  0  0  0  0
    3.3900   12.4527   -3.4331 H   0  0  0  0  0  0  0  0  0  0  0  0
    2.4511   13.5098    0.4678 H   0  0  0  0  0  0  0  0  0  0  0  0
    4.1001   13.3572   -0.2280 H   0  0  0  0  0  0  0  0  0  0  0  0
    3.2691   14.9497   -0.2280 H   0  0  0  0  0  0  0  0  0  0  0  0
    1.9974   14.4326   -3.5467 H   0  0  0  0  0  0  0  0  0  0  0  0
    4.4109   14.9973   -2.8437 H   0  0  0  0  0  0  0  0  0  0  0  0
    3.3762   16.2120   -3.7618 H   0  0  0  0  0  0  0  0  0  0  0  0
    4.8308   17.1763   -1.7891 H   0  0  0  0  0  0  0  0  0  0  0  0
    1.4012   16.0306    0.0057 H   0  0  0  0  0  0  0  0  0  0  0  0
    0.6164   18.5280   -1.6196 H   0  0  0  0  0  0  0  0  0  0  0  0
   -0.4785   17.5116   -0.5806 H   0  0  0  0  0  0  0  0  0  0  0  0
    0.1827   19.6185    0.5356 H   0  0  0  0  0  0  0  0  0  0  0  0
    0.7655   18.1450    1.4044 H   0  0  0  0  0  0  0  0  0  0  0  0
    2.5275   19.7745    1.3845 H   0  0  0  0  0  0  0  0  0  0  0  0
    2.8870   19.7420   -1.3840 H   0  0  0  0  0  0  0  0  0  0  0  0
    3.3737   18.0122    2.4390 H   0  0  0  0  0  0  0  0  0  0  0  0
    2.6363   16.5961    1.6157 H   0  0  0  0  0  0  0  0  0  0  0  0
    4.4202   16.8065    1.6157 H   0  0  0  0  0  0  0  0  0  0  0  0
    5.1977   19.0238    1.0436 H   0  0  0  0  0  0  0  0  0  0  0  0
    5.4024   18.1262   -0.4988 H   0  0  0  0  0  0  0  0  0  0  0  0
    4.6281   19.7471   -0.4988 H   0  0  0  0  0  0  0  0  0  0  0  0
    0.1298   17.5014   -2.9392 H   0  0  0  0  0  0  0  0  0  0  0  0
    1.4995   16.8504   -3.9019 H   0  0  0  0  0  0  0  0  0  0  0  0
   -0.0826   15.9998   -3.9019 H   0  0  0  0  0  0  0  0  0  0  0  0
   -0.7787   15.4951   -0.9622 H   0  0  0  0  0  0  0  0  0  0  0  0
   -0.6596   14.5890   -2.5742 H   0  0  0  0  0  0  0  0  0  0  0  0
    0.5034   13.7646    0.1005 H   0  0  0  0  0  0  0  0  0  0  0  0
   -0.8089   12.9678   -0.8536 H   0  0  0  0  0  0  0  0  0  0  0  0
   -0.3739   11.8066   -2.9344 H   0  0  0  0  0  0  0  0  0  0  0  0
    0.3618   13.2899   -3.6311 H   0  0  0  0  0  0  0  0  0  0  0  0
    1.2807   11.7464   -3.6311 H   0  0  0  0  0  0  0  0  0  0  0  0
  1  2  1  0
  2  3  1  0
  3  4  1  0
  4  5  1  0
  5  6  1  0
  6  7  1  0
  7  8  1  0
  7  9  1  0
  2 10  1  0
 10 11  1  0
 11 12  1  0
 12 13  1  0
 13 14  1  1
 13 15  1  0
 15 16  1  0
 16 17  1  0
 17 18  2  0
 18 19  1  0
 19 20  1  0
 20 21  1  0
 21 22  1  0
 22 23  1  0
 22 24  1  0
 24 25  1  0
 24 26  1  0
 19 27  1  0
 27 28  1  6
 27 29  1  0
 29 30  1  0
 30 31  1  0
 31 32  1  6
  7  5  1  0
 31 10  1  0
 31 13  1  0
 27 15  1  0
 24 18  1  0
  1 33  1  0
  1 34  1  0
  1 35  1  0
  2 36  1  6
  3 37  1  0
  3 38  1  0
  4 39  1  0
  4 40  1  0
  5 41  1  1
  8 42  1  0
  8 43  1  0
  8 44  1  0
  9 45  1  0
  9 46  1  0
  9 47  1  0
 10 48  1  1
 11 49  1  0
 11 50  1  0
 12 51  1  0
 12 52  1  0
 14 53  1  0
 14 54  1  0
 14 55  1  0
 15 56  1  6
 16 57  1  0
 16 58  1  0
 17 59  1  0
 19 60  1  1
 20 61  1  0
 20 62  1  0
 21 63  1  0
 21 64  1  0
 22 65  1  1
 23 66  1  0
 25 67  1  0
 25 68  1  0
 25 69  1  0
 26 70  1  0
 26 71  1  0
 26 72  1  0
 28 73  1  0
 28 74  1  0
 28 75  1  0
 29 76  1  0
 29 77  1  0
 30 78  1  0
 30 79  1  0
 32 80  1  0
 32 81  1  0
 32 82  1  0
M  END
>  <meeko>  (19) 
{"is_sidechain": [false], "intermolecular_energy": 2.731, "internal_energy": -0.839}

$$$$
