EPH_relaxed_0001_pdb2pqr_Repair_230_r2_0001_out
     RDKit          3D

 82 86  0  0  0  0  0  0  0  0999 V2000
   -1.6890    8.5900   -1.8910 C   0  0  0  0  0  0  0  0  0  0  0  0
   -2.0630    9.1110   -0.5000 C   0  0  2  0  0  0  0  0  0  0  0  0
   -3.5570    9.4810   -0.4020 C   0  0  0  0  0  0  0  0  0  0  0  0
   -4.4840    8.2690   -0.2750 C   0  0  0  0  0  0  0  0  0  0  0  0
   -5.1790    7.9650   -1.5680 C   0  0  2  0  0  0  0  0  0  0  0  0
   -6.3600    8.7400   -1.8090 O   0  0  0  0  0  0  0  0  0  0  0  0
   -6.5530    7.3260   -1.6490 C   0  0  0  0  0  0  0  0  0  0  0  0
   -7.3130    6.9500   -0.4160 C   0  0  0  0  0  0  0  0  0  0  0  0
   -6.9410    6.6230   -2.9120 C   0  0  0  0  0  0  0  0  0  0  0  0
   -1.2040   10.3200   -0.1500 C   0  0  1  0  0  0  0  0  0  0  0  0
   -0.1640   10.0120    0.9600 C   0  0  0  0  0  0  0  0  0  0  0  0
    1.1030   10.8430    0.6300 C   0  0  0  0  0  0  0  0  0  0  0  0
    0.6410   11.8440   -0.4550 C   0  0  1  0  0  0  0  0  0  0  0  0
   -0.0620   12.9930    0.3320 C   0  0  0  0  0  0  0  0  0  0  0  0
    1.7530   12.3920   -1.4070 C   0  0  2  0  0  0  0  0  0  0  0  0
    2.8600   13.2070   -0.7160 C   0  0  0  0  0  0  0  0  0  0  0  0
    2.6070   14.6760   -0.6250 C   0  0  0  0  0  0  0  0  0  0  0  0
    1.6780   15.3550   -1.3230 C   0  0  0  0  0  0  0  0  0  0  0  0
    0.8270   14.6540   -2.3900 C   0  0  1  0  0  0  0  0  0  0  0  0
    0.7890   15.5230   -3.6750 C   0  0  0  0  0  0  0  0  0  0  0  0
    0.3250   16.9500   -3.4030 C   0  0  0  0  0  0  0  0  0  0  0  0
    1.2310   17.6330   -2.3810 C   0  0  2  0  0  0  0  0  0  0  0  0
    2.5290   17.8070   -2.9590 O   0  0  0  0  0  0  0  0  0  0  0  0
    1.3540   16.8440   -1.0480 C   0  0  0  0  0  0  0  0  0  0  0  0
    0.0130   16.9150   -0.2760 C   0  0  0  0  0  0  0  0  0  0  0  0
    2.4040   17.5660   -0.1610 C   0  0  0  0  0  0  0  0  0  0  0  0
    1.1990   13.1380   -2.6880 C   0  0  1  0  0  0  0  0  0  0  0  0
    2.3250   13.0690   -3.7650 C   0  0  0  0  0  0  0  0  0  0  0  0
   -0.0540   12.4140   -3.3080 C   0  0  0  0  0  0  0  0  0  0  0  0
   -1.0550   11.7880   -2.3180 C   0  0  0  0  0  0  0  0  0  0  0  0
   -0.3320   10.9250   -1.2800 C   0  0  2  0  0  0  0  0  0  0  0  0
    0.3660    9.7460   -2.0400 C   0  0  0  0  0  0  0  0  0  0  0  0
   -1.0503    7.7002   -1.7897 H   0  0  0  0  0  0  0  0  0  0  0  0
   -2.6037    8.3241   -2.4411 H   0  0  0  0  0  0  0  0  0  0  0  0
   -1.1445    9.3716   -2.4411 H   0  0  0  0  0  0  0  0  0  0  0  0
   -1.8749    8.3002    0.2192 H   0  0  0  0  0  0  0  0  0  0  0  0
   -3.6991   10.1210    0.4813 H   0  0  0  0  0  0  0  0  0  0  0  0
   -3.8236    9.9930   -1.3384 H   0  0  0  0  0  0  0  0  0  0  0  0
   -3.8880    7.3940    0.0237 H   0  0  0  0  0  0  0  0  0  0  0  0
   -5.2498    8.5005    0.4799 H   0  0  0  0  0  0  0  0  0  0  0  0
   -4.2220    7.7212   -2.0525 H   0  0  0  0  0  0  0  0  0  0  0  0
   -6.7333    7.2368    0.4738 H   0  0  0  0  0  0  0  0  0  0  0  0
   -8.2805    7.4734   -0.4077 H   0  0  0  0  0  0  0  0  0  0  0  0
   -7.4839    5.8634   -0.4077 H   0  0  0  0  0  0  0  0  0  0  0  0
   -7.4590    5.6845   -2.6650 H   0  0  0  0  0  0  0  0  0  0  0  0
   -7.6109    7.2679   -3.4996 H   0  0  0  0  0  0  0  0  0  0  0  0
   -6.0383    6.3999   -3.4996 H   0  0  0  0  0  0  0  0  0  0  0  0
   -1.9935   11.0301    0.1372 H   0  0  0  0  0  0  0  0  0  0  0  0
   -0.5622   10.3029    1.9433 H   0  0  0  0  0  0  0  0  0  0  0  0
    0.0674    8.9372    0.9968 H   0  0  0  0  0  0  0  0  0  0  0  0
    1.4613   11.3761    1.5230 H   0  0  0  0  0  0  0  0  0  0  0  0
    1.9378   10.2133    0.2885 H   0  0  0  0  0  0  0  0  0  0  0  0
    0.0458   12.8168    1.4124 H   0  0  0  0  0  0  0  0  0  0  0  0
    0.4024   13.9549    0.0692 H   0  0  0  0  0  0  0  0  0  0  0  0
   -1.1299   13.0175    0.0692 H   0  0  0  0  0  0  0  0  0  0  0  0
    2.2379   11.4697   -1.7596 H   0  0  0  0  0  0  0  0  0  0  0  0
    2.9805   12.8187    0.3061 H   0  0  0  0  0  0  0  0  0  0  0  0
    3.7586   13.0906   -1.3397 H   0  0  0  0  0  0  0  0  0  0  0  0
    3.2333   15.2522    0.0719 H   0  0  0  0  0  0  0  0  0  0  0  0
   -0.1846   14.5707   -1.9661 H   0  0  0  0  0  0  0  0  0  0  0  0
    1.7999   15.5574   -4.1073 H   0  0  0  0  0  0  0  0  0  0  0  0
    0.0678   15.0638   -4.3671 H   0  0  0  0  0  0  0  0  0  0  0  0
    0.3477   17.5212   -4.3428 H   0  0  0  0  0  0  0  0  0  0  0  0
   -0.6973   16.9157   -2.9984 H   0  0  0  0  0  0  0  0  0  0  0  0
    0.7746   18.6020   -2.1308 H   0  0  0  0  0  0  0  0  0  0  0  0
    2.4990   18.6040   -3.5140 H   0  0  0  0  0  0  0  0  0  0  0  0
    0.2117   16.9045    0.8058 H   0  0  0  0  0  0  0  0  0  0  0  0
   -0.5150   17.8424   -0.5428 H   0  0  0  0  0  0  0  0  0  0  0  0
   -0.6100   16.0486   -0.5428 H   0  0  0  0  0  0  0  0  0  0  0  0
    2.1638   17.4008    0.8997 H   0  0  0  0  0  0  0  0  0  0  0  0
    3.4050   17.1643   -0.3771 H   0  0  0  0  0  0  0  0  0  0  0  0
    2.3872   18.6444   -0.3771 H   0  0  0  0  0  0  0  0  0  0  0  0
    3.3045   13.0090   -3.2681 H   0  0  0  0  0  0  0  0  0  0  0  0
    2.1774   12.1782   -4.3933 H   0  0  0  0  0  0  0  0  0  0  0  0
    2.2872   13.9711   -4.3933 H   0  0  0  0  0  0  0  0  0  0  0  0
   -0.6009   13.1535   -3.9113 H   0  0  0  0  0  0  0  0  0  0  0  0
    0.3557   11.5667   -3.8775 H   0  0  0  0  0  0  0  0  0  0  0  0
   -1.6002   12.5915   -1.8011 H   0  0  0  0  0  0  0  0  0  0  0  0
   -1.7523   11.1498   -2.8806 H   0  0  0  0  0  0  0  0  0  0  0  0
    0.7856    9.0372   -1.3109 H   0  0  0  0  0  0  0  0  0  0  0  0
   -0.3716    9.2290   -2.6713 H   0  0  0  0  0  0  0  0  0  0  0  0
    1.1741   10.1441   -2.6713 H   0  0  0  0  0  0  0  0  0  0  0  0
  1  2  1  0
  2  3  1  0
  3  4  1  0
  4  5  1  0
  5  6  1  0
  6  7  1  0
  7  8  1  0
  7  9  1  0
  2 10  1  0
 10 11  1  0
 11 12  1  0
 12 13  1  0
 13 14  1  1
 13 15  1  0
 15 16  1  0
 16 17  1  0
 17 18  2  0
 18 19  1  0
 19 20  1  0
 20 21  1  0
 21 22  1  0
 22 23  1  0
 22 24  1  0
 24 25  1  0
 24 26  1  0
 19 27  1  0
 27 28  1  6
 27 29  1  0
 29 30  1  0
 30 31  1  0
 31 32  1  6
  7  5  1  0
 31 10  1  0
 31 13  1  0
 27 15  1  0
 24 18  1  0
  1 33  1  0
  1 34  1  0
  1 35  1  0
  2 36  1  1
  3 37  1  0
  3 38  1  0
  4 39  1  0
  4 40  1  0
  5 41  1  6
  8 42  1  0
  8 43  1  0
  8 44  1  0
  9 45  1  0
  9 46  1  0
  9 47  1  0
 10 48  1  1
 11 49  1  0
 11 50  1  0
 12 51  1  0
 12 52  1  0
 14 53  1  0
 14 54  1  0
 14 55  1  0
 15 56  1  6
 16 57  1  0
 16 58  1  0
 17 59  1  0
 19 60  1  1
 20 61  1  0
 20 62  1  0
 21 63  1  0
 21 64  1  0
 22 65  1  1
 23 66  1  0
 25 67  1  0
 25 68  1  0
 25 69  1  0
 26 70  1  0
 26 71  1  0
 26 72  1  0
 28 73  1  0
 28 74  1  0
 28 75  1  0
 29 76  1  0
 29 77  1  0
 30 78  1  0
 30 79  1  0
 32 80  1  0
 32 81  1  0
 32 82  1  0
M  END
>  <meeko>  (1) 
{"is_sidechain": [false], "intermolecular_energy": 2.731, "internal_energy": -0.839}

$$$$
EPH_relaxed_0001_pdb2pqr_Repair_230_r2_0001_out
     RDKit          3D

 82 86  0  0  0  0  0  0  0  0999 V2000
    4.2140   17.6130   -0.6220 C   0  0  0  0  0  0  0  0  0  0  0  0
    2.8590   18.1740   -0.1810 C   0  0  2  0  0  0  0  0  0  0  0  0
    2.9320   18.8480    1.2030 C   0  0  0  0  0  0  0  0  0  0  0  0
    4.2890   18.6900    1.8940 C   0  0  0  0  0  0  0  0  0  0  0  0
    4.2730   19.2550    3.2830 C   0  0  2  0  0  0  0  0  0  0  0  0
    5.3200   20.1940    3.5590 O   0  0  0  0  0  0  0  0  0  0  0  0
    5.3510   18.9720    4.3130 C   0  0  0  0  0  0  0  0  0  0  0  0
    6.5200   18.0920    3.9980 C   0  0  0  0  0  0  0  0  0  0  0  0
    5.0190   19.1490    5.7620 C   0  0  0  0  0  0  0  0  0  0  0  0
    1.8170   17.0620   -0.1650 C   0  0  1  0  0  0  0  0  0  0  0  0
    0.3850   17.5800   -0.4650 C   0  0  0  0  0  0  0  0  0  0  0  0
   -0.3360   16.4650   -1.2650 C   0  0  0  0  0  0  0  0  0  0  0  0
    0.5760   15.2250   -1.1140 C   0  0  1  0  0  0  0  0  0  0  0  0
    0.2150   14.6300    0.2830 C   0  0  0  0  0  0  0  0  0  0  0  0
    0.4720   14.1490   -2.2440 C   0  0  2  0  0  0  0  0  0  0  0  0
   -0.9060   13.4790   -2.3820 C   0  0  0  0  0  0  0  0  0  0  0  0
   -1.0960   12.2390   -1.5720 C   0  0  0  0  0  0  0  0  0  0  0  0
   -0.1140   11.5280   -0.9880 C   0  0  0  0  0  0  0  0  0  0  0  0
    1.3600   11.8990   -1.1990 C   0  0  1  0  0  0  0  0  0  0  0  0
    2.1750   10.6200   -1.5230 C   0  0  0  0  0  0  0  0  0  0  0  0
    1.9930    9.5280   -0.4740 C   0  0  0  0  0  0  0  0  0  0  0  0
    0.5220    9.1450   -0.3360 C   0  0  2  0  0  0  0  0  0  0  0  0
    0.0930    8.5190   -1.5490 O   0  0  0  0  0  0  0  0  0  0  0  0
   -0.3990   10.3550   -0.0180 C   0  0  0  0  0  0  0  0  0  0  0  0
   -0.1350   10.8460    1.4270 C   0  0  0  0  0  0  0  0  0  0  0  0
   -1.8690    9.8560   -0.0440 C   0  0  0  0  0  0  0  0  0  0  0  0
    1.6370   13.0780   -2.2280 C   0  0  1  0  0  0  0  0  0  0  0  0
    1.7370   12.5080   -3.6760 C   0  0  0  0  0  0  0  0  0  0  0  0
    3.0370   13.7220   -1.9070 C   0  0  0  0  0  0  0  0  0  0  0  0
    3.0570   14.8610   -0.8700 C   0  0  0  0  0  0  0  0  0  0  0  0
    1.9880   15.9110   -1.1880 C   0  0  2  0  0  0  0  0  0  0  0  0
    2.3380   16.5430   -2.5780 C   0  0  0  0  0  0  0  0  0  0  0  0
    4.8144   17.3644    0.2656 H   0  0  0  0  0  0  0  0  0  0  0  0
    4.0569   16.7060   -1.2242 H   0  0  0  0  0  0  0  0  0  0  0  0
    4.7440   18.3656   -1.2242 H   0  0  0  0  0  0  0  0  0  0  0  0
    2.5678   18.9460   -0.9084 H   0  0  0  0  0  0  0  0  0  0  0  0
    2.7293   19.9218    1.0774 H   0  0  0  0  0  0  0  0  0  0  0  0
    2.1864   18.3519    1.8417 H   0  0  0  0  0  0  0  0  0  0  0  0
    4.5396   17.6203    1.9471 H   0  0  0  0  0  0  0  0  0  0  0  0
    5.0387   19.2418    1.3079 H   0  0  0  0  0  0  0  0  0  0  0  0
    3.1760   19.1855    3.3245 H   0  0  0  0  0  0  0  0  0  0  0  0
    6.9808   17.7451    4.9347 H   0  0  0  0  0  0  0  0  0  0  0  0
    6.1790   17.2245    3.4139 H   0  0  0  0  0  0  0  0  0  0  0  0
    7.2594   18.6596    3.4139 H   0  0  0  0  0  0  0  0  0  0  0  0
    5.8235   18.7201    6.3775 H   0  0  0  0  0  0  0  0  0  0  0  0
    4.9173   20.2210    5.9866 H   0  0  0  0  0  0  0  0  0  0  0  0
    4.0723   18.6359    5.9866 H   0  0  0  0  0  0  0  0  0  0  0  0
    1.9690   16.6831    0.8564 H   0  0  0  0  0  0  0  0  0  0  0  0
   -0.1506   17.7784    0.4751 H   0  0  0  0  0  0  0  0  0  0  0  0
    0.4167   18.5189   -1.0372 H   0  0  0  0  0  0  0  0  0  0  0  0
   -1.3329   16.2675   -0.8440 H   0  0  0  0  0  0  0  0  0  0  0  0
   -0.4930   16.7418   -2.3180 H   0  0  0  0  0  0  0  0  0  0  0  0
    0.6117   15.2838    1.0736 H   0  0  0  0  0  0  0  0  0  0  0  0
   -0.8784   14.5593    0.3800 H   0  0  0  0  0  0  0  0  0  0  0  0
    0.6573   13.6275    0.3800 H   0  0  0  0  0  0  0  0  0  0  0  0
    0.6039   14.7504   -3.1556 H   0  0  0  0  0  0  0  0  0  0  0  0
   -1.6705   14.2072   -2.0733 H   0  0  0  0  0  0  0  0  0  0  0  0
   -0.9907   13.1710   -3.4346 H   0  0  0  0  0  0  0  0  0  0  0  0
   -2.1261   11.8759   -1.4416 H   0  0  0  0  0  0  0  0  0  0  0  0
    1.7052   12.3288   -0.2471 H   0  0  0  0  0  0  0  0  0  0  0  0
    1.8467   10.2304   -2.4979 H   0  0  0  0  0  0  0  0  0  0  0  0
    3.2395   10.8970   -1.5348 H   0  0  0  0  0  0  0  0  0  0  0  0
    2.5696    8.6406   -0.7741 H   0  0  0  0  0  0  0  0  0  0  0  0
    2.3495    9.9083    0.4947 H   0  0  0  0  0  0  0  0  0  0  0  0
    0.4393    8.4559    0.5174 H   0  0  0  0  0  0  0  0  0  0  0  0
   -0.0980    7.5870   -1.3470 H   0  0  0  0  0  0  0  0  0  0  0  0
   -0.5307   10.1100    2.1424 H   0  0  0  0  0  0  0  0  0  0  0  0
    0.9477   10.9630    1.5824 H   0  0  0  0  0  0  0  0  0  0  0  0
   -0.6344   11.8137    1.5824 H   0  0  0  0  0  0  0  0  0  0  0  0
   -2.2326    9.7326    0.9868 H   0  0  0  0  0  0  0  0  0  0  0  0
   -2.4966   10.5914   -0.5686 H   0  0  0  0  0  0  0  0  0  0  0  0
   -1.9192    8.8905   -0.5686 H   0  0  0  0  0  0  0  0  0  0  0  0
    1.9269   11.4254   -3.6316 H   0  0  0  0  0  0  0  0  0  0  0  0
    0.7927   12.6930   -4.2089 H   0  0  0  0  0  0  0  0  0  0  0  0
    2.5619   13.0034   -4.2089 H   0  0  0  0  0  0  0  0  0  0  0  0
    3.6938   12.9219   -1.5350 H   0  0  0  0  0  0  0  0  0  0  0  0
    3.3631   14.1857   -2.8497 H   0  0  0  0  0  0  0  0  0  0  0  0
    2.8639   14.4419    0.1285 H   0  0  0  0  0  0  0  0  0  0  0  0
    4.0442   15.3453   -0.9001 H   0  0  0  0  0  0  0  0  0  0  0  0
    2.8657   17.4959   -2.4251 H   0  0  0  0  0  0  0  0  0  0  0  0
    2.9827   15.8533   -3.1425 H   0  0  0  0  0  0  0  0  0  0  0  0
    1.4113   16.7235   -3.1425 H   0  0  0  0  0  0  0  0  0  0  0  0
  1  2  1  0
  2  3  1  0
  3  4  1  0
  4  5  1  0
  5  6  1  0
  6  7  1  0
  7  8  1  0
  7  9  1  0
  2 10  1  0
 10 11  1  0
 11 12  1  0
 12 13  1  0
 13 14  1  1
 13 15  1  0
 15 16  1  0
 16 17  1  0
 17 18  2  0
 18 19  1  0
 19 20  1  0
 20 21  1  0
 21 22  1  0
 22 23  1  0
 22 24  1  0
 24 25  1  0
 24 26  1  0
 19 27  1  0
 27 28  1  6
 27 29  1  0
 29 30  1  0
 30 31  1  0
 31 32  1  6
  7  5  1  0
 31 10  1  0
 31 13  1  0
 27 15  1  0
 24 18  1  0
  1 33  1  0
  1 34  1  0
  1 35  1  0
  2 36  1  6
  3 37  1  0
  3 38  1  0
  4 39  1  0
  4 40  1  0
  5 41  1  1
  8 42  1  0
  8 43  1  0
  8 44  1  0
  9 45  1  0
  9 46  1  0
  9 47  1  0
 10 48  1  1
 11 49  1  0
 11 50  1  0
 12 51  1  0
 12 52  1  0
 14 53  1  0
 14 54  1  0
 14 55  1  0
 15 56  1  6
 16 57  1  0
 16 58  1  0
 17 59  1  0
 19 60  1  1
 20 61  1  0
 20 62  1  0
 21 63  1  0
 21 64  1  0
 22 65  1  1
 23 66  1  0
 25 67  1  0
 25 68  1  0
 25 69  1  0
 26 70  1  0
 26 71  1  0
 26 72  1  0
 28 73  1  0
 28 74  1  0
 28 75  1  0
 29 76  1  0
 29 77  1  0
 30 78  1  0
 30 79  1  0
 32 80  1  0
 32 81  1  0
 32 82  1  0
M  END
>  <meeko>  (2) 
{"is_sidechain": [false], "intermolecular_energy": 2.731, "internal_energy": -0.839}

$$$$
EPH_relaxed_0001_pdb2pqr_Repair_230_r2_0001_out
     RDKit          3D

 82 86  0  0  0  0  0  0  0  0999 V2000
    0.3910   18.4020   -0.0240 C   0  0  0  0  0  0  0  0  0  0  0  0
    1.4860   17.3570   -0.2540 C   0  0  2  0  0  0  0  0  0  0  0  0
    2.6890   17.9360   -1.0260 C   0  0  0  0  0  0  0  0  0  0  0  0
    3.9190   18.1860   -0.1500 C   0  0  0  0  0  0  0  0  0  0  0  0
    3.5370   18.6510    1.2230 C   0  0  2  0  0  0  0  0  0  0  0  0
    3.7940   20.0380    1.4790 O   0  0  0  0  0  0  0  0  0  0  0  0
    4.5450   19.0990    2.2650 C   0  0  0  0  0  0  0  0  0  0  0  0
    6.0140   19.1020    1.9800 C   0  0  0  0  0  0  0  0  0  0  0  0
    4.1450   19.0650    3.7080 C   0  0  0  0  0  0  0  0  0  0  0  0
    0.9130   16.1600   -1.0050 C   0  0  1  0  0  0  0  0  0  0  0  0
    0.7900   16.4150   -2.5310 C   0  0  0  0  0  0  0  0  0  0  0  0
    1.0790   15.0650   -3.2350 C   0  0  0  0  0  0  0  0  0  0  0  0
    1.0320   14.0150   -2.1000 C   0  0  1  0  0  0  0  0  0  0  0  0
   -0.4870   13.7220   -1.8880 C   0  0  0  0  0  0  0  0  0  0  0  0
    1.8450   12.7010   -2.3390 C   0  0  2  0  0  0  0  0  0  0  0  0
    1.3780   11.8530   -3.5350 C   0  0  0  0  0  0  0  0  0  0  0  0
    0.3430   10.8230   -3.2220 C   0  0  0  0  0  0  0  0  0  0  0  0
    0.0160   10.3930   -1.9890 C   0  0  0  0  0  0  0  0  0  0  0  0
    0.7840   10.8830   -0.7540 C   0  0  1  0  0  0  0  0  0  0  0  0
    1.1350    9.6730    0.1510 C   0  0  0  0  0  0  0  0  0  0  0  0
   -0.0910    8.8420    0.5180 C   0  0  0  0  0  0  0  0  0  0  0  0
   -0.7930    8.3250   -0.7340 C   0  0  2  0  0  0  0  0  0  0  0  0
    0.0650    7.3850   -1.3890 O   0  0  0  0  0  0  0  0  0  0  0  0
   -1.1870    9.4540   -1.7270 C   0  0  0  0  0  0  0  0  0  0  0  0
   -2.3400   10.2960   -1.1270 C   0  0  0  0  0  0  0  0  0  0  0  0
   -1.7580    8.7860   -3.0080 C   0  0  0  0  0  0  0  0  0  0  0  0
    2.0390   11.8140   -1.0430 C   0  0  1  0  0  0  0  0  0  0  0  0
    3.3060   10.9380   -1.2890 C   0  0  0  0  0  0  0  0  0  0  0  0
    2.3410   12.6820    0.2360 C   0  0  0  0  0  0  0  0  0  0  0  0
    1.5950   14.0250    0.3560 C   0  0  0  0  0  0  0  0  0  0  0  0
    1.7090   14.8330   -0.9400 C   0  0  2  0  0  0  0  0  0  0  0  0
    3.2240   15.1610   -1.1680 C   0  0  0  0  0  0  0  0  0  0  0  0
    0.2415   18.5447    1.0564 H   0  0  0  0  0  0  0  0  0  0  0  0
    0.6925   19.3558   -0.4816 H   0  0  0  0  0  0  0  0  0  0  0  0
   -0.5477   18.0563   -0.4816 H   0  0  0  0  0  0  0  0  0  0  0  0
    1.8503   17.0372    0.7334 H   0  0  0  0  0  0  0  0  0  0  0  0
    2.9662   17.2268   -1.8198 H   0  0  0  0  0  0  0  0  0  0  0  0
    2.3752   18.9115   -1.4259 H   0  0  0  0  0  0  0  0  0  0  0  0
    4.4909   17.2504   -0.0632 H   0  0  0  0  0  0  0  0  0  0  0  0
    4.5224   18.9745   -0.6234 H   0  0  0  0  0  0  0  0  0  0  0  0
    2.7065   17.9308    1.2613 H   0  0  0  0  0  0  0  0  0  0  0  0
    6.5715   19.1031    2.9283 H   0  0  0  0  0  0  0  0  0  0  0  0
    6.2770   18.2044    1.4011 H   0  0  0  0  0  0  0  0  0  0  0  0
    6.2734   20.0007    1.4011 H   0  0  0  0  0  0  0  0  0  0  0  0
    5.0426   19.1413    4.3392 H   0  0  0  0  0  0  0  0  0  0  0  0
    3.4732   19.9093    3.9223 H   0  0  0  0  0  0  0  0  0  0  0  0
    3.6254   18.1194    3.9223 H   0  0  0  0  0  0  0  0  0  0  0  0
   -0.0446   16.0507   -0.4748 H   0  0  0  0  0  0  0  0  0  0  0  0
   -0.2250   16.7606   -2.7766 H   0  0  0  0  0  0  0  0  0  0  0  0
    1.4969   17.1910   -2.8598 H   0  0  0  0  0  0  0  0  0  0  0  0
    0.3122   14.8509   -3.9940 H   0  0  0  0  0  0  0  0  0  0  0  0
    2.0449   15.0674   -3.7613 H   0  0  0  0  0  0  0  0  0  0  0  0
   -0.7054   13.6799   -0.8107 H   0  0  0  0  0  0  0  0  0  0  0  0
   -1.0829   14.5218   -2.3520 H   0  0  0  0  0  0  0  0  0  0  0  0
   -0.7427   12.7580   -2.3520 H   0  0  0  0  0  0  0  0  0  0  0  0
    2.8381   13.0854   -2.6147 H   0  0  0  0  0  0  0  0  0  0  0  0
    0.9618   12.5337   -4.2923 H   0  0  0  0  0  0  0  0  0  0  0  0
    2.2638   11.2991   -3.8793 H   0  0  0  0  0  0  0  0  0  0  0  0
   -0.1977   10.3782   -4.0704 H   0  0  0  0  0  0  0  0  0  0  0  0
    0.1023   11.5619   -0.2208 H   0  0  0  0  0  0  0  0  0  0  0  0
    1.8504    9.0296   -0.3822 H   0  0  0  0  0  0  0  0  0  0  0  0
    1.5629   10.0672    1.0845 H   0  0  0  0  0  0  0  0  0  0  0  0
    0.2248    7.9865    1.1331 H   0  0  0  0  0  0  0  0  0  0  0  0
   -0.7927    9.4787    1.0768 H   0  0  0  0  0  0  0  0  0  0  0  0
   -1.7314    7.8494   -0.4129 H   0  0  0  0  0  0  0  0  0  0  0  0
   -0.4970    6.7920   -1.9170 H   0  0  0  0  0  0  0  0  0  0  0  0
   -2.2885   10.2584   -0.0289 H   0  0  0  0  0  0  0  0  0  0  0  0
   -2.2455   11.3392   -1.4630 H   0  0  0  0  0  0  0  0  0  0  0  0
   -3.3049    9.8885   -1.4630 H   0  0  0  0  0  0  0  0  0  0  0  0
   -2.4484    7.9783   -2.7237 H   0  0  0  0  0  0  0  0  0  0  0  0
   -2.2977    9.5369   -3.6037 H   0  0  0  0  0  0  0  0  0  0  0  0
   -0.9322    8.3698   -3.6037 H   0  0  0  0  0  0  0  0  0  0  0  0
    3.7384   10.6391   -0.3227 H   0  0  0  0  0  0  0  0  0  0  0  0
    3.0258   10.0398   -1.8589 H   0  0  0  0  0  0  0  0  0  0  0  0
    4.0473   11.5174   -1.8589 H   0  0  0  0  0  0  0  0  0  0  0  0
    2.0816   12.0773    1.1175 H   0  0  0  0  0  0  0  0  0  0  0  0
    3.4051   12.9497    0.1576 H   0  0  0  0  0  0  0  0  0  0  0  0
    0.5331   13.8293    0.5658 H   0  0  0  0  0  0  0  0  0  0  0  0
    2.0481   14.6062    1.1727 H   0  0  0  0  0  0  0  0  0  0  0  0
    3.7260   15.2697   -0.1953 H   0  0  0  0  0  0  0  0  0  0  0  0
    3.6948   14.3440   -1.7344 H   0  0  0  0  0  0  0  0  0  0  0  0
    3.3148   16.0996   -1.7344 H   0  0  0  0  0  0  0  0  0  0  0  0
  1  2  1  0
  2  3  1  0
  3  4  1  0
  4  5  1  0
  5  6  1  0
  6  7  1  0
  7  8  1  0
  7  9  1  0
  2 10  1  0
 10 11  1  0
 11 12  1  0
 12 13  1  0
 13 14  1  1
 13 15  1  0
 15 16  1  0
 16 17  1  0
 17 18  2  0
 18 19  1  0
 19 20  1  0
 20 21  1  0
 21 22  1  0
 22 23  1  0
 22 24  1  0
 24 25  1  0
 24 26  1  0
 19 27  1  0
 27 28  1  6
 27 29  1  0
 29 30  1  0
 30 31  1  0
 31 32  1  6
  7  5  1  0
 31 10  1  0
 31 13  1  0
 27 15  1  0
 24 18  1  0
  1 33  1  0
  1 34  1  0
  1 35  1  0
  2 36  1  1
  3 37  1  0
  3 38  1  0
  4 39  1  0
  4 40  1  0
  5 41  1  1
  8 42  1  0
  8 43  1  0
  8 44  1  0
  9 45  1  0
  9 46  1  0
  9 47  1  0
 10 48  1  1
 11 49  1  0
 11 50  1  0
 12 51  1  0
 12 52  1  0
 14 53  1  0
 14 54  1  0
 14 55  1  0
 15 56  1  6
 16 57  1  0
 16 58  1  0
 17 59  1  0
 19 60  1  1
 20 61  1  0
 20 62  1  0
 21 63  1  0
 21 64  1  0
 22 65  1  1
 23 66  1  0
 25 67  1  0
 25 68  1  0
 25 69  1  0
 26 70  1  0
 26 71  1  0
 26 72  1  0
 28 73  1  0
 28 74  1  0
 28 75  1  0
 29 76  1  0
 29 77  1  0
 30 78  1  0
 30 79  1  0
 32 80  1  0
 32 81  1  0
 32 82  1  0
M  END
>  <meeko>  (3) 
{"is_sidechain": [false], "intermolecular_energy": 2.731, "internal_energy": -0.839}

$$$$
EPH_relaxed_0001_pdb2pqr_Repair_230_r2_0001_out
     RDKit          3D

 82 86  0  0  0  0  0  0  0  0999 V2000
    2.5530   17.9440   -2.6430 C   0  0  0  0  0  0  0  0  0  0  0  0
    1.2070   17.6310   -1.9840 C   0  0  2  0  0  0  0  0  0  0  0  0
    1.2780   17.7220   -0.4460 C   0  0  0  0  0  0  0  0  0  0  0  0
    0.9290   19.1070    0.1060 C   0  0  0  0  0  0  0  0  0  0  0  0
   -0.5120   19.1950    0.5090 C   0  0  2  0  0  0  0  0  0  0  0  0
   -1.3810   18.2790   -0.1690 O   0  0  0  0  0  0  0  0  0  0  0  0
   -1.6120   19.6740   -0.4200 C   0  0  0  0  0  0  0  0  0  0  0  0
   -1.3190   20.0970   -1.8250 C   0  0  0  0  0  0  0  0  0  0  0  0
   -2.8810   20.1920    0.1820 C   0  0  0  0  0  0  0  0  0  0  0  0
    0.7320   16.2440   -2.4020 C   0  0  1  0  0  0  0  0  0  0  0  0
    0.8240   16.0190   -3.9350 C   0  0  0  0  0  0  0  0  0  0  0  0
    1.1960   14.5290   -4.1470 C   0  0  0  0  0  0  0  0  0  0  0  0
    0.9830   13.8730   -2.7630 C   0  0  1  0  0  0  0  0  0  0  0  0
   -0.5530   13.6070   -2.6780 C   0  0  0  0  0  0  0  0  0  0  0  0
    1.8090   12.5770   -2.4770 C   0  0  2  0  0  0  0  0  0  0  0  0
    1.5050   11.3910   -3.4080 C   0  0  0  0  0  0  0  0  0  0  0  0
    0.4280   10.4700   -2.9370 C   0  0  0  0  0  0  0  0  0  0  0  0
   -0.0700   10.4240   -1.6880 C   0  0  0  0  0  0  0  0  0  0  0  0
    0.5240   11.2920   -0.5700 C   0  0  1  0  0  0  0  0  0  0  0  0
    0.7350   10.4270    0.7000 C   0  0  0  0  0  0  0  0  0  0  0  0
   -0.5370    9.7060    1.1350 C   0  0  0  0  0  0  0  0  0  0  0  0
   -1.0640    8.8080    0.0180 C   0  0  2  0  0  0  0  0  0  0  0  0
   -0.1310    7.7440   -0.1960 O   0  0  0  0  0  0  0  0  0  0  0  0
   -1.3060    9.5680   -1.3160 C   0  0  0  0  0  0  0  0  0  0  0  0
   -2.5230   10.5130   -1.1630 C   0  0  0  0  0  0  0  0  0  0  0  0
   -1.7000    8.5240   -2.3950 C   0  0  0  0  0  0  0  0  0  0  0  0
    1.8150   12.1330   -0.9580 C   0  0  1  0  0  0  0  0  0  0  0  0
    3.0960   11.2680   -0.7520 C   0  0  0  0  0  0  0  0  0  0  0  0
    1.9440   13.3580    0.0230 C   0  0  0  0  0  0  0  0  0  0  0  0
    1.2010   14.6480   -0.3750 C   0  0  0  0  0  0  0  0  0  0  0  0
    1.5000   15.0270   -1.8290 C   0  0  2  0  0  0  0  0  0  0  0  0
    3.0350   15.3220   -1.9400 C   0  0  0  0  0  0  0  0  0  0  0  0
    3.3102   18.1201   -1.8647 H   0  0  0  0  0  0  0  0  0  0  0  0
    2.8614   17.0936   -3.2689 H   0  0  0  0  0  0  0  0  0  0  0  0
    2.4545   18.8432   -3.2689 H   0  0  0  0  0  0  0  0  0  0  0  0
    0.4874   18.3890   -2.3271 H   0  0  0  0  0  0  0  0  0  0  0  0
    0.5731   16.9916   -0.0221 H   0  0  0  0  0  0  0  0  0  0  0  0
    2.3198   17.5153   -0.1597 H   0  0  0  0  0  0  0  0  0  0  0  0
    1.5583   19.3095    0.9852 H   0  0  0  0  0  0  0  0  0  0  0  0
    1.1098   19.8481   -0.6866 H   0  0  0  0  0  0  0  0  0  0  0  0
   -0.2323   19.4840    1.5329 H   0  0  0  0  0  0  0  0  0  0  0  0
   -0.6927   21.0012   -1.8126 H   0  0  0  0  0  0  0  0  0  0  0  0
   -0.7861   19.2890   -2.3476 H   0  0  0  0  0  0  0  0  0  0  0  0
   -2.2628   20.3118   -2.3476 H   0  0  0  0  0  0  0  0  0  0  0  0
   -2.8057   20.1613    1.2790 H   0  0  0  0  0  0  0  0  0  0  0  0
   -3.0454   21.2292   -0.1453 H   0  0  0  0  0  0  0  0  0  0  0  0
   -3.7243   19.5661   -0.1453 H   0  0  0  0  0  0  0  0  0  0  0  0
   -0.2903   16.2686   -1.9967 H   0  0  0  0  0  0  0  0  0  0  0  0
   -0.1441   16.2388   -4.4089 H   0  0  0  0  0  0  0  0  0  0  0  0
    1.5764   16.6820   -4.3870 H   0  0  0  0  0  0  0  0  0  0  0  0
    0.5399   14.0683   -4.9002 H   0  0  0  0  0  0  0  0  0  0  0  0
    2.2255   14.4042   -4.5138 H   0  0  0  0  0  0  0  0  0  0  0  0
   -0.8581   13.5542   -1.6225 H   0  0  0  0  0  0  0  0  0  0  0  0
   -1.0948   14.4247   -3.1758 H   0  0  0  0  0  0  0  0  0  0  0  0
   -0.7883   12.6547   -3.1758 H   0  0  0  0  0  0  0  0  0  0  0  0
    2.8341   12.8929   -2.7205 H   0  0  0  0  0  0  0  0  0  0  0  0
    1.2033   11.7950   -4.3856 H   0  0  0  0  0  0  0  0  0  0  0  0
    2.4252   10.7894   -3.4448 H   0  0  0  0  0  0  0  0  0  0  0  0
    0.0062    9.7701   -3.6734 H   0  0  0  0  0  0  0  0  0  0  0  0
   -0.2188   12.0775   -0.3667 H   0  0  0  0  0  0  0  0  0  0  0  0
    1.5115    9.6766    0.4904 H   0  0  0  0  0  0  0  0  0  0  0  0
    1.0328   11.1007    1.5170 H   0  0  0  0  0  0  0  0  0  0  0  0
   -0.3170    9.0895    2.0191 H   0  0  0  0  0  0  0  0  0  0  0  0
   -1.3036   10.4584    1.3720 H   0  0  0  0  0  0  0  0  0  0  0  0
   -2.0420    8.4202    0.3392 H   0  0  0  0  0  0  0  0  0  0  0  0
   -0.5700    6.9130    0.0540 H   0  0  0  0  0  0  0  0  0  0  0  0
   -2.7302   10.6739   -0.0948 H   0  0  0  0  0  0  0  0  0  0  0  0
   -2.3008   11.4776   -1.6428 H   0  0  0  0  0  0  0  0  0  0  0  0
   -3.4025   10.0588   -1.6428 H   0  0  0  0  0  0  0  0  0  0  0  0
   -2.0476    7.6029   -1.9043 H   0  0  0  0  0  0  0  0  0  0  0  0
   -2.5061    8.9317   -3.0227 H   0  0  0  0  0  0  0  0  0  0  0  0
   -0.8255    8.2975   -3.0227 H   0  0  0  0  0  0  0  0  0  0  0  0
    3.2837   11.1413    0.3244 H   0  0  0  0  0  0  0  0  0  0  0  0
    2.9514   10.2819   -1.2176 H   0  0  0  0  0  0  0  0  0  0  0  0
    3.9566   11.7706   -1.2176 H   0  0  0  0  0  0  0  0  0  0  0  0
    1.5589   13.0412    1.0035 H   0  0  0  0  0  0  0  0  0  0  0  0
    3.0110   13.6251    0.0112 H   0  0  0  0  0  0  0  0  0  0  0  0
    0.1185   14.4899   -0.2597 H   0  0  0  0  0  0  0  0  0  0  0  0
    1.5426   15.4649    0.2776 H   0  0  0  0  0  0  0  0  0  0  0  0
    3.4663   15.4049   -0.9315 H   0  0  0  0  0  0  0  0  0  0  0  0
    3.5276   14.5021   -2.4832 H   0  0  0  0  0  0  0  0  0  0  0  0
    3.1886   16.2661   -2.4832 H   0  0  0  0  0  0  0  0  0  0  0  0
  1  2  1  0
  2  3  1  0
  3  4  1  0
  4  5  1  0
  5  6  1  0
  6  7  1  0
  7  8  1  0
  7  9  1  0
  2 10  1  0
 10 11  1  0
 11 12  1  0
 12 13  1  0
 13 14  1  1
 13 15  1  0
 15 16  1  0
 16 17  1  0
 17 18  2  0
 18 19  1  0
 19 20  1  0
 20 21  1  0
 21 22  1  0
 22 23  1  0
 22 24  1  0
 24 25  1  0
 24 26  1  0
 19 27  1  0
 27 28  1  6
 27 29  1  0
 29 30  1  0
 30 31  1  0
 31 32  1  1
  7  5  1  0
 31 10  1  0
 31 13  1  0
 27 15  1  0
 24 18  1  0
  1 33  1  0
  1 34  1  0
  1 35  1  0
  2 36  1  6
  3 37  1  0
  3 38  1  0
  4 39  1  0
  4 40  1  0
  5 41  1  1
  8 42  1  0
  8 43  1  0
  8 44  1  0
  9 45  1  0
  9 46  1  0
  9 47  1  0
 10 48  1  1
 11 49  1  0
 11 50  1  0
 12 51  1  0
 12 52  1  0
 14 53  1  0
 14 54  1  0
 14 55  1  0
 15 56  1  6
 16 57  1  0
 16 58  1  0
 17 59  1  0
 19 60  1  1
 20 61  1  0
 20 62  1  0
 21 63  1  0
 21 64  1  0
 22 65  1  1
 23 66  1  0
 25 67  1  0
 25 68  1  0
 25 69  1  0
 26 70  1  0
 26 71  1  0
 26 72  1  0
 28 73  1  0
 28 74  1  0
 28 75  1  0
 29 76  1  0
 29 77  1  0
 30 78  1  0
 30 79  1  0
 32 80  1  0
 32 81  1  0
 32 82  1  0
M  END
>  <meeko>  (4) 
{"is_sidechain": [false], "intermolecular_energy": 2.731, "internal_energy": -0.839}

$$$$
EPH_relaxed_0001_pdb2pqr_Repair_230_r2_0001_out
     RDKit          3D

 82 86  0  0  0  0  0  0  0  0999 V2000
    3.7590   17.9180    0.7700 C   0  0  0  0  0  0  0  0  0  0  0  0
    2.7090   18.3790   -0.2450 C   0  0  2  0  0  0  0  0  0  0  0  0
    1.9860   19.6630    0.2110 C   0  0  0  0  0  0  0  0  0  0  0  0
    0.7460   19.3990    1.0690 C   0  0  0  0  0  0  0  0  0  0  0  0
   -0.4780   20.0360    0.4850 C   0  0  2  0  0  0  0  0  0  0  0  0
   -1.5680   20.1930    1.4040 O   0  0  0  0  0  0  0  0  0  0  0  0
   -1.7940   19.3050    0.2980 C   0  0  0  0  0  0  0  0  0  0  0  0
   -1.9530   17.8700    0.6930 C   0  0  0  0  0  0  0  0  0  0  0  0
   -2.7690   19.8320   -0.7090 C   0  0  0  0  0  0  0  0  0  0  0  0
    1.6950   17.2670   -0.4840 C   0  0  1  0  0  0  0  0  0  0  0  0
    0.4850   17.7350   -1.3360 C   0  0  0  0  0  0  0  0  0  0  0  0
    0.0640   16.5300   -2.2160 C   0  0  0  0  0  0  0  0  0  0  0  0
    0.8190   15.3230   -1.6110 C   0  0  1  0  0  0  0  0  0  0  0  0
   -0.0400   14.8880   -0.3830 C   0  0  0  0  0  0  0  0  0  0  0  0
    1.0940   14.1250   -2.5770 C   0  0  2  0  0  0  0  0  0  0  0  0
   -0.1640   13.4310   -3.1300 C   0  0  0  0  0  0  0  0  0  0  0  0
   -0.6730   12.2900   -2.3130 C   0  0  0  0  0  0  0  0  0  0  0  0
    0.0100   11.6580   -1.3400 C   0  0  0  0  0  0  0  0  0  0  0  0
    1.4710   12.0170   -1.0430 C   0  0  1  0  0  0  0  0  0  0  0  0
    2.3070   10.7170   -0.9100 C   0  0  0  0  0  0  0  0  0  0  0  0
    1.7230    9.7490    0.1160 C   0  0  0  0  0  0  0  0  0  0  0  0
    0.2890    9.3710   -0.2460 C   0  0  2  0  0  0  0  0  0  0  0  0
    0.3050    8.6070   -1.4560 O   0  0  0  0  0  0  0  0  0  0  0  0
   -0.6450   10.6020   -0.4160 C   0  0  0  0  0  0  0  0  0  0  0  0
   -0.9020   11.2550    0.9640 C   0  0  0  0  0  0  0  0  0  0  0  0
   -2.0220   10.0900   -0.9170 C   0  0  0  0  0  0  0  0  0  0  0  0
    2.1390   13.0730   -2.0250 C   0  0  1  0  0  0  0  0  0  0  0  0
    2.7350   12.3430   -3.2670 C   0  0  0  0  0  0  0  0  0  0  0  0
    3.3500   13.7620   -1.2920 C   0  0  0  0  0  0  0  0  0  0  0  0
    3.0330   15.0120   -0.4490 C   0  0  0  0  0  0  0  0  0  0  0  0
    2.1850   16.0090   -1.2440 C   0  0  2  0  0  0  0  0  0  0  0  0
    3.0320   16.4820   -2.4750 C   0  0  0  0  0  0  0  0  0  0  0  0
    3.3810   18.0840    1.7896 H   0  0  0  0  0  0  0  0  0  0  0  0
    3.9640   16.8471    0.6247 H   0  0  0  0  0  0  0  0  0  0  0  0
    4.6862   18.4918    0.6247 H   0  0  0  0  0  0  0  0  0  0  0  0
    3.2341   18.6112   -1.1833 H   0  0  0  0  0  0  0  0  0  0  0  0
    2.6918   20.2693    0.7978 H   0  0  0  0  0  0  0  0  0  0  0  0
    1.6441   20.1796   -0.6980 H   0  0  0  0  0  0  0  0  0  0  0  0
    0.5845   18.3131    1.1375 H   0  0  0  0  0  0  0  0  0  0  0  0
    0.9182   19.8355    2.0639 H   0  0  0  0  0  0  0  0  0  0  0  0
    0.1349   20.6391   -0.2010 H   0  0  0  0  0  0  0  0  0  0  0  0
   -1.9618   17.7905    1.7901 H   0  0  0  0  0  0  0  0  0  0  0  0
   -2.8997   17.4814    0.2896 H   0  0  0  0  0  0  0  0  0  0  0  0
   -1.1143   17.2836    0.2896 H   0  0  0  0  0  0  0  0  0  0  0  0
   -3.6213   20.2927   -0.1880 H   0  0  0  0  0  0  0  0  0  0  0  0
   -2.2739   20.5853   -1.3394 H   0  0  0  0  0  0  0  0  0  0  0  0
   -3.1280   19.0051   -1.3394 H   0  0  0  0  0  0  0  0  0  0  0  0
    1.4563   17.0081    0.5581 H   0  0  0  0  0  0  0  0  0  0  0  0
   -0.3464   18.0342   -0.6808 H   0  0  0  0  0  0  0  0  0  0  0  0
    0.7516   18.6031   -1.9568 H   0  0  0  0  0  0  0  0  0  0  0  0
   -1.0236   16.3730   -2.1651 H   0  0  0  0  0  0  0  0  0  0  0  0
    0.3060   16.6840   -3.2779 H   0  0  0  0  0  0  0  0  0  0  0  0
    0.4863   15.1545    0.5455 H   0  0  0  0  0  0  0  0  0  0  0  0
   -1.0116   15.4027   -0.4144 H   0  0  0  0  0  0  0  0  0  0  0  0
   -0.2001   13.8002   -0.4144 H   0  0  0  0  0  0  0  0  0  0  0  0
    1.5656   14.6204   -3.4385 H   0  0  0  0  0  0  0  0  0  0  0  0
   -0.9640   14.1827   -3.2000 H   0  0  0  0  0  0  0  0  0  0  0  0
    0.1255   13.0046   -4.1018 H   0  0  0  0  0  0  0  0  0  0  0  0
   -1.6927   11.9355   -2.5239 H   0  0  0  0  0  0  0  0  0  0  0  0
    1.4624   12.5556   -0.0839 H   0  0  0  0  0  0  0  0  0  0  0  0
    2.3390   10.2164   -1.8890 H   0  0  0  0  0  0  0  0  0  0  0  0
    3.3132   11.0002   -0.5675 H   0  0  0  0  0  0  0  0  0  0  0  0
    2.3394    8.8384    0.1435 H   0  0  0  0  0  0  0  0  0  0  0  0
    1.7191   10.2403    1.1002 H   0  0  0  0  0  0  0  0  0  0  0  0
   -0.1181    8.7825    0.5894 H   0  0  0  0  0  0  0  0  0  0  0  0
    1.1600    8.7630   -1.8910 H   0  0  0  0  0  0  0  0  0  0  0  0
   -0.6243   10.5494    1.7609 H   0  0  0  0  0  0  0  0  0  0  0  0
   -0.2964   12.1687    1.0558 H   0  0  0  0  0  0  0  0  0  0  0  0
   -1.9679   11.5108    1.0558 H   0  0  0  0  0  0  0  0  0  0  0  0
   -2.6610    9.8524   -0.0538 H   0  0  0  0  0  0  0  0  0  0  0  0
   -2.5034   10.8692   -1.5261 H   0  0  0  0  0  0  0  0  0  0  0  0
   -1.8774    9.1855   -1.5261 H   0  0  0  0  0  0  0  0  0  0  0  0
    3.3977   11.5313   -2.9322 H   0  0  0  0  0  0  0  0  0  0  0  0
    1.9182   11.9233   -3.8725 H   0  0  0  0  0  0  0  0  0  0  0  0
    3.3096   13.0593   -3.8725 H   0  0  0  0  0  0  0  0  0  0  0  0
    3.8020   13.0153   -0.6226 H   0  0  0  0  0  0  0  0  0  0  0  0
    4.0086   14.1183   -2.0978 H   0  0  0  0  0  0  0  0  0  0  0  0
    2.4802   14.7076    0.4520 H   0  0  0  0  0  0  0  0  0  0  0  0
    3.9803   15.4987   -0.1737 H   0  0  0  0  0  0  0  0  0  0  0  0
    3.9413   16.9898   -2.1211 H   0  0  0  0  0  0  0  0  0  0  0  0
    3.3125   15.6099   -3.0840 H   0  0  0  0  0  0  0  0  0  0  0  0
    2.4367   17.1782   -3.0840 H   0  0  0  0  0  0  0  0  0  0  0  0
  1  2  1  0
  2  3  1  0
  3  4  1  0
  4  5  1  0
  5  6  1  0
  6  7  1  0
  7  8  1  0
  7  9  1  0
  2 10  1  0
 10 11  1  0
 11 12  1  0
 12 13  1  0
 13 14  1  1
 13 15  1  0
 15 16  1  0
 16 17  1  0
 17 18  2  0
 18 19  1  0
 19 20  1  0
 20 21  1  0
 21 22  1  0
 22 23  1  0
 22 24  1  0
 24 25  1  0
 24 26  1  0
 19 27  1  0
 27 28  1  6
 27 29  1  0
 29 30  1  0
 30 31  1  0
 31 32  1  6
  7  5  1  0
 31 10  1  0
 31 13  1  0
 27 15  1  0
 24 18  1  0
  1 33  1  0
  1 34  1  0
  1 35  1  0
  2 36  1  6
  3 37  1  0
  3 38  1  0
  4 39  1  0
  4 40  1  0
  5 41  1  6
  8 42  1  0
  8 43  1  0
  8 44  1  0
  9 45  1  0
  9 46  1  0
  9 47  1  0
 10 48  1  1
 11 49  1  0
 11 50  1  0
 12 51  1  0
 12 52  1  0
 14 53  1  0
 14 54  1  0
 14 55  1  0
 15 56  1  6
 16 57  1  0
 16 58  1  0
 17 59  1  0
 19 60  1  1
 20 61  1  0
 20 62  1  0
 21 63  1  0
 21 64  1  0
 22 65  1  1
 23 66  1  0
 25 67  1  0
 25 68  1  0
 25 69  1  0
 26 70  1  0
 26 71  1  0
 26 72  1  0
 28 73  1  0
 28 74  1  0
 28 75  1  0
 29 76  1  0
 29 77  1  0
 30 78  1  0
 30 79  1  0
 32 80  1  0
 32 81  1  0
 32 82  1  0
M  END
>  <meeko>  (5) 
{"is_sidechain": [false], "intermolecular_energy": 2.731, "internal_energy": -0.839}

$$$$
EPH_relaxed_0001_pdb2pqr_Repair_230_r2_0001_out
     RDKit          3D

 82 86  0  0  0  0  0  0  0  0999 V2000
   -5.3420    5.6760   -1.5490 C   0  0  0  0  0  0  0  0  0  0  0  0
   -5.5270    7.1760   -1.7920 C   0  0  2  0  0  0  0  0  0  0  0  0
   -5.2130    8.0110   -0.5340 C   0  0  0  0  0  0  0  0  0  0  0  0
   -4.2190    9.1480   -0.7830 C   0  0  0  0  0  0  0  0  0  0  0  0
   -2.8490    8.8060   -0.2820 C   0  0  2  0  0  0  0  0  0  0  0  0
   -2.3700    9.6490    0.7750 O   0  0  0  0  0  0  0  0  0  0  0  0
   -1.6420    9.7090   -0.4620 C   0  0  0  0  0  0  0  0  0  0  0  0
   -1.7510   11.0240   -1.1680 C   0  0  0  0  0  0  0  0  0  0  0  0
   -0.2760    9.1010   -0.3880 C   0  0  0  0  0  0  0  0  0  0  0  0
   -6.9510    7.4540   -2.2590 C   0  0  1  0  0  0  0  0  0  0  0  0
   -7.2840    6.7590   -3.6060 C   0  0  0  0  0  0  0  0  0  0  0  0
   -8.7770    6.3450   -3.5390 C   0  0  0  0  0  0  0  0  0  0  0  0
   -9.3360    7.1010   -2.3100 C   0  0  1  0  0  0  0  0  0  0  0  0
   -9.6290    8.5440   -2.8270 C   0  0  0  0  0  0  0  0  0  0  0  0
  -10.5890    6.4680   -1.6220 C   0  0  2  0  0  0  0  0  0  0  0  0
  -11.8460    6.3840   -2.5050 C   0  0  0  0  0  0  0  0  0  0  0  0
  -12.7540    7.5670   -2.4350 C   0  0  0  0  0  0  0  0  0  0  0  0
  -12.7210    8.5240   -1.4900 C   0  0  0  0  0  0  0  0  0  0  0  0
  -11.7620    8.4200   -0.2970 C   0  0  1  0  0  0  0  0  0  0  0  0
  -12.5270    8.7420    1.0130 C   0  0  0  0  0  0  0  0  0  0  0  0
  -13.2440   10.0870    0.9570 C   0  0  0  0  0  0  0  0  0  0  0  0
  -14.2320   10.1310   -0.2070 C   0  0  2  0  0  0  0  0  0  0  0  0
  -15.2870    9.1990    0.0500 O   0  0  0  0  0  0  0  0  0  0  0  0
  -13.5760    9.8120   -1.5790 C   0  0  0  0  0  0  0  0  0  0  0  0
  -12.6500   10.9810   -1.9970 C   0  0  0  0  0  0  0  0  0  0  0  0
  -14.7040    9.7500   -2.6450 C   0  0  0  0  0  0  0  0  0  0  0  0
  -10.9220    7.0750   -0.1980 C   0  0  1  0  0  0  0  0  0  0  0  0
  -11.7410    5.9910    0.5670 C   0  0  0  0  0  0  0  0  0  0  0  0
   -9.6270    7.3390    0.6570 C   0  0  0  0  0  0  0  0  0  0  0  0
   -8.3860    7.8500   -0.1000 C   0  0  0  0  0  0  0  0  0  0  0  0
   -8.1060    6.9900   -1.3370 C   0  0  2  0  0  0  0  0  0  0  0  0
   -7.7860    5.5370   -0.8480 C   0  0  0  0  0  0  0  0  0  0  0  0
   -5.3178    5.4801   -0.4669 H   0  0  0  0  0  0  0  0  0  0  0  0
   -6.1790    5.1251   -2.0028 H   0  0  0  0  0  0  0  0  0  0  0  0
   -4.3962    5.3449   -2.0028 H   0  0  0  0  0  0  0  0  0  0  0  0
   -4.8135    7.4756   -2.5737 H   0  0  0  0  0  0  0  0  0  0  0  0
   -6.1525    8.4461   -0.1625 H   0  0  0  0  0  0  0  0  0  0  0  0
   -4.7482    7.3314    0.1954 H   0  0  0  0  0  0  0  0  0  0  0  0
   -4.1647    9.3436   -1.8641 H   0  0  0  0  0  0  0  0  0  0  0  0
   -4.5712   10.0367   -0.2388 H   0  0  0  0  0  0  0  0  0  0  0  0
   -3.0113    7.7394   -0.4967 H   0  0  0  0  0  0  0  0  0  0  0  0
   -1.8181   11.8338   -0.4265 H   0  0  0  0  0  0  0  0  0  0  0  0
   -0.8624   11.1766   -1.7982 H   0  0  0  0  0  0  0  0  0  0  0  0
   -2.6526   11.0282   -1.7982 H   0  0  0  0  0  0  0  0  0  0  0  0
    0.0117    8.9729    0.6659 H   0  0  0  0  0  0  0  0  0  0  0  0
   -0.2832    8.1211   -0.8878 H   0  0  0  0  0  0  0  0  0  0  0  0
    0.4472    9.7622   -0.8878 H   0  0  0  0  0  0  0  0  0  0  0  0
   -6.9203    8.5529   -2.2987 H   0  0  0  0  0  0  0  0  0  0  0  0
   -7.1212    7.4553   -4.4419 H   0  0  0  0  0  0  0  0  0  0  0  0
   -6.6384    5.8834   -3.7688 H   0  0  0  0  0  0  0  0  0  0  0  0
   -9.3056    6.6479   -4.4549 H   0  0  0  0  0  0  0  0  0  0  0  0
   -8.9048    5.2559   -3.4528 H   0  0  0  0  0  0  0  0  0  0  0  0
   -9.7662    9.2197   -1.9699 H   0  0  0  0  0  0  0  0  0  0  0  0
   -8.7835    8.8934   -3.4377 H   0  0  0  0  0  0  0  0  0  0  0  0
  -10.5438    8.5360   -3.4377 H   0  0  0  0  0  0  0  0  0  0  0  0
  -10.2689    5.4282   -1.4594 H   0  0  0  0  0  0  0  0  0  0  0  0
  -11.5207    6.2663   -3.5492 H   0  0  0  0  0  0  0  0  0  0  0  0
  -12.4278    5.5307   -2.1263 H   0  0  0  0  0  0  0  0  0  0  0  0
  -13.5149    7.6645   -3.2233 H   0  0  0  0  0  0  0  0  0  0  0  0
  -10.9815    9.1759   -0.4683 H   0  0  0  0  0  0  0  0  0  0  0  0
  -13.2723    7.9524    1.1891 H   0  0  0  0  0  0  0  0  0  0  0  0
  -11.7887    8.7912    1.8269 H   0  0  0  0  0  0  0  0  0  0  0  0
  -13.7903   10.2432    1.8989 H   0  0  0  0  0  0  0  0  0  0  0  0
  -12.4943   10.8787    0.8112 H   0  0  0  0  0  0  0  0  0  0  0  0
  -14.6172   11.1591   -0.2752 H   0  0  0  0  0  0  0  0  0  0  0  0
  -15.2370    8.5040   -0.6280 H   0  0  0  0  0  0  0  0  0  0  0  0
  -12.2570   11.4772   -1.0974 H   0  0  0  0  0  0  0  0  0  0  0  0
  -11.8136   10.5904   -2.5953 H   0  0  0  0  0  0  0  0  0  0  0  0
  -13.2217   11.7057   -2.5953 H   0  0  0  0  0  0  0  0  0  0  0  0
  -15.6810    9.6963   -2.1423 H   0  0  0  0  0  0  0  0  0  0  0  0
  -14.6642   10.6517   -3.2738 H   0  0  0  0  0  0  0  0  0  0  0  0
  -14.5656    8.8581   -3.2738 H   0  0  0  0  0  0  0  0  0  0  0  0
  -11.6269    6.1421    1.6506 H   0  0  0  0  0  0  0  0  0  0  0  0
  -12.8036    6.0745    0.2951 H   0  0  0  0  0  0  0  0  0  0  0  0
  -11.3704    4.9917    0.2951 H   0  0  0  0  0  0  0  0  0  0  0  0
   -9.8807    8.0867    1.4228 H   0  0  0  0  0  0  0  0  0  0  0  0
   -9.3375    6.3540    1.0519 H   0  0  0  0  0  0  0  0  0  0  0  0
   -8.5598    8.8892   -0.4160 H   0  0  0  0  0  0  0  0  0  0  0  0
   -7.5168    7.7922    0.5717 H   0  0  0  0  0  0  0  0  0  0  0  0
   -7.7807    5.5131    0.2517 H   0  0  0  0  0  0  0  0  0  0  0  0
   -8.5534    4.8455   -1.2261 H   0  0  0  0  0  0  0  0  0  0  0  0
   -6.7991    5.2319   -1.2261 H   0  0  0  0  0  0  0  0  0  0  0  0
  1  2  1  0
  2  3  1  0
  3  4  1  0
  4  5  1  0
  5  6  1  0
  6  7  1  0
  7  8  1  0
  7  9  1  0
  2 10  1  0
 10 11  1  0
 11 12  1  0
 12 13  1  0
 13 14  1  6
 13 15  1  0
 15 16  1  0
 16 17  1  0
 17 18  2  0
 18 19  1  0
 19 20  1  0
 20 21  1  0
 21 22  1  0
 22 23  1  0
 22 24  1  0
 24 25  1  0
 24 26  1  0
 19 27  1  0
 27 28  1  1
 27 29  1  0
 29 30  1  0
 30 31  1  0
 31 32  1  1
  7  5  1  0
 31 10  1  0
 31 13  1  0
 27 15  1  0
 24 18  1  0
  1 33  1  0
  1 34  1  0
  1 35  1  0
  2 36  1  6
  3 37  1  0
  3 38  1  0
  4 39  1  0
  4 40  1  0
  5 41  1  1
  8 42  1  0
  8 43  1  0
  8 44  1  0
  9 45  1  0
  9 46  1  0
  9 47  1  0
 10 48  1  6
 11 49  1  0
 11 50  1  0
 12 51  1  0
 12 52  1  0
 14 53  1  0
 14 54  1  0
 14 55  1  0
 15 56  1  1
 16 57  1  0
 16 58  1  0
 17 59  1  0
 19 60  1  6
 20 61  1  0
 20 62  1  0
 21 63  1  0
 21 64  1  0
 22 65  1  6
 23 66  1  0
 25 67  1  0
 25 68  1  0
 25 69  1  0
 26 70  1  0
 26 71  1  0
 26 72  1  0
 28 73  1  0
 28 74  1  0
 28 75  1  0
 29 76  1  0
 29 77  1  0
 30 78  1  0
 30 79  1  0
 32 80  1  0
 32 81  1  0
 32 82  1  0
M  END
>  <meeko>  (6) 
{"is_sidechain": [false], "intermolecular_energy": 2.731, "internal_energy": -0.839}

$$$$
EPH_relaxed_0001_pdb2pqr_Repair_230_r2_0001_out
     RDKit          3D

 82 86  0  0  0  0  0  0  0  0999 V2000
    0.4440    8.8260   -2.3880 C   0  0  0  0  0  0  0  0  0  0  0  0
    1.1880    9.9730   -3.0780 C   0  0  2  0  0  0  0  0  0  0  0  0
    2.6870    9.9920   -2.7180 C   0  0  0  0  0  0  0  0  0  0  0  0
    3.5770   10.5820   -3.8160 C   0  0  0  0  0  0  0  0  0  0  0  0
    4.9720   10.8260   -3.3270 C   0  0  2  0  0  0  0  0  0  0  0  0
    5.5640   12.0470   -3.7910 O   0  0  0  0  0  0  0  0  0  0  0  0
    6.1880   10.8310   -4.2350 C   0  0  0  0  0  0  0  0  0  0  0  0
    6.0640   10.5860   -5.7070 C   0  0  0  0  0  0  0  0  0  0  0  0
    7.5350   10.5890   -3.6290 C   0  0  0  0  0  0  0  0  0  0  0  0
    0.5470   11.3050   -2.7100 C   0  0  1  0  0  0  0  0  0  0  0  0
   -0.8270   11.1330   -2.0090 C   0  0  0  0  0  0  0  0  0  0  0  0
   -0.9420   12.2740   -0.9650 C   0  0  0  0  0  0  0  0  0  0  0  0
    0.2030   13.2490   -1.3250 C   0  0  1  0  0  0  0  0  0  0  0  0
   -0.3530   14.1040   -2.5060 C   0  0  0  0  0  0  0  0  0  0  0  0
    0.7360   14.1490   -0.1620 C   0  0  2  0  0  0  0  0  0  0  0  0
   -0.2950   15.1230    0.4340 C   0  0  0  0  0  0  0  0  0  0  0  0
   -0.3460   16.4690   -0.2090 C   0  0  0  0  0  0  0  0  0  0  0  0
    0.5910   16.9800   -1.0290 C   0  0  0  0  0  0  0  0  0  0  0  0
    1.8940   16.2190   -1.3080 C   0  0  1  0  0  0  0  0  0  0  0  0
    3.0980   17.1900   -1.1830 C   0  0  0  0  0  0  0  0  0  0  0  0
    2.9450   18.4260   -2.0640 C   0  0  0  0  0  0  0  0  0  0  0  0
    1.6680   19.1880   -1.7170 C   0  0  2  0  0  0  0  0  0  0  0  0
    1.7980   19.7290   -0.3990 O   0  0  0  0  0  0  0  0  0  0  0  0
    0.3890   18.3090   -1.7980 C   0  0  0  0  0  0  0  0  0  0  0  0
    0.0820   17.9720   -3.2780 C   0  0  0  0  0  0  0  0  0  0  0  0
   -0.8070   19.1580   -1.2890 C   0  0  0  0  0  0  0  0  0  0  0  0
    2.1030   14.8780   -0.4810 C   0  0  1  0  0  0  0  0  0  0  0  0
    2.7680   15.1980    0.8930 C   0  0  0  0  0  0  0  0  0  0  0  0
    3.1110   13.9480   -1.2550 C   0  0  0  0  0  0  0  0  0  0  0  0
    2.5100   12.9970   -2.3070 C   0  0  0  0  0  0  0  0  0  0  0  0
    1.3220   12.2210   -1.7300 C   0  0  2  0  0  0  0  0  0  0  0  0
    1.8560   11.3350   -0.5530 C   0  0  0  0  0  0  0  0  0  0  0  0
    0.5202    8.9434   -1.2969 H   0  0  0  0  0  0  0  0  0  0  0  0
   -0.6148    8.8441   -2.6857 H   0  0  0  0  0  0  0  0  0  0  0  0
    0.8922    7.8666   -2.6857 H   0  0  0  0  0  0  0  0  0  0  0  0
    1.1110    9.8115   -4.1634 H   0  0  0  0  0  0  0  0  0  0  0  0
    2.8173   10.5923   -1.8055 H   0  0  0  0  0  0  0  0  0  0  0  0
    2.9976    8.9458   -2.5803 H   0  0  0  0  0  0  0  0  0  0  0  0
    3.6134    9.8792   -4.6614 H   0  0  0  0  0  0  0  0  0  0  0  0
    3.1478   11.5469   -4.1238 H   0  0  0  0  0  0  0  0  0  0  0  0
    4.7581   10.3029   -2.3833 H   0  0  0  0  0  0  0  0  0  0  0  0
    5.5733    9.6164   -5.8773 H   0  0  0  0  0  0  0  0  0  0  0  0
    5.4625   11.3864   -6.1625 H   0  0  0  0  0  0  0  0  0  0  0  0
    7.0652   10.5752   -6.1625 H   0  0  0  0  0  0  0  0  0  0  0  0
    7.4517   10.6040   -2.5323 H   0  0  0  0  0  0  0  0  0  0  0  0
    7.9128    9.6086   -3.9547 H   0  0  0  0  0  0  0  0  0  0  0  0
    8.2304   11.3766   -3.9547 H   0  0  0  0  0  0  0  0  0  0  0  0
    0.5047   11.7705   -3.7057 H   0  0  0  0  0  0  0  0  0  0  0  0
   -1.6404   11.2100   -2.7455 H   0  0  0  0  0  0  0  0  0  0  0  0
   -0.9041   10.1472   -1.5271 H   0  0  0  0  0  0  0  0  0  0  0  0
   -1.9180   12.7753   -1.0435 H   0  0  0  0  0  0  0  0  0  0  0  0
   -0.8652   11.9036    0.0679 H   0  0  0  0  0  0  0  0  0  0  0  0
   -0.9116   14.9629   -2.1057 H   0  0  0  0  0  0  0  0  0  0  0  0
    0.4832   14.4655   -3.1224 H   0  0  0  0  0  0  0  0  0  0  0  0
   -1.0226   13.4863   -3.1224 H   0  0  0  0  0  0  0  0  0  0  0  0
    0.9440   13.4135    0.6291 H   0  0  0  0  0  0  0  0  0  0  0  0
   -1.2902   14.6637    0.3406 H   0  0  0  0  0  0  0  0  0  0  0  0
    0.0149   15.2946    1.4754 H   0  0  0  0  0  0  0  0  0  0  0  0
   -1.2237   17.0965    0.0054 H   0  0  0  0  0  0  0  0  0  0  0  0
    1.8170   15.8519   -2.3421 H   0  0  0  0  0  0  0  0  0  0  0  0
    3.1840   17.5123   -0.1348 H   0  0  0  0  0  0  0  0  0  0  0  0
    3.9978   16.6516   -1.5155 H   0  0  0  0  0  0  0  0  0  0  0  0
    3.8113   19.0865   -1.9113 H   0  0  0  0  0  0  0  0  0  0  0  0
    2.8876   18.1040   -3.1142 H   0  0  0  0  0  0  0  0  0  0  0  0
    1.5469   19.9866   -2.4637 H   0  0  0  0  0  0  0  0  0  0  0  0
    2.7460   19.7680   -0.1880 H   0  0  0  0  0  0  0  0  0  0  0  0
   -0.6582   17.1595   -3.3231 H   0  0  0  0  0  0  0  0  0  0  0  0
   -0.3209   18.8634   -3.7811 H   0  0  0  0  0  0  0  0  0  0  0  0
    1.0070   17.6537   -3.7811 H   0  0  0  0  0  0  0  0  0  0  0  0
   -0.8122   19.1617   -0.1890 H   0  0  0  0  0  0  0  0  0  0  0  0
   -0.7082   20.1893   -1.6587 H   0  0  0  0  0  0  0  0  0  0  0  0
   -1.7480   18.7245   -1.6587 H   0  0  0  0  0  0  0  0  0  0  0  0
    2.1011   14.8771    1.7067 H   0  0  0  0  0  0  0  0  0  0  0  0
    3.7254   14.6620    0.9707 H   0  0  0  0  0  0  0  0  0  0  0  0
    2.9465   16.2806    0.9707 H   0  0  0  0  0  0  0  0  0  0  0  0
    3.8357   14.5971   -1.7684 H   0  0  0  0  0  0  0  0  0  0  0  0
    3.5445   13.2908   -0.4868 H   0  0  0  0  0  0  0  0  0  0  0  0
    2.1694   13.5858   -3.1715 H   0  0  0  0  0  0  0  0  0  0  0  0
    3.2840   12.2774   -2.6120 H   0  0  0  0  0  0  0  0  0  0  0  0
    1.5788   11.7949    0.4071 H   0  0  0  0  0  0  0  0  0  0  0  0
    1.4128   10.3305   -0.6199 H   0  0  0  0  0  0  0  0  0  0  0  0
    2.9512   11.2577   -0.6199 H   0  0  0  0  0  0  0  0  0  0  0  0
  1  2  1  0
  2  3  1  0
  3  4  1  0
  4  5  1  0
  5  6  1  0
  6  7  1  0
  7  8  1  0
  7  9  1  0
  2 10  1  0
 10 11  1  0
 11 12  1  0
 12 13  1  0
 13 14  1  6
 13 15  1  0
 15 16  1  0
 16 17  1  0
 17 18  2  0
 18 19  1  0
 19 20  1  0
 20 21  1  0
 21 22  1  0
 22 23  1  0
 22 24  1  0
 24 25  1  0
 24 26  1  0
 19 27  1  0
 27 28  1  1
 27 29  1  0
 29 30  1  0
 30 31  1  0
 31 32  1  1
  7  5  1  0
 31 10  1  0
 31 13  1  0
 27 15  1  0
 24 18  1  0
  1 33  1  0
  1 34  1  0
  1 35  1  0
  2 36  1  6
  3 37  1  0
  3 38  1  0
  4 39  1  0
  4 40  1  0
  5 41  1  1
  8 42  1  0
  8 43  1  0
  8 44  1  0
  9 45  1  0
  9 46  1  0
  9 47  1  0
 10 48  1  6
 11 49  1  0
 11 50  1  0
 12 51  1  0
 12 52  1  0
 14 53  1  0
 14 54  1  0
 14 55  1  0
 15 56  1  1
 16 57  1  0
 16 58  1  0
 17 59  1  0
 19 60  1  6
 20 61  1  0
 20 62  1  0
 21 63  1  0
 21 64  1  0
 22 65  1  6
 23 66  1  0
 25 67  1  0
 25 68  1  0
 25 69  1  0
 26 70  1  0
 26 71  1  0
 26 72  1  0
 28 73  1  0
 28 74  1  0
 28 75  1  0
 29 76  1  0
 29 77  1  0
 30 78  1  0
 30 79  1  0
 32 80  1  0
 32 81  1  0
 32 82  1  0
M  END
>  <meeko>  (7) 
{"is_sidechain": [false], "intermolecular_energy": 2.731, "internal_energy": -0.839}

$$$$
EPH_relaxed_0001_pdb2pqr_Repair_230_r2_0001_out
     RDKit          3D

 82 86  0  0  0  0  0  0  0  0999 V2000
    2.9610   19.0000   -1.1160 C   0  0  0  0  0  0  0  0  0  0  0  0
    2.6500   17.9580   -2.1950 C   0  0  2  0  0  0  0  0  0  0  0  0
    1.2400   18.1430   -2.7910 C   0  0  0  0  0  0  0  0  0  0  0  0
    0.5190   19.3980   -2.2890 C   0  0  0  0  0  0  0  0  0  0  0  0
   -0.7780   19.0600   -1.6190 C   0  0  2  0  0  0  0  0  0  0  0  0
   -1.5730   20.1950   -1.2480 O   0  0  0  0  0  0  0  0  0  0  0  0
   -1.0790   19.3860   -0.1680 C   0  0  0  0  0  0  0  0  0  0  0  0
   -0.0760   20.0770    0.7010 C   0  0  0  0  0  0  0  0  0  0  0  0
   -2.1440   18.6030    0.5350 C   0  0  0  0  0  0  0  0  0  0  0  0
    2.7910   16.5550   -1.6180 C   0  0  1  0  0  0  0  0  0  0  0  0
    3.3880   16.5540   -0.1860 C   0  0  0  0  0  0  0  0  0  0  0  0
    2.7080   15.3920    0.5830 C   0  0  0  0  0  0  0  0  0  0  0  0
    1.9980   14.5630   -0.5130 C   0  0  1  0  0  0  0  0  0  0  0  0
    3.1190   13.6680   -1.1280 C   0  0  0  0  0  0  0  0  0  0  0  0
    0.7700   13.7140   -0.0500 C   0  0  2  0  0  0  0  0  0  0  0  0
    1.0860   12.6170    0.9810 C   0  0  0  0  0  0  0  0  0  0  0  0
    1.4360   11.2840    0.4080 C   0  0  0  0  0  0  0  0  0  0  0  0
    1.2190   10.8980   -0.8640 C   0  0  0  0  0  0  0  0  0  0  0  0
    0.4750   11.8100   -1.8470 C   0  0  1  0  0  0  0  0  0  0  0  0
   -0.5930   10.9850   -2.6130 C   0  0  0  0  0  0  0  0  0  0  0  0
   -0.0030    9.7520   -3.2910 C   0  0  0  0  0  0  0  0  0  0  0  0
    0.6780    8.8420   -2.2730 C   0  0  2  0  0  0  0  0  0  0  0  0
   -0.3190    8.2990   -1.4010 O   0  0  0  0  0  0  0  0  0  0  0  0
    1.7670    9.5670   -1.4340 C   0  0  0  0  0  0  0  0  0  0  0  0
    2.9870    9.8890   -2.3330 C   0  0  0  0  0  0  0  0  0  0  0  0
    2.2740    8.5770   -0.3520 C   0  0  0  0  0  0  0  0  0  0  0  0
   -0.1150   13.1540   -1.2370 C   0  0  1  0  0  0  0  0  0  0  0  0
   -1.5350   12.8920   -0.6480 C   0  0  0  0  0  0  0  0  0  0  0  0
   -0.3010   14.2060   -2.3930 C   0  0  0  0  0  0  0  0  0  0  0  0
    0.9120   15.0970   -2.7230 C   0  0  0  0  0  0  0  0  0  0  0  0
    1.4960   15.7200   -1.4520 C   0  0  2  0  0  0  0  0  0  0  0  0
    0.3980   16.6450   -0.8230 C   0  0  0  0  0  0  0  0  0  0  0  0
    2.8265   18.5494   -0.1216 H   0  0  0  0  0  0  0  0  0  0  0  0
    4.0005   19.3425   -1.2258 H   0  0  0  0  0  0  0  0  0  0  0  0
    2.2793   19.8563   -1.2258 H   0  0  0  0  0  0  0  0  0  0  0  0
    3.3746   18.0993   -3.0105 H   0  0  0  0  0  0  0  0  0  0  0  0
    1.3314   18.2093   -3.8852 H   0  0  0  0  0  0  0  0  0  0  0  0
    0.6400   17.2781   -2.4716 H   0  0  0  0  0  0  0  0  0  0  0  0
    1.1677   19.9180   -1.5687 H   0  0  0  0  0  0  0  0  0  0  0  0
    0.3008   20.0387   -3.1561 H   0  0  0  0  0  0  0  0  0  0  0  0
   -0.8634   18.1293   -2.1992 H   0  0  0  0  0  0  0  0  0  0  0  0
   -0.3262   19.9046    1.7582 H   0  0  0  0  0  0  0  0  0  0  0  0
    0.9274   19.6776    0.4918 H   0  0  0  0  0  0  0  0  0  0  0  0
   -0.0917   21.1568    0.4918 H   0  0  0  0  0  0  0  0  0  0  0  0
   -2.0125   18.6997    1.6228 H   0  0  0  0  0  0  0  0  0  0  0  0
   -3.1330   18.9906    0.2493 H   0  0  0  0  0  0  0  0  0  0  0  0
   -2.0690   17.5434    0.2493 H   0  0  0  0  0  0  0  0  0  0  0  0
    3.4336   16.1039   -2.3884 H   0  0  0  0  0  0  0  0  0  0  0  0
    4.4754   16.3940   -0.2294 H   0  0  0  0  0  0  0  0  0  0  0  0
    3.2102   17.5165    0.3160 H   0  0  0  0  0  0  0  0  0  0  0  0
    3.4581   14.7815    1.1071 H   0  0  0  0  0  0  0  0  0  0  0  0
    2.0092   15.7527    1.3521 H   0  0  0  0  0  0  0  0  0  0  0  0
    3.7017   13.2028   -0.3193 H   0  0  0  0  0  0  0  0  0  0  0  0
    2.6623   12.8833   -1.7491 H   0  0  0  0  0  0  0  0  0  0  0  0
    3.7831   14.2871   -1.7491 H   0  0  0  0  0  0  0  0  0  0  0  0
    0.1576   14.4564    0.4827 H   0  0  0  0  0  0  0  0  0  0  0  0
    1.9356   12.9584    1.5907 H   0  0  0  0  0  0  0  0  0  0  0  0
    0.1615   12.4666    1.5577 H   0  0  0  0  0  0  0  0  0  0  0  0
    1.9112   10.5554    1.0813 H   0  0  0  0  0  0  0  0  0  0  0  0
    1.2350   12.1817   -2.5500 H   0  0  0  0  0  0  0  0  0  0  0  0
   -1.3656   10.6601   -1.9006 H   0  0  0  0  0  0  0  0  0  0  0  0
   -1.0131   11.6298   -3.3989 H   0  0  0  0  0  0  0  0  0  0  0  0
   -0.8100    9.1944   -3.7889 H   0  0  0  0  0  0  0  0  0  0  0  0
    0.7476   10.0808   -4.0248 H   0  0  0  0  0  0  0  0  0  0  0  0
    1.1921    8.0471   -2.8333 H   0  0  0  0  0  0  0  0  0  0  0  0
   -1.0020    7.8870   -1.9560 H   0  0  0  0  0  0  0  0  0  0  0  0
    3.8576   10.1188   -1.7011 H   0  0  0  0  0  0  0  0  0  0  0  0
    3.2140    9.0200   -2.9681 H   0  0  0  0  0  0  0  0  0  0  0  0
    2.7556   10.7568   -2.9681 H   0  0  0  0  0  0  0  0  0  0  0  0
    2.0642    8.9867    0.6470 H   0  0  0  0  0  0  0  0  0  0  0  0
    1.7592    7.6118   -0.4680 H   0  0  0  0  0  0  0  0  0  0  0  0
    3.3580    8.4306   -0.4680 H   0  0  0  0  0  0  0  0  0  0  0  0
   -1.4837   12.9015    0.4508 H   0  0  0  0  0  0  0  0  0  0  0  0
   -2.2244   13.6781   -0.9897 H   0  0  0  0  0  0  0  0  0  0  0  0
   -1.8985   11.9116   -0.9897 H   0  0  0  0  0  0  0  0  0  0  0  0
   -0.5663   13.6534   -3.3064 H   0  0  0  0  0  0  0  0  0  0  0  0
   -1.0762   14.8975   -2.0311 H   0  0  0  0  0  0  0  0  0  0  0  0
    1.6849   14.4860   -3.2122 H   0  0  0  0  0  0  0  0  0  0  0  0
    0.5815   15.9064   -3.3906 H   0  0  0  0  0  0  0  0  0  0  0  0
    0.4594   16.5932    0.2741 H   0  0  0  0  0  0  0  0  0  0  0  0
    0.5607   17.6823   -1.1508 H   0  0  0  0  0  0  0  0  0  0  0  0
   -0.5967   16.3086   -1.1508 H   0  0  0  0  0  0  0  0  0  0  0  0
  1  2  1  0
  2  3  1  0
  3  4  1  0
  4  5  1  0
  5  6  1  0
  6  7  1  0
  7  8  1  0
  7  9  1  0
  2 10  1  0
 10 11  1  0
 11 12  1  0
 12 13  1  0
 13 14  1  6
 13 15  1  0
 15 16  1  0
 16 17  1  0
 17 18  2  0
 18 19  1  0
 19 20  1  0
 20 21  1  0
 21 22  1  0
 22 23  1  0
 22 24  1  0
 24 25  1  0
 24 26  1  0
 19 27  1  0
 27 28  1  1
 27 29  1  0
 29 30  1  0
 30 31  1  0
 31 32  1  1
  7  5  1  0
 31 10  1  0
 31 13  1  0
 27 15  1  0
 24 18  1  0
  1 33  1  0
  1 34  1  0
  1 35  1  0
  2 36  1  6
  3 37  1  0
  3 38  1  0
  4 39  1  0
  4 40  1  0
  5 41  1  6
  8 42  1  0
  8 43  1  0
  8 44  1  0
  9 45  1  0
  9 46  1  0
  9 47  1  0
 10 48  1  6
 11 49  1  0
 11 50  1  0
 12 51  1  0
 12 52  1  0
 14 53  1  0
 14 54  1  0
 14 55  1  0
 15 56  1  1
 16 57  1  0
 16 58  1  0
 17 59  1  0
 19 60  1  6
 20 61  1  0
 20 62  1  0
 21 63  1  0
 21 64  1  0
 22 65  1  6
 23 66  1  0
 25 67  1  0
 25 68  1  0
 25 69  1  0
 26 70  1  0
 26 71  1  0
 26 72  1  0
 28 73  1  0
 28 74  1  0
 28 75  1  0
 29 76  1  0
 29 77  1  0
 30 78  1  0
 30 79  1  0
 32 80  1  0
 32 81  1  0
 32 82  1  0
M  END
>  <meeko>  (8) 
{"is_sidechain": [false], "intermolecular_energy": 2.731, "internal_energy": -0.839}

$$$$
EPH_relaxed_0001_pdb2pqr_Repair_230_r2_0001_out
     RDKit          3D

 82 86  0  0  0  0  0  0  0  0999 V2000
   -0.0020   20.1940   -2.2930 C   0  0  0  0  0  0  0  0  0  0  0  0
   -0.0170   19.0970   -1.2260 C   0  0  2  0  0  0  0  0  0  0  0  0
    0.6610   19.5500    0.0830 C   0  0  0  0  0  0  0  0  0  0  0  0
    2.1690   19.7740   -0.0510 C   0  0  0  0  0  0  0  0  0  0  0  0
    2.8290   19.9210    1.2860 C   0  0  2  0  0  0  0  0  0  0  0  0
    4.2360   20.1930    1.2340 O   0  0  0  0  0  0  0  0  0  0  0  0
    3.8540   18.9410    1.8260 C   0  0  0  0  0  0  0  0  0  0  0  0
    4.2760   17.7410    1.0380 C   0  0  0  0  0  0  0  0  0  0  0  0
    4.0770   18.8800    3.3050 C   0  0  0  0  0  0  0  0  0  0  0  0
    0.6660   17.8430   -1.7590 C   0  0  1  0  0  0  0  0  0  0  0  0
    2.1650   18.0740   -2.0870 C   0  0  0  0  0  0  0  0  0  0  0  0
    2.9050   16.7540   -1.7480 C   0  0  0  0  0  0  0  0  0  0  0  0
    1.7780   15.7130   -1.5550 C   0  0  1  0  0  0  0  0  0  0  0  0
    1.3900   15.2700   -3.0000 C   0  0  0  0  0  0  0  0  0  0  0  0
    2.1180   14.4860   -0.6470 C   0  0  2  0  0  0  0  0  0  0  0  0
    3.2550   13.5880   -1.1640 C   0  0  0  0  0  0  0  0  0  0  0  0
    2.8270   12.4610   -2.0450 C   0  0  0  0  0  0  0  0  0  0  0  0
    1.5660   12.0080   -2.1780 C   0  0  0  0  0  0  0  0  0  0  0  0
    0.4280   12.5820   -1.3240 C   0  0  1  0  0  0  0  0  0  0  0  0
   -0.4230   11.4200   -0.7480 C   0  0  0  0  0  0  0  0  0  0  0  0
   -0.9280   10.4720   -1.8310 C   0  0  0  0  0  0  0  0  0  0  0  0
    0.2350    9.8770   -2.6210 C   0  0  2  0  0  0  0  0  0  0  0  0
    0.9920    9.0250   -1.7560 O   0  0  0  0  0  0  0  0  0  0  0  0
    1.1690   10.9540   -3.2410 C   0  0  0  0  0  0  0  0  0  0  0  0
    0.4330   11.6800   -4.3940 C   0  0  0  0  0  0  0  0  0  0  0  0
    2.3760   10.2230   -3.8890 C   0  0  0  0  0  0  0  0  0  0  0  0
    0.8590   13.6330   -0.2120 C   0  0  1  0  0  0  0  0  0  0  0  0
    1.2570   12.8880    1.0990 C   0  0  0  0  0  0  0  0  0  0  0  0
   -0.3800   14.5350    0.1490 C   0  0  0  0  0  0  0  0  0  0  0  0
   -0.5940   15.7970   -0.7090 C   0  0  0  0  0  0  0  0  0  0  0  0
    0.7030   16.6030   -0.8310 C   0  0  2  0  0  0  0  0  0  0  0  0
    1.1070   17.0810    0.6050 C   0  0  0  0  0  0  0  0  0  0  0  0
    0.0115   21.1798   -1.8052 H   0  0  0  0  0  0  0  0  0  0  0  0
    0.8947   20.0831   -2.9204 H   0  0  0  0  0  0  0  0  0  0  0  0
   -0.9014   20.1076   -2.9204 H   0  0  0  0  0  0  0  0  0  0  0  0
   -1.0694   18.8768   -0.9937 H   0  0  0  0  0  0  0  0  0  0  0  0
    0.1970   20.4936    0.4059 H   0  0  0  0  0  0  0  0  0  0  0  0
    0.5199   18.7410    0.8149 H   0  0  0  0  0  0  0  0  0  0  0  0
    2.6119   18.9138   -0.5744 H   0  0  0  0  0  0  0  0  0  0  0  0
    2.3283   20.7043   -0.6159 H   0  0  0  0  0  0  0  0  0  0  0  0
    1.9090   20.3403    1.7193 H   0  0  0  0  0  0  0  0  0  0  0  0
    4.5606   16.9317    1.7265 H   0  0  0  0  0  0  0  0  0  0  0  0
    3.4415   17.4066    0.4041 H   0  0  0  0  0  0  0  0  0  0  0  0
    5.1361   18.0025    0.4041 H   0  0  0  0  0  0  0  0  0  0  0  0
    3.1433   19.1354    3.8274 H   0  0  0  0  0  0  0  0  0  0  0  0
    4.3888   17.8636    3.5872 H   0  0  0  0  0  0  0  0  0  0  0  0
    4.8628   19.5962    3.5872 H   0  0  0  0  0  0  0  0  0  0  0  0
    0.0258   17.6407   -2.6303 H   0  0  0  0  0  0  0  0  0  0  0  0
    2.2869   18.3136   -3.1536 H   0  0  0  0  0  0  0  0  0  0  0  0
    2.5715   18.9153   -1.5065 H   0  0  0  0  0  0  0  0  0  0  0  0
    3.5694   16.4584   -2.5733 H   0  0  0  0  0  0  0  0  0  0  0  0
    3.5413   16.8499   -0.8558 H   0  0  0  0  0  0  0  0  0  0  0  0
    0.6661   14.4434   -2.9481 H   0  0  0  0  0  0  0  0  0  0  0  0
    0.9396   16.1189   -3.5353 H   0  0  0  0  0  0  0  0  0  0  0  0
    2.2909   14.9354   -3.5353 H   0  0  0  0  0  0  0  0  0  0  0  0
    2.5070   14.9660    0.2631 H   0  0  0  0  0  0  0  0  0  0  0  0
    3.9537   14.2183   -1.7337 H   0  0  0  0  0  0  0  0  0  0  0  0
    3.7054   13.1244   -0.2739 H   0  0  0  0  0  0  0  0  0  0  0  0
    3.6076   11.9585   -2.6351 H   0  0  0  0  0  0  0  0  0  0  0  0
   -0.1853   13.1923   -2.0033 H   0  0  0  0  0  0  0  0  0  0  0  0
    0.1943   10.8486   -0.0391 H   0  0  0  0  0  0  0  0  0  0  0  0
   -1.3015   11.8620   -0.2551 H   0  0  0  0  0  0  0  0  0  0  0  0
   -1.4971    9.6573   -1.3595 H   0  0  0  0  0  0  0  0  0  0  0  0
   -1.5688   11.0386   -2.5226 H   0  0  0  0  0  0  0  0  0  0  0  0
   -0.1928    9.3109   -3.4615 H   0  0  0  0  0  0  0  0  0  0  0  0
    1.6240    8.5330   -2.3060 H   0  0  0  0  0  0  0  0  0  0  0  0
   -0.2910   12.3941   -3.9747 H   0  0  0  0  0  0  0  0  0  0  0  0
    1.1643   12.2202   -5.0132 H   0  0  0  0  0  0  0  0  0  0  0  0
   -0.0971   10.9414   -5.0132 H   0  0  0  0  0  0  0  0  0  0  0  0
    3.0312    9.8262   -3.0995 H   0  0  0  0  0  0  0  0  0  0  0  0
    2.0106    9.3942   -4.5133 H   0  0  0  0  0  0  0  0  0  0  0  0
    2.9412   10.9307   -4.5133 H   0  0  0  0  0  0  0  0  0  0  0  0
    0.9398   13.4818    1.9689 H   0  0  0  0  0  0  0  0  0  0  0  0
    0.7638   11.9052    1.1264 H   0  0  0  0  0  0  0  0  0  0  0  0
    2.3482   12.7516    1.1264 H   0  0  0  0  0  0  0  0  0  0  0  0
   -1.2826   13.9130    0.0569 H   0  0  0  0  0  0  0  0  0  0  0  0
   -0.1787   14.9078    1.1641 H   0  0  0  0  0  0  0  0  0  0  0  0
   -0.9272   15.4970   -1.7135 H   0  0  0  0  0  0  0  0  0  0  0  0
   -1.3541   16.4267   -0.2235 H   0  0  0  0  0  0  0  0  0  0  0  0
    0.5879   16.4668    1.3555 H   0  0  0  0  0  0  0  0  0  0  0  0
    2.1944   16.9762    0.7340 H   0  0  0  0  0  0  0  0  0  0  0  0
    0.8225   18.1357    0.7340 H   0  0  0  0  0  0  0  0  0  0  0  0
  1  2  1  0
  2  3  1  0
  3  4  1  0
  4  5  1  0
  5  6  1  0
  6  7  1  0
  7  8  1  0
  7  9  1  0
  2 10  1  0
 10 11  1  0
 11 12  1  0
 12 13  1  0
 13 14  1  6
 13 15  1  0
 15 16  1  0
 16 17  1  0
 17 18  2  0
 18 19  1  0
 19 20  1  0
 20 21  1  0
 21 22  1  0
 22 23  1  0
 22 24  1  0
 24 25  1  0
 24 26  1  0
 19 27  1  0
 27 28  1  1
 27 29  1  0
 29 30  1  0
 30 31  1  0
 31 32  1  1
  7  5  1  0
 31 10  1  0
 31 13  1  0
 27 15  1  0
 24 18  1  0
  1 33  1  0
  1 34  1  0
  1 35  1  0
  2 36  1  1
  3 37  1  0
  3 38  1  0
  4 39  1  0
  4 40  1  0
  5 41  1  1
  8 42  1  0
  8 43  1  0
  8 44  1  0
  9 45  1  0
  9 46  1  0
  9 47  1  0
 10 48  1  6
 11 49  1  0
 11 50  1  0
 12 51  1  0
 12 52  1  0
 14 53  1  0
 14 54  1  0
 14 55  1  0
 15 56  1  1
 16 57  1  0
 16 58  1  0
 17 59  1  0
 19 60  1  6
 20 61  1  0
 20 62  1  0
 21 63  1  0
 21 64  1  0
 22 65  1  6
 23 66  1  0
 25 67  1  0
 25 68  1  0
 25 69  1  0
 26 70  1  0
 26 71  1  0
 26 72  1  0
 28 73  1  0
 28 74  1  0
 28 75  1  0
 29 76  1  0
 29 77  1  0
 30 78  1  0
 30 79  1  0
 32 80  1  0
 32 81  1  0
 32 82  1  0
M  END
>  <meeko>  (9) 
{"is_sidechain": [false], "intermolecular_energy": 2.731, "internal_energy": -0.839}

$$$$
EPH_relaxed_0001_pdb2pqr_Repair_230_r2_0001_out
     RDKit          3D

 82 86  0  0  0  0  0  0  0  0999 V2000
   -3.7370    7.2030   -3.4450 C   0  0  0  0  0  0  0  0  0  0  0  0
   -3.7640    7.2740   -1.9150 C   0  0  2  0  0  0  0  0  0  0  0  0
   -5.1810    7.0520   -1.3490 C   0  0  0  0  0  0  0  0  0  0  0  0
   -6.2960    7.2800   -2.3730 C   0  0  0  0  0  0  0  0  0  0  0  0
   -7.6220    7.4960   -1.7090 C   0  0  2  0  0  0  0  0  0  0  0  0
   -8.2040    6.3170   -1.1370 O   0  0  0  0  0  0  0  0  0  0  0  0
   -8.9230    6.9120   -2.2290 C   0  0  0  0  0  0  0  0  0  0  0  0
   -8.9600    6.0670   -3.4640 C   0  0  0  0  0  0  0  0  0  0  0  0
  -10.2100    7.5580   -1.8230 C   0  0  0  0  0  0  0  0  0  0  0  0
   -3.2210    8.6200   -1.4480 C   0  0  1  0  0  0  0  0  0  0  0  0
   -3.8460    9.0820   -0.1040 C   0  0  0  0  0  0  0  0  0  0  0  0
   -2.7330    9.8340    0.6700 C   0  0  0  0  0  0  0  0  0  0  0  0
   -1.6190   10.0690   -0.3770 C   0  0  1  0  0  0  0  0  0  0  0  0
   -2.0830   11.3240   -1.1810 C   0  0  0  0  0  0  0  0  0  0  0  0
   -0.1710   10.2460    0.1840 C   0  0  2  0  0  0  0  0  0  0  0  0
    0.0310   11.4660    1.0980 C   0  0  0  0  0  0  0  0  0  0  0  0
    0.4490   12.7210    0.4040 C   0  0  0  0  0  0  0  0  0  0  0  0
    0.9280   12.7980   -0.8510 C   0  0  0  0  0  0  0  0  0  0  0  0
    1.1840   11.5290   -1.6750 C   0  0  1  0  0  0  0  0  0  0  0  0
    2.5780   11.6220   -2.3500 C   0  0  0  0  0  0  0  0  0  0  0  0
    2.7470   12.8970   -3.1720 C   0  0  0  0  0  0  0  0  0  0  0  0
    2.5420   14.1360   -2.3040 C   0  0  2  0  0  0  0  0  0  0  0  0
    3.6050   14.2110   -1.3490 O   0  0  0  0  0  0  0  0  0  0  0  0
    1.1740   14.1490   -1.5660 C   0  0  0  0  0  0  0  0  0  0  0  0
    0.0330   14.3720   -2.5890 C   0  0  0  0  0  0  0  0  0  0  0  0
    1.1540   15.3790   -0.6190 C   0  0  0  0  0  0  0  0  0  0  0  0
    0.9650   10.1520   -0.9140 C   0  0  1  0  0  0  0  0  0  0  0  0
    2.2720    9.7420   -0.1690 C   0  0  0  0  0  0  0  0  0  0  0  0
    0.6830    9.0190   -1.9710 C   0  0  0  0  0  0  0  0  0  0  0  0
   -0.7840    8.8150   -2.3960 C   0  0  0  0  0  0  0  0  0  0  0  0
   -1.7000    8.7150   -1.1720 C   0  0  2  0  0  0  0  0  0  0  0  0
   -1.2720    7.4490   -0.3550 C   0  0  0  0  0  0  0  0  0  0  0  0
   -3.3624    6.2178   -3.7598 H   0  0  0  0  0  0  0  0  0  0  0  0
   -4.7541    7.3508   -3.8369 H   0  0  0  0  0  0  0  0  0  0  0  0
   -3.0751    7.9893   -3.8369 H   0  0  0  0  0  0  0  0  0  0  0  0
   -3.1256    6.4632   -1.5340 H   0  0  0  0  0  0  0  0  0  0  0  0
   -5.2509    6.0165   -0.9844 H   0  0  0  0  0  0  0  0  0  0  0  0
   -5.3258    7.7905   -0.5467 H   0  0  0  0  0  0  0  0  0  0  0  0
   -6.0505    8.1667   -2.9760 H   0  0  0  0  0  0  0  0  0  0  0  0
   -6.3707    6.3825   -3.0045 H   0  0  0  0  0  0  0  0  0  0  0  0
   -7.3362    8.5172   -1.4167 H   0  0  0  0  0  0  0  0  0  0  0  0
   -9.0065    5.0052   -3.1805 H   0  0  0  0  0  0  0  0  0  0  0  0
   -9.8476    6.3267   -4.0595 H   0  0  0  0  0  0  0  0  0  0  0  0
   -8.0531    6.2481   -4.0595 H   0  0  0  0  0  0  0  0  0  0  0  0
  -10.2739    7.5901   -0.7253 H   0  0  0  0  0  0  0  0  0  0  0  0
  -10.2483    8.5821   -2.2226 H   0  0  0  0  0  0  0  0  0  0  0  0
  -11.0541    6.9767   -2.2226 H   0  0  0  0  0  0  0  0  0  0  0  0
   -3.4847    9.2384   -2.3187 H   0  0  0  0  0  0  0  0  0  0  0  0
   -4.6966    9.7535   -0.2925 H   0  0  0  0  0  0  0  0  0  0  0  0
   -4.2194    8.2240    0.4743 H   0  0  0  0  0  0  0  0  0  0  0  0
   -3.1094   10.7920    1.0580 H   0  0  0  0  0  0  0  0  0  0  0  0
   -2.3737    9.2655    1.5405 H   0  0  0  0  0  0  0  0  0  0  0  0
   -2.3772   12.1198   -0.4809 H   0  0  0  0  0  0  0  0  0  0  0  0
   -1.2570   11.6797   -1.8143 H   0  0  0  0  0  0  0  0  0  0  0  0
   -2.9418   11.0568   -1.8143 H   0  0  0  0  0  0  0  0  0  0  0  0
   -0.0613    9.3655    0.8341 H   0  0  0  0  0  0  0  0  0  0  0  0
   -0.9193   11.6641    1.6154 H   0  0  0  0  0  0  0  0  0  0  0  0
    0.8561   11.2044    1.7768 H   0  0  0  0  0  0  0  0  0  0  0  0
    0.3575   13.6618    0.9666 H   0  0  0  0  0  0  0  0  0  0  0  0
    0.3980   11.5025   -2.4441 H   0  0  0  0  0  0  0  0  0  0  0  0
    3.3507   11.6022   -1.5673 H   0  0  0  0  0  0  0  0  0  0  0  0
    2.6742   10.7675   -3.0360 H   0  0  0  0  0  0  0  0  0  0  0  0
    3.7610   12.9193   -3.5977 H   0  0  0  0  0  0  0  0  0  0  0  0
    1.9936   12.9008   -3.9735 H   0  0  0  0  0  0  0  0  0  0  0  0
    2.5454   15.0101   -2.9718 H   0  0  0  0  0  0  0  0  0  0  0  0
    3.6480   13.3550   -0.8900 H   0  0  0  0  0  0  0  0  0  0  0  0
   -0.9095   14.5562   -2.0526 H   0  0  0  0  0  0  0  0  0  0  0  0
    0.2713   15.2406   -3.2205 H   0  0  0  0  0  0  0  0  0  0  0  0
   -0.0732   13.4776   -3.2205 H   0  0  0  0  0  0  0  0  0  0  0  0
    1.1596   15.0370    0.4265 H   0  0  0  0  0  0  0  0  0  0  0  0
    2.0422   16.0004   -0.8062 H   0  0  0  0  0  0  0  0  0  0  0  0
    0.2461   15.9712   -0.8062 H   0  0  0  0  0  0  0  0  0  0  0  0
    2.1066    9.7939    0.9172 H   0  0  0  0  0  0  0  0  0  0  0  0
    2.5469    8.7145   -0.4493 H   0  0  0  0  0  0  0  0  0  0  0  0
    3.0846   10.4284   -0.4493 H   0  0  0  0  0  0  0  0  0  0  0  0
    1.2617    9.2565   -2.8758 H   0  0  0  0  0  0  0  0  0  0  0  0
    0.9712    8.0819   -1.4723 H   0  0  0  0  0  0  0  0  0  0  0  0
   -1.1015    9.6675   -3.0145 H   0  0  0  0  0  0  0  0  0  0  0  0
   -0.8570    7.8774   -2.9666 H   0  0  0  0  0  0  0  0  0  0  0  0
   -1.3451    7.6651    0.7211 H   0  0  0  0  0  0  0  0  0  0  0  0
   -1.9360    6.6088   -0.6062 H   0  0  0  0  0  0  0  0  0  0  0  0
   -0.2343    7.1841   -0.6062 H   0  0  0  0  0  0  0  0  0  0  0  0
  1  2  1  0
  2  3  1  0
  3  4  1  0
  4  5  1  0
  5  6  1  0
  6  7  1  0
  7  8  1  0
  7  9  1  0
  2 10  1  0
 10 11  1  0
 11 12  1  0
 12 13  1  0
 13 14  1  6
 13 15  1  0
 15 16  1  0
 16 17  1  0
 17 18  2  0
 18 19  1  0
 19 20  1  0
 20 21  1  0
 21 22  1  0
 22 23  1  0
 22 24  1  0
 24 25  1  0
 24 26  1  0
 19 27  1  0
 27 28  1  1
 27 29  1  0
 29 30  1  0
 30 31  1  0
 31 32  1  1
  7  5  1  0
 31 10  1  0
 31 13  1  0
 27 15  1  0
 24 18  1  0
  1 33  1  0
  1 34  1  0
  1 35  1  0
  2 36  1  1
  3 37  1  0
  3 38  1  0
  4 39  1  0
  4 40  1  0
  5 41  1  1
  8 42  1  0
  8 43  1  0
  8 44  1  0
  9 45  1  0
  9 46  1  0
  9 47  1  0
 10 48  1  6
 11 49  1  0
 11 50  1  0
 12 51  1  0
 12 52  1  0
 14 53  1  0
 14 54  1  0
 14 55  1  0
 15 56  1  1
 16 57  1  0
 16 58  1  0
 17 59  1  0
 19 60  1  6
 20 61  1  0
 20 62  1  0
 21 63  1  0
 21 64  1  0
 22 65  1  6
 23 66  1  0
 25 67  1  0
 25 68  1  0
 25 69  1  0
 26 70  1  0
 26 71  1  0
 26 72  1  0
 28 73  1  0
 28 74  1  0
 28 75  1  0
 29 76  1  0
 29 77  1  0
 30 78  1  0
 30 79  1  0
 32 80  1  0
 32 81  1  0
 32 82  1  0
M  END
>  <meeko>  (10) 
{"is_sidechain": [false], "intermolecular_energy": 2.731, "internal_energy": -0.839}

$$$$
EPH_relaxed_0001_pdb2pqr_Repair_230_r2_0001_out
     RDKit          3D

 82 86  0  0  0  0  0  0  0  0999 V2000
   -0.8390   16.3290   -5.8220 C   0  0  0  0  0  0  0  0  0  0  0  0
    0.2500   15.6230   -6.6350 C   0  0  2  0  0  0  0  0  0  0  0  0
   -0.1530   15.4430   -8.1120 C   0  0  0  0  0  0  0  0  0  0  0  0
    0.4640   16.4840   -9.0500 C   0  0  0  0  0  0  0  0  0  0  0  0
    1.8650   16.1190   -9.4390 C   0  0  2  0  0  0  0  0  0  0  0  0
    2.3150   16.6990  -10.6700 O   0  0  0  0  0  0  0  0  0  0  0  0
    2.2010   15.2670  -10.6490 C   0  0  0  0  0  0  0  0  0  0  0  0
    1.1310   14.7290  -11.5460 C   0  0  0  0  0  0  0  0  0  0  0  0
    3.5190   14.5580  -10.6810 C   0  0  0  0  0  0  0  0  0  0  0  0
    0.5660   14.2680   -6.0130 C   0  0  1  0  0  0  0  0  0  0  0  0
    1.8200   13.6010   -6.6380 C   0  0  0  0  0  0  0  0  0  0  0  0
    2.5340   12.8320   -5.4960 C   0  0  0  0  0  0  0  0  0  0  0  0
    1.5050   12.8030   -4.3430 C   0  0  1  0  0  0  0  0  0  0  0  0
    0.5370   11.6310   -4.6980 C   0  0  0  0  0  0  0  0  0  0  0  0
    2.0880   12.6530   -2.9000 C   0  0  2  0  0  0  0  0  0  0  0  0
    2.8510   11.3430   -2.6370 C   0  0  0  0  0  0  0  0  0  0  0  0
    2.0230   10.2160   -2.1170 C   0  0  0  0  0  0  0  0  0  0  0  0
    0.7850   10.3280   -1.6010 C   0  0  0  0  0  0  0  0  0  0  0  0
    0.1320   11.7030   -1.4130 C   0  0  1  0  0  0  0  0  0  0  0  0
   -0.5010   11.7860    0.0010 C   0  0  0  0  0  0  0  0  0  0  0  0
   -1.4680   10.6380    0.2780 C   0  0  0  0  0  0  0  0  0  0  0  0
   -0.7670    9.2900    0.1370 C   0  0  2  0  0  0  0  0  0  0  0  0
    0.2070    9.1660    1.1780 O   0  0  0  0  0  0  0  0  0  0  0  0
   -0.0830    9.0960   -1.2450 C   0  0  0  0  0  0  0  0  0  0  0  0
   -1.1630    8.9280   -2.3410 C   0  0  0  0  0  0  0  0  0  0  0  0
    0.7050    7.7580   -1.2040 C   0  0  0  0  0  0  0  0  0  0  0  0
    1.0490   12.9580   -1.7460 C   0  0  1  0  0  0  0  0  0  0  0  0
    1.8820   13.3550   -0.4890 C   0  0  0  0  0  0  0  0  0  0  0  0
    0.1300   14.1920   -2.0780 C   0  0  0  0  0  0  0  0  0  0  0  0
   -0.3150   14.3520   -3.5440 C   0  0  0  0  0  0  0  0  0  0  0  0
    0.8800   14.2380   -4.4960 C   0  0  2  0  0  0  0  0  0  0  0  0
    1.8600   15.4170   -4.1770 C   0  0  0  0  0  0  0  0  0  0  0  0
   -0.6378   16.1985   -4.7485 H   0  0  0  0  0  0  0  0  0  0  0  0
   -0.8421   17.4014   -6.0668 H   0  0  0  0  0  0  0  0  0  0  0  0
   -1.8193   15.8942   -6.0668 H   0  0  0  0  0  0  0  0  0  0  0  0
    1.1459   16.2609   -6.6126 H   0  0  0  0  0  0  0  0  0  0  0  0
    0.1703   14.4444   -8.4409 H   0  0  0  0  0  0  0  0  0  0  0  0
   -1.2444   15.5696   -8.1650 H   0  0  0  0  0  0  0  0  0  0  0  0
   -0.1515   16.5540   -9.9590 H   0  0  0  0  0  0  0  0  0  0  0  0
    0.4954   17.4473   -8.5198 H   0  0  0  0  0  0  0  0  0  0  0  0
    2.1667   16.0535   -8.3832 H   0  0  0  0  0  0  0  0  0  0  0  0
    0.3134   14.3179  -10.9357 H   0  0  0  0  0  0  0  0  0  0  0  0
    0.7431   15.5392  -12.1808 H   0  0  0  0  0  0  0  0  0  0  0  0
    1.5500   13.9344  -12.1808 H   0  0  0  0  0  0  0  0  0  0  0  0
    3.8614   14.3738   -9.6520 H   0  0  0  0  0  0  0  0  0  0  0  0
    3.4066   13.5986  -11.2073 H   0  0  0  0  0  0  0  0  0  0  0  0
    4.2576   15.1805  -11.2073 H   0  0  0  0  0  0  0  0  0  0  0  0
   -0.3830   13.7484   -6.2116 H   0  0  0  0  0  0  0  0  0  0  0  0
    1.5209   12.9040   -7.4347 H   0  0  0  0  0  0  0  0  0  0  0  0
    2.4866   14.3537   -7.0843 H   0  0  0  0  0  0  0  0  0  0  0  0
    2.7883   11.8106   -5.8154 H   0  0  0  0  0  0  0  0  0  0  0  0
    3.4797   13.3091   -5.1993 H   0  0  0  0  0  0  0  0  0  0  0  0
    0.1594   11.1739   -3.7715 H   0  0  0  0  0  0  0  0  0  0  0  0
   -0.3078   12.0186   -5.2863 H   0  0  0  0  0  0  0  0  0  0  0  0
    1.0772   10.8747   -5.2863 H   0  0  0  0  0  0  0  0  0  0  0  0
    2.8445   13.4509   -2.8677 H   0  0  0  0  0  0  0  0  0  0  0  0
    3.3082   11.0201   -3.5840 H   0  0  0  0  0  0  0  0  0  0  0  0
    3.5837   11.5709   -1.8489 H   0  0  0  0  0  0  0  0  0  0  0  0
    2.4616    9.2081   -2.1589 H   0  0  0  0  0  0  0  0  0  0  0  0
   -0.6542   11.7737   -2.1790 H   0  0  0  0  0  0  0  0  0  0  0  0
    0.3041   11.7573    0.7499 H   0  0  0  0  0  0  0  0  0  0  0  0
   -1.0723   12.7244    0.0564 H   0  0  0  0  0  0  0  0  0  0  0  0
   -1.8590   10.7354    1.3016 H   0  0  0  0  0  0  0  0  0  0  0  0
   -2.2888   10.6856   -0.4528 H   0  0  0  0  0  0  0  0  0  0  0  0
   -1.5365    8.5082    0.2177 H   0  0  0  0  0  0  0  0  0  0  0  0
   -0.0690    9.7430    1.9100 H   0  0  0  0  0  0  0  0  0  0  0  0
   -2.1445    8.7753   -1.8683 H   0  0  0  0  0  0  0  0  0  0  0  0
   -1.1941    9.8321   -2.9668 H   0  0  0  0  0  0  0  0  0  0  0  0
   -0.9180    8.0572   -2.9668 H   0  0  0  0  0  0  0  0  0  0  0  0
    0.8771    7.4658   -0.1576 H   0  0  0  0  0  0  0  0  0  0  0  0
    0.1241    6.9746   -1.7127 H   0  0  0  0  0  0  0  0  0  0  0  0
    1.6719    7.8862   -1.7127 H   0  0  0  0  0  0  0  0  0  0  0  0
    1.3232   13.0887    0.4203 H   0  0  0  0  0  0  0  0  0  0  0  0
    2.8416   12.8174   -0.5003 H   0  0  0  0  0  0  0  0  0  0  0  0
    2.0688   14.4390   -0.5003 H   0  0  0  0  0  0  0  0  0  0  0  0
   -0.7775   14.1063   -1.4622 H   0  0  0  0  0  0  0  0  0  0  0  0
    0.7486   15.0767   -1.8668 H   0  0  0  0  0  0  0  0  0  0  0  0
   -1.0444   13.5651   -3.7865 H   0  0  0  0  0  0  0  0  0  0  0  0
   -0.7670   15.3474   -3.6664 H   0  0  0  0  0  0  0  0  0  0  0  0
    1.9544   15.5306   -3.0870 H   0  0  0  0  0  0  0  0  0  0  0  0
    2.8477   15.2002   -4.6100 H   0  0  0  0  0  0  0  0  0  0  0  0
    1.4663   16.3484   -4.6100 H   0  0  0  0  0  0  0  0  0  0  0  0
  1  2  1  0
  2  3  1  0
  3  4  1  0
  4  5  1  0
  5  6  1  0
  6  7  1  0
  7  8  1  0
  7  9  1  0
  2 10  1  0
 10 11  1  0
 11 12  1  0
 12 13  1  0
 13 14  1  6
 13 15  1  0
 15 16  1  0
 16 17  1  0
 17 18  2  0
 18 19  1  0
 19 20  1  0
 20 21  1  0
 21 22  1  0
 22 23  1  0
 22 24  1  0
 24 25  1  0
 24 26  1  0
 19 27  1  0
 27 28  1  1
 27 29  1  0
 29 30  1  0
 30 31  1  0
 31 32  1  1
  7  5  1  0
 31 10  1  0
 31 13  1  0
 27 15  1  0
 24 18  1  0
  1 33  1  0
  1 34  1  0
  1 35  1  0
  2 36  1  6
  3 37  1  0
  3 38  1  0
  4 39  1  0
  4 40  1  0
  5 41  1  1
  8 42  1  0
  8 43  1  0
  8 44  1  0
  9 45  1  0
  9 46  1  0
  9 47  1  0
 10 48  1  1
 11 49  1  0
 11 50  1  0
 12 51  1  0
 12 52  1  0
 14 53  1  0
 14 54  1  0
 14 55  1  0
 15 56  1  6
 16 57  1  0
 16 58  1  0
 17 59  1  0
 19 60  1  6
 20 61  1  0
 20 62  1  0
 21 63  1  0
 21 64  1  0
 22 65  1  1
 23 66  1  0
 25 67  1  0
 25 68  1  0
 25 69  1  0
 26 70  1  0
 26 71  1  0
 26 72  1  0
 28 73  1  0
 28 74  1  0
 28 75  1  0
 29 76  1  0
 29 77  1  0
 30 78  1  0
 30 79  1  0
 32 80  1  0
 32 81  1  0
 32 82  1  0
M  END
>  <meeko>  (11) 
{"is_sidechain": [false], "intermolecular_energy": 2.731, "internal_energy": -0.839}

$$$$
EPH_relaxed_0001_pdb2pqr_Repair_230_r2_0001_out
     RDKit          3D

 82 86  0  0  0  0  0  0  0  0999 V2000
   -0.2930   15.1020   -7.6360 C   0  0  0  0  0  0  0  0  0  0  0  0
    1.0820   15.0780   -6.9630 C   0  0  2  0  0  0  0  0  0  0  0  0
    2.2320   15.1650   -7.9860 C   0  0  0  0  0  0  0  0  0  0  0  0
    2.2610   16.4810   -8.7690 C   0  0  0  0  0  0  0  0  0  0  0  0
    1.8600   16.2840  -10.2000 C   0  0  2  0  0  0  0  0  0  0  0  0
    1.1980   15.0410  -10.4710 O   0  0  0  0  0  0  0  0  0  0  0  0
    2.4740   15.2300  -11.1030 C   0  0  0  0  0  0  0  0  0  0  0  0
    3.5410   14.3050  -10.6080 C   0  0  0  0  0  0  0  0  0  0  0  0
    2.3900   15.4210  -12.5850 C   0  0  0  0  0  0  0  0  0  0  0  0
    1.2270   13.8150   -6.1220 C   0  0  1  0  0  0  0  0  0  0  0  0
    2.6590   13.2190   -6.1830 C   0  0  0  0  0  0  0  0  0  0  0  0
    2.9520   12.6160   -4.7850 C   0  0  0  0  0  0  0  0  0  0  0  0
    1.5770   12.5880   -4.0760 C   0  0  1  0  0  0  0  0  0  0  0  0
    0.8730   11.3050   -4.6200 C   0  0  0  0  0  0  0  0  0  0  0  0
    1.6050   12.6130   -2.5130 C   0  0  2  0  0  0  0  0  0  0  0  0
    2.2940   11.4060   -1.8530 C   0  0  0  0  0  0  0  0  0  0  0  0
    1.3990   10.2530   -1.5390 C   0  0  0  0  0  0  0  0  0  0  0  0
    0.0540   10.2920   -1.5130 C   0  0  0  0  0  0  0  0  0  0  0  0
   -0.7000   11.6120   -1.7230 C   0  0  1  0  0  0  0  0  0  0  0  0
   -1.8070   11.7530   -0.6450 C   0  0  0  0  0  0  0  0  0  0  0  0
   -2.7410   10.5470   -0.6040 C   0  0  0  0  0  0  0  0  0  0  0  0
   -1.9620    9.2620   -0.3360 C   0  0  2  0  0  0  0  0  0  0  0  0
   -1.4260    9.3160    0.9900 O   0  0  0  0  0  0  0  0  0  0  0  0
   -0.8130    9.0190   -1.3540 C   0  0  0  0  0  0  0  0  0  0  0  0
   -1.4100    8.6610   -2.7370 C   0  0  0  0  0  0  0  0  0  0  0  0
   -0.0190    7.7680   -0.8880 C   0  0  0  0  0  0  0  0  0  0  0  0
    0.2020   12.9140   -1.8450 C   0  0  1  0  0  0  0  0  0  0  0  0
    0.4990   13.4910   -0.4270 C   0  0  0  0  0  0  0  0  0  0  0  0
   -0.6020   14.0260   -2.6170 C   0  0  0  0  0  0  0  0  0  0  0  0
   -0.4930   14.0220   -4.1540 C   0  0  0  0  0  0  0  0  0  0  0  0
    0.9700   13.9400   -4.6000 C   0  0  2  0  0  0  0  0  0  0  0  0
    1.6990   15.2280   -4.0860 C   0  0  0  0  0  0  0  0  0  0  0  0
   -1.0781   15.1157   -6.8656 H   0  0  0  0  0  0  0  0  0  0  0  0
   -0.3787   16.0018   -8.2629 H   0  0  0  0  0  0  0  0  0  0  0  0
   -0.4101   14.2058   -8.2629 H   0  0  0  0  0  0  0  0  0  0  0  0
    1.1488   15.9653   -6.3162 H   0  0  0  0  0  0  0  0  0  0  0  0
    3.1851   15.0606   -7.4468 H   0  0  0  0  0  0  0  0  0  0  0  0
    2.0733   14.3590   -8.7176 H   0  0  0  0  0  0  0  0  0  0  0  0
    1.5652   17.1912   -8.2984 H   0  0  0  0  0  0  0  0  0  0  0  0
    3.2907   16.8676   -8.7516 H   0  0  0  0  0  0  0  0  0  0  0  0
    1.7009   17.3648  -10.3290 H   0  0  0  0  0  0  0  0  0  0  0  0
    3.5432   14.3031   -9.5080 H   0  0  0  0  0  0  0  0  0  0  0  0
    3.3437   13.2873  -10.9761 H   0  0  0  0  0  0  0  0  0  0  0  0
    4.5204   14.6446  -10.9761 H   0  0  0  0  0  0  0  0  0  0  0  0
    1.9560   16.4079  -12.8035 H   0  0  0  0  0  0  0  0  0  0  0  0
    3.3983   15.3593  -13.0204 H   0  0  0  0  0  0  0  0  0  0  0  0
    1.7540   14.6362  -13.0204 H   0  0  0  0  0  0  0  0  0  0  0  0
    0.4456   13.1944   -6.5849 H   0  0  0  0  0  0  0  0  0  0  0  0
    2.7104   12.4345   -6.9523 H   0  0  0  0  0  0  0  0  0  0  0  0
    3.3978   13.9915   -6.4428 H   0  0  0  0  0  0  0  0  0  0  0  0
    3.3614   11.5993   -4.8787 H   0  0  0  0  0  0  0  0  0  0  0  0
    3.6975   13.2009   -4.2264 H   0  0  0  0  0  0  0  0  0  0  0  0
    0.5338   10.6869   -3.7757 H   0  0  0  0  0  0  0  0  0  0  0  0
    0.0072   11.5941   -5.2338 H   0  0  0  0  0  0  0  0  0  0  0  0
    1.5820   10.7300   -5.2338 H   0  0  0  0  0  0  0  0  0  0  0  0
    2.2517   13.4776   -2.3024 H   0  0  0  0  0  0  0  0  0  0  0  0
    3.0809   11.0497   -2.5341 H   0  0  0  0  0  0  0  0  0  0  0  0
    2.6769   11.7656   -0.8865 H   0  0  0  0  0  0  0  0  0  0  0  0
    1.8794    9.2904   -1.3096 H   0  0  0  0  0  0  0  0  0  0  0  0
   -1.1572   11.5455   -2.7213 H   0  0  0  0  0  0  0  0  0  0  0  0
   -1.3286   11.8621    0.3395 H   0  0  0  0  0  0  0  0  0  0  0  0
   -2.4120   12.6352   -0.9012 H   0  0  0  0  0  0  0  0  0  0  0  0
   -3.4816   10.6924    0.1962 H   0  0  0  0  0  0  0  0  0  0  0  0
   -3.2411   10.4572   -1.5796 H   0  0  0  0  0  0  0  0  0  0  0  0
   -2.6631    8.4217   -0.4474 H   0  0  0  0  0  0  0  0  0  0  0  0
   -0.7610    8.6120    1.0680 H   0  0  0  0  0  0  0  0  0  0  0  0
   -2.3458    8.0998   -2.5982 H   0  0  0  0  0  0  0  0  0  0  0  0
   -1.6160    9.5847   -3.2977 H   0  0  0  0  0  0  0  0  0  0  0  0
   -0.6922    8.0442   -3.2977 H   0  0  0  0  0  0  0  0  0  0  0  0
    0.0017    7.7354    0.2113 H   0  0  0  0  0  0  0  0  0  0  0  0
   -0.5065    6.8600   -1.2727 H   0  0  0  0  0  0  0  0  0  0  0  0
    1.0101    7.8226   -1.2727 H   0  0  0  0  0  0  0  0  0  0  0  0
    0.1372   12.7882    0.3380 H   0  0  0  0  0  0  0  0  0  0  0  0
    1.5832   13.6349   -0.3094 H   0  0  0  0  0  0  0  0  0  0  0  0
   -0.0139   14.4569   -0.3094 H   0  0  0  0  0  0  0  0  0  0  0  0
   -1.6647   13.9082   -2.3585 H   0  0  0  0  0  0  0  0  0  0  0  0
   -0.1529   14.9786   -2.2993 H   0  0  0  0  0  0  0  0  0  0  0  0
   -1.0394   13.1538   -4.5512 H   0  0  0  0  0  0  0  0  0  0  0  0
   -0.9248   14.9578   -4.5385 H   0  0  0  0  0  0  0  0  0  0  0  0
    1.7020   15.2333   -2.9860 H   0  0  0  0  0  0  0  0  0  0  0  0
    2.7350   15.2351   -4.4555 H   0  0  0  0  0  0  0  0  0  0  0  0
    1.1718   16.1199   -4.4555 H   0  0  0  0  0  0  0  0  0  0  0  0
  1  2  1  0
  2  3  1  0
  3  4  1  0
  4  5  1  0
  5  6  1  0
  6  7  1  0
  7  8  1  0
  7  9  1  0
  2 10  1  0
 10 11  1  0
 11 12  1  0
 12 13  1  0
 13 14  1  1
 13 15  1  0
 15 16  1  0
 16 17  1  0
 17 18  2  0
 18 19  1  0
 19 20  1  0
 20 21  1  0
 21 22  1  0
 22 23  1  0
 22 24  1  0
 24 25  1  0
 24 26  1  0
 19 27  1  0
 27 28  1  1
 27 29  1  0
 29 30  1  0
 30 31  1  0
 31 32  1  1
  7  5  1  0
 31 10  1  0
 31 13  1  0
 27 15  1  0
 24 18  1  0
  1 33  1  0
  1 34  1  0
  1 35  1  0
  2 36  1  1
  3 37  1  0
  3 38  1  0
  4 39  1  0
  4 40  1  0
  5 41  1  6
  8 42  1  0
  8 43  1  0
  8 44  1  0
  9 45  1  0
  9 46  1  0
  9 47  1  0
 10 48  1  6
 11 49  1  0
 11 50  1  0
 12 51  1  0
 12 52  1  0
 14 53  1  0
 14 54  1  0
 14 55  1  0
 15 56  1  6
 16 57  1  0
 16 58  1  0
 17 59  1  0
 19 60  1  6
 20 61  1  0
 20 62  1  0
 21 63  1  0
 21 64  1  0
 22 65  1  1
 23 66  1  0
 25 67  1  0
 25 68  1  0
 25 69  1  0
 26 70  1  0
 26 71  1  0
 26 72  1  0
 28 73  1  0
 28 74  1  0
 28 75  1  0
 29 76  1  0
 29 77  1  0
 30 78  1  0
 30 79  1  0
 32 80  1  0
 32 81  1  0
 32 82  1  0
M  END
>  <meeko>  (12) 
{"is_sidechain": [false], "intermolecular_energy": 2.731, "internal_energy": -0.839}

$$$$
EPH_relaxed_0001_pdb2pqr_Repair_230_r2_0001_out
     RDKit          3D

 82 86  0  0  0  0  0  0  0  0999 V2000
    0.0590    9.3480   -2.4260 C   0  0  0  0  0  0  0  0  0  0  0  0
    1.1090   10.3660   -2.8810 C   0  0  2  0  0  0  0  0  0  0  0  0
    2.5140    9.7400   -2.9930 C   0  0  0  0  0  0  0  0  0  0  0  0
    3.4640   10.5200   -3.9050 C   0  0  0  0  0  0  0  0  0  0  0  0
    4.8430   10.6060   -3.3260 C   0  0  2  0  0  0  0  0  0  0  0  0
    5.5010   11.8640   -3.5290 O   0  0  0  0  0  0  0  0  0  0  0  0
    6.0990   10.7250   -4.1680 C   0  0  0  0  0  0  0  0  0  0  0  0
    6.0350   10.7630   -5.6630 C   0  0  0  0  0  0  0  0  0  0  0  0
    7.4070   10.3140   -3.5660 C   0  0  0  0  0  0  0  0  0  0  0  0
    1.1400   11.5460   -1.9170 C   0  0  1  0  0  0  0  0  0  0  0  0
    2.2150   11.3860   -0.8100 C   0  0  0  0  0  0  0  0  0  0  0  0
    2.7660   12.8040   -0.5120 C   0  0  0  0  0  0  0  0  0  0  0  0
    1.7710   13.7630   -1.2070 C   0  0  1  0  0  0  0  0  0  0  0  0
    0.5710   13.8830   -0.2150 C   0  0  0  0  0  0  0  0  0  0  0  0
    2.3300   15.1660   -1.6100 C   0  0  2  0  0  0  0  0  0  0  0  0
    2.8020   16.0420   -0.4360 C   0  0  0  0  0  0  0  0  0  0  0  0
    1.7610   16.9370    0.1510 C   0  0  0  0  0  0  0  0  0  0  0  0
    0.5820   17.2460   -0.4210 C   0  0  0  0  0  0  0  0  0  0  0  0
    0.2380   16.7530   -1.8330 C   0  0  1  0  0  0  0  0  0  0  0  0
   -0.3420   17.9270   -2.6640 C   0  0  0  0  0  0  0  0  0  0  0  0
   -1.5250   18.6010   -1.9780 C   0  0  0  0  0  0  0  0  0  0  0  0
   -1.1290   19.1290   -0.6010 C   0  0  2  0  0  0  0  0  0  0  0  0
   -0.1880   20.1940   -0.7700 O   0  0  0  0  0  0  0  0  0  0  0  0
   -0.5220   18.0370    0.3230 C   0  0  0  0  0  0  0  0  0  0  0  0
   -1.6290   17.0420    0.7490 C   0  0  0  0  0  0  0  0  0  0  0  0
   -0.0350   18.7290    1.6240 C   0  0  0  0  0  0  0  0  0  0  0  0
    1.3960   15.9770   -2.5970 C   0  0  1  0  0  0  0  0  0  0  0  0
    2.3130   16.9920   -3.3450 C   0  0  0  0  0  0  0  0  0  0  0  0
    0.7550   15.0590   -3.7040 C   0  0  0  0  0  0  0  0  0  0  0  0
    0.3330   13.6410   -3.2720 C   0  0  0  0  0  0  0  0  0  0  0  0
    1.4620   12.9410   -2.5110 C   0  0  2  0  0  0  0  0  0  0  0  0
    2.6750   12.7850   -3.4900 C   0  0  0  0  0  0  0  0  0  0  0  0
    0.0288    9.3188   -1.3268 H   0  0  0  0  0  0  0  0  0  0  0  0
   -0.9282    9.6419   -2.8122 H   0  0  0  0  0  0  0  0  0  0  0  0
    0.3222    8.3522   -2.8122 H   0  0  0  0  0  0  0  0  0  0  0  0
    0.8212   10.7129   -3.8844 H   0  0  0  0  0  0  0  0  0  0  0  0
    2.9561    9.6966   -1.9867 H   0  0  0  0  0  0  0  0  0  0  0  0
    2.3869    8.7425   -3.4389 H   0  0  0  0  0  0  0  0  0  0  0  0
    3.5178   10.0136   -4.8800 H   0  0  0  0  0  0  0  0  0  0  0  0
    3.0732   11.5426   -4.0125 H   0  0  0  0  0  0  0  0  0  0  0  0
    4.5658    9.9265   -2.5066 H   0  0  0  0  0  0  0  0  0  0  0  0
    5.1287   11.3011   -5.9776 H   0  0  0  0  0  0  0  0  0  0  0  0
    6.9232   11.2802   -6.0550 H   0  0  0  0  0  0  0  0  0  0  0  0
    6.0061    9.7356   -6.0550 H   0  0  0  0  0  0  0  0  0  0  0  0
    7.3295   10.3383   -2.4690 H   0  0  0  0  0  0  0  0  0  0  0  0
    7.6569    9.2940   -3.8934 H   0  0  0  0  0  0  0  0  0  0  0  0
    8.1954   11.0077   -3.8934 H   0  0  0  0  0  0  0  0  0  0  0  0
    0.0999   11.5193   -1.5600 H   0  0  0  0  0  0  0  0  0  0  0  0
    1.7638   10.9568    0.0968 H   0  0  0  0  0  0  0  0  0  0  0  0
    3.0196   10.7105   -1.1360 H   0  0  0  0  0  0  0  0  0  0  0  0
    2.7925   12.9905    0.5717 H   0  0  0  0  0  0  0  0  0  0  0  0
    3.7959   12.9363   -0.8752 H   0  0  0  0  0  0  0  0  0  0  0  0
    0.9448   13.8456    0.8189 H   0  0  0  0  0  0  0  0  0  0  0  0
    0.0508   14.8376   -0.3825 H   0  0  0  0  0  0  0  0  0  0  0  0
   -0.1279   13.0503   -0.3825 H   0  0  0  0  0  0  0  0  0  0  0  0
    3.2386   14.9051   -2.1725 H   0  0  0  0  0  0  0  0  0  0  0  0
    3.1658   15.3759    0.3603 H   0  0  0  0  0  0  0  0  0  0  0  0
    3.5785   16.7055   -0.8445 H   0  0  0  0  0  0  0  0  0  0  0  0
    1.9755   17.3816    1.1340 H   0  0  0  0  0  0  0  0  0  0  0  0
   -0.5270   15.9729   -1.7056 H   0  0  0  0  0  0  0  0  0  0  0  0
    0.4496   18.6752   -2.8174 H   0  0  0  0  0  0  0  0  0  0  0  0
   -0.7004   17.5149   -3.6188 H   0  0  0  0  0  0  0  0  0  0  0  0
   -1.8712   19.4401   -2.5994 H   0  0  0  0  0  0  0  0  0  0  0  0
   -2.3272   17.8590   -1.8521 H   0  0  0  0  0  0  0  0  0  0  0  0
   -2.0458   19.4828   -0.1068 H   0  0  0  0  0  0  0  0  0  0  0  0
    0.7040   19.8090   -0.7270 H   0  0  0  0  0  0  0  0  0  0  0  0
   -1.6789   16.9971    1.8469 H   0  0  0  0  0  0  0  0  0  0  0  0
   -2.5977   17.3789    0.3514 H   0  0  0  0  0  0  0  0  0  0  0  0
   -1.3969   16.0430    0.3514 H   0  0  0  0  0  0  0  0  0  0  0  0
   -0.4203   18.1815    2.4968 H   0  0  0  0  0  0  0  0  0  0  0  0
    1.0647   18.7311    1.6486 H   0  0  0  0  0  0  0  0  0  0  0  0
   -0.4043   19.7649    1.6486 H   0  0  0  0  0  0  0  0  0  0  0  0
    2.8622   17.5999   -2.6110 H   0  0  0  0  0  0  0  0  0  0  0  0
    3.0283   16.4440   -3.9759 H   0  0  0  0  0  0  0  0  0  0  0  0
    1.6954   17.6482   -3.9759 H   0  0  0  0  0  0  0  0  0  0  0  0
   -0.1411   15.5717   -4.0837 H   0  0  0  0  0  0  0  0  0  0  0  0
    1.5502   14.9083   -4.4489 H   0  0  0  0  0  0  0  0  0  0  0  0
   -0.5505   13.7114   -2.6204 H   0  0  0  0  0  0  0  0  0  0  0  0
    0.1012   13.0543   -4.1732 H   0  0  0  0  0  0  0  0  0  0  0  0
    3.6017   12.6658   -2.9095 H   0  0  0  0  0  0  0  0  0  0  0  0
    2.5229   11.8990   -4.1240 H   0  0  0  0  0  0  0  0  0  0  0  0
    2.7521   13.6806   -4.1240 H   0  0  0  0  0  0  0  0  0  0  0  0
  1  2  1  0
  2  3  1  0
  3  4  1  0
  4  5  1  0
  5  6  1  0
  6  7  1  0
  7  8  1  0
  7  9  1  0
  2 10  1  0
 10 11  1  0
 11 12  1  0
 12 13  1  0
 13 14  1  1
 13 15  1  0
 15 16  1  0
 16 17  1  0
 17 18  2  0
 18 19  1  0
 19 20  1  0
 20 21  1  0
 21 22  1  0
 22 23  1  0
 22 24  1  0
 24 25  1  0
 24 26  1  0
 19 27  1  0
 27 28  1  6
 27 29  1  0
 29 30  1  0
 30 31  1  0
 31 32  1  6
  7  5  1  0
 31 10  1  0
 31 13  1  0
 27 15  1  0
 24 18  1  0
  1 33  1  0
  1 34  1  0
  1 35  1  0
  2 36  1  6
  3 37  1  0
  3 38  1  0
  4 39  1  0
  4 40  1  0
  5 41  1  1
  8 42  1  0
  8 43  1  0
  8 44  1  0
  9 45  1  0
  9 46  1  0
  9 47  1  0
 10 48  1  1
 11 49  1  0
 11 50  1  0
 12 51  1  0
 12 52  1  0
 14 53  1  0
 14 54  1  0
 14 55  1  0
 15 56  1  6
 16 57  1  0
 16 58  1  0
 17 59  1  0
 19 60  1  1
 20 61  1  0
 20 62  1  0
 21 63  1  0
 21 64  1  0
 22 65  1  1
 23 66  1  0
 25 67  1  0
 25 68  1  0
 25 69  1  0
 26 70  1  0
 26 71  1  0
 26 72  1  0
 28 73  1  0
 28 74  1  0
 28 75  1  0
 29 76  1  0
 29 77  1  0
 30 78  1  0
 30 79  1  0
 32 80  1  0
 32 81  1  0
 32 82  1  0
M  END
>  <meeko>  (13) 
{"is_sidechain": [false], "intermolecular_energy": 2.731, "internal_energy": -0.839}

$$$$
EPH_relaxed_0001_pdb2pqr_Repair_230_r2_0001_out
     RDKit          3D

 82 86  0  0  0  0  0  0  0  0999 V2000
    0.8790   10.6520   -4.1840 C   0  0  0  0  0  0  0  0  0  0  0  0
    0.6620   10.2180   -2.7310 C   0  0  2  0  0  0  0  0  0  0  0  0
   -0.7030    9.5320   -2.5280 C   0  0  0  0  0  0  0  0  0  0  0  0
   -0.6710    8.3850   -1.5140 C   0  0  0  0  0  0  0  0  0  0  0  0
   -2.0140    8.1630   -0.8860 C   0  0  2  0  0  0  0  0  0  0  0  0
   -3.1280    8.5530   -1.7000 O   0  0  0  0  0  0  0  0  0  0  0  0
   -2.9450    9.2910   -0.4810 C   0  0  0  0  0  0  0  0  0  0  0  0
   -2.5700   10.7250   -0.6880 C   0  0  0  0  0  0  0  0  0  0  0  0
   -3.9930    9.0170    0.5520 C   0  0  0  0  0  0  0  0  0  0  0  0
    0.7830   11.4230   -1.8060 C   0  0  1  0  0  0  0  0  0  0  0  0
    1.8080   11.1980   -0.6620 C   0  0  0  0  0  0  0  0  0  0  0  0
    2.4870   12.5660   -0.3940 C   0  0  0  0  0  0  0  0  0  0  0  0
    1.6080   13.5910   -1.1480 C   0  0  1  0  0  0  0  0  0  0  0  0
    0.4010   13.8620   -0.1970 C   0  0  0  0  0  0  0  0  0  0  0  0
    2.3120   14.9190   -1.5790 C   0  0  2  0  0  0  0  0  0  0  0  0
    2.8360   15.7860   -0.4210 C   0  0  0  0  0  0  0  0  0  0  0  0
    1.8730   16.7970    0.1060 C   0  0  0  0  0  0  0  0  0  0  0  0
    0.7450   17.1980   -0.5100 C   0  0  0  0  0  0  0  0  0  0  0  0
    0.3920   16.6920   -1.9140 C   0  0  1  0  0  0  0  0  0  0  0  0
   -0.0490   17.8870   -2.8000 C   0  0  0  0  0  0  0  0  0  0  0  0
   -1.1790   18.6960   -2.1700 C   0  0  0  0  0  0  0  0  0  0  0  0
   -0.7690   19.2310   -0.8000 C   0  0  2  0  0  0  0  0  0  0  0  0
    0.2760   20.1930   -0.9750 O   0  0  0  0  0  0  0  0  0  0  0  0
   -0.2950   18.1180    0.1760 C   0  0  0  0  0  0  0  0  0  0  0  0
   -1.5060   17.2500    0.6010 C   0  0  0  0  0  0  0  0  0  0  0  0
    0.2220   18.8040    1.4680 C   0  0  0  0  0  0  0  0  0  0  0  0
    1.4880   15.7820   -2.6190 C   0  0  1  0  0  0  0  0  0  0  0  0
    2.5190   16.6770   -3.3710 C   0  0  0  0  0  0  0  0  0  0  0  0
    0.7900   14.8920   -3.7140 C   0  0  0  0  0  0  0  0  0  0  0  0
    0.2200   13.5380   -3.2500 C   0  0  0  0  0  0  0  0  0  0  0  0
    1.2550   12.7580   -2.4340 C   0  0  2  0  0  0  0  0  0  0  0  0
    2.4720   12.4520   -3.3720 C   0  0  0  0  0  0  0  0  0  0  0  0
    1.3709   11.6357   -4.2033 H   0  0  0  0  0  0  0  0  0  0  0  0
    1.5143    9.9143   -4.6960 H   0  0  0  0  0  0  0  0  0  0  0  0
   -0.0923   10.7176   -4.6960 H   0  0  0  0  0  0  0  0  0  0  0  0
    1.4408    9.4811   -2.4852 H   0  0  0  0  0  0  0  0  0  0  0  0
   -1.4219   10.2866   -2.1762 H   0  0  0  0  0  0  0  0  0  0  0  0
   -0.9912    9.0969   -3.4963 H   0  0  0  0  0  0  0  0  0  0  0  0
   -0.3610    7.4632   -2.0280 H   0  0  0  0  0  0  0  0  0  0  0  0
    0.0403    8.6505   -0.7180 H   0  0  0  0  0  0  0  0  0  0  0  0
   -1.6400    7.2833   -0.3417 H   0  0  0  0  0  0  0  0  0  0  0  0
   -2.4418   11.2151    0.2884 H   0  0  0  0  0  0  0  0  0  0  0  0
   -1.6273   10.7797   -1.2523 H   0  0  0  0  0  0  0  0  0  0  0  0
   -3.3652   11.2342   -1.2523 H   0  0  0  0  0  0  0  0  0  0  0  0
   -3.5573    9.1309    1.5556 H   0  0  0  0  0  0  0  0  0  0  0  0
   -4.8231    9.7283    0.4298 H   0  0  0  0  0  0  0  0  0  0  0  0
   -4.3688    7.9904    0.4298 H   0  0  0  0  0  0  0  0  0  0  0  0
   -0.2640   11.5103   -1.4803 H   0  0  0  0  0  0  0  0  0  0  0  0
    1.2930   10.8467    0.2443 H   0  0  0  0  0  0  0  0  0  0  0  0
    2.5509   10.4365   -0.9416 H   0  0  0  0  0  0  0  0  0  0  0  0
    2.5039   12.7869    0.6835 H   0  0  0  0  0  0  0  0  0  0  0  0
    3.5339   12.5857   -0.7312 H   0  0  0  0  0  0  0  0  0  0  0  0
    0.7341   13.7872    0.8487 H   0  0  0  0  0  0  0  0  0  0  0  0
    0.0058   14.8712   -0.3846 H   0  0  0  0  0  0  0  0  0  0  0  0
   -0.3878   13.1186   -0.3846 H   0  0  0  0  0  0  0  0  0  0  0  0
    3.2053   14.5513   -2.1052 H   0  0  0  0  0  0  0  0  0  0  0  0
    3.1123   15.1163    0.4067 H   0  0  0  0  0  0  0  0  0  0  0  0
    3.6835   16.3569   -0.8282 H   0  0  0  0  0  0  0  0  0  0  0  0
    2.1043   17.2530    1.0799 H   0  0  0  0  0  0  0  0  0  0  0  0
   -0.4483   15.9944   -1.7830 H   0  0  0  0  0  0  0  0  0  0  0  0
    0.8154   18.5495   -2.9545 H   0  0  0  0  0  0  0  0  0  0  0  0
   -0.4206   17.4784   -3.7513 H   0  0  0  0  0  0  0  0  0  0  0  0
   -1.4259   19.5423   -2.8278 H   0  0  0  0  0  0  0  0  0  0  0  0
   -2.0525   18.0396   -2.0435 H   0  0  0  0  0  0  0  0  0  0  0  0
   -1.6596   19.6890   -0.3450 H   0  0  0  0  0  0  0  0  0  0  0  0
    0.2390   20.8070   -0.2220 H   0  0  0  0  0  0  0  0  0  0  0  0
   -1.5614   17.2103    1.6989 H   0  0  0  0  0  0  0  0  0  0  0  0
   -2.4314   17.6917    0.2029 H   0  0  0  0  0  0  0  0  0  0  0  0
   -1.3850   16.2317    0.2029 H   0  0  0  0  0  0  0  0  0  0  0  0
   -0.1756   18.2764    2.3475 H   0  0  0  0  0  0  0  0  0  0  0  0
    1.3213   18.7704    1.4862 H   0  0  0  0  0  0  0  0  0  0  0  0
   -0.1132   19.8515    1.4862 H   0  0  0  0  0  0  0  0  0  0  0  0
    3.1394   17.2155   -2.6395 H   0  0  0  0  0  0  0  0  0  0  0  0
    3.1614   16.0453   -4.0021 H   0  0  0  0  0  0  0  0  0  0  0  0
    1.9838   17.4018   -4.0021 H   0  0  0  0  0  0  0  0  0  0  0  0
   -0.0412   15.4755   -4.1366 H   0  0  0  0  0  0  0  0  0  0  0  0
    1.5865   14.6387   -4.4291 H   0  0  0  0  0  0  0  0  0  0  0  0
   -0.6690   13.7163   -2.6272 H   0  0  0  0  0  0  0  0  0  0  0  0
   -0.0446   12.9459   -4.1385 H   0  0  0  0  0  0  0  0  0  0  0  0
    3.3590   12.2290   -2.7608 H   0  0  0  0  0  0  0  0  0  0  0  0
    2.2367   11.5851   -4.0069 H   0  0  0  0  0  0  0  0  0  0  0  0
    2.6747   13.3271   -4.0069 H   0  0  0  0  0  0  0  0  0  0  0  0
  1  2  1  0
  2  3  1  0
  3  4  1  0
  4  5  1  0
  5  6  1  0
  6  7  1  0
  7  8  1  0
  7  9  1  0
  2 10  1  0
 10 11  1  0
 11 12  1  0
 12 13  1  0
 13 14  1  1
 13 15  1  0
 15 16  1  0
 16 17  1  0
 17 18  2  0
 18 19  1  0
 19 20  1  0
 20 21  1  0
 21 22  1  0
 22 23  1  0
 22 24  1  0
 24 25  1  0
 24 26  1  0
 19 27  1  0
 27 28  1  6
 27 29  1  0
 29 30  1  0
 30 31  1  0
 31 32  1  6
  7  5  1  0
 31 10  1  0
 31 13  1  0
 27 15  1  0
 24 18  1  0
  1 33  1  0
  1 34  1  0
  1 35  1  0
  2 36  1  1
  3 37  1  0
  3 38  1  0
  4 39  1  0
  4 40  1  0
  5 41  1  1
  8 42  1  0
  8 43  1  0
  8 44  1  0
  9 45  1  0
  9 46  1  0
  9 47  1  0
 10 48  1  1
 11 49  1  0
 11 50  1  0
 12 51  1  0
 12 52  1  0
 14 53  1  0
 14 54  1  0
 14 55  1  0
 15 56  1  6
 16 57  1  0
 16 58  1  0
 17 59  1  0
 19 60  1  1
 20 61  1  0
 20 62  1  0
 21 63  1  0
 21 64  1  0
 22 65  1  1
 23 66  1  0
 25 67  1  0
 25 68  1  0
 25 69  1  0
 26 70  1  0
 26 71  1  0
 26 72  1  0
 28 73  1  0
 28 74  1  0
 28 75  1  0
 29 76  1  0
 29 77  1  0
 30 78  1  0
 30 79  1  0
 32 80  1  0
 32 81  1  0
 32 82  1  0
M  END
>  <meeko>  (14) 
{"is_sidechain": [false], "intermolecular_energy": 2.731, "internal_energy": -0.839}

$$$$
EPH_relaxed_0001_pdb2pqr_Repair_230_r2_0001_out
     RDKit          3D

 82 86  0  0  0  0  0  0  0  0999 V2000
   -2.0010    7.7980   -1.9920 C   0  0  0  0  0  0  0  0  0  0  0  0
   -2.3030    8.5550   -0.6960 C   0  0  2  0  0  0  0  0  0  0  0  0
   -3.8130    8.5930   -0.3840 C   0  0  0  0  0  0  0  0  0  0  0  0
   -4.6120    7.4860   -1.0760 C   0  0  0  0  0  0  0  0  0  0  0  0
   -6.0790    7.7940   -1.1000 C   0  0  2  0  0  0  0  0  0  0  0  0
   -6.9290    6.6820   -0.7900 O   0  0  0  0  0  0  0  0  0  0  0  0
   -7.0390    7.2120   -2.1200 C   0  0  0  0  0  0  0  0  0  0  0  0
   -6.5690    6.2760   -3.1900 C   0  0  0  0  0  0  0  0  0  0  0  0
   -8.3280    7.9280   -2.3790 C   0  0  0  0  0  0  0  0  0  0  0  0
   -1.7530    9.9740   -0.7820 C   0  0  1  0  0  0  0  0  0  0  0  0
   -1.3000   10.5250    0.5960 C   0  0  0  0  0  0  0  0  0  0  0  0
   -0.0650   11.4240    0.3340 C   0  0  0  0  0  0  0  0  0  0  0  0
   -0.0490   11.6290   -1.1990 C   0  0  1  0  0  0  0  0  0  0  0  0
   -1.0880   12.7630   -1.4630 C   0  0  0  0  0  0  0  0  0  0  0  0
    1.3390   11.9580   -1.8380 C   0  0  2  0  0  0  0  0  0  0  0  0
    1.9800   13.2750   -1.3650 C   0  0  0  0  0  0  0  0  0  0  0  0
    1.6350   14.4790   -2.1770 C   0  0  0  0  0  0  0  0  0  0  0  0
    1.0790   14.4630   -3.4020 C   0  0  0  0  0  0  0  0  0  0  0  0
    0.8280   13.1390   -4.1360 C   0  0  1  0  0  0  0  0  0  0  0  0
    1.3190   13.2590   -5.6030 C   0  0  0  0  0  0  0  0  0  0  0  0
    0.7070   14.4540   -6.3290 C   0  0  0  0  0  0  0  0  0  0  0  0
    1.0280   15.7560   -5.6010 C   0  0  2  0  0  0  0  0  0  0  0  0
    2.4360   15.9980   -5.6850 O   0  0  0  0  0  0  0  0  0  0  0  0
    0.5870   15.7500   -4.1100 C   0  0  0  0  0  0  0  0  0  0  0  0
   -0.9580   15.7920   -4.0240 C   0  0  0  0  0  0  0  0  0  0  0  0
    1.0950   17.0640   -3.4570 C   0  0  0  0  0  0  0  0  0  0  0  0
    1.3730   11.8320   -3.4150 C   0  0  1  0  0  0  0  0  0  0  0  0
    2.8620   11.5880   -3.8100 C   0  0  0  0  0  0  0  0  0  0  0  0
    0.5660   10.5840   -3.9330 C   0  0  0  0  0  0  0  0  0  0  0  0
   -0.7360   10.2390   -3.1850 C   0  0  0  0  0  0  0  0  0  0  0  0
   -0.5050   10.2000   -1.6710 C   0  0  2  0  0  0  0  0  0  0  0  0
    0.5200    9.0530   -1.3730 C   0  0  0  0  0  0  0  0  0  0  0  0
   -1.6034    6.8013   -1.7503 H   0  0  0  0  0  0  0  0  0  0  0  0
   -2.9255    7.6916   -2.5784 H   0  0  0  0  0  0  0  0  0  0  0  0
   -1.2571    8.3572   -2.5784 H   0  0  0  0  0  0  0  0  0  0  0  0
   -1.8096    8.0145    0.1253 H   0  0  0  0  0  0  0  0  0  0  0  0
   -3.9458    8.4895    0.7030 H   0  0  0  0  0  0  0  0  0  0  0  0
   -4.1959    9.5516   -0.7641 H   0  0  0  0  0  0  0  0  0  0  0  0
   -4.2529    7.3803   -2.1103 H   0  0  0  0  0  0  0  0  0  0  0  0
   -4.4664    6.5534   -0.5112 H   0  0  0  0  0  0  0  0  0  0  0  0
   -5.8921    8.8257   -0.7672 H   0  0  0  0  0  0  0  0  0  0  0  0
   -6.1213    5.3845   -2.7266 H   0  0  0  0  0  0  0  0  0  0  0  0
   -7.4228    5.9749   -3.8148 H   0  0  0  0  0  0  0  0  0  0  0  0
   -5.8176    6.7810   -3.8148 H   0  0  0  0  0  0  0  0  0  0  0  0
   -8.8005    8.1905   -1.4210 H   0  0  0  0  0  0  0  0  0  0  0  0
   -8.1292    8.8450   -2.9532 H   0  0  0  0  0  0  0  0  0  0  0  0
   -9.0014    7.2747   -2.9532 H   0  0  0  0  0  0  0  0  0  0  0  0
   -2.6245   10.4824   -1.2202 H   0  0  0  0  0  0  0  0  0  0  0  0
   -2.1083   11.1153    1.0522 H   0  0  0  0  0  0  0  0  0  0  0  0
   -1.0527    9.7057    1.2870 H   0  0  0  0  0  0  0  0  0  0  0  0
   -0.1693   12.3880    0.8535 H   0  0  0  0  0  0  0  0  0  0  0  0
    0.8666   10.9707    0.7037 H   0  0  0  0  0  0  0  0  0  0  0  0
   -1.4507   13.1588   -0.5029 H   0  0  0  0  0  0  0  0  0  0  0  0
   -0.6107   13.5715   -2.0361 H   0  0  0  0  0  0  0  0  0  0  0  0
   -1.9351   12.3580   -2.0361 H   0  0  0  0  0  0  0  0  0  0  0  0
    1.9776   11.1556   -1.4401 H   0  0  0  0  0  0  0  0  0  0  0  0
    1.6557   13.4585   -0.3301 H   0  0  0  0  0  0  0  0  0  0  0  0
    3.0667   13.1391   -1.4683 H   0  0  0  0  0  0  0  0  0  0  0  0
    1.8539   15.4629   -1.7364 H   0  0  0  0  0  0  0  0  0  0  0  0
   -0.2608   12.9833   -4.1183 H   0  0  0  0  0  0  0  0  0  0  0  0
    2.4133   13.3705   -5.6006 H   0  0  0  0  0  0  0  0  0  0  0  0
    1.0060   12.3487   -6.1354 H   0  0  0  0  0  0  0  0  0  0  0  0
    1.1140   14.5023   -7.3498 H   0  0  0  0  0  0  0  0  0  0  0  0
   -0.3853   14.3268   -6.3566 H   0  0  0  0  0  0  0  0  0  0  0  0
    0.4576   16.5572   -6.0937 H   0  0  0  0  0  0  0  0  0  0  0  0
    2.5720   16.9600   -5.6500 H   0  0  0  0  0  0  0  0  0  0  0  0
   -1.2664   15.8004   -2.9681 H   0  0  0  0  0  0  0  0  0  0  0  0
   -1.3284   16.7005   -4.5214 H   0  0  0  0  0  0  0  0  0  0  0  0
   -1.3772   14.9049   -4.5214 H   0  0  0  0  0  0  0  0  0  0  0  0
    1.0577   16.9675   -2.3619 H   0  0  0  0  0  0  0  0  0  0  0  0
    2.1313   17.2538   -3.7733 H   0  0  0  0  0  0  0  0  0  0  0  0
    0.4559   17.9016   -3.7733 H   0  0  0  0  0  0  0  0  0  0  0  0
    3.4712   11.4882   -2.8996 H   0  0  0  0  0  0  0  0  0  0  0  0
    2.9372   10.6656   -4.4045 H   0  0  0  0  0  0  0  0  0  0  0  0
    3.2277   12.4382   -4.4045 H   0  0  0  0  0  0  0  0  0  0  0  0
    0.3059   10.7695   -4.9856 H   0  0  0  0  0  0  0  0  0  0  0  0
    1.2300    9.7229   -3.7669 H   0  0  0  0  0  0  0  0  0  0  0  0
   -1.4952   11.0015   -3.4136 H   0  0  0  0  0  0  0  0  0  0  0  0
   -1.0765    9.2459   -3.5135 H   0  0  0  0  0  0  0  0  0  0  0  0
    0.6284    8.9317   -0.2851 H   0  0  0  0  0  0  0  0  0  0  0  0
    0.1559    8.1126   -1.8123 H   0  0  0  0  0  0  0  0  0  0  0  0
    1.4953    9.3095   -1.8123 H   0  0  0  0  0  0  0  0  0  0  0  0
  1  2  1  0
  2  3  1  0
  3  4  1  0
  4  5  1  0
  5  6  1  0
  6  7  1  0
  7  8  1  0
  7  9  1  0
  2 10  1  0
 10 11  1  0
 11 12  1  0
 12 13  1  0
 13 14  1  1
 13 15  1  0
 15 16  1  0
 16 17  1  0
 17 18  2  0
 18 19  1  0
 19 20  1  0
 20 21  1  0
 21 22  1  0
 22 23  1  0
 22 24  1  0
 24 25  1  0
 24 26  1  0
 19 27  1  0
 27 28  1  6
 27 29  1  0
 29 30  1  0
 30 31  1  0
 31 32  1  6
  7  5  1  0
 31 10  1  0
 31 13  1  0
 27 15  1  0
 24 18  1  0
  1 33  1  0
  1 34  1  0
  1 35  1  0
  2 36  1  1
  3 37  1  0
  3 38  1  0
  4 39  1  0
  4 40  1  0
  5 41  1  1
  8 42  1  0
  8 43  1  0
  8 44  1  0
  9 45  1  0
  9 46  1  0
  9 47  1  0
 10 48  1  6
 11 49  1  0
 11 50  1  0
 12 51  1  0
 12 52  1  0
 14 53  1  0
 14 54  1  0
 14 55  1  0
 15 56  1  1
 16 57  1  0
 16 58  1  0
 17 59  1  0
 19 60  1  6
 20 61  1  0
 20 62  1  0
 21 63  1  0
 21 64  1  0
 22 65  1  6
 23 66  1  0
 25 67  1  0
 25 68  1  0
 25 69  1  0
 26 70  1  0
 26 71  1  0
 26 72  1  0
 28 73  1  0
 28 74  1  0
 28 75  1  0
 29 76  1  0
 29 77  1  0
 30 78  1  0
 30 79  1  0
 32 80  1  0
 32 81  1  0
 32 82  1  0
M  END
>  <meeko>  (15) 
{"is_sidechain": [false], "intermolecular_energy": 2.731, "internal_energy": -0.839}

$$$$
EPH_relaxed_0001_pdb2pqr_Repair_230_r2_0001_out
     RDKit          3D

 82 86  0  0  0  0  0  0  0  0999 V2000
    2.7960   18.1390   -3.7950 C   0  0  0  0  0  0  0  0  0  0  0  0
    1.9760   17.9930   -2.5100 C   0  0  2  0  0  0  0  0  0  0  0  0
    2.2920   19.1050   -1.4900 C   0  0  0  0  0  0  0  0  0  0  0  0
    1.8080   18.7950   -0.0710 C   0  0  0  0  0  0  0  0  0  0  0  0
    2.3920   19.7420    0.9340 C   0  0  2  0  0  0  0  0  0  0  0  0
    3.7220   20.1870    0.6350 O   0  0  0  0  0  0  0  0  0  0  0  0
    3.5700   19.3950    1.8240 C   0  0  0  0  0  0  0  0  0  0  0  0
    4.2350   18.0560    1.7530 C   0  0  0  0  0  0  0  0  0  0  0  0
    3.7610   20.1690    3.0920 C   0  0  0  0  0  0  0  0  0  0  0  0
    2.2290   16.6260   -1.8850 C   0  0  1  0  0  0  0  0  0  0  0  0
    2.8440   16.7240   -0.4630 C   0  0  0  0  0  0  0  0  0  0  0  0
    2.2620   15.5450    0.3580 C   0  0  0  0  0  0  0  0  0  0  0  0
    1.6000   14.6250   -0.6950 C   0  0  1  0  0  0  0  0  0  0  0  0
    2.7750   13.7910   -1.2950 C   0  0  0  0  0  0  0  0  0  0  0  0
    0.4440   13.7060   -0.1810 C   0  0  2  0  0  0  0  0  0  0  0  0
    0.8550   12.6750    0.8840 C   0  0  0  0  0  0  0  0  0  0  0  0
    1.2940   11.3500    0.3540 C   0  0  0  0  0  0  0  0  0  0  0  0
    1.0890   10.9030   -0.8990 C   0  0  0  0  0  0  0  0  0  0  0  0
    0.2650   11.7200   -1.9030 C   0  0  1  0  0  0  0  0  0  0  0  0
   -0.7490   10.7900   -2.6190 C   0  0  0  0  0  0  0  0  0  0  0  0
   -0.0800    9.5800   -3.2630 C   0  0  0  0  0  0  0  0  0  0  0  0
    0.6810    8.7600   -2.2230 C   0  0  2  0  0  0  0  0  0  0  0  0
   -0.2610    8.1800   -1.3150 O   0  0  0  0  0  0  0  0  0  0  0  0
    1.7250    9.5940   -1.4300 C   0  0  0  0  0  0  0  0  0  0  0  0
    2.9050    9.9700   -2.3590 C   0  0  0  0  0  0  0  0  0  0  0  0
    2.3190    8.6850   -0.3200 C   0  0  0  0  0  0  0  0  0  0  0  0
   -0.4130   13.0390   -1.3310 C   0  0  1  0  0  0  0  0  0  0  0  0
   -1.8020   12.6960   -0.7100 C   0  0  0  0  0  0  0  0  0  0  0  0
   -0.6920   14.0300   -2.5220 C   0  0  0  0  0  0  0  0  0  0  0  0
    0.4470   14.9950   -2.9040 C   0  0  0  0  0  0  0  0  0  0  0  0
    1.0010   15.7060   -1.6660 C   0  0  2  0  0  0  0  0  0  0  0  0
   -0.1530   16.5710   -1.0540 C   0  0  0  0  0  0  0  0  0  0  0  0
    3.8491   18.3265   -3.5386 H   0  0  0  0  0  0  0  0  0  0  0  0
    2.7214   17.2134   -4.3847 H   0  0  0  0  0  0  0  0  0  0  0  0
    2.4065   18.9819   -4.3847 H   0  0  0  0  0  0  0  0  0  0  0  0
    0.9144   18.0869   -2.7823 H   0  0  0  0  0  0  0  0  0  0  0  0
    3.3820   19.2500   -1.4611 H   0  0  0  0  0  0  0  0  0  0  0  0
    1.7569   20.0069   -1.8220 H   0  0  0  0  0  0  0  0  0  0  0  0
    0.7114   18.8769   -0.0426 H   0  0  0  0  0  0  0  0  0  0  0  0
    2.1344   17.7768    0.1876 H   0  0  0  0  0  0  0  0  0  0  0  0
    1.3979   20.1580    1.1548 H   0  0  0  0  0  0  0  0  0  0  0  0
    4.4198   17.6839    2.7715 H   0  0  0  0  0  0  0  0  0  0  0  0
    3.5826   17.3505    1.2176 H   0  0  0  0  0  0  0  0  0  0  0  0
    5.1914   18.1495    1.2176 H   0  0  0  0  0  0  0  0  0  0  0  0
    3.5974   19.5061    3.9544 H   0  0  0  0  0  0  0  0  0  0  0  0
    4.7849   20.5695    3.1264 H   0  0  0  0  0  0  0  0  0  0  0  0
    3.0409   20.9999    3.1264 H   0  0  0  0  0  0  0  0  0  0  0  0
    2.8922   16.1937   -2.6487 H   0  0  0  0  0  0  0  0  0  0  0  0
    3.9397   16.6431   -0.5177 H   0  0  0  0  0  0  0  0  0  0  0  0
    2.6026   17.6892    0.0061 H   0  0  0  0  0  0  0  0  0  0  0  0
    3.0621   15.0112    0.8918 H   0  0  0  0  0  0  0  0  0  0  0  0
    1.5486   15.8825    1.1243 H   0  0  0  0  0  0  0  0  0  0  0  0
    3.3761   13.3643   -0.4785 H   0  0  0  0  0  0  0  0  0  0  0  0
    2.3686   12.9780   -1.9147 H   0  0  0  0  0  0  0  0  0  0  0  0
    3.4083   14.4429   -1.9147 H   0  0  0  0  0  0  0  0  0  0  0  0
   -0.2146   14.4207    0.3341 H   0  0  0  0  0  0  0  0  0  0  0  0
    1.6859   13.1004    1.4659 H   0  0  0  0  0  0  0  0  0  0  0  0
   -0.0473   12.4794    1.4819 H   0  0  0  0  0  0  0  0  0  0  0  0
    1.8299   10.6832    1.0455 H   0  0  0  0  0  0  0  0  0  0  0  0
    0.9835   12.1197   -2.6337 H   0  0  0  0  0  0  0  0  0  0  0  0
   -1.4839   10.4354   -1.8813 H   0  0  0  0  0  0  0  0  0  0  0  0
   -1.2277   11.3723   -3.4201 H   0  0  0  0  0  0  0  0  0  0  0  0
   -0.8506    8.9470   -3.7271 H   0  0  0  0  0  0  0  0  0  0  0  0
    0.6335    9.9351   -4.0212 H   0  0  0  0  0  0  0  0  0  0  0  0
    1.2439    7.9836   -2.7619 H   0  0  0  0  0  0  0  0  0  0  0  0
   -0.2070    8.6730   -0.4800 H   0  0  0  0  0  0  0  0  0  0  0  0
    3.7774   10.2480   -1.7494 H   0  0  0  0  0  0  0  0  0  0  0  0
    3.1607    9.1088   -2.9938 H   0  0  0  0  0  0  0  0  0  0  0  0
    2.6153   10.8203   -2.9938 H   0  0  0  0  0  0  0  0  0  0  0  0
    2.0537    9.0910    0.6673 H   0  0  0  0  0  0  0  0  0  0  0  0
    1.9102    7.6688   -0.4205 H   0  0  0  0  0  0  0  0  0  0  0  0
    3.4139    8.6514   -0.4205 H   0  0  0  0  0  0  0  0  0  0  0  0
   -1.7277   12.7144    0.3873 H   0  0  0  0  0  0  0  0  0  0  0  0
   -2.5443   13.4378   -1.0397 H   0  0  0  0  0  0  0  0  0  0  0  0
   -2.1137   11.6939   -1.0397 H   0  0  0  0  0  0  0  0  0  0  0  0
   -0.9276   13.4251   -3.4100 H   0  0  0  0  0  0  0  0  0  0  0  0
   -1.5116   14.6756   -2.1734 H   0  0  0  0  0  0  0  0  0  0  0  0
    1.2561   14.4248   -3.3837 H   0  0  0  0  0  0  0  0  0  0  0  0
    0.0482   15.7526   -3.5946 H   0  0  0  0  0  0  0  0  0  0  0  0
   -0.0989   16.5305    0.0439 H   0  0  0  0  0  0  0  0  0  0  0  0
   -0.0465   17.6136   -1.3881 H   0  0  0  0  0  0  0  0  0  0  0  0
   -1.1239   16.1763   -1.3881 H   0  0  0  0  0  0  0  0  0  0  0  0
  1  2  1  0
  2  3  1  0
  3  4  1  0
  4  5  1  0
  5  6  1  0
  6  7  1  0
  7  8  1  0
  7  9  1  0
  2 10  1  0
 10 11  1  0
 11 12  1  0
 12 13  1  0
 13 14  1  6
 13 15  1  0
 15 16  1  0
 16 17  1  0
 17 18  2  0
 18 19  1  0
 19 20  1  0
 20 21  1  0
 21 22  1  0
 22 23  1  0
 22 24  1  0
 24 25  1  0
 24 26  1  0
 19 27  1  0
 27 28  1  1
 27 29  1  0
 29 30  1  0
 30 31  1  0
 31 32  1  1
  7  5  1  0
 31 10  1  0
 31 13  1  0
 27 15  1  0
 24 18  1  0
  1 33  1  0
  1 34  1  0
  1 35  1  0
  2 36  1  6
  3 37  1  0
  3 38  1  0
  4 39  1  0
  4 40  1  0
  5 41  1  1
  8 42  1  0
  8 43  1  0
  8 44  1  0
  9 45  1  0
  9 46  1  0
  9 47  1  0
 10 48  1  6
 11 49  1  0
 11 50  1  0
 12 51  1  0
 12 52  1  0
 14 53  1  0
 14 54  1  0
 14 55  1  0
 15 56  1  1
 16 57  1  0
 16 58  1  0
 17 59  1  0
 19 60  1  6
 20 61  1  0
 20 62  1  0
 21 63  1  0
 21 64  1  0
 22 65  1  6
 23 66  1  0
 25 67  1  0
 25 68  1  0
 25 69  1  0
 26 70  1  0
 26 71  1  0
 26 72  1  0
 28 73  1  0
 28 74  1  0
 28 75  1  0
 29 76  1  0
 29 77  1  0
 30 78  1  0
 30 79  1  0
 32 80  1  0
 32 81  1  0
 32 82  1  0
M  END
>  <meeko>  (16) 
{"is_sidechain": [false], "intermolecular_energy": 2.731, "internal_energy": -0.839}

$$$$
EPH_relaxed_0001_pdb2pqr_Repair_230_r2_0001_out
     RDKit          3D

 82 86  0  0  0  0  0  0  0  0999 V2000
    0.8420    9.4600   -0.0450 C   0  0  0  0  0  0  0  0  0  0  0  0
   -0.3740   10.3850    0.0560 C   0  0  2  0  0  0  0  0  0  0  0  0
   -1.1730   10.4380   -1.2620 C   0  0  0  0  0  0  0  0  0  0  0  0
   -0.5120    9.6770   -2.4140 C   0  0  0  0  0  0  0  0  0  0  0  0
   -0.2870   10.5590   -3.6040 C   0  0  2  0  0  0  0  0  0  0  0  0
    0.3340    9.9100   -4.7210 O   0  0  0  0  0  0  0  0  0  0  0  0
    1.0900   10.9620   -4.0990 C   0  0  0  0  0  0  0  0  0  0  0  0
    2.3340   10.4920   -3.4120 C   0  0  0  0  0  0  0  0  0  0  0  0
    1.2160   12.1930   -4.9400 C   0  0  0  0  0  0  0  0  0  0  0  0
    0.0710   11.7870    0.4520 C   0  0  1  0  0  0  0  0  0  0  0  0
    1.1990   11.7780    1.5170 C   0  0  0  0  0  0  0  0  0  0  0  0
    2.1210   12.9840    1.2040 C   0  0  0  0  0  0  0  0  0  0  0  0
    1.3200   13.8330    0.1880 C   0  0  1  0  0  0  0  0  0  0  0  0
    0.3210   14.6610    1.0570 C   0  0  0  0  0  0  0  0  0  0  0  0
    2.1600   14.7510   -0.7590 C   0  0  2  0  0  0  0  0  0  0  0  0
    2.9780   15.8450   -0.0510 C   0  0  0  0  0  0  0  0  0  0  0  0
    2.2750   17.1500    0.1300 C   0  0  0  0  0  0  0  0  0  0  0  0
    1.1510   17.5270   -0.5060 C   0  0  0  0  0  0  0  0  0  0  0  0
    0.5230   16.6410   -1.5890 C   0  0  1  0  0  0  0  0  0  0  0  0
    0.1580   17.5090   -2.8220 C   0  0  0  0  0  0  0  0  0  0  0  0
   -0.7250   18.6990   -2.4580 C   0  0  0  0  0  0  0  0  0  0  0  0
   -0.0410   19.5880   -1.4230 C   0  0  2  0  0  0  0  0  0  0  0  0
    1.1080   20.1940   -2.0210 O   0  0  0  0  0  0  0  0  0  0  0  0
    0.3810   18.8200   -0.1390 C   0  0  0  0  0  0  0  0  0  0  0  0
   -0.8790   18.4230    0.6690 C   0  0  0  0  0  0  0  0  0  0  0  0
    1.1830   19.7990    0.7610 C   0  0  0  0  0  0  0  0  0  0  0  0
    1.3450   15.3380   -1.9820 C   0  0  1  0  0  0  0  0  0  0  0  0
    2.3880   15.6810   -3.0880 C   0  0  0  0  0  0  0  0  0  0  0  0
    0.3620   14.2800   -2.6100 C   0  0  0  0  0  0  0  0  0  0  0  0
   -0.3460   13.3230   -1.6320 C   0  0  0  0  0  0  0  0  0  0  0  0
    0.6570   12.6900   -0.6630 C   0  0  2  0  0  0  0  0  0  0  0  0
    1.6610   11.8320   -1.5060 C   0  0  0  0  0  0  0  0  0  0  0  0
    1.1876    9.1971    0.9656 H   0  0  0  0  0  0  0  0  0  0  0  0
    0.5622    8.5444   -0.5866 H   0  0  0  0  0  0  0  0  0  0  0  0
    1.6497    9.9740   -0.5866 H   0  0  0  0  0  0  0  0  0  0  0  0
   -1.0394    9.9744    0.8297 H   0  0  0  0  0  0  0  0  0  0  0  0
   -2.1670   10.0022   -1.0831 H   0  0  0  0  0  0  0  0  0  0  0  0
   -1.2257   11.4946   -1.5634 H   0  0  0  0  0  0  0  0  0  0  0  0
    0.4574    9.2850   -2.0725 H   0  0  0  0  0  0  0  0  0  0  0  0
   -1.1838    8.8597   -2.7151 H   0  0  0  0  0  0  0  0  0  0  0  0
   -1.1872   11.1458   -3.3687 H   0  0  0  0  0  0  0  0  0  0  0  0
    2.1935   10.5451   -2.3223 H   0  0  0  0  0  0  0  0  0  0  0  0
    2.5440    9.4526   -3.7044 H   0  0  0  0  0  0  0  0  0  0  0  0
    3.1788   11.1329   -3.7044 H   0  0  0  0  0  0  0  0  0  0  0  0
    1.3062   13.0746   -4.2884 H   0  0  0  0  0  0  0  0  0  0  0  0
    2.1107   12.1133   -5.5750 H   0  0  0  0  0  0  0  0  0  0  0  0
    0.3237   12.2962   -5.5750 H   0  0  0  0  0  0  0  0  0  0  0  0
   -0.8907   12.1933    0.7984 H   0  0  0  0  0  0  0  0  0  0  0  0
    0.7694   11.8813    2.5243 H   0  0  0  0  0  0  0  0  0  0  0  0
    1.7617   10.8333    1.4876 H   0  0  0  0  0  0  0  0  0  0  0  0
    2.3272   13.5625    2.1166 H   0  0  0  0  0  0  0  0  0  0  0  0
    3.0982   12.6708    0.8078 H   0  0  0  0  0  0  0  0  0  0  0  0
    0.5308   14.4871    2.1227 H   0  0  0  0  0  0  0  0  0  0  0  0
    0.4374   15.7310    0.8302 H   0  0  0  0  0  0  0  0  0  0  0  0
   -0.7089   14.3480    0.8302 H   0  0  0  0  0  0  0  0  0  0  0  0
    2.8981   14.0492   -1.1745 H   0  0  0  0  0  0  0  0  0  0  0  0
    3.2588   15.4692    0.9440 H   0  0  0  0  0  0  0  0  0  0  0  0
    3.8395   16.0511   -0.7031 H   0  0  0  0  0  0  0  0  0  0  0  0
    2.7132   17.8633    0.8436 H   0  0  0  0  0  0  0  0  0  0  0  0
   -0.3914   16.2208   -1.1448 H   0  0  0  0  0  0  0  0  0  0  0  0
    1.0867   17.8847   -3.2763 H   0  0  0  0  0  0  0  0  0  0  0  0
   -0.4068   16.8753   -3.5215 H   0  0  0  0  0  0  0  0  0  0  0  0
   -0.9251   19.2896   -3.3642 H   0  0  0  0  0  0  0  0  0  0  0  0
   -1.6654   18.3212   -2.0304 H   0  0  0  0  0  0  0  0  0  0  0  0
   -0.7710   20.3483   -1.1081 H   0  0  0  0  0  0  0  0  0  0  0  0
    0.9000   20.3610   -2.9560 H   0  0  0  0  0  0  0  0  0  0  0  0
   -0.6612   18.4916    1.7450 H   0  0  0  0  0  0  0  0  0  0  0  0
   -1.7053   19.1043    0.4180 H   0  0  0  0  0  0  0  0  0  0  0  0
   -1.1655   17.3911    0.4180 H   0  0  0  0  0  0  0  0  0  0  0  0
    0.9915   19.5652    1.8187 H   0  0  0  0  0  0  0  0  0  0  0  0
    2.2576   19.6935    0.5509 H   0  0  0  0  0  0  0  0  0  0  0  0
    0.8680   20.8318    0.5509 H   0  0  0  0  0  0  0  0  0  0  0  0
    3.3326   15.9916   -2.6176 H   0  0  0  0  0  0  0  0  0  0  0  0
    2.5644   14.7935   -3.7135 H   0  0  0  0  0  0  0  0  0  0  0  0
    2.0032   16.4999   -3.7135 H   0  0  0  0  0  0  0  0  0  0  0  0
   -0.4162   14.8325   -3.1569 H   0  0  0  0  0  0  0  0  0  0  0  0
    0.9956   13.6346   -3.2361 H   0  0  0  0  0  0  0  0  0  0  0  0
   -1.0960   13.8859   -1.0570 H   0  0  0  0  0  0  0  0  0  0  0  0
   -0.8277   12.5218   -2.2117 H   0  0  0  0  0  0  0  0  0  0  0  0
    2.3202   11.2687   -0.8291 H   0  0  0  0  0  0  0  0  0  0  0  0
    1.1004   11.1297   -2.1404 H   0  0  0  0  0  0  0  0  0  0  0  0
    2.2674   12.4952   -2.1404 H   0  0  0  0  0  0  0  0  0  0  0  0
  1  2  1  0
  2  3  1  0
  3  4  1  0
  4  5  1  0
  5  6  1  0
  6  7  1  0
  7  8  1  0
  7  9  1  0
  2 10  1  0
 10 11  1  0
 11 12  1  0
 12 13  1  0
 13 14  1  1
 13 15  1  0
 15 16  1  0
 16 17  1  0
 17 18  2  0
 18 19  1  0
 19 20  1  0
 20 21  1  0
 21 22  1  0
 22 23  1  0
 22 24  1  0
 24 25  1  0
 24 26  1  0
 19 27  1  0
 27 28  1  6
 27 29  1  0
 29 30  1  0
 30 31  1  0
 31 32  1  6
  7  5  1  0
 31 10  1  0
 31 13  1  0
 27 15  1  0
 24 18  1  0
  1 33  1  0
  1 34  1  0
  1 35  1  0
  2 36  1  1
  3 37  1  0
  3 38  1  0
  4 39  1  0
  4 40  1  0
  5 41  1  6
  8 42  1  0
  8 43  1  0
  8 44  1  0
  9 45  1  0
  9 46  1  0
  9 47  1  0
 10 48  1  1
 11 49  1  0
 11 50  1  0
 12 51  1  0
 12 52  1  0
 14 53  1  0
 14 54  1  0
 14 55  1  0
 15 56  1  6
 16 57  1  0
 16 58  1  0
 17 59  1  0
 19 60  1  1
 20 61  1  0
 20 62  1  0
 21 63  1  0
 21 64  1  0
 22 65  1  1
 23 66  1  0
 25 67  1  0
 25 68  1  0
 25 69  1  0
 26 70  1  0
 26 71  1  0
 26 72  1  0
 28 73  1  0
 28 74  1  0
 28 75  1  0
 29 76  1  0
 29 77  1  0
 30 78  1  0
 30 79  1  0
 32 80  1  0
 32 81  1  0
 32 82  1  0
M  END
>  <meeko>  (17) 
{"is_sidechain": [false], "intermolecular_energy": 2.731, "internal_energy": -0.839}

$$$$
EPH_relaxed_0001_pdb2pqr_Repair_230_r2_0001_out
     RDKit          3D

 82 86  0  0  0  0  0  0  0  0999 V2000
    0.1690    9.8380   -4.5760 C   0  0  0  0  0  0  0  0  0  0  0  0
    1.2550   10.5640   -3.7760 C   0  0  2  0  0  0  0  0  0  0  0  0
    1.7170    9.7490   -2.5520 C   0  0  0  0  0  0  0  0  0  0  0  0
    0.7220    8.6690   -2.1200 C   0  0  0  0  0  0  0  0  0  0  0  0
   -0.1500    9.1370   -0.9940 C   0  0  2  0  0  0  0  0  0  0  0  0
   -0.7320    8.0870   -0.2110 O   0  0  0  0  0  0  0  0  0  0  0  0
   -1.6490    8.9120   -0.9470 C   0  0  0  0  0  0  0  0  0  0  0  0
   -2.3650    8.1940   -2.0480 C   0  0  0  0  0  0  0  0  0  0  0  0
   -2.4810    9.8080   -0.0830 C   0  0  0  0  0  0  0  0  0  0  0  0
    0.7460   11.9300   -3.3310 C   0  0  1  0  0  0  0  0  0  0  0  0
   -0.7640   11.9180   -2.9720 C   0  0  0  0  0  0  0  0  0  0  0  0
   -0.9520   12.9130   -1.7980 C   0  0  0  0  0  0  0  0  0  0  0  0
    0.3750   13.7040   -1.7400 C   0  0  1  0  0  0  0  0  0  0  0  0
    0.2410   14.7930   -2.8510 C   0  0  0  0  0  0  0  0  0  0  0  0
    0.7450   14.3320   -0.3570 C   0  0  2  0  0  0  0  0  0  0  0  0
   -0.2430   15.3900    0.1650 C   0  0  0  0  0  0  0  0  0  0  0  0
    0.0560   16.7960   -0.2370 C   0  0  0  0  0  0  0  0  0  0  0  0
    1.2230   17.2330   -0.7450 C   0  0  0  0  0  0  0  0  0  0  0  0
    2.4290   16.2930   -0.8690 C   0  0  1  0  0  0  0  0  0  0  0  0
    3.6990   17.0060   -0.3340 C   0  0  0  0  0  0  0  0  0  0  0  0
    3.9390   18.3550   -1.0050 C   0  0  0  0  0  0  0  0  0  0  0  0
    2.7410   19.2820   -0.8100 C   0  0  2  0  0  0  0  0  0  0  0  0
    2.6360   19.6120    0.5780 O   0  0  0  0  0  0  0  0  0  0  0  0
    1.4030   18.6660   -1.3040 C   0  0  0  0  0  0  0  0  0  0  0  0
    1.4050   18.5870   -2.8510 C   0  0  0  0  0  0  0  0  0  0  0  0
    0.2580   19.6420   -0.9210 C   0  0  0  0  0  0  0  0  0  0  0  0
    2.2410   14.8390   -0.2550 C   0  0  1  0  0  0  0  0  0  0  0  0
    2.6050   14.8510    1.2610 C   0  0  0  0  0  0  0  0  0  0  0  0
    3.2550   13.8540   -0.9480 C   0  0  0  0  0  0  0  0  0  0  0  0
    2.7850   13.1730   -2.2470 C   0  0  0  0  0  0  0  0  0  0  0  0
    1.3950   12.5540   -2.0700 C   0  0  2  0  0  0  0  0  0  0  0  0
    1.5030   11.4400   -0.9750 C   0  0  0  0  0  0  0  0  0  0  0  0
   -0.5412    9.3632   -3.8831 H   0  0  0  0  0  0  0  0  0  0  0  0
   -0.3650   10.5614   -5.2097 H   0  0  0  0  0  0  0  0  0  0  0  0
    0.6333    9.0681   -5.2097 H   0  0  0  0  0  0  0  0  0  0  0  0
    2.1257   10.6887   -4.4365 H   0  0  0  0  0  0  0  0  0  0  0  0
    2.6720    9.2623   -2.7993 H   0  0  0  0  0  0  0  0  0  0  0  0
    1.8099   10.4543   -1.7130 H   0  0  0  0  0  0  0  0  0  0  0  0
    0.0859    8.4065   -2.9782 H   0  0  0  0  0  0  0  0  0  0  0  0
    1.2933    7.7961   -1.7713 H   0  0  0  0  0  0  0  0  0  0  0  0
    0.4649   10.0396   -0.8625 H   0  0  0  0  0  0  0  0  0  0  0  0
   -3.0791    7.4779   -1.6151 H   0  0  0  0  0  0  0  0  0  0  0  0
   -2.9070    8.9224   -2.6690 H   0  0  0  0  0  0  0  0  0  0  0  0
   -1.6351    7.6540   -2.6690 H   0  0  0  0  0  0  0  0  0  0  0  0
   -2.2775    9.5889    0.9756 H   0  0  0  0  0  0  0  0  0  0  0  0
   -2.2302   10.8579   -0.2949 H   0  0  0  0  0  0  0  0  0  0  0  0
   -3.5465    9.6356   -0.2949 H   0  0  0  0  0  0  0  0  0  0  0  0
    1.0059   12.5222   -4.2208 H   0  0  0  0  0  0  0  0  0  0  0  0
   -1.3620   12.2369   -3.8384 H   0  0  0  0  0  0  0  0  0  0  0  0
   -1.0952   10.9075   -2.6905 H   0  0  0  0  0  0  0  0  0  0  0  0
   -1.7982   13.5882   -1.9931 H   0  0  0  0  0  0  0  0  0  0  0  0
   -1.1744   12.4017   -0.8498 H   0  0  0  0  0  0  0  0  0  0  0  0
    0.1194   15.7811   -2.3831 H   0  0  0  0  0  0  0  0  0  0  0  0
    1.1460   14.7922   -3.4763 H   0  0  0  0  0  0  0  0  0  0  0  0
   -0.6368   14.5728   -3.4763 H   0  0  0  0  0  0  0  0  0  0  0  0
    0.6510   13.4735    0.3243 H   0  0  0  0  0  0  0  0  0  0  0  0
   -1.2445   15.1347   -0.2115 H   0  0  0  0  0  0  0  0  0  0  0  0
   -0.1644   15.3642    1.2619 H   0  0  0  0  0  0  0  0  0  0  0  0
   -0.7456   17.5380   -0.1070 H   0  0  0  0  0  0  0  0  0  0  0  0
    2.5427   16.0846   -1.9431 H   0  0  0  0  0  0  0  0  0  0  0  0
    3.5841   17.1659    0.7482 H   0  0  0  0  0  0  0  0  0  0  0  0
    4.5627   16.3629   -0.5587 H   0  0  0  0  0  0  0  0  0  0  0  0
    4.8317   18.8227   -0.5641 H   0  0  0  0  0  0  0  0  0  0  0  0
    4.0839   18.1903   -2.0829 H   0  0  0  0  0  0  0  0  0  0  0  0
    2.9157   20.1806   -1.4200 H   0  0  0  0  0  0  0  0  0  0  0  0
    3.5360   19.7580    0.9150 H   0  0  0  0  0  0  0  0  0  0  0  0
    1.4317   17.5329   -3.1643 H   0  0  0  0  0  0  0  0  0  0  0  0
    0.4945   19.0633   -3.2436 H   0  0  0  0  0  0  0  0  0  0  0  0
    2.2902   19.1087   -3.2436 H   0  0  0  0  0  0  0  0  0  0  0  0
    0.1823   19.7065    0.1745 H   0  0  0  0  0  0  0  0  0  0  0  0
    0.4729   20.6390   -1.3331 H   0  0  0  0  0  0  0  0  0  0  0  0
   -0.6924   19.2720   -1.3331 H   0  0  0  0  0  0  0  0  0  0  0  0
    1.6827   14.8206    1.8598 H   0  0  0  0  0  0  0  0  0  0  0  0
    3.2241   13.9728    1.4964 H   0  0  0  0  0  0  0  0  0  0  0  0
    3.1649   15.7681    1.4964 H   0  0  0  0  0  0  0  0  0  0  0  0
    4.1657   14.4247   -1.1823 H   0  0  0  0  0  0  0  0  0  0  0  0
    3.3966   13.0341   -0.2285 H   0  0  0  0  0  0  0  0  0  0  0  0
    2.7456   13.9218   -3.0519 H   0  0  0  0  0  0  0  0  0  0  0  0
    3.4957   12.3725   -2.5001 H   0  0  0  0  0  0  0  0  0  0  0  0
    1.4583   11.9010    0.0227 H   0  0  0  0  0  0  0  0  0  0  0  0
    0.6693   10.7315   -1.0892 H   0  0  0  0  0  0  0  0  0  0  0  0
    2.4572   10.9049   -1.0892 H   0  0  0  0  0  0  0  0  0  0  0  0
  1  2  1  0
  2  3  1  0
  3  4  1  0
  4  5  1  0
  5  6  1  0
  6  7  1  0
  7  8  1  0
  7  9  1  0
  2 10  1  0
 10 11  1  0
 11 12  1  0
 12 13  1  0
 13 14  1  6
 13 15  1  0
 15 16  1  0
 16 17  1  0
 17 18  2  0
 18 19  1  0
 19 20  1  0
 20 21  1  0
 21 22  1  0
 22 23  1  0
 22 24  1  0
 24 25  1  0
 24 26  1  0
 19 27  1  0
 27 28  1  1
 27 29  1  0
 29 30  1  0
 30 31  1  0
 31 32  1  1
  7  5  1  0
 31 10  1  0
 31 13  1  0
 27 15  1  0
 24 18  1  0
  1 33  1  0
  1 34  1  0
  1 35  1  0
  2 36  1  6
  3 37  1  0
  3 38  1  0
  4 39  1  0
  4 40  1  0
  5 41  1  1
  8 42  1  0
  8 43  1  0
  8 44  1  0
  9 45  1  0
  9 46  1  0
  9 47  1  0
 10 48  1  6
 11 49  1  0
 11 50  1  0
 12 51  1  0
 12 52  1  0
 14 53  1  0
 14 54  1  0
 14 55  1  0
 15 56  1  1
 16 57  1  0
 16 58  1  0
 17 59  1  0
 19 60  1  6
 20 61  1  0
 20 62  1  0
 21 63  1  0
 21 64  1  0
 22 65  1  6
 23 66  1  0
 25 67  1  0
 25 68  1  0
 25 69  1  0
 26 70  1  0
 26 71  1  0
 26 72  1  0
 28 73  1  0
 28 74  1  0
 28 75  1  0
 29 76  1  0
 29 77  1  0
 30 78  1  0
 30 79  1  0
 32 80  1  0
 32 81  1  0
 32 82  1  0
M  END
>  <meeko>  (18) 
{"is_sidechain": [false], "intermolecular_energy": 2.731, "internal_energy": -0.839}

$$$$
EPH_relaxed_0001_pdb2pqr_Repair_230_r2_0001_out
     RDKit          3D

 82 86  0  0  0  0  0  0  0  0999 V2000
    0.9040   14.9170   -2.6570 C   0  0  0  0  0  0  0  0  0  0  0  0
    1.1650   14.2370   -4.0040 C   0  0  2  0  0  0  0  0  0  0  0  0
    0.4540   14.9590   -5.1660 C   0  0  0  0  0  0  0  0  0  0  0  0
    0.9990   14.5860   -6.5480 C   0  0  0  0  0  0  0  0  0  0  0  0
    0.7770   15.6820   -7.5450 C   0  0  2  0  0  0  0  0  0  0  0  0
    0.4090   15.2340   -8.8560 O   0  0  0  0  0  0  0  0  0  0  0  0
    1.6710   15.9120   -8.7490 C   0  0  0  0  0  0  0  0  0  0  0  0
    2.8560   15.0390   -9.0180 C   0  0  0  0  0  0  0  0  0  0  0  0
    1.6830   17.2680   -9.3840 C   0  0  0  0  0  0  0  0  0  0  0  0
    0.7200   12.7800   -3.9450 C   0  0  1  0  0  0  0  0  0  0  0  0
    1.8550   11.7930   -4.3260 C   0  0  0  0  0  0  0  0  0  0  0  0
    1.6620   10.5290   -3.4490 C   0  0  0  0  0  0  0  0  0  0  0  0
    0.2490   10.6890   -2.8400 C   0  0  1  0  0  0  0  0  0  0  0  0
   -0.7270   10.2130   -3.9620 C   0  0  0  0  0  0  0  0  0  0  0  0
   -0.0120    9.9410   -1.4930 C   0  0  2  0  0  0  0  0  0  0  0  0
    0.0980    8.4080   -1.5660 C   0  0  0  0  0  0  0  0  0  0  0  0
   -1.1720    7.6920   -1.8850 C   0  0  0  0  0  0  0  0  0  0  0  0
   -2.4070    8.2240   -1.8250 C   0  0  0  0  0  0  0  0  0  0  0  0
   -2.6240    9.6520   -1.3080 C   0  0  1  0  0  0  0  0  0  0  0  0
   -3.8030    9.6640   -0.2990 C   0  0  0  0  0  0  0  0  0  0  0  0
   -5.0750    9.0530   -0.8790 C   0  0  0  0  0  0  0  0  0  0  0  0
   -4.8340    7.6140   -1.3280 C   0  0  2  0  0  0  0  0  0  0  0  0
   -4.5710    6.8090   -0.1740 O   0  0  0  0  0  0  0  0  0  0  0  0
   -3.6620    7.4760   -2.3390 C   0  0  0  0  0  0  0  0  0  0  0  0
   -4.0720    8.0940   -3.6990 C   0  0  0  0  0  0  0  0  0  0  0  0
   -3.4320    5.9630   -2.6020 C   0  0  0  0  0  0  0  0  0  0  0  0
   -1.3340   10.3900   -0.7470 C   0  0  1  0  0  0  0  0  0  0  0  0
   -1.1350   10.0430    0.7600 C   0  0  0  0  0  0  0  0  0  0  0  0
   -1.5610   11.9470   -0.8180 C   0  0  0  0  0  0  0  0  0  0  0  0
   -1.1720   12.6470   -2.1340 C   0  0  0  0  0  0  0  0  0  0  0  0
    0.2370   12.2390   -2.5760 C   0  0  2  0  0  0  0  0  0  0  0  0
    1.2430   12.7250   -1.4780 C   0  0  0  0  0  0  0  0  0  0  0  0
    1.1684   14.2281   -1.8412 H   0  0  0  0  0  0  0  0  0  0  0  0
    1.5166   15.8275   -2.5811 H   0  0  0  0  0  0  0  0  0  0  0  0
   -0.1604   15.1838   -2.5811 H   0  0  0  0  0  0  0  0  0  0  0  0
    2.2468   14.2877   -4.1969 H   0  0  0  0  0  0  0  0  0  0  0  0
   -0.6148   14.7012   -5.1330 H   0  0  0  0  0  0  0  0  0  0  0  0
    0.6302   16.0364   -5.0310 H   0  0  0  0  0  0  0  0  0  0  0  0
    2.0787   14.3926   -6.4652 H   0  0  0  0  0  0  0  0  0  0  0  0
    0.4641   13.6907   -6.8976 H   0  0  0  0  0  0  0  0  0  0  0  0
    0.4134   16.3571   -6.7563 H   0  0  0  0  0  0  0  0  0  0  0  0
    3.2965   14.7145   -8.0637 H   0  0  0  0  0  0  0  0  0  0  0  0
    2.5386   14.1573   -9.5940 H   0  0  0  0  0  0  0  0  0  0  0  0
    3.6041   15.6035   -9.5940 H   0  0  0  0  0  0  0  0  0  0  0  0
    1.6898   18.0398   -8.6003 H   0  0  0  0  0  0  0  0  0  0  0  0
    2.5821   17.3722  -10.0091 H   0  0  0  0  0  0  0  0  0  0  0  0
    0.7859   17.3881  -10.0091 H   0  0  0  0  0  0  0  0  0  0  0  0
   -0.1209   12.8150   -4.6533 H   0  0  0  0  0  0  0  0  0  0  0  0
    1.7855   11.5289   -5.3916 H   0  0  0  0  0  0  0  0  0  0  0  0
    2.8439   12.2440   -4.1565 H   0  0  0  0  0  0  0  0  0  0  0  0
    1.7195    9.6180   -4.0628 H   0  0  0  0  0  0  0  0  0  0  0  0
    2.4404   10.4334   -2.6777 H   0  0  0  0  0  0  0  0  0  0  0  0
   -1.6260    9.7746   -3.5042 H   0  0  0  0  0  0  0  0  0  0  0  0
   -1.0150   11.0718   -4.5861 H   0  0  0  0  0  0  0  0  0  0  0  0
   -0.2276    9.4573   -4.5861 H   0  0  0  0  0  0  0  0  0  0  0  0
    0.8334   10.2726   -0.8722 H   0  0  0  0  0  0  0  0  0  0  0  0
    0.8343    8.1568   -2.3436 H   0  0  0  0  0  0  0  0  0  0  0  0
    0.3899    8.0757   -0.5588 H   0  0  0  0  0  0  0  0  0  0  0  0
   -1.0920    6.6398   -2.1956 H   0  0  0  0  0  0  0  0  0  0  0  0
   -2.8803   10.2584   -2.1893 H   0  0  0  0  0  0  0  0  0  0  0  0
   -3.5104    9.0895    0.5922 H   0  0  0  0  0  0  0  0  0  0  0  0
   -4.0196   10.7135   -0.0507 H   0  0  0  0  0  0  0  0  0  0  0  0
   -5.8620    9.0632   -0.1105 H   0  0  0  0  0  0  0  0  0  0  0  0
   -5.3825    9.6464   -1.7527 H   0  0  0  0  0  0  0  0  0  0  0  0
   -5.7407    7.2753   -1.8507 H   0  0  0  0  0  0  0  0  0  0  0  0
   -5.2180    6.0840   -0.1680 H   0  0  0  0  0  0  0  0  0  0  0  0
   -4.6724    8.9990   -3.5244 H   0  0  0  0  0  0  0  0  0  0  0  0
   -3.1690    8.3574   -4.2692 H   0  0  0  0  0  0  0  0  0  0  0  0
   -4.6658    7.3644   -4.2692 H   0  0  0  0  0  0  0  0  0  0  0  0
   -3.3513    5.4321   -1.6420 H   0  0  0  0  0  0  0  0  0  0  0  0
   -4.2788    5.5576   -3.1752 H   0  0  0  0  0  0  0  0  0  0  0  0
   -2.5029    5.8275   -3.1752 H   0  0  0  0  0  0  0  0  0  0  0  0
   -1.5869   10.8309    1.3805 H   0  0  0  0  0  0  0  0  0  0  0  0
   -1.6180    9.0798    0.9814 H   0  0  0  0  0  0  0  0  0  0  0  0
   -0.0598    9.9734    0.9814 H   0  0  0  0  0  0  0  0  0  0  0  0
   -2.6308   12.1354   -0.6446 H   0  0  0  0  0  0  0  0  0  0  0  0
   -0.8887   12.3706   -0.0574 H   0  0  0  0  0  0  0  0  0  0  0  0
   -1.8907   12.3653   -2.9176 H   0  0  0  0  0  0  0  0  0  0  0  0
   -1.1874   13.7347   -1.9707 H   0  0  0  0  0  0  0  0  0  0  0  0
    0.8239   12.5225   -0.4813 H   0  0  0  0  0  0  0  0  0  0  0  0
    2.1964   12.1882   -1.5908 H   0  0  0  0  0  0  0  0  0  0  0  0
    1.4151   13.8056   -1.5908 H   0  0  0  0  0  0  0  0  0  0  0  0
  1  2  1  0
  2  3  1  0
  3  4  1  0
  4  5  1  0
  5  6  1  0
  6  7  1  0
  7  8  1  0
  7  9  1  0
  2 10  1  0
 10 11  1  0
 11 12  1  0
 12 13  1  0
 13 14  1  6
 13 15  1  0
 15 16  1  0
 16 17  1  0
 17 18  2  0
 18 19  1  0
 19 20  1  0
 20 21  1  0
 21 22  1  0
 22 23  1  0
 22 24  1  0
 24 25  1  0
 24 26  1  0
 19 27  1  0
 27 28  1  1
 27 29  1  0
 29 30  1  0
 30 31  1  0
 31 32  1  1
  7  5  1  0
 31 10  1  0
 31 13  1  0
 27 15  1  0
 24 18  1  0
  1 33  1  0
  1 34  1  0
  1 35  1  0
  2 36  1  6
  3 37  1  0
  3 38  1  0
  4 39  1  0
  4 40  1  0
  5 41  1  1
  8 42  1  0
  8 43  1  0
  8 44  1  0
  9 45  1  0
  9 46  1  0
  9 47  1  0
 10 48  1  6
 11 49  1  0
 11 50  1  0
 12 51  1  0
 12 52  1  0
 14 53  1  0
 14 54  1  0
 14 55  1  0
 15 56  1  1
 16 57  1  0
 16 58  1  0
 17 59  1  0
 19 60  1  6
 20 61  1  0
 20 62  1  0
 21 63  1  0
 21 64  1  0
 22 65  1  6
 23 66  1  0
 25 67  1  0
 25 68  1  0
 25 69  1  0
 26 70  1  0
 26 71  1  0
 26 72  1  0
 28 73  1  0
 28 74  1  0
 28 75  1  0
 29 76  1  0
 29 77  1  0
 30 78  1  0
 30 79  1  0
 32 80  1  0
 32 81  1  0
 32 82  1  0
M  END
>  <meeko>  (19) 
{"is_sidechain": [false], "intermolecular_energy": 2.731, "internal_energy": -0.839}

$$$$
