EPH_relaxed_0001_pdb2pqr_Repair_319_r2_0001_out
     RDKit          3D

 82 86  0  0  0  0  0  0  0  0999 V2000
    3.8310   17.4150   -3.8630 C   0  0  0  0  0  0  0  0  0  0  0  0
    2.5000   17.4400   -3.1060 C   0  0  2  0  0  0  0  0  0  0  0  0
    2.6930   17.7070   -1.6000 C   0  0  0  0  0  0  0  0  0  0  0  0
    2.0990   19.0370   -1.1290 C   0  0  0  0  0  0  0  0  0  0  0  0
    0.8140   18.8380   -0.3840 C   0  0  2  0  0  0  0  0  0  0  0  0
    0.0160   17.7420   -0.8500 O   0  0  0  0  0  0  0  0  0  0  0  0
   -0.5550   19.0510   -1.0050 C   0  0  0  0  0  0  0  0  0  0  0  0
   -0.7060   19.4840   -2.4290 C   0  0  0  0  0  0  0  0  0  0  0  0
   -1.7180   19.3130   -0.1000 C   0  0  0  0  0  0  0  0  0  0  0  0
    1.7600   16.1230   -3.3110 C   0  0  1  0  0  0  0  0  0  0  0  0
    1.5870   15.7620   -4.8100 C   0  0  0  0  0  0  0  0  0  0  0  0
    1.6890   14.2190   -4.9140 C   0  0  0  0  0  0  0  0  0  0  0  0
    1.5850   13.7220   -3.4530 C   0  0  1  0  0  0  0  0  0  0  0  0
    0.0570   13.7250   -3.1360 C   0  0  0  0  0  0  0  0  0  0  0  0
    2.2350   12.3330   -3.1470 C   0  0  2  0  0  0  0  0  0  0  0  0
    1.6160   11.1430   -3.9010 C   0  0  0  0  0  0  0  0  0  0  0  0
    0.4930   10.4570   -3.1970 C   0  0  0  0  0  0  0  0  0  0  0  0
    0.1850   10.5960   -1.8940 C   0  0  0  0  0  0  0  0  0  0  0  0
    1.0650   11.4400   -0.9630 C   0  0  1  0  0  0  0  0  0  0  0  0
    1.3270   10.6580    0.3510 C   0  0  0  0  0  0  0  0  0  0  0  0
    0.0380   10.1970    1.0250 C   0  0  0  0  0  0  0  0  0  0  0  0
   -0.7810    9.3130    0.0880 C   0  0  2  0  0  0  0  0  0  0  0  0
   -0.0670    8.0940   -0.1380 O   0  0  0  0  0  0  0  0  0  0  0  0
   -1.0990    9.9930   -1.2740 C   0  0  0  0  0  0  0  0  0  0  0  0
   -2.1200   11.1380   -1.0580 C   0  0  0  0  0  0  0  0  0  0  0  0
   -1.8060    8.9460   -2.1760 C   0  0  0  0  0  0  0  0  0  0  0  0
    2.3980   12.0190   -1.6050 C   0  0  1  0  0  0  0  0  0  0  0  0
    3.5460   10.9710   -1.4830 C   0  0  0  0  0  0  0  0  0  0  0  0
    2.8590   13.2810   -0.7830 C   0  0  0  0  0  0  0  0  0  0  0  0
    2.2730   14.6400   -1.2100 C   0  0  0  0  0  0  0  0  0  0  0  0
    2.4080   14.8450   -2.7220 C   0  0  2  0  0  0  0  0  0  0  0  0
    3.9360   14.8680   -3.0670 C   0  0  0  0  0  0  0  0  0  0  0  0
    4.6622   17.3994   -3.1427 H   0  0  0  0  0  0  0  0  0  0  0  0
    3.8765   16.5158   -4.4950 H   0  0  0  0  0  0  0  0  0  0  0  0
    3.9103   18.3118   -4.4950 H   0  0  0  0  0  0  0  0  0  0  0  0
    1.9033   18.2690   -3.5142 H   0  0  0  0  0  0  0  0  0  0  0  0
    2.2107   16.8932   -1.0386 H   0  0  0  0  0  0  0  0  0  0  0  0
    3.7769   17.7573   -1.4191 H   0  0  0  0  0  0  0  0  0  0  0  0
    2.8218   19.5352   -0.4661 H   0  0  0  0  0  0  0  0  0  0  0  0
    1.8888   19.6518   -2.0166 H   0  0  0  0  0  0  0  0  0  0  0  0
    1.2681   19.2094    0.5465 H   0  0  0  0  0  0  0  0  0  0  0  0
   -1.0681   20.5222   -2.4601 H   0  0  0  0  0  0  0  0  0  0  0  0
    0.2676   19.4198   -2.9370 H   0  0  0  0  0  0  0  0  0  0  0  0
   -1.4285   18.8283   -2.9370 H   0  0  0  0  0  0  0  0  0  0  0  0
   -1.3912   19.2394    0.9477 H   0  0  0  0  0  0  0  0  0  0  0  0
   -2.1114   20.3223   -0.2913 H   0  0  0  0  0  0  0  0  0  0  0  0
   -2.5062   18.5699   -0.2913 H   0  0  0  0  0  0  0  0  0  0  0  0
    0.8252   16.3516   -2.7782 H   0  0  0  0  0  0  0  0  0  0  0  0
    0.6048   16.1017   -5.1703 H   0  0  0  0  0  0  0  0  0  0  0  0
    2.3571   16.2507   -5.4250 H   0  0  0  0  0  0  0  0  0  0  0  0
    0.8653   13.8154   -5.5211 H   0  0  0  0  0  0  0  0  0  0  0  0
    2.6209   13.8943   -5.3999 H   0  0  0  0  0  0  0  0  0  0  0  0
   -0.0913   13.7253   -2.0460 H   0  0  0  0  0  0  0  0  0  0  0  0
   -0.4056   14.6241   -3.5693 H   0  0  0  0  0  0  0  0  0  0  0  0
   -0.4091   12.8278   -3.5693 H   0  0  0  0  0  0  0  0  0  0  0  0
    3.2489   12.4516   -3.5569 H   0  0  0  0  0  0  0  0  0  0  0  0
    1.2377   11.5116   -4.8659 H   0  0  0  0  0  0  0  0  0  0  0  0
    2.4164   10.3948   -3.9985 H   0  0  0  0  0  0  0  0  0  0  0  0
   -0.1365    9.7803   -3.7936 H   0  0  0  0  0  0  0  0  0  0  0  0
    0.4905   12.3526   -0.7461 H   0  0  0  0  0  0  0  0  0  0  0  0
    1.9392    9.7740    0.1191 H   0  0  0  0  0  0  0  0  0  0  0  0
    1.8427   11.3368    1.0461 H   0  0  0  0  0  0  0  0  0  0  0  0
    0.2896    9.6257    1.9307 H   0  0  0  0  0  0  0  0  0  0  0  0
   -0.5598   11.0835    1.2835 H   0  0  0  0  0  0  0  0  0  0  0  0
   -1.7479    9.1219    0.5765 H   0  0  0  0  0  0  0  0  0  0  0  0
    0.8460    8.3280   -0.3760 H   0  0  0  0  0  0  0  0  0  0  0  0
   -2.2654   11.3011    0.0201 H   0  0  0  0  0  0  0  0  0  0  0  0
   -1.7394   12.0607   -1.5204 H   0  0  0  0  0  0  0  0  0  0  0  0
   -3.0801   10.8652   -1.5204 H   0  0  0  0  0  0  0  0  0  0  0  0
   -2.3102    8.1993   -1.5450 H   0  0  0  0  0  0  0  0  0  0  0  0
   -2.5487    9.4510   -2.8111 H   0  0  0  0  0  0  0  0  0  0  0  0
   -1.0600    8.4458   -2.8111 H   0  0  0  0  0  0  0  0  0  0  0  0
    3.7560   10.7793   -0.4204 H   0  0  0  0  0  0  0  0  0  0  0  0
    3.2404   10.0339   -1.9713 H   0  0  0  0  0  0  0  0  0  0  0  0
    4.4515   11.3605   -1.9713 H   0  0  0  0  0  0  0  0  0  0  0  0
    2.5801   13.1137    0.2678 H   0  0  0  0  0  0  0  0  0  0  0  0
    3.9406   13.3639   -0.9653 H   0  0  0  0  0  0  0  0  0  0  0  0
    1.2083   14.6748   -0.9359 H   0  0  0  0  0  0  0  0  0  0  0  0
    2.8292   15.4384   -0.6969 H   0  0  0  0  0  0  0  0  0  0  0  0
    4.5220   14.8768   -2.1361 H   0  0  0  0  0  0  0  0  0  0  0  0
    4.1930   13.9736   -3.6536 H   0  0  0  0  0  0  0  0  0  0  0  0
    4.1659   15.7697   -3.6536 H   0  0  0  0  0  0  0  0  0  0  0  0
  1  2  1  0
  2  3  1  0
  3  4  1  0
  4  5  1  0
  5  6  1  0
  6  7  1  0
  7  8  1  0
  7  9  1  0
  2 10  1  0
 10 11  1  0
 11 12  1  0
 12 13  1  0
 13 14  1  1
 13 15  1  0
 15 16  1  0
 16 17  1  0
 17 18  2  0
 18 19  1  0
 19 20  1  0
 20 21  1  0
 21 22  1  0
 22 23  1  0
 22 24  1  0
 24 25  1  0
 24 26  1  0
 19 27  1  0
 27 28  1  6
 27 29  1  0
 29 30  1  0
 30 31  1  0
 31 32  1  6
  7  5  1  0
 31 10  1  0
 31 13  1  0
 27 15  1  0
 24 18  1  0
  1 33  1  0
  1 34  1  0
  1 35  1  0
  2 36  1  6
  3 37  1  0
  3 38  1  0
  4 39  1  0
  4 40  1  0
  5 41  1  1
  8 42  1  0
  8 43  1  0
  8 44  1  0
  9 45  1  0
  9 46  1  0
  9 47  1  0
 10 48  1  1
 11 49  1  0
 11 50  1  0
 12 51  1  0
 12 52  1  0
 14 53  1  0
 14 54  1  0
 14 55  1  0
 15 56  1  6
 16 57  1  0
 16 58  1  0
 17 59  1  0
 19 60  1  1
 20 61  1  0
 20 62  1  0
 21 63  1  0
 21 64  1  0
 22 65  1  1
 23 66  1  0
 25 67  1  0
 25 68  1  0
 25 69  1  0
 26 70  1  0
 26 71  1  0
 26 72  1  0
 28 73  1  0
 28 74  1  0
 28 75  1  0
 29 76  1  0
 29 77  1  0
 30 78  1  0
 30 79  1  0
 32 80  1  0
 32 81  1  0
 32 82  1  0
M  END
>  <meeko>  (1) 
{"is_sidechain": [false], "intermolecular_energy": 2.731, "internal_energy": -0.839}

$$$$
EPH_relaxed_0001_pdb2pqr_Repair_319_r2_0001_out
     RDKit          3D

 82 86  0  0  0  0  0  0  0  0999 V2000
    3.2770   17.3620   -2.8330 C   0  0  0  0  0  0  0  0  0  0  0  0
    1.8700   17.5230   -3.4170 C   0  0  2  0  0  0  0  0  0  0  0  0
    0.9940   18.4680   -2.5700 C   0  0  0  0  0  0  0  0  0  0  0  0
    0.8830   18.0520   -1.1010 C   0  0  0  0  0  0  0  0  0  0  0  0
    1.1520   19.2020   -0.1780 C   0  0  2  0  0  0  0  0  0  0  0  0
    2.2490   20.0380   -0.5670 O   0  0  0  0  0  0  0  0  0  0  0  0
    2.4070   19.3200    0.6670 C   0  0  0  0  0  0  0  0  0  0  0  0
    3.4750   18.2730    0.6290 C   0  0  0  0  0  0  0  0  0  0  0  0
    2.3720   20.1940    1.8820 C   0  0  0  0  0  0  0  0  0  0  0  0
    1.2000   16.1600   -3.5390 C   0  0  1  0  0  0  0  0  0  0  0  0
    0.9020   15.7710   -5.0120 C   0  0  0  0  0  0  0  0  0  0  0  0
    1.0920   14.2360   -5.1160 C   0  0  0  0  0  0  0  0  0  0  0  0
    1.1640   13.7510   -3.6490 C   0  0  1  0  0  0  0  0  0  0  0  0
   -0.3220   13.6620   -3.1820 C   0  0  0  0  0  0  0  0  0  0  0  0
    1.9280   12.4100   -3.4010 C   0  0  2  0  0  0  0  0  0  0  0  0
    1.3150   11.1740   -4.0820 C   0  0  0  0  0  0  0  0  0  0  0  0
    0.3120   10.4280   -3.2660 C   0  0  0  0  0  0  0  0  0  0  0  0
    0.1270   10.5630   -1.9400 C   0  0  0  0  0  0  0  0  0  0  0  0
    1.0390   11.4720   -1.1060 C   0  0  1  0  0  0  0  0  0  0  0  0
    1.4790   10.7240    0.1800 C   0  0  0  0  0  0  0  0  0  0  0  0
    0.2950   10.1920    0.9820 C   0  0  0  0  0  0  0  0  0  0  0  0
   -0.5550    9.2470    0.1360 C   0  0  2  0  0  0  0  0  0  0  0  0
    0.2100    8.0720   -0.1520 O   0  0  0  0  0  0  0  0  0  0  0  0
   -1.0480    9.8880   -1.1910 C   0  0  0  0  0  0  0  0  0  0  0  0
   -2.1130   10.9690   -0.8820 C   0  0  0  0  0  0  0  0  0  0  0  0
   -1.7730    8.7880   -2.0120 C   0  0  0  0  0  0  0  0  0  0  0  0
    2.2630   12.1260   -1.8810 C   0  0  1  0  0  0  0  0  0  0  0  0
    3.4820   11.1530   -1.8670 C   0  0  0  0  0  0  0  0  0  0  0  0
    2.7220   13.4230   -1.1160 C   0  0  0  0  0  0  0  0  0  0  0  0
    2.0110   14.7380   -1.4910 C   0  0  0  0  0  0  0  0  0  0  0  0
    1.9820   14.9320   -3.0100 C   0  0  2  0  0  0  0  0  0  0  0  0
    3.4640   15.0470   -3.5060 C   0  0  0  0  0  0  0  0  0  0  0  0
    3.2210   17.3684   -1.7344 H   0  0  0  0  0  0  0  0  0  0  0  0
    3.7081   16.4087   -3.1726 H   0  0  0  0  0  0  0  0  0  0  0  0
    3.9123   18.1933   -3.1726 H   0  0  0  0  0  0  0  0  0  0  0  0
    1.9747   17.9764   -4.4137 H   0  0  0  0  0  0  0  0  0  0  0  0
    1.4295   19.4772   -2.6133 H   0  0  0  0  0  0  0  0  0  0  0  0
   -0.0210   18.4306   -2.9924 H   0  0  0  0  0  0  0  0  0  0  0  0
   -0.1328   17.6741   -0.9132 H   0  0  0  0  0  0  0  0  0  0  0  0
    1.6351   17.2731   -0.9071 H   0  0  0  0  0  0  0  0  0  0  0  0
    0.0837   19.2822    0.0718 H   0  0  0  0  0  0  0  0  0  0  0  0
    3.7556   17.9980    1.6564 H   0  0  0  0  0  0  0  0  0  0  0  0
    3.0986   17.3843    0.1013 H   0  0  0  0  0  0  0  0  0  0  0  0
    4.3561   18.6670    0.1013 H   0  0  0  0  0  0  0  0  0  0  0  0
    2.3971   19.5671    2.7855 H   0  0  0  0  0  0  0  0  0  0  0  0
    3.2440   20.8645    1.8766 H   0  0  0  0  0  0  0  0  0  0  0  0
    1.4492   20.7926    1.8766 H   0  0  0  0  0  0  0  0  0  0  0  0
    0.3107   16.3358   -2.9159 H   0  0  0  0  0  0  0  0  0  0  0  0
   -0.1309   16.0435   -5.2743 H   0  0  0  0  0  0  0  0  0  0  0  0
    1.5737   16.3001   -5.7040 H   0  0  0  0  0  0  0  0  0  0  0  0
    0.2402   13.7737   -5.6364 H   0  0  0  0  0  0  0  0  0  0  0  0
    1.9908   13.9650   -5.6893 H   0  0  0  0  0  0  0  0  0  0  0  0
   -0.3614   13.6596   -2.0827 H   0  0  0  0  0  0  0  0  0  0  0  0
   -0.8799   14.5283   -3.5670 H   0  0  0  0  0  0  0  0  0  0  0  0
   -0.7725   12.7353   -3.5670 H   0  0  0  0  0  0  0  0  0  0  0  0
    2.8864   12.5873   -3.9110 H   0  0  0  0  0  0  0  0  0  0  0  0
    0.8213   11.5056   -5.0074 H   0  0  0  0  0  0  0  0  0  0  0  0
    2.1480   10.4762   -4.2527 H   0  0  0  0  0  0  0  0  0  0  0  0
   -0.3301    9.7070   -3.7932 H   0  0  0  0  0  0  0  0  0  0  0  0
    0.4316   12.3492   -0.8384 H   0  0  0  0  0  0  0  0  0  0  0  0
    2.1198    9.8771   -0.1066 H   0  0  0  0  0  0  0  0  0  0  0  0
    2.0173   11.4421    0.8161 H   0  0  0  0  0  0  0  0  0  0  0  0
    0.6707    9.6487    1.8616 H   0  0  0  0  0  0  0  0  0  0  0  0
   -0.3291   11.0425    1.2937 H   0  0  0  0  0  0  0  0  0  0  0  0
   -1.4552    9.0021    0.7188 H   0  0  0  0  0  0  0  0  0  0  0  0
   -0.2980    7.3060    0.1630 H   0  0  0  0  0  0  0  0  0  0  0  0
   -2.2199   11.0775    0.2074 H   0  0  0  0  0  0  0  0  0  0  0  0
   -1.7980   11.9290   -1.3170 H   0  0  0  0  0  0  0  0  0  0  0  0
   -3.0776   10.6683   -1.3170 H   0  0  0  0  0  0  0  0  0  0  0  0
   -2.2461    8.0702   -1.3258 H   0  0  0  0  0  0  0  0  0  0  0  0
   -2.5432    9.2514   -2.6460 H   0  0  0  0  0  0  0  0  0  0  0  0
   -1.0434    8.2629   -2.6460 H   0  0  0  0  0  0  0  0  0  0  0  0
    3.7613   10.9301   -0.8267 H   0  0  0  0  0  0  0  0  0  0  0  0
    3.2119   10.2194   -2.3822 H   0  0  0  0  0  0  0  0  0  0  0  0
    4.3325   11.6233   -2.3822 H   0  0  0  0  0  0  0  0  0  0  0  0
    2.5593   13.2511   -0.0418 H   0  0  0  0  0  0  0  0  0  0  0  0
    3.7731   13.5711   -1.4046 H   0  0  0  0  0  0  0  0  0  0  0  0
    0.9787   14.7096   -1.1121 H   0  0  0  0  0  0  0  0  0  0  0  0
    2.5635   15.5760   -1.0410 H   0  0  0  0  0  0  0  0  0  0  0  0
    4.1380   15.0993   -2.6383 H   0  0  0  0  0  0  0  0  0  0  0  0
    3.7166   14.1658   -4.1139 H   0  0  0  0  0  0  0  0  0  0  0  0
    3.5776   15.9567   -4.1139 H   0  0  0  0  0  0  0  0  0  0  0  0
  1  2  1  0
  2  3  1  0
  3  4  1  0
  4  5  1  0
  5  6  1  0
  6  7  1  0
  7  8  1  0
  7  9  1  0
  2 10  1  0
 10 11  1  0
 11 12  1  0
 12 13  1  0
 13 14  1  1
 13 15  1  0
 15 16  1  0
 16 17  1  0
 17 18  2  0
 18 19  1  0
 19 20  1  0
 20 21  1  0
 21 22  1  0
 22 23  1  0
 22 24  1  0
 24 25  1  0
 24 26  1  0
 19 27  1  0
 27 28  1  6
 27 29  1  0
 29 30  1  0
 30 31  1  0
 31 32  1  6
  7  5  1  0
 31 10  1  0
 31 13  1  0
 27 15  1  0
 24 18  1  0
  1 33  1  0
  1 34  1  0
  1 35  1  0
  2 36  1  6
  3 37  1  0
  3 38  1  0
  4 39  1  0
  4 40  1  0
  5 41  1  1
  8 42  1  0
  8 43  1  0
  8 44  1  0
  9 45  1  0
  9 46  1  0
  9 47  1  0
 10 48  1  1
 11 49  1  0
 11 50  1  0
 12 51  1  0
 12 52  1  0
 14 53  1  0
 14 54  1  0
 14 55  1  0
 15 56  1  6
 16 57  1  0
 16 58  1  0
 17 59  1  0
 19 60  1  1
 20 61  1  0
 20 62  1  0
 21 63  1  0
 21 64  1  0
 22 65  1  1
 23 66  1  0
 25 67  1  0
 25 68  1  0
 25 69  1  0
 26 70  1  0
 26 71  1  0
 26 72  1  0
 28 73  1  0
 28 74  1  0
 28 75  1  0
 29 76  1  0
 29 77  1  0
 30 78  1  0
 30 79  1  0
 32 80  1  0
 32 81  1  0
 32 82  1  0
M  END
>  <meeko>  (2) 
{"is_sidechain": [false], "intermolecular_energy": 2.731, "internal_energy": -0.839}

$$$$
EPH_relaxed_0001_pdb2pqr_Repair_319_r2_0001_out
     RDKit          3D

 82 86  0  0  0  0  0  0  0  0999 V2000
    4.8120   17.4630   -1.4650 C   0  0  0  0  0  0  0  0  0  0  0  0
    3.4550   18.1420   -1.2660 C   0  0  2  0  0  0  0  0  0  0  0  0
    3.4140   18.9930    0.0190 C   0  0  0  0  0  0  0  0  0  0  0  0
    4.0730   18.3180    1.2250 C   0  0  0  0  0  0  0  0  0  0  0  0
    3.7930   19.0600    2.4970 C   0  0  2  0  0  0  0  0  0  0  0  0
    4.6440   20.1890    2.7320 O   0  0  0  0  0  0  0  0  0  0  0  0
    4.7560   19.1050    3.6690 C   0  0  0  0  0  0  0  0  0  0  0  0
    6.0730   18.3950    3.6240 C   0  0  0  0  0  0  0  0  0  0  0  0
    4.2150   19.4250    5.0280 C   0  0  0  0  0  0  0  0  0  0  0  0
    2.3490   17.0940   -1.2320 C   0  0  1  0  0  0  0  0  0  0  0  0
    0.9820   17.6500   -1.7120 C   0  0  0  0  0  0  0  0  0  0  0  0
    0.2660   16.4950   -2.4580 C   0  0  0  0  0  0  0  0  0  0  0  0
    1.0840   15.2330   -2.0980 C   0  0  1  0  0  0  0  0  0  0  0  0
    0.5690   14.8100   -0.6870 C   0  0  0  0  0  0  0  0  0  0  0  0
    1.0110   14.0490   -3.1170 C   0  0  2  0  0  0  0  0  0  0  0  0
   -0.3880   13.4400   -3.3120 C   0  0  0  0  0  0  0  0  0  0  0  0
   -0.7220   12.3060   -2.4010 C   0  0  0  0  0  0  0  0  0  0  0  0
    0.1610   11.6110   -1.6610 C   0  0  0  0  0  0  0  0  0  0  0  0
    1.6670   11.8810   -1.7720 C   0  0  1  0  0  0  0  0  0  0  0  0
    2.4280   10.5340   -1.8890 C   0  0  0  0  0  0  0  0  0  0  0  0
    2.0900    9.5710   -0.7550 C   0  0  0  0  0  0  0  0  0  0  0  0
    0.5920    9.2820   -0.7130 C   0  0  2  0  0  0  0  0  0  0  0  0
    0.2310    8.5530   -1.8900 O   0  0  0  0  0  0  0  0  0  0  0  0
   -0.2770   10.5650   -0.6060 C   0  0  0  0  0  0  0  0  0  0  0  0
   -0.1080   11.1930    0.8000 C   0  0  0  0  0  0  0  0  0  0  0  0
   -1.7670   10.1430   -0.7160 C   0  0  0  0  0  0  0  0  0  0  0  0
    2.1030   12.9270   -2.8860 C   0  0  1  0  0  0  0  0  0  0  0  0
    2.2920   12.2010   -4.2530 C   0  0  0  0  0  0  0  0  0  0  0  0
    3.5080   13.5280   -2.5060 C   0  0  0  0  0  0  0  0  0  0  0  0
    3.5080   14.7690   -1.5920 C   0  0  0  0  0  0  0  0  0  0  0  0
    2.5370   15.8330   -2.1120 C   0  0  2  0  0  0  0  0  0  0  0  0
    3.0420   16.2940   -3.5220 C   0  0  0  0  0  0  0  0  0  0  0  0
    5.2577   17.2400   -0.4844 H   0  0  0  0  0  0  0  0  0  0  0  0
    4.6749   16.5273   -2.0268 H   0  0  0  0  0  0  0  0  0  0  0  0
    5.4787   18.1337   -2.0268 H   0  0  0  0  0  0  0  0  0  0  0  0
    3.2974   18.8212   -2.1168 H   0  0  0  0  0  0  0  0  0  0  0  0
    3.9354   19.9418   -0.1759 H   0  0  0  0  0  0  0  0  0  0  0  0
    2.3540   19.1414    0.2729 H   0  0  0  0  0  0  0  0  0  0  0  0
    3.6836   17.2933    1.3169 H   0  0  0  0  0  0  0  0  0  0  0  0
    5.1610   18.3131    1.0632 H   0  0  0  0  0  0  0  0  0  0  0  0
    2.7224   18.8161    2.4307 H   0  0  0  0  0  0  0  0  0  0  0  0
    6.4230   18.2063    4.6496 H   0  0  0  0  0  0  0  0  0  0  0  0
    5.9557   17.4379    3.0947 H   0  0  0  0  0  0  0  0  0  0  0  0
    6.8081   19.0191    3.0947 H   0  0  0  0  0  0  0  0  0  0  0  0
    4.8927   19.0241    5.7961 H   0  0  0  0  0  0  0  0  0  0  0  0
    4.1347   20.5160    5.1431 H   0  0  0  0  0  0  0  0  0  0  0  0
    3.2202   18.9699    5.1431 H   0  0  0  0  0  0  0  0  0  0  0  0
    2.3890   16.8196   -0.1675 H   0  0  0  0  0  0  0  0  0  0  0  0
    0.3809   17.9739   -0.8495 H   0  0  0  0  0  0  0  0  0  0  0  0
    1.1191   18.5203   -2.3706 H   0  0  0  0  0  0  0  0  0  0  0  0
   -0.7738   16.3954   -2.1131 H   0  0  0  0  0  0  0  0  0  0  0  0
    0.2178   16.6657   -3.5436 H   0  0  0  0  0  0  0  0  0  0  0  0
    1.1726   15.3058    0.0875 H   0  0  0  0  0  0  0  0  0  0  0  0
   -0.4844   15.1071   -0.5769 H   0  0  0  0  0  0  0  0  0  0  0  0
    0.6557   13.7190   -0.5769 H   0  0  0  0  0  0  0  0  0  0  0  0
    1.2563   14.5425   -4.0690 H   0  0  0  0  0  0  0  0  0  0  0  0
   -1.1305   14.2355   -3.1509 H   0  0  0  0  0  0  0  0  0  0  0  0
   -0.4004   13.0257   -4.3309 H   0  0  0  0  0  0  0  0  0  0  0  0
   -1.7799   12.0136   -2.3284 H   0  0  0  0  0  0  0  0  0  0  0  0
    1.9538   12.3915   -0.8408 H   0  0  0  0  0  0  0  0  0  0  0  0
    2.1614   10.0602   -2.8453 H   0  0  0  0  0  0  0  0  0  0  0  0
    3.5046   10.7525   -1.8319 H   0  0  0  0  0  0  0  0  0  0  0  0
    2.6344    8.6277   -0.9095 H   0  0  0  0  0  0  0  0  0  0  0  0
    2.3851   10.0338    0.1983 H   0  0  0  0  0  0  0  0  0  0  0  0
    0.3946    8.6939    0.1954 H   0  0  0  0  0  0  0  0  0  0  0  0
    0.2010    9.1840   -2.6300 H   0  0  0  0  0  0  0  0  0  0  0  0
   -0.3126   10.4327    1.5682 H   0  0  0  0  0  0  0  0  0  0  0  0
    0.9216   11.5627    0.9151 H   0  0  0  0  0  0  0  0  0  0  0  0
   -0.8130   12.0295    0.9151 H   0  0  0  0  0  0  0  0  0  0  0  0
   -2.1896   10.0233    0.2925 H   0  0  0  0  0  0  0  0  0  0  0  0
   -2.3283   10.9175   -1.2592 H   0  0  0  0  0  0  0  0  0  0  0  0
   -1.8388    9.1892   -1.2592 H   0  0  0  0  0  0  0  0  0  0  0  0
    2.5655   11.1504   -4.0755 H   0  0  0  0  0  0  0  0  0  0  0  0
    1.3527   12.2439   -4.8239 H   0  0  0  0  0  0  0  0  0  0  0  0
    3.0911   12.6965   -4.8239 H   0  0  0  0  0  0  0  0  0  0  0  0
    4.0807   12.7392   -1.9963 H   0  0  0  0  0  0  0  0  0  0  0  0
    3.9416   13.8706   -3.4571 H   0  0  0  0  0  0  0  0  0  0  0  0
    3.2041   14.4692   -0.5782 H   0  0  0  0  0  0  0  0  0  0  0  0
    4.5219   15.1955   -1.5798 H   0  0  0  0  0  0  0  0  0  0  0  0
    3.8493   17.0310   -3.3994 H   0  0  0  0  0  0  0  0  0  0  0  0
    3.4211   15.4240   -4.0782 H   0  0  0  0  0  0  0  0  0  0  0  0
    2.2100   16.7506   -4.0782 H   0  0  0  0  0  0  0  0  0  0  0  0
  1  2  1  0
  2  3  1  0
  3  4  1  0
  4  5  1  0
  5  6  1  0
  6  7  1  0
  7  8  1  0
  7  9  1  0
  2 10  1  0
 10 11  1  0
 11 12  1  0
 12 13  1  0
 13 14  1  1
 13 15  1  0
 15 16  1  0
 16 17  1  0
 17 18  2  0
 18 19  1  0
 19 20  1  0
 20 21  1  0
 21 22  1  0
 22 23  1  0
 22 24  1  0
 24 25  1  0
 24 26  1  0
 19 27  1  0
 27 28  1  6
 27 29  1  0
 29 30  1  0
 30 31  1  0
 31 32  1  6
  7  5  1  0
 31 10  1  0
 31 13  1  0
 27 15  1  0
 24 18  1  0
  1 33  1  0
  1 34  1  0
  1 35  1  0
  2 36  1  6
  3 37  1  0
  3 38  1  0
  4 39  1  0
  4 40  1  0
  5 41  1  1
  8 42  1  0
  8 43  1  0
  8 44  1  0
  9 45  1  0
  9 46  1  0
  9 47  1  0
 10 48  1  1
 11 49  1  0
 11 50  1  0
 12 51  1  0
 12 52  1  0
 14 53  1  0
 14 54  1  0
 14 55  1  0
 15 56  1  6
 16 57  1  0
 16 58  1  0
 17 59  1  0
 19 60  1  1
 20 61  1  0
 20 62  1  0
 21 63  1  0
 21 64  1  0
 22 65  1  1
 23 66  1  0
 25 67  1  0
 25 68  1  0
 25 69  1  0
 26 70  1  0
 26 71  1  0
 26 72  1  0
 28 73  1  0
 28 74  1  0
 28 75  1  0
 29 76  1  0
 29 77  1  0
 30 78  1  0
 30 79  1  0
 32 80  1  0
 32 81  1  0
 32 82  1  0
M  END
>  <meeko>  (3) 
{"is_sidechain": [false], "intermolecular_energy": 2.731, "internal_energy": -0.839}

$$$$
EPH_relaxed_0001_pdb2pqr_Repair_319_r2_0001_out
     RDKit          3D

 82 86  0  0  0  0  0  0  0  0999 V2000
   -2.1740    8.1130   -2.1590 C   0  0  0  0  0  0  0  0  0  0  0  0
   -2.3880    8.7660   -0.7910 C   0  0  2  0  0  0  0  0  0  0  0  0
   -3.8790    9.0190   -0.4940 C   0  0  0  0  0  0  0  0  0  0  0  0
   -4.7190    7.7410   -0.4270 C   0  0  0  0  0  0  0  0  0  0  0  0
   -5.4690    7.5030   -1.7030 C   0  0  2  0  0  0  0  0  0  0  0  0
   -6.4330    8.5120   -2.0280 O   0  0  0  0  0  0  0  0  0  0  0  0
   -6.9550    7.2020   -1.7570 C   0  0  0  0  0  0  0  0  0  0  0  0
   -7.7800    7.1210   -0.5110 C   0  0  0  0  0  0  0  0  0  0  0  0
   -7.5010    6.5080   -2.9650 C   0  0  0  0  0  0  0  0  0  0  0  0
   -1.6120   10.0760   -0.7130 C   0  0  1  0  0  0  0  0  0  0  0  0
   -1.2700   10.4820    0.7450 C   0  0  0  0  0  0  0  0  0  0  0  0
    0.1170   11.1730    0.7040 C   0  0  0  0  0  0  0  0  0  0  0  0
    0.3760   11.4390   -0.7980 C   0  0  1  0  0  0  0  0  0  0  0  0
   -0.4230   12.7410   -1.1180 C   0  0  0  0  0  0  0  0  0  0  0  0
    1.8740   11.5590   -1.2300 C   0  0  2  0  0  0  0  0  0  0  0  0
    2.6450   12.7280   -0.5940 C   0  0  0  0  0  0  0  0  0  0  0  0
    2.6120   14.0070   -1.3630 C   0  0  0  0  0  0  0  0  0  0  0  0
    2.2340   14.1380   -2.6480 C   0  0  0  0  0  0  0  0  0  0  0  0
    1.8780   12.9080   -3.4930 C   0  0  1  0  0  0  0  0  0  0  0  0
    2.5790   13.0070   -4.8740 C   0  0  0  0  0  0  0  0  0  0  0  0
    2.2710   14.3170   -5.5920 C   0  0  0  0  0  0  0  0  0  0  0  0
    2.6930   15.5160   -4.7460 C   0  0  2  0  0  0  0  0  0  0  0  0
    4.1190   15.5220   -4.6330 O   0  0  0  0  0  0  0  0  0  0  0  0
    2.0560   15.5180   -3.3280 C   0  0  0  0  0  0  0  0  0  0  0  0
    0.5400   15.8140   -3.4380 C   0  0  0  0  0  0  0  0  0  0  0  0
    2.6720   16.6990   -2.5300 C   0  0  0  0  0  0  0  0  0  0  0  0
    2.1030   11.4980   -2.7950 C   0  0  1  0  0  0  0  0  0  0  0  0
    3.5740   11.0260   -3.0110 C   0  0  0  0  0  0  0  0  0  0  0  0
    1.1860   10.4260   -3.4930 C   0  0  0  0  0  0  0  0  0  0  0  0
   -0.2450   10.2710   -2.9420 C   0  0  0  0  0  0  0  0  0  0  0  0
   -0.2330   10.1280   -1.4170 C   0  0  2  0  0  0  0  0  0  0  0  0
    0.5450    8.8140   -1.0660 C   0  0  0  0  0  0  0  0  0  0  0  0
   -1.8341    7.0759   -2.0211 H   0  0  0  0  0  0  0  0  0  0  0  0
   -3.1205    8.1172   -2.7194 H   0  0  0  0  0  0  0  0  0  0  0  0
   -1.4136    8.6766   -2.7194 H   0  0  0  0  0  0  0  0  0  0  0  0
   -2.0143    8.0661   -0.0291 H   0  0  0  0  0  0  0  0  0  0  0  0
   -3.9573    9.5371    0.4732 H   0  0  0  0  0  0  0  0  0  0  0  0
   -4.2747    9.6204   -1.3257 H   0  0  0  0  0  0  0  0  0  0  0  0
   -4.0528    6.8859   -0.2403 H   0  0  0  0  0  0  0  0  0  0  0  0
   -5.4518    7.8545    0.3855 H   0  0  0  0  0  0  0  0  0  0  0  0
   -4.5977    7.0004   -2.1483 H   0  0  0  0  0  0  0  0  0  0  0  0
   -7.1228    7.1855    0.3687 H   0  0  0  0  0  0  0  0  0  0  0  0
   -8.4996    7.9528   -0.4930 H   0  0  0  0  0  0  0  0  0  0  0  0
   -8.3240    6.1651   -0.4930 H   0  0  0  0  0  0  0  0  0  0  0  0
   -8.1525    5.6799   -2.6490 H   0  0  0  0  0  0  0  0  0  0  0  0
   -8.0818    7.2223   -3.5670 H   0  0  0  0  0  0  0  0  0  0  0  0
   -6.6701    6.1116   -3.5670 H   0  0  0  0  0  0  0  0  0  0  0  0
   -2.3221   10.7418   -1.2254 H   0  0  0  0  0  0  0  0  0  0  0  0
   -2.0286   11.1782    1.1321 H   0  0  0  0  0  0  0  0  0  0  0  0
   -1.2535    9.6029    1.4059 H   0  0  0  0  0  0  0  0  0  0  0  0
    0.0973   12.1173    1.2679 H   0  0  0  0  0  0  0  0  0  0  0  0
    0.9046   10.5553    1.1602 H   0  0  0  0  0  0  0  0  0  0  0  0
   -0.7219   13.2281   -0.1781 H   0  0  0  0  0  0  0  0  0  0  0  0
    0.2104   13.4260   -1.7007 H   0  0  0  0  0  0  0  0  0  0  0  0
   -1.3206   12.4865   -1.7007 H   0  0  0  0  0  0  0  0  0  0  0  0
    2.3162   10.6452   -0.8064 H   0  0  0  0  0  0  0  0  0  0  0  0
    2.2147   12.9180    0.4003 H   0  0  0  0  0  0  0  0  0  0  0  0
    3.6998   12.4172   -0.5655 H   0  0  0  0  0  0  0  0  0  0  0  0
    2.9231   14.9201   -0.8344 H   0  0  0  0  0  0  0  0  0  0  0  0
    0.7864   12.9366   -3.6254 H   0  0  0  0  0  0  0  0  0  0  0  0
    3.6663   12.9340   -4.7239 H   0  0  0  0  0  0  0  0  0  0  0  0
    2.2015   12.1854   -5.5005 H   0  0  0  0  0  0  0  0  0  0  0  0
    2.8162   14.3407   -6.5471 H   0  0  0  0  0  0  0  0  0  0  0  0
    1.1864   14.3749   -5.7663 H   0  0  0  0  0  0  0  0  0  0  0  0
    2.3319   16.4223   -5.2541 H   0  0  0  0  0  0  0  0  0  0  0  0
    4.4500   14.7030   -5.0400 H   0  0  0  0  0  0  0  0  0  0  0  0
    0.1087   15.8982   -2.4296 H   0  0  0  0  0  0  0  0  0  0  0  0
    0.3893   16.7585   -3.9813 H   0  0  0  0  0  0  0  0  0  0  0  0
    0.0451   14.9955   -3.9813 H   0  0  0  0  0  0  0  0  0  0  0  0
    2.5710   16.5053   -1.4519 H   0  0  0  0  0  0  0  0  0  0  0  0
    3.7370   16.7988   -2.7864 H   0  0  0  0  0  0  0  0  0  0  0  0
    2.1444   17.6295   -2.7864 H   0  0  0  0  0  0  0  0  0  0  0  0
    4.0565   10.8712   -2.0347 H   0  0  0  0  0  0  0  0  0  0  0  0
    3.5770   10.0818   -3.5753 H   0  0  0  0  0  0  0  0  0  0  0  0
    4.1258   11.7922   -3.5753 H   0  0  0  0  0  0  0  0  0  0  0  0
    1.1057   10.6981   -4.5558 H   0  0  0  0  0  0  0  0  0  0  0  0
    1.6749    9.4597   -3.3002 H   0  0  0  0  0  0  0  0  0  0  0  0
   -0.8340   11.1588   -3.2155 H   0  0  0  0  0  0  0  0  0  0  0  0
   -0.6914    9.3640   -3.3757 H   0  0  0  0  0  0  0  0  0  0  0  0
    0.6087    8.7064    0.0269 H   0  0  0  0  0  0  0  0  0  0  0  0
    0.0134    7.9490   -1.4892 H   0  0  0  0  0  0  0  0  0  0  0  0
    1.5591    8.8641   -1.4892 H   0  0  0  0  0  0  0  0  0  0  0  0
  1  2  1  0
  2  3  1  0
  3  4  1  0
  4  5  1  0
  5  6  1  0
  6  7  1  0
  7  8  1  0
  7  9  1  0
  2 10  1  0
 10 11  1  0
 11 12  1  0
 12 13  1  0
 13 14  1  6
 13 15  1  0
 15 16  1  0
 16 17  1  0
 17 18  2  0
 18 19  1  0
 19 20  1  0
 20 21  1  0
 21 22  1  0
 22 23  1  0
 22 24  1  0
 24 25  1  0
 24 26  1  0
 19 27  1  0
 27 28  1  1
 27 29  1  0
 29 30  1  0
 30 31  1  0
 31 32  1  6
  7  5  1  0
 31 10  1  0
 31 13  1  0
 27 15  1  0
 24 18  1  0
  1 33  1  0
  1 34  1  0
  1 35  1  0
  2 36  1  1
  3 37  1  0
  3 38  1  0
  4 39  1  0
  4 40  1  0
  5 41  1  6
  8 42  1  0
  8 43  1  0
  8 44  1  0
  9 45  1  0
  9 46  1  0
  9 47  1  0
 10 48  1  6
 11 49  1  0
 11 50  1  0
 12 51  1  0
 12 52  1  0
 14 53  1  0
 14 54  1  0
 14 55  1  0
 15 56  1  1
 16 57  1  0
 16 58  1  0
 17 59  1  0
 19 60  1  6
 20 61  1  0
 20 62  1  0
 21 63  1  0
 21 64  1  0
 22 65  1  6
 23 66  1  0
 25 67  1  0
 25 68  1  0
 25 69  1  0
 26 70  1  0
 26 71  1  0
 26 72  1  0
 28 73  1  0
 28 74  1  0
 28 75  1  0
 29 76  1  0
 29 77  1  0
 30 78  1  0
 30 79  1  0
 32 80  1  0
 32 81  1  0
 32 82  1  0
M  END
>  <meeko>  (4) 
{"is_sidechain": [false], "intermolecular_energy": 2.731, "internal_energy": -0.839}

$$$$
EPH_relaxed_0001_pdb2pqr_Repair_319_r2_0001_out
     RDKit          3D

 82 86  0  0  0  0  0  0  0  0999 V2000
    4.7100   17.4390   -1.9480 C   0  0  0  0  0  0  0  0  0  0  0  0
    3.3250   18.0890   -2.0300 C   0  0  2  0  0  0  0  0  0  0  0  0
    3.1200   19.1590   -0.9400 C   0  0  0  0  0  0  0  0  0  0  0  0
    2.0030   18.8220    0.0510 C   0  0  0  0  0  0  0  0  0  0  0  0
    0.8390   19.7560   -0.0870 C   0  0  2  0  0  0  0  0  0  0  0  0
    0.1460   20.0350    1.1370 O   0  0  0  0  0  0  0  0  0  0  0  0
   -0.6030   19.3340    0.1310 C   0  0  0  0  0  0  0  0  0  0  0  0
   -0.9560   17.9280    0.5040 C   0  0  0  0  0  0  0  0  0  0  0  0
   -1.6900   20.1530   -0.4920 C   0  0  0  0  0  0  0  0  0  0  0  0
    2.2430   17.0210   -1.9220 C   0  0  1  0  0  0  0  0  0  0  0  0
    0.9090   17.4540   -2.5870 C   0  0  0  0  0  0  0  0  0  0  0  0
    0.2800   16.1760   -3.2000 C   0  0  0  0  0  0  0  0  0  0  0  0
    1.0930   15.0100   -2.5910 C   0  0  1  0  0  0  0  0  0  0  0  0
    0.4730   14.7870   -1.1750 C   0  0  0  0  0  0  0  0  0  0  0  0
    1.1290   13.6850   -3.4200 C   0  0  2  0  0  0  0  0  0  0  0  0
   -0.2370   13.0070   -3.6280 C   0  0  0  0  0  0  0  0  0  0  0  0
   -0.6200   12.0120   -2.5830 C   0  0  0  0  0  0  0  0  0  0  0  0
    0.2150   11.4660   -1.6790 C   0  0  0  0  0  0  0  0  0  0  0  0
    1.7190   11.7670   -1.7140 C   0  0  1  0  0  0  0  0  0  0  0  0
    2.5150   10.4440   -1.5650 C   0  0  0  0  0  0  0  0  0  0  0  0
    2.1070    9.6510   -0.3270 C   0  0  0  0  0  0  0  0  0  0  0  0
    0.6170    9.3210   -0.3580 C   0  0  2  0  0  0  0  0  0  0  0  0
    0.3680    8.4120   -1.4350 O   0  0  0  0  0  0  0  0  0  0  0  0
   -0.2860   10.5770   -0.5150 C   0  0  0  0  0  0  0  0  0  0  0  0
   -0.2450   11.4130    0.7880 C   0  0  0  0  0  0  0  0  0  0  0  0
   -1.7530   10.0930   -0.6740 C   0  0  0  0  0  0  0  0  0  0  0  0
    2.2220   12.6480   -2.9370 C   0  0  1  0  0  0  0  0  0  0  0  0
    2.5370   11.7310   -4.1590 C   0  0  0  0  0  0  0  0  0  0  0  0
    3.5780   13.3460   -2.5450 C   0  0  0  0  0  0  0  0  0  0  0  0
    3.4770   14.7090   -1.8340 C   0  0  0  0  0  0  0  0  0  0  0  0
    2.5290   15.6500   -2.5840 C   0  0  2  0  0  0  0  0  0  0  0  0
    3.1370   15.9100   -4.0040 C   0  0  0  0  0  0  0  0  0  0  0  0
    4.9912   17.3070   -0.8928 H   0  0  0  0  0  0  0  0  0  0  0  0
    4.6850   16.4586   -2.4462 H   0  0  0  0  0  0  0  0  0  0  0  0
    5.4482   18.0847   -2.4462 H   0  0  0  0  0  0  0  0  0  0  0  0
    3.2535   18.5938   -3.0047 H   0  0  0  0  0  0  0  0  0  0  0  0
    4.0602   19.2683   -0.3795 H   0  0  0  0  0  0  0  0  0  0  0  0
    2.8262   20.0872   -1.4520 H   0  0  0  0  0  0  0  0  0  0  0  0
    1.6592   17.7939   -0.1355 H   0  0  0  0  0  0  0  0  0  0  0  0
    2.4058   18.9243    1.0695 H   0  0  0  0  0  0  0  0  0  0  0  0
    1.3353   20.2902   -0.9106 H   0  0  0  0  0  0  0  0  0  0  0  0
   -0.9795   17.8342    1.5997 H   0  0  0  0  0  0  0  0  0  0  0  0
   -1.9450   17.6770    0.0932 H   0  0  0  0  0  0  0  0  0  0  0  0
   -0.2028   17.2396    0.0932 H   0  0  0  0  0  0  0  0  0  0  0  0
   -2.3010   20.6134    0.2984 H   0  0  0  0  0  0  0  0  0  0  0  0
   -1.2434   20.9411   -1.1161 H   0  0  0  0  0  0  0  0  0  0  0  0
   -2.3244   19.5064   -1.1161 H   0  0  0  0  0  0  0  0  0  0  0  0
    2.2016   16.9093   -0.8285 H   0  0  0  0  0  0  0  0  0  0  0  0
    0.2329   17.8854   -1.8342 H   0  0  0  0  0  0  0  0  0  0  0  0
    1.0820   18.2186   -3.3587 H   0  0  0  0  0  0  0  0  0  0  0  0
   -0.7817   16.0949   -2.9238 H   0  0  0  0  0  0  0  0  0  0  0  0
    0.3157   16.1798   -4.2994 H   0  0  0  0  0  0  0  0  0  0  0  0
    1.2122   15.0529   -0.4050 H   0  0  0  0  0  0  0  0  0  0  0  0
   -0.4189   15.4207   -1.0613 H   0  0  0  0  0  0  0  0  0  0  0  0
    0.1890   13.7304   -1.0613 H   0  0  0  0  0  0  0  0  0  0  0  0
    1.4409   14.0376   -4.4142 H   0  0  0  0  0  0  0  0  0  0  0  0
   -1.0069   13.7924   -3.6481 H   0  0  0  0  0  0  0  0  0  0  0  0
   -0.1575   12.4443   -4.5698 H   0  0  0  0  0  0  0  0  0  0  0  0
   -1.6738   11.6984   -2.5487 H   0  0  0  0  0  0  0  0  0  0  0  0
    1.9183   12.4216   -0.8527 H   0  0  0  0  0  0  0  0  0  0  0  0
    2.3370    9.8234   -2.4556 H   0  0  0  0  0  0  0  0  0  0  0  0
    3.5783   10.7047   -1.4586 H   0  0  0  0  0  0  0  0  0  0  0  0
    2.6827    8.7143   -0.2935 H   0  0  0  0  0  0  0  0  0  0  0  0
    2.3133   10.2610    0.5648 H   0  0  0  0  0  0  0  0  0  0  0  0
    0.3595    8.8687    0.6111 H   0  0  0  0  0  0  0  0  0  0  0  0
   -0.4340    7.9080   -1.2150 H   0  0  0  0  0  0  0  0  0  0  0  0
   -0.2780   10.7394    1.6570 H   0  0  0  0  0  0  0  0  0  0  0  0
    0.6831   12.0027    0.8162 H   0  0  0  0  0  0  0  0  0  0  0  0
   -1.1110   12.0907    0.8162 H   0  0  0  0  0  0  0  0  0  0  0  0
   -2.2002    9.9455    0.3201 H   0  0  0  0  0  0  0  0  0  0  0  0
   -2.3304   10.8483   -1.2274 H   0  0  0  0  0  0  0  0  0  0  0  0
   -1.7676    9.1424   -1.2274 H   0  0  0  0  0  0  0  0  0  0  0  0
    2.8750   10.7471   -3.8016 H   0  0  0  0  0  0  0  0  0  0  0  0
    1.6296   11.6078   -4.7685 H   0  0  0  0  0  0  0  0  0  0  0  0
    3.3285   12.1914   -4.7685 H   0  0  0  0  0  0  0  0  0  0  0  0
    4.1237   12.6623   -1.8781 H   0  0  0  0  0  0  0  0  0  0  0  0
    4.0806   13.5562   -3.5006 H   0  0  0  0  0  0  0  0  0  0  0  0
    3.0978   14.5550   -0.8130 H   0  0  0  0  0  0  0  0  0  0  0  0
    4.4772   15.1661   -1.8085 H   0  0  0  0  0  0  0  0  0  0  0  0
    4.1437   16.3405   -3.8986 H   0  0  0  0  0  0  0  0  0  0  0  0
    3.2002   14.9602   -4.5553 H   0  0  0  0  0  0  0  0  0  0  0  0
    2.4940   16.6118   -4.5553 H   0  0  0  0  0  0  0  0  0  0  0  0
  1  2  1  0
  2  3  1  0
  3  4  1  0
  4  5  1  0
  5  6  1  0
  6  7  1  0
  7  8  1  0
  7  9  1  0
  2 10  1  0
 10 11  1  0
 11 12  1  0
 12 13  1  0
 13 14  1  1
 13 15  1  0
 15 16  1  0
 16 17  1  0
 17 18  2  0
 18 19  1  0
 19 20  1  0
 20 21  1  0
 21 22  1  0
 22 23  1  0
 22 24  1  0
 24 25  1  0
 24 26  1  0
 19 27  1  0
 27 28  1  6
 27 29  1  0
 29 30  1  0
 30 31  1  0
 31 32  1  6
  7  5  1  0
 31 10  1  0
 31 13  1  0
 27 15  1  0
 24 18  1  0
  1 33  1  0
  1 34  1  0
  1 35  1  0
  2 36  1  6
  3 37  1  0
  3 38  1  0
  4 39  1  0
  4 40  1  0
  5 41  1  6
  8 42  1  0
  8 43  1  0
  8 44  1  0
  9 45  1  0
  9 46  1  0
  9 47  1  0
 10 48  1  1
 11 49  1  0
 11 50  1  0
 12 51  1  0
 12 52  1  0
 14 53  1  0
 14 54  1  0
 14 55  1  0
 15 56  1  6
 16 57  1  0
 16 58  1  0
 17 59  1  0
 19 60  1  1
 20 61  1  0
 20 62  1  0
 21 63  1  0
 21 64  1  0
 22 65  1  1
 23 66  1  0
 25 67  1  0
 25 68  1  0
 25 69  1  0
 26 70  1  0
 26 71  1  0
 26 72  1  0
 28 73  1  0
 28 74  1  0
 28 75  1  0
 29 76  1  0
 29 77  1  0
 30 78  1  0
 30 79  1  0
 32 80  1  0
 32 81  1  0
 32 82  1  0
M  END
>  <meeko>  (5) 
{"is_sidechain": [false], "intermolecular_energy": 2.731, "internal_energy": -0.839}

$$$$
EPH_relaxed_0001_pdb2pqr_Repair_319_r2_0001_out
     RDKit          3D

 82 86  0  0  0  0  0  0  0  0999 V2000
   -0.6580    8.1220   -1.3230 C   0  0  0  0  0  0  0  0  0  0  0  0
   -0.9520    9.3360   -0.4360 C   0  0  2  0  0  0  0  0  0  0  0  0
   -2.2750   10.0290   -0.8190 C   0  0  0  0  0  0  0  0  0  0  0  0
   -3.4880    9.5160   -0.0380 C   0  0  0  0  0  0  0  0  0  0  0  0
   -3.8850    8.1370   -0.4730 C   0  0  2  0  0  0  0  0  0  0  0  0
   -4.0180    7.9720   -1.8910 O   0  0  0  0  0  0  0  0  0  0  0  0
   -5.2200    7.8160   -1.1180 C   0  0  0  0  0  0  0  0  0  0  0  0
   -6.2440    8.8790   -1.3640 C   0  0  0  0  0  0  0  0  0  0  0  0
   -5.7210    6.4060   -1.0610 C   0  0  0  0  0  0  0  0  0  0  0  0
    0.2000   10.3300   -0.5180 C   0  0  1  0  0  0  0  0  0  0  0  0
    1.5890    9.6450   -0.4270 C   0  0  0  0  0  0  0  0  0  0  0  0
    2.5460   10.4500   -1.3440 C   0  0  0  0  0  0  0  0  0  0  0  0
    1.7740   11.7510   -1.6660 C   0  0  1  0  0  0  0  0  0  0  0  0
    1.9930   12.6660   -0.4200 C   0  0  0  0  0  0  0  0  0  0  0  0
    2.1680   12.4780   -2.9930 C   0  0  2  0  0  0  0  0  0  0  0  0
    3.6210   12.9820   -3.0540 C   0  0  0  0  0  0  0  0  0  0  0  0
    3.8350   14.3730   -2.5580 C   0  0  0  0  0  0  0  0  0  0  0  0
    2.8680   15.2860   -2.3490 C   0  0  0  0  0  0  0  0  0  0  0  0
    1.4080   14.9840   -2.7110 C   0  0  1  0  0  0  0  0  0  0  0  0
    0.8050   16.1890   -3.4800 C   0  0  0  0  0  0  0  0  0  0  0  0
    0.9580   17.5030   -2.7200 C   0  0  0  0  0  0  0  0  0  0  0  0
    2.4280   17.7980   -2.4300 C   0  0  2  0  0  0  0  0  0  0  0  0
    3.1010   18.0460   -3.6680 O   0  0  0  0  0  0  0  0  0  0  0  0
    3.1430   16.6490   -1.6670 C   0  0  0  0  0  0  0  0  0  0  0  0
    2.6130   16.5810   -0.2130 C   0  0  0  0  0  0  0  0  0  0  0  0
    4.6500   17.0100   -1.5630 C   0  0  0  0  0  0  0  0  0  0  0  0
    1.1480   13.5990   -3.4460 C   0  0  1  0  0  0  0  0  0  0  0  0
    1.3300   13.7710   -4.9850 C   0  0  0  0  0  0  0  0  0  0  0  0
   -0.3500   13.1710   -3.2200 C   0  0  0  0  0  0  0  0  0  0  0  0
   -0.6560   12.3520   -1.9520 C   0  0  0  0  0  0  0  0  0  0  0  0
    0.3170   11.1780   -1.8090 C   0  0  2  0  0  0  0  0  0  0  0  0
    0.1040   10.2280   -3.0370 C   0  0  0  0  0  0  0  0  0  0  0  0
   -0.4463    7.2479   -0.6897 H   0  0  0  0  0  0  0  0  0  0  0  0
   -1.5312    7.9118   -1.9581 H   0  0  0  0  0  0  0  0  0  0  0  0
    0.2146    8.3346   -1.9581 H   0  0  0  0  0  0  0  0  0  0  0  0
   -1.0574    8.9733    0.5971 H   0  0  0  0  0  0  0  0  0  0  0  0
   -2.1700   11.1072   -0.6282 H   0  0  0  0  0  0  0  0  0  0  0  0
   -2.4587    9.8061   -1.8804 H   0  0  0  0  0  0  0  0  0  0  0  0
   -3.2390    9.4940    1.0332 H   0  0  0  0  0  0  0  0  0  0  0  0
   -4.3326   10.1934   -0.2326 H   0  0  0  0  0  0  0  0  0  0  0  0
   -3.3497    7.6887    0.3769 H   0  0  0  0  0  0  0  0  0  0  0  0
   -6.6132    9.2623   -0.4013 H   0  0  0  0  0  0  0  0  0  0  0  0
   -5.7889    9.7012   -1.9358 H   0  0  0  0  0  0  0  0  0  0  0  0
   -7.0826    8.4550   -1.9358 H   0  0  0  0  0  0  0  0  0  0  0  0
   -5.8305    6.0979   -0.0107 H   0  0  0  0  0  0  0  0  0  0  0  0
   -6.6966    6.3429   -1.5652 H   0  0  0  0  0  0  0  0  0  0  0  0
   -5.0040    5.7414   -1.5652 H   0  0  0  0  0  0  0  0  0  0  0  0
   -0.0542   10.9765    0.3349 H   0  0  0  0  0  0  0  0  0  0  0  0
    1.9535    9.6641    0.6107 H   0  0  0  0  0  0  0  0  0  0  0  0
    1.5318    8.5928   -0.7426 H   0  0  0  0  0  0  0  0  0  0  0  0
    3.4868   10.6760   -0.8207 H   0  0  0  0  0  0  0  0  0  0  0  0
    2.8217    9.8927   -2.2514 H   0  0  0  0  0  0  0  0  0  0  0  0
    1.8518   12.0760    0.4976 H   0  0  0  0  0  0  0  0  0  0  0  0
    3.0142   13.0743   -0.4399 H   0  0  0  0  0  0  0  0  0  0  0  0
    1.2673   13.4924   -0.4399 H   0  0  0  0  0  0  0  0  0  0  0  0
    2.1010   11.6680   -3.7343 H   0  0  0  0  0  0  0  0  0  0  0  0
    4.2410   12.3057   -2.4472 H   0  0  0  0  0  0  0  0  0  0  0  0
    3.8944   12.9936   -4.1194 H   0  0  0  0  0  0  0  0  0  0  0  0
    4.8702   14.6781   -2.3452 H   0  0  0  0  0  0  0  0  0  0  0  0
    0.8797   14.8489   -1.7557 H   0  0  0  0  0  0  0  0  0  0  0  0
    1.3167   16.2806   -4.4494 H   0  0  0  0  0  0  0  0  0  0  0  0
   -0.2711   15.9997   -3.6069 H   0  0  0  0  0  0  0  0  0  0  0  0
    0.5396   18.3201   -3.3260 H   0  0  0  0  0  0  0  0  0  0  0  0
    0.4213   17.4198   -1.7634 H   0  0  0  0  0  0  0  0  0  0  0  0
    2.4652   18.6806   -1.7745 H   0  0  0  0  0  0  0  0  0  0  0  0
    3.6660   18.8270   -3.5450 H   0  0  0  0  0  0  0  0  0  0  0  0
    3.4531   16.6888    0.4889 H   0  0  0  0  0  0  0  0  0  0  0  0
    1.8905   17.3938   -0.0477 H   0  0  0  0  0  0  0  0  0  0  0  0
    2.1191   15.6121   -0.0477 H   0  0  0  0  0  0  0  0  0  0  0  0
    4.9382   17.0790   -0.5037 H   0  0  0  0  0  0  0  0  0  0  0  0
    5.2488   16.2299   -2.0558 H   0  0  0  0  0  0  0  0  0  0  0  0
    4.8303   17.9768   -2.0558 H   0  0  0  0  0  0  0  0  0  0  0  0
    2.1168   14.5145   -5.1803 H   0  0  0  0  0  0  0  0  0  0  0  0
    1.6177   12.8071   -5.4302 H   0  0  0  0  0  0  0  0  0  0  0  0
    0.3839   14.1127   -5.4302 H   0  0  0  0  0  0  0  0  0  0  0  0
   -0.9551   14.0886   -3.1772 H   0  0  0  0  0  0  0  0  0  0  0  0
   -0.5868   12.5003   -4.0591 H   0  0  0  0  0  0  0  0  0  0  0  0
   -0.5642   13.0047   -1.0713 H   0  0  0  0  0  0  0  0  0  0  0  0
   -1.6779   11.9527   -2.0308 H   0  0  0  0  0  0  0  0  0  0  0  0
   -0.1236    9.2127   -2.6800 H   0  0  0  0  0  0  0  0  0  0  0  0
   -0.7333   10.5987   -3.6465 H   0  0  0  0  0  0  0  0  0  0  0  0
    1.0194   10.2057   -3.6465 H   0  0  0  0  0  0  0  0  0  0  0  0
  1  2  1  0
  2  3  1  0
  3  4  1  0
  4  5  1  0
  5  6  1  0
  6  7  1  0
  7  8  1  0
  7  9  1  0
  2 10  1  0
 10 11  1  0
 11 12  1  0
 12 13  1  0
 13 14  1  1
 13 15  1  0
 15 16  1  0
 16 17  1  0
 17 18  2  0
 18 19  1  0
 19 20  1  0
 20 21  1  0
 21 22  1  0
 22 23  1  0
 22 24  1  0
 24 25  1  0
 24 26  1  0
 19 27  1  0
 27 28  1  6
 27 29  1  0
 29 30  1  0
 30 31  1  0
 31 32  1  6
  7  5  1  0
 31 10  1  0
 31 13  1  0
 27 15  1  0
 24 18  1  0
  1 33  1  0
  1 34  1  0
  1 35  1  0
  2 36  1  1
  3 37  1  0
  3 38  1  0
  4 39  1  0
  4 40  1  0
  5 41  1  1
  8 42  1  0
  8 43  1  0
  8 44  1  0
  9 45  1  0
  9 46  1  0
  9 47  1  0
 10 48  1  1
 11 49  1  0
 11 50  1  0
 12 51  1  0
 12 52  1  0
 14 53  1  0
 14 54  1  0
 14 55  1  0
 15 56  1  6
 16 57  1  0
 16 58  1  0
 17 59  1  0
 19 60  1  1
 20 61  1  0
 20 62  1  0
 21 63  1  0
 21 64  1  0
 22 65  1  1
 23 66  1  0
 25 67  1  0
 25 68  1  0
 25 69  1  0
 26 70  1  0
 26 71  1  0
 26 72  1  0
 28 73  1  0
 28 74  1  0
 28 75  1  0
 29 76  1  0
 29 77  1  0
 30 78  1  0
 30 79  1  0
 32 80  1  0
 32 81  1  0
 32 82  1  0
M  END
>  <meeko>  (6) 
{"is_sidechain": [false], "intermolecular_energy": 2.731, "internal_energy": -0.839}

$$$$
EPH_relaxed_0001_pdb2pqr_Repair_319_r2_0001_out
     RDKit          3D

 82 86  0  0  0  0  0  0  0  0999 V2000
    0.0670   10.2980   -3.7350 C   0  0  0  0  0  0  0  0  0  0  0  0
    1.1670   10.1150   -2.6850 C   0  0  2  0  0  0  0  0  0  0  0  0
    0.9080    8.8940   -1.7800 C   0  0  0  0  0  0  0  0  0  0  0  0
    0.2540    9.2470   -0.4410 C   0  0  0  0  0  0  0  0  0  0  0  0
   -1.1690    8.7810   -0.3790 C   0  0  2  0  0  0  0  0  0  0  0  0
   -1.8630    8.8080   -1.6340 O   0  0  0  0  0  0  0  0  0  0  0  0
   -2.3590    9.6920   -0.6150 C   0  0  0  0  0  0  0  0  0  0  0  0
   -2.1800   11.1440   -0.9300 C   0  0  0  0  0  0  0  0  0  0  0  0
   -3.6910    9.2880   -0.0620 C   0  0  0  0  0  0  0  0  0  0  0  0
    1.2900   11.3750   -1.8360 C   0  0  1  0  0  0  0  0  0  0  0  0
    2.2520   11.1920   -0.6320 C   0  0  0  0  0  0  0  0  0  0  0  0
    2.9700   12.5510   -0.4220 C   0  0  0  0  0  0  0  0  0  0  0  0
    2.1670   13.5530   -1.2850 C   0  0  1  0  0  0  0  0  0  0  0  0
    0.9280   13.9300   -0.4140 C   0  0  0  0  0  0  0  0  0  0  0  0
    2.9410   14.8220   -1.7690 C   0  0  2  0  0  0  0  0  0  0  0  0
    3.4440   15.7470   -0.6460 C   0  0  0  0  0  0  0  0  0  0  0  0
    2.4960   16.8250   -0.2360 C   0  0  0  0  0  0  0  0  0  0  0  0
    1.4150   17.2230   -0.9310 C   0  0  0  0  0  0  0  0  0  0  0  0
    1.1080   16.6350   -2.3150 C   0  0  1  0  0  0  0  0  0  0  0  0
    0.7560   17.7810   -3.2980 C   0  0  0  0  0  0  0  0  0  0  0  0
   -0.3700   18.6710   -2.7800 C   0  0  0  0  0  0  0  0  0  0  0  0
   -0.0040   19.2830   -1.4310 C   0  0  2  0  0  0  0  0  0  0  0  0
    1.0840   20.1940   -1.6180 O   0  0  0  0  0  0  0  0  0  0  0  0
    0.3800   18.2230   -0.3610 C   0  0  0  0  0  0  0  0  0  0  0  0
   -0.8810   17.4300    0.0620 C   0  0  0  0  0  0  0  0  0  0  0  0
    0.8630   18.9780    0.9070 C   0  0  0  0  0  0  0  0  0  0  0  0
    2.2000   15.6400   -2.9030 C   0  0  1  0  0  0  0  0  0  0  0  0
    3.2990   16.4450   -3.6620 C   0  0  0  0  0  0  0  0  0  0  0  0
    1.5200   14.7030   -3.9690 C   0  0  0  0  0  0  0  0  0  0  0  0
    0.8770   13.4050   -3.4440 C   0  0  0  0  0  0  0  0  0  0  0  0
    1.8420   12.6470   -2.5280 C   0  0  2  0  0  0  0  0  0  0  0  0
    3.0890   12.2350   -3.3830 C   0  0  0  0  0  0  0  0  0  0  0  0
   -0.8976   10.4585   -3.2313 H   0  0  0  0  0  0  0  0  0  0  0  0
    0.3017   11.1694   -4.3639 H   0  0  0  0  0  0  0  0  0  0  0  0
    0.0069    9.3975   -4.3639 H   0  0  0  0  0  0  0  0  0  0  0  0
    2.1101    9.9346   -3.2217 H   0  0  0  0  0  0  0  0  0  0  0  0
    0.2464    8.1982   -2.3167 H   0  0  0  0  0  0  0  0  0  0  0  0
    1.8881    8.4499   -1.5515 H   0  0  0  0  0  0  0  0  0  0  0  0
    0.8217    8.7678    0.3703 H   0  0  0  0  0  0  0  0  0  0  0  0
    0.2612   10.3418   -0.3340 H   0  0  0  0  0  0  0  0  0  0  0  0
   -0.9280    8.0775    0.4316 H   0  0  0  0  0  0  0  0  0  0  0  0
   -2.1094   11.7164    0.0067 H   0  0  0  0  0  0  0  0  0  0  0  0
   -1.2581   11.2815   -1.5141 H   0  0  0  0  0  0  0  0  0  0  0  0
   -3.0409   11.5013   -1.5141 H   0  0  0  0  0  0  0  0  0  0  0  0
   -3.6507    9.3002    1.0372 H   0  0  0  0  0  0  0  0  0  0  0  0
   -4.4610    9.9930   -0.4085 H   0  0  0  0  0  0  0  0  0  0  0  0
   -3.9396    8.2740   -0.4085 H   0  0  0  0  0  0  0  0  0  0  0  0
    0.2334   11.5210   -1.5673 H   0  0  0  0  0  0  0  0  0  0  0  0
    1.6831   10.9209    0.2696 H   0  0  0  0  0  0  0  0  0  0  0  0
    2.9773   10.3878   -0.8248 H   0  0  0  0  0  0  0  0  0  0  0  0
    2.9449   12.8439    0.6380 H   0  0  0  0  0  0  0  0  0  0  0  0
    4.0315   12.5109   -0.7077 H   0  0  0  0  0  0  0  0  0  0  0  0
    1.1906   13.8501    0.6512 H   0  0  0  0  0  0  0  0  0  0  0  0
    0.6215   14.9621   -0.6397 H   0  0  0  0  0  0  0  0  0  0  0  0
    0.0986   13.2436   -0.6397 H   0  0  0  0  0  0  0  0  0  0  0  0
    3.8429   14.3885   -2.2259 H   0  0  0  0  0  0  0  0  0  0  0  0
    3.6552   15.1260    0.2370 H   0  0  0  0  0  0  0  0  0  0  0  0
    4.3316   16.2582   -1.0471 H   0  0  0  0  0  0  0  0  0  0  0  0
    2.6987   17.3378    0.7158 H   0  0  0  0  0  0  0  0  0  0  0  0
    0.2358   15.9785   -2.1800 H   0  0  0  0  0  0  0  0  0  0  0  0
    1.6519   18.4002   -3.4531 H   0  0  0  0  0  0  0  0  0  0  0  0
    0.4136   17.3219   -4.2372 H   0  0  0  0  0  0  0  0  0  0  0  0
   -0.5527   19.4786   -3.5041 H   0  0  0  0  0  0  0  0  0  0  0  0
   -1.2735   18.0565   -2.6534 H   0  0  0  0  0  0  0  0  0  0  0  0
   -0.8963   19.8023   -1.0515 H   0  0  0  0  0  0  0  0  0  0  0  0
    0.7060   21.0640   -1.8320 H   0  0  0  0  0  0  0  0  0  0  0  0
   -0.9398   17.3930    1.1598 H   0  0  0  0  0  0  0  0  0  0  0  0
   -1.7776   17.9271   -0.3367 H   0  0  0  0  0  0  0  0  0  0  0  0
   -0.8214   16.4065   -0.3367 H   0  0  0  0  0  0  0  0  0  0  0  0
    0.5207   18.4429    1.8050 H   0  0  0  0  0  0  0  0  0  0  0  0
    1.9618   19.0290    0.9071 H   0  0  0  0  0  0  0  0  0  0  0  0
    0.4487   19.9970    0.9071 H   0  0  0  0  0  0  0  0  0  0  0  0
    3.9646   16.9325   -2.9345 H   0  0  0  0  0  0  0  0  0  0  0  0
    3.8845   15.7606   -4.2934 H   0  0  0  0  0  0  0  0  0  0  0  0
    2.8231   17.2097   -4.2934 H   0  0  0  0  0  0  0  0  0  0  0  0
    0.7326   15.2854   -4.4698 H   0  0  0  0  0  0  0  0  0  0  0  0
    2.3384   14.3733   -4.6260 H   0  0  0  0  0  0  0  0  0  0  0  0
   -0.0325   13.6569   -2.8789 H   0  0  0  0  0  0  0  0  0  0  0  0
    0.6312   12.7630   -4.3028 H   0  0  0  0  0  0  0  0  0  0  0  0
    3.9180   11.9611   -2.7139 H   0  0  0  0  0  0  0  0  0  0  0  0
    2.8304   11.3746   -4.0176 H   0  0  0  0  0  0  0  0  0  0  0  0
    3.3939   13.0802   -4.0176 H   0  0  0  0  0  0  0  0  0  0  0  0
  1  2  1  0
  2  3  1  0
  3  4  1  0
  4  5  1  0
  5  6  1  0
  6  7  1  0
  7  8  1  0
  7  9  1  0
  2 10  1  0
 10 11  1  0
 11 12  1  0
 12 13  1  0
 13 14  1  1
 13 15  1  0
 15 16  1  0
 16 17  1  0
 17 18  2  0
 18 19  1  0
 19 20  1  0
 20 21  1  0
 21 22  1  0
 22 23  1  0
 22 24  1  0
 24 25  1  0
 24 26  1  0
 19 27  1  0
 27 28  1  6
 27 29  1  0
 29 30  1  0
 30 31  1  0
 31 32  1  6
  7  5  1  0
 31 10  1  0
 31 13  1  0
 27 15  1  0
 24 18  1  0
  1 33  1  0
  1 34  1  0
  1 35  1  0
  2 36  1  6
  3 37  1  0
  3 38  1  0
  4 39  1  0
  4 40  1  0
  5 41  1  1
  8 42  1  0
  8 43  1  0
  8 44  1  0
  9 45  1  0
  9 46  1  0
  9 47  1  0
 10 48  1  1
 11 49  1  0
 11 50  1  0
 12 51  1  0
 12 52  1  0
 14 53  1  0
 14 54  1  0
 14 55  1  0
 15 56  1  6
 16 57  1  0
 16 58  1  0
 17 59  1  0
 19 60  1  1
 20 61  1  0
 20 62  1  0
 21 63  1  0
 21 64  1  0
 22 65  1  1
 23 66  1  0
 25 67  1  0
 25 68  1  0
 25 69  1  0
 26 70  1  0
 26 71  1  0
 26 72  1  0
 28 73  1  0
 28 74  1  0
 28 75  1  0
 29 76  1  0
 29 77  1  0
 30 78  1  0
 30 79  1  0
 32 80  1  0
 32 81  1  0
 32 82  1  0
M  END
>  <meeko>  (7) 
{"is_sidechain": [false], "intermolecular_energy": 2.731, "internal_energy": -0.839}

$$$$
EPH_relaxed_0001_pdb2pqr_Repair_319_r2_0001_out
     RDKit          3D

 82 86  0  0  0  0  0  0  0  0999 V2000
   -0.7290    9.5190   -2.9750 C   0  0  0  0  0  0  0  0  0  0  0  0
    0.4760    9.2190   -2.0790 C   0  0  2  0  0  0  0  0  0  0  0  0
    0.0560    8.8910   -0.6320 C   0  0  0  0  0  0  0  0  0  0  0  0
    0.9820    9.4920    0.4290 C   0  0  0  0  0  0  0  0  0  0  0  0
    0.2390   10.3970    1.3650 C   0  0  2  0  0  0  0  0  0  0  0  0
   -0.3050   11.5740    0.7530 O   0  0  0  0  0  0  0  0  0  0  0  0
    0.7170   11.7870    1.7400 C   0  0  0  0  0  0  0  0  0  0  0  0
    1.9890   12.3500    1.1880 C   0  0  0  0  0  0  0  0  0  0  0  0
    0.2120   12.3990    3.0090 C   0  0  0  0  0  0  0  0  0  0  0  0
    1.4360   10.4030   -2.0860 C   0  0  1  0  0  0  0  0  0  0  0  0
    2.8630   10.0120   -2.5570 C   0  0  0  0  0  0  0  0  0  0  0  0
    3.4220   11.2250   -3.3450 C   0  0  0  0  0  0  0  0  0  0  0  0
    2.4470   12.3820   -3.0220 C   0  0  1  0  0  0  0  0  0  0  0  0
    2.9060   12.9160   -1.6290 C   0  0  0  0  0  0  0  0  0  0  0  0
    2.3630   13.5300   -4.0810 C   0  0  2  0  0  0  0  0  0  0  0  0
    3.6710   14.3080   -4.3050 C   0  0  0  0  0  0  0  0  0  0  0  0
    3.8570   15.5060   -3.4330 C   0  0  0  0  0  0  0  0  0  0  0  0
    2.8920   16.1060   -2.7110 C   0  0  0  0  0  0  0  0  0  0  0  0
    1.4340   15.6380   -2.8040 C   0  0  1  0  0  0  0  0  0  0  0  0
    0.5040   16.8710   -2.9610 C   0  0  0  0  0  0  0  0  0  0  0  0
    0.7160   17.9070   -1.8620 C   0  0  0  0  0  0  0  0  0  0  0  0
    2.1640   18.3900   -1.8390 C   0  0  2  0  0  0  0  0  0  0  0  0
    2.4260   19.1190   -3.0420 O   0  0  0  0  0  0  0  0  0  0  0  0
    3.1930   17.2340   -1.6950 C   0  0  0  0  0  0  0  0  0  0  0  0
    3.1090   16.6380   -0.2680 C   0  0  0  0  0  0  0  0  0  0  0  0
    4.6160   17.8420   -1.8280 C   0  0  0  0  0  0  0  0  0  0  0  0
    1.1350   14.5080   -3.8800 C   0  0  1  0  0  0  0  0  0  0  0  0
    0.8520   15.1570   -5.2690 C   0  0  0  0  0  0  0  0  0  0  0  0
   -0.1780   13.7430   -3.4710 C   0  0  0  0  0  0  0  0  0  0  0  0
   -0.0160   12.5440   -2.5170 C   0  0  0  0  0  0  0  0  0  0  0  0
    1.0850   11.5980   -3.0070 C   0  0  2  0  0  0  0  0  0  0  0  0
    0.6410   11.0280   -4.3980 C   0  0  0  0  0  0  0  0  0  0  0  0
   -1.6064    9.7374   -2.3485 H   0  0  0  0  0  0  0  0  0  0  0  0
   -0.5061   10.3891   -3.6101 H   0  0  0  0  0  0  0  0  0  0  0  0
   -0.9401    8.6460   -3.6101 H   0  0  0  0  0  0  0  0  0  0  0  0
    0.9786    8.3297   -2.4870 H   0  0  0  0  0  0  0  0  0  0  0  0
   -0.9593    9.2813   -0.4681 H   0  0  0  0  0  0  0  0  0  0  0  0
    0.1082    7.7977   -0.5221 H   0  0  0  0  0  0  0  0  0  0  0  0
    1.4371    8.6755    1.0088 H   0  0  0  0  0  0  0  0  0  0  0  0
    1.7514   10.0871   -0.0847 H   0  0  0  0  0  0  0  0  0  0  0  0
   -0.0871    9.5401    1.9728 H   0  0  0  0  0  0  0  0  0  0  0  0
    2.6504   12.6428    2.0167 H   0  0  0  0  0  0  0  0  0  0  0  0
    2.4893   11.5892    0.5708 H   0  0  0  0  0  0  0  0  0  0  0  0
    1.7622   13.2318    0.5708 H   0  0  0  0  0  0  0  0  0  0  0  0
    0.6479   11.8707    3.8697 H   0  0  0  0  0  0  0  0  0  0  0  0
    0.5012   13.4597    3.0450 H   0  0  0  0  0  0  0  0  0  0  0  0
   -0.8843   12.3164    3.0450 H   0  0  0  0  0  0  0  0  0  0  0  0
    1.3621   10.7066   -1.0313 H   0  0  0  0  0  0  0  0  0  0  0  0
    3.5029    9.7970   -1.6885 H   0  0  0  0  0  0  0  0  0  0  0  0
    2.8380    9.1099   -3.1860 H   0  0  0  0  0  0  0  0  0  0  0  0
    4.4405   11.4702   -3.0095 H   0  0  0  0  0  0  0  0  0  0  0  0
    3.4904   11.0258   -4.4247 H   0  0  0  0  0  0  0  0  0  0  0  0
    2.4105   12.3395   -0.8339 H   0  0  0  0  0  0  0  0  0  0  0  0
    3.9966   12.8069   -1.5357 H   0  0  0  0  0  0  0  0  0  0  0  0
    2.6344   13.9778   -1.5357 H   0  0  0  0  0  0  0  0  0  0  0  0
    2.1814   12.9774   -5.0146 H   0  0  0  0  0  0  0  0  0  0  0  0
    4.5107   13.6211   -4.1228 H   0  0  0  0  0  0  0  0  0  0  0  0
    3.6277   14.6861   -5.3371 H   0  0  0  0  0  0  0  0  0  0  0  0
    4.8684   15.9346   -3.3757 H   0  0  0  0  0  0  0  0  0  0  0  0
    1.2184   15.1250   -1.8551 H   0  0  0  0  0  0  0  0  0  0  0  0
    0.7053   17.3429   -3.9340 H   0  0  0  0  0  0  0  0  0  0  0  0
   -0.5350   16.5168   -2.8901 H   0  0  0  0  0  0  0  0  0  0  0  0
    0.0530   18.7657   -2.0441 H   0  0  0  0  0  0  0  0  0  0  0  0
    0.4857   17.4419   -0.8921 H   0  0  0  0  0  0  0  0  0  0  0  0
    2.2841   19.0298   -0.9523 H   0  0  0  0  0  0  0  0  0  0  0  0
    2.1810   18.5490   -3.7910 H   0  0  0  0  0  0  0  0  0  0  0  0
    3.2225   17.4431    0.4729 H   0  0  0  0  0  0  0  0  0  0  0  0
    2.1331   16.1491   -0.1317 H   0  0  0  0  0  0  0  0  0  0  0  0
    3.9118   15.8984   -0.1317 H   0  0  0  0  0  0  0  0  0  0  0  0
    5.0336   18.0204   -0.8261 H   0  0  0  0  0  0  0  0  0  0  0  0
    5.2640   17.1422   -2.3760 H   0  0  0  0  0  0  0  0  0  0  0  0
    4.5582   18.7940   -2.3760 H   0  0  0  0  0  0  0  0  0  0  0  0
    0.4161   16.1566   -5.1247 H   0  0  0  0  0  0  0  0  0  0  0  0
    1.7934   15.2452   -5.8312 H   0  0  0  0  0  0  0  0  0  0  0  0
    0.1468   14.5272   -5.8312 H   0  0  0  0  0  0  0  0  0  0  0  0
   -0.8471   14.4676   -2.9839 H   0  0  0  0  0  0  0  0  0  0  0  0
   -0.5648   13.3149   -4.4076 H   0  0  0  0  0  0  0  0  0  0  0  0
    0.2473   12.9143   -1.5152 H   0  0  0  0  0  0  0  0  0  0  0  0
   -0.9658   11.9901   -2.4855 H   0  0  0  0  0  0  0  0  0  0  0  0
   -0.0284   10.1686   -4.2453 H   0  0  0  0  0  0  0  0  0  0  0  0
    0.1114   11.8096   -4.9624 H   0  0  0  0  0  0  0  0  0  0  0  0
    1.5285   10.7058   -4.9624 H   0  0  0  0  0  0  0  0  0  0  0  0
  1  2  1  0
  2  3  1  0
  3  4  1  0
  4  5  1  0
  5  6  1  0
  6  7  1  0
  7  8  1  0
  7  9  1  0
  2 10  1  0
 10 11  1  0
 11 12  1  0
 12 13  1  0
 13 14  1  1
 13 15  1  0
 15 16  1  0
 16 17  1  0
 17 18  2  0
 18 19  1  0
 19 20  1  0
 20 21  1  0
 21 22  1  0
 22 23  1  0
 22 24  1  0
 24 25  1  0
 24 26  1  0
 19 27  1  0
 27 28  1  6
 27 29  1  0
 29 30  1  0
 30 31  1  0
 31 32  1  6
  7  5  1  0
 31 10  1  0
 31 13  1  0
 27 15  1  0
 24 18  1  0
  1 33  1  0
  1 34  1  0
  1 35  1  0
  2 36  1  6
  3 37  1  0
  3 38  1  0
  4 39  1  0
  4 40  1  0
  5 41  1  1
  8 42  1  0
  8 43  1  0
  8 44  1  0
  9 45  1  0
  9 46  1  0
  9 47  1  0
 10 48  1  1
 11 49  1  0
 11 50  1  0
 12 51  1  0
 12 52  1  0
 14 53  1  0
 14 54  1  0
 14 55  1  0
 15 56  1  6
 16 57  1  0
 16 58  1  0
 17 59  1  0
 19 60  1  1
 20 61  1  0
 20 62  1  0
 21 63  1  0
 21 64  1  0
 22 65  1  1
 23 66  1  0
 25 67  1  0
 25 68  1  0
 25 69  1  0
 26 70  1  0
 26 71  1  0
 26 72  1  0
 28 73  1  0
 28 74  1  0
 28 75  1  0
 29 76  1  0
 29 77  1  0
 30 78  1  0
 30 79  1  0
 32 80  1  0
 32 81  1  0
 32 82  1  0
M  END
>  <meeko>  (8) 
{"is_sidechain": [false], "intermolecular_energy": 2.731, "internal_energy": -0.839}

$$$$
EPH_relaxed_0001_pdb2pqr_Repair_319_r2_0001_out
     RDKit          3D

 82 86  0  0  0  0  0  0  0  0999 V2000
   -0.2790   10.0520    1.0900 C   0  0  0  0  0  0  0  0  0  0  0  0
   -0.9760   10.3790   -0.2330 C   0  0  2  0  0  0  0  0  0  0  0  0
   -1.7660    9.1750   -0.7860 C   0  0  0  0  0  0  0  0  0  0  0  0
   -3.2600    9.2150   -0.4550 C   0  0  0  0  0  0  0  0  0  0  0  0
   -3.9130    7.8840   -0.6780 C   0  0  2  0  0  0  0  0  0  0  0  0
   -4.2170    7.5890   -2.0470 O   0  0  0  0  0  0  0  0  0  0  0  0
   -5.3410    7.7240   -1.1630 C   0  0  0  0  0  0  0  0  0  0  0  0
   -6.2040    8.9120   -1.4540 C   0  0  0  0  0  0  0  0  0  0  0  0
   -6.0500    6.4350   -0.8880 C   0  0  0  0  0  0  0  0  0  0  0  0
    0.0500   10.8450   -1.2600 C   0  0  1  0  0  0  0  0  0  0  0  0
   -0.0620   10.0800   -2.6060 C   0  0  0  0  0  0  0  0  0  0  0  0
    0.2840   11.0940   -3.7260 C   0  0  0  0  0  0  0  0  0  0  0  0
    0.9010   12.3020   -2.9820 C   0  0  1  0  0  0  0  0  0  0  0  0
    2.3850   11.8950   -2.7180 C   0  0  0  0  0  0  0  0  0  0  0  0
    0.8020   13.6840   -3.7060 C   0  0  2  0  0  0  0  0  0  0  0  0
    1.5390   13.7690   -5.0540 C   0  0  0  0  0  0  0  0  0  0  0  0
    2.9580   14.2270   -4.9770 C   0  0  0  0  0  0  0  0  0  0  0  0
    3.5290   14.8280   -3.9170 C   0  0  0  0  0  0  0  0  0  0  0  0
    2.7020   15.1900   -2.6770 C   0  0  1  0  0  0  0  0  0  0  0  0
    3.0310   16.6420   -2.2410 C   0  0  0  0  0  0  0  0  0  0  0  0
    4.5260   16.8650   -2.0310 C   0  0  0  0  0  0  0  0  0  0  0  0
    5.3080   16.5500   -3.3030 C   0  0  2  0  0  0  0  0  0  0  0  0
    4.9630   17.5110   -4.3060 O   0  0  0  0  0  0  0  0  0  0  0  0
    5.0490   15.1160   -3.8430 C   0  0  0  0  0  0  0  0  0  0  0  0
    5.6950   14.0780   -2.8920 C   0  0  0  0  0  0  0  0  0  0  0  0
    5.7860   14.9770   -5.2020 C   0  0  0  0  0  0  0  0  0  0  0  0
    1.1390   14.9250   -2.7840 C   0  0  1  0  0  0  0  0  0  0  0  0
    0.4320   16.1590   -3.4230 C   0  0  0  0  0  0  0  0  0  0  0  0
    0.5420   14.7720   -1.3350 C   0  0  0  0  0  0  0  0  0  0  0  0
    0.5610   13.3600   -0.7210 C   0  0  0  0  0  0  0  0  0  0  0  0
   -0.0090   12.3290   -1.7000 C   0  0  2  0  0  0  0  0  0  0  0  0
   -1.5070   12.6990   -1.9680 C   0  0  0  0  0  0  0  0  0  0  0  0
   -0.9235   10.3544    1.9285 H   0  0  0  0  0  0  0  0  0  0  0  0
   -0.0878    8.9702    1.1461 H   0  0  0  0  0  0  0  0  0  0  0  0
    0.6752   10.5964    1.1461 H   0  0  0  0  0  0  0  0  0  0  0  0
   -1.6978   11.1855   -0.0365 H   0  0  0  0  0  0  0  0  0  0  0  0
   -1.6530    9.1584   -1.8801 H   0  0  0  0  0  0  0  0  0  0  0  0
   -1.3548    8.2737   -0.3079 H   0  0  0  0  0  0  0  0  0  0  0  0
   -3.3839    9.5006    0.6000 H   0  0  0  0  0  0  0  0  0  0  0  0
   -3.7393    9.9480   -1.1206 H   0  0  0  0  0  0  0  0  0  0  0  0
   -3.3700    7.4482    0.1736 H   0  0  0  0  0  0  0  0  0  0  0  0
   -6.5339    9.3661   -0.5080 H   0  0  0  0  0  0  0  0  0  0  0  0
   -5.6295    9.6493   -2.0339 H   0  0  0  0  0  0  0  0  0  0  0  0
   -7.0828    8.5936   -2.0339 H   0  0  0  0  0  0  0  0  0  0  0  0
   -6.1319    6.2862    0.1988 H   0  0  0  0  0  0  0  0  0  0  0  0
   -7.0566    6.4686   -1.3303 H   0  0  0  0  0  0  0  0  0  0  0  0
   -5.4827    5.6029   -1.3303 H   0  0  0  0  0  0  0  0  0  0  0  0
    0.9753   10.6565   -0.6958 H   0  0  0  0  0  0  0  0  0  0  0  0
    0.6469    9.2391   -2.6240 H   0  0  0  0  0  0  0  0  0  0  0  0
   -1.0728    9.6685   -2.7438 H   0  0  0  0  0  0  0  0  0  0  0  0
    1.0085   10.6611   -4.4314 H   0  0  0  0  0  0  0  0  0  0  0  0
   -0.5977   11.3761   -4.3202 H   0  0  0  0  0  0  0  0  0  0  0  0
    2.5644   11.8458   -1.6338 H   0  0  0  0  0  0  0  0  0  0  0  0
    2.5805   10.9101   -3.1671 H   0  0  0  0  0  0  0  0  0  0  0  0
    3.0556   12.6424   -3.1671 H   0  0  0  0  0  0  0  0  0  0  0  0
   -0.2695   13.7471   -3.9468 H   0  0  0  0  0  0  0  0  0  0  0  0
    1.5291   12.7683   -5.5105 H   0  0  0  0  0  0  0  0  0  0  0  0
    1.0058   14.5281   -5.6451 H   0  0  0  0  0  0  0  0  0  0  0  0
    3.5901   14.0590   -5.8615 H   0  0  0  0  0  0  0  0  0  0  0  0
    3.0094   14.4850   -1.8906 H   0  0  0  0  0  0  0  0  0  0  0  0
    2.6774   17.3330   -3.0204 H   0  0  0  0  0  0  0  0  0  0  0  0
    2.5278   16.8244   -1.2800 H   0  0  0  0  0  0  0  0  0  0  0  0
    4.6979   17.9155   -1.7535 H   0  0  0  0  0  0  0  0  0  0  0  0
    4.8722   16.1944   -1.2307 H   0  0  0  0  0  0  0  0  0  0  0  0
    6.3780   16.6022   -3.0533 H   0  0  0  0  0  0  0  0  0  0  0  0
    5.6640   18.1850   -4.3210 H   0  0  0  0  0  0  0  0  0  0  0  0
    5.5115   14.3729   -1.8483 H   0  0  0  0  0  0  0  0  0  0  0  0
    5.2536   13.0874   -3.0762 H   0  0  0  0  0  0  0  0  0  0  0  0
    6.7787   14.0365   -3.0762 H   0  0  0  0  0  0  0  0  0  0  0  0
    6.8524   14.7759   -5.0219 H   0  0  0  0  0  0  0  0  0  0  0  0
    5.3475   14.1457   -5.7736 H   0  0  0  0  0  0  0  0  0  0  0  0
    5.6804   15.9109   -5.7736 H   0  0  0  0  0  0  0  0  0  0  0  0
    0.0544   16.8180   -2.6273 H   0  0  0  0  0  0  0  0  0  0  0  0
    1.1507   16.7113   -4.0463 H   0  0  0  0  0  0  0  0  0  0  0  0
   -0.4079   15.8183   -4.0463 H   0  0  0  0  0  0  0  0  0  0  0  0
    1.1150   15.4326   -0.6677 H   0  0  0  0  0  0  0  0  0  0  0  0
   -0.5232   15.0280   -1.4344 H   0  0  0  0  0  0  0  0  0  0  0  0
    1.5983   13.0882   -0.4756 H   0  0  0  0  0  0  0  0  0  0  0  0
   -0.0609   13.3636    0.1863 H   0  0  0  0  0  0  0  0  0  0  0  0
   -2.0300   12.8282   -1.0090 H   0  0  0  0  0  0  0  0  0  0  0  0
   -1.5562   13.6363   -2.5416 H   0  0  0  0  0  0  0  0  0  0  0  0
   -1.9869   11.8924   -2.5416 H   0  0  0  0  0  0  0  0  0  0  0  0
  1  2  1  0
  2  3  1  0
  3  4  1  0
  4  5  1  0
  5  6  1  0
  6  7  1  0
  7  8  1  0
  7  9  1  0
  2 10  1  0
 10 11  1  0
 11 12  1  0
 12 13  1  0
 13 14  1  1
 13 15  1  0
 15 16  1  0
 16 17  1  0
 17 18  2  0
 18 19  1  0
 19 20  1  0
 20 21  1  0
 21 22  1  0
 22 23  1  0
 22 24  1  0
 24 25  1  0
 24 26  1  0
 19 27  1  0
 27 28  1  6
 27 29  1  0
 29 30  1  0
 30 31  1  0
 31 32  1  6
  7  5  1  0
 31 10  1  0
 31 13  1  0
 27 15  1  0
 24 18  1  0
  1 33  1  0
  1 34  1  0
  1 35  1  0
  2 36  1  1
  3 37  1  0
  3 38  1  0
  4 39  1  0
  4 40  1  0
  5 41  1  1
  8 42  1  0
  8 43  1  0
  8 44  1  0
  9 45  1  0
  9 46  1  0
  9 47  1  0
 10 48  1  1
 11 49  1  0
 11 50  1  0
 12 51  1  0
 12 52  1  0
 14 53  1  0
 14 54  1  0
 14 55  1  0
 15 56  1  6
 16 57  1  0
 16 58  1  0
 17 59  1  0
 19 60  1  1
 20 61  1  0
 20 62  1  0
 21 63  1  0
 21 64  1  0
 22 65  1  1
 23 66  1  0
 25 67  1  0
 25 68  1  0
 25 69  1  0
 26 70  1  0
 26 71  1  0
 26 72  1  0
 28 73  1  0
 28 74  1  0
 28 75  1  0
 29 76  1  0
 29 77  1  0
 30 78  1  0
 30 79  1  0
 32 80  1  0
 32 81  1  0
 32 82  1  0
M  END
>  <meeko>  (9) 
{"is_sidechain": [false], "intermolecular_energy": 2.731, "internal_energy": -0.839}

$$$$
EPH_relaxed_0001_pdb2pqr_Repair_319_r2_0001_out
     RDKit          3D

 82 86  0  0  0  0  0  0  0  0999 V2000
    4.9370   16.8470   -3.3940 C   0  0  0  0  0  0  0  0  0  0  0  0
    3.6930   16.4130   -4.1760 C   0  0  2  0  0  0  0  0  0  0  0  0
    2.4500   17.2420   -3.7960 C   0  0  0  0  0  0  0  0  0  0  0  0
    2.7230   18.3090   -2.7320 C   0  0  0  0  0  0  0  0  0  0  0  0
    1.4960   18.6170   -1.9290 C   0  0  2  0  0  0  0  0  0  0  0  0
    1.5280   19.8780   -1.2480 O   0  0  0  0  0  0  0  0  0  0  0  0
    1.4880   18.7080   -0.4140 C   0  0  0  0  0  0  0  0  0  0  0  0
    2.7330   18.4900    0.3870 C   0  0  0  0  0  0  0  0  0  0  0  0
    0.1900   18.5260    0.3070 C   0  0  0  0  0  0  0  0  0  0  0  0
    3.4230   14.9310   -3.9430 C   0  0  1  0  0  0  0  0  0  0  0  0
    4.7070   14.0660   -4.0500 C   0  0  0  0  0  0  0  0  0  0  0  0
    4.5620   12.9200   -3.0160 C   0  0  0  0  0  0  0  0  0  0  0  0
    3.0760   12.9670   -2.5890 C   0  0  1  0  0  0  0  0  0  0  0  0
    2.3090   12.2130   -3.7200 C   0  0  0  0  0  0  0  0  0  0  0  0
    2.7440   12.3820   -1.1770 C   0  0  2  0  0  0  0  0  0  0  0  0
    3.0460   10.8830   -1.0050 C   0  0  0  0  0  0  0  0  0  0  0  0
    1.9200    9.9630   -1.3410 C   0  0  0  0  0  0  0  0  0  0  0  0
    0.6320   10.3240   -1.4910 C   0  0  0  0  0  0  0  0  0  0  0  0
    0.1830   11.7660   -1.2220 C   0  0  1  0  0  0  0  0  0  0  0  0
   -1.1030   11.7540   -0.3540 C   0  0  0  0  0  0  0  0  0  0  0  0
   -2.2120   10.9010   -0.9630 C   0  0  0  0  0  0  0  0  0  0  0  0
   -1.7460    9.4610   -1.1610 C   0  0  2  0  0  0  0  0  0  0  0  0
   -1.5310    8.8660    0.1220 O   0  0  0  0  0  0  0  0  0  0  0  0
   -0.4510    9.3480   -2.0130 C   0  0  0  0  0  0  0  0  0  0  0  0
   -0.7630    9.7120   -3.4860 C   0  0  0  0  0  0  0  0  0  0  0  0
   -0.0110    7.8590   -2.0170 C   0  0  0  0  0  0  0  0  0  0  0  0
    1.2970   12.7440   -0.6490 C   0  0  1  0  0  0  0  0  0  0  0  0
    1.3510   12.6370    0.9060 C   0  0  0  0  0  0  0  0  0  0  0  0
    0.8950   14.2300   -0.9780 C   0  0  0  0  0  0  0  0  0  0  0  0
    1.3540   14.7900   -2.3380 C   0  0  0  0  0  0  0  0  0  0  0  0
    2.8450   14.5220   -2.5660 C   0  0  2  0  0  0  0  0  0  0  0  0
    3.6430   15.2870   -1.4550 C   0  0  0  0  0  0  0  0  0  0  0  0
    4.7349   16.7765   -2.3150 H   0  0  0  0  0  0  0  0  0  0  0  0
    5.7805   16.1900   -3.6528 H   0  0  0  0  0  0  0  0  0  0  0  0
    5.1888   17.8861   -3.6528 H   0  0  0  0  0  0  0  0  0  0  0  0
    3.8941   16.5904   -5.2428 H   0  0  0  0  0  0  0  0  0  0  0  0
    2.0762   17.7423   -4.7015 H   0  0  0  0  0  0  0  0  0  0  0  0
    1.7158   16.5430   -3.3691 H   0  0  0  0  0  0  0  0  0  0  0  0
    3.5099   17.9445   -2.0552 H   0  0  0  0  0  0  0  0  0  0  0  0
    3.0387   19.2304   -3.2432 H   0  0  0  0  0  0  0  0  0  0  0  0
    0.8639   18.0619   -2.6378 H   0  0  0  0  0  0  0  0  0  0  0  0
    2.4912   18.5323    1.4593 H   0  0  0  0  0  0  0  0  0  0  0  0
    3.1566   17.5040    0.1453 H   0  0  0  0  0  0  0  0  0  0  0  0
    3.4664   19.2734    0.1453 H   0  0  0  0  0  0  0  0  0  0  0  0
    0.3669   18.5508    1.3924 H   0  0  0  0  0  0  0  0  0  0  0  0
   -0.5004   19.3361    0.0294 H   0  0  0  0  0  0  0  0  0  0  0  0
   -0.2509   17.5572    0.0294 H   0  0  0  0  0  0  0  0  0  0  0  0
    2.6772   14.7529   -4.7317 H   0  0  0  0  0  0  0  0  0  0  0  0
    4.8008   13.6512   -5.0645 H   0  0  0  0  0  0  0  0  0  0  0  0
    5.6060   14.6673   -3.8495 H   0  0  0  0  0  0  0  0  0  0  0  0
    4.8039   11.9499   -3.4747 H   0  0  0  0  0  0  0  0  0  0  0  0
    5.2457   13.0386   -2.1625 H   0  0  0  0  0  0  0  0  0  0  0  0
    1.5929   11.5090   -3.2710 H   0  0  0  0  0  0  0  0  0  0  0  0
    1.7671   12.9398   -4.3430 H   0  0  0  0  0  0  0  0  0  0  0  0
    3.0264   11.6588   -4.3430 H   0  0  0  0  0  0  0  0  0  0  0  0
    3.4607   12.9080   -0.5292 H   0  0  0  0  0  0  0  0  0  0  0  0
    3.8965   10.6309   -1.6554 H   0  0  0  0  0  0  0  0  0  0  0  0
    3.2508   10.7348    0.0656 H   0  0  0  0  0  0  0  0  0  0  0  0
    2.1634    8.8990   -1.4778 H   0  0  0  0  0  0  0  0  0  0  0  0
   -0.0349   12.2055   -2.2066 H   0  0  0  0  0  0  0  0  0  0  0  0
   -0.8542   11.3522    0.6393 H   0  0  0  0  0  0  0  0  0  0  0  0
   -1.4732   12.7879   -0.2914 H   0  0  0  0  0  0  0  0  0  0  0  0
   -3.0824   10.9085   -0.2905 H   0  0  0  0  0  0  0  0  0  0  0  0
   -2.4800   11.3213   -1.9435 H   0  0  0  0  0  0  0  0  0  0  0  0
   -2.5343    8.9324   -1.7171 H   0  0  0  0  0  0  0  0  0  0  0  0
   -2.3690    8.4610    0.4030 H   0  0  0  0  0  0  0  0  0  0  0  0
   -1.4786   10.5469   -3.5137 H   0  0  0  0  0  0  0  0  0  0  0  0
    0.1660   10.0083   -3.9952 H   0  0  0  0  0  0  0  0  0  0  0  0
   -1.1979    8.8393   -3.9952 H   0  0  0  0  0  0  0  0  0  0  0  0
    0.0937    7.5048   -0.9809 H   0  0  0  0  0  0  0  0  0  0  0  0
   -0.7688    7.2541   -2.5365 H   0  0  0  0  0  0  0  0  0  0  0  0
    0.9539    7.7632   -2.5365 H   0  0  0  0  0  0  0  0  0  0  0  0
    0.8978   13.5350    1.3513 H   0  0  0  0  0  0  0  0  0  0  0  0
    0.7948   11.7456    1.2317 H   0  0  0  0  0  0  0  0  0  0  0  0
    2.3985   12.5549    1.2317 H   0  0  0  0  0  0  0  0  0  0  0  0
   -0.2028   14.2924   -0.9460 H   0  0  0  0  0  0  0  0  0  0  0  0
    1.4142   14.8415   -0.2254 H   0  0  0  0  0  0  0  0  0  0  0  0
    0.7750   14.3081   -3.1396 H   0  0  0  0  0  0  0  0  0  0  0  0
    1.1881   15.8774   -2.3437 H   0  0  0  0  0  0  0  0  0  0  0  0
    3.2990   14.9572   -0.4636 H   0  0  0  0  0  0  0  0  0  0  0  0
    4.7166   15.0720   -1.5608 H   0  0  0  0  0  0  0  0  0  0  0  0
    3.4735   16.3687   -1.5608 H   0  0  0  0  0  0  0  0  0  0  0  0
  1  2  1  0
  2  3  1  0
  3  4  1  0
  4  5  1  0
  5  6  1  0
  6  7  1  0
  7  8  1  0
  7  9  1  0
  2 10  1  0
 10 11  1  0
 11 12  1  0
 12 13  1  0
 13 14  1  6
 13 15  1  0
 15 16  1  0
 16 17  1  0
 17 18  2  0
 18 19  1  0
 19 20  1  0
 20 21  1  0
 21 22  1  0
 22 23  1  0
 22 24  1  0
 24 25  1  0
 24 26  1  0
 19 27  1  0
 27 28  1  1
 27 29  1  0
 29 30  1  0
 30 31  1  0
 31 32  1  1
  7  5  1  0
 31 10  1  0
 31 13  1  0
 27 15  1  0
 24 18  1  0
  1 33  1  0
  1 34  1  0
  1 35  1  0
  2 36  1  6
  3 37  1  0
  3 38  1  0
  4 39  1  0
  4 40  1  0
  5 41  1  6
  8 42  1  0
  8 43  1  0
  8 44  1  0
  9 45  1  0
  9 46  1  0
  9 47  1  0
 10 48  1  6
 11 49  1  0
 11 50  1  0
 12 51  1  0
 12 52  1  0
 14 53  1  0
 14 54  1  0
 14 55  1  0
 15 56  1  1
 16 57  1  0
 16 58  1  0
 17 59  1  0
 19 60  1  6
 20 61  1  0
 20 62  1  0
 21 63  1  0
 21 64  1  0
 22 65  1  6
 23 66  1  0
 25 67  1  0
 25 68  1  0
 25 69  1  0
 26 70  1  0
 26 71  1  0
 26 72  1  0
 28 73  1  0
 28 74  1  0
 28 75  1  0
 29 76  1  0
 29 77  1  0
 30 78  1  0
 30 79  1  0
 32 80  1  0
 32 81  1  0
 32 82  1  0
M  END
>  <meeko>  (10) 
{"is_sidechain": [false], "intermolecular_energy": 2.731, "internal_energy": -0.839}

$$$$
EPH_relaxed_0001_pdb2pqr_Repair_319_r2_0001_out
     RDKit          3D

 82 86  0  0  0  0  0  0  0  0999 V2000
   -0.8290    7.9840   -1.0880 C   0  0  0  0  0  0  0  0  0  0  0  0
   -1.4440    9.2080   -0.4030 C   0  0  2  0  0  0  0  0  0  0  0  0
   -2.9660    9.0570   -0.2020 C   0  0  0  0  0  0  0  0  0  0  0  0
   -3.6300    8.1180   -1.2130 C   0  0  0  0  0  0  0  0  0  0  0  0
   -5.1150    8.0610   -1.0230 C   0  0  2  0  0  0  0  0  0  0  0  0
   -5.6180    6.7830   -0.6110 O   0  0  0  0  0  0  0  0  0  0  0  0
   -6.0400    7.2430   -1.9050 C   0  0  0  0  0  0  0  0  0  0  0  0
   -5.5130    6.4260   -3.0430 C   0  0  0  0  0  0  0  0  0  0  0  0
   -7.4880    7.6200   -1.9670 C   0  0  0  0  0  0  0  0  0  0  0  0
   -1.1470   10.4630   -1.2150 C   0  0  1  0  0  0  0  0  0  0  0  0
   -2.3250   11.4740   -1.2050 C   0  0  0  0  0  0  0  0  0  0  0  0
   -1.6970   12.8910   -1.2200 C   0  0  0  0  0  0  0  0  0  0  0  0
   -0.2100   12.6550   -1.5730 C   0  0  1  0  0  0  0  0  0  0  0  0
   -0.1870   12.4910   -3.1250 C   0  0  0  0  0  0  0  0  0  0  0  0
    0.7960   13.7520   -1.0940 C   0  0  2  0  0  0  0  0  0  0  0  0
    0.5750   15.1500   -1.6990 C   0  0  0  0  0  0  0  0  0  0  0  0
    1.3170   15.4210   -2.9650 C   0  0  0  0  0  0  0  0  0  0  0  0
    2.3430   14.6920   -3.4420 C   0  0  0  0  0  0  0  0  0  0  0  0
    2.9210   13.5220   -2.6340 C   0  0  1  0  0  0  0  0  0  0  0  0
    4.4690   13.6120   -2.6290 C   0  0  0  0  0  0  0  0  0  0  0  0
    5.0560   13.6960   -4.0350 C   0  0  0  0  0  0  0  0  0  0  0  0
    4.5020   14.9040   -4.7850 C   0  0  2  0  0  0  0  0  0  0  0  0
    4.9760   16.0970   -4.1530 O   0  0  0  0  0  0  0  0  0  0  0  0
    2.9490   14.9270   -4.8480 C   0  0  0  0  0  0  0  0  0  0  0  0
    2.4480   13.8020   -5.7870 C   0  0  0  0  0  0  0  0  0  0  0  0
    2.5180   16.2660   -5.5060 C   0  0  0  0  0  0  0  0  0  0  0  0
    2.3160   13.3200   -1.1790 C   0  0  1  0  0  0  0  0  0  0  0  0
    3.0890   14.2040   -0.1530 C   0  0  0  0  0  0  0  0  0  0  0  0
    2.5380   11.8260   -0.7330 C   0  0  0  0  0  0  0  0  0  0  0  0
    1.4500   10.8120   -1.1340 C   0  0  0  0  0  0  0  0  0  0  0  0
    0.0560   11.3300   -0.7690 C   0  0  2  0  0  0  0  0  0  0  0  0
   -0.0050   11.4850    0.7880 C   0  0  0  0  0  0  0  0  0  0  0  0
   -0.4735    7.2765   -0.3244 H   0  0  0  0  0  0  0  0  0  0  0  0
   -1.5884    7.4950   -1.7158 H   0  0  0  0  0  0  0  0  0  0  0  0
    0.0166    8.3014   -1.7158 H   0  0  0  0  0  0  0  0  0  0  0  0
   -0.9864    9.2943    0.5936 H   0  0  0  0  0  0  0  0  0  0  0  0
   -3.1453    8.6619    0.8088 H   0  0  0  0  0  0  0  0  0  0  0  0
   -3.4100   10.0527   -0.3482 H   0  0  0  0  0  0  0  0  0  0  0  0
   -3.4141    8.4784   -2.2296 H   0  0  0  0  0  0  0  0  0  0  0  0
   -3.2253    7.1068   -1.0594 H   0  0  0  0  0  0  0  0  0  0  0  0
   -5.1383    9.1137   -0.7049 H   0  0  0  0  0  0  0  0  0  0  0  0
   -4.9565    5.5632   -2.6481 H   0  0  0  0  0  0  0  0  0  0  0  0
   -6.3524    6.0703   -3.6586 H   0  0  0  0  0  0  0  0  0  0  0  0
   -4.8429    7.0440   -3.6586 H   0  0  0  0  0  0  0  0  0  0  0  0
   -7.8841    7.7231   -0.9460 H   0  0  0  0  0  0  0  0  0  0  0  0
   -7.5955    8.5761   -2.5003 H   0  0  0  0  0  0  0  0  0  0  0  0
   -8.0481    6.8377   -2.5003 H   0  0  0  0  0  0  0  0  0  0  0  0
   -0.9380   10.0047   -2.1929 H   0  0  0  0  0  0  0  0  0  0  0  0
   -2.9559   11.3296   -2.0945 H   0  0  0  0  0  0  0  0  0  0  0  0
   -2.9600   11.3324   -0.3181 H   0  0  0  0  0  0  0  0  0  0  0  0
   -2.1810   13.5222   -1.9798 H   0  0  0  0  0  0  0  0  0  0  0  0
   -1.8200   13.4120   -0.2590 H   0  0  0  0  0  0  0  0  0  0  0  0
   -0.0384   11.4312   -3.3796 H   0  0  0  0  0  0  0  0  0  0  0  0
   -1.1426   12.8384   -3.5446 H   0  0  0  0  0  0  0  0  0  0  0  0
    0.6362   13.0878   -3.5446 H   0  0  0  0  0  0  0  0  0  0  0  0
    0.5499   13.8461   -0.0260 H   0  0  0  0  0  0  0  0  0  0  0  0
   -0.4996   15.2660   -1.9033 H   0  0  0  0  0  0  0  0  0  0  0  0
    0.9626   15.8664   -0.9597 H   0  0  0  0  0  0  0  0  0  0  0  0
    0.9984   16.2904   -3.5588 H   0  0  0  0  0  0  0  0  0  0  0  0
    2.6026   12.6059   -3.1530 H   0  0  0  0  0  0  0  0  0  0  0  0
    4.7680   14.5098   -2.0681 H   0  0  0  0  0  0  0  0  0  0  0  0
    4.8548   12.6943   -2.1610 H   0  0  0  0  0  0  0  0  0  0  0  0
    6.1499   13.7869   -3.9637 H   0  0  0  0  0  0  0  0  0  0  0  0
    4.7814   12.7842   -4.5856 H   0  0  0  0  0  0  0  0  0  0  0  0
    4.8568   14.8377   -5.8241 H   0  0  0  0  0  0  0  0  0  0  0  0
    4.9460   15.9520   -3.1920 H   0  0  0  0  0  0  0  0  0  0  0  0
    2.0736   12.9612   -5.1846 H   0  0  0  0  0  0  0  0  0  0  0  0
    1.6368   14.1882   -6.4217 H   0  0  0  0  0  0  0  0  0  0  0  0
    3.2778   13.4575   -6.4217 H   0  0  0  0  0  0  0  0  0  0  0  0
    2.2816   17.0004   -4.7220 H   0  0  0  0  0  0  0  0  0  0  0  0
    3.3385   16.6482   -6.1311 H   0  0  0  0  0  0  0  0  0  0  0  0
    1.6286   16.0978   -6.1311 H   0  0  0  0  0  0  0  0  0  0  0  0
    2.8216   13.8982    0.8692 H   0  0  0  0  0  0  0  0  0  0  0  0
    4.1715   14.0775   -0.3022 H   0  0  0  0  0  0  0  0  0  0  0  0
    2.8192   15.2599   -0.3022 H   0  0  0  0  0  0  0  0  0  0  0  0
    3.4878   11.4856   -1.1713 H   0  0  0  0  0  0  0  0  0  0  0  0
    2.5192   11.8483    0.3666 H   0  0  0  0  0  0  0  0  0  0  0  0
    1.4981   10.6433   -2.2199 H   0  0  0  0  0  0  0  0  0  0  0  0
    1.6285    9.8728   -0.5899 H   0  0  0  0  0  0  0  0  0  0  0  0
    0.3584   10.5617    1.2629 H   0  0  0  0  0  0  0  0  0  0  0  0
    0.6276   12.3300    1.0974 H   0  0  0  0  0  0  0  0  0  0  0  0
   -1.0439   11.6722    1.0974 H   0  0  0  0  0  0  0  0  0  0  0  0
  1  2  1  0
  2  3  1  0
  3  4  1  0
  4  5  1  0
  5  6  1  0
  6  7  1  0
  7  8  1  0
  7  9  1  0
  2 10  1  0
 10 11  1  0
 11 12  1  0
 12 13  1  0
 13 14  1  6
 13 15  1  0
 15 16  1  0
 16 17  1  0
 17 18  2  0
 18 19  1  0
 19 20  1  0
 20 21  1  0
 21 22  1  0
 22 23  1  0
 22 24  1  0
 24 25  1  0
 24 26  1  0
 19 27  1  0
 27 28  1  1
 27 29  1  0
 29 30  1  0
 30 31  1  0
 31 32  1  1
  7  5  1  0
 31 10  1  0
 31 13  1  0
 27 15  1  0
 24 18  1  0
  1 33  1  0
  1 34  1  0
  1 35  1  0
  2 36  1  1
  3 37  1  0
  3 38  1  0
  4 39  1  0
  4 40  1  0
  5 41  1  1
  8 42  1  0
  8 43  1  0
  8 44  1  0
  9 45  1  0
  9 46  1  0
  9 47  1  0
 10 48  1  6
 11 49  1  0
 11 50  1  0
 12 51  1  0
 12 52  1  0
 14 53  1  0
 14 54  1  0
 14 55  1  0
 15 56  1  1
 16 57  1  0
 16 58  1  0
 17 59  1  0
 19 60  1  6
 20 61  1  0
 20 62  1  0
 21 63  1  0
 21 64  1  0
 22 65  1  6
 23 66  1  0
 25 67  1  0
 25 68  1  0
 25 69  1  0
 26 70  1  0
 26 71  1  0
 26 72  1  0
 28 73  1  0
 28 74  1  0
 28 75  1  0
 29 76  1  0
 29 77  1  0
 30 78  1  0
 30 79  1  0
 32 80  1  0
 32 81  1  0
 32 82  1  0
M  END
>  <meeko>  (11) 
{"is_sidechain": [false], "intermolecular_energy": 2.731, "internal_energy": -0.839}

$$$$
EPH_relaxed_0001_pdb2pqr_Repair_319_r2_0001_out
     RDKit          3D

 82 86  0  0  0  0  0  0  0  0999 V2000
    3.8460   17.9120    0.1940 C   0  0  0  0  0  0  0  0  0  0  0  0
    3.5770   17.0710   -1.0580 C   0  0  2  0  0  0  0  0  0  0  0  0
    3.3280   17.9460   -2.3030 C   0  0  0  0  0  0  0  0  0  0  0  0
    4.3420   17.7190   -3.4280 C   0  0  0  0  0  0  0  0  0  0  0  0
    5.3540   16.6760   -3.0590 C   0  0  2  0  0  0  0  0  0  0  0  0
    6.3870   16.4750   -4.0330 O   0  0  0  0  0  0  0  0  0  0  0  0
    5.5080   15.3610   -3.8010 C   0  0  0  0  0  0  0  0  0  0  0  0
    4.6390   15.0180   -4.9700 C   0  0  0  0  0  0  0  0  0  0  0  0
    6.1620   14.2150   -3.0950 C   0  0  0  0  0  0  0  0  0  0  0  0
    2.3850   16.1520   -0.8210 C   0  0  1  0  0  0  0  0  0  0  0  0
    1.0340   16.9160   -0.8120 C   0  0  0  0  0  0  0  0  0  0  0  0
   -0.0200   15.9680   -1.4410 C   0  0  0  0  0  0  0  0  0  0  0  0
    0.6750   14.5870   -1.4840 C   0  0  1  0  0  0  0  0  0  0  0  0
    0.5150   14.0120   -0.0420 C   0  0  0  0  0  0  0  0  0  0  0  0
    0.1530   13.5850   -2.5660 C   0  0  2  0  0  0  0  0  0  0  0  0
   -1.3180   13.1630   -2.4090 C   0  0  0  0  0  0  0  0  0  0  0  0
   -1.5470   11.9460   -1.5760 C   0  0  0  0  0  0  0  0  0  0  0  0
   -0.6030   11.0580   -1.2130 C   0  0  0  0  0  0  0  0  0  0  0  0
    0.8360   11.1820   -1.7300 C   0  0  1  0  0  0  0  0  0  0  0  0
    1.3320    9.7960   -2.2190 C   0  0  0  0  0  0  0  0  0  0  0  0
    1.1860    8.7130   -1.1540 C   0  0  0  0  0  0  0  0  0  0  0  0
   -0.2680    8.5800   -0.7070 C   0  0  2  0  0  0  0  0  0  0  0  0
   -1.0420    8.0800   -1.8020 O   0  0  0  0  0  0  0  0  0  0  0  0
   -0.8790    9.9170   -0.2030 C   0  0  0  0  0  0  0  0  0  0  0  0
   -0.2380   10.3030    1.1530 C   0  0  0  0  0  0  0  0  0  0  0  0
   -2.3860    9.6760    0.0820 C   0  0  0  0  0  0  0  0  0  0  0  0
    1.0930   12.3330   -2.7960 C   0  0  1  0  0  0  0  0  0  0  0  0
    0.7880   11.8060   -4.2320 C   0  0  0  0  0  0  0  0  0  0  0  0
    2.6190   12.7180   -2.7780 C   0  0  0  0  0  0  0  0  0  0  0  0
    3.0510   13.8000   -1.7700 C   0  0  0  0  0  0  0  0  0  0  0  0
    2.1380   15.0260   -1.8560 C   0  0  2  0  0  0  0  0  0  0  0  0
    2.2940   15.6390   -3.2890 C   0  0  0  0  0  0  0  0  0  0  0  0
    3.6522   17.3060    1.0914 H   0  0  0  0  0  0  0  0  0  0  0  0
    4.8949   18.2433    0.1948 H   0  0  0  0  0  0  0  0  0  0  0  0
    3.1840   18.7905    0.1948 H   0  0  0  0  0  0  0  0  0  0  0  0
    4.4773   16.4695   -1.2518 H   0  0  0  0  0  0  0  0  0  0  0  0
    2.3234   17.7209   -2.6904 H   0  0  0  0  0  0  0  0  0  0  0  0
    3.4301   18.9940   -1.9849 H   0  0  0  0  0  0  0  0  0  0  0  0
    3.8056   17.3919   -4.3309 H   0  0  0  0  0  0  0  0  0  0  0  0
    4.8737   18.6652   -3.6070 H   0  0  0  0  0  0  0  0  0  0  0  0
    5.2430   16.9110   -1.9902 H   0  0  0  0  0  0  0  0  0  0  0  0
    3.6725   14.6365   -4.6090 H   0  0  0  0  0  0  0  0  0  0  0  0
    4.4731   15.9181   -5.5802 H   0  0  0  0  0  0  0  0  0  0  0  0
    5.1326   14.2473   -5.5802 H   0  0  0  0  0  0  0  0  0  0  0  0
    6.0797   14.3592   -2.0076 H   0  0  0  0  0  0  0  0  0  0  0  0
    5.6634   13.2766   -3.3792 H   0  0  0  0  0  0  0  0  0  0  0  0
    7.2236   14.1669   -3.3792 H   0  0  0  0  0  0  0  0  0  0  0  0
    2.6776   15.7163    0.1457 H   0  0  0  0  0  0  0  0  0  0  0  0
    0.7485   17.1686    0.2198 H   0  0  0  0  0  0  0  0  0  0  0  0
    1.1079   17.8560   -1.3785 H   0  0  0  0  0  0  0  0  0  0  0  0
   -0.9264   15.9275   -0.8191 H   0  0  0  0  0  0  0  0  0  0  0  0
   -0.3422   16.3044   -2.4375 H   0  0  0  0  0  0  0  0  0  0  0  0
    0.7343   14.8001    0.6934 H   0  0  0  0  0  0  0  0  0  0  0  0
   -0.5163   13.6561    0.0985 H   0  0  0  0  0  0  0  0  0  0  0  0
    1.2142   13.1745    0.0985 H   0  0  0  0  0  0  0  0  0  0  0  0
    0.1934   14.1876   -3.4854 H   0  0  0  0  0  0  0  0  0  0  0  0
   -1.8638   13.9988   -1.9469 H   0  0  0  0  0  0  0  0  0  0  0  0
   -1.6716   12.9108   -3.4196 H   0  0  0  0  0  0  0  0  0  0  0  0
   -2.5741   11.7590   -1.2294 H   0  0  0  0  0  0  0  0  0  0  0  0
    1.4397   11.5130   -0.8721 H   0  0  0  0  0  0  0  0  0  0  0  0
    0.7455    9.5032   -3.1024 H   0  0  0  0  0  0  0  0  0  0  0  0
    2.4021    9.8890   -2.4561 H   0  0  0  0  0  0  0  0  0  0  0  0
    1.5244    7.7521   -1.5689 H   0  0  0  0  0  0  0  0  0  0  0  0
    1.7970    8.9923   -0.2830 H   0  0  0  0  0  0  0  0  0  0  0  0
   -0.2892    7.8850    0.1454 H   0  0  0  0  0  0  0  0  0  0  0  0
   -0.8040    7.1450   -1.9270 H   0  0  0  0  0  0  0  0  0  0  0  0
   -0.8641    9.9260    1.9751 H   0  0  0  0  0  0  0  0  0  0  0  0
    0.7660    9.8592    1.2235 H   0  0  0  0  0  0  0  0  0  0  0  0
   -0.1606   11.3980    1.2235 H   0  0  0  0  0  0  0  0  0  0  0  0
   -2.5539    9.6491    1.1688 H   0  0  0  0  0  0  0  0  0  0  0  0
   -2.9777   10.4909   -0.3604 H   0  0  0  0  0  0  0  0  0  0  0  0
   -2.6941    8.7172   -0.3604 H   0  0  0  0  0  0  0  0  0  0  0  0
    0.2380   10.8557   -4.1647 H   0  0  0  0  0  0  0  0  0  0  0  0
    0.1781   12.5452   -4.7720 H   0  0  0  0  0  0  0  0  0  0  0  0
    1.7328   11.6454   -4.7720 H   0  0  0  0  0  0  0  0  0  0  0  0
    3.1897   11.8053   -2.5514 H   0  0  0  0  0  0  0  0  0  0  0  0
    2.8178   13.1522   -3.7689 H   0  0  0  0  0  0  0  0  0  0  0  0
    3.0005   13.3846   -0.7527 H   0  0  0  0  0  0  0  0  0  0  0  0
    4.0787   14.1110   -2.0088 H   0  0  0  0  0  0  0  0  0  0  0  0
    2.5645   16.7020   -3.2056 H   0  0  0  0  0  0  0  0  0  0  0  0
    3.0839   15.1013   -3.8338 H   0  0  0  0  0  0  0  0  0  0  0  0
    1.3431   15.5443   -3.8338 H   0  0  0  0  0  0  0  0  0  0  0  0
  1  2  1  0
  2  3  1  0
  3  4  1  0
  4  5  1  0
  5  6  1  0
  6  7  1  0
  7  8  1  0
  7  9  1  0
  2 10  1  0
 10 11  1  0
 11 12  1  0
 12 13  1  0
 13 14  1  1
 13 15  1  0
 15 16  1  0
 16 17  1  0
 17 18  2  0
 18 19  1  0
 19 20  1  0
 20 21  1  0
 21 22  1  0
 22 23  1  0
 22 24  1  0
 24 25  1  0
 24 26  1  0
 19 27  1  0
 27 28  1  6
 27 29  1  0
 29 30  1  0
 30 31  1  0
 31 32  1  6
  7  5  1  0
 31 10  1  0
 31 13  1  0
 27 15  1  0
 24 18  1  0
  1 33  1  0
  1 34  1  0
  1 35  1  0
  2 36  1  6
  3 37  1  0
  3 38  1  0
  4 39  1  0
  4 40  1  0
  5 41  1  1
  8 42  1  0
  8 43  1  0
  8 44  1  0
  9 45  1  0
  9 46  1  0
  9 47  1  0
 10 48  1  1
 11 49  1  0
 11 50  1  0
 12 51  1  0
 12 52  1  0
 14 53  1  0
 14 54  1  0
 14 55  1  0
 15 56  1  6
 16 57  1  0
 16 58  1  0
 17 59  1  0
 19 60  1  1
 20 61  1  0
 20 62  1  0
 21 63  1  0
 21 64  1  0
 22 65  1  1
 23 66  1  0
 25 67  1  0
 25 68  1  0
 25 69  1  0
 26 70  1  0
 26 71  1  0
 26 72  1  0
 28 73  1  0
 28 74  1  0
 28 75  1  0
 29 76  1  0
 29 77  1  0
 30 78  1  0
 30 79  1  0
 32 80  1  0
 32 81  1  0
 32 82  1  0
M  END
>  <meeko>  (12) 
{"is_sidechain": [false], "intermolecular_energy": 2.731, "internal_energy": -0.839}

$$$$
EPH_relaxed_0001_pdb2pqr_Repair_319_r2_0001_out
     RDKit          3D

 82 86  0  0  0  0  0  0  0  0999 V2000
   -0.6630   16.5310   -6.1780 C   0  0  0  0  0  0  0  0  0  0  0  0
    0.6760   15.9240   -6.6070 C   0  0  2  0  0  0  0  0  0  0  0  0
    0.7180   15.6220   -8.1190 C   0  0  0  0  0  0  0  0  0  0  0  0
    1.6330   16.5620   -8.9090 C   0  0  0  0  0  0  0  0  0  0  0  0
    1.5490   16.3080  -10.3830 C   0  0  2  0  0  0  0  0  0  0  0  0
    0.9840   15.0400  -10.7410 O   0  0  0  0  0  0  0  0  0  0  0  0
    2.3610   15.2430  -11.0970 C   0  0  0  0  0  0  0  0  0  0  0  0
    3.3180   14.3640  -10.3550 C   0  0  0  0  0  0  0  0  0  0  0  0
    2.5880   15.3840  -12.5700 C   0  0  0  0  0  0  0  0  0  0  0  0
    0.9480   14.6510   -5.8140 C   0  0  1  0  0  0  0  0  0  0  0  0
    2.0270   13.7540   -6.4770 C   0  0  0  0  0  0  0  0  0  0  0  0
    2.8230   13.0870   -5.3250 C   0  0  0  0  0  0  0  0  0  0  0  0
    1.9760   13.3560   -4.0590 C   0  0  1  0  0  0  0  0  0  0  0  0
    0.8580   12.2670   -4.0850 C   0  0  0  0  0  0  0  0  0  0  0  0
    2.7480   13.3590   -2.6990 C   0  0  2  0  0  0  0  0  0  0  0  0
    3.4120   12.0220   -2.3240 C   0  0  0  0  0  0  0  0  0  0  0  0
    2.5640   11.0930   -1.5190 C   0  0  0  0  0  0  0  0  0  0  0  0
    1.4320   11.4290   -0.8730 C   0  0  0  0  0  0  0  0  0  0  0  0
    0.9490   12.8840   -0.8340 C   0  0  1  0  0  0  0  0  0  0  0  0
    0.5420   13.2560    0.6160 C   0  0  0  0  0  0  0  0  0  0  0  0
   -0.4790   12.2860    1.2040 C   0  0  0  0  0  0  0  0  0  0  0  0
    0.0600   10.8580    1.2010 C   0  0  2  0  0  0  0  0  0  0  0  0
    1.1600   10.7790    2.1120 O   0  0  0  0  0  0  0  0  0  0  0  0
    0.5120   10.3770   -0.2070 C   0  0  0  0  0  0  0  0  0  0  0  0
   -0.7300   10.1740   -1.1110 C   0  0  0  0  0  0  0  0  0  0  0  0
    1.1640    8.9770   -0.0460 C   0  0  0  0  0  0  0  0  0  0  0  0
    1.9240   13.9560   -1.4870 C   0  0  1  0  0  0  0  0  0  0  0  0
    2.9680   14.4380   -0.4340 C   0  0  0  0  0  0  0  0  0  0  0  0
    1.0900   15.2260   -1.8990 C   0  0  0  0  0  0  0  0  0  0  0  0
    0.4510   15.2130   -3.3010 C   0  0  0  0  0  0  0  0  0  0  0  0
    1.4770   14.8150   -4.3670 C   0  0  2  0  0  0  0  0  0  0  0  0
    2.6020   15.9040   -4.3790 C   0  0  0  0  0  0  0  0  0  0  0  0
   -0.7190   16.5564   -5.0797 H   0  0  0  0  0  0  0  0  0  0  0  0
   -0.7451   17.5543   -6.5731 H   0  0  0  0  0  0  0  0  0  0  0  0
   -1.4867   15.9183   -6.5731 H   0  0  0  0  0  0  0  0  0  0  0  0
    1.4591   16.6672   -6.3963 H   0  0  0  0  0  0  0  0  0  0  0  0
    1.0761   14.5912   -8.2575 H   0  0  0  0  0  0  0  0  0  0  0  0
   -0.3020   15.7671   -8.5044 H   0  0  0  0  0  0  0  0  0  0  0  0
    1.3343   17.6016   -8.7089 H   0  0  0  0  0  0  0  0  0  0  0  0
    2.6696   16.3808   -8.5885 H   0  0  0  0  0  0  0  0  0  0  0  0
    1.4000   17.3795  -10.5825 H   0  0  0  0  0  0  0  0  0  0  0  0
    3.1738   14.4965   -9.2726 H   0  0  0  0  0  0  0  0  0  0  0  0
    3.1343   13.3132  -10.6235 H   0  0  0  0  0  0  0  0  0  0  0  0
    4.3494   14.6361  -10.6235 H   0  0  0  0  0  0  0  0  0  0  0  0
    3.5104   15.9570  -12.7456 H   0  0  0  0  0  0  0  0  0  0  0  0
    2.6841   14.3864  -13.0233 H   0  0  0  0  0  0  0  0  0  0  0  0
    1.7363   15.9123  -13.0233 H   0  0  0  0  0  0  0  0  0  0  0  0
   -0.0650   14.2225   -5.7980 H   0  0  0  0  0  0  0  0  0  0  0  0
    1.5489   12.9853   -7.1019 H   0  0  0  0  0  0  0  0  0  0  0  0
    2.6902   14.3465   -7.1243 H   0  0  0  0  0  0  0  0  0  0  0  0
    2.9273   12.0060   -5.5000 H   0  0  0  0  0  0  0  0  0  0  0  0
    3.8438   13.4872   -5.2369 H   0  0  0  0  0  0  0  0  0  0  0  0
    0.5830   11.9991   -3.0542 H   0  0  0  0  0  0  0  0  0  0  0  0
   -0.0251   12.6606   -4.6096 H   0  0  0  0  0  0  0  0  0  0  0  0
    1.2283   11.3738   -4.6096 H   0  0  0  0  0  0  0  0  0  0  0  0
    3.5740   14.0579   -2.8972 H   0  0  0  0  0  0  0  0  0  0  0  0
    3.6902   11.5074   -3.2556 H   0  0  0  0  0  0  0  0  0  0  0  0
    4.2726   12.2771   -1.6881 H   0  0  0  0  0  0  0  0  0  0  0  0
    2.8923   10.0455   -1.4480 H   0  0  0  0  0  0  0  0  0  0  0  0
    0.0691   12.9296   -1.4925 H   0  0  0  0  0  0  0  0  0  0  0  0
    1.4421   13.2468    1.2483 H   0  0  0  0  0  0  0  0  0  0  0  0
    0.0778   14.2528    0.5873 H   0  0  0  0  0  0  0  0  0  0  0  0
   -0.7038   12.5837    2.2388 H   0  0  0  0  0  0  0  0  0  0  0  0
   -1.3896   12.3187    0.5877 H   0  0  0  0  0  0  0  0  0  0  0  0
   -0.7609   10.1945    1.5108 H   0  0  0  0  0  0  0  0  0  0  0  0
    1.2770    9.8440    2.3520 H   0  0  0  0  0  0  0  0  0  0  0  0
   -1.6210   10.0284   -0.4826 H   0  0  0  0  0  0  0  0  0  0  0  0
   -0.8702   11.0611   -1.7461 H   0  0  0  0  0  0  0  0  0  0  0  0
   -0.5805    9.2884   -1.7461 H   0  0  0  0  0  0  0  0  0  0  0  0
    1.2726    8.7439    1.0235 H   0  0  0  0  0  0  0  0  0  0  0  0
    0.5265    8.2185   -0.5237 H   0  0  0  0  0  0  0  0  0  0  0  0
    2.1548    8.9768   -0.5237 H   0  0  0  0  0  0  0  0  0  0  0  0
    2.5776   14.2578    0.5785 H   0  0  0  0  0  0  0  0  0  0  0  0
    3.9079   13.8827   -0.5688 H   0  0  0  0  0  0  0  0  0  0  0  0
    3.1550   15.5136   -0.5688 H   0  0  0  0  0  0  0  0  0  0  0  0
    0.2793   15.3442   -1.1649 H   0  0  0  0  0  0  0  0  0  0  0  0
    1.8160   16.0521   -1.9213 H   0  0  0  0  0  0  0  0  0  0  0  0
   -0.3782   14.4903   -3.3119 H   0  0  0  0  0  0  0  0  0  0  0  0
    0.0830   16.2244   -3.5284 H   0  0  0  0  0  0  0  0  0  0  0  0
    2.8712   16.1645   -3.3447 H   0  0  0  0  0  0  0  0  0  0  0  0
    3.4873   15.5109   -4.9003 H   0  0  0  0  0  0  0  0  0  0  0  0
    2.2379   16.8016   -4.9003 H   0  0  0  0  0  0  0  0  0  0  0  0
  1  2  1  0
  2  3  1  0
  3  4  1  0
  4  5  1  0
  5  6  1  0
  6  7  1  0
  7  8  1  0
  7  9  1  0
  2 10  1  0
 10 11  1  0
 11 12  1  0
 12 13  1  0
 13 14  1  1
 13 15  1  0
 15 16  1  0
 16 17  1  0
 17 18  2  0
 18 19  1  0
 19 20  1  0
 20 21  1  0
 21 22  1  0
 22 23  1  0
 22 24  1  0
 24 25  1  0
 24 26  1  0
 19 27  1  0
 27 28  1  1
 27 29  1  0
 29 30  1  0
 30 31  1  0
 31 32  1  6
  7  5  1  0
 31 10  1  0
 31 13  1  0
 27 15  1  0
 24 18  1  0
  1 33  1  0
  1 34  1  0
  1 35  1  0
  2 36  1  6
  3 37  1  0
  3 38  1  0
  4 39  1  0
  4 40  1  0
  5 41  1  6
  8 42  1  0
  8 43  1  0
  8 44  1  0
  9 45  1  0
  9 46  1  0
  9 47  1  0
 10 48  1  1
 11 49  1  0
 11 50  1  0
 12 51  1  0
 12 52  1  0
 14 53  1  0
 14 54  1  0
 14 55  1  0
 15 56  1  6
 16 57  1  0
 16 58  1  0
 17 59  1  0
 19 60  1  6
 20 61  1  0
 20 62  1  0
 21 63  1  0
 21 64  1  0
 22 65  1  1
 23 66  1  0
 25 67  1  0
 25 68  1  0
 25 69  1  0
 26 70  1  0
 26 71  1  0
 26 72  1  0
 28 73  1  0
 28 74  1  0
 28 75  1  0
 29 76  1  0
 29 77  1  0
 30 78  1  0
 30 79  1  0
 32 80  1  0
 32 81  1  0
 32 82  1  0
M  END
>  <meeko>  (13) 
{"is_sidechain": [false], "intermolecular_energy": 2.731, "internal_energy": -0.839}

$$$$
EPH_relaxed_0001_pdb2pqr_Repair_319_r2_0001_out
     RDKit          3D

 82 86  0  0  0  0  0  0  0  0999 V2000
    3.4270   10.6570   -4.2750 C   0  0  0  0  0  0  0  0  0  0  0  0
    3.7990   10.9240   -2.8140 C   0  0  2  0  0  0  0  0  0  0  0  0
    2.7320   10.3910   -1.8360 C   0  0  0  0  0  0  0  0  0  0  0  0
    1.5480    9.7110   -2.5280 C   0  0  0  0  0  0  0  0  0  0  0  0
    0.5060    9.2740   -1.5430 C   0  0  2  0  0  0  0  0  0  0  0  0
   -0.7700    8.9650   -2.1190 O   0  0  0  0  0  0  0  0  0  0  0  0
   -0.7340   10.0870   -1.2210 C   0  0  0  0  0  0  0  0  0  0  0  0
   -0.9970   11.4030   -1.8820 C   0  0  0  0  0  0  0  0  0  0  0  0
   -1.4330    9.8410    0.0790 C   0  0  0  0  0  0  0  0  0  0  0  0
    4.0050   12.4190   -2.5950 C   0  0  1  0  0  0  0  0  0  0  0  0
    5.1800   12.9880   -3.4330 C   0  0  0  0  0  0  0  0  0  0  0  0
    4.7790   14.4280   -3.8460 C   0  0  0  0  0  0  0  0  0  0  0  0
    3.5500   14.7580   -2.9670 C   0  0  1  0  0  0  0  0  0  0  0  0
    4.1460   15.1840   -1.5880 C   0  0  0  0  0  0  0  0  0  0  0  0
    2.5670   15.8360   -3.5290 C   0  0  2  0  0  0  0  0  0  0  0  0
    3.1730   17.2380   -3.7150 C   0  0  0  0  0  0  0  0  0  0  0  0
    3.0510   18.1460   -2.5360 C   0  0  0  0  0  0  0  0  0  0  0  0
    2.2340   17.9560   -1.4830 C   0  0  0  0  0  0  0  0  0  0  0  0
    1.2490   16.7810   -1.4530 C   0  0  1  0  0  0  0  0  0  0  0  0
   -0.1450   17.2860   -0.9980 C   0  0  0  0  0  0  0  0  0  0  0  0
   -0.0910   18.0350    0.3300 C   0  0  0  0  0  0  0  0  0  0  0  0
    0.8540   19.2310    0.2430 C   0  0  2  0  0  0  0  0  0  0  0  0
    0.3010   20.1910   -0.6620 O   0  0  0  0  0  0  0  0  0  0  0  0
    2.2880   18.8460   -0.2170 C   0  0  0  0  0  0  0  0  0  0  0  0
    2.9990   18.0500    0.9060 C   0  0  0  0  0  0  0  0  0  0  0  0
    3.1000   20.1570   -0.4000 C   0  0  0  0  0  0  0  0  0  0  0  0
    1.1770   15.9020   -2.7760 C   0  0  1  0  0  0  0  0  0  0  0  0
    0.1580   16.5270   -3.7760 C   0  0  0  0  0  0  0  0  0  0  0  0
    0.6250   14.4730   -2.4140 C   0  0  0  0  0  0  0  0  0  0  0  0
    1.6590   13.4170   -1.9800 C   0  0  0  0  0  0  0  0  0  0  0  0
    2.8310   13.3600   -2.9650 C   0  0  2  0  0  0  0  0  0  0  0  0
    2.2650   12.9120   -4.3550 C   0  0  0  0  0  0  0  0  0  0  0  0
    2.5339   10.0160   -4.3147 H   0  0  0  0  0  0  0  0  0  0  0  0
    3.2162   11.6112   -4.7800 H   0  0  0  0  0  0  0  0  0  0  0  0
    4.2636   10.1519   -4.7800 H   0  0  0  0  0  0  0  0  0  0  0  0
    4.7353   10.3849   -2.6073 H   0  0  0  0  0  0  0  0  0  0  0  0
    3.2090    9.6605   -1.1660 H   0  0  0  0  0  0  0  0  0  0  0  0
    2.3313   11.2595   -1.2928 H   0  0  0  0  0  0  0  0  0  0  0  0
    1.0940   10.4198   -3.2362 H   0  0  0  0  0  0  0  0  0  0  0  0
    1.9226    8.8179   -3.0495 H   0  0  0  0  0  0  0  0  0  0  0  0
    1.2714    8.8113   -0.9027 H   0  0  0  0  0  0  0  0  0  0  0  0
   -1.1513   12.1749   -1.1136 H   0  0  0  0  0  0  0  0  0  0  0  0
   -0.1358   11.6769   -2.5092 H   0  0  0  0  0  0  0  0  0  0  0  0
   -1.8973   11.3249   -2.5092 H   0  0  0  0  0  0  0  0  0  0  0  0
   -0.7544   10.0798    0.9111 H   0  0  0  0  0  0  0  0  0  0  0  0
   -2.3274   10.4784    0.1408 H   0  0  0  0  0  0  0  0  0  0  0  0
   -1.7311    8.7840    0.1408 H   0  0  0  0  0  0  0  0  0  0  0  0
    4.1647   12.4264   -1.5067 H   0  0  0  0  0  0  0  0  0  0  0  0
    6.0998   13.0091   -2.8301 H   0  0  0  0  0  0  0  0  0  0  0  0
    5.3734   12.3630   -4.3173 H   0  0  0  0  0  0  0  0  0  0  0  0
    5.6000   15.1322   -3.6458 H   0  0  0  0  0  0  0  0  0  0  0  0
    4.5568   14.5072   -4.9204 H   0  0  0  0  0  0  0  0  0  0  0  0
    3.5408   14.7515   -0.7776 H   0  0  0  0  0  0  0  0  0  0  0  0
    5.1808   14.8196   -1.5075 H   0  0  0  0  0  0  0  0  0  0  0  0
    4.1362   16.2810   -1.5075 H   0  0  0  0  0  0  0  0  0  0  0  0
    2.3625   15.4622   -4.5431 H   0  0  0  0  0  0  0  0  0  0  0  0
    4.2424   17.1187   -3.9432 H   0  0  0  0  0  0  0  0  0  0  0  0
    2.6004   17.7124   -4.5256 H   0  0  0  0  0  0  0  0  0  0  0  0
    3.6823   19.0467   -2.5270 H   0  0  0  0  0  0  0  0  0  0  0  0
    1.6477   16.0689   -0.7155 H   0  0  0  0  0  0  0  0  0  0  0  0
   -0.5437   17.9624   -1.7684 H   0  0  0  0  0  0  0  0  0  0  0  0
   -0.7900   16.4058   -0.8590 H   0  0  0  0  0  0  0  0  0  0  0  0
   -1.1003   18.3912    0.5839 H   0  0  0  0  0  0  0  0  0  0  0  0
    0.2807   17.3491    1.1055 H   0  0  0  0  0  0  0  0  0  0  0  0
    0.9504   19.6493    1.2558 H   0  0  0  0  0  0  0  0  0  0  0  0
    0.9110   20.9480   -0.6970 H   0  0  0  0  0  0  0  0  0  0  0  0
    2.6665   18.4223    1.8862 H   0  0  0  0  0  0  0  0  0  0  0  0
    2.7478   16.9830    0.8146 H   0  0  0  0  0  0  0  0  0  0  0  0
    4.0875   18.1796    0.8146 H   0  0  0  0  0  0  0  0  0  0  0  0
    3.3561   20.5704    0.5867 H   0  0  0  0  0  0  0  0  0  0  0  0
    4.0231   19.9417   -0.9581 H   0  0  0  0  0  0  0  0  0  0  0  0
    2.4960   20.8875   -0.9581 H   0  0  0  0  0  0  0  0  0  0  0  0
   -0.6490   17.0220   -3.2158 H   0  0  0  0  0  0  0  0  0  0  0  0
    0.6715   17.2657   -4.4090 H   0  0  0  0  0  0  0  0  0  0  0  0
   -0.2677   15.7345   -4.4090 H   0  0  0  0  0  0  0  0  0  0  0  0
   -0.0936   14.5931   -1.5899 H   0  0  0  0  0  0  0  0  0  0  0  0
    0.1945   14.0860   -3.3493 H   0  0  0  0  0  0  0  0  0  0  0  0
    2.0405   13.6761   -0.9813 H   0  0  0  0  0  0  0  0  0  0  0  0
    1.1684   12.4327   -1.9613 H   0  0  0  0  0  0  0  0  0  0  0  0
    1.4108   12.2359   -4.2024 H   0  0  0  0  0  0  0  0  0  0  0  0
    1.9359   13.7970   -4.9194 H   0  0  0  0  0  0  0  0  0  0  0  0
    3.0508   12.3885   -4.9194 H   0  0  0  0  0  0  0  0  0  0  0  0
  1  2  1  0
  2  3  1  0
  3  4  1  0
  4  5  1  0
  5  6  1  0
  6  7  1  0
  7  8  1  0
  7  9  1  0
  2 10  1  0
 10 11  1  0
 11 12  1  0
 12 13  1  0
 13 14  1  1
 13 15  1  0
 15 16  1  0
 16 17  1  0
 17 18  2  0
 18 19  1  0
 19 20  1  0
 20 21  1  0
 21 22  1  0
 22 23  1  0
 22 24  1  0
 24 25  1  0
 24 26  1  0
 19 27  1  0
 27 28  1  6
 27 29  1  0
 29 30  1  0
 30 31  1  0
 31 32  1  6
  7  5  1  0
 31 10  1  0
 31 13  1  0
 27 15  1  0
 24 18  1  0
  1 33  1  0
  1 34  1  0
  1 35  1  0
  2 36  1  1
  3 37  1  0
  3 38  1  0
  4 39  1  0
  4 40  1  0
  5 41  1  1
  8 42  1  0
  8 43  1  0
  8 44  1  0
  9 45  1  0
  9 46  1  0
  9 47  1  0
 10 48  1  1
 11 49  1  0
 11 50  1  0
 12 51  1  0
 12 52  1  0
 14 53  1  0
 14 54  1  0
 14 55  1  0
 15 56  1  6
 16 57  1  0
 16 58  1  0
 17 59  1  0
 19 60  1  1
 20 61  1  0
 20 62  1  0
 21 63  1  0
 21 64  1  0
 22 65  1  1
 23 66  1  0
 25 67  1  0
 25 68  1  0
 25 69  1  0
 26 70  1  0
 26 71  1  0
 26 72  1  0
 28 73  1  0
 28 74  1  0
 28 75  1  0
 29 76  1  0
 29 77  1  0
 30 78  1  0
 30 79  1  0
 32 80  1  0
 32 81  1  0
 32 82  1  0
M  END
>  <meeko>  (14) 
{"is_sidechain": [false], "intermolecular_energy": 2.731, "internal_energy": -0.839}

$$$$
EPH_relaxed_0001_pdb2pqr_Repair_319_r2_0001_out
     RDKit          3D

 82 86  0  0  0  0  0  0  0  0999 V2000
    2.3680   20.1940   -1.3170 C   0  0  0  0  0  0  0  0  0  0  0  0
    1.8320   19.5290   -0.0460 C   0  0  2  0  0  0  0  0  0  0  0  0
    2.7990   19.6870    1.1440 C   0  0  0  0  0  0  0  0  0  0  0  0
    3.8180   18.5510    1.2650 C   0  0  0  0  0  0  0  0  0  0  0  0
    4.3770   18.4520    2.6520 C   0  0  2  0  0  0  0  0  0  0  0  0
    4.6960   19.7100    3.2600 O   0  0  0  0  0  0  0  0  0  0  0  0
    5.8030   18.8300    3.0080 C   0  0  0  0  0  0  0  0  0  0  0  0
    6.7580   19.3350    1.9730 C   0  0  0  0  0  0  0  0  0  0  0  0
    6.4070   18.2520    4.2500 C   0  0  0  0  0  0  0  0  0  0  0  0
    1.5650   18.0510   -0.3070 C   0  0  1  0  0  0  0  0  0  0  0  0
    0.1040   17.6410    0.0200 C   0  0  0  0  0  0  0  0  0  0  0  0
   -0.2990   16.5580   -1.0140 C   0  0  0  0  0  0  0  0  0  0  0  0
    1.0320   16.1430   -1.6830 C   0  0  1  0  0  0  0  0  0  0  0  0
    1.6820   15.1310   -0.6880 C   0  0  0  0  0  0  0  0  0  0  0  0
    0.9240   15.5470   -3.1240 C   0  0  2  0  0  0  0  0  0  0  0  0
    0.1270   14.2350   -3.2300 C   0  0  0  0  0  0  0  0  0  0  0  0
    0.9310   12.9870   -3.0780 C   0  0  0  0  0  0  0  0  0  0  0  0
    2.2730   12.9070   -3.1480 C   0  0  0  0  0  0  0  0  0  0  0  0
    3.1180   14.1380   -3.5010 C   0  0  1  0  0  0  0  0  0  0  0  0
    4.1730   13.7520   -4.5710 C   0  0  0  0  0  0  0  0  0  0  0  0
    5.0260   12.5600   -4.1480 C   0  0  0  0  0  0  0  0  0  0  0  0
    4.1550   11.3400   -3.8620 C   0  0  2  0  0  0  0  0  0  0  0  0
    3.5550   10.9040   -5.0860 O   0  0  0  0  0  0  0  0  0  0  0  0
    3.0480   11.6110   -2.8050 C   0  0  0  0  0  0  0  0  0  0  0  0
    3.6940   11.7870   -1.4080 C   0  0  0  0  0  0  0  0  0  0  0  0
    2.1550   10.3450   -2.7130 C   0  0  0  0  0  0  0  0  0  0  0  0
    2.3060   15.4480   -3.8900 C   0  0  1  0  0  0  0  0  0  0  0  0
    1.9710   15.4350   -5.4130 C   0  0  0  0  0  0  0  0  0  0  0  0
    3.2170   16.7080   -3.6460 C   0  0  0  0  0  0  0  0  0  0  0  0
    3.1890   17.3230   -2.2340 C   0  0  0  0  0  0  0  0  0  0  0  0
    1.7490   17.5400   -1.7590 C   0  0  2  0  0  0  0  0  0  0  0  0
    1.0750   18.5710   -2.7270 C   0  0  0  0  0  0  0  0  0  0  0  0
    3.0365   21.0234   -1.0429 H   0  0  0  0  0  0  0  0  0  0  0  0
    2.9255   19.4545   -1.9106 H   0  0  0  0  0  0  0  0  0  0  0  0
    1.5270   20.5818   -1.9106 H   0  0  0  0  0  0  0  0  0  0  0  0
    0.8931   20.0355    0.2223 H   0  0  0  0  0  0  0  0  0  0  0  0
    3.3468   20.6332    1.0229 H   0  0  0  0  0  0  0  0  0  0  0  0
    2.1882   19.6692    2.0586 H   0  0  0  0  0  0  0  0  0  0  0  0
    3.3246   17.6012    1.0111 H   0  0  0  0  0  0  0  0  0  0  0  0
    4.6486   18.7610    0.5751 H   0  0  0  0  0  0  0  0  0  0  0  0
    3.7803   17.5501    2.8536 H   0  0  0  0  0  0  0  0  0  0  0  0
    7.6263   19.7942    2.4682 H   0  0  0  0  0  0  0  0  0  0  0  0
    7.0948   18.4971    1.3449 H   0  0  0  0  0  0  0  0  0  0  0  0
    6.2551   20.0850    1.3449 H   0  0  0  0  0  0  0  0  0  0  0  0
    5.9333   18.7053    5.1333 H   0  0  0  0  0  0  0  0  0  0  0  0
    6.2448   17.1641    4.2646 H   0  0  0  0  0  0  0  0  0  0  0  0
    7.4867   18.4619    4.2646 H   0  0  0  0  0  0  0  0  0  0  0  0
    2.3293   17.6073    0.3480 H   0  0  0  0  0  0  0  0  0  0  0  0
    0.0445   17.2321    1.0395 H   0  0  0  0  0  0  0  0  0  0  0  0
   -0.5708   18.5081   -0.0330 H   0  0  0  0  0  0  0  0  0  0  0  0
   -0.7666   15.6976   -0.5129 H   0  0  0  0  0  0  0  0  0  0  0  0
   -1.0340   16.9301   -1.7429 H   0  0  0  0  0  0  0  0  0  0  0  0
    1.4774   15.4495    0.3448 H   0  0  0  0  0  0  0  0  0  0  0  0
    1.2576   14.1298   -0.8538 H   0  0  0  0  0  0  0  0  0  0  0  0
    2.7690   15.1006   -0.8538 H   0  0  0  0  0  0  0  0  0  0  0  0
    0.3224   16.3044   -3.6477 H   0  0  0  0  0  0  0  0  0  0  0  0
   -0.6434   14.2408   -2.4448 H   0  0  0  0  0  0  0  0  0  0  0  0
   -0.2840   14.2100   -4.2500 H   0  0  0  0  0  0  0  0  0  0  0  0
    0.3802   12.0530   -2.8930 H   0  0  0  0  0  0  0  0  0  0  0  0
    3.6221   14.4379   -2.5705 H   0  0  0  0  0  0  0  0  0  0  0  0
    3.6510   13.4982   -5.5054 H   0  0  0  0  0  0  0  0  0  0  0  0
    4.8447   14.6130   -4.7035 H   0  0  0  0  0  0  0  0  0  0  0  0
    5.7314   12.3172   -4.9564 H   0  0  0  0  0  0  0  0  0  0  0  0
    5.5701   12.8259   -3.2297 H   0  0  0  0  0  0  0  0  0  0  0  0
    4.8074   10.5613   -3.4400 H   0  0  0  0  0  0  0  0  0  0  0  0
    4.2650   10.8090   -5.7440 H   0  0  0  0  0  0  0  0  0  0  0  0
    2.9446   11.5828   -0.6291 H   0  0  0  0  0  0  0  0  0  0  0  0
    4.5342   11.0850   -1.3015 H   0  0  0  0  0  0  0  0  0  0  0  0
    4.0620   12.8181   -1.3015 H   0  0  0  0  0  0  0  0  0  0  0  0
    1.9795   10.0961   -1.6560 H   0  0  0  0  0  0  0  0  0  0  0  0
    1.1924   10.5385   -3.2089 H   0  0  0  0  0  0  0  0  0  0  0  0
    2.6602    9.5031   -3.2089 H   0  0  0  0  0  0  0  0  0  0  0  0
    0.8802   15.3927   -5.5481 H   0  0  0  0  0  0  0  0  0  0  0  0
    2.3634   16.3491   -5.8826 H   0  0  0  0  0  0  0  0  0  0  0  0
    2.4331   14.5541   -5.8826 H   0  0  0  0  0  0  0  0  0  0  0  0
    4.2552   16.4144   -3.8605 H   0  0  0  0  0  0  0  0  0  0  0  0
    2.8121   17.4881   -4.3075 H   0  0  0  0  0  0  0  0  0  0  0  0
    3.6998   16.6439   -1.5355 H   0  0  0  0  0  0  0  0  0  0  0  0
    3.6985   18.2974   -2.2656 H   0  0  0  0  0  0  0  0  0  0  0  0
    0.5666   19.3487   -2.1381 H   0  0  0  0  0  0  0  0  0  0  0  0
    1.8443   19.0356   -3.3613 H   0  0  0  0  0  0  0  0  0  0  0  0
    0.3408   18.0527   -3.3613 H   0  0  0  0  0  0  0  0  0  0  0  0
  1  2  1  0
  2  3  1  0
  3  4  1  0
  4  5  1  0
  5  6  1  0
  6  7  1  0
  7  8  1  0
  7  9  1  0
  2 10  1  0
 10 11  1  0
 11 12  1  0
 12 13  1  0
 13 14  1  1
 13 15  1  0
 15 16  1  0
 16 17  1  0
 17 18  2  0
 18 19  1  0
 19 20  1  0
 20 21  1  0
 21 22  1  0
 22 23  1  0
 22 24  1  0
 24 25  1  0
 24 26  1  0
 19 27  1  0
 27 28  1  6
 27 29  1  0
 29 30  1  0
 30 31  1  0
 31 32  1  6
  7  5  1  0
 31 10  1  0
 31 13  1  0
 27 15  1  0
 24 18  1  0
  1 33  1  0
  1 34  1  0
  1 35  1  0
  2 36  1  1
  3 37  1  0
  3 38  1  0
  4 39  1  0
  4 40  1  0
  5 41  1  1
  8 42  1  0
  8 43  1  0
  8 44  1  0
  9 45  1  0
  9 46  1  0
  9 47  1  0
 10 48  1  1
 11 49  1  0
 11 50  1  0
 12 51  1  0
 12 52  1  0
 14 53  1  0
 14 54  1  0
 14 55  1  0
 15 56  1  6
 16 57  1  0
 16 58  1  0
 17 59  1  0
 19 60  1  1
 20 61  1  0
 20 62  1  0
 21 63  1  0
 21 64  1  0
 22 65  1  1
 23 66  1  0
 25 67  1  0
 25 68  1  0
 25 69  1  0
 26 70  1  0
 26 71  1  0
 26 72  1  0
 28 73  1  0
 28 74  1  0
 28 75  1  0
 29 76  1  0
 29 77  1  0
 30 78  1  0
 30 79  1  0
 32 80  1  0
 32 81  1  0
 32 82  1  0
M  END
>  <meeko>  (15) 
{"is_sidechain": [false], "intermolecular_energy": 2.731, "internal_energy": -0.839}

$$$$
EPH_relaxed_0001_pdb2pqr_Repair_319_r2_0001_out
     RDKit          3D

 82 86  0  0  0  0  0  0  0  0999 V2000
    5.0670   15.3890   -4.5780 C   0  0  0  0  0  0  0  0  0  0  0  0
    4.0390   14.5930   -5.3870 C   0  0  2  0  0  0  0  0  0  0  0  0
    2.7900   15.4310   -5.7250 C   0  0  0  0  0  0  0  0  0  0  0  0
    1.8040   14.7190   -6.6540 C   0  0  0  0  0  0  0  0  0  0  0  0
    2.1050   14.9940   -8.0970 C   0  0  2  0  0  0  0  0  0  0  0  0
    2.2390   16.3830   -8.4260 O   0  0  0  0  0  0  0  0  0  0  0  0
    1.1370   15.6900   -9.0350 C   0  0  0  0  0  0  0  0  0  0  0  0
   -0.2070   16.1540   -8.5670 C   0  0  0  0  0  0  0  0  0  0  0  0
    1.2960   15.4830  -10.5090 C   0  0  0  0  0  0  0  0  0  0  0  0
    3.6340   13.3390   -4.6210 C   0  0  1  0  0  0  0  0  0  0  0  0
    4.8520   12.4690   -4.2120 C   0  0  0  0  0  0  0  0  0  0  0  0
    4.5120   11.8420   -2.8350 C   0  0  0  0  0  0  0  0  0  0  0  0
    2.9980   12.0990   -2.6530 C   0  0  1  0  0  0  0  0  0  0  0  0
    2.2980   10.9740   -3.4790 C   0  0  0  0  0  0  0  0  0  0  0  0
    2.4760   12.1420   -1.1800 C   0  0  2  0  0  0  0  0  0  0  0  0
    2.6440   10.8330   -0.3890 C   0  0  0  0  0  0  0  0  0  0  0  0
    1.4920    9.8860   -0.4720 C   0  0  0  0  0  0  0  0  0  0  0  0
    0.2580   10.1930   -0.9140 C   0  0  0  0  0  0  0  0  0  0  0  0
   -0.1060   11.6320   -1.2990 C   0  0  1  0  0  0  0  0  0  0  0  0
   -1.4720   12.0080   -0.6680 C   0  0  0  0  0  0  0  0  0  0  0  0
   -2.5730   11.0130   -1.0230 C   0  0  0  0  0  0  0  0  0  0  0  0
   -2.2000    9.6030   -0.5720 C   0  0  2  0  0  0  0  0  0  0  0  0
   -2.1670    9.5700    0.8580 O   0  0  0  0  0  0  0  0  0  0  0  0
   -0.8360    9.1200   -1.1380 C   0  0  0  0  0  0  0  0  0  0  0  0
   -0.9640    8.8670   -2.6610 C   0  0  0  0  0  0  0  0  0  0  0  0
   -0.5130    7.7440   -0.4950 C   0  0  0  0  0  0  0  0  0  0  0  0
    1.0140   12.7270   -1.0260 C   0  0  1  0  0  0  0  0  0  0  0  0
    0.8970   13.2550    0.4360 C   0  0  0  0  0  0  0  0  0  0  0  0
    0.7630   13.9650   -1.9670 C   0  0  0  0  0  0  0  0  0  0  0  0
    1.4040   13.9150   -3.3670 C   0  0  0  0  0  0  0  0  0  0  0  0
    2.8850   13.5370   -3.2790 C   0  0  2  0  0  0  0  0  0  0  0  0
    3.6190   14.6620   -2.4720 C   0  0  0  0  0  0  0  0  0  0  0  0
    4.8799   15.2442   -3.5037 H   0  0  0  0  0  0  0  0  0  0  0  0
    6.0796   15.0372   -4.8246 H   0  0  0  0  0  0  0  0  0  0  0  0
    4.9799   16.4575   -4.8246 H   0  0  0  0  0  0  0  0  0  0  0  0
    4.5133   14.3108   -6.3385 H   0  0  0  0  0  0  0  0  0  0  0  0
    2.2699   15.6731   -4.7865 H   0  0  0  0  0  0  0  0  0  0  0  0
    3.1395   16.3293   -6.2551 H   0  0  0  0  0  0  0  0  0  0  0  0
    1.8664   13.6351   -6.4770 H   0  0  0  0  0  0  0  0  0  0  0  0
    0.7939   15.0962   -6.4363 H   0  0  0  0  0  0  0  0  0  0  0  0
    2.6685   14.0533   -8.1836 H   0  0  0  0  0  0  0  0  0  0  0  0
   -0.2297   16.1618   -7.4673 H   0  0  0  0  0  0  0  0  0  0  0  0
   -0.3964   17.1695   -8.9449 H   0  0  0  0  0  0  0  0  0  0  0  0
   -0.9826   15.4716   -8.9449 H   0  0  0  0  0  0  0  0  0  0  0  0
    1.9570   14.6224  -10.6892 H   0  0  0  0  0  0  0  0  0  0  0  0
    0.3116   15.2901  -10.9605 H   0  0  0  0  0  0  0  0  0  0  0  0
    1.7362   16.3843  -10.9605 H   0  0  0  0  0  0  0  0  0  0  0  0
    2.9638   12.8785   -5.3618 H   0  0  0  0  0  0  0  0  0  0  0  0
    5.0196   11.6777   -4.9575 H   0  0  0  0  0  0  0  0  0  0  0  0
    5.7684   13.0747   -4.1546 H   0  0  0  0  0  0  0  0  0  0  0  0
    4.7254   10.7629   -2.8363 H   0  0  0  0  0  0  0  0  0  0  0  0
    5.1099   12.2758   -2.0199 H   0  0  0  0  0  0  0  0  0  0  0  0
    1.8438   10.2440   -2.7929 H   0  0  0  0  0  0  0  0  0  0  0  0
    1.5160   11.4172   -4.1130 H   0  0  0  0  0  0  0  0  0  0  0  0
    3.0411   10.4682   -4.1130 H   0  0  0  0  0  0  0  0  0  0  0  0
    3.1594   12.8646   -0.7100 H   0  0  0  0  0  0  0  0  0  0  0  0
    3.5368   10.3167   -0.7715 H   0  0  0  0  0  0  0  0  0  0  0  0
    2.7234   11.1243    0.6688 H   0  0  0  0  0  0  0  0  0  0  0  0
    1.6666    8.8505   -0.1444 H   0  0  0  0  0  0  0  0  0  0  0  0
   -0.1867   11.6416   -2.3960 H   0  0  0  0  0  0  0  0  0  0  0  0
   -1.3599   12.0347    0.4259 H   0  0  0  0  0  0  0  0  0  0  0  0
   -1.7664   12.9894   -1.0683 H   0  0  0  0  0  0  0  0  0  0  0  0
   -3.5059   11.3154   -0.5248 H   0  0  0  0  0  0  0  0  0  0  0  0
   -2.7041   11.0092   -2.1151 H   0  0  0  0  0  0  0  0  0  0  0  0
   -2.9638    8.9171   -0.9672 H   0  0  0  0  0  0  0  0  0  0  0  0
   -3.0100    9.9310    1.1800 H   0  0  0  0  0  0  0  0  0  0  0  0
   -1.4546    7.8974   -2.8317 H   0  0  0  0  0  0  0  0  0  0  0  0
   -1.5656    9.6675   -3.1164 H   0  0  0  0  0  0  0  0  0  0  0  0
    0.0373    8.8565   -3.1164 H   0  0  0  0  0  0  0  0  0  0  0  0
   -0.5349    7.8372    0.6008 H   0  0  0  0  0  0  0  0  0  0  0  0
   -1.2620    7.0048   -0.8152 H   0  0  0  0  0  0  0  0  0  0  0  0
    0.4867    7.4153   -0.8152 H   0  0  0  0  0  0  0  0  0  0  0  0
    1.0799   12.4296    1.1397 H   0  0  0  0  0  0  0  0  0  0  0  0
    1.6411   14.0483    0.6000 H   0  0  0  0  0  0  0  0  0  0  0  0
   -0.1126   13.6597    0.6000 H   0  0  0  0  0  0  0  0  0  0  0  0
   -0.3241   14.0652   -2.1022 H   0  0  0  0  0  0  0  0  0  0  0  0
    1.2449   14.8140   -1.4601 H   0  0  0  0  0  0  0  0  0  0  0  0
    0.8773   13.1665   -3.9773 H   0  0  0  0  0  0  0  0  0  0  0  0
    1.3233   14.9117   -3.8253 H   0  0  0  0  0  0  0  0  0  0  0  0
    3.4989   14.4779   -1.3942 H   0  0  0  0  0  0  0  0  0  0  0  0
    4.6889   14.6581   -2.7277 H   0  0  0  0  0  0  0  0  0  0  0  0
    3.1845   15.6397   -2.7277 H   0  0  0  0  0  0  0  0  0  0  0  0
  1  2  1  0
  2  3  1  0
  3  4  1  0
  4  5  1  0
  5  6  1  0
  6  7  1  0
  7  8  1  0
  7  9  1  0
  2 10  1  0
 10 11  1  0
 11 12  1  0
 12 13  1  0
 13 14  1  6
 13 15  1  0
 15 16  1  0
 16 17  1  0
 17 18  2  0
 18 19  1  0
 19 20  1  0
 20 21  1  0
 21 22  1  0
 22 23  1  0
 22 24  1  0
 24 25  1  0
 24 26  1  0
 19 27  1  0
 27 28  1  1
 27 29  1  0
 29 30  1  0
 30 31  1  0
 31 32  1  1
  7  5  1  0
 31 10  1  0
 31 13  1  0
 27 15  1  0
 24 18  1  0
  1 33  1  0
  1 34  1  0
  1 35  1  0
  2 36  1  6
  3 37  1  0
  3 38  1  0
  4 39  1  0
  4 40  1  0
  5 41  1  6
  8 42  1  0
  8 43  1  0
  8 44  1  0
  9 45  1  0
  9 46  1  0
  9 47  1  0
 10 48  1  6
 11 49  1  0
 11 50  1  0
 12 51  1  0
 12 52  1  0
 14 53  1  0
 14 54  1  0
 14 55  1  0
 15 56  1  1
 16 57  1  0
 16 58  1  0
 17 59  1  0
 19 60  1  6
 20 61  1  0
 20 62  1  0
 21 63  1  0
 21 64  1  0
 22 65  1  6
 23 66  1  0
 25 67  1  0
 25 68  1  0
 25 69  1  0
 26 70  1  0
 26 71  1  0
 26 72  1  0
 28 73  1  0
 28 74  1  0
 28 75  1  0
 29 76  1  0
 29 77  1  0
 30 78  1  0
 30 79  1  0
 32 80  1  0
 32 81  1  0
 32 82  1  0
M  END
>  <meeko>  (16) 
{"is_sidechain": [false], "intermolecular_energy": 2.731, "internal_energy": -0.839}

$$$$
EPH_relaxed_0001_pdb2pqr_Repair_319_r2_0001_out
     RDKit          3D

 82 86  0  0  0  0  0  0  0  0999 V2000
    0.3160   18.4580   -1.9480 C   0  0  0  0  0  0  0  0  0  0  0  0
    1.5290   17.5240   -1.9410 C   0  0  2  0  0  0  0  0  0  0  0  0
    2.6730   18.0520   -2.8300 C   0  0  0  0  0  0  0  0  0  0  0  0
    4.0700   17.7170   -2.2990 C   0  0  0  0  0  0  0  0  0  0  0  0
    5.0950   17.7230   -3.3930 C   0  0  2  0  0  0  0  0  0  0  0  0
    4.7440   16.9480   -4.5470 O   0  0  0  0  0  0  0  0  0  0  0  0
    5.8870   16.4960   -3.8030 C   0  0  0  0  0  0  0  0  0  0  0  0
    5.6900   15.1770   -3.1250 C   0  0  0  0  0  0  0  0  0  0  0  0
    7.1870   16.6910   -4.5200 C   0  0  0  0  0  0  0  0  0  0  0  0
    1.1150   16.1300   -2.3980 C   0  0  1  0  0  0  0  0  0  0  0  0
    1.4460   15.8680   -3.8910 C   0  0  0  0  0  0  0  0  0  0  0  0
    1.8330   14.3720   -4.0080 C   0  0  0  0  0  0  0  0  0  0  0  0
    1.3970   13.7500   -2.6600 C   0  0  1  0  0  0  0  0  0  0  0  0
   -0.1350   13.4950   -2.8140 C   0  0  0  0  0  0  0  0  0  0  0  0
    2.1560   12.4570   -2.2180 C   0  0  2  0  0  0  0  0  0  0  0  0
    1.9920   11.2500   -3.1590 C   0  0  0  0  0  0  0  0  0  0  0  0
    0.8450   10.3470   -2.8440 C   0  0  0  0  0  0  0  0  0  0  0  0
    0.1550   10.3330   -1.6880 C   0  0  0  0  0  0  0  0  0  0  0  0
    0.5720   11.2240   -0.5110 C   0  0  1  0  0  0  0  0  0  0  0  0
    0.5710   10.3890    0.7960 C   0  0  0  0  0  0  0  0  0  0  0  0
   -0.7600    9.6850    1.0400 C   0  0  0  0  0  0  0  0  0  0  0  0
   -1.1120    8.7640   -0.1260 C   0  0  2  0  0  0  0  0  0  0  0  0
   -0.1670    7.6900   -0.1660 O   0  0  0  0  0  0  0  0  0  0  0  0
   -1.1320    9.4930   -1.4980 C   0  0  0  0  0  0  0  0  0  0  0  0
   -2.3500   10.4490   -1.5620 C   0  0  0  0  0  0  0  0  0  0  0  0
   -1.3600    8.4260   -2.6020 C   0  0  0  0  0  0  0  0  0  0  0  0
    1.9160   12.0490   -0.7080 C   0  0  1  0  0  0  0  0  0  0  0  0
    3.1400   11.1820   -0.2810 C   0  0  0  0  0  0  0  0  0  0  0  0
    1.8990   13.2960    0.2530 C   0  0  0  0  0  0  0  0  0  0  0  0
    1.2410   14.5800   -0.2870 C   0  0  0  0  0  0  0  0  0  0  0  0
    1.7700   14.9230   -1.6830 C   0  0  2  0  0  0  0  0  0  0  0  0
    3.3060   15.2060   -1.5560 C   0  0  0  0  0  0  0  0  0  0  0  0
    0.0217   18.6846   -0.9126 H   0  0  0  0  0  0  0  0  0  0  0  0
    0.5753   19.3919   -2.4682 H   0  0  0  0  0  0  0  0  0  0  0  0
   -0.5206   17.9686   -2.4682 H   0  0  0  0  0  0  0  0  0  0  0  0
    1.9064   17.4795   -0.9087 H   0  0  0  0  0  0  0  0  0  0  0  0
    2.5669   17.6098   -3.8316 H   0  0  0  0  0  0  0  0  0  0  0  0
    2.5890   19.1487   -2.8444 H   0  0  0  0  0  0  0  0  0  0  0  0
    4.3522   18.4636   -1.5420 H   0  0  0  0  0  0  0  0  0  0  0  0
    4.0385   16.7071   -1.8640 H   0  0  0  0  0  0  0  0  0  0  0  0
    5.4023   18.7464   -3.1318 H   0  0  0  0  0  0  0  0  0  0  0  0
    5.7111   15.3186   -2.0344 H   0  0  0  0  0  0  0  0  0  0  0  0
    4.7187   14.7540   -3.4211 H   0  0  0  0  0  0  0  0  0  0  0  0
    6.4953   14.4886   -3.4211 H   0  0  0  0  0  0  0  0  0  0  0  0
    7.9964   16.8124   -3.7851 H   0  0  0  0  0  0  0  0  0  0  0  0
    7.3930   15.8137   -5.1508 H   0  0  0  0  0  0  0  0  0  0  0  0
    7.1266   17.5901   -5.1508 H   0  0  0  0  0  0  0  0  0  0  0  0
    0.0416   16.1701   -2.1608 H   0  0  0  0  0  0  0  0  0  0  0  0
    0.5671   16.0818   -4.5169 H   0  0  0  0  0  0  0  0  0  0  0  0
    2.2666   16.5159   -4.2329 H   0  0  0  0  0  0  0  0  0  0  0  0
    1.3003   13.8973   -4.8452 H   0  0  0  0  0  0  0  0  0  0  0  0
    2.9064   14.2327   -4.2042 H   0  0  0  0  0  0  0  0  0  0  0  0
   -0.5959   13.4183   -1.8181 H   0  0  0  0  0  0  0  0  0  0  0  0
   -0.5919   14.3294   -3.3662 H   0  0  0  0  0  0  0  0  0  0  0  0
   -0.2970   12.5575   -3.3662 H   0  0  0  0  0  0  0  0  0  0  0  0
    3.2096   12.7613   -2.3031 H   0  0  0  0  0  0  0  0  0  0  0  0
    1.8530   11.6322   -4.1811 H   0  0  0  0  0  0  0  0  0  0  0  0
    2.9006   10.6423   -3.0358 H   0  0  0  0  0  0  0  0  0  0  0  0
    0.5379    9.6329   -3.6223 H   0  0  0  0  0  0  0  0  0  0  0  0
   -0.1865   12.0181   -0.4468 H   0  0  0  0  0  0  0  0  0  0  0  0
    1.3644    9.6299    0.7300 H   0  0  0  0  0  0  0  0  0  0  0  0
    0.7410   11.0809    1.6341 H   0  0  0  0  0  0  0  0  0  0  0  0
   -0.6880    9.0881    1.9612 H   0  0  0  0  0  0  0  0  0  0  0  0
   -1.5477   10.4468    1.1359 H   0  0  0  0  0  0  0  0  0  0  0  0
   -2.1322    8.3900    0.0452 H   0  0  0  0  0  0  0  0  0  0  0  0
   -0.3930    7.0730    0.5510 H   0  0  0  0  0  0  0  0  0  0  0  0
   -2.6719   10.7016   -0.5409 H   0  0  0  0  0  0  0  0  0  0  0  0
   -2.0668   11.3685   -2.0952 H   0  0  0  0  0  0  0  0  0  0  0  0
   -3.1759    9.9555   -2.0952 H   0  0  0  0  0  0  0  0  0  0  0  0
   -1.5680    7.4526   -2.1338 H   0  0  0  0  0  0  0  0  0  0  0  0
   -2.2151    8.7223   -3.2273 H   0  0  0  0  0  0  0  0  0  0  0  0
   -0.4585    8.3469   -3.2273 H   0  0  0  0  0  0  0  0  0  0  0  0
    3.1961   11.1423    0.8169 H   0  0  0  0  0  0  0  0  0  0  0  0
    3.0245   10.1632   -0.6793 H   0  0  0  0  0  0  0  0  0  0  0  0
    4.0628   11.6290   -0.6793 H   0  0  0  0  0  0  0  0  0  0  0  0
    1.3600   13.0048    1.1666 H   0  0  0  0  0  0  0  0  0  0  0  0
    2.9568   13.5567    0.4051 H   0  0  0  0  0  0  0  0  0  0  0  0
    0.1525   14.4308   -0.3415 H   0  0  0  0  0  0  0  0  0  0  0  0
    1.4828   15.4102    0.3930 H   0  0  0  0  0  0  0  0  0  0  0  0
    3.5827   15.2570   -0.4926 H   0  0  0  0  0  0  0  0  0  0  0  0
    3.8695   14.3966   -2.0431 H   0  0  0  0  0  0  0  0  0  0  0  0
    3.5440   16.1631   -2.0431 H   0  0  0  0  0  0  0  0  0  0  0  0
  1  2  1  0
  2  3  1  0
  3  4  1  0
  4  5  1  0
  5  6  1  0
  6  7  1  0
  7  8  1  0
  7  9  1  0
  2 10  1  0
 10 11  1  0
 11 12  1  0
 12 13  1  0
 13 14  1  6
 13 15  1  0
 15 16  1  0
 16 17  1  0
 17 18  2  0
 18 19  1  0
 19 20  1  0
 20 21  1  0
 21 22  1  0
 22 23  1  0
 22 24  1  0
 24 25  1  0
 24 26  1  0
 19 27  1  0
 27 28  1  1
 27 29  1  0
 29 30  1  0
 30 31  1  0
 31 32  1  1
  7  5  1  0
 31 10  1  0
 31 13  1  0
 27 15  1  0
 24 18  1  0
  1 33  1  0
  1 34  1  0
  1 35  1  0
  2 36  1  1
  3 37  1  0
  3 38  1  0
  4 39  1  0
  4 40  1  0
  5 41  1  6
  8 42  1  0
  8 43  1  0
  8 44  1  0
  9 45  1  0
  9 46  1  0
  9 47  1  0
 10 48  1  6
 11 49  1  0
 11 50  1  0
 12 51  1  0
 12 52  1  0
 14 53  1  0
 14 54  1  0
 14 55  1  0
 15 56  1  1
 16 57  1  0
 16 58  1  0
 17 59  1  0
 19 60  1  1
 20 61  1  0
 20 62  1  0
 21 63  1  0
 21 64  1  0
 22 65  1  1
 23 66  1  0
 25 67  1  0
 25 68  1  0
 25 69  1  0
 26 70  1  0
 26 71  1  0
 26 72  1  0
 28 73  1  0
 28 74  1  0
 28 75  1  0
 29 76  1  0
 29 77  1  0
 30 78  1  0
 30 79  1  0
 32 80  1  0
 32 81  1  0
 32 82  1  0
M  END
>  <meeko>  (17) 
{"is_sidechain": [false], "intermolecular_energy": 2.731, "internal_energy": -0.839}

$$$$
EPH_relaxed_0001_pdb2pqr_Repair_319_r2_0001_out
     RDKit          3D

 82 86  0  0  0  0  0  0  0  0999 V2000
   -1.0180    8.6160   -0.9810 C   0  0  0  0  0  0  0  0  0  0  0  0
    0.0190    9.5040   -0.2880 C   0  0  2  0  0  0  0  0  0  0  0  0
   -0.6360   10.5350    0.6530 C   0  0  0  0  0  0  0  0  0  0  0  0
    0.2360   10.9130    1.8540 C   0  0  0  0  0  0  0  0  0  0  0  0
   -0.3880   12.0030    2.6710 C   0  0  2  0  0  0  0  0  0  0  0  0
    0.3000   13.2600    2.6180 O   0  0  0  0  0  0  0  0  0  0  0  0
    0.2670   12.6080    3.8990 C   0  0  0  0  0  0  0  0  0  0  0  0
    1.6050   12.1420    4.3790 C   0  0  0  0  0  0  0  0  0  0  0  0
   -0.6000   13.2990    4.9050 C   0  0  0  0  0  0  0  0  0  0  0  0
    0.8710   10.2190   -1.3310 C   0  0  1  0  0  0  0  0  0  0  0  0
    0.7090    9.6140   -2.7510 C   0  0  0  0  0  0  0  0  0  0  0  0
    0.8170   10.7910   -3.7540 C   0  0  0  0  0  0  0  0  0  0  0  0
    1.3630   11.9700   -2.9140 C   0  0  1  0  0  0  0  0  0  0  0  0
    2.9030   11.7280   -2.8390 C   0  0  0  0  0  0  0  0  0  0  0  0
    1.0290   13.4050   -3.4370 C   0  0  2  0  0  0  0  0  0  0  0  0
    1.6070   13.7450   -4.8220 C   0  0  0  0  0  0  0  0  0  0  0  0
    2.9630   14.3700   -4.8110 C   0  0  0  0  0  0  0  0  0  0  0  0
    3.5680   14.9070   -3.7350 C   0  0  0  0  0  0  0  0  0  0  0  0
    2.8380   15.0080   -2.3900 C   0  0  1  0  0  0  0  0  0  0  0  0
    3.0390   16.4270   -1.7960 C   0  0  0  0  0  0  0  0  0  0  0  0
    4.5110   16.8140   -1.6920 C   0  0  0  0  0  0  0  0  0  0  0  0
    5.1880   16.7580   -3.0590 C   0  0  2  0  0  0  0  0  0  0  0  0
    4.6310   17.7800   -3.8910 O   0  0  0  0  0  0  0  0  0  0  0  0
    5.0430   15.3770   -3.7580 C   0  0  0  0  0  0  0  0  0  0  0  0
    5.9010   14.3240   -3.0140 C   0  0  0  0  0  0  0  0  0  0  0  0
    5.6450   15.4990   -5.1840 C   0  0  0  0  0  0  0  0  0  0  0  0
    1.3130   14.5580   -2.3920 C   0  0  1  0  0  0  0  0  0  0  0  0
    0.4050   15.7600   -2.7970 C   0  0  0  0  0  0  0  0  0  0  0  0
    0.8930   14.1570   -0.9290 C   0  0  0  0  0  0  0  0  0  0  0  0
    1.1390   12.6950   -0.5110 C   0  0  0  0  0  0  0  0  0  0  0  0
    0.5950   11.7250   -1.5640 C   0  0  2  0  0  0  0  0  0  0  0  0
   -0.9560   11.9290   -1.6470 C   0  0  0  0  0  0  0  0  0  0  0  0
   -1.6229    8.0980   -0.2222 H   0  0  0  0  0  0  0  0  0  0  0  0
   -1.6723    9.2382   -1.6094 H   0  0  0  0  0  0  0  0  0  0  0  0
   -0.5039    7.8738   -1.6094 H   0  0  0  0  0  0  0  0  0  0  0  0
    0.6550    8.8514    0.3281 H   0  0  0  0  0  0  0  0  0  0  0  0
   -0.8467   11.4474    0.0758 H   0  0  0  0  0  0  0  0  0  0  0  0
   -1.5498   10.0709    1.0524 H   0  0  0  0  0  0  0  0  0  0  0  0
    0.3724   10.0252    2.4890 H   0  0  0  0  0  0  0  0  0  0  0  0
    1.2017   11.2788    1.4749 H   0  0  0  0  0  0  0  0  0  0  0  0
   -1.3924   11.5887    2.4993 H   0  0  0  0  0  0  0  0  0  0  0  0
    1.6187   12.1372    5.4789 H   0  0  0  0  0  0  0  0  0  0  0  0
    1.7947   11.1249    4.0055 H   0  0  0  0  0  0  0  0  0  0  0  0
    2.3855   12.8212    4.0055 H   0  0  0  0  0  0  0  0  0  0  0  0
   -0.2674   13.0339    5.9194 H   0  0  0  0  0  0  0  0  0  0  0  0
   -0.5251   14.3878    4.7674 H   0  0  0  0  0  0  0  0  0  0  0  0
   -1.6446   12.9831    4.7674 H   0  0  0  0  0  0  0  0  0  0  0  0
    1.8654   10.0846   -0.8803 H   0  0  0  0  0  0  0  0  0  0  0  0
    1.5046    8.8790   -2.9425 H   0  0  0  0  0  0  0  0  0  0  0  0
   -0.2565    9.0966   -2.8519 H   0  0  0  0  0  0  0  0  0  0  0  0
    1.5101   10.5426   -4.5712 H   0  0  0  0  0  0  0  0  0  0  0  0
   -0.1481   11.0267   -4.2263 H   0  0  0  0  0  0  0  0  0  0  0  0
    3.2156   11.6789   -1.7855 H   0  0  0  0  0  0  0  0  0  0  0  0
    3.1500   10.7800   -3.3393 H   0  0  0  0  0  0  0  0  0  0  0  0
    3.4288   12.5545   -3.3393 H   0  0  0  0  0  0  0  0  0  0  0  0
   -0.0617   13.3596   -3.5719 H   0  0  0  0  0  0  0  0  0  0  0  0
    1.6669   12.8132   -5.4035 H   0  0  0  0  0  0  0  0  0  0  0  0
    0.9301   14.4940   -5.2589 H   0  0  0  0  0  0  0  0  0  0  0  0
    3.5142   14.3936   -5.7626 H   0  0  0  0  0  0  0  0  0  0  0  0
    3.3060   14.2590   -1.7343 H   0  0  0  0  0  0  0  0  0  0  0  0
    2.5276   17.1556   -2.4422 H   0  0  0  0  0  0  0  0  0  0  0  0
    2.6212   16.4255   -0.7784 H   0  0  0  0  0  0  0  0  0  0  0  0
    4.5870   17.8368   -1.2943 H   0  0  0  0  0  0  0  0  0  0  0  0
    5.0146   16.1020   -1.0215 H   0  0  0  0  0  0  0  0  0  0  0  0
    6.2649   16.9177   -2.9013 H   0  0  0  0  0  0  0  0  0  0  0  0
    4.6740   17.4660   -4.8110 H   0  0  0  0  0  0  0  0  0  0  0  0
    5.7894   14.4609   -1.9283 H   0  0  0  0  0  0  0  0  0  0  0  0
    5.5652   13.3142   -3.2926 H   0  0  0  0  0  0  0  0  0  0  0  0
    6.9578   14.4489   -3.2926 H   0  0  0  0  0  0  0  0  0  0  0  0
    6.7207   15.7170   -5.1105 H   0  0  0  0  0  0  0  0  0  0  0  0
    5.4988   14.5530   -5.7259 H   0  0  0  0  0  0  0  0  0  0  0  0
    5.1420   16.3135   -5.7259 H   0  0  0  0  0  0  0  0  0  0  0  0
    0.0293   16.2574   -1.8907 H   0  0  0  0  0  0  0  0  0  0  0  0
    0.9894   16.4765   -3.3930 H   0  0  0  0  0  0  0  0  0  0  0  0
   -0.4439   15.3938   -3.3930 H   0  0  0  0  0  0  0  0  0  0  0  0
    1.4527   14.8003   -0.2341 H   0  0  0  0  0  0  0  0  0  0  0  0
   -0.1991   14.2849   -0.8982 H   0  0  0  0  0  0  0  0  0  0  0  0
    2.2205   12.5309   -0.3952 H   0  0  0  0  0  0  0  0  0  0  0  0
    0.6175   12.5094    0.4396 H   0  0  0  0  0  0  0  0  0  0  0  0
   -1.3735   11.9839   -0.6308 H   0  0  0  0  0  0  0  0  0  0  0  0
   -1.1747   12.8636   -2.1842 H   0  0  0  0  0  0  0  0  0  0  0  0
   -1.4089   11.0827   -2.1842 H   0  0  0  0  0  0  0  0  0  0  0  0
  1  2  1  0
  2  3  1  0
  3  4  1  0
  4  5  1  0
  5  6  1  0
  6  7  1  0
  7  8  1  0
  7  9  1  0
  2 10  1  0
 10 11  1  0
 11 12  1  0
 12 13  1  0
 13 14  1  1
 13 15  1  0
 15 16  1  0
 16 17  1  0
 17 18  2  0
 18 19  1  0
 19 20  1  0
 20 21  1  0
 21 22  1  0
 22 23  1  0
 22 24  1  0
 24 25  1  0
 24 26  1  0
 19 27  1  0
 27 28  1  6
 27 29  1  0
 29 30  1  0
 30 31  1  0
 31 32  1  6
  7  5  1  0
 31 10  1  0
 31 13  1  0
 27 15  1  0
 24 18  1  0
  1 33  1  0
  1 34  1  0
  1 35  1  0
  2 36  1  1
  3 37  1  0
  3 38  1  0
  4 39  1  0
  4 40  1  0
  5 41  1  1
  8 42  1  0
  8 43  1  0
  8 44  1  0
  9 45  1  0
  9 46  1  0
  9 47  1  0
 10 48  1  1
 11 49  1  0
 11 50  1  0
 12 51  1  0
 12 52  1  0
 14 53  1  0
 14 54  1  0
 14 55  1  0
 15 56  1  6
 16 57  1  0
 16 58  1  0
 17 59  1  0
 19 60  1  1
 20 61  1  0
 20 62  1  0
 21 63  1  0
 21 64  1  0
 22 65  1  1
 23 66  1  0
 25 67  1  0
 25 68  1  0
 25 69  1  0
 26 70  1  0
 26 71  1  0
 26 72  1  0
 28 73  1  0
 28 74  1  0
 28 75  1  0
 29 76  1  0
 29 77  1  0
 30 78  1  0
 30 79  1  0
 32 80  1  0
 32 81  1  0
 32 82  1  0
M  END
>  <meeko>  (18) 
{"is_sidechain": [false], "intermolecular_energy": 2.731, "internal_energy": -0.839}

$$$$
EPH_relaxed_0001_pdb2pqr_Repair_319_r2_0001_out
     RDKit          3D

 82 86  0  0  0  0  0  0  0  0999 V2000
    4.6570   17.3910   -3.7990 C   0  0  0  0  0  0  0  0  0  0  0  0
    5.3420   16.1910   -3.1380 C   0  0  2  0  0  0  0  0  0  0  0  0
    5.8520   15.1700   -4.1740 C   0  0  0  0  0  0  0  0  0  0  0  0
    6.2010   13.8050   -3.5740 C   0  0  0  0  0  0  0  0  0  0  0  0
    5.5390   12.6860   -4.3190 C   0  0  2  0  0  0  0  0  0  0  0  0
    5.0040   11.6470   -3.4890 O   0  0  0  0  0  0  0  0  0  0  0  0
    6.0830   11.2710   -4.3600 C   0  0  0  0  0  0  0  0  0  0  0  0
    7.3430   10.8980   -3.6420 C   0  0  0  0  0  0  0  0  0  0  0  0
    5.6660   10.3750   -5.4840 C   0  0  0  0  0  0  0  0  0  0  0  0
    4.3810   15.5140   -2.1680 C   0  0  1  0  0  0  0  0  0  0  0  0
    3.9890   16.4290   -0.9780 C   0  0  0  0  0  0  0  0  0  0  0  0
    2.5150   16.1010   -0.6280 C   0  0  0  0  0  0  0  0  0  0  0  0
    2.2140   14.7920   -1.3950 C   0  0  1  0  0  0  0  0  0  0  0  0
    2.8100   13.6590   -0.5030 C   0  0  0  0  0  0  0  0  0  0  0  0
    0.7130   14.5250   -1.7430 C   0  0  2  0  0  0  0  0  0  0  0  0
   -0.2200   14.3690   -0.5300 C   0  0  0  0  0  0  0  0  0  0  0  0
   -0.3800   12.9730   -0.0240 C   0  0  0  0  0  0  0  0  0  0  0  0
   -0.0300   11.8560   -0.6870 C   0  0  0  0  0  0  0  0  0  0  0  0
    0.5010   11.9270   -2.1250 C   0  0  1  0  0  0  0  0  0  0  0  0
   -0.2120   10.8570   -2.9940 C   0  0  0  0  0  0  0  0  0  0  0  0
   -0.1050    9.4560   -2.4010 C   0  0  0  0  0  0  0  0  0  0  0  0
   -0.6950    9.4120   -0.9940 C   0  0  2  0  0  0  0  0  0  0  0  0
   -2.1070    9.6330   -1.0790 O   0  0  0  0  0  0  0  0  0  0  0  0
   -0.0610   10.4540   -0.0300 C   0  0  0  0  0  0  0  0  0  0  0  0
    1.3940   10.0390    0.2990 C   0  0  0  0  0  0  0  0  0  0  0  0
   -0.8420   10.4010    1.3110 C   0  0  0  0  0  0  0  0  0  0  0  0
    0.4890   13.3670   -2.7980 C   0  0  1  0  0  0  0  0  0  0  0  0
   -0.8960   13.6320   -3.4620 C   0  0  0  0  0  0  0  0  0  0  0  0
    1.5520   13.4000   -3.9590 C   0  0  0  0  0  0  0  0  0  0  0  0
    2.9920   13.7880   -3.5710 C   0  0  0  0  0  0  0  0  0  0  0  0
    3.0070   15.0650   -2.7250 C   0  0  2  0  0  0  0  0  0  0  0  0
    2.4340   16.2280   -3.6040 C   0  0  0  0  0  0  0  0  0  0  0  0
    4.2712   18.0669   -3.0217 H   0  0  0  0  0  0  0  0  0  0  0  0
    5.3840   17.9292   -4.4250 H   0  0  0  0  0  0  0  0  0  0  0  0
    3.8239   17.0387   -4.4250 H   0  0  0  0  0  0  0  0  0  0  0  0
    6.2175   16.5698   -2.5903 H   0  0  0  0  0  0  0  0  0  0  0  0
    5.0694   15.0255   -4.9334 H   0  0  0  0  0  0  0  0  0  0  0  0
    6.7796   15.5804   -4.5995 H   0  0  0  0  0  0  0  0  0  0  0  0
    7.2913   13.6654   -3.6162 H   0  0  0  0  0  0  0  0  0  0  0  0
    5.8408   13.7852   -2.5348 H   0  0  0  0  0  0  0  0  0  0  0  0
    5.2157   13.3754   -5.1129 H   0  0  0  0  0  0  0  0  0  0  0  0
    7.1747   10.9478   -2.5561 H   0  0  0  0  0  0  0  0  0  0  0  0
    7.6350    9.8749   -3.9212 H   0  0  0  0  0  0  0  0  0  0  0  0
    8.1449   11.5973   -3.9212 H   0  0  0  0  0  0  0  0  0  0  0  0
    5.2352    9.4494   -5.0746 H   0  0  0  0  0  0  0  0  0  0  0  0
    4.9139   10.8875   -6.1018 H   0  0  0  0  0  0  0  0  0  0  0  0
    6.5424   10.1296   -6.1018 H   0  0  0  0  0  0  0  0  0  0  0  0
    4.9830   14.6341   -1.8972 H   0  0  0  0  0  0  0  0  0  0  0  0
    4.6380   16.2250   -0.1136 H   0  0  0  0  0  0  0  0  0  0  0  0
    4.1055   17.4907   -1.2412 H   0  0  0  0  0  0  0  0  0  0  0  0
    2.3970   15.9522    0.4555 H   0  0  0  0  0  0  0  0  0  0  0  0
    1.8291   16.9147   -0.9062 H   0  0  0  0  0  0  0  0  0  0  0  0
    2.6740   13.9175    0.5575 H   0  0  0  0  0  0  0  0  0  0  0  0
    2.2932   12.7123   -0.7188 H   0  0  0  0  0  0  0  0  0  0  0  0
    3.8829   13.5485   -0.7188 H   0  0  0  0  0  0  0  0  0  0  0  0
    0.4128   15.4639   -2.2312 H   0  0  0  0  0  0  0  0  0  0  0  0
    0.1817   14.9835    0.2891 H   0  0  0  0  0  0  0  0  0  0  0  0
   -1.2170   14.6857   -0.8701 H   0  0  0  0  0  0  0  0  0  0  0  0
   -0.8215   12.8475    0.9757 H   0  0  0  0  0  0  0  0  0  0  0  0
    1.5760   11.7020   -2.0638 H   0  0  0  0  0  0  0  0  0  0  0  0
   -1.2758   11.1236   -3.0791 H   0  0  0  0  0  0  0  0  0  0  0  0
    0.2815   10.8421   -3.9770 H   0  0  0  0  0  0  0  0  0  0  0  0
   -0.6528    8.7506   -3.0432 H   0  0  0  0  0  0  0  0  0  0  0  0
    0.9581    9.1792   -2.3444 H   0  0  0  0  0  0  0  0  0  0  0  0
   -0.4720    8.4200   -0.5742 H   0  0  0  0  0  0  0  0  0  0  0  0
   -2.2590   10.5910   -1.0170 H   0  0  0  0  0  0  0  0  0  0  0  0
    1.5266   10.0012    1.3903 H   0  0  0  0  0  0  0  0  0  0  0  0
    1.5982    9.0468   -0.1298 H   0  0  0  0  0  0  0  0  0  0  0  0
    2.0909   10.7742   -0.1298 H   0  0  0  0  0  0  0  0  0  0  0  0
   -0.1328   10.4491    2.1505 H   0  0  0  0  0  0  0  0  0  0  0  0
   -1.5340   11.2542    1.3662 H   0  0  0  0  0  0  0  0  0  0  0  0
   -1.4124    9.4621    1.3662 H   0  0  0  0  0  0  0  0  0  0  0  0
   -1.6558   13.7774   -2.6799 H   0  0  0  0  0  0  0  0  0  0  0  0
   -0.8361   14.5350   -4.0873 H   0  0  0  0  0  0  0  0  0  0  0  0
   -1.1736   12.7707   -4.0873 H   0  0  0  0  0  0  0  0  0  0  0  0
    1.5870   12.3959   -4.4069 H   0  0  0  0  0  0  0  0  0  0  0  0
    1.2123   14.1958   -4.6381 H   0  0  0  0  0  0  0  0  0  0  0  0
    3.4421   12.9678   -2.9925 H   0  0  0  0  0  0  0  0  0  0  0  0
    3.5661   13.9704   -4.4914 H   0  0  0  0  0  0  0  0  0  0  0  0
    2.0427   17.0223   -2.9514 H   0  0  0  0  0  0  0  0  0  0  0  0
    3.2341   16.6362   -4.2390 H   0  0  0  0  0  0  0  0  0  0  0  0
    1.6228   15.8423   -4.2390 H   0  0  0  0  0  0  0  0  0  0  0  0
  1  2  1  0
  2  3  1  0
  3  4  1  0
  4  5  1  0
  5  6  1  0
  6  7  1  0
  7  8  1  0
  7  9  1  0
  2 10  1  0
 10 11  1  0
 11 12  1  0
 12 13  1  0
 13 14  1  1
 13 15  1  0
 15 16  1  0
 16 17  1  0
 17 18  2  0
 18 19  1  0
 19 20  1  0
 20 21  1  0
 21 22  1  0
 22 23  1  0
 22 24  1  0
 24 25  1  0
 24 26  1  0
 19 27  1  0
 27 28  1  6
 27 29  1  0
 29 30  1  0
 30 31  1  0
 31 32  1  6
  7  5  1  0
 31 10  1  0
 31 13  1  0
 27 15  1  0
 24 18  1  0
  1 33  1  0
  1 34  1  0
  1 35  1  0
  2 36  1  1
  3 37  1  0
  3 38  1  0
  4 39  1  0
  4 40  1  0
  5 41  1  6
  8 42  1  0
  8 43  1  0
  8 44  1  0
  9 45  1  0
  9 46  1  0
  9 47  1  0
 10 48  1  1
 11 49  1  0
 11 50  1  0
 12 51  1  0
 12 52  1  0
 14 53  1  0
 14 54  1  0
 14 55  1  0
 15 56  1  6
 16 57  1  0
 16 58  1  0
 17 59  1  0
 19 60  1  1
 20 61  1  0
 20 62  1  0
 21 63  1  0
 21 64  1  0
 22 65  1  1
 23 66  1  0
 25 67  1  0
 25 68  1  0
 25 69  1  0
 26 70  1  0
 26 71  1  0
 26 72  1  0
 28 73  1  0
 28 74  1  0
 28 75  1  0
 29 76  1  0
 29 77  1  0
 30 78  1  0
 30 79  1  0
 32 80  1  0
 32 81  1  0
 32 82  1  0
M  END
>  <meeko>  (19) 
{"is_sidechain": [false], "intermolecular_energy": 2.731, "internal_energy": -0.839}

$$$$
EPH_relaxed_0001_pdb2pqr_Repair_319_r2_0001_out
     RDKit          3D

 82 86  0  0  0  0  0  0  0  0999 V2000
    0.9990    8.8740   -0.0060 C   0  0  0  0  0  0  0  0  0  0  0  0
    0.0500    9.3950   -1.0880 C   0  0  2  0  0  0  0  0  0  0  0  0
   -0.4090    8.2780   -2.0460 C   0  0  0  0  0  0  0  0  0  0  0  0
   -1.8890    7.9110   -1.9000 C   0  0  0  0  0  0  0  0  0  0  0  0
   -2.6600    8.9890   -1.2010 C   0  0  2  0  0  0  0  0  0  0  0  0
   -2.9590    8.7150    0.1740 O   0  0  0  0  0  0  0  0  0  0  0  0
   -4.0860    8.8140   -0.7120 C   0  0  0  0  0  0  0  0  0  0  0  0
   -4.8240    7.5270   -0.9030 C   0  0  0  0  0  0  0  0  0  0  0  0
   -4.9210   10.0370   -0.4900 C   0  0  0  0  0  0  0  0  0  0  0  0
    0.7240   10.5120   -1.8760 C   0  0  1  0  0  0  0  0  0  0  0  0
    0.4110   10.4450   -3.3950 C   0  0  0  0  0  0  0  0  0  0  0  0
    0.3300   11.9080   -3.9000 C   0  0  0  0  0  0  0  0  0  0  0  0
    0.9210   12.7530   -2.7470 C   0  0  1  0  0  0  0  0  0  0  0  0
    2.4680   12.6450   -2.9220 C   0  0  0  0  0  0  0  0  0  0  0  0
    0.4510   14.2420   -2.6700 C   0  0  2  0  0  0  0  0  0  0  0  0
    0.8290   15.1090   -3.8830 C   0  0  0  0  0  0  0  0  0  0  0  0
    2.1420   15.8110   -3.7820 C   0  0  0  0  0  0  0  0  0  0  0  0
    2.8530   15.9800   -2.6510 C   0  0  0  0  0  0  0  0  0  0  0  0
    2.2980   15.5230   -1.2960 C   0  0  1  0  0  0  0  0  0  0  0  0
    2.5040   16.6470   -0.2470 C   0  0  0  0  0  0  0  0  0  0  0  0
    3.9560   17.1060   -0.1580 C   0  0  0  0  0  0  0  0  0  0  0  0
    4.4530   17.6070   -1.5110 C   0  0  2  0  0  0  0  0  0  0  0  0
    3.7440   18.8040   -1.8490 O   0  0  0  0  0  0  0  0  0  0  0  0
    4.2880   16.5630   -2.6500 C   0  0  0  0  0  0  0  0  0  0  0  0
    5.2850   15.3970   -2.4360 C   0  0  0  0  0  0  0  0  0  0  0  0
    4.6950   17.2430   -3.9850 C   0  0  0  0  0  0  0  0  0  0  0  0
    0.8100   14.9650   -1.3090 C   0  0  1  0  0  0  0  0  0  0  0  0
   -0.2010   16.1410   -1.1490 C   0  0  0  0  0  0  0  0  0  0  0  0
    0.6020   14.0280   -0.0600 C   0  0  0  0  0  0  0  0  0  0  0  0
    0.9720   12.5430   -0.2360 C   0  0  0  0  0  0  0  0  0  0  0  0
    0.3460   11.9690   -1.5110 C   0  0  2  0  0  0  0  0  0  0  0  0
   -1.2110   12.0440   -1.3540 C   0  0  0  0  0  0  0  0  0  0  0  0
    0.5837    9.1020    0.9867 H   0  0  0  0  0  0  0  0  0  0  0  0
    1.1154    7.7855   -0.1136 H   0  0  0  0  0  0  0  0  0  0  0  0
    1.9799    9.3601   -0.1136 H   0  0  0  0  0  0  0  0  0  0  0  0
   -0.8459    9.7842   -0.5822 H   0  0  0  0  0  0  0  0  0  0  0  0
   -0.2346    8.6132   -3.0791 H   0  0  0  0  0  0  0  0  0  0  0  0
    0.1716    7.3787   -1.7928 H   0  0  0  0  0  0  0  0  0  0  0  0
   -2.3187    7.7569   -2.9008 H   0  0  0  0  0  0  0  0  0  0  0  0
   -1.9574    6.9937   -1.2967 H   0  0  0  0  0  0  0  0  0  0  0  0
   -2.1811    9.7644   -1.8169 H   0  0  0  0  0  0  0  0  0  0  0  0
   -5.0708    7.0966    0.0788 H   0  0  0  0  0  0  0  0  0  0  0  0
   -5.7511    7.7157   -1.4641 H   0  0  0  0  0  0  0  0  0  0  0  0
   -4.1928    6.8222   -1.4641 H   0  0  0  0  0  0  0  0  0  0  0  0
   -5.0388   10.2095    0.5900 H   0  0  0  0  0  0  0  0  0  0  0  0
   -4.4271   10.9064   -0.9485 H   0  0  0  0  0  0  0  0  0  0  0  0
   -5.9106    9.8935   -0.9485 H   0  0  0  0  0  0  0  0  0  0  0  0
    1.7733   10.3174   -1.6091 H   0  0  0  0  0  0  0  0  0  0  0  0
    1.2112    9.9057   -3.9232 H   0  0  0  0  0  0  0  0  0  0  0  0
   -0.5323    9.9104   -3.5806 H   0  0  0  0  0  0  0  0  0  0  0  0
    0.9228   12.0352   -4.8178 H   0  0  0  0  0  0  0  0  0  0  0  0
   -0.6988   12.2062   -4.1504 H   0  0  0  0  0  0  0  0  0  0  0  0
    2.9475   12.6115   -1.9326 H   0  0  0  0  0  0  0  0  0  0  0  0
    2.7109   11.7277   -3.4784 H   0  0  0  0  0  0  0  0  0  0  0  0
    2.8360   13.5196   -3.4784 H   0  0  0  0  0  0  0  0  0  0  0  0
   -0.6443   14.1455   -2.7015 H   0  0  0  0  0  0  0  0  0  0  0  0
    0.8591   14.4583   -4.7694 H   0  0  0  0  0  0  0  0  0  0  0  0
    0.0659   15.8991   -3.9412 H   0  0  0  0  0  0  0  0  0  0  0  0
    2.5645   16.2252   -4.7093 H   0  0  0  0  0  0  0  0  0  0  0  0
    2.8819   14.6353   -1.0114 H   0  0  0  0  0  0  0  0  0  0  0  0
    1.8786   17.5080   -0.5255 H   0  0  0  0  0  0  0  0  0  0  0  0
    2.2213   16.2419    0.7359 H   0  0  0  0  0  0  0  0  0  0  0  0
    4.0318   17.9204    0.5775 H   0  0  0  0  0  0  0  0  0  0  0  0
    4.5764   16.2513    0.1496 H   0  0  0  0  0  0  0  0  0  0  0  0
    5.5320   17.7980   -1.4150 H   0  0  0  0  0  0  0  0  0  0  0  0
    4.2590   19.5560   -1.5110 H   0  0  0  0  0  0  0  0  0  0  0  0
    5.4279   15.2299   -1.3582 H   0  0  0  0  0  0  0  0  0  0  0  0
    4.8849   14.4829   -2.8989 H   0  0  0  0  0  0  0  0  0  0  0  0
    6.2502   15.6502   -2.8989 H   0  0  0  0  0  0  0  0  0  0  0  0
    5.2491   18.1688   -3.7709 H   0  0  0  0  0  0  0  0  0  0  0  0
    5.3328   16.5597   -4.5650 H   0  0  0  0  0  0  0  0  0  0  0  0
    3.7915   17.4823   -4.5650 H   0  0  0  0  0  0  0  0  0  0  0  0
   -0.3694   16.3369   -0.0798 H   0  0  0  0  0  0  0  0  0  0  0  0
    0.2076   17.0434   -1.6272 H   0  0  0  0  0  0  0  0  0  0  0  0
   -1.1545   15.8724   -1.6272 H   0  0  0  0  0  0  0  0  0  0  0  0
    1.2140   14.4282    0.7618 H   0  0  0  0  0  0  0  0  0  0  0  0
   -0.4820   14.0342    0.1269 H   0  0  0  0  0  0  0  0  0  0  0  0
    2.0662   12.4499   -0.2990 H   0  0  0  0  0  0  0  0  0  0  0  0
    0.5867   11.9809    0.6275 H   0  0  0  0  0  0  0  0  0  0  0  0
   -1.4716   12.0566   -0.2854 H   0  0  0  0  0  0  0  0  0  0  0  0
   -1.5841   12.9612   -1.8332 H   0  0  0  0  0  0  0  0  0  0  0  0
   -1.6705   11.1669   -1.8332 H   0  0  0  0  0  0  0  0  0  0  0  0
  1  2  1  0
  2  3  1  0
  3  4  1  0
  4  5  1  0
  5  6  1  0
  6  7  1  0
  7  8  1  0
  7  9  1  0
  2 10  1  0
 10 11  1  0
 11 12  1  0
 12 13  1  0
 13 14  1  1
 13 15  1  0
 15 16  1  0
 16 17  1  0
 17 18  2  0
 18 19  1  0
 19 20  1  0
 20 21  1  0
 21 22  1  0
 22 23  1  0
 22 24  1  0
 24 25  1  0
 24 26  1  0
 19 27  1  0
 27 28  1  1
 27 29  1  0
 29 30  1  0
 30 31  1  0
 31 32  1  1
  7  5  1  0
 31 10  1  0
 31 13  1  0
 27 15  1  0
 24 18  1  0
  1 33  1  0
  1 34  1  0
  1 35  1  0
  2 36  1  1
  3 37  1  0
  3 38  1  0
  4 39  1  0
  4 40  1  0
  5 41  1  1
  8 42  1  0
  8 43  1  0
  8 44  1  0
  9 45  1  0
  9 46  1  0
  9 47  1  0
 10 48  1  6
 11 49  1  0
 11 50  1  0
 12 51  1  0
 12 52  1  0
 14 53  1  0
 14 54  1  0
 14 55  1  0
 15 56  1  1
 16 57  1  0
 16 58  1  0
 17 59  1  0
 19 60  1  1
 20 61  1  0
 20 62  1  0
 21 63  1  0
 21 64  1  0
 22 65  1  1
 23 66  1  0
 25 67  1  0
 25 68  1  0
 25 69  1  0
 26 70  1  0
 26 71  1  0
 26 72  1  0
 28 73  1  0
 28 74  1  0
 28 75  1  0
 29 76  1  0
 29 77  1  0
 30 78  1  0
 30 79  1  0
 32 80  1  0
 32 81  1  0
 32 82  1  0
M  END
>  <meeko>  (20) 
{"is_sidechain": [false], "intermolecular_energy": 2.731, "internal_energy": -0.839}

$$$$
