EPH_relaxed_0001_pdb2pqr_Repair_366_r2_0001_out
     RDKit          3D

 82 86  0  0  0  0  0  0  0  0999 V2000
    1.9330   19.6740   -0.5930 C   0  0  0  0  0  0  0  0  0  0  0  0
    2.3370   18.4480    0.2310 C   0  0  2  0  0  0  0  0  0  0  0  0
    3.7950   18.0230   -0.0370 C   0  0  0  0  0  0  0  0  0  0  0  0
    4.6860   18.0610    1.2080 C   0  0  0  0  0  0  0  0  0  0  0  0
    4.0910   18.9110    2.2900 C   0  0  2  0  0  0  0  0  0  0  0  0
    4.8490   20.0840    2.6150 O   0  0  0  0  0  0  0  0  0  0  0  0
    4.7290   19.0980    3.6540 C   0  0  0  0  0  0  0  0  0  0  0  0
    6.0190   18.4280    4.0090 C   0  0  0  0  0  0  0  0  0  0  0  0
    3.8630   19.5280    4.7960 C   0  0  0  0  0  0  0  0  0  0  0  0
    1.3940   17.2880   -0.0660 C   0  0  1  0  0  0  0  0  0  0  0  0
    0.1340   17.7300   -0.8570 C   0  0  0  0  0  0  0  0  0  0  0  0
   -0.2270   16.5620   -1.8110 C   0  0  0  0  0  0  0  0  0  0  0  0
    0.6220   15.3710   -1.3080 C   0  0  1  0  0  0  0  0  0  0  0  0
   -0.1750   14.7940   -0.0960 C   0  0  0  0  0  0  0  0  0  0  0  0
    0.9510   14.2640   -2.3620 C   0  0  2  0  0  0  0  0  0  0  0  0
   -0.2700   13.5250   -2.9360 C   0  0  0  0  0  0  0  0  0  0  0  0
   -0.6820   12.2990   -2.1910 C   0  0  0  0  0  0  0  0  0  0  0  0
    0.0660   11.6490   -1.2790 C   0  0  0  0  0  0  0  0  0  0  0  0
    1.5080   12.0860   -0.9880 C   0  0  1  0  0  0  0  0  0  0  0  0
    2.4310   10.8400   -0.9630 C   0  0  0  0  0  0  0  0  0  0  0  0
    1.9400    9.7660    0.0030 C   0  0  0  0  0  0  0  0  0  0  0  0
    0.5260    9.3170   -0.3540 C   0  0  2  0  0  0  0  0  0  0  0  0
    0.5620    8.6410   -1.6150 O   0  0  0  0  0  0  0  0  0  0  0  0
   -0.4920   10.4890   -0.4190 C   0  0  0  0  0  0  0  0  0  0  0  0
   -0.7580   11.0270    1.0090 C   0  0  0  0  0  0  0  0  0  0  0  0
   -1.8450    9.9200   -0.9260 C   0  0  0  0  0  0  0  0  0  0  0  0
    2.0780   13.2510   -1.9060 C   0  0  1  0  0  0  0  0  0  0  0  0
    2.6900   12.6500   -3.2090 C   0  0  0  0  0  0  0  0  0  0  0  0
    3.2590   13.9690   -1.1520 C   0  0  0  0  0  0  0  0  0  0  0  0
    2.8800   15.1330   -0.2160 C   0  0  0  0  0  0  0  0  0  0  0  0
    1.9480   16.1220   -0.9220 C   0  0  2  0  0  0  0  0  0  0  0  0
    2.7300   16.7350   -2.1330 C   0  0  0  0  0  0  0  0  0  0  0  0
    1.6616   20.4975    0.0839 H   0  0  0  0  0  0  0  0  0  0  0  0
    2.7766   19.9836   -1.2274 H   0  0  0  0  0  0  0  0  0  0  0  0
    1.0706   19.4215   -1.2274 H   0  0  0  0  0  0  0  0  0  0  0  0
    2.2633   18.7246    1.2931 H   0  0  0  0  0  0  0  0  0  0  0  0
    3.7906   16.9955   -0.4297 H   0  0  0  0  0  0  0  0  0  0  0  0
    4.2136   18.7446   -0.7540 H   0  0  0  0  0  0  0  0  0  0  0  0
    4.8114   17.0364    1.5880 H   0  0  0  0  0  0  0  0  0  0  0  0
    5.6548   18.4971    0.9231 H   0  0  0  0  0  0  0  0  0  0  0  0
    3.0729   18.6279    1.9846 H   0  0  0  0  0  0  0  0  0  0  0  0
    6.1168   18.3772    5.1035 H   0  0  0  0  0  0  0  0  0  0  0  0
    6.0303   17.4101    3.5922 H   0  0  0  0  0  0  0  0  0  0  0  0
    6.8583   19.0042    3.5922 H   0  0  0  0  0  0  0  0  0  0  0  0
    4.3597   19.2814    5.7460 H   0  0  0  0  0  0  0  0  0  0  0  0
    3.6958   20.6138    4.7408 H   0  0  0  0  0  0  0  0  0  0  0  0
    2.8969   19.0049    4.7408 H   0  0  0  0  0  0  0  0  0  0  0  0
    1.1995   16.9414    0.9597 H   0  0  0  0  0  0  0  0  0  0  0  0
   -0.6986   17.9253   -0.1651 H   0  0  0  0  0  0  0  0  0  0  0  0
    0.3252   18.6555   -1.4200 H   0  0  0  0  0  0  0  0  0  0  0  0
   -1.3000   16.3276   -1.7492 H   0  0  0  0  0  0  0  0  0  0  0  0
   -0.0223   16.8050   -2.8641 H   0  0  0  0  0  0  0  0  0  0  0  0
    0.2900   15.1306    0.8423 H   0  0  0  0  0  0  0  0  0  0  0  0
   -1.2150   15.1499   -0.1382 H   0  0  0  0  0  0  0  0  0  0  0  0
   -0.1616   13.6949   -0.1382 H   0  0  0  0  0  0  0  0  0  0  0  0
    1.3648   14.8486   -3.1969 H   0  0  0  0  0  0  0  0  0  0  0  0
   -1.1199   14.2233   -2.9377 H   0  0  0  0  0  0  0  0  0  0  0  0
    0.0241   13.1861   -3.9403 H   0  0  0  0  0  0  0  0  0  0  0  0
   -1.6812   11.8919   -2.4050 H   0  0  0  0  0  0  0  0  0  0  0  0
    1.4892   12.5559    0.0064 H   0  0  0  0  0  0  0  0  0  0  0  0
    2.4719   10.4114   -1.9752 H   0  0  0  0  0  0  0  0  0  0  0  0
    3.4238   11.1674   -0.6208 H   0  0  0  0  0  0  0  0  0  0  0  0
    2.6163    8.8999   -0.0475 H   0  0  0  0  0  0  0  0  0  0  0  0
    1.9289   10.1864    1.0194 H   0  0  0  0  0  0  0  0  0  0  0  0
    0.1811    8.6469    0.4472 H   0  0  0  0  0  0  0  0  0  0  0  0
    1.4680    8.7100   -1.9600 H   0  0  0  0  0  0  0  0  0  0  0  0
   -0.3972   10.2973    1.7488 H   0  0  0  0  0  0  0  0  0  0  0  0
   -0.2277   11.9809    1.1461 H   0  0  0  0  0  0  0  0  0  0  0  0
   -1.8380   11.1848    1.1461 H   0  0  0  0  0  0  0  0  0  0  0  0
   -2.4766    9.6544   -0.0655 H   0  0  0  0  0  0  0  0  0  0  0  0
   -2.3566   10.6792   -1.5358 H   0  0  0  0  0  0  0  0  0  0  0  0
   -1.6602    9.0234   -1.5358 H   0  0  0  0  0  0  0  0  0  0  0  0
    3.4519   11.9018   -2.9450 H   0  0  0  0  0  0  0  0  0  0  0  0
    1.8955   12.1714   -3.8004 H   0  0  0  0  0  0  0  0  0  0  0  0
    3.1541   13.4530   -3.8004 H   0  0  0  0  0  0  0  0  0  0  0  0
    3.7774   13.2106   -0.5469 H   0  0  0  0  0  0  0  0  0  0  0  0
    3.8716   14.4243   -1.9441 H   0  0  0  0  0  0  0  0  0  0  0  0
    2.3710   14.7298    0.6719 H   0  0  0  0  0  0  0  0  0  0  0  0
    3.7989   15.6631    0.0748 H   0  0  0  0  0  0  0  0  0  0  0  0
    3.5440   17.3731   -1.7586 H   0  0  0  0  0  0  0  0  0  0  0  0
    3.1516   15.9243   -2.7454 H   0  0  0  0  0  0  0  0  0  0  0  0
    2.0435   17.3380   -2.7454 H   0  0  0  0  0  0  0  0  0  0  0  0
  1  2  1  0
  2  3  1  0
  3  4  1  0
  4  5  1  0
  5  6  1  0
  6  7  1  0
  7  8  1  0
  7  9  1  0
  2 10  1  0
 10 11  1  0
 11 12  1  0
 12 13  1  0
 13 14  1  1
 13 15  1  0
 15 16  1  0
 16 17  1  0
 17 18  2  0
 18 19  1  0
 19 20  1  0
 20 21  1  0
 21 22  1  0
 22 23  1  0
 22 24  1  0
 24 25  1  0
 24 26  1  0
 19 27  1  0
 27 28  1  6
 27 29  1  0
 29 30  1  0
 30 31  1  0
 31 32  1  6
  7  5  1  0
 31 10  1  0
 31 13  1  0
 27 15  1  0
 24 18  1  0
  1 33  1  0
  1 34  1  0
  1 35  1  0
  2 36  1  1
  3 37  1  0
  3 38  1  0
  4 39  1  0
  4 40  1  0
  5 41  1  1
  8 42  1  0
  8 43  1  0
  8 44  1  0
  9 45  1  0
  9 46  1  0
  9 47  1  0
 10 48  1  1
 11 49  1  0
 11 50  1  0
 12 51  1  0
 12 52  1  0
 14 53  1  0
 14 54  1  0
 14 55  1  0
 15 56  1  6
 16 57  1  0
 16 58  1  0
 17 59  1  0
 19 60  1  1
 20 61  1  0
 20 62  1  0
 21 63  1  0
 21 64  1  0
 22 65  1  1
 23 66  1  0
 25 67  1  0
 25 68  1  0
 25 69  1  0
 26 70  1  0
 26 71  1  0
 26 72  1  0
 28 73  1  0
 28 74  1  0
 28 75  1  0
 29 76  1  0
 29 77  1  0
 30 78  1  0
 30 79  1  0
 32 80  1  0
 32 81  1  0
 32 82  1  0
M  END
>  <meeko>  (1) 
{"is_sidechain": [false], "intermolecular_energy": 2.731, "internal_energy": -0.839}

$$$$
EPH_relaxed_0001_pdb2pqr_Repair_366_r2_0001_out
     RDKit          3D

 82 86  0  0  0  0  0  0  0  0999 V2000
    2.3650   18.0460   -2.7350 C   0  0  0  0  0  0  0  0  0  0  0  0
    1.0630   17.6840   -2.0150 C   0  0  2  0  0  0  0  0  0  0  0  0
    1.2060   17.7610   -0.4820 C   0  0  0  0  0  0  0  0  0  0  0  0
    0.8820   19.1390    0.0990 C   0  0  0  0  0  0  0  0  0  0  0  0
   -0.5450   19.2290    0.5510 C   0  0  2  0  0  0  0  0  0  0  0  0
   -1.4280   18.2820   -0.0650 O   0  0  0  0  0  0  0  0  0  0  0  0
   -1.6830   19.6660   -0.3530 C   0  0  0  0  0  0  0  0  0  0  0  0
   -1.4440   20.0450   -1.7810 C   0  0  0  0  0  0  0  0  0  0  0  0
   -2.9340   20.1930    0.2780 C   0  0  0  0  0  0  0  0  0  0  0  0
    0.6120   16.2880   -2.4280 C   0  0  1  0  0  0  0  0  0  0  0  0
    0.6810   16.0670   -3.9620 C   0  0  0  0  0  0  0  0  0  0  0  0
    1.0830   14.5860   -4.1830 C   0  0  0  0  0  0  0  0  0  0  0  0
    0.9080   13.9230   -2.7960 C   0  0  1  0  0  0  0  0  0  0  0  0
   -0.6200   13.6240   -2.6850 C   0  0  0  0  0  0  0  0  0  0  0  0
    1.7680   12.6460   -2.5280 C   0  0  2  0  0  0  0  0  0  0  0  0
    1.4730   11.4540   -3.4550 C   0  0  0  0  0  0  0  0  0  0  0  0
    0.4260   10.5090   -2.9670 C   0  0  0  0  0  0  0  0  0  0  0  0
   -0.0490   10.4500   -1.7090 C   0  0  0  0  0  0  0  0  0  0  0  0
    0.5450   11.3300   -0.6010 C   0  0  1  0  0  0  0  0  0  0  0  0
    0.7980   10.4680    0.6640 C   0  0  0  0  0  0  0  0  0  0  0  0
   -0.4500    9.7180    1.1210 C   0  0  0  0  0  0  0  0  0  0  0  0
   -0.9760    8.8110    0.0120 C   0  0  2  0  0  0  0  0  0  0  0  0
   -0.0250    7.7680   -0.2210 O   0  0  0  0  0  0  0  0  0  0  0  0
   -1.2590    9.5670   -1.3160 C   0  0  0  0  0  0  0  0  0  0  0  0
   -2.4940   10.4850   -1.1400 C   0  0  0  0  0  0  0  0  0  0  0  0
   -1.6490    8.5160   -2.3900 C   0  0  0  0  0  0  0  0  0  0  0  0
    1.8100   12.2000   -1.0100 C   0  0  1  0  0  0  0  0  0  0  0  0
    3.1130   11.3630   -0.8280 C   0  0  0  0  0  0  0  0  0  0  0  0
    1.9300   13.4260   -0.0300 C   0  0  0  0  0  0  0  0  0  0  0  0
    1.1520   14.7000   -0.4120 C   0  0  0  0  0  0  0  0  0  0  0  0
    1.4170   15.0870   -1.8700 C   0  0  2  0  0  0  0  0  0  0  0  0
    2.9420   15.4160   -2.0080 C   0  0  0  0  0  0  0  0  0  0  0  0
    3.1466   18.2633   -1.9921 H   0  0  0  0  0  0  0  0  0  0  0  0
    2.6825   17.2020   -3.3651 H   0  0  0  0  0  0  0  0  0  0  0  0
    2.2013   18.9327   -3.3651 H   0  0  0  0  0  0  0  0  0  0  0  0
    0.3039   18.4226   -2.3121 H   0  0  0  0  0  0  0  0  0  0  0  0
    0.5228   17.0255   -0.0324 H   0  0  0  0  0  0  0  0  0  0  0  0
    2.2605   17.5537   -0.2473 H   0  0  0  0  0  0  0  0  0  0  0  0
    1.5410   19.3270    0.9595 H   0  0  0  0  0  0  0  0  0  0  0  0
    1.0397   19.8893   -0.6898 H   0  0  0  0  0  0  0  0  0  0  0  0
   -0.2321   19.5559    1.5536 H   0  0  0  0  0  0  0  0  0  0  0  0
   -0.8576   20.9748   -1.8204 H   0  0  0  0  0  0  0  0  0  0  0  0
   -0.8897   19.2403   -2.2861 H   0  0  0  0  0  0  0  0  0  0  0  0
   -2.4091   20.1984   -2.2861 H   0  0  0  0  0  0  0  0  0  0  0  0
   -2.8375   20.1524    1.3730 H   0  0  0  0  0  0  0  0  0  0  0  0
   -3.0932   21.2346   -0.0377 H   0  0  0  0  0  0  0  0  0  0  0  0
   -3.7905   19.5792   -0.0377 H   0  0  0  0  0  0  0  0  0  0  0  0
   -0.4036   16.2897   -2.0054 H   0  0  0  0  0  0  0  0  0  0  0  0
   -0.3003   16.2652   -4.4178 H   0  0  0  0  0  0  0  0  0  0  0  0
    1.4096   16.7476   -4.4267 H   0  0  0  0  0  0  0  0  0  0  0  0
    0.4249   14.1117   -4.9260 H   0  0  0  0  0  0  0  0  0  0  0  0
    2.1088   14.4850   -4.5672 H   0  0  0  0  0  0  0  0  0  0  0  0
   -0.9066   13.5679   -1.6245 H   0  0  0  0  0  0  0  0  0  0  0  0
   -1.1876   14.4281   -3.1762 H   0  0  0  0  0  0  0  0  0  0  0  0
   -0.8426   12.6653   -3.1762 H   0  0  0  0  0  0  0  0  0  0  0  0
    2.7811   12.9849   -2.7901 H   0  0  0  0  0  0  0  0  0  0  0  0
    1.1448   11.8523   -4.4264 H   0  0  0  0  0  0  0  0  0  0  0  0
    2.4054   10.8729   -3.5085 H   0  0  0  0  0  0  0  0  0  0  0  0
    0.0071    9.8009   -3.6971 H   0  0  0  0  0  0  0  0  0  0  0  0
   -0.2114   12.0987   -0.3840 H   0  0  0  0  0  0  0  0  0  0  0  0
    1.5871    9.7353    0.4393 H   0  0  0  0  0  0  0  0  0  0  0  0
    1.0953   11.1472    1.4766 H   0  0  0  0  0  0  0  0  0  0  0  0
   -0.2005    9.1051    1.9997 H   0  0  0  0  0  0  0  0  0  0  0  0
   -1.2289   10.4524    1.3739 H   0  0  0  0  0  0  0  0  0  0  0  0
   -1.9392    8.4016    0.3505 H   0  0  0  0  0  0  0  0  0  0  0  0
   -0.5200    6.9660   -0.4590 H   0  0  0  0  0  0  0  0  0  0  0  0
   -2.6918   10.6320   -0.0680 H   0  0  0  0  0  0  0  0  0  0  0  0
   -2.2979   11.4583   -1.6135 H   0  0  0  0  0  0  0  0  0  0  0  0
   -3.3695   10.0167   -1.6135 H   0  0  0  0  0  0  0  0  0  0  0  0
   -1.9907    7.5951   -1.8948 H   0  0  0  0  0  0  0  0  0  0  0  0
   -2.4584    8.9166   -3.0181 H   0  0  0  0  0  0  0  0  0  0  0  0
   -0.7743    8.2916   -3.0181 H   0  0  0  0  0  0  0  0  0  0  0  0
    3.3175   11.2316    0.2448 H   0  0  0  0  0  0  0  0  0  0  0  0
    2.9849   10.3778   -1.3002 H   0  0  0  0  0  0  0  0  0  0  0  0
    3.9557   11.8891   -1.3002 H   0  0  0  0  0  0  0  0  0  0  0  0
    1.5699   13.0996    0.9568 H   0  0  0  0  0  0  0  0  0  0  0  0
    2.9905   13.7164   -0.0611 H   0  0  0  0  0  0  0  0  0  0  0  0
    0.0755   14.5182   -0.2778 H   0  0  0  0  0  0  0  0  0  0  0  0
    1.4869   15.5233    0.2361 H   0  0  0  0  0  0  0  0  0  0  0  0
    3.3883   15.5123   -1.0072 H   0  0  0  0  0  0  0  0  0  0  0  0
    3.4438   14.6054   -2.5568 H   0  0  0  0  0  0  0  0  0  0  0  0
    3.0650   16.3613   -2.5568 H   0  0  0  0  0  0  0  0  0  0  0  0
  1  2  1  0
  2  3  1  0
  3  4  1  0
  4  5  1  0
  5  6  1  0
  6  7  1  0
  7  8  1  0
  7  9  1  0
  2 10  1  0
 10 11  1  0
 11 12  1  0
 12 13  1  0
 13 14  1  1
 13 15  1  0
 15 16  1  0
 16 17  1  0
 17 18  2  0
 18 19  1  0
 19 20  1  0
 20 21  1  0
 21 22  1  0
 22 23  1  0
 22 24  1  0
 24 25  1  0
 24 26  1  0
 19 27  1  0
 27 28  1  6
 27 29  1  0
 29 30  1  0
 30 31  1  0
 31 32  1  1
  7  5  1  0
 31 10  1  0
 31 13  1  0
 27 15  1  0
 24 18  1  0
  1 33  1  0
  1 34  1  0
  1 35  1  0
  2 36  1  6
  3 37  1  0
  3 38  1  0
  4 39  1  0
  4 40  1  0
  5 41  1  1
  8 42  1  0
  8 43  1  0
  8 44  1  0
  9 45  1  0
  9 46  1  0
  9 47  1  0
 10 48  1  1
 11 49  1  0
 11 50  1  0
 12 51  1  0
 12 52  1  0
 14 53  1  0
 14 54  1  0
 14 55  1  0
 15 56  1  6
 16 57  1  0
 16 58  1  0
 17 59  1  0
 19 60  1  1
 20 61  1  0
 20 62  1  0
 21 63  1  0
 21 64  1  0
 22 65  1  1
 23 66  1  0
 25 67  1  0
 25 68  1  0
 25 69  1  0
 26 70  1  0
 26 71  1  0
 26 72  1  0
 28 73  1  0
 28 74  1  0
 28 75  1  0
 29 76  1  0
 29 77  1  0
 30 78  1  0
 30 79  1  0
 32 80  1  0
 32 81  1  0
 32 82  1  0
M  END
>  <meeko>  (2) 
{"is_sidechain": [false], "intermolecular_energy": 2.731, "internal_energy": -0.839}

$$$$
EPH_relaxed_0001_pdb2pqr_Repair_366_r2_0001_out
     RDKit          3D

 82 86  0  0  0  0  0  0  0  0999 V2000
    0.3960   18.4510   -0.0610 C   0  0  0  0  0  0  0  0  0  0  0  0
    1.4820   17.3910   -0.2650 C   0  0  2  0  0  0  0  0  0  0  0  0
    2.7030   17.9490   -1.0240 C   0  0  0  0  0  0  0  0  0  0  0  0
    3.9330   18.1640   -0.1390 C   0  0  0  0  0  0  0  0  0  0  0  0
    3.5540   18.6350    1.2320 C   0  0  2  0  0  0  0  0  0  0  0  0
    3.7950   20.0280    1.4740 O   0  0  0  0  0  0  0  0  0  0  0  0
    4.5620   19.1050    2.2640 C   0  0  0  0  0  0  0  0  0  0  0  0
    6.0290   19.1250    1.9690 C   0  0  0  0  0  0  0  0  0  0  0  0
    4.1720   19.0790    3.7090 C   0  0  0  0  0  0  0  0  0  0  0  0
    0.9070   16.1940   -1.0120 C   0  0  1  0  0  0  0  0  0  0  0  0
    0.7680   16.4510   -2.5360 C   0  0  0  0  0  0  0  0  0  0  0  0
    1.0560   15.1030   -3.2450 C   0  0  0  0  0  0  0  0  0  0  0  0
    1.0220   14.0510   -2.1120 C   0  0  1  0  0  0  0  0  0  0  0  0
   -0.4930   13.7530   -1.8870 C   0  0  0  0  0  0  0  0  0  0  0  0
    1.8370   12.7400   -2.3610 C   0  0  2  0  0  0  0  0  0  0  0  0
    1.3620   11.8930   -3.5540 C   0  0  0  0  0  0  0  0  0  0  0  0
    0.3340   10.8590   -3.2330 C   0  0  0  0  0  0  0  0  0  0  0  0
    0.0200   10.4260   -1.9980 C   0  0  0  0  0  0  0  0  0  0  0  0
    0.7970   10.9160   -0.7700 C   0  0  1  0  0  0  0  0  0  0  0  0
    1.1600    9.7060    0.1300 C   0  0  0  0  0  0  0  0  0  0  0  0
   -0.0590    8.8700    0.5060 C   0  0  0  0  0  0  0  0  0  0  0  0
   -0.7720    8.3520   -0.7400 C   0  0  2  0  0  0  0  0  0  0  0  0
    0.0840    7.4170   -1.4050 O   0  0  0  0  0  0  0  0  0  0  0  0
   -1.1780    9.4820   -1.7280 C   0  0  0  0  0  0  0  0  0  0  0  0
   -2.3280   10.3190   -1.1160 C   0  0  0  0  0  0  0  0  0  0  0  0
   -1.7580    8.8150   -3.0040 C   0  0  0  0  0  0  0  0  0  0  0  0
    2.0470   11.8520   -1.0680 C   0  0  1  0  0  0  0  0  0  0  0  0
    3.3140   10.9810   -1.3270 C   0  0  0  0  0  0  0  0  0  0  0  0
    2.3570   12.7180    0.2100 C   0  0  0  0  0  0  0  0  0  0  0  0
    1.6080   14.0580    0.3390 C   0  0  0  0  0  0  0  0  0  0  0  0
    1.7070   14.8690   -0.9570 C   0  0  2  0  0  0  0  0  0  0  0  0
    3.2190   15.2030   -1.1980 C   0  0  0  0  0  0  0  0  0  0  0  0
    0.2348   18.6083    1.0157 H   0  0  0  0  0  0  0  0  0  0  0  0
    0.7138   19.3958   -0.5261 H   0  0  0  0  0  0  0  0  0  0  0  0
   -0.5408   18.1104   -0.5261 H   0  0  0  0  0  0  0  0  0  0  0  0
    1.8277   17.0762    0.7307 H   0  0  0  0  0  0  0  0  0  0  0  0
    2.9692   17.2403   -1.8221 H   0  0  0  0  0  0  0  0  0  0  0  0
    2.4138   18.9349   -1.4168 H   0  0  0  0  0  0  0  0  0  0  0  0
    4.4793   17.2133   -0.0509 H   0  0  0  0  0  0  0  0  0  0  0  0
    4.5604   18.9375   -0.6060 H   0  0  0  0  0  0  0  0  0  0  0  0
    2.7334   17.9041    1.2820 H   0  0  0  0  0  0  0  0  0  0  0  0
    6.5929   19.1327    2.9135 H   0  0  0  0  0  0  0  0  0  0  0  0
    6.2985   18.2304    1.3883 H   0  0  0  0  0  0  0  0  0  0  0  0
    6.2740   20.0266    1.3883 H   0  0  0  0  0  0  0  0  0  0  0  0
    5.0754   19.1392    4.3337 H   0  0  0  0  0  0  0  0  0  0  0  0
    3.5173   19.9355    3.9276 H   0  0  0  0  0  0  0  0  0  0  0  0
    3.6368   18.1432    3.9276 H   0  0  0  0  0  0  0  0  0  0  0  0
   -0.0447   16.0808   -0.4721 H   0  0  0  0  0  0  0  0  0  0  0  0
   -0.2508   16.7926   -2.7712 H   0  0  0  0  0  0  0  0  0  0  0  0
    1.4682   17.2307   -2.8705 H   0  0  0  0  0  0  0  0  0  0  0  0
    0.2837   14.8876   -3.9981 H   0  0  0  0  0  0  0  0  0  0  0  0
    2.0176   15.1098   -3.7791 H   0  0  0  0  0  0  0  0  0  0  0  0
   -0.7023   13.7118   -0.8079 H   0  0  0  0  0  0  0  0  0  0  0  0
   -1.0957   14.5498   -2.3473 H   0  0  0  0  0  0  0  0  0  0  0  0
   -0.7490   12.7873   -2.3473 H   0  0  0  0  0  0  0  0  0  0  0  0
    2.8262   13.1277   -2.6458 H   0  0  0  0  0  0  0  0  0  0  0  0
    0.9362   12.5736   -4.3059 H   0  0  0  0  0  0  0  0  0  0  0  0
    2.2464   11.3431   -3.9080 H   0  0  0  0  0  0  0  0  0  0  0  0
   -0.2129   10.4135   -4.0771 H   0  0  0  0  0  0  0  0  0  0  0  0
    0.1174   11.5919   -0.2302 H   0  0  0  0  0  0  0  0  0  0  0  0
    1.8733    9.0662   -0.4102 H   0  0  0  0  0  0  0  0  0  0  0  0
    1.5941   10.1005    1.0605 H   0  0  0  0  0  0  0  0  0  0  0  0
    0.2658    8.0145    1.1164 H   0  0  0  0  0  0  0  0  0  0  0  0
   -0.7577    9.5037    1.0718 H   0  0  0  0  0  0  0  0  0  0  0  0
   -1.7056    7.8725   -0.4108 H   0  0  0  0  0  0  0  0  0  0  0  0
    1.0020    7.6790   -1.2260 H   0  0  0  0  0  0  0  0  0  0  0  0
   -2.2689   10.2760   -0.0184 H   0  0  0  0  0  0  0  0  0  0  0  0
   -2.2375   11.3640   -1.4474 H   0  0  0  0  0  0  0  0  0  0  0  0
   -3.2946    9.9116   -1.4474 H   0  0  0  0  0  0  0  0  0  0  0  0
   -2.4544    8.0141   -2.7149 H   0  0  0  0  0  0  0  0  0  0  0  0
   -2.2930    9.5684   -3.6007 H   0  0  0  0  0  0  0  0  0  0  0  0
   -0.9376    8.3898   -3.6007 H   0  0  0  0  0  0  0  0  0  0  0  0
    3.7539   10.6786   -0.3652 H   0  0  0  0  0  0  0  0  0  0  0  0
    3.0322   10.0848   -1.8993 H   0  0  0  0  0  0  0  0  0  0  0  0
    4.0498   11.5651   -1.8993 H   0  0  0  0  0  0  0  0  0  0  0  0
    2.1069   12.1106    1.0923 H   0  0  0  0  0  0  0  0  0  0  0  0
    3.4195   12.9891    0.1234 H   0  0  0  0  0  0  0  0  0  0  0  0
    0.5488   13.8584    0.5585 H   0  0  0  0  0  0  0  0  0  0  0  0
    2.0670   14.6393    1.1522 H   0  0  0  0  0  0  0  0  0  0  0  0
    3.7285   15.3156   -0.2296 H   0  0  0  0  0  0  0  0  0  0  0  0
    3.6886   14.3869   -1.7668 H   0  0  0  0  0  0  0  0  0  0  0  0
    3.3012   16.1410   -1.7668 H   0  0  0  0  0  0  0  0  0  0  0  0
  1  2  1  0
  2  3  1  0
  3  4  1  0
  4  5  1  0
  5  6  1  0
  6  7  1  0
  7  8  1  0
  7  9  1  0
  2 10  1  0
 10 11  1  0
 11 12  1  0
 12 13  1  0
 13 14  1  1
 13 15  1  0
 15 16  1  0
 16 17  1  0
 17 18  2  0
 18 19  1  0
 19 20  1  0
 20 21  1  0
 21 22  1  0
 22 23  1  0
 22 24  1  0
 24 25  1  0
 24 26  1  0
 19 27  1  0
 27 28  1  6
 27 29  1  0
 29 30  1  0
 30 31  1  0
 31 32  1  6
  7  5  1  0
 31 10  1  0
 31 13  1  0
 27 15  1  0
 24 18  1  0
  1 33  1  0
  1 34  1  0
  1 35  1  0
  2 36  1  1
  3 37  1  0
  3 38  1  0
  4 39  1  0
  4 40  1  0
  5 41  1  1
  8 42  1  0
  8 43  1  0
  8 44  1  0
  9 45  1  0
  9 46  1  0
  9 47  1  0
 10 48  1  1
 11 49  1  0
 11 50  1  0
 12 51  1  0
 12 52  1  0
 14 53  1  0
 14 54  1  0
 14 55  1  0
 15 56  1  6
 16 57  1  0
 16 58  1  0
 17 59  1  0
 19 60  1  1
 20 61  1  0
 20 62  1  0
 21 63  1  0
 21 64  1  0
 22 65  1  1
 23 66  1  0
 25 67  1  0
 25 68  1  0
 25 69  1  0
 26 70  1  0
 26 71  1  0
 26 72  1  0
 28 73  1  0
 28 74  1  0
 28 75  1  0
 29 76  1  0
 29 77  1  0
 30 78  1  0
 30 79  1  0
 32 80  1  0
 32 81  1  0
 32 82  1  0
M  END
>  <meeko>  (3) 
{"is_sidechain": [false], "intermolecular_energy": 2.731, "internal_energy": -0.839}

$$$$
EPH_relaxed_0001_pdb2pqr_Repair_366_r2_0001_out
     RDKit          3D

 82 86  0  0  0  0  0  0  0  0999 V2000
    3.6260   17.9650    0.7480 C   0  0  0  0  0  0  0  0  0  0  0  0
    2.6760   18.3170   -0.4000 C   0  0  2  0  0  0  0  0  0  0  0  0
    1.9330   19.6450   -0.1520 C   0  0  0  0  0  0  0  0  0  0  0  0
    0.8570   19.5550    0.9340 C   0  0  0  0  0  0  0  0  0  0  0  0
   -0.4440   20.1400    0.4750 C   0  0  2  0  0  0  0  0  0  0  0  0
   -1.4640   20.1940    1.4810 O   0  0  0  0  0  0  0  0  0  0  0  0
   -1.7270   19.3380    0.3570 C   0  0  0  0  0  0  0  0  0  0  0  0
   -1.7710   17.8820    0.6980 C   0  0  0  0  0  0  0  0  0  0  0  0
   -2.8070   19.8450   -0.5470 C   0  0  0  0  0  0  0  0  0  0  0  0
    1.6720   17.1890   -0.6080 C   0  0  1  0  0  0  0  0  0  0  0  0
    0.4540   17.6250   -1.4660 C   0  0  0  0  0  0  0  0  0  0  0  0
    0.0410   16.3940   -2.3150 C   0  0  0  0  0  0  0  0  0  0  0  0
    0.8110   15.2100   -1.6840 C   0  0  1  0  0  0  0  0  0  0  0  0
   -0.0390   14.7960   -0.4410 C   0  0  0  0  0  0  0  0  0  0  0  0
    1.0930   13.9910   -2.6210 C   0  0  2  0  0  0  0  0  0  0  0  0
   -0.1590   13.2720   -3.1520 C   0  0  0  0  0  0  0  0  0  0  0  0
   -0.6540   12.1460   -2.3050 C   0  0  0  0  0  0  0  0  0  0  0  0
    0.0390   11.5450   -1.3200 C   0  0  0  0  0  0  0  0  0  0  0  0
    1.4980   11.9250   -1.0380 C   0  0  1  0  0  0  0  0  0  0  0  0
    2.3470   10.6370   -0.8760 C   0  0  0  0  0  0  0  0  0  0  0  0
    1.7770    9.6890    0.1750 C   0  0  0  0  0  0  0  0  0  0  0  0
    0.3460    9.2880   -0.1710 C   0  0  2  0  0  0  0  0  0  0  0  0
    0.3640    8.4950   -1.3620 O   0  0  0  0  0  0  0  0  0  0  0  0
   -0.6010   10.5050   -0.3680 C   0  0  0  0  0  0  0  0  0  0  0  0
   -0.8590   11.1900    0.9970 C   0  0  0  0  0  0  0  0  0  0  0  0
   -1.9750    9.9670   -0.8500 C   0  0  0  0  0  0  0  0  0  0  0  0
    2.1510   12.9640   -2.0480 C   0  0  1  0  0  0  0  0  0  0  0  0
    2.7490   12.2090   -3.2750 C   0  0  0  0  0  0  0  0  0  0  0  0
    3.3590   13.6820   -1.3370 C   0  0  0  0  0  0  0  0  0  0  0  0
    3.0320   14.9490   -0.5230 C   0  0  0  0  0  0  0  0  0  0  0  0
    2.1710   15.9180   -1.3400 C   0  0  2  0  0  0  0  0  0  0  0  0
    3.0090   16.3690   -2.5850 C   0  0  0  0  0  0  0  0  0  0  0  0
    3.1244   18.1509    1.7091 H   0  0  0  0  0  0  0  0  0  0  0  0
    3.9060   16.9034    0.6798 H   0  0  0  0  0  0  0  0  0  0  0  0
    4.5301   18.5878    0.6798 H   0  0  0  0  0  0  0  0  0  0  0  0
    3.2853   18.4442   -1.3070 H   0  0  0  0  0  0  0  0  0  0  0  0
    2.6696   20.4037    0.1510 H   0  0  0  0  0  0  0  0  0  0  0  0
    1.4218   19.9073   -1.0900 H   0  0  0  0  0  0  0  0  0  0  0  0
    0.7005   18.4977    1.1940 H   0  0  0  0  0  0  0  0  0  0  0  0
    1.2020   20.1287    1.8069 H   0  0  0  0  0  0  0  0  0  0  0  0
    0.0768   20.8063   -0.2284 H   0  0  0  0  0  0  0  0  0  0  0  0
   -1.7746   17.7614    1.7914 H   0  0  0  0  0  0  0  0  0  0  0  0
   -2.6831   17.4341    0.2767 H   0  0  0  0  0  0  0  0  0  0  0  0
   -0.8876   17.3799    0.2767 H   0  0  0  0  0  0  0  0  0  0  0  0
   -3.6385   20.2353    0.0582 H   0  0  0  0  0  0  0  0  0  0  0  0
   -2.4064   20.6491   -1.1817 H   0  0  0  0  0  0  0  0  0  0  0  0
   -3.1697   19.0231   -1.1817 H   0  0  0  0  0  0  0  0  0  0  0  0
    1.4405   16.9524    0.4410 H   0  0  0  0  0  0  0  0  0  0  0  0
   -0.3776   17.9322   -0.8148 H   0  0  0  0  0  0  0  0  0  0  0  0
    0.7096   18.4803   -2.1088 H   0  0  0  0  0  0  0  0  0  0  0  0
   -1.0447   16.2274   -2.2552 H   0  0  0  0  0  0  0  0  0  0  0  0
    0.2766   16.5243   -3.3815 H   0  0  0  0  0  0  0  0  0  0  0  0
    0.5035   15.0602    0.4787 H   0  0  0  0  0  0  0  0  0  0  0  0
   -1.0029   15.3255   -0.4631 H   0  0  0  0  0  0  0  0  0  0  0  0
   -0.2163   13.7106   -0.4631 H   0  0  0  0  0  0  0  0  0  0  0  0
    1.5554   14.4695   -3.4969 H   0  0  0  0  0  0  0  0  0  0  0  0
   -0.9667   14.0139   -3.2375 H   0  0  0  0  0  0  0  0  0  0  0  0
    0.1313   12.8249   -4.1142 H   0  0  0  0  0  0  0  0  0  0  0  0
   -1.6710   11.7765   -2.5029 H   0  0  0  0  0  0  0  0  0  0  0  0
    1.4888   12.4865   -0.0921 H   0  0  0  0  0  0  0  0  0  0  0  0
    2.3806   10.1129   -1.8425 H   0  0  0  0  0  0  0  0  0  0  0  0
    3.3514   10.9386   -0.5440 H   0  0  0  0  0  0  0  0  0  0  0  0
    2.4027    8.7855    0.2220 H   0  0  0  0  0  0  0  0  0  0  0  0
    1.7720   10.2044    1.1468 H   0  0  0  0  0  0  0  0  0  0  0  0
   -0.0509    8.7163    0.6808 H   0  0  0  0  0  0  0  0  0  0  0  0
    0.2120    7.5710   -1.1020 H   0  0  0  0  0  0  0  0  0  0  0  0
   -0.5979   10.4968    1.8102 H   0  0  0  0  0  0  0  0  0  0  0  0
   -0.2406   12.0964    1.0751 H   0  0  0  0  0  0  0  0  0  0  0  0
   -1.9217   11.4632    1.0751 H   0  0  0  0  0  0  0  0  0  0  0  0
   -2.5994    9.7225    0.0220 H   0  0  0  0  0  0  0  0  0  0  0  0
   -2.4771   10.7349   -1.4568 H   0  0  0  0  0  0  0  0  0  0  0  0
   -1.8222    9.0623   -1.4568 H   0  0  0  0  0  0  0  0  0  0  0  0
    3.3961   11.3920   -2.9231 H   0  0  0  0  0  0  0  0  0  0  0  0
    1.9323   11.7936   -3.8836 H   0  0  0  0  0  0  0  0  0  0  0  0
    3.3404   12.9089   -3.8836 H   0  0  0  0  0  0  0  0  0  0  0  0
    3.8211   12.9561   -0.6517 H   0  0  0  0  0  0  0  0  0  0  0  0
    4.0115   14.0247   -2.1536 H   0  0  0  0  0  0  0  0  0  0  0  0
    2.4851   14.6611    0.3869 H   0  0  0  0  0  0  0  0  0  0  0  0
    3.9750   15.4517   -0.2622 H   0  0  0  0  0  0  0  0  0  0  0  0
    3.9306   16.8650   -2.2465 H   0  0  0  0  0  0  0  0  0  0  0  0
    3.2679   15.4884   -3.1912 H   0  0  0  0  0  0  0  0  0  0  0  0
    2.4167   17.0702   -3.1912 H   0  0  0  0  0  0  0  0  0  0  0  0
  1  2  1  0
  2  3  1  0
  3  4  1  0
  4  5  1  0
  5  6  1  0
  6  7  1  0
  7  8  1  0
  7  9  1  0
  2 10  1  0
 10 11  1  0
 11 12  1  0
 12 13  1  0
 13 14  1  1
 13 15  1  0
 15 16  1  0
 16 17  1  0
 17 18  2  0
 18 19  1  0
 19 20  1  0
 20 21  1  0
 21 22  1  0
 22 23  1  0
 22 24  1  0
 24 25  1  0
 24 26  1  0
 19 27  1  0
 27 28  1  6
 27 29  1  0
 29 30  1  0
 30 31  1  0
 31 32  1  6
  7  5  1  0
 31 10  1  0
 31 13  1  0
 27 15  1  0
 24 18  1  0
  1 33  1  0
  1 34  1  0
  1 35  1  0
  2 36  1  6
  3 37  1  0
  3 38  1  0
  4 39  1  0
  4 40  1  0
  5 41  1  6
  8 42  1  0
  8 43  1  0
  8 44  1  0
  9 45  1  0
  9 46  1  0
  9 47  1  0
 10 48  1  1
 11 49  1  0
 11 50  1  0
 12 51  1  0
 12 52  1  0
 14 53  1  0
 14 54  1  0
 14 55  1  0
 15 56  1  6
 16 57  1  0
 16 58  1  0
 17 59  1  0
 19 60  1  1
 20 61  1  0
 20 62  1  0
 21 63  1  0
 21 64  1  0
 22 65  1  1
 23 66  1  0
 25 67  1  0
 25 68  1  0
 25 69  1  0
 26 70  1  0
 26 71  1  0
 26 72  1  0
 28 73  1  0
 28 74  1  0
 28 75  1  0
 29 76  1  0
 29 77  1  0
 30 78  1  0
 30 79  1  0
 32 80  1  0
 32 81  1  0
 32 82  1  0
M  END
>  <meeko>  (4) 
{"is_sidechain": [false], "intermolecular_energy": 2.731, "internal_energy": -0.839}

$$$$
EPH_relaxed_0001_pdb2pqr_Repair_366_r2_0001_out
     RDKit          3D

 82 86  0  0  0  0  0  0  0  0999 V2000
   -0.3570    7.8970   -0.9210 C   0  0  0  0  0  0  0  0  0  0  0  0
   -1.3570    8.9280   -0.3890 C   0  0  2  0  0  0  0  0  0  0  0  0
   -2.5040    9.1920   -1.3840 C   0  0  0  0  0  0  0  0  0  0  0  0
   -2.4780    8.2750   -2.6110 C   0  0  0  0  0  0  0  0  0  0  0  0
   -3.0770    6.9340   -2.3130 C   0  0  2  0  0  0  0  0  0  0  0  0
   -2.9070    5.9590   -3.3500 O   0  0  0  0  0  0  0  0  0  0  0  0
   -4.2590    6.3590   -3.0710 C   0  0  0  0  0  0  0  0  0  0  0  0
   -4.9120    7.1140   -4.1870 C   0  0  0  0  0  0  0  0  0  0  0  0
   -5.0800    5.2940   -2.4150 C   0  0  0  0  0  0  0  0  0  0  0  0
   -0.6360   10.2320   -0.0660 C   0  0  1  0  0  0  0  0  0  0  0  0
    0.4400   10.0620    1.0390 C   0  0  0  0  0  0  0  0  0  0  0  0
    1.6020   11.0250    0.6840 C   0  0  0  0  0  0  0  0  0  0  0  0
    1.0210   11.9490   -0.4130 C   0  0  1  0  0  0  0  0  0  0  0  0
    0.1990   13.0250    0.3630 C   0  0  0  0  0  0  0  0  0  0  0  0
    2.0570   12.6030   -1.3840 C   0  0  2  0  0  0  0  0  0  0  0  0
    3.0700   13.5500   -0.7170 C   0  0  0  0  0  0  0  0  0  0  0  0
    2.6540   14.9820   -0.6470 C   0  0  0  0  0  0  0  0  0  0  0  0
    1.6490   15.5390   -1.3470 C   0  0  0  0  0  0  0  0  0  0  0  0
    0.8740   14.7290   -2.3950 C   0  0  1  0  0  0  0  0  0  0  0  0
    0.7290   15.5650   -3.6930 C   0  0  0  0  0  0  0  0  0  0  0  0
    0.1090   16.9360   -3.4400 C   0  0  0  0  0  0  0  0  0  0  0  0
    0.9390   17.7340   -2.4380 C   0  0  2  0  0  0  0  0  0  0  0  0
    2.2040   18.0430   -3.0300 O   0  0  0  0  0  0  0  0  0  0  0  0
    1.1600   16.9870   -1.0930 C   0  0  0  0  0  0  0  0  0  0  0  0
   -0.1740   16.9180   -0.3100 C   0  0  0  0  0  0  0  0  0  0  0  0
    2.1280   17.8380   -0.2280 C   0  0  0  0  0  0  0  0  0  0  0  0
    1.4130   13.2600   -2.6720 C   0  0  1  0  0  0  0  0  0  0  0  0
    2.5310   13.2990   -3.7580 C   0  0  0  0  0  0  0  0  0  0  0  0
    0.2460   12.3880   -3.2680 C   0  0  0  0  0  0  0  0  0  0  0  0
   -0.6710   11.6700   -2.2590 C   0  0  0  0  0  0  0  0  0  0  0  0
    0.1530   10.9110   -1.2130 C   0  0  2  0  0  0  0  0  0  0  0  0
    0.9740    9.8070   -1.9610 C   0  0  0  0  0  0  0  0  0  0  0  0
    0.1332    7.3916   -0.0758 H   0  0  0  0  0  0  0  0  0  0  0  0
   -0.8877    7.1542   -1.5346 H   0  0  0  0  0  0  0  0  0  0  0  0
    0.4017    8.4048   -1.5346 H   0  0  0  0  0  0  0  0  0  0  0  0
   -1.8043    8.5137    0.5266 H   0  0  0  0  0  0  0  0  0  0  0  0
   -3.4596    9.0437   -0.8597 H   0  0  0  0  0  0  0  0  0  0  0  0
   -2.3816   10.2221   -1.7498 H   0  0  0  0  0  0  0  0  0  0  0  0
   -3.0501    8.7487   -3.4224 H   0  0  0  0  0  0  0  0  0  0  0  0
   -1.4287    8.1245   -2.9047 H   0  0  0  0  0  0  0  0  0  0  0  0
   -2.8799    7.0582   -1.2380 H   0  0  0  0  0  0  0  0  0  0  0  0
   -5.5776    7.8835   -3.7689 H   0  0  0  0  0  0  0  0  0  0  0  0
   -4.1398    7.5941   -4.8060 H   0  0  0  0  0  0  0  0  0  0  0  0
   -5.4984    6.4190   -4.8060 H   0  0  0  0  0  0  0  0  0  0  0  0
   -5.0036    5.3931   -1.3221 H   0  0  0  0  0  0  0  0  0  0  0  0
   -6.1313    5.4013   -2.7203 H   0  0  0  0  0  0  0  0  0  0  0  0
   -4.7087    4.3046   -2.7203 H   0  0  0  0  0  0  0  0  0  0  0  0
   -1.4980   10.8537    0.2177 H   0  0  0  0  0  0  0  0  0  0  0  0
    0.0187   10.3226    2.0212 H   0  0  0  0  0  0  0  0  0  0  0  0
    0.7917    9.0210    1.0909 H   0  0  0  0  0  0  0  0  0  0  0  0
    1.9043   11.6104    1.5649 H   0  0  0  0  0  0  0  0  0  0  0  0
    2.5002   10.4882    0.3449 H   0  0  0  0  0  0  0  0  0  0  0  0
    0.3189   12.8680    1.4451 H   0  0  0  0  0  0  0  0  0  0  0  0
    0.5631   14.0279    0.0954 H   0  0  0  0  0  0  0  0  0  0  0  0
   -0.8644   12.9375    0.0954 H   0  0  0  0  0  0  0  0  0  0  0  0
    2.6401   11.7350   -1.7255 H   0  0  0  0  0  0  0  0  0  0  0  0
    3.2416   13.1953    0.3100 H   0  0  0  0  0  0  0  0  0  0  0  0
    3.9707   13.5253   -1.3480 H   0  0  0  0  0  0  0  0  0  0  0  0
    3.2166   15.6371    0.0344 H   0  0  0  0  0  0  0  0  0  0  0  0
   -0.1189   14.5405   -1.9606 H   0  0  0  0  0  0  0  0  0  0  0  0
    1.7264   15.7053   -4.1353 H   0  0  0  0  0  0  0  0  0  0  0  0
    0.0591   15.0156   -4.3708 H   0  0  0  0  0  0  0  0  0  0  0  0
    0.0606   17.4898   -4.3892 H   0  0  0  0  0  0  0  0  0  0  0  0
   -0.8999   16.7938   -3.0255 H   0  0  0  0  0  0  0  0  0  0  0  0
    0.3777   18.6495   -2.1997 H   0  0  0  0  0  0  0  0  0  0  0  0
    2.5560   17.2230   -3.4160 H   0  0  0  0  0  0  0  0  0  0  0  0
    0.0339   16.9288    0.7701 H   0  0  0  0  0  0  0  0  0  0  0  0
   -0.7982   17.7851   -0.5719 H   0  0  0  0  0  0  0  0  0  0  0  0
   -0.7054   15.9912   -0.5719 H   0  0  0  0  0  0  0  0  0  0  0  0
    1.9226   17.6574    0.8375 H   0  0  0  0  0  0  0  0  0  0  0  0
    3.1667   17.5553   -0.4542 H   0  0  0  0  0  0  0  0  0  0  0  0
    1.9807   18.9044   -0.4542 H   0  0  0  0  0  0  0  0  0  0  0  0
    3.5159   13.3334   -3.2693 H   0  0  0  0  0  0  0  0  0  0  0  0
    2.4643   12.3980   -4.3855 H   0  0  0  0  0  0  0  0  0  0  0  0
    2.4016   14.1932   -4.3855 H   0  0  0  0  0  0  0  0  0  0  0  0
   -0.3854   13.0501   -3.8787 H   0  0  0  0  0  0  0  0  0  0  0  0
    0.7454   11.5825   -3.8264 H   0  0  0  0  0  0  0  0  0  0  0  0
   -1.2997   12.4156   -1.7501 H   0  0  0  0  0  0  0  0  0  0  0  0
   -1.2959   10.9479   -2.8049 H   0  0  0  0  0  0  0  0  0  0  0  0
    1.4618    9.1510   -1.2250 H   0  0  0  0  0  0  0  0  0  0  0  0
    0.2977    9.2113   -2.5917 H   0  0  0  0  0  0  0  0  0  0  0  0
    1.7391   10.2832   -2.5917 H   0  0  0  0  0  0  0  0  0  0  0  0
  1  2  1  0
  2  3  1  0
  3  4  1  0
  4  5  1  0
  5  6  1  0
  6  7  1  0
  7  8  1  0
  7  9  1  0
  2 10  1  0
 10 11  1  0
 11 12  1  0
 12 13  1  0
 13 14  1  1
 13 15  1  0
 15 16  1  0
 16 17  1  0
 17 18  2  0
 18 19  1  0
 19 20  1  0
 20 21  1  0
 21 22  1  0
 22 23  1  0
 22 24  1  0
 24 25  1  0
 24 26  1  0
 19 27  1  0
 27 28  1  6
 27 29  1  0
 29 30  1  0
 30 31  1  0
 31 32  1  6
  7  5  1  0
 31 10  1  0
 31 13  1  0
 27 15  1  0
 24 18  1  0
  1 33  1  0
  1 34  1  0
  1 35  1  0
  2 36  1  1
  3 37  1  0
  3 38  1  0
  4 39  1  0
  4 40  1  0
  5 41  1  1
  8 42  1  0
  8 43  1  0
  8 44  1  0
  9 45  1  0
  9 46  1  0
  9 47  1  0
 10 48  1  1
 11 49  1  0
 11 50  1  0
 12 51  1  0
 12 52  1  0
 14 53  1  0
 14 54  1  0
 14 55  1  0
 15 56  1  6
 16 57  1  0
 16 58  1  0
 17 59  1  0
 19 60  1  1
 20 61  1  0
 20 62  1  0
 21 63  1  0
 21 64  1  0
 22 65  1  1
 23 66  1  0
 25 67  1  0
 25 68  1  0
 25 69  1  0
 26 70  1  0
 26 71  1  0
 26 72  1  0
 28 73  1  0
 28 74  1  0
 28 75  1  0
 29 76  1  0
 29 77  1  0
 30 78  1  0
 30 79  1  0
 32 80  1  0
 32 81  1  0
 32 82  1  0
M  END
>  <meeko>  (5) 
{"is_sidechain": [false], "intermolecular_energy": 2.731, "internal_energy": -0.839}

$$$$
EPH_relaxed_0001_pdb2pqr_Repair_366_r2_0001_out
     RDKit          3D

 82 86  0  0  0  0  0  0  0  0999 V2000
    3.8240   17.4770    0.8970 C   0  0  0  0  0  0  0  0  0  0  0  0
    3.6520   16.6480   -0.3790 C   0  0  2  0  0  0  0  0  0  0  0  0
    3.5030   17.5340   -1.6320 C   0  0  0  0  0  0  0  0  0  0  0  0
    2.7760   18.8550   -1.3690 C   0  0  0  0  0  0  0  0  0  0  0  0
    1.4290   18.8870   -2.0250 C   0  0  2  0  0  0  0  0  0  0  0  0
    0.9830   20.1930   -2.4120 O   0  0  0  0  0  0  0  0  0  0  0  0
    0.2080   19.5330   -1.3980 C   0  0  0  0  0  0  0  0  0  0  0  0
    0.2760   20.1910   -0.0560 C   0  0  0  0  0  0  0  0  0  0  0  0
   -1.1480   19.1010   -1.8620 C   0  0  0  0  0  0  0  0  0  0  0  0
    2.4420   15.7310   -0.2420 C   0  0  1  0  0  0  0  0  0  0  0  0
    1.1150   16.5160   -0.0620 C   0  0  0  0  0  0  0  0  0  0  0  0
    0.0130   15.7040   -0.7910 C   0  0  0  0  0  0  0  0  0  0  0  0
    0.6640   14.3310   -1.0770 C   0  0  1  0  0  0  0  0  0  0  0  0
    0.5370   13.5400    0.2630 C   0  0  0  0  0  0  0  0  0  0  0  0
    0.0770   13.5250   -2.2810 C   0  0  2  0  0  0  0  0  0  0  0  0
   -1.4000   13.1180   -2.1350 C   0  0  0  0  0  0  0  0  0  0  0  0
   -1.6360   11.7910   -1.4950 C   0  0  0  0  0  0  0  0  0  0  0  0
   -0.7070   10.8340   -1.3110 C   0  0  0  0  0  0  0  0  0  0  0  0
    0.7170   11.0040   -1.8580 C   0  0  1  0  0  0  0  0  0  0  0  0
    1.1550    9.7010   -2.5760 C   0  0  0  0  0  0  0  0  0  0  0  0
    1.0140    8.4680   -1.6880 C   0  0  0  0  0  0  0  0  0  0  0  0
   -0.4270    8.3000   -1.2130 C   0  0  2  0  0  0  0  0  0  0  0  0
   -1.2530    7.9970   -2.3410 O   0  0  0  0  0  0  0  0  0  0  0  0
   -0.9810    9.5550   -0.4820 C   0  0  0  0  0  0  0  0  0  0  0  0
   -0.2830    9.7080    0.8920 C   0  0  0  0  0  0  0  0  0  0  0  0
   -2.4840    9.3080   -0.1810 C   0  0  0  0  0  0  0  0  0  0  0  0
    0.9710   12.3020   -2.7390 C   0  0  1  0  0  0  0  0  0  0  0  0
    0.6020   12.0150   -4.2270 C   0  0  0  0  0  0  0  0  0  0  0  0
    2.5080   12.6440   -2.7210 C   0  0  0  0  0  0  0  0  0  0  0  0
    3.0050   13.5420   -1.5730 C   0  0  0  0  0  0  0  0  0  0  0  0
    2.1260   14.7880   -1.4310 C   0  0  2  0  0  0  0  0  0  0  0  0
    2.2510   15.6150   -2.7560 C   0  0  0  0  0  0  0  0  0  0  0  0
    3.6896   16.8293    1.7759 H   0  0  0  0  0  0  0  0  0  0  0  0
    4.8324   17.9161    0.9158 H   0  0  0  0  0  0  0  0  0  0  0  0
    3.0735   18.2810    0.9158 H   0  0  0  0  0  0  0  0  0  0  0  0
    4.5632   16.0455   -0.5084 H   0  0  0  0  0  0  0  0  0  0  0  0
    4.5077   17.7614   -2.0179 H   0  0  0  0  0  0  0  0  0  0  0  0
    2.8937   16.9701   -2.3537 H   0  0  0  0  0  0  0  0  0  0  0  0
    2.6470   18.9809   -0.2839 H   0  0  0  0  0  0  0  0  0  0  0  0
    3.3823   19.6699   -1.7913 H   0  0  0  0  0  0  0  0  0  0  0  0
    1.5933   17.8920   -2.4644 H   0  0  0  0  0  0  0  0  0  0  0  0
    0.1970   19.4270    0.7314 H   0  0  0  0  0  0  0  0  0  0  0  0
    1.2339   20.7226    0.0436 H   0  0  0  0  0  0  0  0  0  0  0  0
   -0.5529   20.9072    0.0436 H   0  0  0  0  0  0  0  0  0  0  0  0
   -1.7865   18.8976   -0.9896 H   0  0  0  0  0  0  0  0  0  0  0  0
   -1.5996   19.8997   -2.4687 H   0  0  0  0  0  0  0  0  0  0  0  0
   -1.0544   18.1882   -2.4687 H   0  0  0  0  0  0  0  0  0  0  0  0
    2.7548   15.1420    0.6328 H   0  0  0  0  0  0  0  0  0  0  0  0
    0.8722   16.6097    1.0068 H   0  0  0  0  0  0  0  0  0  0  0  0
    1.1972   17.5315   -0.4767 H   0  0  0  0  0  0  0  0  0  0  0  0
   -0.8724   15.5876   -0.1487 H   0  0  0  0  0  0  0  0  0  0  0  0
   -0.3323   16.2011   -1.7095 H   0  0  0  0  0  0  0  0  0  0  0  0
    0.6483   14.2331    1.1099 H   0  0  0  0  0  0  0  0  0  0  0  0
   -0.4502   13.0572    0.3116 H   0  0  0  0  0  0  0  0  0  0  0  0
    1.3234   12.7724    0.3116 H   0  0  0  0  0  0  0  0  0  0  0  0
    0.1044   14.2634   -3.0959 H   0  0  0  0  0  0  0  0  0  0  0  0
   -1.9047   13.8831   -1.5268 H   0  0  0  0  0  0  0  0  0  0  0  0
   -1.7954   13.0365   -3.1582 H   0  0  0  0  0  0  0  0  0  0  0  0
   -2.6560   11.5762   -1.1435 H   0  0  0  0  0  0  0  0  0  0  0  0
    1.3596   11.1816   -0.9831 H   0  0  0  0  0  0  0  0  0  0  0  0
    0.5302    9.5644   -3.4709 H   0  0  0  0  0  0  0  0  0  0  0  0
    2.2186    9.8048   -2.8369 H   0  0  0  0  0  0  0  0  0  0  0  0
    1.3108    7.5765   -2.2600 H   0  0  0  0  0  0  0  0  0  0  0  0
    1.6616    8.5932   -0.8077 H   0  0  0  0  0  0  0  0  0  0  0  0
   -0.4388    7.4792   -0.4808 H   0  0  0  0  0  0  0  0  0  0  0  0
   -1.0540    7.0850   -2.6140 H   0  0  0  0  0  0  0  0  0  0  0  0
   -1.0165    9.5472    1.6958 H   0  0  0  0  0  0  0  0  0  0  0  0
    0.5239    8.9654    0.9780 H   0  0  0  0  0  0  0  0  0  0  0  0
    0.1393   10.7200    0.9780 H   0  0  0  0  0  0  0  0  0  0  0  0
   -2.6405    9.2823    0.9075 H   0  0  0  0  0  0  0  0  0  0  0  0
   -3.0838   10.1196   -0.6186 H   0  0  0  0  0  0  0  0  0  0  0  0
   -2.7925    8.3471   -0.6186 H   0  0  0  0  0  0  0  0  0  0  0  0
   -0.2657   11.3401   -4.2660 H   0  0  0  0  0  0  0  0  0  0  0  0
    0.3543   12.9602   -4.7322 H   0  0  0  0  0  0  0  0  0  0  0  0
    1.4572   11.5423   -4.7322 H   0  0  0  0  0  0  0  0  0  0  0  0
    3.0598   11.6942   -2.6636 H   0  0  0  0  0  0  0  0  0  0  0  0
    2.6850   13.2245   -3.6384 H   0  0  0  0  0  0  0  0  0  0  0  0
    2.9762   12.9724   -0.6324 H   0  0  0  0  0  0  0  0  0  0  0  0
    4.0330   13.8621   -1.7983 H   0  0  0  0  0  0  0  0  0  0  0  0
    2.4113   16.6757   -2.5125 H   0  0  0  0  0  0  0  0  0  0  0  0
    3.1028   15.2407   -3.3429 H   0  0  0  0  0  0  0  0  0  0  0  0
    1.3267   15.5092   -3.3429 H   0  0  0  0  0  0  0  0  0  0  0  0
  1  2  1  0
  2  3  1  0
  3  4  1  0
  4  5  1  0
  5  6  1  0
  6  7  1  0
  7  8  1  0
  7  9  1  0
  2 10  1  0
 10 11  1  0
 11 12  1  0
 12 13  1  0
 13 14  1  1
 13 15  1  0
 15 16  1  0
 16 17  1  0
 17 18  2  0
 18 19  1  0
 19 20  1  0
 20 21  1  0
 21 22  1  0
 22 23  1  0
 22 24  1  0
 24 25  1  0
 24 26  1  0
 19 27  1  0
 27 28  1  6
 27 29  1  0
 29 30  1  0
 30 31  1  0
 31 32  1  6
  7  5  1  0
 31 10  1  0
 31 13  1  0
 27 15  1  0
 24 18  1  0
  1 33  1  0
  1 34  1  0
  1 35  1  0
  2 36  1  6
  3 37  1  0
  3 38  1  0
  4 39  1  0
  4 40  1  0
  5 41  1  6
  8 42  1  0
  8 43  1  0
  8 44  1  0
  9 45  1  0
  9 46  1  0
  9 47  1  0
 10 48  1  1
 11 49  1  0
 11 50  1  0
 12 51  1  0
 12 52  1  0
 14 53  1  0
 14 54  1  0
 14 55  1  0
 15 56  1  6
 16 57  1  0
 16 58  1  0
 17 59  1  0
 19 60  1  1
 20 61  1  0
 20 62  1  0
 21 63  1  0
 21 64  1  0
 22 65  1  1
 23 66  1  0
 25 67  1  0
 25 68  1  0
 25 69  1  0
 26 70  1  0
 26 71  1  0
 26 72  1  0
 28 73  1  0
 28 74  1  0
 28 75  1  0
 29 76  1  0
 29 77  1  0
 30 78  1  0
 30 79  1  0
 32 80  1  0
 32 81  1  0
 32 82  1  0
M  END
>  <meeko>  (6) 
{"is_sidechain": [false], "intermolecular_energy": 2.731, "internal_energy": -0.839}

$$$$
EPH_relaxed_0001_pdb2pqr_Repair_366_r2_0001_out
     RDKit          3D

 82 86  0  0  0  0  0  0  0  0999 V2000
    0.4040    8.7920   -2.3590 C   0  0  0  0  0  0  0  0  0  0  0  0
    1.1420    9.9310   -3.0680 C   0  0  2  0  0  0  0  0  0  0  0  0
    2.6460    9.9500   -2.7270 C   0  0  0  0  0  0  0  0  0  0  0  0
    3.5180   10.5690   -3.8220 C   0  0  0  0  0  0  0  0  0  0  0  0
    4.9180   10.8130   -3.3450 C   0  0  2  0  0  0  0  0  0  0  0  0
    5.5180   12.0170   -3.8390 O   0  0  0  0  0  0  0  0  0  0  0  0
    6.1290   10.7870   -4.2580 C   0  0  0  0  0  0  0  0  0  0  0  0
    5.9970   10.5090   -5.7220 C   0  0  0  0  0  0  0  0  0  0  0  0
    7.4770   10.5460   -3.6510 C   0  0  0  0  0  0  0  0  0  0  0  0
    0.5080   11.2680   -2.7030 C   0  0  1  0  0  0  0  0  0  0  0  0
   -0.8710   11.1060   -2.0110 C   0  0  0  0  0  0  0  0  0  0  0  0
   -0.9850   12.2460   -0.9670 C   0  0  0  0  0  0  0  0  0  0  0  0
    0.1700   13.2130   -1.3180 C   0  0  1  0  0  0  0  0  0  0  0  0
   -0.3720   14.0730   -2.5030 C   0  0  0  0  0  0  0  0  0  0  0  0
    0.7020   14.1080   -0.1510 C   0  0  2  0  0  0  0  0  0  0  0  0
   -0.3260   15.0890    0.4380 C   0  0  0  0  0  0  0  0  0  0  0  0
   -0.3620   16.4370   -0.2040 C   0  0  0  0  0  0  0  0  0  0  0  0
    0.5850   16.9410   -1.0170 C   0  0  0  0  0  0  0  0  0  0  0  0
    1.8830   16.1700   -1.2880 C   0  0  1  0  0  0  0  0  0  0  0  0
    3.0930   17.1320   -1.1550 C   0  0  0  0  0  0  0  0  0  0  0  0
    2.9560   18.3700   -2.0350 C   0  0  0  0  0  0  0  0  0  0  0  0
    1.6830   19.1410   -1.6970 C   0  0  2  0  0  0  0  0  0  0  0  0
    1.8070   19.6800   -0.3770 O   0  0  0  0  0  0  0  0  0  0  0  0
    0.3970   18.2720   -1.7870 C   0  0  0  0  0  0  0  0  0  0  0  0
    0.0980   17.9380   -3.2690 C   0  0  0  0  0  0  0  0  0  0  0  0
   -0.7950   19.1300   -1.2850 C   0  0  0  0  0  0  0  0  0  0  0  0
    2.0770   14.8270   -0.4610 C   0  0  1  0  0  0  0  0  0  0  0  0
    2.7350   15.1410    0.9180 C   0  0  0  0  0  0  0  0  0  0  0  0
    3.0820   13.8900   -1.2290 C   0  0  0  0  0  0  0  0  0  0  0  0
    2.4810   12.9440   -2.2860 C   0  0  0  0  0  0  0  0  0  0  0  0
    1.2840   12.1770   -1.7170 C   0  0  2  0  0  0  0  0  0  0  0  0
    1.8030   11.2860   -0.5380 C   0  0  0  0  0  0  0  0  0  0  0  0
    0.4884    8.9223   -1.2700 H   0  0  0  0  0  0  0  0  0  0  0  0
   -0.6570    8.8061   -2.6488 H   0  0  0  0  0  0  0  0  0  0  0  0
    0.8505    7.8294   -2.6488 H   0  0  0  0  0  0  0  0  0  0  0  0
    1.0515    9.7601   -4.1509 H   0  0  0  0  0  0  0  0  0  0  0  0
    2.7852   10.5303   -1.8029 H   0  0  0  0  0  0  0  0  0  0  0  0
    2.9637    8.9026   -2.6171 H   0  0  0  0  0  0  0  0  0  0  0  0
    3.5489    9.8844   -4.6825 H   0  0  0  0  0  0  0  0  0  0  0  0
    3.0784   11.5372   -4.1037 H   0  0  0  0  0  0  0  0  0  0  0  0
    4.7039   10.3137   -2.3885 H   0  0  0  0  0  0  0  0  0  0  0  0
    5.5293    9.5241   -5.8675 H   0  0  0  0  0  0  0  0  0  0  0  0
    5.3710   11.2845   -6.1875 H   0  0  0  0  0  0  0  0  0  0  0  0
    6.9936   10.5140   -6.1875 H   0  0  0  0  0  0  0  0  0  0  0  0
    7.3933   10.5610   -2.5543 H   0  0  0  0  0  0  0  0  0  0  0  0
    7.8558    9.5659   -3.9765 H   0  0  0  0  0  0  0  0  0  0  0  0
    8.1719   11.3341   -3.9765 H   0  0  0  0  0  0  0  0  0  0  0  0
    0.4750   11.7346   -3.6986 H   0  0  0  0  0  0  0  0  0  0  0  0
   -1.6790   11.1896   -2.7527 H   0  0  0  0  0  0  0  0  0  0  0  0
   -0.9579   10.1205   -1.5302 H   0  0  0  0  0  0  0  0  0  0  0  0
   -1.9567   12.7546   -1.0518 H   0  0  0  0  0  0  0  0  0  0  0  0
   -0.9184   11.8740    0.0660 H   0  0  0  0  0  0  0  0  0  0  0  0
   -0.9190   14.9409   -2.1060 H   0  0  0  0  0  0  0  0  0  0  0  0
    0.4704   14.4209   -3.1189 H   0  0  0  0  0  0  0  0  0  0  0  0
   -1.0493   13.4631   -3.1189 H   0  0  0  0  0  0  0  0  0  0  0  0
    0.8997   13.3712    0.6415 H   0  0  0  0  0  0  0  0  0  0  0  0
   -1.3238   14.6373    0.3363 H   0  0  0  0  0  0  0  0  0  0  0  0
   -0.0228   15.2571    1.4819 H   0  0  0  0  0  0  0  0  0  0  0  0
   -1.2360   17.0713    0.0052 H   0  0  0  0  0  0  0  0  0  0  0  0
    1.8094   15.8032   -2.3224 H   0  0  0  0  0  0  0  0  0  0  0  0
    3.1749   17.4525   -0.1059 H   0  0  0  0  0  0  0  0  0  0  0  0
    3.9903   16.5869   -1.4833 H   0  0  0  0  0  0  0  0  0  0  0  0
    3.8261   19.0237   -1.8748 H   0  0  0  0  0  0  0  0  0  0  0  0
    2.9040   18.0498   -3.0861 H   0  0  0  0  0  0  0  0  0  0  0  0
    1.5742   19.9405   -2.4447 H   0  0  0  0  0  0  0  0  0  0  0  0
    0.9110   19.7820   -0.0150 H   0  0  0  0  0  0  0  0  0  0  0  0
   -0.6349   17.1193   -3.3197 H   0  0  0  0  0  0  0  0  0  0  0  0
   -0.3109   18.8278   -3.7701 H   0  0  0  0  0  0  0  0  0  0  0  0
    1.0274   17.6297   -3.7701 H   0  0  0  0  0  0  0  0  0  0  0  0
   -0.8044   19.1367   -0.1851 H   0  0  0  0  0  0  0  0  0  0  0  0
   -0.6880   20.1596   -1.6571 H   0  0  0  0  0  0  0  0  0  0  0  0
   -1.7374   18.7017   -1.6571 H   0  0  0  0  0  0  0  0  0  0  0  0
    2.0622   14.8199    1.7269 H   0  0  0  0  0  0  0  0  0  0  0  0
    3.6902   14.6017    0.9998 H   0  0  0  0  0  0  0  0  0  0  0  0
    2.9166   16.2228    0.9998 H   0  0  0  0  0  0  0  0  0  0  0  0
    3.8150   14.5338   -1.7371 H   0  0  0  0  0  0  0  0  0  0  0  0
    3.5048   13.2287   -0.4584 H   0  0  0  0  0  0  0  0  0  0  0  0
    2.1504   13.5358   -3.1523 H   0  0  0  0  0  0  0  0  0  0  0  0
    3.2516   12.2189   -2.5868 H   0  0  0  0  0  0  0  0  0  0  0  0
    1.5316   11.7520    0.4207 H   0  0  0  0  0  0  0  0  0  0  0  0
    1.3449   10.2881   -0.6034 H   0  0  0  0  0  0  0  0  0  0  0  0
    2.8970   11.1922   -0.6034 H   0  0  0  0  0  0  0  0  0  0  0  0
  1  2  1  0
  2  3  1  0
  3  4  1  0
  4  5  1  0
  5  6  1  0
  6  7  1  0
  7  8  1  0
  7  9  1  0
  2 10  1  0
 10 11  1  0
 11 12  1  0
 12 13  1  0
 13 14  1  6
 13 15  1  0
 15 16  1  0
 16 17  1  0
 17 18  2  0
 18 19  1  0
 19 20  1  0
 20 21  1  0
 21 22  1  0
 22 23  1  0
 22 24  1  0
 24 25  1  0
 24 26  1  0
 19 27  1  0
 27 28  1  1
 27 29  1  0
 29 30  1  0
 30 31  1  0
 31 32  1  1
  7  5  1  0
 31 10  1  0
 31 13  1  0
 27 15  1  0
 24 18  1  0
  1 33  1  0
  1 34  1  0
  1 35  1  0
  2 36  1  6
  3 37  1  0
  3 38  1  0
  4 39  1  0
  4 40  1  0
  5 41  1  1
  8 42  1  0
  8 43  1  0
  8 44  1  0
  9 45  1  0
  9 46  1  0
  9 47  1  0
 10 48  1  6
 11 49  1  0
 11 50  1  0
 12 51  1  0
 12 52  1  0
 14 53  1  0
 14 54  1  0
 14 55  1  0
 15 56  1  1
 16 57  1  0
 16 58  1  0
 17 59  1  0
 19 60  1  6
 20 61  1  0
 20 62  1  0
 21 63  1  0
 21 64  1  0
 22 65  1  6
 23 66  1  0
 25 67  1  0
 25 68  1  0
 25 69  1  0
 26 70  1  0
 26 71  1  0
 26 72  1  0
 28 73  1  0
 28 74  1  0
 28 75  1  0
 29 76  1  0
 29 77  1  0
 30 78  1  0
 30 79  1  0
 32 80  1  0
 32 81  1  0
 32 82  1  0
M  END
>  <meeko>  (7) 
{"is_sidechain": [false], "intermolecular_energy": 2.731, "internal_energy": -0.839}

$$$$
EPH_relaxed_0001_pdb2pqr_Repair_366_r2_0001_out
     RDKit          3D

 82 86  0  0  0  0  0  0  0  0999 V2000
   -0.2890   10.5090   -4.0140 C   0  0  0  0  0  0  0  0  0  0  0  0
    0.9630   10.3710   -3.1430 C   0  0  2  0  0  0  0  0  0  0  0  0
    0.9970    9.0280   -2.3840 C   0  0  0  0  0  0  0  0  0  0  0  0
   -0.3670    8.5930   -1.8410 C   0  0  0  0  0  0  0  0  0  0  0  0
   -0.5440    8.9890   -0.4060 C   0  0  2  0  0  0  0  0  0  0  0  0
   -1.8970    8.9420    0.0650 O   0  0  0  0  0  0  0  0  0  0  0  0
   -1.2830   10.2410    0.0310 C   0  0  0  0  0  0  0  0  0  0  0  0
   -1.8910   11.1760   -0.9660 C   0  0  0  0  0  0  0  0  0  0  0  0
   -0.9920   10.8060    1.3860 C   0  0  0  0  0  0  0  0  0  0  0  0
    1.0380   11.5290   -2.1550 C   0  0  1  0  0  0  0  0  0  0  0  0
    2.1090   11.3060   -1.0540 C   0  0  0  0  0  0  0  0  0  0  0  0
    2.7120   12.6970   -0.7290 C   0  0  0  0  0  0  0  0  0  0  0  0
    1.7510   13.7060   -1.4000 C   0  0  1  0  0  0  0  0  0  0  0  0
    0.5590   13.8490   -0.4030 C   0  0  0  0  0  0  0  0  0  0  0  0
    2.3610   15.0960   -1.7760 C   0  0  2  0  0  0  0  0  0  0  0  0
    2.8670   15.9290   -0.5850 C   0  0  0  0  0  0  0  0  0  0  0  0
    1.8610   16.8490    0.0230 C   0  0  0  0  0  0  0  0  0  0  0  0
    0.6930   17.2120   -0.5390 C   0  0  0  0  0  0  0  0  0  0  0  0
    0.3280   16.7620   -1.9600 C   0  0  1  0  0  0  0  0  0  0  0  0
   -0.2100   17.9730   -2.7650 C   0  0  0  0  0  0  0  0  0  0  0  0
   -1.3670   18.6760   -2.0610 C   0  0  0  0  0  0  0  0  0  0  0  0
   -0.9480   19.1610   -0.6750 C   0  0  2  0  0  0  0  0  0  0  0  0
    0.0300   20.1940   -0.8240 O   0  0  0  0  0  0  0  0  0  0  0  0
   -0.3800   18.0280    0.2240 C   0  0  0  0  0  0  0  0  0  0  0  0
   -1.5220   17.0650    0.6330 C   0  0  0  0  0  0  0  0  0  0  0  0
    0.1350   18.6750    1.5380 C   0  0  0  0  0  0  0  0  0  0  0  0
    1.4550   15.9600   -2.7430 C   0  0  1  0  0  0  0  0  0  0  0  0
    2.4070   16.9570   -3.4720 C   0  0  0  0  0  0  0  0  0  0  0  0
    0.7790   15.0890   -3.8670 C   0  0  0  0  0  0  0  0  0  0  0  0
    0.3060   13.6800   -3.4640 C   0  0  0  0  0  0  0  0  0  0  0  0
    1.4100   12.9230   -2.7200 C   0  0  2  0  0  0  0  0  0  0  0  0
    2.6140   12.7430   -3.7060 C   0  0  0  0  0  0  0  0  0  0  0  0
   -1.1751   10.6067   -3.3695 H   0  0  0  0  0  0  0  0  0  0  0  0
   -0.1972   11.4025   -4.6491 H   0  0  0  0  0  0  0  0  0  0  0  0
   -0.3940    9.6170   -4.6491 H   0  0  0  0  0  0  0  0  0  0  0  0
    1.8362   10.3949   -3.8116 H   0  0  0  0  0  0  0  0  0  0  0  0
    1.3614    8.2500   -3.0710 H   0  0  0  0  0  0  0  0  0  0  0  0
    1.6592    9.1658   -1.5165 H   0  0  0  0  0  0  0  0  0  0  0  0
   -1.1575    9.0667   -2.4417 H   0  0  0  0  0  0  0  0  0  0  0  0
   -0.4277    7.4965   -1.9043 H   0  0  0  0  0  0  0  0  0  0  0  0
    0.4482    8.5901   -0.1484 H   0  0  0  0  0  0  0  0  0  0  0  0
   -2.4168   11.9846   -0.4372 H   0  0  0  0  0  0  0  0  0  0  0  0
   -1.0987   11.6051   -1.5970 H   0  0  0  0  0  0  0  0  0  0  0  0
   -2.6046   10.6258   -1.5970 H   0  0  0  0  0  0  0  0  0  0  0  0
   -1.3506   10.1097    2.1584 H   0  0  0  0  0  0  0  0  0  0  0  0
    0.0927   10.9505    1.4978 H   0  0  0  0  0  0  0  0  0  0  0  0
   -1.5042   11.7730    1.4978 H   0  0  0  0  0  0  0  0  0  0  0  0
   -0.0020   11.5335   -1.7966 H   0  0  0  0  0  0  0  0  0  0  0  0
    1.6442   10.8751   -0.1550 H   0  0  0  0  0  0  0  0  0  0  0  0
    2.8874   10.6079   -1.3955 H   0  0  0  0  0  0  0  0  0  0  0  0
    2.7486   12.8598    0.3583 H   0  0  0  0  0  0  0  0  0  0  0  0
    3.7448   12.7992   -1.0936 H   0  0  0  0  0  0  0  0  0  0  0  0
    0.9368   13.8037    0.6291 H   0  0  0  0  0  0  0  0  0  0  0  0
    0.0570   14.8138   -0.5677 H   0  0  0  0  0  0  0  0  0  0  0  0
   -0.1570   13.0303   -0.5677 H   0  0  0  0  0  0  0  0  0  0  0  0
    3.2585   14.8149   -2.3465 H   0  0  0  0  0  0  0  0  0  0  0  0
    3.2072   15.2333    0.1962 H   0  0  0  0  0  0  0  0  0  0  0  0
    3.6668   16.5718   -0.9813 H   0  0  0  0  0  0  0  0  0  0  0  0
    2.0938   17.2655    1.0141 H   0  0  0  0  0  0  0  0  0  0  0  0
   -0.4654   16.0085   -1.8465 H   0  0  0  0  0  0  0  0  0  0  0  0
    0.6082   18.6947   -2.9053 H   0  0  0  0  0  0  0  0  0  0  0  0
   -0.5852   17.5943   -3.7272 H   0  0  0  0  0  0  0  0  0  0  0  0
   -1.6841   19.5396   -2.6640 H   0  0  0  0  0  0  0  0  0  0  0  0
   -2.1955   17.9614   -1.9475 H   0  0  0  0  0  0  0  0  0  0  0  0
   -1.8498   19.5387   -0.1708 H   0  0  0  0  0  0  0  0  0  0  0  0
    0.1720   20.5940    0.0500 H   0  0  0  0  0  0  0  0  0  0  0  0
   -1.5830   17.0136    1.7301 H   0  0  0  0  0  0  0  0  0  0  0  0
   -2.4760   17.4354    0.2297 H   0  0  0  0  0  0  0  0  0  0  0  0
   -1.3181   16.0621    0.2297 H   0  0  0  0  0  0  0  0  0  0  0  0
   -0.2900   18.1411    2.4007 H   0  0  0  0  0  0  0  0  0  0  0  0
    1.2327   18.6118    1.5721 H   0  0  0  0  0  0  0  0  0  0  0  0
   -0.1728   19.7305    1.5721 H   0  0  0  0  0  0  0  0  0  0  0  0
    2.9657   17.5421   -2.7266 H   0  0  0  0  0  0  0  0  0  0  0  0
    3.1130   16.3959   -4.1018 H   0  0  0  0  0  0  0  0  0  0  0  0
    1.8139   17.6364   -4.1018 H   0  0  0  0  0  0  0  0  0  0  0  0
   -0.0982   15.6421   -4.2340 H   0  0  0  0  0  0  0  0  0  0  0  0
    1.5673   14.9244   -4.6164 H   0  0  0  0  0  0  0  0  0  0  0  0
   -0.5733   13.7692   -2.8091 H   0  0  0  0  0  0  0  0  0  0  0  0
    0.0513   13.1212   -4.3766 H   0  0  0  0  0  0  0  0  0  0  0  0
    3.5414   12.6044   -3.1309 H   0  0  0  0  0  0  0  0  0  0  0  0
    2.4402   11.8609   -4.3397 H   0  0  0  0  0  0  0  0  0  0  0  0
    2.7058   13.6374   -4.3397 H   0  0  0  0  0  0  0  0  0  0  0  0
  1  2  1  0
  2  3  1  0
  3  4  1  0
  4  5  1  0
  5  6  1  0
  6  7  1  0
  7  8  1  0
  7  9  1  0
  2 10  1  0
 10 11  1  0
 11 12  1  0
 12 13  1  0
 13 14  1  1
 13 15  1  0
 15 16  1  0
 16 17  1  0
 17 18  2  0
 18 19  1  0
 19 20  1  0
 20 21  1  0
 21 22  1  0
 22 23  1  0
 22 24  1  0
 24 25  1  0
 24 26  1  0
 19 27  1  0
 27 28  1  6
 27 29  1  0
 29 30  1  0
 30 31  1  0
 31 32  1  6
  7  5  1  0
 31 10  1  0
 31 13  1  0
 27 15  1  0
 24 18  1  0
  1 33  1  0
  1 34  1  0
  1 35  1  0
  2 36  1  6
  3 37  1  0
  3 38  1  0
  4 39  1  0
  4 40  1  0
  5 41  1  1
  8 42  1  0
  8 43  1  0
  8 44  1  0
  9 45  1  0
  9 46  1  0
  9 47  1  0
 10 48  1  1
 11 49  1  0
 11 50  1  0
 12 51  1  0
 12 52  1  0
 14 53  1  0
 14 54  1  0
 14 55  1  0
 15 56  1  6
 16 57  1  0
 16 58  1  0
 17 59  1  0
 19 60  1  1
 20 61  1  0
 20 62  1  0
 21 63  1  0
 21 64  1  0
 22 65  1  1
 23 66  1  0
 25 67  1  0
 25 68  1  0
 25 69  1  0
 26 70  1  0
 26 71  1  0
 26 72  1  0
 28 73  1  0
 28 74  1  0
 28 75  1  0
 29 76  1  0
 29 77  1  0
 30 78  1  0
 30 79  1  0
 32 80  1  0
 32 81  1  0
 32 82  1  0
M  END
>  <meeko>  (8) 
{"is_sidechain": [false], "intermolecular_energy": 2.731, "internal_energy": -0.839}

$$$$
EPH_relaxed_0001_pdb2pqr_Repair_366_r2_0001_out
     RDKit          3D

 82 86  0  0  0  0  0  0  0  0999 V2000
    2.4590   19.3920   -0.7870 C   0  0  0  0  0  0  0  0  0  0  0  0
    2.3600   18.4440   -1.9850 C   0  0  2  0  0  0  0  0  0  0  0  0
    0.9720   18.4980   -2.6550 C   0  0  0  0  0  0  0  0  0  0  0  0
    0.0970   19.6550   -2.1650 C   0  0  0  0  0  0  0  0  0  0  0  0
   -1.1640   19.1620   -1.5220 C   0  0  2  0  0  0  0  0  0  0  0  0
   -2.0800   20.1940   -1.1320 O   0  0  0  0  0  0  0  0  0  0  0  0
   -1.5140   19.4130   -0.0670 C   0  0  0  0  0  0  0  0  0  0  0  0
   -0.6000   20.1840    0.8340 C   0  0  0  0  0  0  0  0  0  0  0  0
   -2.4960   18.5020    0.6000 C   0  0  0  0  0  0  0  0  0  0  0  0
    2.6730   17.0180   -1.5470 C   0  0  1  0  0  0  0  0  0  0  0  0
    3.4530   16.9630   -0.2070 C   0  0  0  0  0  0  0  0  0  0  0  0
    2.9620   15.6990    0.5440 C   0  0  0  0  0  0  0  0  0  0  0  0
    2.1720   14.8970   -0.5160 C   0  0  1  0  0  0  0  0  0  0  0  0
    3.2610   14.1390   -1.3390 C   0  0  0  0  0  0  0  0  0  0  0  0
    1.0770   13.9230    0.0280 C   0  0  2  0  0  0  0  0  0  0  0  0
    1.6020   12.7830    0.9190 C   0  0  0  0  0  0  0  0  0  0  0  0
    1.9630   11.5260    0.1990 C   0  0  0  0  0  0  0  0  0  0  0  0
    1.6070   11.2170   -1.0620 C   0  0  0  0  0  0  0  0  0  0  0  0
    0.6780   12.1350   -1.8660 C   0  0  1  0  0  0  0  0  0  0  0  0
   -0.4220   11.2850   -2.5540 C   0  0  0  0  0  0  0  0  0  0  0  0
    0.1550   10.1550   -3.4000 C   0  0  0  0  0  0  0  0  0  0  0  0
    1.0260    9.2300   -2.5540 C   0  0  2  0  0  0  0  0  0  0  0  0
    0.1940    8.5500   -1.6090 O   0  0  0  0  0  0  0  0  0  0  0  0
    2.1650    9.9770   -1.8040 C   0  0  0  0  0  0  0  0  0  0  0  0
    3.2300   10.4570   -2.8210 C   0  0  0  0  0  0  0  0  0  0  0  0
    2.8780    8.9540   -0.8790 C   0  0  0  0  0  0  0  0  0  0  0  0
    0.0830   13.3810   -1.0780 C   0  0  1  0  0  0  0  0  0  0  0  0
   -1.2250   12.9670   -0.3370 C   0  0  0  0  0  0  0  0  0  0  0  0
   -0.3260   14.4960   -2.1120 C   0  0  0  0  0  0  0  0  0  0  0  0
    0.7680   15.5010   -2.5200 C   0  0  0  0  0  0  0  0  0  0  0  0
    1.4720   16.0750   -1.2860 C   0  0  2  0  0  0  0  0  0  0  0  0
    0.4060   16.8630   -0.4510 C   0  0  0  0  0  0  0  0  0  0  0  0
    2.3984   18.8119    0.1456 H   0  0  0  0  0  0  0  0  0  0  0  0
    3.4181   19.9294   -0.8229 H   0  0  0  0  0  0  0  0  0  0  0  0
    1.6316   20.1159   -0.8229 H   0  0  0  0  0  0  0  0  0  0  0  0
    3.0988   18.7739   -2.7302 H   0  0  0  0  0  0  0  0  0  0  0  0
    1.1142   18.6056   -3.7404 H   0  0  0  0  0  0  0  0  0  0  0  0
    0.4507   17.5662   -2.3905 H   0  0  0  0  0  0  0  0  0  0  0  0
    0.6647   20.2451   -1.4305 H   0  0  0  0  0  0  0  0  0  0  0  0
   -0.1788   20.2690   -3.0350 H   0  0  0  0  0  0  0  0  0  0  0  0
   -1.1427   18.2443   -2.1281 H   0  0  0  0  0  0  0  0  0  0  0  0
   -0.8532   19.9704    1.8829 H   0  0  0  0  0  0  0  0  0  0  0  0
    0.4415   19.8875    0.6405 H   0  0  0  0  0  0  0  0  0  0  0  0
   -0.7167   21.2605    0.6405 H   0  0  0  0  0  0  0  0  0  0  0  0
   -2.3977   18.5932    1.6918 H   0  0  0  0  0  0  0  0  0  0  0  0
   -3.5169   18.7800    0.2993 H   0  0  0  0  0  0  0  0  0  0  0  0
   -2.2952   17.4631    0.2993 H   0  0  0  0  0  0  0  0  0  0  0  0
    3.2372   16.6740   -2.4264 H   0  0  0  0  0  0  0  0  0  0  0  0
    4.5336   16.8931   -0.4002 H   0  0  0  0  0  0  0  0  0  0  0  0
    3.2778   17.8703    0.3898 H   0  0  0  0  0  0  0  0  0  0  0  0
    3.8150   15.1135    0.9176 H   0  0  0  0  0  0  0  0  0  0  0  0
    2.3475   15.9479    1.4218 H   0  0  0  0  0  0  0  0  0  0  0  0
    3.9654   13.6487   -0.6510 H   0  0  0  0  0  0  0  0  0  0  0  0
    2.7793   13.3800   -1.9729 H   0  0  0  0  0  0  0  0  0  0  0  0
    3.8055   14.8543   -1.9729 H   0  0  0  0  0  0  0  0  0  0  0  0
    0.4905   14.5754    0.6916 H   0  0  0  0  0  0  0  0  0  0  0  0
    2.4998   13.1455    1.4411 H   0  0  0  0  0  0  0  0  0  0  0  0
    0.7754   12.5198    1.5953 H   0  0  0  0  0  0  0  0  0  0  0  0
    2.5714   10.7900    0.7451 H   0  0  0  0  0  0  0  0  0  0  0  0
    1.3097   12.6148   -2.6281 H   0  0  0  0  0  0  0  0  0  0  0  0
   -1.0682   10.8495   -1.7776 H   0  0  0  0  0  0  0  0  0  0  0  0
   -0.9863   11.9494   -3.2249 H   0  0  0  0  0  0  0  0  0  0  0  0
   -0.6710    9.5733   -3.8352 H   0  0  0  0  0  0  0  0  0  0  0  0
    0.7770   10.5935   -4.1943 H   0  0  0  0  0  0  0  0  0  0  0  0
    1.5136    8.5197   -3.2379 H   0  0  0  0  0  0  0  0  0  0  0  0
    0.0550    7.6450   -1.9370 H   0  0  0  0  0  0  0  0  0  0  0  0
    4.1030   10.8504   -2.2796 H   0  0  0  0  0  0  0  0  0  0  0  0
    3.5408    9.6119   -3.4529 H   0  0  0  0  0  0  0  0  0  0  0  0
    2.8027   11.2495   -3.4529 H   0  0  0  0  0  0  0  0  0  0  0  0
    2.6931    9.2193    0.1724 H   0  0  0  0  0  0  0  0  0  0  0  0
    2.4862    7.9454   -1.0770 H   0  0  0  0  0  0  0  0  0  0  0  0
    3.9599    8.9725   -1.0770 H   0  0  0  0  0  0  0  0  0  0  0  0
   -1.0627   13.0184    0.7497 H   0  0  0  0  0  0  0  0  0  0  0  0
   -2.0385   13.6516   -0.6190 H   0  0  0  0  0  0  0  0  0  0  0  0
   -1.4965   11.9390   -0.6190 H   0  0  0  0  0  0  0  0  0  0  0  0
   -0.6716   13.9912   -3.0262 H   0  0  0  0  0  0  0  0  0  0  0  0
   -1.0915   15.0968   -1.5991 H   0  0  0  0  0  0  0  0  0  0  0  0
    1.5091   14.9896   -3.1519 H   0  0  0  0  0  0  0  0  0  0  0  0
    0.2971   16.3278   -3.0719 H   0  0  0  0  0  0  0  0  0  0  0  0
    0.6010   16.7189    0.6219 H   0  0  0  0  0  0  0  0  0  0  0  0
    0.4682   17.9339   -0.6943 H   0  0  0  0  0  0  0  0  0  0  0  0
   -0.5996   16.4895   -0.6943 H   0  0  0  0  0  0  0  0  0  0  0  0
  1  2  1  0
  2  3  1  0
  3  4  1  0
  4  5  1  0
  5  6  1  0
  6  7  1  0
  7  8  1  0
  7  9  1  0
  2 10  1  0
 10 11  1  0
 11 12  1  0
 12 13  1  0
 13 14  1  6
 13 15  1  0
 15 16  1  0
 16 17  1  0
 17 18  2  0
 18 19  1  0
 19 20  1  0
 20 21  1  0
 21 22  1  0
 22 23  1  0
 22 24  1  0
 24 25  1  0
 24 26  1  0
 19 27  1  0
 27 28  1  1
 27 29  1  0
 29 30  1  0
 30 31  1  0
 31 32  1  1
  7  5  1  0
 31 10  1  0
 31 13  1  0
 27 15  1  0
 24 18  1  0
  1 33  1  0
  1 34  1  0
  1 35  1  0
  2 36  1  6
  3 37  1  0
  3 38  1  0
  4 39  1  0
  4 40  1  0
  5 41  1  6
  8 42  1  0
  8 43  1  0
  8 44  1  0
  9 45  1  0
  9 46  1  0
  9 47  1  0
 10 48  1  6
 11 49  1  0
 11 50  1  0
 12 51  1  0
 12 52  1  0
 14 53  1  0
 14 54  1  0
 14 55  1  0
 15 56  1  1
 16 57  1  0
 16 58  1  0
 17 59  1  0
 19 60  1  6
 20 61  1  0
 20 62  1  0
 21 63  1  0
 21 64  1  0
 22 65  1  6
 23 66  1  0
 25 67  1  0
 25 68  1  0
 25 69  1  0
 26 70  1  0
 26 71  1  0
 26 72  1  0
 28 73  1  0
 28 74  1  0
 28 75  1  0
 29 76  1  0
 29 77  1  0
 30 78  1  0
 30 79  1  0
 32 80  1  0
 32 81  1  0
 32 82  1  0
M  END
>  <meeko>  (9) 
{"is_sidechain": [false], "intermolecular_energy": 2.731, "internal_energy": -0.839}

$$$$
EPH_relaxed_0001_pdb2pqr_Repair_366_r2_0001_out
     RDKit          3D

 82 86  0  0  0  0  0  0  0  0999 V2000
    1.2840   19.6720   -1.9520 C   0  0  0  0  0  0  0  0  0  0  0  0
    1.4060   19.3690   -0.4560 C   0  0  2  0  0  0  0  0  0  0  0  0
    2.8210   19.6600    0.0830 C   0  0  0  0  0  0  0  0  0  0  0  0
    2.8900   19.7590    1.6090 C   0  0  0  0  0  0  0  0  0  0  0  0
    4.3020   19.6820    2.1060 C   0  0  2  0  0  0  0  0  0  0  0  0
    4.6200   18.4810    2.8220 O   0  0  0  0  0  0  0  0  0  0  0  0
    4.6740   19.7020    3.5770 C   0  0  0  0  0  0  0  0  0  0  0  0
    3.6290   19.8040    4.6440 C   0  0  0  0  0  0  0  0  0  0  0  0
    6.0610   20.1140    3.9590 C   0  0  0  0  0  0  0  0  0  0  0  0
    1.0350   17.9150   -0.1880 C   0  0  1  0  0  0  0  0  0  0  0  0
   -0.3300   17.7700    0.5360 C   0  0  0  0  0  0  0  0  0  0  0  0
   -0.9900   16.4780   -0.0090 C   0  0  0  0  0  0  0  0  0  0  0  0
    0.1440   15.7520   -0.7700 C   0  0  1  0  0  0  0  0  0  0  0  0
    0.9630   15.0170    0.3360 C   0  0  0  0  0  0  0  0  0  0  0  0
   -0.3020   14.7720   -1.9050 C   0  0  2  0  0  0  0  0  0  0  0  0
   -1.1480   13.5750   -1.4380 C   0  0  0  0  0  0  0  0  0  0  0  0
   -0.3750   12.3520   -1.0710 C   0  0  0  0  0  0  0  0  0  0  0  0
    0.9140   12.1200   -1.3820 C   0  0  0  0  0  0  0  0  0  0  0  0
    1.7020   13.1000   -2.2600 C   0  0  1  0  0  0  0  0  0  0  0  0
    2.4790   12.3120   -3.3470 C   0  0  0  0  0  0  0  0  0  0  0  0
    3.3630   11.2180   -2.7570 C   0  0  0  0  0  0  0  0  0  0  0  0
    2.5350   10.2300   -1.9390 C   0  0  2  0  0  0  0  0  0  0  0  0
    1.6630    9.5170   -2.8220 O   0  0  0  0  0  0  0  0  0  0  0  0
    1.7010   10.9110   -0.8180 C   0  0  0  0  0  0  0  0  0  0  0  0
    2.6470   11.4230    0.2960 C   0  0  0  0  0  0  0  0  0  0  0  0
    0.8060    9.8240   -0.1620 C   0  0  0  0  0  0  0  0  0  0  0  0
    0.8700   14.3130   -2.8630 C   0  0  1  0  0  0  0  0  0  0  0  0
    0.2060   13.8870   -4.2070 C   0  0  0  0  0  0  0  0  0  0  0  0
    1.8560   15.4910   -3.2090 C   0  0  0  0  0  0  0  0  0  0  0  0
    2.1640   16.4930   -2.0800 C   0  0  0  0  0  0  0  0  0  0  0  0
    0.8740   16.9850   -1.4160 C   0  0  2  0  0  0  0  0  0  0  0  0
    0.0390   17.7480   -2.5000 C   0  0  0  0  0  0  0  0  0  0  0  0
    0.8763   20.6845   -2.0890 H   0  0  0  0  0  0  0  0  0  0  0  0
    2.2772   19.6101   -2.4208 H   0  0  0  0  0  0  0  0  0  0  0  0
    0.6109   18.9392   -2.4208 H   0  0  0  0  0  0  0  0  0  0  0  0
    0.7084   20.0344    0.0737 H   0  0  0  0  0  0  0  0  0  0  0  0
    3.4902   18.8501   -0.2431 H   0  0  0  0  0  0  0  0  0  0  0  0
    3.1220   20.6397   -0.3166 H   0  0  0  0  0  0  0  0  0  0  0  0
    2.4529   20.7179    1.9242 H   0  0  0  0  0  0  0  0  0  0  0  0
    2.3303   18.9124    2.0333 H   0  0  0  0  0  0  0  0  0  0  0  0
    4.6612   20.2665    1.2462 H   0  0  0  0  0  0  0  0  0  0  0  0
    4.1088   19.7572    5.6328 H   0  0  0  0  0  0  0  0  0  0  0  0
    3.0924   20.7588    4.5416 H   0  0  0  0  0  0  0  0  0  0  0  0
    2.9179   18.9710    4.5416 H   0  0  0  0  0  0  0  0  0  0  0  0
    6.1471   20.1396    5.0553 H   0  0  0  0  0  0  0  0  0  0  0  0
    6.7835   19.3917    3.5512 H   0  0  0  0  0  0  0  0  0  0  0  0
    6.2720   21.1136    3.5512 H   0  0  0  0  0  0  0  0  0  0  0  0
    1.9091   17.6080    0.4051 H   0  0  0  0  0  0  0  0  0  0  0  0
   -0.1759   17.6876    1.6220 H   0  0  0  0  0  0  0  0  0  0  0  0
   -0.9687   18.6469    0.3541 H   0  0  0  0  0  0  0  0  0  0  0  0
   -1.3644   15.8551    0.8167 H   0  0  0  0  0  0  0  0  0  0  0  0
   -1.8552   16.6915   -0.6539 H   0  0  0  0  0  0  0  0  0  0  0  0
    0.6083   15.3353    1.3274 H   0  0  0  0  0  0  0  0  0  0  0  0
    0.8292   13.9303    0.2302 H   0  0  0  0  0  0  0  0  0  0  0  0
    2.0289   15.2672    0.2302 H   0  0  0  0  0  0  0  0  0  0  0  0
   -0.9774   15.3989   -2.5057 H   0  0  0  0  0  0  0  0  0  0  0  0
   -1.7247   13.8900   -0.5558 H   0  0  0  0  0  0  0  0  0  0  0  0
   -1.7750   13.2923   -2.2965 H   0  0  0  0  0  0  0  0  0  0  0  0
   -0.9029   11.5752   -0.4984 H   0  0  0  0  0  0  0  0  0  0  0  0
    2.4108   13.6075   -1.5891 H   0  0  0  0  0  0  0  0  0  0  0  0
    1.7541   11.8483   -4.0322 H   0  0  0  0  0  0  0  0  0  0  0  0
    3.1337   13.0237   -3.8713 H   0  0  0  0  0  0  0  0  0  0  0  0
    3.8625   10.6784   -3.5751 H   0  0  0  0  0  0  0  0  0  0  0  0
    4.1064   11.6860   -2.0949 H   0  0  0  0  0  0  0  0  0  0  0  0
    3.2367    9.5474   -1.4373 H   0  0  0  0  0  0  0  0  0  0  0  0
    1.4330   10.1140   -3.5540 H   0  0  0  0  0  0  0  0  0  0  0  0
    2.2149   11.1891    1.2802 H   0  0  0  0  0  0  0  0  0  0  0  0
    3.6266   10.9319    0.1996 H   0  0  0  0  0  0  0  0  0  0  0  0
    2.7716   12.5117    0.1996 H   0  0  0  0  0  0  0  0  0  0  0  0
    0.8731    9.9055    0.9329 H   0  0  0  0  0  0  0  0  0  0  0  0
   -0.2378    9.9692   -0.4772 H   0  0  0  0  0  0  0  0  0  0  0  0
    1.1489    8.8275   -0.4772 H   0  0  0  0  0  0  0  0  0  0  0  0
   -0.7030   13.3038   -3.9982 H   0  0  0  0  0  0  0  0  0  0  0  0
   -0.0588   14.7842   -4.7857 H   0  0  0  0  0  0  0  0  0  0  0  0
    0.9112   13.2723   -4.7857 H   0  0  0  0  0  0  0  0  0  0  0  0
    2.8096   15.0443   -3.5269 H   0  0  0  0  0  0  0  0  0  0  0  0
    1.3417   16.0790   -3.9834 H   0  0  0  0  0  0  0  0  0  0  0  0
    2.7928   16.0006   -1.3236 H   0  0  0  0  0  0  0  0  0  0  0  0
    2.6878   17.3583   -2.5124 H   0  0  0  0  0  0  0  0  0  0  0  0
   -0.6862   18.4106   -2.0049 H   0  0  0  0  0  0  0  0  0  0  0  0
    0.7143   18.3476   -3.1281 H   0  0  0  0  0  0  0  0  0  0  0  0
   -0.4974   17.0215   -3.1281 H   0  0  0  0  0  0  0  0  0  0  0  0
  1  2  1  0
  2  3  1  0
  3  4  1  0
  4  5  1  0
  5  6  1  0
  6  7  1  0
  7  8  1  0
  7  9  1  0
  2 10  1  0
 10 11  1  0
 11 12  1  0
 12 13  1  0
 13 14  1  1
 13 15  1  0
 15 16  1  0
 16 17  1  0
 17 18  2  0
 18 19  1  0
 19 20  1  0
 20 21  1  0
 21 22  1  0
 22 23  1  0
 22 24  1  0
 24 25  1  0
 24 26  1  0
 19 27  1  0
 27 28  1  6
 27 29  1  0
 29 30  1  0
 30 31  1  0
 31 32  1  6
  7  5  1  0
 31 10  1  0
 31 13  1  0
 27 15  1  0
 24 18  1  0
  1 33  1  0
  1 34  1  0
  1 35  1  0
  2 36  1  1
  3 37  1  0
  3 38  1  0
  4 39  1  0
  4 40  1  0
  5 41  1  6
  8 42  1  0
  8 43  1  0
  8 44  1  0
  9 45  1  0
  9 46  1  0
  9 47  1  0
 10 48  1  1
 11 49  1  0
 11 50  1  0
 12 51  1  0
 12 52  1  0
 14 53  1  0
 14 54  1  0
 14 55  1  0
 15 56  1  6
 16 57  1  0
 16 58  1  0
 17 59  1  0
 19 60  1  1
 20 61  1  0
 20 62  1  0
 21 63  1  0
 21 64  1  0
 22 65  1  1
 23 66  1  0
 25 67  1  0
 25 68  1  0
 25 69  1  0
 26 70  1  0
 26 71  1  0
 26 72  1  0
 28 73  1  0
 28 74  1  0
 28 75  1  0
 29 76  1  0
 29 77  1  0
 30 78  1  0
 30 79  1  0
 32 80  1  0
 32 81  1  0
 32 82  1  0
M  END
>  <meeko>  (10) 
{"is_sidechain": [false], "intermolecular_energy": 2.731, "internal_energy": -0.839}

$$$$
EPH_relaxed_0001_pdb2pqr_Repair_366_r2_0001_out
     RDKit          3D

 82 86  0  0  0  0  0  0  0  0999 V2000
   -0.9290   19.5960   -2.4730 C   0  0  0  0  0  0  0  0  0  0  0  0
   -0.1840   18.9870   -1.2820 C   0  0  2  0  0  0  0  0  0  0  0  0
    0.7500   20.0060   -0.5980 C   0  0  0  0  0  0  0  0  0  0  0  0
    1.2470   19.5580    0.7790 C   0  0  0  0  0  0  0  0  0  0  0  0
    2.7440   19.5080    0.8380 C   0  0  2  0  0  0  0  0  0  0  0  0
    3.2760   18.4360    1.6280 O   0  0  0  0  0  0  0  0  0  0  0  0
    3.5400   19.7660    2.1030 C   0  0  0  0  0  0  0  0  0  0  0  0
    2.8640   20.0940    3.3970 C   0  0  0  0  0  0  0  0  0  0  0  0
    4.9740   20.1780    1.9750 C   0  0  0  0  0  0  0  0  0  0  0  0
    0.6150   17.7710   -1.7350 C   0  0  1  0  0  0  0  0  0  0  0  0
    2.1380   18.0560   -1.8270 C   0  0  0  0  0  0  0  0  0  0  0  0
    2.8630   16.7510   -1.4100 C   0  0  0  0  0  0  0  0  0  0  0  0
    1.7570   15.6710   -1.4140 C   0  0  1  0  0  0  0  0  0  0  0  0
    1.6060   15.2570   -2.9120 C   0  0  0  0  0  0  0  0  0  0  0  0
    1.9990   14.4300   -0.4940 C   0  0  2  0  0  0  0  0  0  0  0  0
    3.2310   13.5820   -0.8540 C   0  0  0  0  0  0  0  0  0  0  0  0
    2.9790   12.4670   -1.8160 C   0  0  0  0  0  0  0  0  0  0  0  0
    1.7700   11.9800   -2.1490 C   0  0  0  0  0  0  0  0  0  0  0  0
    0.4970   12.4940   -1.4630 C   0  0  1  0  0  0  0  0  0  0  0  0
   -0.3900   11.2910   -1.0500 C   0  0  0  0  0  0  0  0  0  0  0  0
   -0.6940   10.3590   -2.2190 C   0  0  0  0  0  0  0  0  0  0  0  0
    0.5950    9.8230   -2.8380 C   0  0  2  0  0  0  0  0  0  0  0  0
    1.2420    8.9700   -1.8880 O   0  0  0  0  0  0  0  0  0  0  0  0
    1.5740   10.9450   -3.2840 C   0  0  0  0  0  0  0  0  0  0  0  0
    0.9940   11.6800   -4.5180 C   0  0  0  0  0  0  0  0  0  0  0  0
    2.8890   10.2700   -3.7580 C   0  0  0  0  0  0  0  0  0  0  0  0
    0.7190   13.5260   -0.2750 C   0  0  1  0  0  0  0  0  0  0  0  0
    0.9410   12.7570    1.0630 C   0  0  0  0  0  0  0  0  0  0  0  0
   -0.5910   14.3800   -0.0850 C   0  0  0  0  0  0  0  0  0  0  0  0
   -0.7170   15.6580   -0.9350 C   0  0  0  0  0  0  0  0  0  0  0  0
    0.5550   16.5070   -0.8410 C   0  0  2  0  0  0  0  0  0  0  0  0
    0.7210   16.9560    0.6510 C   0  0  0  0  0  0  0  0  0  0  0  0
   -1.7320   20.2524   -2.1065 H   0  0  0  0  0  0  0  0  0  0  0  0
   -0.2267   20.1819   -3.0841 H   0  0  0  0  0  0  0  0  0  0  0  0
   -1.3636   18.7912   -3.0841 H   0  0  0  0  0  0  0  0  0  0  0  0
   -0.9381   18.6816   -0.5417 H   0  0  0  0  0  0  0  0  0  0  0  0
    1.6235   20.1666   -1.2471 H   0  0  0  0  0  0  0  0  0  0  0  0
    0.1657   20.9254   -0.4453 H   0  0  0  0  0  0  0  0  0  0  0  0
    0.8837   20.2672    1.5373 H   0  0  0  0  0  0  0  0  0  0  0  0
    0.8620   18.5455    0.9702 H   0  0  0  0  0  0  0  0  0  0  0  0
    2.8218   19.9193   -0.1792 H   0  0  0  0  0  0  0  0  0  0  0  0
    3.5052   19.7829    4.2349 H   0  0  0  0  0  0  0  0  0  0  0  0
    2.6870   21.1782    3.4537 H   0  0  0  0  0  0  0  0  0  0  0  0
    1.9028   19.5621    3.4537 H   0  0  0  0  0  0  0  0  0  0  0  0
    5.4103   20.3034    2.9770 H   0  0  0  0  0  0  0  0  0  0  0  0
    5.5305   19.4034    1.4270 H   0  0  0  0  0  0  0  0  0  0  0  0
    5.0345   21.1299    1.4270 H   0  0  0  0  0  0  0  0  0  0  0  0
    0.1209   17.5751   -2.6981 H   0  0  0  0  0  0  0  0  0  0  0  0
    2.4109   18.3283   -2.8572 H   0  0  0  0  0  0  0  0  0  0  0  0
    2.4235   18.8929   -1.1727 H   0  0  0  0  0  0  0  0  0  0  0  0
    3.6542   16.4990   -2.1314 H   0  0  0  0  0  0  0  0  0  0  0  0
    3.3534   16.8417   -0.4296 H   0  0  0  0  0  0  0  0  0  0  0  0
    1.2296   14.2251   -2.9711 H   0  0  0  0  0  0  0  0  0  0  0  0
    0.8972   15.9349   -3.4101 H   0  0  0  0  0  0  0  0  0  0  0  0
    2.5848   15.3194   -3.4101 H   0  0  0  0  0  0  0  0  0  0  0  0
    2.2298   14.8961    0.4753 H   0  0  0  0  0  0  0  0  0  0  0  0
    3.9852   14.2491   -1.2968 H   0  0  0  0  0  0  0  0  0  0  0  0
    3.5583   13.1076    0.0829 H   0  0  0  0  0  0  0  0  0  0  0  0
    3.8564   12.0052   -2.2923 H   0  0  0  0  0  0  0  0  0  0  0  0
   -0.0282   13.1041   -2.2126 H   0  0  0  0  0  0  0  0  0  0  0  0
    0.1332   10.7187   -0.2698 H   0  0  0  0  0  0  0  0  0  0  0  0
   -1.3472   11.6919   -0.6853 H   0  0  0  0  0  0  0  0  0  0  0  0
   -1.2987    9.5140   -1.8581 H   0  0  0  0  0  0  0  0  0  0  0  0
   -1.2434   10.9248   -2.9859 H   0  0  0  0  0  0  0  0  0  0  0  0
    0.3187    9.2687   -3.7471 H   0  0  0  0  0  0  0  0  0  0  0  0
    0.8500    8.0840   -1.9730 H   0  0  0  0  0  0  0  0  0  0  0  0
    0.3449   12.5026   -4.1832 H   0  0  0  0  0  0  0  0  0  0  0  0
    1.8177   12.0861   -5.1235 H   0  0  0  0  0  0  0  0  0  0  0  0
    0.4075   10.9733   -5.1235 H   0  0  0  0  0  0  0  0  0  0  0  0
    3.4814    9.9659   -2.8824 H   0  0  0  0  0  0  0  0  0  0  0  0
    2.6486    9.3838   -4.3637 H   0  0  0  0  0  0  0  0  0  0  0  0
    3.4689   10.9819   -4.3637 H   0  0  0  0  0  0  0  0  0  0  0  0
    0.7464   13.4312    1.9101 H   0  0  0  0  0  0  0  0  0  0  0  0
    0.2537   11.8995    1.1115 H   0  0  0  0  0  0  0  0  0  0  0  0
    1.9795   12.3977    1.1115 H   0  0  0  0  0  0  0  0  0  0  0  0
   -1.4475   13.7336   -0.3272 H   0  0  0  0  0  0  0  0  0  0  0  0
   -0.5573   14.7301    0.9573 H   0  0  0  0  0  0  0  0  0  0  0  0
   -0.8850   15.3766   -1.9850 H   0  0  0  0  0  0  0  0  0  0  0  0
   -1.5626   16.2500   -0.5549 H   0  0  0  0  0  0  0  0  0  0  0  0
    0.4174   16.1348    1.3170 H   0  0  0  0  0  0  0  0  0  0  0  0
    1.7735   17.2127    0.8417 H   0  0  0  0  0  0  0  0  0  0  0  0
    0.0886   17.8356    0.8417 H   0  0  0  0  0  0  0  0  0  0  0  0
  1  2  1  0
  2  3  1  0
  3  4  1  0
  4  5  1  0
  5  6  1  0
  6  7  1  0
  7  8  1  0
  7  9  1  0
  2 10  1  0
 10 11  1  0
 11 12  1  0
 12 13  1  0
 13 14  1  6
 13 15  1  0
 15 16  1  0
 16 17  1  0
 17 18  2  0
 18 19  1  0
 19 20  1  0
 20 21  1  0
 21 22  1  0
 22 23  1  0
 22 24  1  0
 24 25  1  0
 24 26  1  0
 19 27  1  0
 27 28  1  1
 27 29  1  0
 29 30  1  0
 30 31  1  0
 31 32  1  1
  7  5  1  0
 31 10  1  0
 31 13  1  0
 27 15  1  0
 24 18  1  0
  1 33  1  0
  1 34  1  0
  1 35  1  0
  2 36  1  1
  3 37  1  0
  3 38  1  0
  4 39  1  0
  4 40  1  0
  5 41  1  6
  8 42  1  0
  8 43  1  0
  8 44  1  0
  9 45  1  0
  9 46  1  0
  9 47  1  0
 10 48  1  6
 11 49  1  0
 11 50  1  0
 12 51  1  0
 12 52  1  0
 14 53  1  0
 14 54  1  0
 14 55  1  0
 15 56  1  1
 16 57  1  0
 16 58  1  0
 17 59  1  0
 19 60  1  6
 20 61  1  0
 20 62  1  0
 21 63  1  0
 21 64  1  0
 22 65  1  6
 23 66  1  0
 25 67  1  0
 25 68  1  0
 25 69  1  0
 26 70  1  0
 26 71  1  0
 26 72  1  0
 28 73  1  0
 28 74  1  0
 28 75  1  0
 29 76  1  0
 29 77  1  0
 30 78  1  0
 30 79  1  0
 32 80  1  0
 32 81  1  0
 32 82  1  0
M  END
>  <meeko>  (11) 
{"is_sidechain": [false], "intermolecular_energy": 2.731, "internal_energy": -0.839}

$$$$
EPH_relaxed_0001_pdb2pqr_Repair_366_r2_0001_out
     RDKit          3D

 82 86  0  0  0  0  0  0  0  0999 V2000
    0.1590   17.7900   -2.4860 C   0  0  0  0  0  0  0  0  0  0  0  0
   -0.0670   16.8950   -1.2650 C   0  0  2  0  0  0  0  0  0  0  0  0
   -0.1030   17.7020    0.0480 C   0  0  0  0  0  0  0  0  0  0  0  0
    0.5190   19.0960   -0.0690 C   0  0  0  0  0  0  0  0  0  0  0  0
    1.6690   19.2720    0.8750 C   0  0  2  0  0  0  0  0  0  0  0  0
    2.6730   20.1940    0.4310 O   0  0  0  0  0  0  0  0  0  0  0  0
    3.0850   18.8240    0.5610 C   0  0  0  0  0  0  0  0  0  0  0  0
    3.4240   18.1650   -0.7390 C   0  0  0  0  0  0  0  0  0  0  0  0
    4.0280   18.5840    1.6980 C   0  0  0  0  0  0  0  0  0  0  0  0
    1.0210   15.8300   -1.1920 C   0  0  1  0  0  0  0  0  0  0  0  0
    1.2590   15.3160    0.2530 C   0  0  0  0  0  0  0  0  0  0  0  0
    1.6110   13.8110    0.1400 C   0  0  0  0  0  0  0  0  0  0  0  0
    1.8890   13.5870   -1.3650 C   0  0  1  0  0  0  0  0  0  0  0  0
    3.3560   14.0750   -1.5790 C   0  0  0  0  0  0  0  0  0  0  0  0
    1.6810   12.1310   -1.8960 C   0  0  2  0  0  0  0  0  0  0  0  0
    2.6040   11.0700   -1.2720 C   0  0  0  0  0  0  0  0  0  0  0  0
    3.8950   10.8480   -1.9880 C   0  0  0  0  0  0  0  0  0  0  0  0
    4.1780   11.2600   -3.2380 C   0  0  0  0  0  0  0  0  0  0  0  0
    3.1110   11.9450   -4.1010 C   0  0  1  0  0  0  0  0  0  0  0  0
    3.1180   11.3230   -5.5230 C   0  0  0  0  0  0  0  0  0  0  0  0
    4.5000   11.3570   -6.1680 C   0  0  0  0  0  0  0  0  0  0  0  0
    5.5220   10.6160   -5.3080 C   0  0  2  0  0  0  0  0  0  0  0  0
    5.1910    9.2240   -5.2960 O   0  0  0  0  0  0  0  0  0  0  0  0
    5.5960   11.1490   -3.8500 C   0  0  0  0  0  0  0  0  0  0  0  0
    6.2410   12.5570   -3.8420 C   0  0  0  0  0  0  0  0  0  0  0  0
    6.5580   10.2270   -3.0530 C   0  0  0  0  0  0  0  0  0  0  0  0
    1.6520   12.0150   -3.4740 C   0  0  1  0  0  0  0  0  0  0  0  0
    0.8640   10.7120   -3.8110 C   0  0  0  0  0  0  0  0  0  0  0  0
    0.8600   13.1990   -4.1460 C   0  0  0  0  0  0  0  0  0  0  0  0
    1.0120   14.5900   -3.5030 C   0  0  0  0  0  0  0  0  0  0  0  0
    0.7900   14.5220   -1.9890 C   0  0  2  0  0  0  0  0  0  0  0  0
   -0.6860   14.0550   -1.7430 C   0  0  0  0  0  0  0  0  0  0  0  0
    0.4157   18.8065   -2.1530 H   0  0  0  0  0  0  0  0  0  0  0  0
    0.9827   17.3835   -3.0912 H   0  0  0  0  0  0  0  0  0  0  0  0
   -0.7589   17.8232   -3.0912 H   0  0  0  0  0  0  0  0  0  0  0  0
   -1.0495   16.4150   -1.3845 H   0  0  0  0  0  0  0  0  0  0  0  0
   -1.1525   17.8149    0.3575 H   0  0  0  0  0  0  0  0  0  0  0  0
    0.4942   17.1444    0.7845 H   0  0  0  0  0  0  0  0  0  0  0  0
    0.8780   19.2407   -1.0987 H   0  0  0  0  0  0  0  0  0  0  0  0
   -0.2517   19.8375    0.1883 H   0  0  0  0  0  0  0  0  0  0  0  0
    1.0147   19.0977    1.7419 H   0  0  0  0  0  0  0  0  0  0  0  0
    3.9192   17.2023   -0.5439 H   0  0  0  0  0  0  0  0  0  0  0  0
    2.5023   17.9933   -1.3144 H   0  0  0  0  0  0  0  0  0  0  0  0
    4.0997   18.8150   -1.3144 H   0  0  0  0  0  0  0  0  0  0  0  0
    3.4954   18.7195    2.6509 H   0  0  0  0  0  0  0  0  0  0  0  0
    4.4193   17.5576    1.6394 H   0  0  0  0  0  0  0  0  0  0  0  0
    4.8624   19.2984    1.6394 H   0  0  0  0  0  0  0  0  0  0  0  0
    1.8594   16.3934   -1.6275 H   0  0  0  0  0  0  0  0  0  0  0  0
    2.0905   15.8656    0.7184 H   0  0  0  0  0  0  0  0  0  0  0  0
    0.3664   15.4670    0.8779 H   0  0  0  0  0  0  0  0  0  0  0  0
    2.5029   13.5748    0.7390 H   0  0  0  0  0  0  0  0  0  0  0  0
    0.8042   13.1646    0.5158 H   0  0  0  0  0  0  0  0  0  0  0  0
    3.8356   14.2345   -0.6020 H   0  0  0  0  0  0  0  0  0  0  0  0
    3.9167   13.3150   -2.1429 H   0  0  0  0  0  0  0  0  0  0  0  0
    3.3497   15.0194   -2.1429 H   0  0  0  0  0  0  0  0  0  0  0  0
    0.6682   11.8926   -1.5389 H   0  0  0  0  0  0  0  0  0  0  0  0
    2.8353   11.3833   -0.2432 H   0  0  0  0  0  0  0  0  0  0  0  0
    2.0561   10.1179   -1.3297 H   0  0  0  0  0  0  0  0  0  0  0  0
    4.6821   10.3012   -1.4482 H   0  0  0  0  0  0  0  0  0  0  0  0
    3.3984   13.0054   -4.1550 H   0  0  0  0  0  0  0  0  0  0  0  0
    2.7874   10.2763   -5.4519 H   0  0  0  0  0  0  0  0  0  0  0  0
    2.4405   11.9190   -6.1521 H   0  0  0  0  0  0  0  0  0  0  0  0
    4.4475   10.8787   -7.1572 H   0  0  0  0  0  0  0  0  0  0  0  0
    4.8168   12.4060   -6.2644 H   0  0  0  0  0  0  0  0  0  0  0  0
    6.5134   10.7843   -5.7538 H   0  0  0  0  0  0  0  0  0  0  0  0
    5.5870    8.8210   -6.0870 H   0  0  0  0  0  0  0  0  0  0  0  0
    6.3915   12.8855   -2.8030 H   0  0  0  0  0  0  0  0  0  0  0  0
    7.2114   12.5187   -4.3586 H   0  0  0  0  0  0  0  0  0  0  0  0
    5.5783   13.2668   -4.3586 H   0  0  0  0  0  0  0  0  0  0  0  0
    6.4008   10.3776   -1.9748 H   0  0  0  0  0  0  0  0  0  0  0  0
    6.3559    9.1767   -3.3098 H   0  0  0  0  0  0  0  0  0  0  0  0
    7.5988   10.4735   -3.3098 H   0  0  0  0  0  0  0  0  0  0  0  0
    0.5628   10.2139   -2.8776 H   0  0  0  0  0  0  0  0  0  0  0  0
   -0.0318   10.9663   -4.3965 H   0  0  0  0  0  0  0  0  0  0  0  0
    1.5053   10.0368   -4.3965 H   0  0  0  0  0  0  0  0  0  0  0  0
    1.1991   13.2761   -5.1896 H   0  0  0  0  0  0  0  0  0  0  0  0
   -0.2022   12.9403   -4.0240 H   0  0  0  0  0  0  0  0  0  0  0  0
    2.0254   14.9692   -3.7013 H   0  0  0  0  0  0  0  0  0  0  0  0
    0.2573   15.2616   -3.9381 H   0  0  0  0  0  0  0  0  0  0  0  0
   -0.8761   13.9949   -0.6612 H   0  0  0  0  0  0  0  0  0  0  0  0
   -1.3798   14.7775   -2.1976 H   0  0  0  0  0  0  0  0  0  0  0  0
   -0.8379   13.0649   -2.1976 H   0  0  0  0  0  0  0  0  0  0  0  0
  1  2  1  0
  2  3  1  0
  3  4  1  0
  4  5  1  0
  5  6  1  0
  6  7  1  0
  7  8  1  0
  7  9  1  0
  2 10  1  0
 10 11  1  0
 11 12  1  0
 12 13  1  0
 13 14  1  1
 13 15  1  0
 15 16  1  0
 16 17  1  0
 17 18  2  0
 18 19  1  0
 19 20  1  0
 20 21  1  0
 21 22  1  0
 22 23  1  0
 22 24  1  0
 24 25  1  0
 24 26  1  0
 19 27  1  0
 27 28  1  1
 27 29  1  0
 29 30  1  0
 30 31  1  0
 31 32  1  6
  7  5  1  0
 31 10  1  0
 31 13  1  0
 27 15  1  0
 24 18  1  0
  1 33  1  0
  1 34  1  0
  1 35  1  0
  2 36  1  6
  3 37  1  0
  3 38  1  0
  4 39  1  0
  4 40  1  0
  5 41  1  1
  8 42  1  0
  8 43  1  0
  8 44  1  0
  9 45  1  0
  9 46  1  0
  9 47  1  0
 10 48  1  6
 11 49  1  0
 11 50  1  0
 12 51  1  0
 12 52  1  0
 14 53  1  0
 14 54  1  0
 14 55  1  0
 15 56  1  1
 16 57  1  0
 16 58  1  0
 17 59  1  0
 19 60  1  6
 20 61  1  0
 20 62  1  0
 21 63  1  0
 21 64  1  0
 22 65  1  6
 23 66  1  0
 25 67  1  0
 25 68  1  0
 25 69  1  0
 26 70  1  0
 26 71  1  0
 26 72  1  0
 28 73  1  0
 28 74  1  0
 28 75  1  0
 29 76  1  0
 29 77  1  0
 30 78  1  0
 30 79  1  0
 32 80  1  0
 32 81  1  0
 32 82  1  0
M  END
>  <meeko>  (12) 
{"is_sidechain": [false], "intermolecular_energy": 2.731, "internal_energy": -0.839}

$$$$
EPH_relaxed_0001_pdb2pqr_Repair_366_r2_0001_out
     RDKit          3D

 82 86  0  0  0  0  0  0  0  0999 V2000
   -0.9030   16.3820   -5.8580 C   0  0  0  0  0  0  0  0  0  0  0  0
    0.1890   15.6830   -6.6730 C   0  0  2  0  0  0  0  0  0  0  0  0
   -0.2180   15.4970   -8.1490 C   0  0  0  0  0  0  0  0  0  0  0  0
    0.4360   16.5030   -9.0990 C   0  0  0  0  0  0  0  0  0  0  0  0
    1.8420   16.1120   -9.4390 C   0  0  2  0  0  0  0  0  0  0  0  0
    2.3430   16.6770  -10.6580 O   0  0  0  0  0  0  0  0  0  0  0  0
    2.2050   15.2470  -10.6320 C   0  0  0  0  0  0  0  0  0  0  0  0
    1.1560   14.7200  -11.5610 C   0  0  0  0  0  0  0  0  0  0  0  0
    3.5100   14.5150  -10.6150 C   0  0  0  0  0  0  0  0  0  0  0  0
    0.5180   14.3310   -6.0500 C   0  0  1  0  0  0  0  0  0  0  0  0
    1.7580   13.6600   -6.6980 C   0  0  0  0  0  0  0  0  0  0  0  0
    2.4970   12.8980   -5.5680 C   0  0  0  0  0  0  0  0  0  0  0  0
    1.4930   12.8770   -4.3920 C   0  0  1  0  0  0  0  0  0  0  0  0
    0.5170   11.7030   -4.7180 C   0  0  0  0  0  0  0  0  0  0  0  0
    2.1080   12.7350   -2.9610 C   0  0  2  0  0  0  0  0  0  0  0  0
    2.8770   11.4270   -2.7080 C   0  0  0  0  0  0  0  0  0  0  0  0
    2.0600   10.3030   -2.1620 C   0  0  0  0  0  0  0  0  0  0  0  0
    0.8330   10.4190   -1.6190 C   0  0  0  0  0  0  0  0  0  0  0  0
    0.1850   11.7960   -1.4250 C   0  0  1  0  0  0  0  0  0  0  0  0
   -0.4160   11.8880    0.0020 C   0  0  0  0  0  0  0  0  0  0  0  0
   -1.3760   10.7430    0.3080 C   0  0  0  0  0  0  0  0  0  0  0  0
   -0.6790    9.3930    0.1600 C   0  0  2  0  0  0  0  0  0  0  0  0
    0.3180    9.2750    1.1800 O   0  0  0  0  0  0  0  0  0  0  0  0
   -0.0270    9.1900   -1.2360 C   0  0  0  0  0  0  0  0  0  0  0  0
   -1.1310    9.0160   -2.3070 C   0  0  0  0  0  0  0  0  0  0  0  0
    0.7610    7.8520   -1.2040 C   0  0  0  0  0  0  0  0  0  0  0  0
    1.0950   13.0480   -1.7860 C   0  0  1  0  0  0  0  0  0  0  0  0
    1.9570   13.4530   -0.5520 C   0  0  0  0  0  0  0  0  0  0  0  0
    0.1700   14.2810   -2.1060 C   0  0  0  0  0  0  0  0  0  0  0  0
   -0.3080   14.4320   -3.5630 C   0  0  0  0  0  0  0  0  0  0  0  0
    0.8660   14.3110   -4.5400 C   0  0  2  0  0  0  0  0  0  0  0  0
    1.8530   15.4920   -4.2510 C   0  0  0  0  0  0  0  0  0  0  0  0
   -0.6996   16.2518   -4.7848 H   0  0  0  0  0  0  0  0  0  0  0  0
   -0.9127   17.4546   -6.1019 H   0  0  0  0  0  0  0  0  0  0  0  0
   -1.8811   15.9417   -6.1019 H   0  0  0  0  0  0  0  0  0  0  0  0
    1.0799   16.3279   -6.6541 H   0  0  0  0  0  0  0  0  0  0  0  0
    0.0711   14.4834   -8.4639 H   0  0  0  0  0  0  0  0  0  0  0  0
   -1.3043   15.6604   -8.2059 H   0  0  0  0  0  0  0  0  0  0  0  0
   -0.1540   16.5533  -10.0260 H   0  0  0  0  0  0  0  0  0  0  0  0
    0.4644   17.4808   -8.5959 H   0  0  0  0  0  0  0  0  0  0  0  0
    2.1065   16.0477   -8.3732 H   0  0  0  0  0  0  0  0  0  0  0  0
    0.3240   14.3020  -10.9753 H   0  0  0  0  0  0  0  0  0  0  0  0
    0.7834   15.5379  -12.1952 H   0  0  0  0  0  0  0  0  0  0  0  0
    1.5898   13.9328  -12.1952 H   0  0  0  0  0  0  0  0  0  0  0  0
    3.8195   14.3414   -9.5738 H   0  0  0  0  0  0  0  0  0  0  0  0
    3.3955   13.5494  -11.1293 H   0  0  0  0  0  0  0  0  0  0  0  0
    4.2743   15.1161  -11.1293 H   0  0  0  0  0  0  0  0  0  0  0  0
   -0.4350   13.8102   -6.2247 H   0  0  0  0  0  0  0  0  0  0  0  0
    1.4415   12.9582   -7.4837 H   0  0  0  0  0  0  0  0  0  0  0  0
    2.4146   14.4100   -7.1630 H   0  0  0  0  0  0  0  0  0  0  0  0
    2.7438   11.8744   -5.8865 H   0  0  0  0  0  0  0  0  0  0  0  0
    3.4494   13.3761   -5.2955 H   0  0  0  0  0  0  0  0  0  0  0  0
    0.1493   11.2607   -3.7803 H   0  0  0  0  0  0  0  0  0  0  0  0
   -0.3337   12.0847   -5.3017 H   0  0  0  0  0  0  0  0  0  0  0  0
    1.0476   10.9364   -5.3017 H   0  0  0  0  0  0  0  0  0  0  0  0
    2.8654   13.5327   -2.9496 H   0  0  0  0  0  0  0  0  0  0  0  0
    3.3122   11.0982   -3.6632 H   0  0  0  0  0  0  0  0  0  0  0  0
    3.6282   11.6592   -1.9387 H   0  0  0  0  0  0  0  0  0  0  0  0
    2.4973    9.2947   -2.2070 H   0  0  0  0  0  0  0  0  0  0  0  0
   -0.6181   11.8627   -2.1737 H   0  0  0  0  0  0  0  0  0  0  0  0
    0.4058   11.8638    0.7328 H   0  0  0  0  0  0  0  0  0  0  0  0
   -0.9859   12.8268    0.0640 H   0  0  0  0  0  0  0  0  0  0  0  0
   -1.7436   10.8473    1.3395 H   0  0  0  0  0  0  0  0  0  0  0  0
   -2.2129   10.7863   -0.4046 H   0  0  0  0  0  0  0  0  0  0  0  0
   -1.4465    8.6118    0.2632 H   0  0  0  0  0  0  0  0  0  0  0  0
    0.2610   10.0670    1.7400 H   0  0  0  0  0  0  0  0  0  0  0  0
   -2.1013    8.8631   -1.8119 H   0  0  0  0  0  0  0  0  0  0  0  0
   -1.1779    9.9178   -2.9351 H   0  0  0  0  0  0  0  0  0  0  0  0
   -0.8983    8.1434   -2.9351 H   0  0  0  0  0  0  0  0  0  0  0  0
    0.9362    7.5545   -0.1596 H   0  0  0  0  0  0  0  0  0  0  0  0
    0.1786    7.0711   -1.7149 H   0  0  0  0  0  0  0  0  0  0  0  0
    1.7264    7.9827   -1.7149 H   0  0  0  0  0  0  0  0  0  0  0  0
    1.4167   13.1991    0.3719 H   0  0  0  0  0  0  0  0  0  0  0  0
    2.9132   12.9099   -0.5786 H   0  0  0  0  0  0  0  0  0  0  0  0
    2.1494   14.5357   -0.5786 H   0  0  0  0  0  0  0  0  0  0  0  0
   -0.7235   14.2007   -1.4694 H   0  0  0  0  0  0  0  0  0  0  0  0
    0.7945   15.1662   -1.9150 H   0  0  0  0  0  0  0  0  0  0  0  0
   -1.0430   13.6441   -3.7842 H   0  0  0  0  0  0  0  0  0  0  0  0
   -0.7626   15.4266   -3.6820 H   0  0  0  0  0  0  0  0  0  0  0  0
    1.9614   15.6217   -3.1641 H   0  0  0  0  0  0  0  0  0  0  0  0
    2.8346   15.2660   -4.6930 H   0  0  0  0  0  0  0  0  0  0  0  0
    1.4563   16.4179   -4.6930 H   0  0  0  0  0  0  0  0  0  0  0  0
  1  2  1  0
  2  3  1  0
  3  4  1  0
  4  5  1  0
  5  6  1  0
  6  7  1  0
  7  8  1  0
  7  9  1  0
  2 10  1  0
 10 11  1  0
 11 12  1  0
 12 13  1  0
 13 14  1  6
 13 15  1  0
 15 16  1  0
 16 17  1  0
 17 18  2  0
 18 19  1  0
 19 20  1  0
 20 21  1  0
 21 22  1  0
 22 23  1  0
 22 24  1  0
 24 25  1  0
 24 26  1  0
 19 27  1  0
 27 28  1  1
 27 29  1  0
 29 30  1  0
 30 31  1  0
 31 32  1  6
  7  5  1  0
 31 10  1  0
 31 13  1  0
 27 15  1  0
 24 18  1  0
  1 33  1  0
  1 34  1  0
  1 35  1  0
  2 36  1  6
  3 37  1  0
  3 38  1  0
  4 39  1  0
  4 40  1  0
  5 41  1  1
  8 42  1  0
  8 43  1  0
  8 44  1  0
  9 45  1  0
  9 46  1  0
  9 47  1  0
 10 48  1  1
 11 49  1  0
 11 50  1  0
 12 51  1  0
 12 52  1  0
 14 53  1  0
 14 54  1  0
 14 55  1  0
 15 56  1  6
 16 57  1  0
 16 58  1  0
 17 59  1  0
 19 60  1  6
 20 61  1  0
 20 62  1  0
 21 63  1  0
 21 64  1  0
 22 65  1  1
 23 66  1  0
 25 67  1  0
 25 68  1  0
 25 69  1  0
 26 70  1  0
 26 71  1  0
 26 72  1  0
 28 73  1  0
 28 74  1  0
 28 75  1  0
 29 76  1  0
 29 77  1  0
 30 78  1  0
 30 79  1  0
 32 80  1  0
 32 81  1  0
 32 82  1  0
M  END
>  <meeko>  (13) 
{"is_sidechain": [false], "intermolecular_energy": 2.731, "internal_energy": -0.839}

$$$$
EPH_relaxed_0001_pdb2pqr_Repair_366_r2_0001_out
     RDKit          3D

 82 86  0  0  0  0  0  0  0  0999 V2000
    0.0440    9.3990   -2.5530 C   0  0  0  0  0  0  0  0  0  0  0  0
    1.1240   10.4060   -2.9590 C   0  0  2  0  0  0  0  0  0  0  0  0
    2.5220    9.7600   -3.0340 C   0  0  0  0  0  0  0  0  0  0  0  0
    3.4770   10.4700   -3.9960 C   0  0  0  0  0  0  0  0  0  0  0  0
    4.8420   10.6390   -3.4000 C   0  0  2  0  0  0  0  0  0  0  0  0
    5.4680   11.8970   -3.6820 O   0  0  0  0  0  0  0  0  0  0  0  0
    6.1100   10.7330   -4.2270 C   0  0  0  0  0  0  0  0  0  0  0  0
    6.0750   10.6610   -5.7210 C   0  0  0  0  0  0  0  0  0  0  0  0
    7.4170   10.4050   -3.5730 C   0  0  0  0  0  0  0  0  0  0  0  0
    1.1410   11.5730   -1.9790 C   0  0  1  0  0  0  0  0  0  0  0  0
    2.2120   11.4050   -0.8680 C   0  0  0  0  0  0  0  0  0  0  0  0
    2.7510   12.8230   -0.5480 C   0  0  0  0  0  0  0  0  0  0  0  0
    1.7520   13.7840   -1.2340 C   0  0  1  0  0  0  0  0  0  0  0  0
    0.5470   13.8820   -0.2460 C   0  0  0  0  0  0  0  0  0  0  0  0
    2.3030   15.1970   -1.6140 C   0  0  2  0  0  0  0  0  0  0  0  0
    2.7620   16.0600   -0.4260 C   0  0  0  0  0  0  0  0  0  0  0  0
    1.7120   16.9390    0.1680 C   0  0  0  0  0  0  0  0  0  0  0  0
    0.5340   17.2470   -0.4050 C   0  0  0  0  0  0  0  0  0  0  0  0
    0.2010   16.7710   -1.8250 C   0  0  1  0  0  0  0  0  0  0  0  0
   -0.3840   17.9520   -2.6430 C   0  0  0  0  0  0  0  0  0  0  0  0
   -1.5760   18.6080   -1.9530 C   0  0  0  0  0  0  0  0  0  0  0  0
   -1.1900   19.1200   -0.5670 C   0  0  2  0  0  0  0  0  0  0  0  0
   -0.2560   20.1940   -0.7160 O   0  0  0  0  0  0  0  0  0  0  0  0
   -0.5800   18.0190    0.3440 C   0  0  0  0  0  0  0  0  0  0  0  0
   -1.6820   17.0100    0.7520 C   0  0  0  0  0  0  0  0  0  0  0  0
   -0.1040   18.6970    1.6580 C   0  0  0  0  0  0  0  0  0  0  0  0
    1.3670   16.0150   -2.5950 C   0  0  1  0  0  0  0  0  0  0  0  0
    2.2810   17.0470   -3.3240 C   0  0  0  0  0  0  0  0  0  0  0  0
    0.7390   15.1070   -3.7180 C   0  0  0  0  0  0  0  0  0  0  0  0
    0.3250   13.6810   -3.3080 C   0  0  0  0  0  0  0  0  0  0  0  0
    1.4560   12.9780   -2.5510 C   0  0  2  0  0  0  0  0  0  0  0  0
    2.6740   12.8450   -3.5260 C   0  0  0  0  0  0  0  0  0  0  0  0
   -0.0135    9.3454   -1.4558 H   0  0  0  0  0  0  0  0  0  0  0  0
   -0.9276    9.7210   -2.9558 H   0  0  0  0  0  0  0  0  0  0  0  0
    0.2974    8.4072   -2.9558 H   0  0  0  0  0  0  0  0  0  0  0  0
    0.8748   10.7703   -3.9665 H   0  0  0  0  0  0  0  0  0  0  0  0
    2.9666    9.7766   -2.0280 H   0  0  0  0  0  0  0  0  0  0  0  0
    2.3835    8.7374   -3.4149 H   0  0  0  0  0  0  0  0  0  0  0  0
    3.5617    9.8753   -4.9175 H   0  0  0  0  0  0  0  0  0  0  0  0
    3.0695   11.4696   -4.2073 H   0  0  0  0  0  0  0  0  0  0  0  0
    4.5680   10.0133   -2.5378 H   0  0  0  0  0  0  0  0  0  0  0  0
    5.6137    9.7120   -6.0316 H   0  0  0  0  0  0  0  0  0  0  0  0
    5.4850   11.5017   -6.1149 H   0  0  0  0  0  0  0  0  0  0  0  0
    7.1006   10.7164   -6.1149 H   0  0  0  0  0  0  0  0  0  0  0  0
    7.2977   10.4349   -2.4799 H   0  0  0  0  0  0  0  0  0  0  0  0
    7.7379    9.3985   -3.8794 H   0  0  0  0  0  0  0  0  0  0  0  0
    8.1752   11.1407   -3.8794 H   0  0  0  0  0  0  0  0  0  0  0  0
    0.0990   11.5342   -1.6287 H   0  0  0  0  0  0  0  0  0  0  0  0
    1.7592   10.9602    0.0304 H   0  0  0  0  0  0  0  0  0  0  0  0
    3.0231   10.7396   -1.1987 H   0  0  0  0  0  0  0  0  0  0  0  0
    2.7714   12.9947    0.5383 H   0  0  0  0  0  0  0  0  0  0  0  0
    3.7814   12.9680   -0.9048 H   0  0  0  0  0  0  0  0  0  0  0  0
    0.9181   13.8518    0.7891 H   0  0  0  0  0  0  0  0  0  0  0  0
    0.0098   14.8268   -0.4155 H   0  0  0  0  0  0  0  0  0  0  0  0
   -0.1358   13.0364   -0.4155 H   0  0  0  0  0  0  0  0  0  0  0  0
    3.2169   14.9508   -2.1746 H   0  0  0  0  0  0  0  0  0  0  0  0
    3.1267   15.3857    0.3629 H   0  0  0  0  0  0  0  0  0  0  0  0
    3.5353   16.7350   -0.8216 H   0  0  0  0  0  0  0  0  0  0  0  0
    1.9186   17.3717    1.1580 H   0  0  0  0  0  0  0  0  0  0  0  0
   -0.5580   15.9830   -1.7106 H   0  0  0  0  0  0  0  0  0  0  0  0
    0.4026   18.7081   -2.7825 H   0  0  0  0  0  0  0  0  0  0  0  0
   -0.7347   17.5503   -3.6051 H   0  0  0  0  0  0  0  0  0  0  0  0
   -1.9258   19.4529   -2.5644 H   0  0  0  0  0  0  0  0  0  0  0  0
   -2.3732   17.8584   -1.8411 H   0  0  0  0  0  0  0  0  0  0  0  0
   -2.1114   19.4611   -0.0724 H   0  0  0  0  0  0  0  0  0  0  0  0
   -0.3380   20.5310   -1.6250 H   0  0  0  0  0  0  0  0  0  0  0  0
   -1.7414   16.9556    1.8490 H   0  0  0  0  0  0  0  0  0  0  0  0
   -2.6501   17.3413    0.3484 H   0  0  0  0  0  0  0  0  0  0  0  0
   -1.4371   16.0165    0.3484 H   0  0  0  0  0  0  0  0  0  0  0  0
   -0.4957   18.1390    2.5213 H   0  0  0  0  0  0  0  0  0  0  0  0
    0.9955   18.7000    1.6916 H   0  0  0  0  0  0  0  0  0  0  0  0
   -0.4747   19.7321    1.6916 H   0  0  0  0  0  0  0  0  0  0  0  0
    2.8173   17.6526   -2.5786 H   0  0  0  0  0  0  0  0  0  0  0  0
    3.0075   16.5127   -3.9538 H   0  0  0  0  0  0  0  0  0  0  0  0
    1.6628   17.7037   -3.9538 H   0  0  0  0  0  0  0  0  0  0  0  0
   -0.1586   15.6183   -4.0960 H   0  0  0  0  0  0  0  0  0  0  0  0
    1.5398   14.9719   -4.4600 H   0  0  0  0  0  0  0  0  0  0  0  0
   -0.5620   13.7362   -2.6597 H   0  0  0  0  0  0  0  0  0  0  0  0
    0.1014   13.1053   -4.2183 H   0  0  0  0  0  0  0  0  0  0  0  0
    3.6012   12.7438   -2.9428 H   0  0  0  0  0  0  0  0  0  0  0  0
    2.5407   11.9561   -4.1601 H   0  0  0  0  0  0  0  0  0  0  0  0
    2.7357   13.7417   -4.1601 H   0  0  0  0  0  0  0  0  0  0  0  0
  1  2  1  0
  2  3  1  0
  3  4  1  0
  4  5  1  0
  5  6  1  0
  6  7  1  0
  7  8  1  0
  7  9  1  0
  2 10  1  0
 10 11  1  0
 11 12  1  0
 12 13  1  0
 13 14  1  1
 13 15  1  0
 15 16  1  0
 16 17  1  0
 17 18  2  0
 18 19  1  0
 19 20  1  0
 20 21  1  0
 21 22  1  0
 22 23  1  0
 22 24  1  0
 24 25  1  0
 24 26  1  0
 19 27  1  0
 27 28  1  6
 27 29  1  0
 29 30  1  0
 30 31  1  0
 31 32  1  6
  7  5  1  0
 31 10  1  0
 31 13  1  0
 27 15  1  0
 24 18  1  0
  1 33  1  0
  1 34  1  0
  1 35  1  0
  2 36  1  6
  3 37  1  0
  3 38  1  0
  4 39  1  0
  4 40  1  0
  5 41  1  1
  8 42  1  0
  8 43  1  0
  8 44  1  0
  9 45  1  0
  9 46  1  0
  9 47  1  0
 10 48  1  1
 11 49  1  0
 11 50  1  0
 12 51  1  0
 12 52  1  0
 14 53  1  0
 14 54  1  0
 14 55  1  0
 15 56  1  6
 16 57  1  0
 16 58  1  0
 17 59  1  0
 19 60  1  1
 20 61  1  0
 20 62  1  0
 21 63  1  0
 21 64  1  0
 22 65  1  1
 23 66  1  0
 25 67  1  0
 25 68  1  0
 25 69  1  0
 26 70  1  0
 26 71  1  0
 26 72  1  0
 28 73  1  0
 28 74  1  0
 28 75  1  0
 29 76  1  0
 29 77  1  0
 30 78  1  0
 30 79  1  0
 32 80  1  0
 32 81  1  0
 32 82  1  0
M  END
>  <meeko>  (14) 
{"is_sidechain": [false], "intermolecular_energy": 2.731, "internal_energy": -0.839}

$$$$
EPH_relaxed_0001_pdb2pqr_Repair_366_r2_0001_out
     RDKit          3D

 82 86  0  0  0  0  0  0  0  0999 V2000
    2.8410   11.3670   -5.3680 C   0  0  0  0  0  0  0  0  0  0  0  0
    1.8410   11.0560   -4.2500 C   0  0  2  0  0  0  0  0  0  0  0  0
    0.7250   10.1010   -4.7180 C   0  0  0  0  0  0  0  0  0  0  0  0
   -0.3480    9.8420   -3.6570 C   0  0  0  0  0  0  0  0  0  0  0  0
    0.1890    9.0410   -2.5090 C   0  0  2  0  0  0  0  0  0  0  0  0
   -0.6450    7.9490   -2.1000 O   0  0  0  0  0  0  0  0  0  0  0  0
   -0.4620    9.0020   -1.1390 C   0  0  0  0  0  0  0  0  0  0  0  0
   -1.7070    9.7790   -0.8450 C   0  0  0  0  0  0  0  0  0  0  0  0
    0.3730    8.6060    0.0380 C   0  0  0  0  0  0  0  0  0  0  0  0
    1.2320   12.3500   -3.7230 C   0  0  1  0  0  0  0  0  0  0  0  0
   -0.3060   12.2560   -3.5410 C   0  0  0  0  0  0  0  0  0  0  0  0
   -0.6630   13.1100   -2.2970 C   0  0  0  0  0  0  0  0  0  0  0  0
    0.6180   13.9280   -2.0060 C   0  0  1  0  0  0  0  0  0  0  0  0
    0.5630   15.1280   -3.0020 C   0  0  0  0  0  0  0  0  0  0  0  0
    0.8080   14.4100   -0.5310 C   0  0  2  0  0  0  0  0  0  0  0  0
   -0.2730   15.3750   -0.0150 C   0  0  0  0  0  0  0  0  0  0  0  0
    0.0110   16.8250   -0.2300 C   0  0  0  0  0  0  0  0  0  0  0  0
    1.2090   17.3480   -0.5520 C   0  0  0  0  0  0  0  0  0  0  0  0
    2.4580   16.4620   -0.6370 C   0  0  1  0  0  0  0  0  0  0  0  0
    3.6310   17.1470    0.1110 C   0  0  0  0  0  0  0  0  0  0  0  0
    3.8890   18.5680   -0.3810 C   0  0  0  0  0  0  0  0  0  0  0  0
    2.6420   19.4330   -0.2270 C   0  0  2  0  0  0  0  0  0  0  0  0
    2.3710   19.6060    1.1680 O   0  0  0  0  0  0  0  0  0  0  0  0
    1.3910   18.8380   -0.9320 C   0  0  0  0  0  0  0  0  0  0  0  0
    1.5670   18.9300   -2.4680 C   0  0  0  0  0  0  0  0  0  0  0  0
    0.1730   19.7340   -0.5800 C   0  0  0  0  0  0  0  0  0  0  0  0
    2.2620   14.9440   -0.2060 C   0  0  1  0  0  0  0  0  0  0  0  0
    2.4560   14.8000    1.3340 C   0  0  0  0  0  0  0  0  0  0  0  0
    3.3850   14.0700   -0.8790 C   0  0  0  0  0  0  0  0  0  0  0  0
    3.0880   13.5230   -2.2890 C   0  0  0  0  0  0  0  0  0  0  0  0
    1.7130   12.8500   -2.3370 C   0  0  2  0  0  0  0  0  0  0  0  0
    1.7450   11.6250   -1.3610 C   0  0  0  0  0  0  0  0  0  0  0  0
    3.8031   11.6662   -4.9266 H   0  0  0  0  0  0  0  0  0  0  0  0
    2.9857   10.4714   -5.9901 H   0  0  0  0  0  0  0  0  0  0  0  0
    2.4523   12.1867   -5.9901 H   0  0  0  0  0  0  0  0  0  0  0  0
    2.3925   10.5492   -3.4443 H   0  0  0  0  0  0  0  0  0  0  0  0
    0.2402   10.5402   -5.6023 H   0  0  0  0  0  0  0  0  0  0  0  0
    1.2005    9.1336   -4.9373 H   0  0  0  0  0  0  0  0  0  0  0  0
   -0.7145   10.8073   -3.2776 H   0  0  0  0  0  0  0  0  0  0  0  0
   -1.1613    9.2678   -4.1249 H   0  0  0  0  0  0  0  0  0  0  0  0
    1.2240    9.2324   -2.8285 H   0  0  0  0  0  0  0  0  0  0  0  0
   -1.8392    9.8615    0.2439 H   0  0  0  0  0  0  0  0  0  0  0  0
   -1.6229   10.7852   -1.2814 H   0  0  0  0  0  0  0  0  0  0  0  0
   -2.5739    9.2613   -1.2814 H   0  0  0  0  0  0  0  0  0  0  0  0
   -0.1594    8.8585    0.9669 H   0  0  0  0  0  0  0  0  0  0  0  0
    0.5612    7.5227    0.0062 H   0  0  0  0  0  0  0  0  0  0  0  0
    1.3310    9.1457    0.0062 H   0  0  0  0  0  0  0  0  0  0  0  0
    1.5644   13.0435   -4.5095 H   0  0  0  0  0  0  0  0  0  0  0  0
   -0.8175   12.6512   -4.4311 H   0  0  0  0  0  0  0  0  0  0  0  0
   -0.6245   11.2116   -3.4074 H   0  0  0  0  0  0  0  0  0  0  0  0
   -1.5096   13.7779   -2.5142 H   0  0  0  0  0  0  0  0  0  0  0  0
   -0.9677   12.4920   -1.4396 H   0  0  0  0  0  0  0  0  0  0  0  0
    0.5198   16.0712   -2.4377 H   0  0  0  0  0  0  0  0  0  0  0  0
    1.4624   15.1205   -3.6352 H   0  0  0  0  0  0  0  0  0  0  0  0
   -0.3320   15.0382   -3.6352 H   0  0  0  0  0  0  0  0  0  0  0  0
    0.6742   13.4793    0.0399 H   0  0  0  0  0  0  0  0  0  0  0  0
   -1.2162   15.1339   -0.5270 H   0  0  0  0  0  0  0  0  0  0  0  0
   -0.3139   15.2313    1.0748 H   0  0  0  0  0  0  0  0  0  0  0  0
   -0.8297   17.5251   -0.1156 H   0  0  0  0  0  0  0  0  0  0  0  0
    2.6977   16.3763   -1.7071 H   0  0  0  0  0  0  0  0  0  0  0  0
    3.3915   17.1835    1.1840 H   0  0  0  0  0  0  0  0  0  0  0  0
    4.5393   16.5572   -0.0815 H   0  0  0  0  0  0  0  0  0  0  0  0
    4.7079   19.0092    0.2062 H   0  0  0  0  0  0  0  0  0  0  0  0
    4.1585   18.5271   -1.4467 H   0  0  0  0  0  0  0  0  0  0  0  0
    2.8474   20.3970   -0.7153 H   0  0  0  0  0  0  0  0  0  0  0  0
    1.6990   18.9500    1.4210 H   0  0  0  0  0  0  0  0  0  0  0  0
    2.5202   19.4283   -2.6987 H   0  0  0  0  0  0  0  0  0  0  0  0
    1.5690   17.9176   -2.8981 H   0  0  0  0  0  0  0  0  0  0  0  0
    0.7368   19.5095   -2.8981 H   0  0  0  0  0  0  0  0  0  0  0  0
    0.0747   19.8063    0.5132 H   0  0  0  0  0  0  0  0  0  0  0  0
    0.3228   20.7388   -1.0019 H   0  0  0  0  0  0  0  0  0  0  0  0
   -0.7416   19.2918   -1.0019 H   0  0  0  0  0  0  0  0  0  0  0  0
    1.6789   15.3768    1.8570 H   0  0  0  0  0  0  0  0  0  0  0  0
    2.3777   13.7396    1.6159 H   0  0  0  0  0  0  0  0  0  0  0  0
    3.4483   15.1820    1.6159 H   0  0  0  0  0  0  0  0  0  0  0  0
    4.2924   14.6882   -0.9461 H   0  0  0  0  0  0  0  0  0  0  0  0
    3.4798   13.1803   -0.2391 H   0  0  0  0  0  0  0  0  0  0  0  0
    3.1071   14.3544   -3.0090 H   0  0  0  0  0  0  0  0  0  0  0  0
    3.8537   12.7755   -2.5439 H   0  0  0  0  0  0  0  0  0  0  0  0
    1.7356   11.9842   -0.3213 H   0  0  0  0  0  0  0  0  0  0  0  0
    0.8631   10.9919   -1.5382 H   0  0  0  0  0  0  0  0  0  0  0  0
    2.6588   11.0388   -1.5382 H   0  0  0  0  0  0  0  0  0  0  0  0
  1  2  1  0
  2  3  1  0
  3  4  1  0
  4  5  1  0
  5  6  1  0
  6  7  1  0
  7  8  1  0
  7  9  1  0
  2 10  1  0
 10 11  1  0
 11 12  1  0
 12 13  1  0
 13 14  1  6
 13 15  1  0
 15 16  1  0
 16 17  1  0
 17 18  2  0
 18 19  1  0
 19 20  1  0
 20 21  1  0
 21 22  1  0
 22 23  1  0
 22 24  1  0
 24 25  1  0
 24 26  1  0
 19 27  1  0
 27 28  1  1
 27 29  1  0
 29 30  1  0
 30 31  1  0
 31 32  1  1
  7  5  1  0
 31 10  1  0
 31 13  1  0
 27 15  1  0
 24 18  1  0
  1 33  1  0
  1 34  1  0
  1 35  1  0
  2 36  1  1
  3 37  1  0
  3 38  1  0
  4 39  1  0
  4 40  1  0
  5 41  1  1
  8 42  1  0
  8 43  1  0
  8 44  1  0
  9 45  1  0
  9 46  1  0
  9 47  1  0
 10 48  1  6
 11 49  1  0
 11 50  1  0
 12 51  1  0
 12 52  1  0
 14 53  1  0
 14 54  1  0
 14 55  1  0
 15 56  1  1
 16 57  1  0
 16 58  1  0
 17 59  1  0
 19 60  1  6
 20 61  1  0
 20 62  1  0
 21 63  1  0
 21 64  1  0
 22 65  1  6
 23 66  1  0
 25 67  1  0
 25 68  1  0
 25 69  1  0
 26 70  1  0
 26 71  1  0
 26 72  1  0
 28 73  1  0
 28 74  1  0
 28 75  1  0
 29 76  1  0
 29 77  1  0
 30 78  1  0
 30 79  1  0
 32 80  1  0
 32 81  1  0
 32 82  1  0
M  END
>  <meeko>  (15) 
{"is_sidechain": [false], "intermolecular_energy": 2.731, "internal_energy": -0.839}

$$$$
EPH_relaxed_0001_pdb2pqr_Repair_366_r2_0001_out
     RDKit          3D

 82 86  0  0  0  0  0  0  0  0999 V2000
   -0.3960   10.3370   -3.1320 C   0  0  0  0  0  0  0  0  0  0  0  0
   -0.2060   10.0950   -1.6320 C   0  0  2  0  0  0  0  0  0  0  0  0
   -1.4550    9.4630   -0.9830 C   0  0  0  0  0  0  0  0  0  0  0  0
   -2.5110    9.0100   -1.9950 C   0  0  0  0  0  0  0  0  0  0  0  0
   -2.6920    7.5220   -1.9770 C   0  0  2  0  0  0  0  0  0  0  0  0
   -2.2990    6.8570   -3.1850 O   0  0  0  0  0  0  0  0  0  0  0  0
   -3.6940    6.7910   -2.8510 C   0  0  0  0  0  0  0  0  0  0  0  0
   -4.5840    7.5280   -3.8020 C   0  0  0  0  0  0  0  0  0  0  0  0
   -4.1500    5.4280   -2.4300 C   0  0  0  0  0  0  0  0  0  0  0  0
    0.1370   11.4050   -0.9330 C   0  0  1  0  0  0  0  0  0  0  0  0
    1.2270   11.2330    0.1580 C   0  0  0  0  0  0  0  0  0  0  0  0
    2.0830   12.5260    0.1440 C   0  0  0  0  0  0  0  0  0  0  0  0
    1.2660   13.5240   -0.7100 C   0  0  1  0  0  0  0  0  0  0  0  0
    0.1890   14.0970    0.2640 C   0  0  0  0  0  0  0  0  0  0  0  0
    2.0790   14.6640   -1.4060 C   0  0  2  0  0  0  0  0  0  0  0  0
    2.8030   15.6280   -0.4500 C   0  0  0  0  0  0  0  0  0  0  0  0
    2.0150   16.8260   -0.0350 C   0  0  0  0  0  0  0  0  0  0  0  0
    0.8920   17.2680   -0.6300 C   0  0  0  0  0  0  0  0  0  0  0  0
    0.3570   16.5960   -1.9010 C   0  0  1  0  0  0  0  0  0  0  0  0
   -0.0190   17.6820   -2.9430 C   0  0  0  0  0  0  0  0  0  0  0  0
   -0.9850   18.7210   -2.3820 C   0  0  0  0  0  0  0  0  0  0  0  0
   -0.3940   19.4090   -1.1540 C   0  0  2  0  0  0  0  0  0  0  0  0
    0.7360   20.1870   -1.5600 O   0  0  0  0  0  0  0  0  0  0  0  0
    0.0320   18.4120   -0.0390 C   0  0  0  0  0  0  0  0  0  0  0  0
   -1.2280   17.7880    0.6100 C   0  0  0  0  0  0  0  0  0  0  0  0
    0.7400   19.2220    1.0800 C   0  0  0  0  0  0  0  0  0  0  0  0
    1.2710   15.4500   -2.5170 C   0  0  1  0  0  0  0  0  0  0  0  0
    2.3280   16.0730   -3.4790 C   0  0  0  0  0  0  0  0  0  0  0  0
    0.3780   14.4970   -3.3950 C   0  0  0  0  0  0  0  0  0  0  0  0
   -0.3020   13.3190   -2.6710 C   0  0  0  0  0  0  0  0  0  0  0  0
    0.7040   12.5510   -1.8080 C   0  0  2  0  0  0  0  0  0  0  0  0
    1.7870   11.9440   -2.7640 C   0  0  0  0  0  0  0  0  0  0  0  0
   -1.0689   11.1940   -3.2828 H   0  0  0  0  0  0  0  0  0  0  0  0
    0.5786   10.5500   -3.5954 H   0  0  0  0  0  0  0  0  0  0  0  0
   -0.8342    9.4408   -3.5954 H   0  0  0  0  0  0  0  0  0  0  0  0
    0.6240    9.3827   -1.5145 H   0  0  0  0  0  0  0  0  0  0  0  0
   -1.1370    8.5878   -0.3974 H   0  0  0  0  0  0  0  0  0  0  0  0
   -1.9205   10.2392   -0.3578 H   0  0  0  0  0  0  0  0  0  0  0  0
   -3.4700    9.4890   -1.7484 H   0  0  0  0  0  0  0  0  0  0  0  0
   -2.1718    9.3026   -2.9996 H   0  0  0  0  0  0  0  0  0  0  0  0
   -2.4913    7.4864   -0.8960 H   0  0  0  0  0  0  0  0  0  0  0  0
   -5.3096    8.1289   -3.2342 H   0  0  0  0  0  0  0  0  0  0  0  0
   -3.9754    8.1902   -4.4354 H   0  0  0  0  0  0  0  0  0  0  0  0
   -5.1211    6.8067   -4.4354 H   0  0  0  0  0  0  0  0  0  0  0  0
   -4.1691    5.3708   -1.3317 H   0  0  0  0  0  0  0  0  0  0  0  0
   -5.1596    5.2410   -2.8246 H   0  0  0  0  0  0  0  0  0  0  0  0
   -3.4561    4.6711   -2.8246 H   0  0  0  0  0  0  0  0  0  0  0  0
   -0.8592   11.6776   -0.5545 H   0  0  0  0  0  0  0  0  0  0  0  0
    0.7581   11.1000    1.1441 H   0  0  0  0  0  0  0  0  0  0  0  0
    1.8476   10.3467   -0.0404 H   0  0  0  0  0  0  0  0  0  0  0  0
    2.2219   12.9111    1.1650 H   0  0  0  0  0  0  0  0  0  0  0  0
    3.0907   12.3554   -0.2628 H   0  0  0  0  0  0  0  0  0  0  0  0
    0.5073   13.9277    1.3032 H   0  0  0  0  0  0  0  0  0  0  0  0
    0.0723   15.1765    0.0875 H   0  0  0  0  0  0  0  0  0  0  0  0
   -0.7715   13.5906    0.0875 H   0  0  0  0  0  0  0  0  0  0  0  0
    2.8730   14.1051   -1.9229 H   0  0  0  0  0  0  0  0  0  0  0  0
    3.0731   15.0678    0.4573 H   0  0  0  0  0  0  0  0  0  0  0  0
    3.6713   16.0123   -1.0053 H   0  0  0  0  0  0  0  0  0  0  0  0
    2.3837   17.3958    0.8307 H   0  0  0  0  0  0  0  0  0  0  0  0
   -0.5442   16.0439   -1.5960 H   0  0  0  0  0  0  0  0  0  0  0  0
    0.8996   18.1931   -3.2668 H   0  0  0  0  0  0  0  0  0  0  0  0
   -0.5201   17.1793   -3.7833 H   0  0  0  0  0  0  0  0  0  0  0  0
   -1.1892   19.4768   -3.1547 H   0  0  0  0  0  0  0  0  0  0  0  0
   -1.9144   18.2124   -2.0861 H   0  0  0  0  0  0  0  0  0  0  0  0
   -1.1803   20.0458   -0.7226 H   0  0  0  0  0  0  0  0  0  0  0  0
    1.5330   19.6540   -1.4010 H   0  0  0  0  0  0  0  0  0  0  0  0
   -1.1368   17.8331    1.7053 H   0  0  0  0  0  0  0  0  0  0  0  0
   -2.1197   18.3487    0.2929 H   0  0  0  0  0  0  0  0  0  0  0  0
   -1.3225   16.7390    0.2929 H   0  0  0  0  0  0  0  0  0  0  0  0
    0.4152   18.8504    2.0631 H   0  0  0  0  0  0  0  0  0  0  0  0
    1.8295   19.1037    0.9849 H   0  0  0  0  0  0  0  0  0  0  0  0
    0.4770   20.2859    0.9849 H   0  0  0  0  0  0  0  0  0  0  0  0
    3.1279   16.5444   -2.8891 H   0  0  0  0  0  0  0  0  0  0  0  0
    2.7570   15.2833   -4.1133 H   0  0  0  0  0  0  0  0  0  0  0  0
    1.8449   16.8308   -4.1133 H   0  0  0  0  0  0  0  0  0  0  0  0
   -0.4141   15.1095   -3.8504 H   0  0  0  0  0  0  0  0  0  0  0  0
    1.0714   14.0325   -4.1115 H   0  0  0  0  0  0  0  0  0  0  0  0
   -1.1052   13.7075   -2.0276 H   0  0  0  0  0  0  0  0  0  0  0  0
   -0.7117   12.6325   -3.4266 H   0  0  0  0  0  0  0  0  0  0  0  0
    2.5924   11.4926   -2.1660 H   0  0  0  0  0  0  0  0  0  0  0  0
    1.3253   11.1732   -3.3986 H   0  0  0  0  0  0  0  0  0  0  0  0
    2.2036   12.7401   -3.3986 H   0  0  0  0  0  0  0  0  0  0  0  0
  1  2  1  0
  2  3  1  0
  3  4  1  0
  4  5  1  0
  5  6  1  0
  6  7  1  0
  7  8  1  0
  7  9  1  0
  2 10  1  0
 10 11  1  0
 11 12  1  0
 12 13  1  0
 13 14  1  1
 13 15  1  0
 15 16  1  0
 16 17  1  0
 17 18  2  0
 18 19  1  0
 19 20  1  0
 20 21  1  0
 21 22  1  0
 22 23  1  0
 22 24  1  0
 24 25  1  0
 24 26  1  0
 19 27  1  0
 27 28  1  6
 27 29  1  0
 29 30  1  0
 30 31  1  0
 31 32  1  6
  7  5  1  0
 31 10  1  0
 31 13  1  0
 27 15  1  0
 24 18  1  0
  1 33  1  0
  1 34  1  0
  1 35  1  0
  2 36  1  6
  3 37  1  0
  3 38  1  0
  4 39  1  0
  4 40  1  0
  5 41  1  1
  8 42  1  0
  8 43  1  0
  8 44  1  0
  9 45  1  0
  9 46  1  0
  9 47  1  0
 10 48  1  1
 11 49  1  0
 11 50  1  0
 12 51  1  0
 12 52  1  0
 14 53  1  0
 14 54  1  0
 14 55  1  0
 15 56  1  6
 16 57  1  0
 16 58  1  0
 17 59  1  0
 19 60  1  1
 20 61  1  0
 20 62  1  0
 21 63  1  0
 21 64  1  0
 22 65  1  1
 23 66  1  0
 25 67  1  0
 25 68  1  0
 25 69  1  0
 26 70  1  0
 26 71  1  0
 26 72  1  0
 28 73  1  0
 28 74  1  0
 28 75  1  0
 29 76  1  0
 29 77  1  0
 30 78  1  0
 30 79  1  0
 32 80  1  0
 32 81  1  0
 32 82  1  0
M  END
>  <meeko>  (16) 
{"is_sidechain": [false], "intermolecular_energy": 2.731, "internal_energy": -0.839}

$$$$
EPH_relaxed_0001_pdb2pqr_Repair_366_r2_0001_out
     RDKit          3D

 82 86  0  0  0  0  0  0  0  0999 V2000
   -1.9390    9.5720   -0.1950 C   0  0  0  0  0  0  0  0  0  0  0  0
   -1.5250   10.5360   -1.3100 C   0  0  2  0  0  0  0  0  0  0  0  0
   -0.6180    9.8580   -2.3570 C   0  0  0  0  0  0  0  0  0  0  0  0
    0.7630    9.4750   -1.8180 C   0  0  0  0  0  0  0  0  0  0  0  0
    1.8640   10.0100   -2.6840 C   0  0  2  0  0  0  0  0  0  0  0  0
    3.0270    9.1750   -2.7560 O   0  0  0  0  0  0  0  0  0  0  0  0
    3.2080   10.4630   -2.1450 C   0  0  0  0  0  0  0  0  0  0  0  0
    3.5220   10.4040   -0.6830 C   0  0  0  0  0  0  0  0  0  0  0  0
    4.0250   11.4110   -2.9660 C   0  0  0  0  0  0  0  0  0  0  0  0
   -0.8180   11.7480   -0.7140 C   0  0  1  0  0  0  0  0  0  0  0  0
    0.3560   11.3540    0.2220 C   0  0  0  0  0  0  0  0  0  0  0  0
    1.4530   12.4340    0.0420 C   0  0  0  0  0  0  0  0  0  0  0  0
    0.7520   13.5780   -0.7270 C   0  0  1  0  0  0  0  0  0  0  0  0
   -0.0310   14.3740    0.3640 C   0  0  0  0  0  0  0  0  0  0  0  0
    1.6780   14.5140   -1.5700 C   0  0  2  0  0  0  0  0  0  0  0  0
    2.7170   15.3070   -0.7590 C   0  0  0  0  0  0  0  0  0  0  0  0
    2.2670   16.6490   -0.2840 C   0  0  0  0  0  0  0  0  0  0  0  0
    1.1880   17.3160   -0.7350 C   0  0  0  0  0  0  0  0  0  0  0  0
    0.3490   16.7650   -1.8950 C   0  0  1  0  0  0  0  0  0  0  0  0
    0.0650   17.8990   -2.9140 C   0  0  0  0  0  0  0  0  0  0  0  0
   -0.5710   19.1240   -2.2640 C   0  0  0  0  0  0  0  0  0  0  0  0
    0.3210   19.6780   -1.1560 C   0  0  2  0  0  0  0  0  0  0  0  0
    1.5190   20.1940   -1.7420 O   0  0  0  0  0  0  0  0  0  0  0  0
    0.6810   18.6210   -0.0740 C   0  0  0  0  0  0  0  0  0  0  0  0
   -0.5770   18.2850    0.7650 C   0  0  0  0  0  0  0  0  0  0  0  0
    1.6960   19.2690    0.9060 C   0  0  0  0  0  0  0  0  0  0  0  0
    0.9040   15.4470   -2.5880 C   0  0  1  0  0  0  0  0  0  0  0  0
    1.9210   15.8230   -3.7090 C   0  0  0  0  0  0  0  0  0  0  0  0
   -0.2850   14.6990   -3.2990 C   0  0  0  0  0  0  0  0  0  0  0  0
   -1.0880   13.7000   -2.4450 C   0  0  0  0  0  0  0  0  0  0  0  0
   -0.1530   12.7400   -1.7010 C   0  0  2  0  0  0  0  0  0  0  0  0
    0.6310   11.9100   -2.7730 C   0  0  0  0  0  0  0  0  0  0  0  0
   -1.7401   10.0351    0.7827 H   0  0  0  0  0  0  0  0  0  0  0  0
   -3.0124    9.3485   -0.2833 H   0  0  0  0  0  0  0  0  0  0  0  0
   -1.3619    8.6397   -0.2833 H   0  0  0  0  0  0  0  0  0  0  0  0
   -2.4414   10.8576   -1.8264 H   0  0  0  0  0  0  0  0  0  0  0  0
   -1.1184    8.9446   -2.7108 H   0  0  0  0  0  0  0  0  0  0  0  0
   -0.4574   10.5876   -3.1644 H   0  0  0  0  0  0  0  0  0  0  0  0
    0.8761    9.8851   -0.8036 H   0  0  0  0  0  0  0  0  0  0  0  0
    0.8357    8.3774   -1.8097 H   0  0  0  0  0  0  0  0  0  0  0  0
    1.1360   10.4944   -3.3513 H   0  0  0  0  0  0  0  0  0  0  0  0
    2.6032   10.5766   -0.1034 H   0  0  0  0  0  0  0  0  0  0  0  0
    3.9310    9.4133   -0.4355 H   0  0  0  0  0  0  0  0  0  0  0  0
    4.2627   11.1787   -0.4355 H   0  0  0  0  0  0  0  0  0  0  0  0
    4.5965   12.0742   -2.3000 H   0  0  0  0  0  0  0  0  0  0  0  0
    4.7198   10.8414   -3.6007 H   0  0  0  0  0  0  0  0  0  0  0  0
    3.3591   12.0141   -3.6007 H   0  0  0  0  0  0  0  0  0  0  0  0
   -1.6699   12.2303   -0.2123 H   0  0  0  0  0  0  0  0  0  0  0  0
    0.0154   11.3306    1.2677 H   0  0  0  0  0  0  0  0  0  0  0  0
    0.7413   10.3542   -0.0270 H   0  0  0  0  0  0  0  0  0  0  0  0
    1.8142   12.7872    1.0191 H   0  0  0  0  0  0  0  0  0  0  0  0
    2.3331   12.0492   -0.4940 H   0  0  0  0  0  0  0  0  0  0  0  0
    0.2934   14.0443    1.3620 H   0  0  0  0  0  0  0  0  0  0  0  0
    0.1712   15.4492    0.2494 H   0  0  0  0  0  0  0  0  0  0  0  0
   -1.1093   14.1895    0.2494 H   0  0  0  0  0  0  0  0  0  0  0  0
    2.2542   13.7952   -2.1711 H   0  0  0  0  0  0  0  0  0  0  0  0
    2.9889   14.7081    0.1227 H   0  0  0  0  0  0  0  0  0  0  0  0
    3.5587   15.4929   -1.4424 H   0  0  0  0  0  0  0  0  0  0  0  0
    2.8674   17.1334    0.5002 H   0  0  0  0  0  0  0  0  0  0  0  0
   -0.5952   16.4193   -1.4488 H   0  0  0  0  0  0  0  0  0  0  0  0
    1.0148   18.2003   -3.3800 H   0  0  0  0  0  0  0  0  0  0  0  0
   -0.6453   17.5092   -3.6579 H   0  0  0  0  0  0  0  0  0  0  0  0
   -0.7200   19.9007   -3.0285 H   0  0  0  0  0  0  0  0  0  0  0  0
   -1.5347   18.8278   -1.8241 H   0  0  0  0  0  0  0  0  0  0  0  0
   -0.2434   20.4715   -0.6443 H   0  0  0  0  0  0  0  0  0  0  0  0
    2.2420   20.0520   -1.1080 H   0  0  0  0  0  0  0  0  0  0  0  0
   -0.3321   18.3504    1.8354 H   0  0  0  0  0  0  0  0  0  0  0  0
   -1.3779   19.0007    0.5277 H   0  0  0  0  0  0  0  0  0  0  0  0
   -0.9144   17.2653    0.5277 H   0  0  0  0  0  0  0  0  0  0  0  0
    1.3839   19.0698    1.9418 H   0  0  0  0  0  0  0  0  0  0  0  0
    2.6949   18.8411    0.7353 H   0  0  0  0  0  0  0  0  0  0  0  0
    1.7283   20.3552    0.7353 H   0  0  0  0  0  0  0  0  0  0  0  0
    2.8593   16.1699   -3.2515 H   0  0  0  0  0  0  0  0  0  0  0  0
    2.1220   14.9397   -4.3331 H   0  0  0  0  0  0  0  0  0  0  0  0
    1.4991   16.6246   -4.3331 H   0  0  0  0  0  0  0  0  0  0  0  0
   -0.9868   15.4627   -3.6653 H   0  0  0  0  0  0  0  0  0  0  0  0
    0.1869   14.0910   -4.0849 H   0  0  0  0  0  0  0  0  0  0  0  0
   -1.6906   14.2561   -1.7118 H   0  0  0  0  0  0  0  0  0  0  0  0
   -1.7377   13.1123   -3.1102 H   0  0  0  0  0  0  0  0  0  0  0  0
    1.3020   11.1996   -2.2679 H   0  0  0  0  0  0  0  0  0  0  0  0
   -0.0821   11.3570   -3.4020 H   0  0  0  0  0  0  0  0  0  0  0  0
    1.2237   12.5904   -3.4020 H   0  0  0  0  0  0  0  0  0  0  0  0
  1  2  1  0
  2  3  1  0
  3  4  1  0
  4  5  1  0
  5  6  1  0
  6  7  1  0
  7  8  1  0
  7  9  1  0
  2 10  1  0
 10 11  1  0
 11 12  1  0
 12 13  1  0
 13 14  1  1
 13 15  1  0
 15 16  1  0
 16 17  1  0
 17 18  2  0
 18 19  1  0
 19 20  1  0
 20 21  1  0
 21 22  1  0
 22 23  1  0
 22 24  1  0
 24 25  1  0
 24 26  1  0
 19 27  1  0
 27 28  1  6
 27 29  1  0
 29 30  1  0
 30 31  1  0
 31 32  1  6
  7  5  1  0
 31 10  1  0
 31 13  1  0
 27 15  1  0
 24 18  1  0
  1 33  1  0
  1 34  1  0
  1 35  1  0
  2 36  1  6
  3 37  1  0
  3 38  1  0
  4 39  1  0
  4 40  1  0
  5 41  1  6
  8 42  1  0
  8 43  1  0
  8 44  1  0
  9 45  1  0
  9 46  1  0
  9 47  1  0
 10 48  1  1
 11 49  1  0
 11 50  1  0
 12 51  1  0
 12 52  1  0
 14 53  1  0
 14 54  1  0
 14 55  1  0
 15 56  1  6
 16 57  1  0
 16 58  1  0
 17 59  1  0
 19 60  1  1
 20 61  1  0
 20 62  1  0
 21 63  1  0
 21 64  1  0
 22 65  1  1
 23 66  1  0
 25 67  1  0
 25 68  1  0
 25 69  1  0
 26 70  1  0
 26 71  1  0
 26 72  1  0
 28 73  1  0
 28 74  1  0
 28 75  1  0
 29 76  1  0
 29 77  1  0
 30 78  1  0
 30 79  1  0
 32 80  1  0
 32 81  1  0
 32 82  1  0
M  END
>  <meeko>  (17) 
{"is_sidechain": [false], "intermolecular_energy": 2.731, "internal_energy": -0.839}

$$$$
EPH_relaxed_0001_pdb2pqr_Repair_366_r2_0001_out
     RDKit          3D

 82 86  0  0  0  0  0  0  0  0999 V2000
    0.7070    9.3690   -0.0570 C   0  0  0  0  0  0  0  0  0  0  0  0
   -0.4670   10.3470   -0.1490 C   0  0  2  0  0  0  0  0  0  0  0  0
   -1.0610   10.4090   -1.5700 C   0  0  0  0  0  0  0  0  0  0  0  0
   -0.1410    9.8290   -2.6480 C   0  0  0  0  0  0  0  0  0  0  0  0
   -0.0150   10.7500   -3.8230 C   0  0  2  0  0  0  0  0  0  0  0  0
    0.5900   10.1620   -4.9830 O   0  0  0  0  0  0  0  0  0  0  0  0
    1.3160   11.2370   -4.3650 C   0  0  0  0  0  0  0  0  0  0  0  0
    2.6120   10.8180   -3.7440 C   0  0  0  0  0  0  0  0  0  0  0  0
    1.3410   12.4930   -5.1790 C   0  0  0  0  0  0  0  0  0  0  0  0
   -0.0220   11.7370    0.2900 C   0  0  1  0  0  0  0  0  0  0  0  0
    1.0860   11.6940    1.3770 C   0  0  0  0  0  0  0  0  0  0  0  0
    2.0200   12.9010    1.1110 C   0  0  0  0  0  0  0  0  0  0  0  0
    1.2450   13.7800    0.1010 C   0  0  1  0  0  0  0  0  0  0  0  0
    0.2350   14.5920    0.9700 C   0  0  0  0  0  0  0  0  0  0  0  0
    2.1080   14.7150   -0.8070 C   0  0  2  0  0  0  0  0  0  0  0  0
    2.9190   15.7860   -0.0560 C   0  0  0  0  0  0  0  0  0  0  0  0
    2.2210   17.0910    0.1430 C   0  0  0  0  0  0  0  0  0  0  0  0
    1.1110   17.4910   -0.5050 C   0  0  0  0  0  0  0  0  0  0  0  0
    0.4990   16.6350   -1.6220 C   0  0  1  0  0  0  0  0  0  0  0  0
    0.1640   17.5360   -2.8400 C   0  0  0  0  0  0  0  0  0  0  0  0
   -0.7180   18.7230   -2.4640 C   0  0  0  0  0  0  0  0  0  0  0  0
   -0.0500   19.5820   -1.3940 C   0  0  2  0  0  0  0  0  0  0  0  0
    1.1150   20.1940   -1.9550 O   0  0  0  0  0  0  0  0  0  0  0  0
    0.3430   18.7800   -0.1220 C   0  0  0  0  0  0  0  0  0  0  0  0
   -0.9350   18.3710    0.6510 C   0  0  0  0  0  0  0  0  0  0  0  0
    1.1330   19.7310    0.8170 C   0  0  0  0  0  0  0  0  0  0  0  0
    1.3210   15.3380   -2.0300 C   0  0  1  0  0  0  0  0  0  0  0  0
    2.3880   15.7010   -3.1080 C   0  0  0  0  0  0  0  0  0  0  0  0
    0.3450   14.3020   -2.7030 C   0  0  0  0  0  0  0  0  0  0  0  0
   -0.3880   13.3260   -1.7630 C   0  0  0  0  0  0  0  0  0  0  0  0
    0.5910   12.6620   -0.7900 C   0  0  2  0  0  0  0  0  0  0  0  0
    1.6070   11.8190   -1.6350 C   0  0  0  0  0  0  0  0  0  0  0  0
    0.9403    9.1746    1.0003 H   0  0  0  0  0  0  0  0  0  0  0  0
    0.4373    8.4247   -0.5526 H   0  0  0  0  0  0  0  0  0  0  0  0
    1.5870    9.8049   -0.5526 H   0  0  0  0  0  0  0  0  0  0  0  0
   -1.2563    9.9798    0.5234 H   0  0  0  0  0  0  0  0  0  0  0  0
   -2.0041    9.8429   -1.5771 H   0  0  0  0  0  0  0  0  0  0  0  0
   -1.2077   11.4722   -1.8108 H   0  0  0  0  0  0  0  0  0  0  0  0
    0.8568    9.6652   -2.2148 H   0  0  0  0  0  0  0  0  0  0  0  0
   -0.5783    8.8828   -2.9993 H   0  0  0  0  0  0  0  0  0  0  0  0
   -0.9335   11.2821   -3.5344 H   0  0  0  0  0  0  0  0  0  0  0  0
    2.5201   10.8477   -2.6483 H   0  0  0  0  0  0  0  0  0  0  0  0
    2.8578    9.7946   -4.0637 H   0  0  0  0  0  0  0  0  0  0  0  0
    3.4104   11.5038   -4.0637 H   0  0  0  0  0  0  0  0  0  0  0  0
    1.3583   13.3645   -4.5080 H   0  0  0  0  0  0  0  0  0  0  0  0
    2.2395   12.5009   -5.8136 H   0  0  0  0  0  0  0  0  0  0  0  0
    0.4435   12.5366   -5.8136 H   0  0  0  0  0  0  0  0  0  0  0  0
   -0.9878   12.1415    0.6272 H   0  0  0  0  0  0  0  0  0  0  0  0
    0.6378   11.7753    2.3782 H   0  0  0  0  0  0  0  0  0  0  0  0
    1.6434   10.7466    1.3356 H   0  0  0  0  0  0  0  0  0  0  0  0
    2.2118   13.4558    2.0413 H   0  0  0  0  0  0  0  0  0  0  0  0
    3.0025   12.5908    0.7257 H   0  0  0  0  0  0  0  0  0  0  0  0
    0.4478   14.4209    2.0356 H   0  0  0  0  0  0  0  0  0  0  0  0
    0.3353   15.6637    0.7435 H   0  0  0  0  0  0  0  0  0  0  0  0
   -0.7902   14.2638    0.7435 H   0  0  0  0  0  0  0  0  0  0  0  0
    2.8488   14.0183   -1.2264 H   0  0  0  0  0  0  0  0  0  0  0  0
    3.1774   15.3841    0.9348 H   0  0  0  0  0  0  0  0  0  0  0  0
    3.7947   16.0020   -0.6857 H   0  0  0  0  0  0  0  0  0  0  0  0
    2.6502   17.7841    0.8816 H   0  0  0  0  0  0  0  0  0  0  0  0
   -0.4265   16.2092   -1.2071 H   0  0  0  0  0  0  0  0  0  0  0  0
    1.1039   17.9161   -3.2666 H   0  0  0  0  0  0  0  0  0  0  0  0
   -0.3913   16.9238   -3.5658 H   0  0  0  0  0  0  0  0  0  0  0  0
   -0.8960   19.3370   -3.3592 H   0  0  0  0  0  0  0  0  0  0  0  0
   -1.6689   18.3409   -2.0642 H   0  0  0  0  0  0  0  0  0  0  0  0
   -0.7817   20.3387   -1.0745 H   0  0  0  0  0  0  0  0  0  0  0  0
    0.8460   20.6400   -2.7760 H   0  0  0  0  0  0  0  0  0  0  0  0
   -0.7445   18.4320    1.7327 H   0  0  0  0  0  0  0  0  0  0  0  0
   -1.7579   19.0507    0.3847 H   0  0  0  0  0  0  0  0  0  0  0  0
   -1.2104   17.3399    0.3847 H   0  0  0  0  0  0  0  0  0  0  0  0
    0.9188   19.4731    1.8647 H   0  0  0  0  0  0  0  0  0  0  0  0
    2.2109   19.6230    0.6258 H   0  0  0  0  0  0  0  0  0  0  0  0
    0.8291   20.7708    0.6258 H   0  0  0  0  0  0  0  0  0  0  0  0
    3.3175   16.0172   -2.6120 H   0  0  0  0  0  0  0  0  0  0  0  0
    2.5888   14.8206   -3.7362 H   0  0  0  0  0  0  0  0  0  0  0  0
    2.0103   16.5212   -3.7362 H   0  0  0  0  0  0  0  0  0  0  0  0
   -0.4189   14.8724   -3.2517 H   0  0  0  0  0  0  0  0  0  0  0  0
    0.9874   13.6681   -3.3319 H   0  0  0  0  0  0  0  0  0  0  0  0
   -1.1456   13.8798   -1.1891 H   0  0  0  0  0  0  0  0  0  0  0  0
   -0.8627   12.5425   -2.3720 H   0  0  0  0  0  0  0  0  0  0  0  0
    2.2749   11.2648   -0.9592 H   0  0  0  0  0  0  0  0  0  0  0  0
    1.0560   11.1091   -2.2694 H   0  0  0  0  0  0  0  0  0  0  0  0
    2.2030   12.4915   -2.2694 H   0  0  0  0  0  0  0  0  0  0  0  0
  1  2  1  0
  2  3  1  0
  3  4  1  0
  4  5  1  0
  5  6  1  0
  6  7  1  0
  7  8  1  0
  7  9  1  0
  2 10  1  0
 10 11  1  0
 11 12  1  0
 12 13  1  0
 13 14  1  1
 13 15  1  0
 15 16  1  0
 16 17  1  0
 17 18  2  0
 18 19  1  0
 19 20  1  0
 20 21  1  0
 21 22  1  0
 22 23  1  0
 22 24  1  0
 24 25  1  0
 24 26  1  0
 19 27  1  0
 27 28  1  6
 27 29  1  0
 29 30  1  0
 30 31  1  0
 31 32  1  6
  7  5  1  0
 31 10  1  0
 31 13  1  0
 27 15  1  0
 24 18  1  0
  1 33  1  0
  1 34  1  0
  1 35  1  0
  2 36  1  1
  3 37  1  0
  3 38  1  0
  4 39  1  0
  4 40  1  0
  5 41  1  6
  8 42  1  0
  8 43  1  0
  8 44  1  0
  9 45  1  0
  9 46  1  0
  9 47  1  0
 10 48  1  1
 11 49  1  0
 11 50  1  0
 12 51  1  0
 12 52  1  0
 14 53  1  0
 14 54  1  0
 14 55  1  0
 15 56  1  6
 16 57  1  0
 16 58  1  0
 17 59  1  0
 19 60  1  1
 20 61  1  0
 20 62  1  0
 21 63  1  0
 21 64  1  0
 22 65  1  1
 23 66  1  0
 25 67  1  0
 25 68  1  0
 25 69  1  0
 26 70  1  0
 26 71  1  0
 26 72  1  0
 28 73  1  0
 28 74  1  0
 28 75  1  0
 29 76  1  0
 29 77  1  0
 30 78  1  0
 30 79  1  0
 32 80  1  0
 32 81  1  0
 32 82  1  0
M  END
>  <meeko>  (18) 
{"is_sidechain": [false], "intermolecular_energy": 2.731, "internal_energy": -0.839}

$$$$
EPH_relaxed_0001_pdb2pqr_Repair_366_r2_0001_out
     RDKit          3D

 82 86  0  0  0  0  0  0  0  0999 V2000
    2.3230   18.6630   -2.5260 C   0  0  0  0  0  0  0  0  0  0  0  0
    1.4140   17.8290   -1.6200 C   0  0  2  0  0  0  0  0  0  0  0  0
    1.5420   18.2340   -0.1380 C   0  0  0  0  0  0  0  0  0  0  0  0
    0.9670   19.6190    0.1730 C   0  0  0  0  0  0  0  0  0  0  0  0
   -0.4930   19.5520    0.5040 C   0  0  2  0  0  0  0  0  0  0  0  0
   -1.2000   18.4720   -0.1220 O   0  0  0  0  0  0  0  0  0  0  0  0
   -1.5940   19.7980   -0.5120 C   0  0  0  0  0  0  0  0  0  0  0  0
   -1.2800   20.1320   -1.9360 C   0  0  0  0  0  0  0  0  0  0  0  0
   -2.9490   20.1940   -0.0160 C   0  0  0  0  0  0  0  0  0  0  0  0
    1.7350   16.3480   -1.7840 C   0  0  1  0  0  0  0  0  0  0  0  0
    3.2610   16.0660   -1.8090 C   0  0  0  0  0  0  0  0  0  0  0  0
    3.4740   14.6990   -1.1090 C   0  0  0  0  0  0  0  0  0  0  0  0
    2.0570   14.0890   -1.0030 C   0  0  1  0  0  0  0  0  0  0  0  0
    1.7810   13.4680   -2.4090 C   0  0  0  0  0  0  0  0  0  0  0  0
    1.8370   13.0460    0.1410 C   0  0  2  0  0  0  0  0  0  0  0  0
    2.6920   11.7720    0.0360 C   0  0  0  0  0  0  0  0  0  0  0  0
    2.0700   10.6480   -0.7250 C   0  0  0  0  0  0  0  0  0  0  0  0
    0.7690   10.5530   -1.0570 C   0  0  0  0  0  0  0  0  0  0  0  0
   -0.2450   11.5990   -0.5750 C   0  0  1  0  0  0  0  0  0  0  0  0
   -1.5040   10.8830   -0.0210 C   0  0  0  0  0  0  0  0  0  0  0  0
   -2.1080    9.9030   -1.0230 C   0  0  0  0  0  0  0  0  0  0  0  0
   -1.0870    8.8450   -1.4330 C   0  0  2  0  0  0  0  0  0  0  0  0
   -0.7920    8.0240   -0.2990 O   0  0  0  0  0  0  0  0  0  0  0  0
    0.2280    9.4490   -1.9980 C   0  0  0  0  0  0  0  0  0  0  0  0
   -0.0430   10.0820   -3.3850 C   0  0  0  0  0  0  0  0  0  0  0  0
    1.2240    8.2820   -2.2410 C   0  0  0  0  0  0  0  0  0  0  0  0
    0.3180   12.7020    0.4210 C   0  0  1  0  0  0  0  0  0  0  0  0
    0.2420   12.1820    1.8890 C   0  0  0  0  0  0  0  0  0  0  0  0
   -0.6060   13.9750    0.3540 C   0  0  0  0  0  0  0  0  0  0  0  0
   -0.2650   15.0250   -0.7210 C   0  0  0  0  0  0  0  0  0  0  0  0
    1.2240   15.3830   -0.6840 C   0  0  2  0  0  0  0  0  0  0  0  0
    1.5260   16.0300    0.7110 C   0  0  0  0  0  0  0  0  0  0  0  0
    2.9931   19.2778   -1.9072 H   0  0  0  0  0  0  0  0  0  0  0  0
    2.9218   17.9935   -3.1610 H   0  0  0  0  0  0  0  0  0  0  0  0
    1.7074   19.3171   -3.1610 H   0  0  0  0  0  0  0  0  0  0  0  0
    0.3751   18.0210   -1.9264 H   0  0  0  0  0  0  0  0  0  0  0  0
    1.0079   17.4910    0.4725 H   0  0  0  0  0  0  0  0  0  0  0  0
    2.6167   18.2725    0.0933 H   0  0  0  0  0  0  0  0  0  0  0  0
    1.5078   20.0449    1.0310 H   0  0  0  0  0  0  0  0  0  0  0  0
    1.0872   20.2486   -0.7210 H   0  0  0  0  0  0  0  0  0  0  0  0
   -0.3087   19.9648    1.5068 H   0  0  0  0  0  0  0  0  0  0  0  0
   -0.5269   20.9331   -1.9672 H   0  0  0  0  0  0  0  0  0  0  0  0
   -0.8868   19.2390   -2.4439 H   0  0  0  0  0  0  0  0  0  0  0  0
   -2.1955   20.4694   -2.4439 H   0  0  0  0  0  0  0  0  0  0  0  0
   -2.9511   20.1946    1.0840 H   0  0  0  0  0  0  0  0  0  0  0  0
   -3.1941   21.2013   -0.3837 H   0  0  0  0  0  0  0  0  0  0  0  0
   -3.6980   19.4772   -0.3837 H   0  0  0  0  0  0  0  0  0  0  0  0
    1.2115   16.1502   -2.7310 H   0  0  0  0  0  0  0  0  0  0  0  0
    3.6209   16.0201   -2.8474 H   0  0  0  0  0  0  0  0  0  0  0  0
    3.8188   16.8637   -1.2966 H   0  0  0  0  0  0  0  0  0  0  0  0
    4.1307   14.0531   -1.7103 H   0  0  0  0  0  0  0  0  0  0  0  0
    3.9568   14.8047   -0.1263 H   0  0  0  0  0  0  0  0  0  0  0  0
    1.3370   12.4689   -2.2878 H   0  0  0  0  0  0  0  0  0  0  0  0
    1.0851   14.1136   -2.9648 H   0  0  0  0  0  0  0  0  0  0  0  0
    2.7265   13.3841   -2.9648 H   0  0  0  0  0  0  0  0  0  0  0  0
    2.2106   13.5835    1.0250 H   0  0  0  0  0  0  0  0  0  0  0  0
    3.6371   12.0368   -0.4606 H   0  0  0  0  0  0  0  0  0  0  0  0
    2.8227   11.4072    1.0655 H   0  0  0  0  0  0  0  0  0  0  0  0
    2.7312    9.8278   -1.0412 H   0  0  0  0  0  0  0  0  0  0  0  0
   -0.5137   12.1932   -1.4608 H   0  0  0  0  0  0  0  0  0  0  0  0
   -1.2241   10.3303    0.8880 H   0  0  0  0  0  0  0  0  0  0  0  0
   -2.2604   11.6532    0.1904 H   0  0  0  0  0  0  0  0  0  0  0  0
   -2.9758    9.4072   -0.5636 H   0  0  0  0  0  0  0  0  0  0  0  0
   -2.4149   10.4615   -1.9196 H   0  0  0  0  0  0  0  0  0  0  0  0
   -1.5340    8.2532   -2.2454 H   0  0  0  0  0  0  0  0  0  0  0  0
   -0.3790    7.2070   -0.6260 H   0  0  0  0  0  0  0  0  0  0  0  0
   -0.4728   11.0858   -3.2523 H   0  0  0  0  0  0  0  0  0  0  0  0
    0.9013   10.1584   -3.9440 H   0  0  0  0  0  0  0  0  0  0  0  0
   -0.7500    9.4514   -3.9440 H   0  0  0  0  0  0  0  0  0  0  0  0
    1.5644    7.8831   -1.2740 H   0  0  0  0  0  0  0  0  0  0  0  0
    0.7233    7.4852   -2.8105 H   0  0  0  0  0  0  0  0  0  0  0  0
    2.0896    8.6513   -2.8105 H   0  0  0  0  0  0  0  0  0  0  0  0
    0.3653   13.0259    2.5838 H   0  0  0  0  0  0  0  0  0  0  0  0
   -0.7352   11.7065    2.0594 H   0  0  0  0  0  0  0  0  0  0  0  0
    1.0422   11.4468    2.0594 H   0  0  0  0  0  0  0  0  0  0  0  0
   -1.6341   13.6306    0.1685 H   0  0  0  0  0  0  0  0  0  0  0  0
   -0.4584   14.4888    1.3154 H   0  0  0  0  0  0  0  0  0  0  0  0
   -0.5130   14.6186   -1.7126 H   0  0  0  0  0  0  0  0  0  0  0  0
   -0.8499   15.9349   -0.5209 H   0  0  0  0  0  0  0  0  0  0  0  0
    1.2062   15.3448    1.5099 H   0  0  0  0  0  0  0  0  0  0  0  0
    2.6058   16.2198    0.8011 H   0  0  0  0  0  0  0  0  0  0  0  0
    0.9780   16.9795    0.8011 H   0  0  0  0  0  0  0  0  0  0  0  0
  1  2  1  0
  2  3  1  0
  3  4  1  0
  4  5  1  0
  5  6  1  0
  6  7  1  0
  7  8  1  0
  7  9  1  0
  2 10  1  0
 10 11  1  0
 11 12  1  0
 12 13  1  0
 13 14  1  6
 13 15  1  0
 15 16  1  0
 16 17  1  0
 17 18  2  0
 18 19  1  0
 19 20  1  0
 20 21  1  0
 21 22  1  0
 22 23  1  0
 22 24  1  0
 24 25  1  0
 24 26  1  0
 19 27  1  0
 27 28  1  1
 27 29  1  0
 29 30  1  0
 30 31  1  0
 31 32  1  1
  7  5  1  0
 31 10  1  0
 31 13  1  0
 27 15  1  0
 24 18  1  0
  1 33  1  0
  1 34  1  0
  1 35  1  0
  2 36  1  6
  3 37  1  0
  3 38  1  0
  4 39  1  0
  4 40  1  0
  5 41  1  1
  8 42  1  0
  8 43  1  0
  8 44  1  0
  9 45  1  0
  9 46  1  0
  9 47  1  0
 10 48  1  6
 11 49  1  0
 11 50  1  0
 12 51  1  0
 12 52  1  0
 14 53  1  0
 14 54  1  0
 14 55  1  0
 15 56  1  1
 16 57  1  0
 16 58  1  0
 17 59  1  0
 19 60  1  6
 20 61  1  0
 20 62  1  0
 21 63  1  0
 21 64  1  0
 22 65  1  6
 23 66  1  0
 25 67  1  0
 25 68  1  0
 25 69  1  0
 26 70  1  0
 26 71  1  0
 26 72  1  0
 28 73  1  0
 28 74  1  0
 28 75  1  0
 29 76  1  0
 29 77  1  0
 30 78  1  0
 30 79  1  0
 32 80  1  0
 32 81  1  0
 32 82  1  0
M  END
>  <meeko>  (19) 
{"is_sidechain": [false], "intermolecular_energy": 2.731, "internal_energy": -0.839}

$$$$
EPH_relaxed_0001_pdb2pqr_Repair_366_r2_0001_out
     RDKit          3D

 82 86  0  0  0  0  0  0  0  0999 V2000
    3.1290   14.8090   -7.5300 C   0  0  0  0  0  0  0  0  0  0  0  0
    1.6060   14.8840   -7.3880 C   0  0  2  0  0  0  0  0  0  0  0  0
    1.0230   16.1490   -8.0500 C   0  0  0  0  0  0  0  0  0  0  0  0
    1.9640   16.8010   -9.0660 C   0  0  0  0  0  0  0  0  0  0  0  0
    1.6200   16.4090  -10.4710 C   0  0  2  0  0  0  0  0  0  0  0  0
    1.0090   15.1180  -10.6000 O   0  0  0  0  0  0  0  0  0  0  0  0
    2.3000   15.2720  -11.2120 C   0  0  0  0  0  0  0  0  0  0  0  0
    3.3790   14.4570  -10.5710 C   0  0  0  0  0  0  0  0  0  0  0  0
    2.2610   15.2690  -12.7090 C   0  0  0  0  0  0  0  0  0  0  0  0
    1.2190   14.8420   -5.9150 C   0  0  1  0  0  0  0  0  0  0  0  0
   -0.0380   15.6970   -5.6020 C   0  0  0  0  0  0  0  0  0  0  0  0
   -0.8170   14.9550   -4.4860 C   0  0  0  0  0  0  0  0  0  0  0  0
    0.1710   13.8860   -3.9640 C   0  0  1  0  0  0  0  0  0  0  0  0
    1.1060   14.6530   -2.9760 C   0  0  0  0  0  0  0  0  0  0  0  0
   -0.4650   12.6240   -3.2950 C   0  0  2  0  0  0  0  0  0  0  0  0
   -1.2850   12.9030   -2.0240 C   0  0  0  0  0  0  0  0  0  0  0  0
   -0.5170   12.8480   -0.7440 C   0  0  0  0  0  0  0  0  0  0  0  0
    0.7070   12.3090   -0.5900 C   0  0  0  0  0  0  0  0  0  0  0  0
    1.4040   11.5910   -1.7520 C   0  0  1  0  0  0  0  0  0  0  0  0
    1.9920   10.2460   -1.2520 C   0  0  0  0  0  0  0  0  0  0  0  0
    2.9050   10.4210   -0.0420 C   0  0  0  0  0  0  0  0  0  0  0  0
    2.1600   11.0850    1.1130 C   0  0  2  0  0  0  0  0  0  0  0  0
    1.1470   10.1900    1.5830 O   0  0  0  0  0  0  0  0  0  0  0  0
    1.5150   12.4450    0.7240 C   0  0  0  0  0  0  0  0  0  0  0  0
    2.6250   13.5030    0.5050 C   0  0  0  0  0  0  0  0  0  0  0  0
    0.6770   12.9390    1.9340 C   0  0  0  0  0  0  0  0  0  0  0  0
    0.5460   11.4260   -3.0800 C   0  0  1  0  0  0  0  0  0  0  0  0
   -0.3140   10.1280   -2.9990 C   0  0  0  0  0  0  0  0  0  0  0  0
    1.5210   11.2380   -4.3020 C   0  0  0  0  0  0  0  0  0  0  0  0
    2.0200   12.5200   -4.9950 C   0  0  0  0  0  0  0  0  0  0  0  0
    0.8540   13.4610   -5.3150 C   0  0  2  0  0  0  0  0  0  0  0  0
   -0.0910   12.7250   -6.3240 C   0  0  0  0  0  0  0  0  0  0  0  0
    3.5897   14.7863   -6.5314 H   0  0  0  0  0  0  0  0  0  0  0  0
    3.4014   13.8963   -8.0803 H   0  0  0  0  0  0  0  0  0  0  0  0
    3.4898   15.6905   -8.0803 H   0  0  0  0  0  0  0  0  0  0  0  0
    1.1816   14.0131   -7.9089 H   0  0  0  0  0  0  0  0  0  0  0  0
    0.0918   15.8730   -8.5664 H   0  0  0  0  0  0  0  0  0  0  0  0
    0.8565   16.8837   -7.2484 H   0  0  0  0  0  0  0  0  0  0  0  0
    1.8877   17.8943   -8.9721 H   0  0  0  0  0  0  0  0  0  0  0  0
    2.9875   16.4577   -8.8550 H   0  0  0  0  0  0  0  0  0  0  0  0
    1.4299   17.4579  -10.7426 H   0  0  0  0  0  0  0  0  0  0  0  0
    3.2889   14.5251   -9.4768 H   0  0  0  0  0  0  0  0  0  0  0  0
    3.2793   13.4067  -10.8825 H   0  0  0  0  0  0  0  0  0  0  0  0
    4.3620   14.8401  -10.8825 H   0  0  0  0  0  0  0  0  0  0  0  0
    1.2178   15.1887  -13.0484 H   0  0  0  0  0  0  0  0  0  0  0  0
    2.6994   16.2035  -13.0891 H   0  0  0  0  0  0  0  0  0  0  0  0
    2.8372   14.4125  -13.0891 H   0  0  0  0  0  0  0  0  0  0  0  0
    2.1539   15.2117   -5.4686 H   0  0  0  0  0  0  0  0  0  0  0  0
    0.2609   16.6970   -5.2546 H   0  0  0  0  0  0  0  0  0  0  0  0
   -0.6610   15.8266   -6.4993 H   0  0  0  0  0  0  0  0  0  0  0  0
   -1.0980   15.6499   -3.6809 H   0  0  0  0  0  0  0  0  0  0  0  0
   -1.7536   14.5119   -4.8554 H   0  0  0  0  0  0  0  0  0  0  0  0
    0.8182   14.4169   -1.9409 H   0  0  0  0  0  0  0  0  0  0  0  0
    2.1488   14.3468   -3.1456 H   0  0  0  0  0  0  0  0  0  0  0  0
    1.0096   15.7356   -3.1456 H   0  0  0  0  0  0  0  0  0  0  0  0
   -1.1918   12.2959   -4.0527 H   0  0  0  0  0  0  0  0  0  0  0  0
   -1.7218   13.9084   -2.1153 H   0  0  0  0  0  0  0  0  0  0  0  0
   -2.0349   12.1005   -1.9635 H   0  0  0  0  0  0  0  0  0  0  0  0
   -0.9913   13.2844    0.1474 H   0  0  0  0  0  0  0  0  0  0  0  0
    2.2178   12.2564   -2.0759 H   0  0  0  0  0  0  0  0  0  0  0  0
    1.1620    9.5798   -0.9742 H   0  0  0  0  0  0  0  0  0  0  0  0
    2.5958    9.8215   -2.0676 H   0  0  0  0  0  0  0  0  0  0  0  0
    3.2655    9.4337    0.2825 H   0  0  0  0  0  0  0  0  0  0  0  0
    3.7499   11.0638   -0.3301 H   0  0  0  0  0  0  0  0  0  0  0  0
    2.8969   11.3005    1.9008 H   0  0  0  0  0  0  0  0  0  0  0  0
    1.5900    9.4780    2.0760 H   0  0  0  0  0  0  0  0  0  0  0  0
    2.9939   13.8546    1.4798 H   0  0  0  0  0  0  0  0  0  0  0  0
    3.4544   13.0527   -0.0602 H   0  0  0  0  0  0  0  0  0  0  0  0
    2.2150   14.3530   -0.0602 H   0  0  0  0  0  0  0  0  0  0  0  0
    1.1754   12.6452    2.8696 H   0  0  0  0  0  0  0  0  0  0  0  0
    0.5870   14.0346    1.8949 H   0  0  0  0  0  0  0  0  0  0  0  0
   -0.3252   12.4872    1.8949 H   0  0  0  0  0  0  0  0  0  0  0  0
   -0.4865    9.8677   -1.9443 H   0  0  0  0  0  0  0  0  0  0  0  0
   -1.2798   10.2964   -3.4978 H   0  0  0  0  0  0  0  0  0  0  0  0
    0.2176    9.3042   -3.4978 H   0  0  0  0  0  0  0  0  0  0  0  0
    2.4036   10.6889   -3.9423 H   0  0  0  0  0  0  0  0  0  0  0  0
    0.9292   10.7100   -5.0643 H   0  0  0  0  0  0  0  0  0  0  0  0
    2.7270   13.0368   -4.3293 H   0  0  0  0  0  0  0  0  0  0  0  0
    2.5127   12.2396   -5.9377 H   0  0  0  0  0  0  0  0  0  0  0  0
   -0.8394   12.1421   -5.7670 H   0  0  0  0  0  0  0  0  0  0  0  0
   -0.6006   13.4666   -6.9568 H   0  0  0  0  0  0  0  0  0  0  0  0
    0.5032   12.0494   -6.9568 H   0  0  0  0  0  0  0  0  0  0  0  0
  1  2  1  0
  2  3  1  0
  3  4  1  0
  4  5  1  0
  5  6  1  0
  6  7  1  0
  7  8  1  0
  7  9  1  0
  2 10  1  0
 10 11  1  0
 11 12  1  0
 12 13  1  0
 13 14  1  1
 13 15  1  0
 15 16  1  0
 16 17  1  0
 17 18  2  0
 18 19  1  0
 19 20  1  0
 20 21  1  0
 21 22  1  0
 22 23  1  0
 22 24  1  0
 24 25  1  0
 24 26  1  0
 19 27  1  0
 27 28  1  1
 27 29  1  0
 29 30  1  0
 30 31  1  0
 31 32  1  6
  7  5  1  0
 31 10  1  0
 31 13  1  0
 27 15  1  0
 24 18  1  0
  1 33  1  0
  1 34  1  0
  1 35  1  0
  2 36  1  6
  3 37  1  0
  3 38  1  0
  4 39  1  0
  4 40  1  0
  5 41  1  6
  8 42  1  0
  8 43  1  0
  8 44  1  0
  9 45  1  0
  9 46  1  0
  9 47  1  0
 10 48  1  1
 11 49  1  0
 11 50  1  0
 12 51  1  0
 12 52  1  0
 14 53  1  0
 14 54  1  0
 14 55  1  0
 15 56  1  6
 16 57  1  0
 16 58  1  0
 17 59  1  0
 19 60  1  6
 20 61  1  0
 20 62  1  0
 21 63  1  0
 21 64  1  0
 22 65  1  1
 23 66  1  0
 25 67  1  0
 25 68  1  0
 25 69  1  0
 26 70  1  0
 26 71  1  0
 26 72  1  0
 28 73  1  0
 28 74  1  0
 28 75  1  0
 29 76  1  0
 29 77  1  0
 30 78  1  0
 30 79  1  0
 32 80  1  0
 32 81  1  0
 32 82  1  0
M  END
>  <meeko>  (20) 
{"is_sidechain": [false], "intermolecular_energy": 2.731, "internal_energy": -0.839}

$$$$
