EPH_relaxed_0001_pdb2pqr_Repair_371_r2_0001_out
     RDKit          3D

 82 86  0  0  0  0  0  0  0  0999 V2000
   -1.3540    8.4980   -1.8490 C   0  0  0  0  0  0  0  0  0  0  0  0
   -1.8000    9.0590   -0.4960 C   0  0  2  0  0  0  0  0  0  0  0  0
   -3.3030    9.4020   -0.4760 C   0  0  0  0  0  0  0  0  0  0  0  0
   -4.2160    8.1740   -0.5100 C   0  0  0  0  0  0  0  0  0  0  0  0
   -4.5940    7.8030   -1.9130 C   0  0  2  0  0  0  0  0  0  0  0  0
   -5.9800    7.9890   -2.2280 O   0  0  0  0  0  0  0  0  0  0  0  0
   -5.5000    6.6350   -2.2530 C   0  0  0  0  0  0  0  0  0  0  0  0
   -6.0840    5.7630   -1.1860 C   0  0  0  0  0  0  0  0  0  0  0  0
   -5.4250    6.0480   -3.6280 C   0  0  0  0  0  0  0  0  0  0  0  0
   -0.9780   10.2950   -0.1500 C   0  0  1  0  0  0  0  0  0  0  0  0
    0.0800   10.0200    0.9510 C   0  0  0  0  0  0  0  0  0  0  0  0
    1.3150   10.8940    0.6120 C   0  0  0  0  0  0  0  0  0  0  0  0
    0.8110   11.8810   -0.4670 C   0  0  1  0  0  0  0  0  0  0  0  0
    0.0760   13.0040    0.3290 C   0  0  0  0  0  0  0  0  0  0  0  0
    1.8960   12.4680   -1.4270 C   0  0  2  0  0  0  0  0  0  0  0  0
    2.9800   13.3190   -0.7430 C   0  0  0  0  0  0  0  0  0  0  0  0
    2.6790   14.7780   -0.6460 C   0  0  0  0  0  0  0  0  0  0  0  0
    1.7220   15.4270   -1.3350 C   0  0  0  0  0  0  0  0  0  0  0  0
    0.8860   14.7000   -2.3960 C   0  0  1  0  0  0  0  0  0  0  0  0
    0.8080   15.5690   -3.6790 C   0  0  0  0  0  0  0  0  0  0  0  0
    0.2980   16.9800   -3.4000 C   0  0  0  0  0  0  0  0  0  0  0  0
    1.1890   17.6910   -2.3840 C   0  0  2  0  0  0  0  0  0  0  0  0
    2.4750   17.9090   -2.9720 O   0  0  0  0  0  0  0  0  0  0  0  0
    1.3500   16.9030   -1.0540 C   0  0  0  0  0  0  0  0  0  0  0  0
    0.0140   16.9270   -0.2700 C   0  0  0  0  0  0  0  0  0  0  0  0
    2.3820   17.6590   -0.1740 C   0  0  0  0  0  0  0  0  0  0  0  0
    1.3060   13.1980   -2.7010 C   0  0  1  0  0  0  0  0  0  0  0  0
    2.4240   13.1690   -3.7880 C   0  0  0  0  0  0  0  0  0  0  0  0
    0.0730   12.4330   -3.3120 C   0  0  0  0  0  0  0  0  0  0  0  0
   -0.8980   11.7720   -2.3150 C   0  0  0  0  0  0  0  0  0  0  0  0
   -0.1380   10.9310   -1.2850 C   0  0  2  0  0  0  0  0  0  0  0  0
    0.5940    9.7790   -2.0550 C   0  0  0  0  0  0  0  0  0  0  0  0
   -0.6769    7.6463   -1.6876 H   0  0  0  0  0  0  0  0  0  0  0  0
   -2.2354    8.1634   -2.4157 H   0  0  0  0  0  0  0  0  0  0  0  0
   -0.8293    9.2813   -2.4157 H   0  0  0  0  0  0  0  0  0  0  0  0
   -1.6309    8.2769    0.2588 H   0  0  0  0  0  0  0  0  0  0  0  0
   -3.5175    9.9686    0.4421 H   0  0  0  0  0  0  0  0  0  0  0  0
   -3.5119    9.9826   -1.3867 H   0  0  0  0  0  0  0  0  0  0  0  0
   -3.6906    7.3261   -0.0462 H   0  0  0  0  0  0  0  0  0  0  0  0
   -5.1369    8.4158    0.0409 H   0  0  0  0  0  0  0  0  0  0  0  0
   -3.6022    8.1000   -2.2846 H   0  0  0  0  0  0  0  0  0  0  0  0
   -5.8156    6.1637   -0.1974 H   0  0  0  0  0  0  0  0  0  0  0  0
   -7.1790    5.7420   -1.2882 H   0  0  0  0  0  0  0  0  0  0  0  0
   -5.6865    4.7424   -1.2882 H   0  0  0  0  0  0  0  0  0  0  0  0
   -5.2859    4.9593   -3.5548 H   0  0  0  0  0  0  0  0  0  0  0  0
   -6.3579    6.2629   -4.1698 H   0  0  0  0  0  0  0  0  0  0  0  0
   -4.5761    6.4905   -4.1698 H   0  0  0  0  0  0  0  0  0  0  0  0
   -1.7880   10.9779    0.1459 H   0  0  0  0  0  0  0  0  0  0  0  0
   -0.3198   10.2956    1.9380 H   0  0  0  0  0  0  0  0  0  0  0  0
    0.3477    8.9536    0.9843 H   0  0  0  0  0  0  0  0  0  0  0  0
    1.6625   11.4373    1.5031 H   0  0  0  0  0  0  0  0  0  0  0  0
    2.1674   10.2933    0.2620 H   0  0  0  0  0  0  0  0  0  0  0  0
    0.1930   12.8252    1.4080 H   0  0  0  0  0  0  0  0  0  0  0  0
    0.5099   13.9811    0.0700 H   0  0  0  0  0  0  0  0  0  0  0  0
   -0.9931   12.9974    0.0700 H   0  0  0  0  0  0  0  0  0  0  0  0
    2.4090   11.5636   -1.7860 H   0  0  0  0  0  0  0  0  0  0  0  0
    3.1218   12.9327    0.2771 H   0  0  0  0  0  0  0  0  0  0  0  0
    3.8765   13.2348   -1.3748 H   0  0  0  0  0  0  0  0  0  0  0  0
    3.2913   15.3732    0.0474 H   0  0  0  0  0  0  0  0  0  0  0  0
   -0.1184   14.5824   -1.9631 H   0  0  0  0  0  0  0  0  0  0  0  0
    1.8135   15.6382   -4.1197 H   0  0  0  0  0  0  0  0  0  0  0  0
    0.0971   15.0868   -4.3661 H   0  0  0  0  0  0  0  0  0  0  0  0
    0.2937   17.5535   -4.3387 H   0  0  0  0  0  0  0  0  0  0  0  0
   -0.7192   16.9106   -2.9872 H   0  0  0  0  0  0  0  0  0  0  0  0
    0.7025   18.6437   -2.1277 H   0  0  0  0  0  0  0  0  0  0  0  0
    3.1390   17.5080   -2.3860 H   0  0  0  0  0  0  0  0  0  0  0  0
    0.2225   16.9233    0.8100 H   0  0  0  0  0  0  0  0  0  0  0  0
   -0.5484   17.8354   -0.5317 H   0  0  0  0  0  0  0  0  0  0  0  0
   -0.5807   16.0394   -0.5317 H   0  0  0  0  0  0  0  0  0  0  0  0
    2.1515   17.4902    0.8883 H   0  0  0  0  0  0  0  0  0  0  0  0
    3.3935   17.2867   -0.3934 H   0  0  0  0  0  0  0  0  0  0  0  0
    2.3320   18.7357   -0.3934 H   0  0  0  0  0  0  0  0  0  0  0  0
    3.4094   13.1434   -3.2999 H   0  0  0  0  0  0  0  0  0  0  0  0
    2.3023   12.2737   -4.4154 H   0  0  0  0  0  0  0  0  0  0  0  0
    2.3488   14.0694   -4.4154 H   0  0  0  0  0  0  0  0  0  0  0  0
   -0.5036   13.1546   -3.9094 H   0  0  0  0  0  0  0  0  0  0  0  0
    0.5063   11.6010   -3.8864 H   0  0  0  0  0  0  0  0  0  0  0  0
   -1.4651   12.5559   -1.7916 H   0  0  0  0  0  0  0  0  0  0  0  0
   -1.5784   11.1121   -2.8732 H   0  0  0  0  0  0  0  0  0  0  0  0
    1.0386    9.0794   -1.3319 H   0  0  0  0  0  0  0  0  0  0  0  0
   -0.1294    9.2428   -2.6868 H   0  0  0  0  0  0  0  0  0  0  0  0
    1.3867   10.2062   -2.6868 H   0  0  0  0  0  0  0  0  0  0  0  0
  1  2  1  0
  2  3  1  0
  3  4  1  0
  4  5  1  0
  5  6  1  0
  6  7  1  0
  7  8  1  0
  7  9  1  0
  2 10  1  0
 10 11  1  0
 11 12  1  0
 12 13  1  0
 13 14  1  1
 13 15  1  0
 15 16  1  0
 16 17  1  0
 17 18  2  0
 18 19  1  0
 19 20  1  0
 20 21  1  0
 21 22  1  0
 22 23  1  0
 22 24  1  0
 24 25  1  0
 24 26  1  0
 19 27  1  0
 27 28  1  6
 27 29  1  0
 29 30  1  0
 30 31  1  0
 31 32  1  6
  7  5  1  0
 31 10  1  0
 31 13  1  0
 27 15  1  0
 24 18  1  0
  1 33  1  0
  1 34  1  0
  1 35  1  0
  2 36  1  1
  3 37  1  0
  3 38  1  0
  4 39  1  0
  4 40  1  0
  5 41  1  6
  8 42  1  0
  8 43  1  0
  8 44  1  0
  9 45  1  0
  9 46  1  0
  9 47  1  0
 10 48  1  1
 11 49  1  0
 11 50  1  0
 12 51  1  0
 12 52  1  0
 14 53  1  0
 14 54  1  0
 14 55  1  0
 15 56  1  6
 16 57  1  0
 16 58  1  0
 17 59  1  0
 19 60  1  1
 20 61  1  0
 20 62  1  0
 21 63  1  0
 21 64  1  0
 22 65  1  1
 23 66  1  0
 25 67  1  0
 25 68  1  0
 25 69  1  0
 26 70  1  0
 26 71  1  0
 26 72  1  0
 28 73  1  0
 28 74  1  0
 28 75  1  0
 29 76  1  0
 29 77  1  0
 30 78  1  0
 30 79  1  0
 32 80  1  0
 32 81  1  0
 32 82  1  0
M  END
>  <meeko>  (1) 
{"is_sidechain": [false], "intermolecular_energy": 2.731, "internal_energy": -0.839}

$$$$
EPH_relaxed_0001_pdb2pqr_Repair_371_r2_0001_out
     RDKit          3D

 82 86  0  0  0  0  0  0  0  0999 V2000
    4.2400   17.5180   -0.5710 C   0  0  0  0  0  0  0  0  0  0  0  0
    2.8790   18.0940   -0.1680 C   0  0  2  0  0  0  0  0  0  0  0  0
    2.9240   18.7770    1.2130 C   0  0  0  0  0  0  0  0  0  0  0  0
    4.3250   18.8280    1.8290 C   0  0  0  0  0  0  0  0  0  0  0  0
    4.2930   19.3390    3.2380 C   0  0  2  0  0  0  0  0  0  0  0  0
    5.3880   20.1940    3.5900 O   0  0  0  0  0  0  0  0  0  0  0  0
    5.3080   18.9450    4.2940 C   0  0  0  0  0  0  0  0  0  0  0  0
    6.4270   18.0000    3.9870 C   0  0  0  0  0  0  0  0  0  0  0  0
    4.9330   19.0890    5.7360 C   0  0  0  0  0  0  0  0  0  0  0  0
    1.8270   16.9910   -0.1690 C   0  0  1  0  0  0  0  0  0  0  0  0
    0.4010   17.5260   -0.4650 C   0  0  0  0  0  0  0  0  0  0  0  0
   -0.3280   16.4290   -1.2830 C   0  0  0  0  0  0  0  0  0  0  0  0
    0.5720   15.1790   -1.1460 C   0  0  1  0  0  0  0  0  0  0  0  0
    0.2020   14.5680    0.2410 C   0  0  0  0  0  0  0  0  0  0  0  0
    0.4610   14.1200   -2.2910 C   0  0  2  0  0  0  0  0  0  0  0  0
   -0.9220   13.4640   -2.4420 C   0  0  0  0  0  0  0  0  0  0  0  0
   -1.1260   12.2150   -1.6490 C   0  0  0  0  0  0  0  0  0  0  0  0
   -0.1510   11.4860   -1.0740 C   0  0  0  0  0  0  0  0  0  0  0  0
    1.3260   11.8480   -1.2750 C   0  0  1  0  0  0  0  0  0  0  0  0
    2.1310   10.5660   -1.6160 C   0  0  0  0  0  0  0  0  0  0  0  0
    1.9360    9.4610   -0.5820 C   0  0  0  0  0  0  0  0  0  0  0  0
    0.4610    9.0890   -0.4520 C   0  0  2  0  0  0  0  0  0  0  0  0
    0.0290    8.4840   -1.6750 O   0  0  0  0  0  0  0  0  0  0  0  0
   -0.4500   10.3040   -0.1200 C   0  0  0  0  0  0  0  0  0  0  0  0
   -0.1840   10.7710    1.3320 C   0  0  0  0  0  0  0  0  0  0  0  0
   -1.9240    9.8180   -0.1570 C   0  0  0  0  0  0  0  0  0  0  0  0
    1.6160   13.0380   -2.2880 C   0  0  1  0  0  0  0  0  0  0  0  0
    1.7150   12.4870   -3.7430 C   0  0  0  0  0  0  0  0  0  0  0  0
    3.0220   13.6650   -1.9550 C   0  0  0  0  0  0  0  0  0  0  0  0
    3.0490   14.7890   -0.9020 C   0  0  0  0  0  0  0  0  0  0  0  0
    1.9910   15.8530   -1.2080 C   0  0  2  0  0  0  0  0  0  0  0  0
    2.3490   16.5010   -2.5890 C   0  0  0  0  0  0  0  0  0  0  0  0
    4.8170   17.2738    0.3331 H   0  0  0  0  0  0  0  0  0  0  0  0
    4.0901   16.6062   -1.1677 H   0  0  0  0  0  0  0  0  0  0  0  0
    4.7902   18.2604   -1.1677 H   0  0  0  0  0  0  0  0  0  0  0  0
    2.6126   18.8628   -0.9083 H   0  0  0  0  0  0  0  0  0  0  0  0
    2.5553   19.8075    1.1030 H   0  0  0  0  0  0  0  0  0  0  0  0
    2.2972   18.1769    1.8890 H   0  0  0  0  0  0  0  0  0  0  0  0
    4.7524   17.8144    1.8270 H   0  0  0  0  0  0  0  0  0  0  0  0
    4.9387   19.5158    1.2287 H   0  0  0  0  0  0  0  0  0  0  0  0
    3.1930   19.3421    3.2365 H   0  0  0  0  0  0  0  0  0  0  0  0
    6.8637   17.6312    4.9268 H   0  0  0  0  0  0  0  0  0  0  0  0
    6.0404   17.1509    3.4043 H   0  0  0  0  0  0  0  0  0  0  0  0
    7.1994   18.5233    3.4043 H   0  0  0  0  0  0  0  0  0  0  0  0
    5.7738   18.7661    6.3675 H   0  0  0  0  0  0  0  0  0  0  0  0
    4.6968   20.1418    5.9501 H   0  0  0  0  0  0  0  0  0  0  0  0
    4.0528   18.4649    5.9501 H   0  0  0  0  0  0  0  0  0  0  0  0
    1.9724   16.5964    0.8474 H   0  0  0  0  0  0  0  0  0  0  0  0
   -0.1353   17.7156    0.4765 H   0  0  0  0  0  0  0  0  0  0  0  0
    0.4426   18.4728   -1.0235 H   0  0  0  0  0  0  0  0  0  0  0  0
   -1.3281   16.2350   -0.8680 H   0  0  0  0  0  0  0  0  0  0  0  0
   -0.4791   16.7218   -2.3325 H   0  0  0  0  0  0  0  0  0  0  0  0
    0.5926   15.2131    1.0418 H   0  0  0  0  0  0  0  0  0  0  0  0
   -0.8920   14.4953    0.3296 H   0  0  0  0  0  0  0  0  0  0  0  0
    0.6445   13.5648    0.3296 H   0  0  0  0  0  0  0  0  0  0  0  0
    0.6005   14.7339   -3.1930 H   0  0  0  0  0  0  0  0  0  0  0  0
   -1.6811   14.1948   -2.1262 H   0  0  0  0  0  0  0  0  0  0  0  0
   -1.0056   13.1704   -3.4988 H   0  0  0  0  0  0  0  0  0  0  0  0
   -2.1599   11.8608   -1.5242 H   0  0  0  0  0  0  0  0  0  0  0  0
    1.6715   12.2620   -0.3162 H   0  0  0  0  0  0  0  0  0  0  0  0
    1.8016   10.1932   -2.5971 H   0  0  0  0  0  0  0  0  0  0  0  0
    3.1980   10.8332   -1.6223 H   0  0  0  0  0  0  0  0  0  0  0  0
    2.5052    8.5726   -0.8930 H   0  0  0  0  0  0  0  0  0  0  0  0
    2.2933    9.8253    0.3925 H   0  0  0  0  0  0  0  0  0  0  0  0
    0.3701    8.3889    0.3916 H   0  0  0  0  0  0  0  0  0  0  0  0
    0.8240    8.2220   -2.1700 H   0  0  0  0  0  0  0  0  0  0  0  0
   -0.6024   10.0365    2.0359 H   0  0  0  0  0  0  0  0  0  0  0  0
    0.9001   10.8596    1.4959 H   0  0  0  0  0  0  0  0  0  0  0  0
   -0.6607   11.7487    1.4959 H   0  0  0  0  0  0  0  0  0  0  0  0
   -2.2956    9.6955    0.8711 H   0  0  0  0  0  0  0  0  0  0  0  0
   -2.5416   10.5601   -0.6841 H   0  0  0  0  0  0  0  0  0  0  0  0
   -1.9792    8.8541   -0.6841 H   0  0  0  0  0  0  0  0  0  0  0  0
    1.9095   11.4047   -3.7128 H   0  0  0  0  0  0  0  0  0  0  0  0
    0.7687   12.6749   -4.2714 H   0  0  0  0  0  0  0  0  0  0  0  0
    2.5367   12.9926   -4.2714 H   0  0  0  0  0  0  0  0  0  0  0  0
    3.6708   12.8539   -1.5928 H   0  0  0  0  0  0  0  0  0  0  0  0
    3.3550   14.1386   -2.8903 H   0  0  0  0  0  0  0  0  0  0  0  0
    2.8490   14.3576    0.0899 H   0  0  0  0  0  0  0  0  0  0  0  0
    4.0406   15.2647   -0.9224 H   0  0  0  0  0  0  0  0  0  0  0  0
    2.8748   17.4527   -2.4222 H   0  0  0  0  0  0  0  0  0  0  0  0
    2.9979   15.8183   -3.1572 H   0  0  0  0  0  0  0  0  0  0  0  0
    1.4256   16.6869   -3.1572 H   0  0  0  0  0  0  0  0  0  0  0  0
  1  2  1  0
  2  3  1  0
  3  4  1  0
  4  5  1  0
  5  6  1  0
  6  7  1  0
  7  8  1  0
  7  9  1  0
  2 10  1  0
 10 11  1  0
 11 12  1  0
 12 13  1  0
 13 14  1  1
 13 15  1  0
 15 16  1  0
 16 17  1  0
 17 18  2  0
 18 19  1  0
 19 20  1  0
 20 21  1  0
 21 22  1  0
 22 23  1  0
 22 24  1  0
 24 25  1  0
 24 26  1  0
 19 27  1  0
 27 28  1  6
 27 29  1  0
 29 30  1  0
 30 31  1  0
 31 32  1  6
  7  5  1  0
 31 10  1  0
 31 13  1  0
 27 15  1  0
 24 18  1  0
  1 33  1  0
  1 34  1  0
  1 35  1  0
  2 36  1  6
  3 37  1  0
  3 38  1  0
  4 39  1  0
  4 40  1  0
  5 41  1  1
  8 42  1  0
  8 43  1  0
  8 44  1  0
  9 45  1  0
  9 46  1  0
  9 47  1  0
 10 48  1  1
 11 49  1  0
 11 50  1  0
 12 51  1  0
 12 52  1  0
 14 53  1  0
 14 54  1  0
 14 55  1  0
 15 56  1  6
 16 57  1  0
 16 58  1  0
 17 59  1  0
 19 60  1  1
 20 61  1  0
 20 62  1  0
 21 63  1  0
 21 64  1  0
 22 65  1  1
 23 66  1  0
 25 67  1  0
 25 68  1  0
 25 69  1  0
 26 70  1  0
 26 71  1  0
 26 72  1  0
 28 73  1  0
 28 74  1  0
 28 75  1  0
 29 76  1  0
 29 77  1  0
 30 78  1  0
 30 79  1  0
 32 80  1  0
 32 81  1  0
 32 82  1  0
M  END
>  <meeko>  (2) 
{"is_sidechain": [false], "intermolecular_energy": 2.731, "internal_energy": -0.839}

$$$$
EPH_relaxed_0001_pdb2pqr_Repair_371_r2_0001_out
     RDKit          3D

 82 86  0  0  0  0  0  0  0  0999 V2000
    0.4270   18.4470   -0.0320 C   0  0  0  0  0  0  0  0  0  0  0  0
    1.5040   17.3790   -0.2420 C   0  0  2  0  0  0  0  0  0  0  0  0
    2.7260   17.9280   -1.0040 C   0  0  0  0  0  0  0  0  0  0  0  0
    3.9620   18.1320   -0.1230 C   0  0  0  0  0  0  0  0  0  0  0  0
    3.5910   18.6110    1.2480 C   0  0  2  0  0  0  0  0  0  0  0  0
    3.8420   20.0030    1.4840 O   0  0  0  0  0  0  0  0  0  0  0  0
    4.6070   19.0780    2.2740 C   0  0  0  0  0  0  0  0  0  0  0  0
    6.0730   19.0880    1.9730 C   0  0  0  0  0  0  0  0  0  0  0  0
    4.2230   19.0600    3.7210 C   0  0  0  0  0  0  0  0  0  0  0  0
    0.9160   16.1880   -0.9890 C   0  0  1  0  0  0  0  0  0  0  0  0
    0.7480   16.4590   -2.5070 C   0  0  0  0  0  0  0  0  0  0  0  0
    1.0240   15.1180   -3.2340 C   0  0  0  0  0  0  0  0  0  0  0  0
    1.0140   14.0550   -2.1100 C   0  0  1  0  0  0  0  0  0  0  0  0
   -0.4960   13.7520   -1.8590 C   0  0  0  0  0  0  0  0  0  0  0  0
    1.8270   12.7490   -2.3870 C   0  0  2  0  0  0  0  0  0  0  0  0
    1.3300   11.9120   -3.5790 C   0  0  0  0  0  0  0  0  0  0  0  0
    0.3100   10.8730   -3.2480 C   0  0  0  0  0  0  0  0  0  0  0  0
    0.0210   10.4270   -2.0110 C   0  0  0  0  0  0  0  0  0  0  0  0
    0.8210   10.9080   -0.7930 C   0  0  1  0  0  0  0  0  0  0  0  0
    1.2040    9.6900    0.0880 C   0  0  0  0  0  0  0  0  0  0  0  0
   -0.0070    8.8480    0.4800 C   0  0  0  0  0  0  0  0  0  0  0  0
   -0.7420    8.3400   -0.7570 C   0  0  2  0  0  0  0  0  0  0  0  0
    0.1020    7.4130   -1.4470 O   0  0  0  0  0  0  0  0  0  0  0  0
   -1.1690    9.4780   -1.7260 C   0  0  0  0  0  0  0  0  0  0  0  0
   -2.3090   10.3080   -1.0840 C   0  0  0  0  0  0  0  0  0  0  0  0
   -1.7730    8.8220   -2.9970 C   0  0  0  0  0  0  0  0  0  0  0  0
    2.0630   11.8490   -1.1070 C   0  0  1  0  0  0  0  0  0  0  0  0
    3.3260   10.9820   -1.3990 C   0  0  0  0  0  0  0  0  0  0  0  0
    2.3960   12.7040    0.1720 C   0  0  0  0  0  0  0  0  0  0  0  0
    1.6480   14.0410    0.3280 C   0  0  0  0  0  0  0  0  0  0  0  0
    1.7200   14.8640   -0.9620 C   0  0  2  0  0  0  0  0  0  0  0  0
    3.2260   15.2030   -1.2290 C   0  0  0  0  0  0  0  0  0  0  0  0
    0.2701   18.6026    1.0456 H   0  0  0  0  0  0  0  0  0  0  0  0
    0.7510   19.3906   -0.4954 H   0  0  0  0  0  0  0  0  0  0  0  0
   -0.5138   18.1151   -0.4954 H   0  0  0  0  0  0  0  0  0  0  0  0
    1.8515   17.0599    0.7517 H   0  0  0  0  0  0  0  0  0  0  0  0
    2.9835   17.2184   -1.8041 H   0  0  0  0  0  0  0  0  0  0  0  0
    2.4432   18.9169   -1.3939 H   0  0  0  0  0  0  0  0  0  0  0  0
    4.4983   17.1757   -0.0338 H   0  0  0  0  0  0  0  0  0  0  0  0
    4.5970   18.8968   -0.5939 H   0  0  0  0  0  0  0  0  0  0  0  0
    2.7655   17.8862    1.3039 H   0  0  0  0  0  0  0  0  0  0  0  0
    6.6407   19.0919    2.9152 H   0  0  0  0  0  0  0  0  0  0  0  0
    6.3340   18.1916    1.3913 H   0  0  0  0  0  0  0  0  0  0  0  0
    6.3218   19.9879    1.3913 H   0  0  0  0  0  0  0  0  0  0  0  0
    5.1302   19.1025    4.3417 H   0  0  0  0  0  0  0  0  0  0  0  0
    3.5863   19.9293    3.9422 H   0  0  0  0  0  0  0  0  0  0  0  0
    3.6704   18.1350    3.9422 H   0  0  0  0  0  0  0  0  0  0  0  0
   -0.0252   16.0679   -0.4324 H   0  0  0  0  0  0  0  0  0  0  0  0
   -0.2755   16.8015   -2.7196 H   0  0  0  0  0  0  0  0  0  0  0  0
    1.4409   17.2426   -2.8473 H   0  0  0  0  0  0  0  0  0  0  0  0
    0.2373   14.9083   -3.9737 H   0  0  0  0  0  0  0  0  0  0  0  0
    1.9749   15.1314   -3.7868 H   0  0  0  0  0  0  0  0  0  0  0  0
   -0.6873   13.7136   -0.7764 H   0  0  0  0  0  0  0  0  0  0  0  0
   -1.1093   14.5450   -2.3118 H   0  0  0  0  0  0  0  0  0  0  0  0
   -0.7559   12.7838   -2.3118 H   0  0  0  0  0  0  0  0  0  0  0  0
    2.8099   13.1415   -2.6867 H   0  0  0  0  0  0  0  0  0  0  0  0
    0.8885   12.5989   -4.3160 H   0  0  0  0  0  0  0  0  0  0  0  0
    2.2083   11.3670   -3.9552 H   0  0  0  0  0  0  0  0  0  0  0  0
   -0.2528   10.4350   -4.0855 H   0  0  0  0  0  0  0  0  0  0  0  0
    0.1511   11.5775   -0.2336 H   0  0  0  0  0  0  0  0  0  0  0  0
    1.9074    9.0567   -0.4724 H   0  0  0  0  0  0  0  0  0  0  0  0
    1.6562   10.0761    1.0135 H   0  0  0  0  0  0  0  0  0  0  0  0
    0.3307    7.9878    1.0766 H   0  0  0  0  0  0  0  0  0  0  0  0
   -0.6960    9.4752    1.0647 H   0  0  0  0  0  0  0  0  0  0  0  0
   -1.6680    7.8551   -0.4143 H   0  0  0  0  0  0  0  0  0  0  0  0
   -0.3240    6.5400   -1.4040 H   0  0  0  0  0  0  0  0  0  0  0  0
   -2.2314   10.2515    0.0118 H   0  0  0  0  0  0  0  0  0  0  0  0
   -2.2238   11.3570   -1.4040 H   0  0  0  0  0  0  0  0  0  0  0  0
   -3.2811    9.9048   -1.4040 H   0  0  0  0  0  0  0  0  0  0  0  0
   -2.4907    8.0425   -2.7015 H   0  0  0  0  0  0  0  0  0  0  0  0
   -2.2888    9.5877   -3.5950 H   0  0  0  0  0  0  0  0  0  0  0  0
   -0.9674    8.3710   -3.5950 H   0  0  0  0  0  0  0  0  0  0  0  0
    3.7830   10.6683   -0.4489 H   0  0  0  0  0  0  0  0  0  0  0  0
    3.0346   10.0926   -1.9770 H   0  0  0  0  0  0  0  0  0  0  0  0
    4.0512   11.5736   -1.9770 H   0  0  0  0  0  0  0  0  0  0  0  0
    2.1641   12.0882    1.0535 H   0  0  0  0  0  0  0  0  0  0  0  0
    3.4561   12.9781    0.0668 H   0  0  0  0  0  0  0  0  0  0  0  0
    0.5936   13.8376    0.5666 H   0  0  0  0  0  0  0  0  0  0  0  0
    2.1223   14.6156    1.1373 H   0  0  0  0  0  0  0  0  0  0  0  0
    3.7509   15.3212   -0.2696 H   0  0  0  0  0  0  0  0  0  0  0  0
    3.6895   14.3867   -1.8025 H   0  0  0  0  0  0  0  0  0  0  0  0
    3.2950   16.1392   -1.8025 H   0  0  0  0  0  0  0  0  0  0  0  0
  1  2  1  0
  2  3  1  0
  3  4  1  0
  4  5  1  0
  5  6  1  0
  6  7  1  0
  7  8  1  0
  7  9  1  0
  2 10  1  0
 10 11  1  0
 11 12  1  0
 12 13  1  0
 13 14  1  1
 13 15  1  0
 15 16  1  0
 16 17  1  0
 17 18  2  0
 18 19  1  0
 19 20  1  0
 20 21  1  0
 21 22  1  0
 22 23  1  0
 22 24  1  0
 24 25  1  0
 24 26  1  0
 19 27  1  0
 27 28  1  6
 27 29  1  0
 29 30  1  0
 30 31  1  0
 31 32  1  6
  7  5  1  0
 31 10  1  0
 31 13  1  0
 27 15  1  0
 24 18  1  0
  1 33  1  0
  1 34  1  0
  1 35  1  0
  2 36  1  1
  3 37  1  0
  3 38  1  0
  4 39  1  0
  4 40  1  0
  5 41  1  1
  8 42  1  0
  8 43  1  0
  8 44  1  0
  9 45  1  0
  9 46  1  0
  9 47  1  0
 10 48  1  1
 11 49  1  0
 11 50  1  0
 12 51  1  0
 12 52  1  0
 14 53  1  0
 14 54  1  0
 14 55  1  0
 15 56  1  6
 16 57  1  0
 16 58  1  0
 17 59  1  0
 19 60  1  1
 20 61  1  0
 20 62  1  0
 21 63  1  0
 21 64  1  0
 22 65  1  1
 23 66  1  0
 25 67  1  0
 25 68  1  0
 25 69  1  0
 26 70  1  0
 26 71  1  0
 26 72  1  0
 28 73  1  0
 28 74  1  0
 28 75  1  0
 29 76  1  0
 29 77  1  0
 30 78  1  0
 30 79  1  0
 32 80  1  0
 32 81  1  0
 32 82  1  0
M  END
>  <meeko>  (3) 
{"is_sidechain": [false], "intermolecular_energy": 2.731, "internal_energy": -0.839}

$$$$
EPH_relaxed_0001_pdb2pqr_Repair_371_r2_0001_out
     RDKit          3D

 82 86  0  0  0  0  0  0  0  0999 V2000
    3.7640   17.9620    0.7460 C   0  0  0  0  0  0  0  0  0  0  0  0
    2.7210   18.4070   -0.2820 C   0  0  2  0  0  0  0  0  0  0  0  0
    1.9980   19.7000    0.1460 C   0  0  0  0  0  0  0  0  0  0  0  0
    0.7930   19.4580    1.0600 C   0  0  0  0  0  0  0  0  0  0  0  0
   -0.4530   20.0830    0.5110 C   0  0  2  0  0  0  0  0  0  0  0  0
   -1.5310   20.1940    1.4500 O   0  0  0  0  0  0  0  0  0  0  0  0
   -1.7560   19.3280    0.3260 C   0  0  0  0  0  0  0  0  0  0  0  0
   -1.8770   17.8810    0.6870 C   0  0  0  0  0  0  0  0  0  0  0  0
   -2.7570   19.8590   -0.6530 C   0  0  0  0  0  0  0  0  0  0  0  0
    1.7050   17.2930   -0.5070 C   0  0  1  0  0  0  0  0  0  0  0  0
    0.4990   17.7500   -1.3710 C   0  0  0  0  0  0  0  0  0  0  0  0
    0.0790   16.5310   -2.2330 C   0  0  0  0  0  0  0  0  0  0  0  0
    0.8300   15.3330   -1.6060 C   0  0  1  0  0  0  0  0  0  0  0  0
   -0.0340   14.9190   -0.3740 C   0  0  0  0  0  0  0  0  0  0  0  0
    1.1060   14.1190   -2.5520 C   0  0  2  0  0  0  0  0  0  0  0  0
   -0.1510   13.4190   -3.0980 C   0  0  0  0  0  0  0  0  0  0  0  0
   -0.6660   12.2920   -2.2650 C   0  0  0  0  0  0  0  0  0  0  0  0
    0.0130   11.6740   -1.2790 C   0  0  0  0  0  0  0  0  0  0  0  0
    1.4740   12.0350   -0.9830 C   0  0  1  0  0  0  0  0  0  0  0  0
    2.3070   10.7360   -0.8260 C   0  0  0  0  0  0  0  0  0  0  0  0
    1.7180    9.7860    0.2130 C   0  0  0  0  0  0  0  0  0  0  0  0
    0.2840    9.4040   -0.1470 C   0  0  2  0  0  0  0  0  0  0  0  0
    0.3030    8.6210   -1.3450 O   0  0  0  0  0  0  0  0  0  0  0  0
   -0.6470   10.6340   -0.3410 C   0  0  0  0  0  0  0  0  0  0  0  0
   -0.9070   11.3100    1.0280 C   0  0  0  0  0  0  0  0  0  0  0  0
   -2.0230   10.1160   -0.8390 C   0  0  0  0  0  0  0  0  0  0  0  0
    2.1470   13.0750   -1.9790 C   0  0  1  0  0  0  0  0  0  0  0  0
    2.7460   12.3230   -3.2070 C   0  0  0  0  0  0  0  0  0  0  0  0
    3.3570   13.7730   -1.2530 C   0  0  0  0  0  0  0  0  0  0  0  0
    3.0390   15.0360   -0.4310 C   0  0  0  0  0  0  0  0  0  0  0  0
    2.1960   16.0220   -1.2460 C   0  0  2  0  0  0  0  0  0  0  0  0
    3.0480   16.4740   -2.4800 C   0  0  0  0  0  0  0  0  0  0  0  0
    3.3732   18.1287    1.7606 H   0  0  0  0  0  0  0  0  0  0  0  0
    3.9817   16.8926    0.6081 H   0  0  0  0  0  0  0  0  0  0  0  0
    4.6867   18.5448    0.6081 H   0  0  0  0  0  0  0  0  0  0  0  0
    3.2526   18.6213   -1.2209 H   0  0  0  0  0  0  0  0  0  0  0  0
    2.7164   20.3390    0.6804 H   0  0  0  0  0  0  0  0  0  0  0  0
    1.6162   20.1733   -0.7707 H   0  0  0  0  0  0  0  0  0  0  0  0
    0.6338   18.3742    1.1606 H   0  0  0  0  0  0  0  0  0  0  0  0
    1.0055   19.9174    2.0366 H   0  0  0  0  0  0  0  0  0  0  0  0
    0.1359   20.7161   -0.1690 H   0  0  0  0  0  0  0  0  0  0  0  0
   -1.8858   17.7758    1.7819 H   0  0  0  0  0  0  0  0  0  0  0  0
   -2.8121   17.4766    0.2722 H   0  0  0  0  0  0  0  0  0  0  0  0
   -1.0221   17.3269    0.2722 H   0  0  0  0  0  0  0  0  0  0  0  0
   -3.6011   20.3067   -0.1080 H   0  0  0  0  0  0  0  0  0  0  0  0
   -2.2817   20.6236   -1.2851 H   0  0  0  0  0  0  0  0  0  0  0  0
   -3.1235   19.0367   -1.2851 H   0  0  0  0  0  0  0  0  0  0  0  0
    1.4615   17.0509    0.5380 H   0  0  0  0  0  0  0  0  0  0  0  0
   -0.3342   18.0615   -0.7239 H   0  0  0  0  0  0  0  0  0  0  0  0
    0.7694   18.6075   -2.0046 H   0  0  0  0  0  0  0  0  0  0  0  0
   -1.0090   16.3765   -2.1832 H   0  0  0  0  0  0  0  0  0  0  0  0
    0.3249   16.6673   -3.2965 H   0  0  0  0  0  0  0  0  0  0  0  0
    0.5013   15.1755    0.5521 H   0  0  0  0  0  0  0  0  0  0  0  0
   -0.9942   15.4548   -0.4029 H   0  0  0  0  0  0  0  0  0  0  0  0
   -0.2180   13.8349   -0.4029 H   0  0  0  0  0  0  0  0  0  0  0  0
    1.5812   14.5989   -3.4203 H   0  0  0  0  0  0  0  0  0  0  0  0
   -0.9491   14.1712   -3.1830 H   0  0  0  0  0  0  0  0  0  0  0  0
    0.1415   12.9763   -4.0615 H   0  0  0  0  0  0  0  0  0  0  0  0
   -1.6857   11.9363   -2.4739 H   0  0  0  0  0  0  0  0  0  0  0  0
    1.4636   12.5887   -0.0326 H   0  0  0  0  0  0  0  0  0  0  0  0
    2.3416   10.2196   -1.7967 H   0  0  0  0  0  0  0  0  0  0  0  0
    3.3125   11.0230   -0.4845 H   0  0  0  0  0  0  0  0  0  0  0  0
    2.3329    8.8750    0.2572 H   0  0  0  0  0  0  0  0  0  0  0  0
    1.7115   10.2936    1.1889 H   0  0  0  0  0  0  0  0  0  0  0  0
   -0.1268    8.8298    0.6965 H   0  0  0  0  0  0  0  0  0  0  0  0
    0.5840    7.7220   -1.1040 H   0  0  0  0  0  0  0  0  0  0  0  0
   -0.6395   10.6144    1.8371 H   0  0  0  0  0  0  0  0  0  0  0  0
   -0.2948   12.2203    1.1096 H   0  0  0  0  0  0  0  0  0  0  0  0
   -1.9714   11.5754    1.1096 H   0  0  0  0  0  0  0  0  0  0  0  0
   -2.6594    9.8764    0.0256 H   0  0  0  0  0  0  0  0  0  0  0  0
   -2.5088   10.8928   -1.4478 H   0  0  0  0  0  0  0  0  0  0  0  0
   -1.8759    9.2117   -1.4478 H   0  0  0  0  0  0  0  0  0  0  0  0
    3.3956   11.5075   -2.8564 H   0  0  0  0  0  0  0  0  0  0  0  0
    1.9299   11.9060   -3.8154 H   0  0  0  0  0  0  0  0  0  0  0  0
    3.3350   13.0251   -3.8154 H   0  0  0  0  0  0  0  0  0  0  0  0
    3.8056   13.0361   -0.5706 H   0  0  0  0  0  0  0  0  0  0  0  0
    4.0192   14.1153   -2.0619 H   0  0  0  0  0  0  0  0  0  0  0  0
    2.4817   14.7468    0.4722 H   0  0  0  0  0  0  0  0  0  0  0  0
    3.9858   15.5252   -0.1587 H   0  0  0  0  0  0  0  0  0  0  0  0
    3.9693   16.9628   -2.1302 H   0  0  0  0  0  0  0  0  0  0  0  0
    3.3075   15.5949   -3.0882 H   0  0  0  0  0  0  0  0  0  0  0  0
    2.4656   17.1818   -3.0882 H   0  0  0  0  0  0  0  0  0  0  0  0
  1  2  1  0
  2  3  1  0
  3  4  1  0
  4  5  1  0
  5  6  1  0
  6  7  1  0
  7  8  1  0
  7  9  1  0
  2 10  1  0
 10 11  1  0
 11 12  1  0
 12 13  1  0
 13 14  1  1
 13 15  1  0
 15 16  1  0
 16 17  1  0
 17 18  2  0
 18 19  1  0
 19 20  1  0
 20 21  1  0
 21 22  1  0
 22 23  1  0
 22 24  1  0
 24 25  1  0
 24 26  1  0
 19 27  1  0
 27 28  1  6
 27 29  1  0
 29 30  1  0
 30 31  1  0
 31 32  1  6
  7  5  1  0
 31 10  1  0
 31 13  1  0
 27 15  1  0
 24 18  1  0
  1 33  1  0
  1 34  1  0
  1 35  1  0
  2 36  1  6
  3 37  1  0
  3 38  1  0
  4 39  1  0
  4 40  1  0
  5 41  1  6
  8 42  1  0
  8 43  1  0
  8 44  1  0
  9 45  1  0
  9 46  1  0
  9 47  1  0
 10 48  1  1
 11 49  1  0
 11 50  1  0
 12 51  1  0
 12 52  1  0
 14 53  1  0
 14 54  1  0
 14 55  1  0
 15 56  1  6
 16 57  1  0
 16 58  1  0
 17 59  1  0
 19 60  1  1
 20 61  1  0
 20 62  1  0
 21 63  1  0
 21 64  1  0
 22 65  1  1
 23 66  1  0
 25 67  1  0
 25 68  1  0
 25 69  1  0
 26 70  1  0
 26 71  1  0
 26 72  1  0
 28 73  1  0
 28 74  1  0
 28 75  1  0
 29 76  1  0
 29 77  1  0
 30 78  1  0
 30 79  1  0
 32 80  1  0
 32 81  1  0
 32 82  1  0
M  END
>  <meeko>  (4) 
{"is_sidechain": [false], "intermolecular_energy": 2.731, "internal_energy": -0.839}

$$$$
EPH_relaxed_0001_pdb2pqr_Repair_371_r2_0001_out
     RDKit          3D

 82 86  0  0  0  0  0  0  0  0999 V2000
    0.4340    8.7980   -2.3490 C   0  0  0  0  0  0  0  0  0  0  0  0
    1.1700    9.9380   -3.0580 C   0  0  2  0  0  0  0  0  0  0  0  0
    2.6740    9.9590   -2.7160 C   0  0  0  0  0  0  0  0  0  0  0  0
    3.5430   10.6010   -3.8010 C   0  0  0  0  0  0  0  0  0  0  0  0
    4.9440   10.8350   -3.3220 C   0  0  2  0  0  0  0  0  0  0  0  0
    5.5510   12.0370   -3.8140 O   0  0  0  0  0  0  0  0  0  0  0  0
    6.1560   10.8030   -4.2340 C   0  0  0  0  0  0  0  0  0  0  0  0
    6.0220   10.5280   -5.6990 C   0  0  0  0  0  0  0  0  0  0  0  0
    7.5010   10.5530   -3.6280 C   0  0  0  0  0  0  0  0  0  0  0  0
    0.5340   11.2740   -2.6940 C   0  0  1  0  0  0  0  0  0  0  0  0
   -0.8420   11.1090   -1.9940 C   0  0  0  0  0  0  0  0  0  0  0  0
   -0.9540   12.2530   -0.9530 C   0  0  0  0  0  0  0  0  0  0  0  0
    0.1970   13.2220   -1.3130 C   0  0  1  0  0  0  0  0  0  0  0  0
   -0.3550   14.0760   -2.4970 C   0  0  0  0  0  0  0  0  0  0  0  0
    0.7310   14.1220   -0.1510 C   0  0  2  0  0  0  0  0  0  0  0  0
   -0.2970   15.1020    0.4400 C   0  0  0  0  0  0  0  0  0  0  0  0
   -0.3400   16.4470   -0.2050 C   0  0  0  0  0  0  0  0  0  0  0  0
    0.6000   16.9520   -1.0250 C   0  0  0  0  0  0  0  0  0  0  0  0
    1.9000   16.1850   -1.3000 C   0  0  1  0  0  0  0  0  0  0  0  0
    3.1080   17.1500   -1.1760 C   0  0  0  0  0  0  0  0  0  0  0  0
    2.9620   18.3860   -2.0590 C   0  0  0  0  0  0  0  0  0  0  0  0
    1.6880   19.1540   -1.7160 C   0  0  2  0  0  0  0  0  0  0  0  0
    1.8170   19.6970   -0.3990 O   0  0  0  0  0  0  0  0  0  0  0  0
    0.4050   18.2800   -1.7980 C   0  0  0  0  0  0  0  0  0  0  0  0
    0.0990   17.9410   -3.2770 C   0  0  0  0  0  0  0  0  0  0  0  0
   -0.7880   19.1350   -1.2930 C   0  0  0  0  0  0  0  0  0  0  0  0
    2.1020   14.8450   -0.4700 C   0  0  1  0  0  0  0  0  0  0  0  0
    2.7660   15.1650    0.9050 C   0  0  0  0  0  0  0  0  0  0  0  0
    3.1070   13.9090   -1.2410 C   0  0  0  0  0  0  0  0  0  0  0  0
    2.5040   12.9580   -2.2920 C   0  0  0  0  0  0  0  0  0  0  0  0
    1.3110   12.1880   -1.7140 C   0  0  2  0  0  0  0  0  0  0  0  0
    1.8400   11.3020   -0.5350 C   0  0  0  0  0  0  0  0  0  0  0  0
    0.5182    8.9285   -1.2600 H   0  0  0  0  0  0  0  0  0  0  0  0
   -0.6271    8.8104   -2.6388 H   0  0  0  0  0  0  0  0  0  0  0  0
    0.8820    7.8361   -2.6388 H   0  0  0  0  0  0  0  0  0  0  0  0
    1.0798    9.7671   -4.1409 H   0  0  0  0  0  0  0  0  0  0  0  0
    2.8100   10.5245   -1.7824 H   0  0  0  0  0  0  0  0  0  0  0  0
    2.9972    8.9117   -2.6231 H   0  0  0  0  0  0  0  0  0  0  0  0
    3.5718    9.9344   -4.6756 H   0  0  0  0  0  0  0  0  0  0  0  0
    3.1025   11.5745   -4.0621 H   0  0  0  0  0  0  0  0  0  0  0  0
    4.7265   10.3351   -2.3666 H   0  0  0  0  0  0  0  0  0  0  0  0
    5.5445    9.5480   -5.8459 H   0  0  0  0  0  0  0  0  0  0  0  0
    5.4041   11.3104   -6.1639 H   0  0  0  0  0  0  0  0  0  0  0  0
    7.0189   10.5235   -6.1639 H   0  0  0  0  0  0  0  0  0  0  0  0
    7.4176   10.5685   -2.5313 H   0  0  0  0  0  0  0  0  0  0  0  0
    7.8730    9.5703   -3.9536 H   0  0  0  0  0  0  0  0  0  0  0  0
    8.2012   11.3364   -3.9536 H   0  0  0  0  0  0  0  0  0  0  0  0
    0.4954   11.7378   -3.6907 H   0  0  0  0  0  0  0  0  0  0  0  0
   -1.6542   11.1872   -2.7317 H   0  0  0  0  0  0  0  0  0  0  0  0
   -0.9234   10.1247   -1.5097 H   0  0  0  0  0  0  0  0  0  0  0  0
   -1.9274   12.7587   -1.0350 H   0  0  0  0  0  0  0  0  0  0  0  0
   -0.8814   11.8848    0.0810 H   0  0  0  0  0  0  0  0  0  0  0  0
   -0.9118   14.9374   -2.0995 H   0  0  0  0  0  0  0  0  0  0  0  0
    0.4832   14.4338   -3.1130 H   0  0  0  0  0  0  0  0  0  0  0  0
   -1.0254   13.4587   -3.1130 H   0  0  0  0  0  0  0  0  0  0  0  0
    0.9340   13.3879    0.6427 H   0  0  0  0  0  0  0  0  0  0  0  0
   -1.2940   14.6472    0.3444 H   0  0  0  0  0  0  0  0  0  0  0  0
    0.0109   15.2741    1.4819 H   0  0  0  0  0  0  0  0  0  0  0  0
   -1.2144   17.0795    0.0079 H   0  0  0  0  0  0  0  0  0  0  0  0
    1.8225   15.8163   -2.3335 H   0  0  0  0  0  0  0  0  0  0  0  0
    3.1950   17.4734   -0.1282 H   0  0  0  0  0  0  0  0  0  0  0  0
    4.0051   16.6066   -1.5076 H   0  0  0  0  0  0  0  0  0  0  0  0
    3.8308   19.0429   -1.9053 H   0  0  0  0  0  0  0  0  0  0  0  0
    2.9053   18.0628   -3.1089 H   0  0  0  0  0  0  0  0  0  0  0  0
    1.5723   19.9518   -2.4645 H   0  0  0  0  0  0  0  0  0  0  0  0
    2.6610   20.1780   -0.3610 H   0  0  0  0  0  0  0  0  0  0  0  0
   -0.6375   17.1251   -3.3214 H   0  0  0  0  0  0  0  0  0  0  0  0
   -0.3082   18.8303   -3.7803 H   0  0  0  0  0  0  0  0  0  0  0  0
    1.0252   17.6267   -3.7803 H   0  0  0  0  0  0  0  0  0  0  0  0
   -0.7956   19.1404   -0.1930 H   0  0  0  0  0  0  0  0  0  0  0  0
   -0.6838   20.1653   -1.6640 H   0  0  0  0  0  0  0  0  0  0  0  0
   -1.7301   18.7052   -1.6640 H   0  0  0  0  0  0  0  0  0  0  0  0
    2.0986   14.8434    1.7181 H   0  0  0  0  0  0  0  0  0  0  0  0
    3.7237   14.6295    0.9832 H   0  0  0  0  0  0  0  0  0  0  0  0
    2.9438   16.2477    0.9832 H   0  0  0  0  0  0  0  0  0  0  0  0
    3.8350   14.5540   -1.7547 H   0  0  0  0  0  0  0  0  0  0  0  0
    3.5363   13.2514   -0.4707 H   0  0  0  0  0  0  0  0  0  0  0  0
    2.1672   13.5461   -3.1585 H   0  0  0  0  0  0  0  0  0  0  0  0
    3.2755   12.2346   -2.5945 H   0  0  0  0  0  0  0  0  0  0  0  0
    1.5637   11.7647    0.4239 H   0  0  0  0  0  0  0  0  0  0  0  0
    1.3927   10.2992   -0.6006 H   0  0  0  0  0  0  0  0  0  0  0  0
    2.9350   11.2201   -0.6006 H   0  0  0  0  0  0  0  0  0  0  0  0
  1  2  1  0
  2  3  1  0
  3  4  1  0
  4  5  1  0
  5  6  1  0
  6  7  1  0
  7  8  1  0
  7  9  1  0
  2 10  1  0
 10 11  1  0
 11 12  1  0
 12 13  1  0
 13 14  1  6
 13 15  1  0
 15 16  1  0
 16 17  1  0
 17 18  2  0
 18 19  1  0
 19 20  1  0
 20 21  1  0
 21 22  1  0
 22 23  1  0
 22 24  1  0
 24 25  1  0
 24 26  1  0
 19 27  1  0
 27 28  1  1
 27 29  1  0
 29 30  1  0
 30 31  1  0
 31 32  1  1
  7  5  1  0
 31 10  1  0
 31 13  1  0
 27 15  1  0
 24 18  1  0
  1 33  1  0
  1 34  1  0
  1 35  1  0
  2 36  1  6
  3 37  1  0
  3 38  1  0
  4 39  1  0
  4 40  1  0
  5 41  1  1
  8 42  1  0
  8 43  1  0
  8 44  1  0
  9 45  1  0
  9 46  1  0
  9 47  1  0
 10 48  1  6
 11 49  1  0
 11 50  1  0
 12 51  1  0
 12 52  1  0
 14 53  1  0
 14 54  1  0
 14 55  1  0
 15 56  1  1
 16 57  1  0
 16 58  1  0
 17 59  1  0
 19 60  1  6
 20 61  1  0
 20 62  1  0
 21 63  1  0
 21 64  1  0
 22 65  1  6
 23 66  1  0
 25 67  1  0
 25 68  1  0
 25 69  1  0
 26 70  1  0
 26 71  1  0
 26 72  1  0
 28 73  1  0
 28 74  1  0
 28 75  1  0
 29 76  1  0
 29 77  1  0
 30 78  1  0
 30 79  1  0
 32 80  1  0
 32 81  1  0
 32 82  1  0
M  END
>  <meeko>  (5) 
{"is_sidechain": [false], "intermolecular_energy": 2.731, "internal_energy": -0.839}

$$$$
EPH_relaxed_0001_pdb2pqr_Repair_371_r2_0001_out
     RDKit          3D

 82 86  0  0  0  0  0  0  0  0999 V2000
    0.1110   17.7790   -2.5440 C   0  0  0  0  0  0  0  0  0  0  0  0
   -0.1390   16.8750   -1.3340 C   0  0  2  0  0  0  0  0  0  0  0  0
   -0.2100   17.6740   -0.0170 C   0  0  0  0  0  0  0  0  0  0  0  0
    0.4070   19.0710   -0.1110 C   0  0  0  0  0  0  0  0  0  0  0  0
    1.5690   19.2280    0.8230 C   0  0  2  0  0  0  0  0  0  0  0  0
    2.5490   20.1870    0.4040 O   0  0  0  0  0  0  0  0  0  0  0  0
    2.9870   18.8210    0.4690 C   0  0  0  0  0  0  0  0  0  0  0  0
    3.3190   18.2240   -0.8630 C   0  0  0  0  0  0  0  0  0  0  0  0
    3.9530   18.5500    1.5810 C   0  0  0  0  0  0  0  0  0  0  0  0
    0.9520   15.8150   -1.2420 C   0  0  1  0  0  0  0  0  0  0  0  0
    1.1680   15.3030    0.2070 C   0  0  0  0  0  0  0  0  0  0  0  0
    1.5280   13.7990    0.1010 C   0  0  0  0  0  0  0  0  0  0  0  0
    1.8330   13.5750   -1.3980 C   0  0  1  0  0  0  0  0  0  0  0  0
    3.3010   14.0700   -1.5880 C   0  0  0  0  0  0  0  0  0  0  0  0
    1.6410   12.1190   -1.9330 C   0  0  2  0  0  0  0  0  0  0  0  0
    2.5580   11.0620   -1.2920 C   0  0  0  0  0  0  0  0  0  0  0  0
    3.8620   10.8450   -1.9860 C   0  0  0  0  0  0  0  0  0  0  0  0
    4.1640   11.2580   -3.2310 C   0  0  0  0  0  0  0  0  0  0  0  0
    3.1080   11.9370   -4.1130 C   0  0  1  0  0  0  0  0  0  0  0  0
    3.1430   11.3150   -5.5340 C   0  0  0  0  0  0  0  0  0  0  0  0
    4.5350   11.3540   -6.1550 C   0  0  0  0  0  0  0  0  0  0  0  0
    5.5450   10.6190   -5.2780 C   0  0  2  0  0  0  0  0  0  0  0  0
    5.2210    9.2250   -5.2700 O   0  0  0  0  0  0  0  0  0  0  0  0
    5.5920   11.1530   -3.8190 C   0  0  0  0  0  0  0  0  0  0  0  0
    6.2310   12.5640   -3.8010 C   0  0  0  0  0  0  0  0  0  0  0  0
    6.5450   10.2350   -3.0050 C   0  0  0  0  0  0  0  0  0  0  0  0
    1.6390   12.0020   -3.5110 C   0  0  1  0  0  0  0  0  0  0  0  0
    0.8630   10.6950   -3.8600 C   0  0  0  0  0  0  0  0  0  0  0  0
    0.8530   13.1810   -4.1970 C   0  0  0  0  0  0  0  0  0  0  0  0
    0.9880   14.5740   -3.5520 C   0  0  0  0  0  0  0  0  0  0  0  0
    0.7400   14.5050   -2.0420 C   0  0  2  0  0  0  0  0  0  0  0  0
   -0.7370   14.0320   -1.8210 C   0  0  0  0  0  0  0  0  0  0  0  0
    0.3894   18.7855   -2.1984 H   0  0  0  0  0  0  0  0  0  0  0  0
    0.9273   17.3611   -3.1515 H   0  0  0  0  0  0  0  0  0  0  0  0
   -0.8040   17.8399   -3.1515 H   0  0  0  0  0  0  0  0  0  0  0  0
   -1.1159   16.3907   -1.4795 H   0  0  0  0  0  0  0  0  0  0  0  0
   -1.2670   17.7797    0.2685 H   0  0  0  0  0  0  0  0  0  0  0  0
    0.3726   17.1149    0.7300 H   0  0  0  0  0  0  0  0  0  0  0  0
    0.7528   19.2394   -1.1416 H   0  0  0  0  0  0  0  0  0  0  0  0
   -0.3618   19.8051    0.1718 H   0  0  0  0  0  0  0  0  0  0  0  0
    0.9317   19.0043    1.6913 H   0  0  0  0  0  0  0  0  0  0  0  0
    3.8488   17.2713   -0.7160 H   0  0  0  0  0  0  0  0  0  0  0  0
    2.3911   18.0445   -1.4259 H   0  0  0  0  0  0  0  0  0  0  0  0
    3.9610   18.9175   -1.4259 H   0  0  0  0  0  0  0  0  0  0  0  0
    3.4481   18.6916    2.5480 H   0  0  0  0  0  0  0  0  0  0  0  0
    4.3176   17.5149    1.5059 H   0  0  0  0  0  0  0  0  0  0  0  0
    4.8028   19.2444    1.5059 H   0  0  0  0  0  0  0  0  0  0  0  0
    1.7951   16.3818   -1.6638 H   0  0  0  0  0  0  0  0  0  0  0  0
    1.9894   15.8563    0.6857 H   0  0  0  0  0  0  0  0  0  0  0  0
    0.2645   15.4508    0.8168 H   0  0  0  0  0  0  0  0  0  0  0  0
    2.4102   13.5667    0.7156 H   0  0  0  0  0  0  0  0  0  0  0  0
    0.7172   13.1497    0.4630 H   0  0  0  0  0  0  0  0  0  0  0  0
    3.7655   14.2266   -0.6033 H   0  0  0  0  0  0  0  0  0  0  0  0
    3.8730   13.3151   -2.1473 H   0  0  0  0  0  0  0  0  0  0  0  0
    3.2991   15.0172   -2.1473 H   0  0  0  0  0  0  0  0  0  0  0  0
    0.6229   11.8765   -1.5945 H   0  0  0  0  0  0  0  0  0  0  0  0
    2.7705   11.3771   -0.2597 H   0  0  0  0  0  0  0  0  0  0  0  0
    2.0152   10.1075   -1.3579 H   0  0  0  0  0  0  0  0  0  0  0  0
    4.6422   10.3015   -1.4329 H   0  0  0  0  0  0  0  0  0  0  0  0
    3.3908   12.9988   -4.1631 H   0  0  0  0  0  0  0  0  0  0  0  0
    2.8154   10.2670   -5.4684 H   0  0  0  0  0  0  0  0  0  0  0  0
    2.4746   11.9087   -6.1750 H   0  0  0  0  0  0  0  0  0  0  0  0
    4.5013   10.8744   -7.1444 H   0  0  0  0  0  0  0  0  0  0  0  0
    4.8489   12.4043   -6.2468 H   0  0  0  0  0  0  0  0  0  0  0  0
    6.5426   10.7922   -5.7078 H   0  0  0  0  0  0  0  0  0  0  0  0
    4.3270    9.1330   -4.8980 H   0  0  0  0  0  0  0  0  0  0  0  0
    6.3773   12.8870   -2.7597 H   0  0  0  0  0  0  0  0  0  0  0  0
    7.2029   12.5330   -4.3153 H   0  0  0  0  0  0  0  0  0  0  0  0
    5.5666   13.2740   -4.3153 H   0  0  0  0  0  0  0  0  0  0  0  0
    6.3786   10.3953   -1.9295 H   0  0  0  0  0  0  0  0  0  0  0  0
    6.3425    9.1830   -3.2545 H   0  0  0  0  0  0  0  0  0  0  0  0
    7.5887   10.4767   -3.2545 H   0  0  0  0  0  0  0  0  0  0  0  0
    0.5621   10.1882   -2.9313 H   0  0  0  0  0  0  0  0  0  0  0  0
   -0.0325   10.9460   -4.4474 H   0  0  0  0  0  0  0  0  0  0  0  0
    1.5121   10.0290   -4.4474 H   0  0  0  0  0  0  0  0  0  0  0  0
    1.2091   13.2589   -5.2348 H   0  0  0  0  0  0  0  0  0  0  0  0
   -0.2099   12.9174   -4.0929 H   0  0  0  0  0  0  0  0  0  0  0  0
    2.0030   14.9575   -3.7329 H   0  0  0  0  0  0  0  0  0  0  0  0
    0.2384   15.2425   -4.0005 H   0  0  0  0  0  0  0  0  0  0  0  0
   -0.9434   13.9659   -0.7426 H   0  0  0  0  0  0  0  0  0  0  0  0
   -1.4263   14.7543   -2.2826 H   0  0  0  0  0  0  0  0  0  0  0  0
   -0.8785   13.0436   -2.2826 H   0  0  0  0  0  0  0  0  0  0  0  0
  1  2  1  0
  2  3  1  0
  3  4  1  0
  4  5  1  0
  5  6  1  0
  6  7  1  0
  7  8  1  0
  7  9  1  0
  2 10  1  0
 10 11  1  0
 11 12  1  0
 12 13  1  0
 13 14  1  1
 13 15  1  0
 15 16  1  0
 16 17  1  0
 17 18  2  0
 18 19  1  0
 19 20  1  0
 20 21  1  0
 21 22  1  0
 22 23  1  0
 22 24  1  0
 24 25  1  0
 24 26  1  0
 19 27  1  0
 27 28  1  1
 27 29  1  0
 29 30  1  0
 30 31  1  0
 31 32  1  6
  7  5  1  0
 31 10  1  0
 31 13  1  0
 27 15  1  0
 24 18  1  0
  1 33  1  0
  1 34  1  0
  1 35  1  0
  2 36  1  6
  3 37  1  0
  3 38  1  0
  4 39  1  0
  4 40  1  0
  5 41  1  1
  8 42  1  0
  8 43  1  0
  8 44  1  0
  9 45  1  0
  9 46  1  0
  9 47  1  0
 10 48  1  6
 11 49  1  0
 11 50  1  0
 12 51  1  0
 12 52  1  0
 14 53  1  0
 14 54  1  0
 14 55  1  0
 15 56  1  1
 16 57  1  0
 16 58  1  0
 17 59  1  0
 19 60  1  6
 20 61  1  0
 20 62  1  0
 21 63  1  0
 21 64  1  0
 22 65  1  6
 23 66  1  0
 25 67  1  0
 25 68  1  0
 25 69  1  0
 26 70  1  0
 26 71  1  0
 26 72  1  0
 28 73  1  0
 28 74  1  0
 28 75  1  0
 29 76  1  0
 29 77  1  0
 30 78  1  0
 30 79  1  0
 32 80  1  0
 32 81  1  0
 32 82  1  0
M  END
>  <meeko>  (6) 
{"is_sidechain": [false], "intermolecular_energy": 2.731, "internal_energy": -0.839}

$$$$
EPH_relaxed_0001_pdb2pqr_Repair_371_r2_0001_out
     RDKit          3D

 82 86  0  0  0  0  0  0  0  0999 V2000
   -0.9240   16.3920   -5.8780 C   0  0  0  0  0  0  0  0  0  0  0  0
    0.1780   15.6970   -6.6820 C   0  0  2  0  0  0  0  0  0  0  0  0
   -0.2150   15.5030   -8.1600 C   0  0  0  0  0  0  0  0  0  0  0  0
    0.4410   16.5110   -9.1080 C   0  0  0  0  0  0  0  0  0  0  0  0
    1.8450   16.1160   -9.4510 C   0  0  2  0  0  0  0  0  0  0  0  0
    2.3440   16.6790  -10.6720 O   0  0  0  0  0  0  0  0  0  0  0  0
    2.2040   15.2490  -10.6430 C   0  0  0  0  0  0  0  0  0  0  0  0
    1.1520   14.7220  -11.5690 C   0  0  0  0  0  0  0  0  0  0  0  0
    3.5080   14.5150  -10.6280 C   0  0  0  0  0  0  0  0  0  0  0  0
    0.5120   14.3510   -6.0500 C   0  0  1  0  0  0  0  0  0  0  0  0
    1.7440   13.6720   -6.7060 C   0  0  0  0  0  0  0  0  0  0  0  0
    2.4930   12.9180   -5.5770 C   0  0  0  0  0  0  0  0  0  0  0  0
    1.5010   12.9080   -4.3900 C   0  0  1  0  0  0  0  0  0  0  0  0
    0.5210   11.7330   -4.6970 C   0  0  0  0  0  0  0  0  0  0  0  0
    2.1310   12.7770   -2.9650 C   0  0  2  0  0  0  0  0  0  0  0  0
    2.9000   11.4700   -2.7090 C   0  0  0  0  0  0  0  0  0  0  0  0
    2.0870   10.3510   -2.1460 C   0  0  0  0  0  0  0  0  0  0  0  0
    0.8660   10.4740   -1.5920 C   0  0  0  0  0  0  0  0  0  0  0  0
    0.2220   11.8530   -1.4020 C   0  0  1  0  0  0  0  0  0  0  0  0
   -0.3650   11.9580    0.0300 C   0  0  0  0  0  0  0  0  0  0  0  0
   -1.3240   10.8170    0.3540 C   0  0  0  0  0  0  0  0  0  0  0  0
   -0.6310    9.4640    0.2110 C   0  0  2  0  0  0  0  0  0  0  0  0
    0.3760    9.3530    1.2210 O   0  0  0  0  0  0  0  0  0  0  0  0
    0.0080    9.2490   -1.1900 C   0  0  0  0  0  0  0  0  0  0  0  0
   -1.1080    9.0680   -2.2490 C   0  0  0  0  0  0  0  0  0  0  0  0
    0.7940    7.9110   -1.1550 C   0  0  0  0  0  0  0  0  0  0  0  0
    1.1300   13.1010   -1.7830 C   0  0  1  0  0  0  0  0  0  0  0  0
    2.0040   13.5150   -0.5600 C   0  0  0  0  0  0  0  0  0  0  0  0
    0.2030   14.3330   -2.1030 C   0  0  0  0  0  0  0  0  0  0  0  0
   -0.2890   14.4730   -3.5560 C   0  0  0  0  0  0  0  0  0  0  0  0
    0.8740   14.3420   -4.5440 C   0  0  2  0  0  0  0  0  0  0  0  0
    1.8670   15.5230   -4.2740 C   0  0  0  0  0  0  0  0  0  0  0  0
   -0.7273   16.2679   -4.8029 H   0  0  0  0  0  0  0  0  0  0  0  0
   -0.9392   17.4634   -6.1267 H   0  0  0  0  0  0  0  0  0  0  0  0
   -1.8974   15.9440   -6.1267 H   0  0  0  0  0  0  0  0  0  0  0  0
    1.0643   16.3481   -6.6598 H   0  0  0  0  0  0  0  0  0  0  0  0
    0.0836   14.4904   -8.4689 H   0  0  0  0  0  0  0  0  0  0  0  0
   -1.3019   15.6584   -8.2270 H   0  0  0  0  0  0  0  0  0  0  0  0
   -0.1501   16.5665  -10.0340 H   0  0  0  0  0  0  0  0  0  0  0  0
    0.4731   17.4872   -8.6020 H   0  0  0  0  0  0  0  0  0  0  0  0
    2.1116   16.0519   -8.3857 H   0  0  0  0  0  0  0  0  0  0  0  0
    0.3209   14.3057  -10.9808 H   0  0  0  0  0  0  0  0  0  0  0  0
    0.7788   15.5396  -12.2033 H   0  0  0  0  0  0  0  0  0  0  0  0
    1.5834   13.9336  -12.2033 H   0  0  0  0  0  0  0  0  0  0  0  0
    3.8184   14.3403   -9.5873 H   0  0  0  0  0  0  0  0  0  0  0  0
    3.3915   13.5499  -11.1428 H   0  0  0  0  0  0  0  0  0  0  0  0
    4.2726   15.1153  -11.1428 H   0  0  0  0  0  0  0  0  0  0  0  0
   -0.4439   13.8307   -6.2096 H   0  0  0  0  0  0  0  0  0  0  0  0
    1.4178   12.9644   -7.4825 H   0  0  0  0  0  0  0  0  0  0  0  0
    2.3972   14.4165   -7.1846 H   0  0  0  0  0  0  0  0  0  0  0  0
    2.7349   11.8915   -5.8897 H   0  0  0  0  0  0  0  0  0  0  0  0
    3.4487   13.3971   -5.3180 H   0  0  0  0  0  0  0  0  0  0  0  0
    0.1601   11.3002   -3.7523 H   0  0  0  0  0  0  0  0  0  0  0  0
   -0.3337   12.1105   -5.2775 H   0  0  0  0  0  0  0  0  0  0  0  0
    1.0458   10.9600   -5.2775 H   0  0  0  0  0  0  0  0  0  0  0  0
    2.8903   13.5729   -2.9679 H   0  0  0  0  0  0  0  0  0  0  0  0
    3.3254   11.1330   -3.6658 H   0  0  0  0  0  0  0  0  0  0  0  0
    3.6586   11.7074   -1.9486 H   0  0  0  0  0  0  0  0  0  0  0  0
    2.5222    9.3416   -2.1874 H   0  0  0  0  0  0  0  0  0  0  0  0
   -0.5889   11.9143   -2.1427 H   0  0  0  0  0  0  0  0  0  0  0  0
    0.4637   11.9383    0.7531 H   0  0  0  0  0  0  0  0  0  0  0  0
   -0.9324   12.8984    0.0902 H   0  0  0  0  0  0  0  0  0  0  0  0
   -1.6822   10.9305    1.3878 H   0  0  0  0  0  0  0  0  0  0  0  0
   -2.1669   10.8559   -0.3517 H   0  0  0  0  0  0  0  0  0  0  0  0
   -1.3990    8.6853    0.3288 H   0  0  0  0  0  0  0  0  0  0  0  0
   -0.0720    9.3410    2.0830 H   0  0  0  0  0  0  0  0  0  0  0  0
   -2.0720    8.9117   -1.7428 H   0  0  0  0  0  0  0  0  0  0  0  0
   -1.1660    9.9685   -2.8781 H   0  0  0  0  0  0  0  0  0  0  0  0
   -0.8784    8.1953   -2.8781 H   0  0  0  0  0  0  0  0  0  0  0  0
    0.9678    7.6151   -0.1099 H   0  0  0  0  0  0  0  0  0  0  0  0
    0.2112    7.1299   -1.6651 H   0  0  0  0  0  0  0  0  0  0  0  0
    1.7600    8.0398   -1.6651 H   0  0  0  0  0  0  0  0  0  0  0  0
    1.4744   13.2641    0.3709 H   0  0  0  0  0  0  0  0  0  0  0  0
    2.9616   12.9748   -0.5940 H   0  0  0  0  0  0  0  0  0  0  0  0
    2.1926   14.5982   -0.5940 H   0  0  0  0  0  0  0  0  0  0  0  0
   -0.6842   14.2586   -1.4569 H   0  0  0  0  0  0  0  0  0  0  0  0
    0.8300   15.2190   -1.9248 H   0  0  0  0  0  0  0  0  0  0  0  0
   -1.0277   13.6847   -3.7633 H   0  0  0  0  0  0  0  0  0  0  0  0
   -0.7425   15.4677   -3.6783 H   0  0  0  0  0  0  0  0  0  0  0  0
    1.9844   15.6626   -3.1892 H   0  0  0  0  0  0  0  0  0  0  0  0
    2.8444   15.2899   -4.7216 H   0  0  0  0  0  0  0  0  0  0  0  0
    1.4695   16.4459   -4.7216 H   0  0  0  0  0  0  0  0  0  0  0  0
  1  2  1  0
  2  3  1  0
  3  4  1  0
  4  5  1  0
  5  6  1  0
  6  7  1  0
  7  8  1  0
  7  9  1  0
  2 10  1  0
 10 11  1  0
 11 12  1  0
 12 13  1  0
 13 14  1  6
 13 15  1  0
 15 16  1  0
 16 17  1  0
 17 18  2  0
 18 19  1  0
 19 20  1  0
 20 21  1  0
 21 22  1  0
 22 23  1  0
 22 24  1  0
 24 25  1  0
 24 26  1  0
 19 27  1  0
 27 28  1  1
 27 29  1  0
 29 30  1  0
 30 31  1  0
 31 32  1  6
  7  5  1  0
 31 10  1  0
 31 13  1  0
 27 15  1  0
 24 18  1  0
  1 33  1  0
  1 34  1  0
  1 35  1  0
  2 36  1  6
  3 37  1  0
  3 38  1  0
  4 39  1  0
  4 40  1  0
  5 41  1  1
  8 42  1  0
  8 43  1  0
  8 44  1  0
  9 45  1  0
  9 46  1  0
  9 47  1  0
 10 48  1  1
 11 49  1  0
 11 50  1  0
 12 51  1  0
 12 52  1  0
 14 53  1  0
 14 54  1  0
 14 55  1  0
 15 56  1  6
 16 57  1  0
 16 58  1  0
 17 59  1  0
 19 60  1  6
 20 61  1  0
 20 62  1  0
 21 63  1  0
 21 64  1  0
 22 65  1  1
 23 66  1  0
 25 67  1  0
 25 68  1  0
 25 69  1  0
 26 70  1  0
 26 71  1  0
 26 72  1  0
 28 73  1  0
 28 74  1  0
 28 75  1  0
 29 76  1  0
 29 77  1  0
 30 78  1  0
 30 79  1  0
 32 80  1  0
 32 81  1  0
 32 82  1  0
M  END
>  <meeko>  (7) 
{"is_sidechain": [false], "intermolecular_energy": 2.731, "internal_energy": -0.839}

$$$$
EPH_relaxed_0001_pdb2pqr_Repair_371_r2_0001_out
     RDKit          3D

 82 86  0  0  0  0  0  0  0  0999 V2000
   -0.0060    9.3770   -2.4690 C   0  0  0  0  0  0  0  0  0  0  0  0
    1.0980   10.3570   -2.8770 C   0  0  2  0  0  0  0  0  0  0  0  0
    2.4840    9.6850   -2.9230 C   0  0  0  0  0  0  0  0  0  0  0  0
    3.4620   10.3560   -3.8910 C   0  0  0  0  0  0  0  0  0  0  0  0
    4.8450   10.4330   -3.3190 C   0  0  2  0  0  0  0  0  0  0  0  0
    5.4060   11.7510   -3.2840 O   0  0  0  0  0  0  0  0  0  0  0  0
    6.0690   10.8020   -4.1350 C   0  0  0  0  0  0  0  0  0  0  0  0
    5.9670   11.1190   -5.5950 C   0  0  0  0  0  0  0  0  0  0  0  0
    7.4160   10.3820   -3.6360 C   0  0  0  0  0  0  0  0  0  0  0  0
    1.1230   11.5400   -1.9150 C   0  0  1  0  0  0  0  0  0  0  0  0
    2.1870   11.3770   -0.7970 C   0  0  0  0  0  0  0  0  0  0  0  0
    2.7400   12.7940   -0.4960 C   0  0  0  0  0  0  0  0  0  0  0  0
    1.7550   13.7550   -1.2020 C   0  0  1  0  0  0  0  0  0  0  0  0
    0.5470   13.8820   -0.2230 C   0  0  0  0  0  0  0  0  0  0  0  0
    2.3230   15.1550   -1.6020 C   0  0  2  0  0  0  0  0  0  0  0  0
    2.7870   16.0320   -0.4260 C   0  0  0  0  0  0  0  0  0  0  0  0
    1.7440   16.9310    0.1490 C   0  0  0  0  0  0  0  0  0  0  0  0
    0.5720   17.2440   -0.4350 C   0  0  0  0  0  0  0  0  0  0  0  0
    0.2400   16.7490   -1.8490 C   0  0  1  0  0  0  0  0  0  0  0  0
   -0.3270   17.9240   -2.6880 C   0  0  0  0  0  0  0  0  0  0  0  0
   -1.5150   18.6040   -2.0140 C   0  0  0  0  0  0  0  0  0  0  0  0
   -1.1300   19.1330   -0.6350 C   0  0  2  0  0  0  0  0  0  0  0  0
   -0.1840   20.1940   -0.7960 O   0  0  0  0  0  0  0  0  0  0  0  0
   -0.5360   18.0400    0.2970 C   0  0  0  0  0  0  0  0  0  0  0  0
   -1.6510   17.0500    0.7150 C   0  0  0  0  0  0  0  0  0  0  0  0
   -0.0600   18.7330    1.6020 C   0  0  0  0  0  0  0  0  0  0  0  0
    1.4020   15.9680   -2.6000 C   0  0  1  0  0  0  0  0  0  0  0  0
    2.3310   16.9780   -3.3410 C   0  0  0  0  0  0  0  0  0  0  0  0
    0.7690   15.0500   -3.7120 C   0  0  0  0  0  0  0  0  0  0  0  0
    0.3370   13.6350   -3.2820 C   0  0  0  0  0  0  0  0  0  0  0  0
    1.4560   12.9320   -2.5080 C   0  0  2  0  0  0  0  0  0  0  0  0
    2.6780   12.7700   -3.4750 C   0  0  0  0  0  0  0  0  0  0  0  0
   -0.0637    9.3258   -1.3717 H   0  0  0  0  0  0  0  0  0  0  0  0
   -0.9699    9.7224   -2.8711 H   0  0  0  0  0  0  0  0  0  0  0  0
    0.2226    8.3790   -2.8711 H   0  0  0  0  0  0  0  0  0  0  0  0
    0.8694   10.7089   -3.8938 H   0  0  0  0  0  0  0  0  0  0  0  0
    2.9187    9.7163   -1.9130 H   0  0  0  0  0  0  0  0  0  0  0  0
    2.3307    8.6568   -3.2826 H   0  0  0  0  0  0  0  0  0  0  0  0
    3.4944    9.7749   -4.8244 H   0  0  0  0  0  0  0  0  0  0  0  0
    3.1106   11.3818   -4.0764 H   0  0  0  0  0  0  0  0  0  0  0  0
    4.6364    9.5918   -2.6416 H   0  0  0  0  0  0  0  0  0  0  0  0
    5.6323   12.1591   -5.7219 H   0  0  0  0  0  0  0  0  0  0  0  0
    6.9519   10.9905   -6.0678 H   0  0  0  0  0  0  0  0  0  0  0  0
    5.2419   10.4403   -6.0678 H   0  0  0  0  0  0  0  0  0  0  0  0
    7.4159   10.3820   -2.5360 H   0  0  0  0  0  0  0  0  0  0  0  0
    7.6437    9.3702   -4.0026 H   0  0  0  0  0  0  0  0  0  0  0  0
    8.1784   11.0851   -4.0026 H   0  0  0  0  0  0  0  0  0  0  0  0
    0.0791   11.5191   -1.5688 H   0  0  0  0  0  0  0  0  0  0  0  0
    1.7255   10.9508    0.1060 H   0  0  0  0  0  0  0  0  0  0  0  0
    2.9922   10.6978   -1.1139 H   0  0  0  0  0  0  0  0  0  0  0  0
    2.7568   12.9822    0.5876 H   0  0  0  0  0  0  0  0  0  0  0  0
    3.7737   12.9223   -0.8495 H   0  0  0  0  0  0  0  0  0  0  0  0
    0.9103   13.8438    0.8146 H   0  0  0  0  0  0  0  0  0  0  0  0
    0.0334   14.8391   -0.3966 H   0  0  0  0  0  0  0  0  0  0  0  0
   -0.1544   13.0526   -0.3966 H   0  0  0  0  0  0  0  0  0  0  0  0
    3.2360   14.8886   -2.1547 H   0  0  0  0  0  0  0  0  0  0  0  0
    3.1414   15.3666    0.3751 H   0  0  0  0  0  0  0  0  0  0  0  0
    3.5693   16.6921   -0.8288 H   0  0  0  0  0  0  0  0  0  0  0  0
    1.9502   17.3758    1.1337 H   0  0  0  0  0  0  0  0  0  0  0  0
   -0.5289   15.9718   -1.7274 H   0  0  0  0  0  0  0  0  0  0  0  0
    0.4690   18.6689   -2.8348 H   0  0  0  0  0  0  0  0  0  0  0  0
   -0.6773   17.5119   -3.6459 H   0  0  0  0  0  0  0  0  0  0  0  0
   -1.8524   19.4431   -2.6402 H   0  0  0  0  0  0  0  0  0  0  0  0
   -2.3211   17.8652   -1.8943 H   0  0  0  0  0  0  0  0  0  0  0  0
   -2.0503   19.4914   -0.1506 H   0  0  0  0  0  0  0  0  0  0  0  0
   -0.6150   20.8980   -1.3100 H   0  0  0  0  0  0  0  0  0  0  0  0
   -1.7057   17.0015    1.8126 H   0  0  0  0  0  0  0  0  0  0  0  0
   -2.6160   17.3943    0.3147 H   0  0  0  0  0  0  0  0  0  0  0  0
   -1.4234   16.0510    0.3147 H   0  0  0  0  0  0  0  0  0  0  0  0
   -0.4412   18.1780    2.4719 H   0  0  0  0  0  0  0  0  0  0  0  0
    1.0396   18.7475    1.6294 H   0  0  0  0  0  0  0  0  0  0  0  0
   -0.4411   19.7645    1.6294 H   0  0  0  0  0  0  0  0  0  0  0  0
    2.8830   17.5781   -2.6027 H   0  0  0  0  0  0  0  0  0  0  0  0
    3.0437   16.4261   -3.9715 H   0  0  0  0  0  0  0  0  0  0  0  0
    1.7216   17.6422   -3.9715 H   0  0  0  0  0  0  0  0  0  0  0  0
   -0.1210   15.5655   -4.1021 H   0  0  0  0  0  0  0  0  0  0  0  0
    1.5715   14.8946   -4.4481 H   0  0  0  0  0  0  0  0  0  0  0  0
   -0.5528   13.7100   -2.6396 H   0  0  0  0  0  0  0  0  0  0  0  0
    0.1119   13.0475   -4.1843 H   0  0  0  0  0  0  0  0  0  0  0  0
    3.5985   12.6480   -2.8853 H   0  0  0  0  0  0  0  0  0  0  0  0
    2.5287   11.8838   -4.1093 H   0  0  0  0  0  0  0  0  0  0  0  0
    2.7647   13.6645   -4.1093 H   0  0  0  0  0  0  0  0  0  0  0  0
  1  2  1  0
  2  3  1  0
  3  4  1  0
  4  5  1  0
  5  6  1  0
  6  7  1  0
  7  8  1  0
  7  9  1  0
  2 10  1  0
 10 11  1  0
 11 12  1  0
 12 13  1  0
 13 14  1  1
 13 15  1  0
 15 16  1  0
 16 17  1  0
 17 18  2  0
 18 19  1  0
 19 20  1  0
 20 21  1  0
 21 22  1  0
 22 23  1  0
 22 24  1  0
 24 25  1  0
 24 26  1  0
 19 27  1  0
 27 28  1  6
 27 29  1  0
 29 30  1  0
 30 31  1  0
 31 32  1  6
  7  5  1  0
 31 10  1  0
 31 13  1  0
 27 15  1  0
 24 18  1  0
  1 33  1  0
  1 34  1  0
  1 35  1  0
  2 36  1  6
  3 37  1  0
  3 38  1  0
  4 39  1  0
  4 40  1  0
  5 41  1  1
  8 42  1  0
  8 43  1  0
  8 44  1  0
  9 45  1  0
  9 46  1  0
  9 47  1  0
 10 48  1  1
 11 49  1  0
 11 50  1  0
 12 51  1  0
 12 52  1  0
 14 53  1  0
 14 54  1  0
 14 55  1  0
 15 56  1  6
 16 57  1  0
 16 58  1  0
 17 59  1  0
 19 60  1  1
 20 61  1  0
 20 62  1  0
 21 63  1  0
 21 64  1  0
 22 65  1  1
 23 66  1  0
 25 67  1  0
 25 68  1  0
 25 69  1  0
 26 70  1  0
 26 71  1  0
 26 72  1  0
 28 73  1  0
 28 74  1  0
 28 75  1  0
 29 76  1  0
 29 77  1  0
 30 78  1  0
 30 79  1  0
 32 80  1  0
 32 81  1  0
 32 82  1  0
M  END
>  <meeko>  (8) 
{"is_sidechain": [false], "intermolecular_energy": 2.731, "internal_energy": -0.839}

$$$$
EPH_relaxed_0001_pdb2pqr_Repair_371_r2_0001_out
     RDKit          3D

 82 86  0  0  0  0  0  0  0  0999 V2000
   -4.0300    7.3920   -3.5890 C   0  0  0  0  0  0  0  0  0  0  0  0
   -3.6420    7.2840   -2.1120 C   0  0  2  0  0  0  0  0  0  0  0  0
   -4.8170    6.8020   -1.2370 C   0  0  0  0  0  0  0  0  0  0  0  0
   -5.9310    6.1110   -2.0290 C   0  0  0  0  0  0  0  0  0  0  0  0
   -7.2880    6.5780   -1.5990 C   0  0  2  0  0  0  0  0  0  0  0  0
   -8.2640    5.5370   -1.4620 O   0  0  0  0  0  0  0  0  0  0  0  0
   -8.5170    6.5110   -2.4870 C   0  0  0  0  0  0  0  0  0  0  0  0
   -8.4440    5.9630   -3.8780 C   0  0  0  0  0  0  0  0  0  0  0  0
   -9.6680    7.4190   -2.1860 C   0  0  0  0  0  0  0  0  0  0  0  0
   -3.1360    8.6300   -1.6070 C   0  0  1  0  0  0  0  0  0  0  0  0
   -3.8070    9.0600   -0.2750 C   0  0  0  0  0  0  0  0  0  0  0  0
   -2.7300    9.8180    0.5440 C   0  0  0  0  0  0  0  0  0  0  0  0
   -1.5910   10.0880   -0.4670 C   0  0  1  0  0  0  0  0  0  0  0  0
   -2.0520   11.3490   -1.2640 C   0  0  0  0  0  0  0  0  0  0  0  0
   -0.1620   10.2790    0.1380 C   0  0  2  0  0  0  0  0  0  0  0  0
   -0.0070   11.4880    1.0770 C   0  0  0  0  0  0  0  0  0  0  0  0
    0.4090   12.7610    0.4160 C   0  0  0  0  0  0  0  0  0  0  0  0
    0.9230   12.8660   -0.8240 C   0  0  0  0  0  0  0  0  0  0  0  0
    1.2230   11.6160   -1.6610 C   0  0  1  0  0  0  0  0  0  0  0  0
    2.6340   11.7440   -2.2930 C   0  0  0  0  0  0  0  0  0  0  0  0
    2.8040   13.0340   -3.0890 C   0  0  0  0  0  0  0  0  0  0  0  0
    2.5540   14.2550   -2.2080 C   0  0  2  0  0  0  0  0  0  0  0  0
    3.5880   14.3320   -1.2220 O   0  0  0  0  0  0  0  0  0  0  0  0
    1.1660   14.2330   -1.5100 C   0  0  0  0  0  0  0  0  0  0  0  0
    0.0500   14.4540   -2.5610 C   0  0  0  0  0  0  0  0  0  0  0  0
    1.0980   15.4460   -0.5430 C   0  0  0  0  0  0  0  0  0  0  0  0
    1.0060   10.2230   -0.9280 C   0  0  1  0  0  0  0  0  0  0  0  0
    2.2980    9.8220   -0.1530 C   0  0  0  0  0  0  0  0  0  0  0  0
    0.7740    9.1040   -2.0110 C   0  0  0  0  0  0  0  0  0  0  0  0
   -0.6760    8.8820   -2.4810 C   0  0  0  0  0  0  0  0  0  0  0  0
   -1.6250    8.7470   -1.2860 C   0  0  2  0  0  0  0  0  0  0  0  0
   -1.1990    7.4740   -0.4780 C   0  0  0  0  0  0  0  0  0  0  0  0
   -5.0868    7.6862   -3.6699 H   0  0  0  0  0  0  0  0  0  0  0  0
   -3.4001    8.1490   -4.0792 H   0  0  0  0  0  0  0  0  0  0  0  0
   -3.8818    6.4185   -4.0792 H   0  0  0  0  0  0  0  0  0  0  0  0
   -2.8418    6.5332   -2.0346 H   0  0  0  0  0  0  0  0  0  0  0  0
   -4.4275    6.0914   -0.4932 H   0  0  0  0  0  0  0  0  0  0  0  0
   -5.2595    7.6954   -0.7722 H   0  0  0  0  0  0  0  0  0  0  0  0
   -5.7994    6.3340   -3.0981 H   0  0  0  0  0  0  0  0  0  0  0  0
   -5.8651    5.0292   -1.8411 H   0  0  0  0  0  0  0  0  0  0  0  0
   -6.8457    7.3963   -1.0118 H   0  0  0  0  0  0  0  0  0  0  0  0
   -8.2989    4.8734   -3.8357 H   0  0  0  0  0  0  0  0  0  0  0  0
   -9.3800    6.1878   -4.4103 H   0  0  0  0  0  0  0  0  0  0  0  0
   -7.5995    6.4250   -4.4103 H   0  0  0  0  0  0  0  0  0  0  0  0
   -9.7862    7.5123   -1.0964 H   0  0  0  0  0  0  0  0  0  0  0  0
   -9.4756    8.4112   -2.6202 H   0  0  0  0  0  0  0  0  0  0  0  0
  -10.5881    7.0009   -2.6202 H   0  0  0  0  0  0  0  0  0  0  0  0
   -3.3857    9.2576   -2.4752 H   0  0  0  0  0  0  0  0  0  0  0  0
   -4.6630    9.7204   -0.4779 H   0  0  0  0  0  0  0  0  0  0  0  0
   -4.1819    8.1865    0.2785 H   0  0  0  0  0  0  0  0  0  0  0  0
   -3.1338   10.7632    0.9359 H   0  0  0  0  0  0  0  0  0  0  0  0
   -2.3865    9.2422    1.4160 H   0  0  0  0  0  0  0  0  0  0  0  0
   -2.3420   12.1423   -0.5594 H   0  0  0  0  0  0  0  0  0  0  0  0
   -1.2258   11.7049   -1.8971 H   0  0  0  0  0  0  0  0  0  0  0  0
   -2.9129   11.0881   -1.8971 H   0  0  0  0  0  0  0  0  0  0  0  0
   -0.0557    9.3892    0.7759 H   0  0  0  0  0  0  0  0  0  0  0  0
   -0.9750   11.6617    1.5699 H   0  0  0  0  0  0  0  0  0  0  0  0
    0.8030   11.2290    1.7747 H   0  0  0  0  0  0  0  0  0  0  0  0
    0.2851   13.6909    0.9904 H   0  0  0  0  0  0  0  0  0  0  0  0
    0.4602   11.5886   -2.4531 H   0  0  0  0  0  0  0  0  0  0  0  0
    3.3838   11.7249   -1.4883 H   0  0  0  0  0  0  0  0  0  0  0  0
    2.7654   10.9025   -2.9892 H   0  0  0  0  0  0  0  0  0  0  0  0
    3.8290   13.0799   -3.4856 H   0  0  0  0  0  0  0  0  0  0  0  0
    2.0731   13.0384   -3.9111 H   0  0  0  0  0  0  0  0  0  0  0  0
    2.5620   15.1401   -2.8612 H   0  0  0  0  0  0  0  0  0  0  0  0
    4.2140   15.0190   -1.5050 H   0  0  0  0  0  0  0  0  0  0  0  0
   -0.9045   14.6430   -2.0480 H   0  0  0  0  0  0  0  0  0  0  0  0
    0.3054   15.3190   -3.1907 H   0  0  0  0  0  0  0  0  0  0  0  0
   -0.0435   13.5569   -3.1907 H   0  0  0  0  0  0  0  0  0  0  0  0
    1.1181   15.0876    0.4968 H   0  0  0  0  0  0  0  0  0  0  0  0
    1.9606   16.1051   -0.7204 H   0  0  0  0  0  0  0  0  0  0  0  0
    0.1671   16.0046   -0.7204 H   0  0  0  0  0  0  0  0  0  0  0  0
    2.1095    9.8805    0.9291 H   0  0  0  0  0  0  0  0  0  0  0  0
    2.5818    8.7935   -0.4207 H   0  0  0  0  0  0  0  0  0  0  0  0
    3.1143   10.5091   -0.4207 H   0  0  0  0  0  0  0  0  0  0  0  0
    1.3737    9.3669   -2.8949 H   0  0  0  0  0  0  0  0  0  0  0  0
    1.0644    8.1636   -1.5198 H   0  0  0  0  0  0  0  0  0  0  0  0
   -0.9904    9.7387   -3.0952 H   0  0  0  0  0  0  0  0  0  0  0  0
   -0.7162    7.9524   -3.0676 H   0  0  0  0  0  0  0  0  0  0  0  0
   -1.2690    7.6833    0.5996 H   0  0  0  0  0  0  0  0  0  0  0  0
   -1.8662    6.6375   -0.7332 H   0  0  0  0  0  0  0  0  0  0  0  0
   -0.1627    7.2075   -0.7332 H   0  0  0  0  0  0  0  0  0  0  0  0
  1  2  1  0
  2  3  1  0
  3  4  1  0
  4  5  1  0
  5  6  1  0
  6  7  1  0
  7  8  1  0
  7  9  1  0
  2 10  1  0
 10 11  1  0
 11 12  1  0
 12 13  1  0
 13 14  1  6
 13 15  1  0
 15 16  1  0
 16 17  1  0
 17 18  2  0
 18 19  1  0
 19 20  1  0
 20 21  1  0
 21 22  1  0
 22 23  1  0
 22 24  1  0
 24 25  1  0
 24 26  1  0
 19 27  1  0
 27 28  1  1
 27 29  1  0
 29 30  1  0
 30 31  1  0
 31 32  1  1
  7  5  1  0
 31 10  1  0
 31 13  1  0
 27 15  1  0
 24 18  1  0
  1 33  1  0
  1 34  1  0
  1 35  1  0
  2 36  1  6
  3 37  1  0
  3 38  1  0
  4 39  1  0
  4 40  1  0
  5 41  1  1
  8 42  1  0
  8 43  1  0
  8 44  1  0
  9 45  1  0
  9 46  1  0
  9 47  1  0
 10 48  1  6
 11 49  1  0
 11 50  1  0
 12 51  1  0
 12 52  1  0
 14 53  1  0
 14 54  1  0
 14 55  1  0
 15 56  1  1
 16 57  1  0
 16 58  1  0
 17 59  1  0
 19 60  1  6
 20 61  1  0
 20 62  1  0
 21 63  1  0
 21 64  1  0
 22 65  1  6
 23 66  1  0
 25 67  1  0
 25 68  1  0
 25 69  1  0
 26 70  1  0
 26 71  1  0
 26 72  1  0
 28 73  1  0
 28 74  1  0
 28 75  1  0
 29 76  1  0
 29 77  1  0
 30 78  1  0
 30 79  1  0
 32 80  1  0
 32 81  1  0
 32 82  1  0
M  END
>  <meeko>  (9) 
{"is_sidechain": [false], "intermolecular_energy": 2.731, "internal_energy": -0.839}

$$$$
EPH_relaxed_0001_pdb2pqr_Repair_371_r2_0001_out
     RDKit          3D

 82 86  0  0  0  0  0  0  0  0999 V2000
    0.2570   19.1800   -2.5580 C   0  0  0  0  0  0  0  0  0  0  0  0
    0.0250   18.2170   -1.3910 C   0  0  2  0  0  0  0  0  0  0  0  0
    0.6950   18.7080   -0.0910 C   0  0  0  0  0  0  0  0  0  0  0  0
    1.5690   19.9500   -0.2810 C   0  0  0  0  0  0  0  0  0  0  0  0
    2.9590   19.7340    0.2380 C   0  0  2  0  0  0  0  0  0  0  0  0
    3.1200   18.5610    1.0460 O   0  0  0  0  0  0  0  0  0  0  0  0
    3.3260   19.8200    1.7080 C   0  0  0  0  0  0  0  0  0  0  0  0
    2.3000   20.1340    2.7510 C   0  0  0  0  0  0  0  0  0  0  0  0
    4.7530   20.0830    2.0740 C   0  0  0  0  0  0  0  0  0  0  0  0
    0.5420   16.8290   -1.7510 C   0  0  1  0  0  0  0  0  0  0  0  0
    2.0160   16.8480   -2.2350 C   0  0  0  0  0  0  0  0  0  0  0  0
    2.6690   15.5350   -1.7310 C   0  0  0  0  0  0  0  0  0  0  0  0
    1.4810   14.6610   -1.2680 C   0  0  1  0  0  0  0  0  0  0  0  0
    0.9160   14.0260   -2.5780 C   0  0  0  0  0  0  0  0  0  0  0  0
    1.8000   13.5740   -0.1910 C   0  0  2  0  0  0  0  0  0  0  0  0
    2.7990   12.4910   -0.6340 C   0  0  0  0  0  0  0  0  0  0  0  0
    2.1910   11.2830   -1.2660 C   0  0  0  0  0  0  0  0  0  0  0  0
    0.8890   10.9450   -1.2150 C   0  0  0  0  0  0  0  0  0  0  0  0
   -0.1060   11.7660   -0.3850 C   0  0  1  0  0  0  0  0  0  0  0  0
   -0.9940   10.8090    0.4530 C   0  0  0  0  0  0  0  0  0  0  0  0
   -1.6820    9.7500   -0.4030 C   0  0  0  0  0  0  0  0  0  0  0  0
   -0.6580    8.9170   -1.1690 C   0  0  2  0  0  0  0  0  0  0  0  0
    0.1030    8.1480   -0.2320 O   0  0  0  0  0  0  0  0  0  0  0  0
    0.3010    9.7750   -2.0410 C   0  0  0  0  0  0  0  0  0  0  0  0
   -0.4790   10.3700   -3.2400 C   0  0  0  0  0  0  0  0  0  0  0  0
    1.3710    8.8270   -2.6470 C   0  0  0  0  0  0  0  0  0  0  0  0
    0.5200   12.9370    0.4880 C   0  0  1  0  0  0  0  0  0  0  0  0
    0.9790   12.3840    1.8720 C   0  0  0  0  0  0  0  0  0  0  0  0
   -0.5940   14.0090    0.7850 C   0  0  0  0  0  0  0  0  0  0  0  0
   -0.7810   15.1260   -0.2600 C   0  0  0  0  0  0  0  0  0  0  0  0
    0.5620   15.7640   -0.6260 C   0  0  2  0  0  0  0  0  0  0  0  0
    1.1440   16.4300    0.6670 C   0  0  0  0  0  0  0  0  0  0  0  0
    0.4978   20.1794   -2.1664 H   0  0  0  0  0  0  0  0  0  0  0  0
    1.0931   18.8160   -3.1731 H   0  0  0  0  0  0  0  0  0  0  0  0
   -0.6532   19.2367   -3.1731 H   0  0  0  0  0  0  0  0  0  0  0  0
   -1.0589   18.1739   -1.2083 H   0  0  0  0  0  0  0  0  0  0  0  0
   -0.0938   18.9465    0.6377 H   0  0  0  0  0  0  0  0  0  0  0  0
    1.3557   17.8997    0.2555 H   0  0  0  0  0  0  0  0  0  0  0  0
    1.6219   20.1881   -1.3536 H   0  0  0  0  0  0  0  0  0  0  0  0
    1.1164   20.7779    0.2845 H   0  0  0  0  0  0  0  0  0  0  0  0
    3.3922   20.2009   -0.6589 H   0  0  0  0  0  0  0  0  0  0  0  0
    2.7398   19.9994    3.7502 H   0  0  0  0  0  0  0  0  0  0  0  0
    1.9658   21.1755    2.6348 H   0  0  0  0  0  0  0  0  0  0  0  0
    1.4401   19.4579    2.6348 H   0  0  0  0  0  0  0  0  0  0  0  0
    4.8532   20.1015    3.1693 H   0  0  0  0  0  0  0  0  0  0  0  0
    5.3902   19.2872    1.6609 H   0  0  0  0  0  0  0  0  0  0  0  0
    5.0646   21.0537    1.6609 H   0  0  0  0  0  0  0  0  0  0  0  0
   -0.1947   16.5510   -2.5191 H   0  0  0  0  0  0  0  0  0  0  0  0
    2.0535   16.8924   -3.3335 H   0  0  0  0  0  0  0  0  0  0  0  0
    2.5482   17.7286   -1.8460 H   0  0  0  0  0  0  0  0  0  0  0  0
    3.2221   15.0399   -2.5428 H   0  0  0  0  0  0  0  0  0  0  0  0
    3.3950   15.7133   -0.9240 H   0  0  0  0  0  0  0  0  0  0  0  0
    0.2050   13.2269   -2.3211 H   0  0  0  0  0  0  0  0  0  0  0  0
    0.4015   14.7989   -3.1678 H   0  0  0  0  0  0  0  0  0  0  0  0
    1.7435   13.6049   -3.1678 H   0  0  0  0  0  0  0  0  0  0  0  0
    2.3156   14.1570    0.5863 H   0  0  0  0  0  0  0  0  0  0  0  0
    3.4905   12.9430   -1.3603 H   0  0  0  0  0  0  0  0  0  0  0  0
    3.2926   12.1386    0.2837 H   0  0  0  0  0  0  0  0  0  0  0  0
    2.8639   10.6122   -1.8203 H   0  0  0  0  0  0  0  0  0  0  0  0
   -0.7267   12.3142   -1.1090 H   0  0  0  0  0  0  0  0  0  0  0  0
   -0.3623   10.3040    1.1986 H   0  0  0  0  0  0  0  0  0  0  0  0
   -1.7788   11.4140    0.9306 H   0  0  0  0  0  0  0  0  0  0  0  0
   -2.2702    9.0871    0.2486 H   0  0  0  0  0  0  0  0  0  0  0  0
   -2.3359   10.2560   -1.1285 H   0  0  0  0  0  0  0  0  0  0  0  0
   -1.2128    8.2661   -1.8607 H   0  0  0  0  0  0  0  0  0  0  0  0
    0.2490    8.7010    0.5530 H   0  0  0  0  0  0  0  0  0  0  0  0
   -1.3018   10.9976   -2.8670 H   0  0  0  0  0  0  0  0  0  0  0  0
    0.2002   10.9815   -3.8522 H   0  0  0  0  0  0  0  0  0  0  0  0
   -0.8893    9.5533   -3.8522 H   0  0  0  0  0  0  0  0  0  0  0  0
    1.9266    8.3347   -1.8353 H   0  0  0  0  0  0  0  0  0  0  0  0
    0.8766    8.0651   -3.2675 H   0  0  0  0  0  0  0  0  0  0  0  0
    2.0678    9.4096   -3.2675 H   0  0  0  0  0  0  0  0  0  0  0  0
    0.4991   12.9622    2.6753 H   0  0  0  0  0  0  0  0  0  0  0  0
    0.6897   11.3262    1.9584 H   0  0  0  0  0  0  0  0  0  0  0  0
    2.0719   12.4735    1.9584 H   0  0  0  0  0  0  0  0  0  0  0  0
   -1.5520   13.4763    0.8775 H   0  0  0  0  0  0  0  0  0  0  0  0
   -0.2617   14.5232    1.6989 H   0  0  0  0  0  0  0  0  0  0  0  0
   -1.2353   14.6988   -1.1661 H   0  0  0  0  0  0  0  0  0  0  0  0
   -1.4328   15.9017    0.1683 H   0  0  0  0  0  0  0  0  0  0  0  0
    0.7170   15.9413    1.5552 H   0  0  0  0  0  0  0  0  0  0  0  0
    2.2382   16.3172    0.6769 H   0  0  0  0  0  0  0  0  0  0  0  0
    0.8856   17.4992    0.6769 H   0  0  0  0  0  0  0  0  0  0  0  0
  1  2  1  0
  2  3  1  0
  3  4  1  0
  4  5  1  0
  5  6  1  0
  6  7  1  0
  7  8  1  0
  7  9  1  0
  2 10  1  0
 10 11  1  0
 11 12  1  0
 12 13  1  0
 13 14  1  6
 13 15  1  0
 15 16  1  0
 16 17  1  0
 17 18  2  0
 18 19  1  0
 19 20  1  0
 20 21  1  0
 21 22  1  0
 22 23  1  0
 22 24  1  0
 24 25  1  0
 24 26  1  0
 19 27  1  0
 27 28  1  1
 27 29  1  0
 29 30  1  0
 30 31  1  0
 31 32  1  1
  7  5  1  0
 31 10  1  0
 31 13  1  0
 27 15  1  0
 24 18  1  0
  1 33  1  0
  1 34  1  0
  1 35  1  0
  2 36  1  1
  3 37  1  0
  3 38  1  0
  4 39  1  0
  4 40  1  0
  5 41  1  6
  8 42  1  0
  8 43  1  0
  8 44  1  0
  9 45  1  0
  9 46  1  0
  9 47  1  0
 10 48  1  6
 11 49  1  0
 11 50  1  0
 12 51  1  0
 12 52  1  0
 14 53  1  0
 14 54  1  0
 14 55  1  0
 15 56  1  1
 16 57  1  0
 16 58  1  0
 17 59  1  0
 19 60  1  6
 20 61  1  0
 20 62  1  0
 21 63  1  0
 21 64  1  0
 22 65  1  6
 23 66  1  0
 25 67  1  0
 25 68  1  0
 25 69  1  0
 26 70  1  0
 26 71  1  0
 26 72  1  0
 28 73  1  0
 28 74  1  0
 28 75  1  0
 29 76  1  0
 29 77  1  0
 30 78  1  0
 30 79  1  0
 32 80  1  0
 32 81  1  0
 32 82  1  0
M  END
>  <meeko>  (10) 
{"is_sidechain": [false], "intermolecular_energy": 2.731, "internal_energy": -0.839}

$$$$
EPH_relaxed_0001_pdb2pqr_Repair_371_r2_0001_out
     RDKit          3D

 82 86  0  0  0  0  0  0  0  0999 V2000
   -1.8370    7.7570   -2.1070 C   0  0  0  0  0  0  0  0  0  0  0  0
   -2.0710    8.4530   -0.7630 C   0  0  2  0  0  0  0  0  0  0  0  0
   -3.5580    8.4420   -0.3540 C   0  0  0  0  0  0  0  0  0  0  0  0
   -4.5210    8.3100   -1.5380 C   0  0  0  0  0  0  0  0  0  0  0  0
   -5.2760    7.0160   -1.4950 C   0  0  2  0  0  0  0  0  0  0  0  0
   -5.6030    6.4720   -2.7810 O   0  0  0  0  0  0  0  0  0  0  0  0
   -6.7130    6.8720   -1.9610 C   0  0  0  0  0  0  0  0  0  0  0  0
   -7.4800    8.0380   -2.5020 C   0  0  0  0  0  0  0  0  0  0  0  0
   -7.5220    5.7250   -1.4400 C   0  0  0  0  0  0  0  0  0  0  0  0
   -1.5590    9.8870   -0.8250 C   0  0  1  0  0  0  0  0  0  0  0  0
   -1.1070   10.4200    0.5610 C   0  0  0  0  0  0  0  0  0  0  0  0
    0.1030   11.3560    0.3080 C   0  0  0  0  0  0  0  0  0  0  0  0
    0.0990   11.5930   -1.2210 C   0  0  1  0  0  0  0  0  0  0  0  0
   -0.9710   12.7060   -1.4510 C   0  0  0  0  0  0  0  0  0  0  0  0
    1.4730   11.9710   -1.8650 C   0  0  2  0  0  0  0  0  0  0  0  0
    2.0840   13.2940   -1.3690 C   0  0  0  0  0  0  0  0  0  0  0  0
    1.7010   14.5060   -2.1530 C   0  0  0  0  0  0  0  0  0  0  0  0
    1.1340   14.5010   -3.3730 C   0  0  0  0  0  0  0  0  0  0  0  0
    0.9100   13.1870   -4.1330 C   0  0  1  0  0  0  0  0  0  0  0  0
    1.3840   13.3500   -5.6010 C   0  0  0  0  0  0  0  0  0  0  0  0
    0.7350   14.5440   -6.2960 C   0  0  0  0  0  0  0  0  0  0  0  0
    1.0290   15.8390   -5.5430 C   0  0  2  0  0  0  0  0  0  0  0  0
    2.4300   16.1180   -5.6350 O   0  0  0  0  0  0  0  0  0  0  0  0
    0.6030   15.7900   -4.0490 C   0  0  0  0  0  0  0  0  0  0  0  0
   -0.9420   15.7900   -3.9480 C   0  0  0  0  0  0  0  0  0  0  0  0
    1.0830   17.1020   -3.3720 C   0  0  0  0  0  0  0  0  0  0  0  0
    1.4950   11.8800   -3.4440 C   0  0  1  0  0  0  0  0  0  0  0  0
    2.9860   11.6830   -3.8580 C   0  0  0  0  0  0  0  0  0  0  0  0
    0.7150   10.6220   -3.9820 C   0  0  0  0  0  0  0  0  0  0  0  0
   -0.5710   10.2290   -3.2300 C   0  0  0  0  0  0  0  0  0  0  0  0
   -0.3240   10.1640   -1.7190 C   0  0  2  0  0  0  0  0  0  0  0  0
    0.7320    9.0380   -1.4550 C   0  0  0  0  0  0  0  0  0  0  0  0
   -1.4909    6.7277   -1.9315 H   0  0  0  0  0  0  0  0  0  0  0  0
   -2.7773    7.7355   -2.6774 H   0  0  0  0  0  0  0  0  0  0  0  0
   -1.0747    8.3079   -2.6774 H   0  0  0  0  0  0  0  0  0  0  0  0
   -1.5143    7.8916    0.0018 H   0  0  0  0  0  0  0  0  0  0  0  0
   -3.7250    7.5935    0.3258 H   0  0  0  0  0  0  0  0  0  0  0  0
   -3.7672    9.4102    0.1243 H   0  0  0  0  0  0  0  0  0  0  0  0
   -5.2388    9.1430   -1.5086 H   0  0  0  0  0  0  0  0  0  0  0  0
   -3.9301    8.3323   -2.4656 H   0  0  0  0  0  0  0  0  0  0  0  0
   -4.7690    6.7221   -0.5641 H   0  0  0  0  0  0  0  0  0  0  0  0
   -7.8739    8.6368   -1.6675 H   0  0  0  0  0  0  0  0  0  0  0  0
   -6.8145    8.6606   -3.1180 H   0  0  0  0  0  0  0  0  0  0  0  0
   -8.3152    7.6735   -3.1180 H   0  0  0  0  0  0  0  0  0  0  0  0
   -7.5121    5.7390   -0.3401 H   0  0  0  0  0  0  0  0  0  0  0  0
   -8.5581    5.8143   -1.7985 H   0  0  0  0  0  0  0  0  0  0  0  0
   -7.0902    4.7790   -1.7985 H   0  0  0  0  0  0  0  0  0  0  0  0
   -2.4469   10.3814   -1.2460 H   0  0  0  0  0  0  0  0  0  0  0  0
   -1.9257   10.9797    1.0369 H   0  0  0  0  0  0  0  0  0  0  0  0
   -0.8325    9.5925    1.2318 H   0  0  0  0  0  0  0  0  0  0  0  0
   -0.0209   12.3059    0.8487 H   0  0  0  0  0  0  0  0  0  0  0  0
    1.0493   10.9196    0.6604 H   0  0  0  0  0  0  0  0  0  0  0  0
   -1.3282   13.0776   -0.4793 H   0  0  0  0  0  0  0  0  0  0  0  0
   -0.5219   13.5348   -2.0179 H   0  0  0  0  0  0  0  0  0  0  0  0
   -1.8169   12.2899   -2.0179 H   0  0  0  0  0  0  0  0  0  0  0  0
    2.1360   11.1771   -1.4905 H   0  0  0  0  0  0  0  0  0  0  0  0
    1.7638   13.4472   -0.3279 H   0  0  0  0  0  0  0  0  0  0  0  0
    3.1729   13.1886   -1.4835 H   0  0  0  0  0  0  0  0  0  0  0  0
    1.8993   15.4858   -1.6941 H   0  0  0  0  0  0  0  0  0  0  0  0
   -0.1743   13.0032   -4.1099 H   0  0  0  0  0  0  0  0  0  0  0  0
    2.4751   13.4893   -5.6059 H   0  0  0  0  0  0  0  0  0  0  0  0
    1.0894   12.4433   -6.1498 H   0  0  0  0  0  0  0  0  0  0  0  0
    1.1314   14.6243   -7.3189 H   0  0  0  0  0  0  0  0  0  0  0  0
   -0.3538   14.3892   -6.3167 H   0  0  0  0  0  0  0  0  0  0  0  0
    0.4334   16.6357   -6.0126 H   0  0  0  0  0  0  0  0  0  0  0  0
    2.9060   15.2840   -5.4870 H   0  0  0  0  0  0  0  0  0  0  0  0
   -1.3079   14.7529   -3.9241 H   0  0  0  0  0  0  0  0  0  0  0  0
   -1.2493   16.3085   -3.0278 H   0  0  0  0  0  0  0  0  0  0  0  0
   -1.3665   16.3085   -4.8203 H   0  0  0  0  0  0  0  0  0  0  0  0
    1.0410   16.9871   -2.2788 H   0  0  0  0  0  0  0  0  0  0  0  0
    2.1175   17.3157   -3.6787 H   0  0  0  0  0  0  0  0  0  0  0  0
    0.4306   17.9328   -3.6787 H   0  0  0  0  0  0  0  0  0  0  0  0
    3.6093   11.6006   -2.9554 H   0  0  0  0  0  0  0  0  0  0  0  0
    3.0824   10.7643   -4.4553 H   0  0  0  0  0  0  0  0  0  0  0  0
    3.3177   12.5451   -4.4553 H   0  0  0  0  0  0  0  0  0  0  0  0
    0.4408   10.8227   -5.0282 H   0  0  0  0  0  0  0  0  0  0  0  0
    1.4020    9.7747   -3.8403 H   0  0  0  0  0  0  0  0  0  0  0  0
   -1.3509   10.9770   -3.4354 H   0  0  0  0  0  0  0  0  0  0  0  0
   -0.8904    9.2351   -3.5765 H   0  0  0  0  0  0  0  0  0  0  0  0
    0.8596    8.9019   -0.3709 H   0  0  0  0  0  0  0  0  0  0  0  0
    0.3839    8.0962   -1.9043 H   0  0  0  0  0  0  0  0  0  0  0  0
    1.6942    9.3250   -1.9043 H   0  0  0  0  0  0  0  0  0  0  0  0
  1  2  1  0
  2  3  1  0
  3  4  1  0
  4  5  1  0
  5  6  1  0
  6  7  1  0
  7  8  1  0
  7  9  1  0
  2 10  1  0
 10 11  1  0
 11 12  1  0
 12 13  1  0
 13 14  1  1
 13 15  1  0
 15 16  1  0
 16 17  1  0
 17 18  2  0
 18 19  1  0
 19 20  1  0
 20 21  1  0
 21 22  1  0
 22 23  1  0
 22 24  1  0
 24 25  1  0
 24 26  1  0
 19 27  1  0
 27 28  1  6
 27 29  1  0
 29 30  1  0
 30 31  1  0
 31 32  1  6
  7  5  1  0
 31 10  1  0
 31 13  1  0
 27 15  1  0
 24 18  1  0
  1 33  1  0
  1 34  1  0
  1 35  1  0
  2 36  1  1
  3 37  1  0
  3 38  1  0
  4 39  1  0
  4 40  1  0
  5 41  1  1
  8 42  1  0
  8 43  1  0
  8 44  1  0
  9 45  1  0
  9 46  1  0
  9 47  1  0
 10 48  1  6
 11 49  1  0
 11 50  1  0
 12 51  1  0
 12 52  1  0
 14 53  1  0
 14 54  1  0
 14 55  1  0
 15 56  1  1
 16 57  1  0
 16 58  1  0
 17 59  1  0
 19 60  1  6
 20 61  1  0
 20 62  1  0
 21 63  1  0
 21 64  1  0
 22 65  1  6
 23 66  1  0
 25 67  1  0
 25 68  1  0
 25 69  1  0
 26 70  1  0
 26 71  1  0
 26 72  1  0
 28 73  1  0
 28 74  1  0
 28 75  1  0
 29 76  1  0
 29 77  1  0
 30 78  1  0
 30 79  1  0
 32 80  1  0
 32 81  1  0
 32 82  1  0
M  END
>  <meeko>  (11) 
{"is_sidechain": [false], "intermolecular_energy": 2.731, "internal_energy": -0.839}

$$$$
EPH_relaxed_0001_pdb2pqr_Repair_371_r2_0001_out
     RDKit          3D

 82 86  0  0  0  0  0  0  0  0999 V2000
    2.9040   11.4030   -5.3860 C   0  0  0  0  0  0  0  0  0  0  0  0
    1.9050   11.0910   -4.2690 C   0  0  2  0  0  0  0  0  0  0  0  0
    0.7920   10.1310   -4.7370 C   0  0  0  0  0  0  0  0  0  0  0  0
   -0.2900    9.8830   -3.6820 C   0  0  0  0  0  0  0  0  0  0  0  0
    0.2290    9.0680   -2.5360 C   0  0  2  0  0  0  0  0  0  0  0  0
   -0.6260    7.9910   -2.1320 O   0  0  0  0  0  0  0  0  0  0  0  0
   -0.4250    9.0370   -1.1680 C   0  0  0  0  0  0  0  0  0  0  0  0
   -1.6550    9.8370   -0.8730 C   0  0  0  0  0  0  0  0  0  0  0  0
    0.3990    8.6210    0.0100 C   0  0  0  0  0  0  0  0  0  0  0  0
    1.2900   12.3840   -3.7460 C   0  0  1  0  0  0  0  0  0  0  0  0
   -0.2510   12.2920   -3.5880 C   0  0  0  0  0  0  0  0  0  0  0  0
   -0.6250   13.1420   -2.3460 C   0  0  0  0  0  0  0  0  0  0  0  0
    0.6530   13.9550   -2.0310 C   0  0  1  0  0  0  0  0  0  0  0  0
    0.6160   15.1600   -3.0220 C   0  0  0  0  0  0  0  0  0  0  0  0
    0.8220   14.4300   -0.5510 C   0  0  2  0  0  0  0  0  0  0  0  0
   -0.2660   15.3960   -0.0470 C   0  0  0  0  0  0  0  0  0  0  0  0
    0.0250   16.8460   -0.2510 C   0  0  0  0  0  0  0  0  0  0  0  0
    1.2280   17.3670   -0.5530 C   0  0  0  0  0  0  0  0  0  0  0  0
    2.4770   16.4790   -0.6230 C   0  0  1  0  0  0  0  0  0  0  0  0
    3.6400   17.1580    0.1460 C   0  0  0  0  0  0  0  0  0  0  0  0
    3.9080   18.5810   -0.3360 C   0  0  0  0  0  0  0  0  0  0  0  0
    2.6600   19.4490   -0.1960 C   0  0  2  0  0  0  0  0  0  0  0  0
    2.3680   19.6160    1.1950 O   0  0  0  0  0  0  0  0  0  0  0  0
    1.4190   18.8590   -0.9230 C   0  0  0  0  0  0  0  0  0  0  0  0
    1.6180   18.9580   -2.4560 C   0  0  0  0  0  0  0  0  0  0  0  0
    0.1970   19.7560   -0.5860 C   0  0  0  0  0  0  0  0  0  0  0  0
    2.2710   14.9600   -0.2020 C   0  0  1  0  0  0  0  0  0  0  0  0
    2.4420   14.8080    1.3410 C   0  0  0  0  0  0  0  0  0  0  0  0
    3.4030   14.0860   -0.8620 C   0  0  0  0  0  0  0  0  0  0  0  0
    3.1270   13.5460   -2.2780 C   0  0  0  0  0  0  0  0  0  0  0  0
    1.7510   12.8770   -2.3510 C   0  0  2  0  0  0  0  0  0  0  0  0
    1.7650   11.6470   -1.3800 C   0  0  0  0  0  0  0  0  0  0  0  0
    3.8657   11.7033   -4.9445 H   0  0  0  0  0  0  0  0  0  0  0  0
    3.0499   10.5076   -6.0081 H   0  0  0  0  0  0  0  0  0  0  0  0
    2.5144   12.2222   -6.0081 H   0  0  0  0  0  0  0  0  0  0  0  0
    2.4577   10.5882   -3.4617 H   0  0  0  0  0  0  0  0  0  0  0  0
    0.3146   10.5614   -5.6297 H   0  0  0  0  0  0  0  0  0  0  0  0
    1.2690    9.1614   -4.9428 H   0  0  0  0  0  0  0  0  0  0  0  0
   -0.6433   10.8518   -3.2992 H   0  0  0  0  0  0  0  0  0  0  0  0
   -1.1098    9.3239   -4.1567 H   0  0  0  0  0  0  0  0  0  0  0  0
    1.2681    9.2406   -2.8531 H   0  0  0  0  0  0  0  0  0  0  0  0
   -1.7850    9.9215    0.2160 H   0  0  0  0  0  0  0  0  0  0  0  0
   -1.5523   10.8416   -1.3091 H   0  0  0  0  0  0  0  0  0  0  0  0
   -2.5317    9.3358   -1.3091 H   0  0  0  0  0  0  0  0  0  0  0  0
   -0.1278    8.8870    0.9383 H   0  0  0  0  0  0  0  0  0  0  0  0
    0.5605    7.5334   -0.0212 H   0  0  0  0  0  0  0  0  0  0  0  0
    1.3700    9.1369   -0.0212 H   0  0  0  0  0  0  0  0  0  0  0  0
    1.6351   13.0804   -4.5245 H   0  0  0  0  0  0  0  0  0  0  0  0
   -0.7482   12.6916   -4.4842 H   0  0  0  0  0  0  0  0  0  0  0  0
   -0.5736   11.2478   -3.4636 H   0  0  0  0  0  0  0  0  0  0  0  0
   -1.4661   13.8133   -2.5737 H   0  0  0  0  0  0  0  0  0  0  0  0
   -0.9447   12.5211   -1.4962 H   0  0  0  0  0  0  0  0  0  0  0  0
    0.5871   16.1014   -2.4537 H   0  0  0  0  0  0  0  0  0  0  0  0
    1.5151   15.1416   -3.6554 H   0  0  0  0  0  0  0  0  0  0  0  0
   -0.2803   15.0864   -3.6554 H   0  0  0  0  0  0  0  0  0  0  0  0
    0.6785   13.4970    0.0137 H   0  0  0  0  0  0  0  0  0  0  0  0
   -1.2017   15.1595   -0.5748 H   0  0  0  0  0  0  0  0  0  0  0  0
   -0.3247   15.2474    1.0413 H   0  0  0  0  0  0  0  0  0  0  0  0
   -0.8154   17.5478   -0.1454 H   0  0  0  0  0  0  0  0  0  0  0  0
    2.7334   16.3981   -1.6896 H   0  0  0  0  0  0  0  0  0  0  0  0
    3.3844   17.1902    1.2154 H   0  0  0  0  0  0  0  0  0  0  0  0
    4.5500   16.5671   -0.0350 H   0  0  0  0  0  0  0  0  0  0  0  0
    4.7194   19.0177    0.2648 H   0  0  0  0  0  0  0  0  0  0  0  0
    4.1925   18.5441   -1.3979 H   0  0  0  0  0  0  0  0  0  0  0  0
    2.8748   20.4154   -0.6756 H   0  0  0  0  0  0  0  0  0  0  0  0
    1.4390   19.8930    1.2690 H   0  0  0  0  0  0  0  0  0  0  0  0
    2.5840   19.4386   -2.6701 H   0  0  0  0  0  0  0  0  0  0  0  0
    1.6057   17.9487   -2.8933 H   0  0  0  0  0  0  0  0  0  0  0  0
    0.8056   19.5570   -2.8933 H   0  0  0  0  0  0  0  0  0  0  0  0
    0.0899   19.8346    0.5059 H   0  0  0  0  0  0  0  0  0  0  0  0
    0.3492   20.7584   -1.0126 H   0  0  0  0  0  0  0  0  0  0  0  0
   -0.7137   19.3104   -1.0126 H   0  0  0  0  0  0  0  0  0  0  0  0
    1.7154   15.4538    1.8558 H   0  0  0  0  0  0  0  0  0  0  0  0
    2.2689   13.7602    1.6276 H   0  0  0  0  0  0  0  0  0  0  0  0
    3.4623   15.1028    1.6276 H   0  0  0  0  0  0  0  0  0  0  0  0
    4.3126   14.7025   -0.9124 H   0  0  0  0  0  0  0  0  0  0  0  0
    3.4858   13.1933   -0.2246 H   0  0  0  0  0  0  0  0  0  0  0  0
    3.1599   14.3804   -2.9941 H   0  0  0  0  0  0  0  0  0  0  0  0
    3.8945   12.7973   -2.5237 H   0  0  0  0  0  0  0  0  0  0  0  0
    1.7610   12.0018   -0.3388 H   0  0  0  0  0  0  0  0  0  0  0  0
    0.8738   11.0277   -1.5598 H   0  0  0  0  0  0  0  0  0  0  0  0
    2.6700   11.0482   -1.5598 H   0  0  0  0  0  0  0  0  0  0  0  0
  1  2  1  0
  2  3  1  0
  3  4  1  0
  4  5  1  0
  5  6  1  0
  6  7  1  0
  7  8  1  0
  7  9  1  0
  2 10  1  0
 10 11  1  0
 11 12  1  0
 12 13  1  0
 13 14  1  6
 13 15  1  0
 15 16  1  0
 16 17  1  0
 17 18  2  0
 18 19  1  0
 19 20  1  0
 20 21  1  0
 21 22  1  0
 22 23  1  0
 22 24  1  0
 24 25  1  0
 24 26  1  0
 19 27  1  0
 27 28  1  1
 27 29  1  0
 29 30  1  0
 30 31  1  0
 31 32  1  1
  7  5  1  0
 31 10  1  0
 31 13  1  0
 27 15  1  0
 24 18  1  0
  1 33  1  0
  1 34  1  0
  1 35  1  0
  2 36  1  1
  3 37  1  0
  3 38  1  0
  4 39  1  0
  4 40  1  0
  5 41  1  1
  8 42  1  0
  8 43  1  0
  8 44  1  0
  9 45  1  0
  9 46  1  0
  9 47  1  0
 10 48  1  6
 11 49  1  0
 11 50  1  0
 12 51  1  0
 12 52  1  0
 14 53  1  0
 14 54  1  0
 14 55  1  0
 15 56  1  1
 16 57  1  0
 16 58  1  0
 17 59  1  0
 19 60  1  6
 20 61  1  0
 20 62  1  0
 21 63  1  0
 21 64  1  0
 22 65  1  6
 23 66  1  0
 25 67  1  0
 25 68  1  0
 25 69  1  0
 26 70  1  0
 26 71  1  0
 26 72  1  0
 28 73  1  0
 28 74  1  0
 28 75  1  0
 29 76  1  0
 29 77  1  0
 30 78  1  0
 30 79  1  0
 32 80  1  0
 32 81  1  0
 32 82  1  0
M  END
>  <meeko>  (12) 
{"is_sidechain": [false], "intermolecular_energy": 2.731, "internal_energy": -0.839}

$$$$
EPH_relaxed_0001_pdb2pqr_Repair_371_r2_0001_out
     RDKit          3D

 82 86  0  0  0  0  0  0  0  0999 V2000
   -2.1320    9.6640   -0.2520 C   0  0  0  0  0  0  0  0  0  0  0  0
   -1.5920   10.5660   -1.3650 C   0  0  2  0  0  0  0  0  0  0  0  0
   -0.6400    9.8110   -2.3140 C   0  0  0  0  0  0  0  0  0  0  0  0
    0.7570    9.5800   -1.7300 C   0  0  0  0  0  0  0  0  0  0  0  0
    1.8320   10.0440   -2.6640 C   0  0  2  0  0  0  0  0  0  0  0  0
    2.9660    9.1720   -2.7530 O   0  0  0  0  0  0  0  0  0  0  0  0
    3.2120   10.4760   -2.2030 C   0  0  0  0  0  0  0  0  0  0  0  0
    3.5900   10.4650   -0.7550 C   0  0  0  0  0  0  0  0  0  0  0  0
    4.0200   11.3650   -3.0970 C   0  0  0  0  0  0  0  0  0  0  0  0
   -0.8770   11.7680   -0.7590 C   0  0  1  0  0  0  0  0  0  0  0  0
    0.2850   11.3590    0.1850 C   0  0  0  0  0  0  0  0  0  0  0  0
    1.3950   12.4290    0.0190 C   0  0  0  0  0  0  0  0  0  0  0  0
    0.7110   13.5830   -0.7520 C   0  0  1  0  0  0  0  0  0  0  0  0
   -0.0720   14.3830    0.3360 C   0  0  0  0  0  0  0  0  0  0  0  0
    1.6540   14.5120   -1.5840 C   0  0  2  0  0  0  0  0  0  0  0  0
    2.6950   15.2910   -0.7610 C   0  0  0  0  0  0  0  0  0  0  0  0
    2.2540   16.6360   -0.2850 C   0  0  0  0  0  0  0  0  0  0  0  0
    1.1860   17.3160   -0.7420 C   0  0  0  0  0  0  0  0  0  0  0  0
    0.3510   16.7770   -1.9100 C   0  0  1  0  0  0  0  0  0  0  0  0
    0.0880   17.9190   -2.9280 C   0  0  0  0  0  0  0  0  0  0  0  0
   -0.5410   19.1480   -2.2780 C   0  0  0  0  0  0  0  0  0  0  0  0
    0.3470   19.6880   -1.1600 C   0  0  2  0  0  0  0  0  0  0  0  0
    1.5550   20.1940   -1.7350 O   0  0  0  0  0  0  0  0  0  0  0  0
    0.6870   18.6240   -0.0800 C   0  0  0  0  0  0  0  0  0  0  0  0
   -0.5810   18.2970    0.7470 C   0  0  0  0  0  0  0  0  0  0  0  0
    1.7010   19.2570    0.9110 C   0  0  0  0  0  0  0  0  0  0  0  0
    0.8980   15.4560   -2.6040 C   0  0  1  0  0  0  0  0  0  0  0  0
    1.9280   15.8260   -3.7150 C   0  0  0  0  0  0  0  0  0  0  0  0
   -0.2930   14.7240   -3.3280 C   0  0  0  0  0  0  0  0  0  0  0  0
   -1.1120   13.7290   -2.4840 C   0  0  0  0  0  0  0  0  0  0  0  0
   -0.1940   12.7570   -1.7370 C   0  0  2  0  0  0  0  0  0  0  0  0
    0.5910   11.9230   -2.8050 C   0  0  0  0  0  0  0  0  0  0  0  0
   -1.8741   10.0949    0.7267 H   0  0  0  0  0  0  0  0  0  0  0  0
   -3.2256    9.5859   -0.3415 H   0  0  0  0  0  0  0  0  0  0  0  0
   -1.6844    8.6632   -0.3415 H   0  0  0  0  0  0  0  0  0  0  0  0
   -2.4516   10.9060   -1.9612 H   0  0  0  0  0  0  0  0  0  0  0  0
   -1.0854    8.8324   -2.5462 H   0  0  0  0  0  0  0  0  0  0  0  0
   -0.5144   10.4383   -3.2088 H   0  0  0  0  0  0  0  0  0  0  0  0
    0.8437   10.1338   -0.7836 H   0  0  0  0  0  0  0  0  0  0  0  0
    0.8864    8.4997   -1.5681 H   0  0  0  0  0  0  0  0  0  0  0  0
    1.0888   10.5231   -3.3183 H   0  0  0  0  0  0  0  0  0  0  0  0
    2.6796   10.4915   -0.1382 H   0  0  0  0  0  0  0  0  0  0  0  0
    4.1580    9.5499   -0.5313 H   0  0  0  0  0  0  0  0  0  0  0  0
    4.2102   11.3455   -0.5313 H   0  0  0  0  0  0  0  0  0  0  0  0
    4.6343   12.0409   -2.4839 H   0  0  0  0  0  0  0  0  0  0  0  0
    4.6743   10.7495   -3.7319 H   0  0  0  0  0  0  0  0  0  0  0  0
    3.3450   11.9577   -3.7319 H   0  0  0  0  0  0  0  0  0  0  0  0
   -1.7280   12.2569   -0.2623 H   0  0  0  0  0  0  0  0  0  0  0  0
   -0.0648   11.3348    1.2276 H   0  0  0  0  0  0  0  0  0  0  0  0
    0.6625   10.3566   -0.0652 H   0  0  0  0  0  0  0  0  0  0  0  0
    1.7511   12.7750    1.0006 H   0  0  0  0  0  0  0  0  0  0  0  0
    2.2763   12.0378   -0.5104 H   0  0  0  0  0  0  0  0  0  0  0  0
    0.2497   14.0543    1.3352 H   0  0  0  0  0  0  0  0  0  0  0  0
    0.1332   15.4574    0.2197 H   0  0  0  0  0  0  0  0  0  0  0  0
   -1.1506   14.2010    0.2197 H   0  0  0  0  0  0  0  0  0  0  0  0
    2.2280   13.7900   -2.1833 H   0  0  0  0  0  0  0  0  0  0  0  0
    2.9532   14.6861    0.1207 H   0  0  0  0  0  0  0  0  0  0  0  0
    3.5448   15.4703   -1.4360 H   0  0  0  0  0  0  0  0  0  0  0  0
    2.8526   17.1113    0.5061 H   0  0  0  0  0  0  0  0  0  0  0  0
   -0.5999   16.4386   -1.4726 H   0  0  0  0  0  0  0  0  0  0  0  0
    1.0450   18.2121   -3.3843 H   0  0  0  0  0  0  0  0  0  0  0  0
   -0.6194   17.5398   -3.6802 H   0  0  0  0  0  0  0  0  0  0  0  0
   -0.6754   19.9295   -3.0404 H   0  0  0  0  0  0  0  0  0  0  0  0
   -1.5115   18.8599   -1.8476 H   0  0  0  0  0  0  0  0  0  0  0  0
   -0.2133   20.4847   -0.6489 H   0  0  0  0  0  0  0  0  0  0  0  0
    1.3080   20.7800   -2.4700 H   0  0  0  0  0  0  0  0  0  0  0  0
   -0.3450   18.3579    1.8197 H   0  0  0  0  0  0  0  0  0  0  0  0
   -1.3736   19.0201    0.5044 H   0  0  0  0  0  0  0  0  0  0  0  0
   -0.9250   17.2807    0.5044 H   0  0  0  0  0  0  0  0  0  0  0  0
    1.3790   19.0560    1.9434 H   0  0  0  0  0  0  0  0  0  0  0  0
    2.6968   18.8199    0.7458 H   0  0  0  0  0  0  0  0  0  0  0  0
    1.7456   20.3436    0.7458 H   0  0  0  0  0  0  0  0  0  0  0  0
    2.8655   16.1628   -3.2484 H   0  0  0  0  0  0  0  0  0  0  0  0
    2.1261   14.9428   -4.3401 H   0  0  0  0  0  0  0  0  0  0  0  0
    1.5189   16.6334   -4.3401 H   0  0  0  0  0  0  0  0  0  0  0  0
   -0.9844   15.4966   -3.6956 H   0  0  0  0  0  0  0  0  0  0  0  0
    0.1780   14.1155   -4.1140 H   0  0  0  0  0  0  0  0  0  0  0  0
   -1.7147   14.2881   -1.7532 H   0  0  0  0  0  0  0  0  0  0  0  0
   -1.7616   13.1503   -3.1571 H   0  0  0  0  0  0  0  0  0  0  0  0
    1.2596   11.2127   -2.2966 H   0  0  0  0  0  0  0  0  0  0  0  0
   -0.1216   11.3697   -3.4343 H   0  0  0  0  0  0  0  0  0  0  0  0
    1.1864   12.6008   -3.4343 H   0  0  0  0  0  0  0  0  0  0  0  0
  1  2  1  0
  2  3  1  0
  3  4  1  0
  4  5  1  0
  5  6  1  0
  6  7  1  0
  7  8  1  0
  7  9  1  0
  2 10  1  0
 10 11  1  0
 11 12  1  0
 12 13  1  0
 13 14  1  1
 13 15  1  0
 15 16  1  0
 16 17  1  0
 17 18  2  0
 18 19  1  0
 19 20  1  0
 20 21  1  0
 21 22  1  0
 22 23  1  0
 22 24  1  0
 24 25  1  0
 24 26  1  0
 19 27  1  0
 27 28  1  6
 27 29  1  0
 29 30  1  0
 30 31  1  0
 31 32  1  6
  7  5  1  0
 31 10  1  0
 31 13  1  0
 27 15  1  0
 24 18  1  0
  1 33  1  0
  1 34  1  0
  1 35  1  0
  2 36  1  6
  3 37  1  0
  3 38  1  0
  4 39  1  0
  4 40  1  0
  5 41  1  6
  8 42  1  0
  8 43  1  0
  8 44  1  0
  9 45  1  0
  9 46  1  0
  9 47  1  0
 10 48  1  1
 11 49  1  0
 11 50  1  0
 12 51  1  0
 12 52  1  0
 14 53  1  0
 14 54  1  0
 14 55  1  0
 15 56  1  6
 16 57  1  0
 16 58  1  0
 17 59  1  0
 19 60  1  1
 20 61  1  0
 20 62  1  0
 21 63  1  0
 21 64  1  0
 22 65  1  1
 23 66  1  0
 25 67  1  0
 25 68  1  0
 25 69  1  0
 26 70  1  0
 26 71  1  0
 26 72  1  0
 28 73  1  0
 28 74  1  0
 28 75  1  0
 29 76  1  0
 29 77  1  0
 30 78  1  0
 30 79  1  0
 32 80  1  0
 32 81  1  0
 32 82  1  0
M  END
>  <meeko>  (13) 
{"is_sidechain": [false], "intermolecular_energy": 2.731, "internal_energy": -0.839}

$$$$
EPH_relaxed_0001_pdb2pqr_Repair_371_r2_0001_out
     RDKit          3D

 82 86  0  0  0  0  0  0  0  0999 V2000
   -0.0820    9.3080   -4.1730 C   0  0  0  0  0  0  0  0  0  0  0  0
    0.0790    9.5170   -2.6650 C   0  0  2  0  0  0  0  0  0  0  0  0
   -0.7220    8.4850   -1.8460 C   0  0  0  0  0  0  0  0  0  0  0  0
   -2.2320    8.5430   -2.0920 C   0  0  0  0  0  0  0  0  0  0  0  0
   -2.7440    7.2720   -2.7000 C   0  0  2  0  0  0  0  0  0  0  0  0
   -3.7640    7.4510   -3.6920 O   0  0  0  0  0  0  0  0  0  0  0  0
   -4.1570    6.7580   -2.4970 C   0  0  0  0  0  0  0  0  0  0  0  0
   -5.1460    7.5040   -1.6570 C   0  0  0  0  0  0  0  0  0  0  0  0
   -4.4240    5.3000   -2.7070 C   0  0  0  0  0  0  0  0  0  0  0  0
   -0.3510   10.9290   -2.2870 C   0  0  1  0  0  0  0  0  0  0  0  0
   -1.5640   10.9450   -1.3190 C   0  0  0  0  0  0  0  0  0  0  0  0
   -1.3620   12.1530   -0.3680 C   0  0  0  0  0  0  0  0  0  0  0  0
   -0.2300   12.9790   -1.0230 C   0  0  1  0  0  0  0  0  0  0  0  0
   -0.9360   13.8130   -2.1380 C   0  0  0  0  0  0  0  0  0  0  0  0
    0.6060   13.8880   -0.0640 C   0  0  2  0  0  0  0  0  0  0  0  0
   -0.1910   14.9990    0.6410 C   0  0  0  0  0  0  0  0  0  0  0  0
   -0.2490   16.3020   -0.0860 C   0  0  0  0  0  0  0  0  0  0  0  0
    0.5440   16.6610   -1.1130 C   0  0  0  0  0  0  0  0  0  0  0  0
    1.6890   15.7520   -1.5780 C   0  0  1  0  0  0  0  0  0  0  0  0
    2.9750   16.5970   -1.7710 C   0  0  0  0  0  0  0  0  0  0  0  0
    2.7590   17.7870   -2.7020 C   0  0  0  0  0  0  0  0  0  0  0  0
    1.6530   18.6980   -2.1750 C   0  0  2  0  0  0  0  0  0  0  0  0
    2.0960   19.3020   -0.9560 O   0  0  0  0  0  0  0  0  0  0  0  0
    0.3110   17.9540   -1.9320 C   0  0  0  0  0  0  0  0  0  0  0  0
   -0.3190   17.5600   -3.2910 C   0  0  0  0  0  0  0  0  0  0  0  0
   -0.6760   18.9530   -1.2690 C   0  0  0  0  0  0  0  0  0  0  0  0
    1.9410   14.4500   -0.7030 C   0  0  1  0  0  0  0  0  0  0  0  0
    2.8960   14.7820    0.4840 C   0  0  0  0  0  0  0  0  0  0  0  0
    2.6820   13.3740   -1.5820 C   0  0  0  0  0  0  0  0  0  0  0  0
    1.7970   12.4280   -2.4150 C   0  0  0  0  0  0  0  0  0  0  0  0
    0.6860   11.8170   -1.5550 C   0  0  2  0  0  0  0  0  0  0  0  0
    1.3650   10.9540   -0.4380 C   0  0  0  0  0  0  0  0  0  0  0  0
   -0.7440    8.4486   -4.3555 H   0  0  0  0  0  0  0  0  0  0  0  0
   -0.5204   10.2107   -4.6235 H   0  0  0  0  0  0  0  0  0  0  0  0
    0.9027    9.1145   -4.6235 H   0  0  0  0  0  0  0  0  0  0  0  0
    1.1428    9.3752   -2.4236 H   0  0  0  0  0  0  0  0  0  0  0  0
   -0.3653    7.4788   -2.1111 H   0  0  0  0  0  0  0  0  0  0  0  0
   -0.5598    8.7213   -0.7840 H   0  0  0  0  0  0  0  0  0  0  0  0
   -2.7433    8.7104   -1.1326 H   0  0  0  0  0  0  0  0  0  0  0  0
   -2.4336    9.3648   -2.7948 H   0  0  0  0  0  0  0  0  0  0  0  0
   -1.7606    6.7928   -2.5848 H   0  0  0  0  0  0  0  0  0  0  0  0
   -4.9236    7.3363   -0.5929 H   0  0  0  0  0  0  0  0  0  0  0  0
   -5.0798    8.5790   -1.8804 H   0  0  0  0  0  0  0  0  0  0  0  0
   -6.1615    7.1450   -1.8804 H   0  0  0  0  0  0  0  0  0  0  0  0
   -4.5156    4.7998   -1.7316 H   0  0  0  0  0  0  0  0  0  0  0  0
   -5.3597    5.1762   -3.2719 H   0  0  0  0  0  0  0  0  0  0  0  0
   -3.5928    4.8527   -3.2719 H   0  0  0  0  0  0  0  0  0  0  0  0
   -0.5520   11.3346   -3.2895 H   0  0  0  0  0  0  0  0  0  0  0  0
   -2.4994   11.0616   -1.8859 H   0  0  0  0  0  0  0  0  0  0  0  0
   -1.6301   10.0039   -0.7533 H   0  0  0  0  0  0  0  0  0  0  0  0
   -2.2843   12.7479   -0.2943 H   0  0  0  0  0  0  0  0  0  0  0  0
   -1.1117   11.8405    0.6565 H   0  0  0  0  0  0  0  0  0  0  0  0
   -1.5804   14.5742   -1.6740 H   0  0  0  0  0  0  0  0  0  0  0  0
   -0.1770   14.3065   -2.7628 H   0  0  0  0  0  0  0  0  0  0  0  0
   -1.5480   13.1459   -2.7628 H   0  0  0  0  0  0  0  0  0  0  0  0
    0.9030   13.1850    0.7281 H   0  0  0  0  0  0  0  0  0  0  0  0
   -1.2219   14.6415    0.7806 H   0  0  0  0  0  0  0  0  0  0  0  0
    0.3371   15.2003    1.5847 H   0  0  0  0  0  0  0  0  0  0  0  0
   -1.0037   17.0303    0.2457 H   0  0  0  0  0  0  0  0  0  0  0  0
    1.3695   15.3314   -2.5429 H   0  0  0  0  0  0  0  0  0  0  0  0
    3.3013   16.9717   -0.7896 H   0  0  0  0  0  0  0  0  0  0  0  0
    3.7354   15.9479   -2.2297 H   0  0  0  0  0  0  0  0  0  0  0  0
    3.6943   18.3614   -2.7751 H   0  0  0  0  0  0  0  0  0  0  0  0
    2.4614   17.4094   -3.6914 H   0  0  0  0  0  0  0  0  0  0  0  0
    1.4552   19.4574   -2.9458 H   0  0  0  0  0  0  0  0  0  0  0  0
    2.9600   18.9160   -0.7330 H   0  0  0  0  0  0  0  0  0  0  0  0
   -1.2396   16.9842   -3.1152 H   0  0  0  0  0  0  0  0  0  0  0  0
   -0.5586   18.4695   -3.8615 H   0  0  0  0  0  0  0  0  0  0  0  0
    0.3938   16.9465   -3.8615 H   0  0  0  0  0  0  0  0  0  0  0  0
   -0.5979   18.8739   -0.1746 H   0  0  0  0  0  0  0  0  0  0  0  0
   -0.4257   19.9776   -1.5814 H   0  0  0  0  0  0  0  0  0  0  0  0
   -1.7035   18.7151   -1.5814 H   0  0  0  0  0  0  0  0  0  0  0  0
    2.3748   14.6008    1.4356 H   0  0  0  0  0  0  0  0  0  0  0  0
    3.7884   14.1414    0.4269 H   0  0  0  0  0  0  0  0  0  0  0  0
    3.1985   15.8380    0.4269 H   0  0  0  0  0  0  0  0  0  0  0  0
    3.3425   13.9111   -2.2786 H   0  0  0  0  0  0  0  0  0  0  0  0
    3.2012   12.7233   -0.8630 H   0  0  0  0  0  0  0  0  0  0  0  0
    1.3422   12.9948   -3.2408 H   0  0  0  0  0  0  0  0  0  0  0  0
    2.4251   11.6142   -2.8064 H   0  0  0  0  0  0  0  0  0  0  0  0
    1.0666   11.3332    0.5505 H   0  0  0  0  0  0  0  0  0  0  0  0
    1.0467    9.9060   -0.5400 H   0  0  0  0  0  0  0  0  0  0  0  0
    2.4585   11.0167   -0.5400 H   0  0  0  0  0  0  0  0  0  0  0  0
  1  2  1  0
  2  3  1  0
  3  4  1  0
  4  5  1  0
  5  6  1  0
  6  7  1  0
  7  8  1  0
  7  9  1  0
  2 10  1  0
 10 11  1  0
 11 12  1  0
 12 13  1  0
 13 14  1  6
 13 15  1  0
 15 16  1  0
 16 17  1  0
 17 18  2  0
 18 19  1  0
 19 20  1  0
 20 21  1  0
 21 22  1  0
 22 23  1  0
 22 24  1  0
 24 25  1  0
 24 26  1  0
 19 27  1  0
 27 28  1  1
 27 29  1  0
 29 30  1  0
 30 31  1  0
 31 32  1  1
  7  5  1  0
 31 10  1  0
 31 13  1  0
 27 15  1  0
 24 18  1  0
  1 33  1  0
  1 34  1  0
  1 35  1  0
  2 36  1  1
  3 37  1  0
  3 38  1  0
  4 39  1  0
  4 40  1  0
  5 41  1  6
  8 42  1  0
  8 43  1  0
  8 44  1  0
  9 45  1  0
  9 46  1  0
  9 47  1  0
 10 48  1  6
 11 49  1  0
 11 50  1  0
 12 51  1  0
 12 52  1  0
 14 53  1  0
 14 54  1  0
 14 55  1  0
 15 56  1  1
 16 57  1  0
 16 58  1  0
 17 59  1  0
 19 60  1  6
 20 61  1  0
 20 62  1  0
 21 63  1  0
 21 64  1  0
 22 65  1  6
 23 66  1  0
 25 67  1  0
 25 68  1  0
 25 69  1  0
 26 70  1  0
 26 71  1  0
 26 72  1  0
 28 73  1  0
 28 74  1  0
 28 75  1  0
 29 76  1  0
 29 77  1  0
 30 78  1  0
 30 79  1  0
 32 80  1  0
 32 81  1  0
 32 82  1  0
M  END
>  <meeko>  (14) 
{"is_sidechain": [false], "intermolecular_energy": 2.731, "internal_energy": -0.839}

$$$$
EPH_relaxed_0001_pdb2pqr_Repair_371_r2_0001_out
     RDKit          3D

 82 86  0  0  0  0  0  0  0  0999 V2000
    3.0990   14.8270   -7.5590 C   0  0  0  0  0  0  0  0  0  0  0  0
    1.5760   14.8690   -7.4060 C   0  0  2  0  0  0  0  0  0  0  0  0
    0.9590   16.1140   -8.0750 C   0  0  0  0  0  0  0  0  0  0  0  0
    1.8860   16.7910   -9.0880 C   0  0  0  0  0  0  0  0  0  0  0  0
    1.5610   16.3880  -10.4940 C   0  0  2  0  0  0  0  0  0  0  0  0
    0.9850   15.0820  -10.6240 O   0  0  0  0  0  0  0  0  0  0  0  0
    2.2740   15.2700  -11.2300 C   0  0  0  0  0  0  0  0  0  0  0  0
    3.3710   14.4850  -10.5830 C   0  0  0  0  0  0  0  0  0  0  0  0
    2.2430   15.2650  -12.7270 C   0  0  0  0  0  0  0  0  0  0  0  0
    1.2010   14.8320   -5.9290 C   0  0  1  0  0  0  0  0  0  0  0  0
   -0.0500   15.6920   -5.6090 C   0  0  0  0  0  0  0  0  0  0  0  0
   -0.8230   14.9560   -4.4840 C   0  0  0  0  0  0  0  0  0  0  0  0
    0.1660   13.8850   -3.9680 C   0  0  1  0  0  0  0  0  0  0  0  0
    1.1110   14.6500   -2.9900 C   0  0  0  0  0  0  0  0  0  0  0  0
   -0.4700   12.6270   -3.2900 C   0  0  2  0  0  0  0  0  0  0  0  0
   -1.2780   12.9130   -2.0130 C   0  0  0  0  0  0  0  0  0  0  0  0
   -0.5000   12.8570   -0.7400 C   0  0  0  0  0  0  0  0  0  0  0  0
    0.7230   12.3140   -0.5940 C   0  0  0  0  0  0  0  0  0  0  0  0
    1.4080   11.5910   -1.7600 C   0  0  1  0  0  0  0  0  0  0  0  0
    1.9950   10.2440   -1.2610 C   0  0  0  0  0  0  0  0  0  0  0  0
    2.9190   10.4180   -0.0600 C   0  0  0  0  0  0  0  0  0  0  0  0
    2.1850   11.0880    1.0990 C   0  0  2  0  0  0  0  0  0  0  0  0
    1.1740   10.1980    1.5810 O   0  0  0  0  0  0  0  0  0  0  0  0
    1.5430   12.4500    0.7130 C   0  0  0  0  0  0  0  0  0  0  0  0
    2.6550   13.5030    0.4820 C   0  0  0  0  0  0  0  0  0  0  0  0
    0.7170   12.9500    1.9290 C   0  0  0  0  0  0  0  0  0  0  0  0
    0.5380   11.4260   -3.0800 C   0  0  1  0  0  0  0  0  0  0  0  0
   -0.3260   10.1310   -2.9890 C   0  0  0  0  0  0  0  0  0  0  0  0
    1.5020   11.2310   -4.3100 C   0  0  0  0  0  0  0  0  0  0  0  0
    2.0010   12.5090   -5.0110 C   0  0  0  0  0  0  0  0  0  0  0  0
    0.8360   13.4530   -5.3230 C   0  0  2  0  0  0  0  0  0  0  0  0
   -0.1210   12.7190   -6.3220 C   0  0  0  0  0  0  0  0  0  0  0  0
    3.5673   14.8141   -6.5637 H   0  0  0  0  0  0  0  0  0  0  0  0
    3.3871   13.9206   -8.1116 H   0  0  0  0  0  0  0  0  0  0  0  0
    3.4367   15.7162   -8.1116 H   0  0  0  0  0  0  0  0  0  0  0  0
    1.1678   13.9839   -7.9158 H   0  0  0  0  0  0  0  0  0  0  0  0
    0.0394   15.8087   -8.5957 H   0  0  0  0  0  0  0  0  0  0  0  0
    0.7659   16.8457   -7.2766 H   0  0  0  0  0  0  0  0  0  0  0  0
    1.7782   17.8818   -8.9961 H   0  0  0  0  0  0  0  0  0  0  0  0
    2.9176   16.4766   -8.8715 H   0  0  0  0  0  0  0  0  0  0  0  0
    1.3453   17.4312  -10.7681 H   0  0  0  0  0  0  0  0  0  0  0  0
    3.2751   14.5536   -9.4893 H   0  0  0  0  0  0  0  0  0  0  0  0
    3.2996   13.4317  -10.8920 H   0  0  0  0  0  0  0  0  0  0  0  0
    4.3449   14.8925  -10.8920 H   0  0  0  0  0  0  0  0  0  0  0  0
    1.2118   15.0987  -13.0718 H   0  0  0  0  0  0  0  0  0  0  0  0
    2.6042   16.2330  -13.1045 H   0  0  0  0  0  0  0  0  0  0  0  0
    2.8902   14.4596  -13.1045 H   0  0  0  0  0  0  0  0  0  0  0  0
    2.1404   15.1993   -5.4902 H   0  0  0  0  0  0  0  0  0  0  0  0
    0.2551   16.6921   -5.2672 H   0  0  0  0  0  0  0  0  0  0  0  0
   -0.6796   15.8209   -6.5017 H   0  0  0  0  0  0  0  0  0  0  0  0
   -1.0946   15.6541   -3.6785 H   0  0  0  0  0  0  0  0  0  0  0  0
   -1.7646   14.5157   -4.8438 H   0  0  0  0  0  0  0  0  0  0  0  0
    0.8278   14.4208   -1.9521 H   0  0  0  0  0  0  0  0  0  0  0  0
    2.1508   14.3362   -3.1642 H   0  0  0  0  0  0  0  0  0  0  0  0
    1.0206   15.7323   -3.1642 H   0  0  0  0  0  0  0  0  0  0  0  0
   -1.2046   12.2997   -4.0405 H   0  0  0  0  0  0  0  0  0  0  0  0
   -1.7105   13.9204   -2.1030 H   0  0  0  0  0  0  0  0  0  0  0  0
   -2.0315   12.1145   -1.9445 H   0  0  0  0  0  0  0  0  0  0  0  0
   -0.9656   13.2967    0.1543 H   0  0  0  0  0  0  0  0  0  0  0  0
    2.2218   12.2523   -2.0924 H   0  0  0  0  0  0  0  0  0  0  0  0
    1.1646    9.5821   -0.9741 H   0  0  0  0  0  0  0  0  0  0  0  0
    2.5899    9.8149   -2.0807 H   0  0  0  0  0  0  0  0  0  0  0  0
    3.2784    9.4302    0.2641 H   0  0  0  0  0  0  0  0  0  0  0  0
    3.7646   11.0560   -0.3565 H   0  0  0  0  0  0  0  0  0  0  0  0
    2.9292   11.3032    1.8800 H   0  0  0  0  0  0  0  0  0  0  0  0
    1.5440    9.7130    2.3380 H   0  0  0  0  0  0  0  0  0  0  0  0
    3.0306   13.8586    1.4528 H   0  0  0  0  0  0  0  0  0  0  0  0
    3.4797   13.0470   -0.0854 H   0  0  0  0  0  0  0  0  0  0  0  0
    2.2446   14.3513   -0.0854 H   0  0  0  0  0  0  0  0  0  0  0  0
    1.2168   12.6475    2.8611 H   0  0  0  0  0  0  0  0  0  0  0  0
    0.6396   14.0467    1.8937 H   0  0  0  0  0  0  0  0  0  0  0  0
   -0.2906   12.5100    1.8937 H   0  0  0  0  0  0  0  0  0  0  0  0
   -0.4956    9.8769   -1.9323 H   0  0  0  0  0  0  0  0  0  0  0  0
   -1.2931   10.2998   -3.4853 H   0  0  0  0  0  0  0  0  0  0  0  0
    0.2012    9.3029   -3.4853 H   0  0  0  0  0  0  0  0  0  0  0  0
    2.3853   10.6790   -3.9563 H   0  0  0  0  0  0  0  0  0  0  0  0
    0.9012   10.7040   -5.0659 H   0  0  0  0  0  0  0  0  0  0  0  0
    2.7159   13.0247   -4.3530 H   0  0  0  0  0  0  0  0  0  0  0  0
    2.4850   12.2243   -5.9569 H   0  0  0  0  0  0  0  0  0  0  0  0
   -0.8700   12.1445   -5.7572 H   0  0  0  0  0  0  0  0  0  0  0  0
   -0.6292   13.4611   -6.9552 H   0  0  0  0  0  0  0  0  0  0  0  0
    0.4640   12.0358   -6.9552 H   0  0  0  0  0  0  0  0  0  0  0  0
  1  2  1  0
  2  3  1  0
  3  4  1  0
  4  5  1  0
  5  6  1  0
  6  7  1  0
  7  8  1  0
  7  9  1  0
  2 10  1  0
 10 11  1  0
 11 12  1  0
 12 13  1  0
 13 14  1  1
 13 15  1  0
 15 16  1  0
 16 17  1  0
 17 18  2  0
 18 19  1  0
 19 20  1  0
 20 21  1  0
 21 22  1  0
 22 23  1  0
 22 24  1  0
 24 25  1  0
 24 26  1  0
 19 27  1  0
 27 28  1  1
 27 29  1  0
 29 30  1  0
 30 31  1  0
 31 32  1  6
  7  5  1  0
 31 10  1  0
 31 13  1  0
 27 15  1  0
 24 18  1  0
  1 33  1  0
  1 34  1  0
  1 35  1  0
  2 36  1  6
  3 37  1  0
  3 38  1  0
  4 39  1  0
  4 40  1  0
  5 41  1  6
  8 42  1  0
  8 43  1  0
  8 44  1  0
  9 45  1  0
  9 46  1  0
  9 47  1  0
 10 48  1  1
 11 49  1  0
 11 50  1  0
 12 51  1  0
 12 52  1  0
 14 53  1  0
 14 54  1  0
 14 55  1  0
 15 56  1  6
 16 57  1  0
 16 58  1  0
 17 59  1  0
 19 60  1  6
 20 61  1  0
 20 62  1  0
 21 63  1  0
 21 64  1  0
 22 65  1  1
 23 66  1  0
 25 67  1  0
 25 68  1  0
 25 69  1  0
 26 70  1  0
 26 71  1  0
 26 72  1  0
 28 73  1  0
 28 74  1  0
 28 75  1  0
 29 76  1  0
 29 77  1  0
 30 78  1  0
 30 79  1  0
 32 80  1  0
 32 81  1  0
 32 82  1  0
M  END
>  <meeko>  (15) 
{"is_sidechain": [false], "intermolecular_energy": 2.731, "internal_energy": -0.839}

$$$$
EPH_relaxed_0001_pdb2pqr_Repair_371_r2_0001_out
     RDKit          3D

 82 86  0  0  0  0  0  0  0  0999 V2000
    0.9620   15.0030   -2.6720 C   0  0  0  0  0  0  0  0  0  0  0  0
    1.2200   14.3400   -4.0280 C   0  0  2  0  0  0  0  0  0  0  0  0
    0.4870   15.0610   -5.1770 C   0  0  0  0  0  0  0  0  0  0  0  0
    0.9640   14.6430   -6.5700 C   0  0  0  0  0  0  0  0  0  0  0  0
    0.7770   15.7410   -7.5730 C   0  0  2  0  0  0  0  0  0  0  0  0
    0.4030   15.2970   -8.8840 O   0  0  0  0  0  0  0  0  0  0  0  0
    1.6830   15.9410   -8.7730 C   0  0  0  0  0  0  0  0  0  0  0  0
    2.8450   15.0350   -9.0340 C   0  0  0  0  0  0  0  0  0  0  0  0
    1.7340   17.2940   -9.4130 C   0  0  0  0  0  0  0  0  0  0  0  0
    0.7980   12.8760   -3.9790 C   0  0  1  0  0  0  0  0  0  0  0  0
    1.9420   11.9100   -4.3860 C   0  0  0  0  0  0  0  0  0  0  0  0
    1.7800   10.6340   -3.5200 C   0  0  0  0  0  0  0  0  0  0  0  0
    0.3730   10.7660   -2.8910 C   0  0  1  0  0  0  0  0  0  0  0  0
   -0.6110   10.2880   -4.0040 C   0  0  0  0  0  0  0  0  0  0  0  0
    0.1420   10.0000   -1.5480 C   0  0  2  0  0  0  0  0  0  0  0  0
    0.2740    8.4700   -1.6390 C   0  0  0  0  0  0  0  0  0  0  0  0
   -0.9900    7.7380   -1.9480 C   0  0  0  0  0  0  0  0  0  0  0  0
   -2.2320    8.2510   -1.8660 C   0  0  0  0  0  0  0  0  0  0  0  0
   -2.4630    9.6700   -1.3300 C   0  0  1  0  0  0  0  0  0  0  0  0
   -3.6280    9.6530   -0.3060 C   0  0  0  0  0  0  0  0  0  0  0  0
   -4.8990    9.0300   -0.8750 C   0  0  0  0  0  0  0  0  0  0  0  0
   -4.6420    7.5990   -1.3430 C   0  0  2  0  0  0  0  0  0  0  0  0
   -4.3520    6.7860   -0.2020 O   0  0  0  0  0  0  0  0  0  0  0  0
   -3.4820    7.4900   -2.3710 C   0  0  0  0  0  0  0  0  0  0  0  0
   -3.9200    8.1160   -3.7180 C   0  0  0  0  0  0  0  0  0  0  0  0
   -3.2340    5.9840   -2.6530 C   0  0  0  0  0  0  0  0  0  0  0  0
   -1.1760   10.4220   -0.7790 C   0  0  1  0  0  0  0  0  0  0  0  0
   -0.9510   10.0610    0.7210 C   0  0  0  0  0  0  0  0  0  0  0  0
   -1.4270   11.9750   -0.8300 C   0  0  0  0  0  0  0  0  0  0  0  0
   -1.0670   12.6950   -2.1440 C   0  0  0  0  0  0  0  0  0  0  0  0
    0.3420   12.3130   -2.6100 C   0  0  2  0  0  0  0  0  0  0  0  0
    1.3550   12.8020   -1.5190 C   0  0  0  0  0  0  0  0  0  0  0  0
    1.2333   14.3059   -1.8655 H   0  0  0  0  0  0  0  0  0  0  0  0
    1.5707   15.9154   -2.5882 H   0  0  0  0  0  0  0  0  0  0  0  0
   -0.1033   15.2640   -2.5882 H   0  0  0  0  0  0  0  0  0  0  0  0
    2.2990   14.4101   -4.2301 H   0  0  0  0  0  0  0  0  0  0  0  0
   -0.5874   14.8390   -5.0968 H   0  0  0  0  0  0  0  0  0  0  0  0
    0.7030   16.1345   -5.0722 H   0  0  0  0  0  0  0  0  0  0  0  0
    2.0322   14.3854   -6.5185 H   0  0  0  0  0  0  0  0  0  0  0  0
    0.3649   13.7786   -6.8924 H   0  0  0  0  0  0  0  0  0  0  0  0
    0.4282   16.4295   -6.7892 H   0  0  0  0  0  0  0  0  0  0  0  0
    3.2724   14.7018   -8.0768 H   0  0  0  0  0  0  0  0  0  0  0  0
    2.5062   14.1603   -9.6086 H   0  0  0  0  0  0  0  0  0  0  0  0
    3.6107   15.5769   -9.6086 H   0  0  0  0  0  0  0  0  0  0  0  0
    1.7632   18.0681   -8.6321 H   0  0  0  0  0  0  0  0  0  0  0  0
    2.6356   17.3700  -10.0385 H   0  0  0  0  0  0  0  0  0  0  0  0
    0.8406   17.4377  -10.0385 H   0  0  0  0  0  0  0  0  0  0  0  0
   -0.0527   12.9064   -4.6757 H   0  0  0  0  0  0  0  0  0  0  0  0
    1.8616   11.6561   -5.4533 H   0  0  0  0  0  0  0  0  0  0  0  0
    2.9264   12.3739   -4.2252 H   0  0  0  0  0  0  0  0  0  0  0  0
    1.8432    9.7304   -4.1441 H   0  0  0  0  0  0  0  0  0  0  0  0
    2.5700   10.5423   -2.7600 H   0  0  0  0  0  0  0  0  0  0  0  0
   -1.5075    9.8525   -3.5385 H   0  0  0  0  0  0  0  0  0  0  0  0
   -0.9020   11.1452   -4.6290 H   0  0  0  0  0  0  0  0  0  0  0  0
   -0.1171    9.5294   -4.6290 H   0  0  0  0  0  0  0  0  0  0  0  0
    0.9908   10.3373   -0.9350 H   0  0  0  0  0  0  0  0  0  0  0  0
    1.0029    8.2382   -2.4295 H   0  0  0  0  0  0  0  0  0  0  0  0
    0.5851    8.1315   -0.6397 H   0  0  0  0  0  0  0  0  0  0  0  0
   -0.8987    6.6902   -2.2701 H   0  0  0  0  0  0  0  0  0  0  0  0
   -2.7402   10.2825   -2.2006 H   0  0  0  0  0  0  0  0  0  0  0  0
   -3.3148    9.0729    0.5746 H   0  0  0  0  0  0  0  0  0  0  0  0
   -3.8566   10.6965   -0.0435 H   0  0  0  0  0  0  0  0  0  0  0  0
   -5.6753    9.0202   -0.0958 H   0  0  0  0  0  0  0  0  0  0  0  0
   -5.2280    9.6282   -1.7375 H   0  0  0  0  0  0  0  0  0  0  0  0
   -5.5502    7.2519   -1.8574 H   0  0  0  0  0  0  0  0  0  0  0  0
   -5.1880    6.3960    0.1020 H   0  0  0  0  0  0  0  0  0  0  0  0
   -4.5409    9.0033   -3.5253 H   0  0  0  0  0  0  0  0  0  0  0  0
   -3.0292    8.4096   -4.2928 H   0  0  0  0  0  0  0  0  0  0  0  0
   -4.5010    7.3798   -4.2928 H   0  0  0  0  0  0  0  0  0  0  0  0
   -3.1448    5.4423   -1.6998 H   0  0  0  0  0  0  0  0  0  0  0  0
   -4.0769    5.5753   -3.2295 H   0  0  0  0  0  0  0  0  0  0  0  0
   -2.3045    5.8671   -3.2295 H   0  0  0  0  0  0  0  0  0  0  0  0
   -1.4258   10.8229    1.3567 H   0  0  0  0  0  0  0  0  0  0  0  0
   -1.3964    9.0777    0.9323 H   0  0  0  0  0  0  0  0  0  0  0  0
    0.1280   10.0278    0.9323 H   0  0  0  0  0  0  0  0  0  0  0  0
   -2.4969   12.1454   -0.6397 H   0  0  0  0  0  0  0  0  0  0  0  0
   -0.7504   12.4005   -0.0743 H   0  0  0  0  0  0  0  0  0  0  0  0
   -1.7924   12.4108   -2.9206 H   0  0  0  0  0  0  0  0  0  0  0  0
   -1.0964   13.7806   -1.9688 H   0  0  0  0  0  0  0  0  0  0  0  0
    0.9418   12.6025   -0.5193 H   0  0  0  0  0  0  0  0  0  0  0  0
    2.3076   12.2645   -1.6359 H   0  0  0  0  0  0  0  0  0  0  0  0
    1.5267   13.8822   -1.6359 H   0  0  0  0  0  0  0  0  0  0  0  0
  1  2  1  0
  2  3  1  0
  3  4  1  0
  4  5  1  0
  5  6  1  0
  6  7  1  0
  7  8  1  0
  7  9  1  0
  2 10  1  0
 10 11  1  0
 11 12  1  0
 12 13  1  0
 13 14  1  6
 13 15  1  0
 15 16  1  0
 16 17  1  0
 17 18  2  0
 18 19  1  0
 19 20  1  0
 20 21  1  0
 21 22  1  0
 22 23  1  0
 22 24  1  0
 24 25  1  0
 24 26  1  0
 19 27  1  0
 27 28  1  1
 27 29  1  0
 29 30  1  0
 30 31  1  0
 31 32  1  1
  7  5  1  0
 31 10  1  0
 31 13  1  0
 27 15  1  0
 24 18  1  0
  1 33  1  0
  1 34  1  0
  1 35  1  0
  2 36  1  6
  3 37  1  0
  3 38  1  0
  4 39  1  0
  4 40  1  0
  5 41  1  1
  8 42  1  0
  8 43  1  0
  8 44  1  0
  9 45  1  0
  9 46  1  0
  9 47  1  0
 10 48  1  6
 11 49  1  0
 11 50  1  0
 12 51  1  0
 12 52  1  0
 14 53  1  0
 14 54  1  0
 14 55  1  0
 15 56  1  1
 16 57  1  0
 16 58  1  0
 17 59  1  0
 19 60  1  6
 20 61  1  0
 20 62  1  0
 21 63  1  0
 21 64  1  0
 22 65  1  6
 23 66  1  0
 25 67  1  0
 25 68  1  0
 25 69  1  0
 26 70  1  0
 26 71  1  0
 26 72  1  0
 28 73  1  0
 28 74  1  0
 28 75  1  0
 29 76  1  0
 29 77  1  0
 30 78  1  0
 30 79  1  0
 32 80  1  0
 32 81  1  0
 32 82  1  0
M  END
>  <meeko>  (16) 
{"is_sidechain": [false], "intermolecular_energy": 2.731, "internal_energy": -0.839}

$$$$
EPH_relaxed_0001_pdb2pqr_Repair_371_r2_0001_out
     RDKit          3D

 82 86  0  0  0  0  0  0  0  0999 V2000
    1.2870   19.8690   -1.7760 C   0  0  0  0  0  0  0  0  0  0  0  0
    1.5360   19.4790   -0.3160 C   0  0  2  0  0  0  0  0  0  0  0  0
    3.0110   19.6660    0.0920 C   0  0  0  0  0  0  0  0  0  0  0  0
    3.2830   19.3730    1.5700 C   0  0  0  0  0  0  0  0  0  0  0  0
    4.6650   18.8330    1.7820 C   0  0  2  0  0  0  0  0  0  0  0  0
    4.8080   17.9910    2.9330 O   0  0  0  0  0  0  0  0  0  0  0  0
    5.5450   19.2240    2.9550 C   0  0  0  0  0  0  0  0  0  0  0  0
    5.0750   20.1950    3.9930 C   0  0  0  0  0  0  0  0  0  0  0  0
    7.0260   19.0440    2.8310 C   0  0  0  0  0  0  0  0  0  0  0  0
    1.1120   18.0330   -0.0850 C   0  0  1  0  0  0  0  0  0  0  0  0
   -0.2830   17.9200    0.5870 C   0  0  0  0  0  0  0  0  0  0  0  0
   -0.9620   16.6570   -0.0010 C   0  0  0  0  0  0  0  0  0  0  0  0
    0.1760   15.9070   -0.7320 C   0  0  1  0  0  0  0  0  0  0  0  0
    0.9320   15.1310    0.3910 C   0  0  0  0  0  0  0  0  0  0  0  0
   -0.2580   14.9590   -1.8970 C   0  0  2  0  0  0  0  0  0  0  0  0
   -1.1570   13.7820   -1.4800 C   0  0  0  0  0  0  0  0  0  0  0  0
   -0.4350   12.5300   -1.1050 C   0  0  0  0  0  0  0  0  0  0  0  0
    0.8560   12.2620   -1.3720 C   0  0  0  0  0  0  0  0  0  0  0  0
    1.7050   13.2300   -2.2060 C   0  0  1  0  0  0  0  0  0  0  0  0
    2.4970   12.4340   -3.2770 C   0  0  0  0  0  0  0  0  0  0  0  0
    3.3250   11.3040   -2.6730 C   0  0  0  0  0  0  0  0  0  0  0  0
    2.4380   10.3310   -1.9000 C   0  0  2  0  0  0  0  0  0  0  0  0
    1.5770    9.6580   -2.8250 O   0  0  0  0  0  0  0  0  0  0  0  0
    1.5840   11.0210   -0.8000 C   0  0  0  0  0  0  0  0  0  0  0  0
    2.5040   11.4870    0.3560 C   0  0  0  0  0  0  0  0  0  0  0  0
    0.6330    9.9540   -0.1940 C   0  0  0  0  0  0  0  0  0  0  0  0
    0.9340   14.4770   -2.8190 C   0  0  1  0  0  0  0  0  0  0  0  0
    0.3060   14.0910   -4.1940 C   0  0  0  0  0  0  0  0  0  0  0  0
    1.9680   15.6280   -3.1110 C   0  0  0  0  0  0  0  0  0  0  0  0
    2.2650   16.6040   -1.9570 C   0  0  0  0  0  0  0  0  0  0  0  0
    0.9670   17.1260   -1.3320 C   0  0  2  0  0  0  0  0  0  0  0  0
    0.1960   17.9300   -2.4330 C   0  0  0  0  0  0  0  0  0  0  0  0
    0.6954   20.7956   -1.8122 H   0  0  0  0  0  0  0  0  0  0  0  0
    2.2504   20.0291   -2.2822 H   0  0  0  0  0  0  0  0  0  0  0  0
    0.7364   19.0624   -2.2822 H   0  0  0  0  0  0  0  0  0  0  0  0
    0.9318   20.1494    0.3129 H   0  0  0  0  0  0  0  0  0  0  0  0
    3.6280   18.9878   -0.5157 H   0  0  0  0  0  0  0  0  0  0  0  0
    3.2594   20.7242   -0.0768 H   0  0  0  0  0  0  0  0  0  0  0  0
    3.1720   20.3044    2.1445 H   0  0  0  0  0  0  0  0  0  0  0  0
    2.5622   18.6138    1.9078 H   0  0  0  0  0  0  0  0  0  0  0  0
    4.8483   18.8100    0.6976 H   0  0  0  0  0  0  0  0  0  0  0  0
    5.2732   19.7856    4.9945 H   0  0  0  0  0  0  0  0  0  0  0  0
    5.6117   21.1477    3.8736 H   0  0  0  0  0  0  0  0  0  0  0  0
    3.9948   20.3651    3.8736 H   0  0  0  0  0  0  0  0  0  0  0  0
    7.4740   18.9895    3.8342 H   0  0  0  0  0  0  0  0  0  0  0  0
    7.2377   18.1135    2.2839 H   0  0  0  0  0  0  0  0  0  0  0  0
    7.4545   19.8967    2.2839 H   0  0  0  0  0  0  0  0  0  0  0  0
    1.9548   17.6906    0.5333 H   0  0  0  0  0  0  0  0  0  0  0  0
   -0.1714   17.8175    1.6765 H   0  0  0  0  0  0  0  0  0  0  0  0
   -0.8876   18.8187    0.3952 H   0  0  0  0  0  0  0  0  0  0  0  0
   -1.3849   16.0343    0.8012 H   0  0  0  0  0  0  0  0  0  0  0  0
   -1.7963   16.9065   -0.6731 H   0  0  0  0  0  0  0  0  0  0  0  0
    0.5888   15.4833    1.3749 H   0  0  0  0  0  0  0  0  0  0  0  0
    0.7267   14.0546    0.2949 H   0  0  0  0  0  0  0  0  0  0  0  0
    2.0134   15.3081    0.2949 H   0  0  0  0  0  0  0  0  0  0  0  0
   -0.8913   15.6157   -2.5115 H   0  0  0  0  0  0  0  0  0  0  0  0
   -1.7556   14.1015   -0.6142 H   0  0  0  0  0  0  0  0  0  0  0  0
   -1.7609   13.5318   -2.3647 H   0  0  0  0  0  0  0  0  0  0  0  0
   -1.0073   11.7616   -0.5646 H   0  0  0  0  0  0  0  0  0  0  0  0
    2.4038   13.7052   -1.5018 H   0  0  0  0  0  0  0  0  0  0  0  0
    1.7837   12.0034   -3.9952 H   0  0  0  0  0  0  0  0  0  0  0  0
    3.1921   13.1326   -3.7657 H   0  0  0  0  0  0  0  0  0  0  0  0
    3.8364   10.7607   -3.4812 H   0  0  0  0  0  0  0  0  0  0  0  0
    4.0584   11.7387   -1.9779 H   0  0  0  0  0  0  0  0  0  0  0  0
    3.1003    9.6207   -1.3834 H   0  0  0  0  0  0  0  0  0  0  0  0
    0.8150   10.2380   -2.9930 H   0  0  0  0  0  0  0  0  0  0  0  0
    2.0314   11.2476    1.3200 H   0  0  0  0  0  0  0  0  0  0  0  0
    3.4728   10.9709    0.2844 H   0  0  0  0  0  0  0  0  0  0  0  0
    2.6611   12.5734    0.2844 H   0  0  0  0  0  0  0  0  0  0  0  0
    0.6777   10.0042    0.9039 H   0  0  0  0  0  0  0  0  0  0  0  0
   -0.3968   10.1485   -0.5283 H   0  0  0  0  0  0  0  0  0  0  0  0
    0.9442    8.9533   -0.5283 H   0  0  0  0  0  0  0  0  0  0  0  0
   -0.6203   13.5217   -4.0271 H   0  0  0  0  0  0  0  0  0  0  0  0
    0.0774   15.0048   -4.7622 H   0  0  0  0  0  0  0  0  0  0  0  0
    1.0181   13.4744   -4.7622 H   0  0  0  0  0  0  0  0  0  0  0  0
    2.9184   15.1560   -3.4005 H   0  0  0  0  0  0  0  0  0  0  0  0
    1.5009   16.2425   -3.8947 H   0  0  0  0  0  0  0  0  0  0  0  0
    2.8510   16.0821   -1.1862 H   0  0  0  0  0  0  0  0  0  0  0  0
    2.8299   17.4588   -2.3573 H   0  0  0  0  0  0  0  0  0  0  0  0
   -0.4891   18.6444   -1.9531 H   0  0  0  0  0  0  0  0  0  0  0  0
    0.9160   18.4768   -3.0596 H   0  0  0  0  0  0  0  0  0  0  0  0
   -0.3804   17.2335   -3.0596 H   0  0  0  0  0  0  0  0  0  0  0  0
  1  2  1  0
  2  3  1  0
  3  4  1  0
  4  5  1  0
  5  6  1  0
  6  7  1  0
  7  8  1  0
  7  9  1  0
  2 10  1  0
 10 11  1  0
 11 12  1  0
 12 13  1  0
 13 14  1  1
 13 15  1  0
 15 16  1  0
 16 17  1  0
 17 18  2  0
 18 19  1  0
 19 20  1  0
 20 21  1  0
 21 22  1  0
 22 23  1  0
 22 24  1  0
 24 25  1  0
 24 26  1  0
 19 27  1  0
 27 28  1  6
 27 29  1  0
 29 30  1  0
 30 31  1  0
 31 32  1  6
  7  5  1  0
 31 10  1  0
 31 13  1  0
 27 15  1  0
 24 18  1  0
  1 33  1  0
  1 34  1  0
  1 35  1  0
  2 36  1  1
  3 37  1  0
  3 38  1  0
  4 39  1  0
  4 40  1  0
  5 41  1  6
  8 42  1  0
  8 43  1  0
  8 44  1  0
  9 45  1  0
  9 46  1  0
  9 47  1  0
 10 48  1  1
 11 49  1  0
 11 50  1  0
 12 51  1  0
 12 52  1  0
 14 53  1  0
 14 54  1  0
 14 55  1  0
 15 56  1  6
 16 57  1  0
 16 58  1  0
 17 59  1  0
 19 60  1  1
 20 61  1  0
 20 62  1  0
 21 63  1  0
 21 64  1  0
 22 65  1  1
 23 66  1  0
 25 67  1  0
 25 68  1  0
 25 69  1  0
 26 70  1  0
 26 71  1  0
 26 72  1  0
 28 73  1  0
 28 74  1  0
 28 75  1  0
 29 76  1  0
 29 77  1  0
 30 78  1  0
 30 79  1  0
 32 80  1  0
 32 81  1  0
 32 82  1  0
M  END
>  <meeko>  (17) 
{"is_sidechain": [false], "intermolecular_energy": 2.731, "internal_energy": -0.839}

$$$$
