EPH_relaxed_0001_pdb2pqr_Repair_343_r2_0001_out
     RDKit          3D

 82 86  0  0  0  0  0  0  0  0999 V2000
   -4.8840   11.2210    0.1750 C   0  0  0  0  0  0  0  0  0  0  0  0
   -3.5370   10.6600   -0.2930 C   0  0  2  0  0  0  0  0  0  0  0  0
   -3.2630    9.2550    0.2790 C   0  0  0  0  0  0  0  0  0  0  0  0
   -3.6070    8.1190   -0.6890 C   0  0  0  0  0  0  0  0  0  0  0  0
   -5.0880    7.9700   -0.8660 C   0  0  2  0  0  0  0  0  0  0  0  0
   -5.5850    6.6420   -0.6590 O   0  0  0  0  0  0  0  0  0  0  0  0
   -5.7200    7.1690   -1.9890 C   0  0  0  0  0  0  0  0  0  0  0  0
   -4.8840    6.4650   -3.0110 C   0  0  0  0  0  0  0  0  0  0  0  0
   -7.1340    7.4730   -2.3760 C   0  0  0  0  0  0  0  0  0  0  0  0
   -2.4130   11.6110    0.1020 C   0  0  1  0  0  0  0  0  0  0  0  0
   -1.5710   11.0790    1.2920 C   0  0  0  0  0  0  0  0  0  0  0  0
   -0.1100   11.5350    1.0440 C   0  0  0  0  0  0  0  0  0  0  0  0
   -0.2150   12.5830   -0.0880 C   0  0  1  0  0  0  0  0  0  0  0  0
   -0.6390   13.9040    0.6260 C   0  0  0  0  0  0  0  0  0  0  0  0
    1.0650   12.7850   -0.9630 C   0  0  2  0  0  0  0  0  0  0  0  0
    2.2990   13.3040   -0.2040 C   0  0  0  0  0  0  0  0  0  0  0  0
    2.4400   14.7890   -0.1550 C   0  0  0  0  0  0  0  0  0  0  0  0
    1.7740   15.6640   -0.9320 C   0  0  0  0  0  0  0  0  0  0  0  0
    0.8420   15.1760   -2.0480 C   0  0  1  0  0  0  0  0  0  0  0  0
    1.1240   15.9780   -3.3460 C   0  0  0  0  0  0  0  0  0  0  0  0
    1.0380   17.4860   -3.1320 C   0  0  0  0  0  0  0  0  0  0  0  0
    2.0210   17.9410   -2.0560 C   0  0  2  0  0  0  0  0  0  0  0  0
    3.3540   17.7460   -2.5380 O   0  0  0  0  0  0  0  0  0  0  0  0
    1.8390   17.1950   -0.7050 C   0  0  0  0  0  0  0  0  0  0  0  0
    0.5160   17.6430   -0.0370 C   0  0  0  0  0  0  0  0  0  0  0  0
    2.9800   17.6450    0.2470 C   0  0  0  0  0  0  0  0  0  0  0  0
    0.8180   13.6060   -2.2940 C   0  0  1  0  0  0  0  0  0  0  0  0
    1.9550   13.2040   -3.2820 C   0  0  0  0  0  0  0  0  0  0  0  0
   -0.5380   13.2160   -2.9940 C   0  0  0  0  0  0  0  0  0  0  0  0
   -1.7340   12.9120   -2.0720 C   0  0  0  0  0  0  0  0  0  0  0  0
   -1.3380   11.9250   -0.9690 C   0  0  2  0  0  0  0  0  0  0  0  0
   -0.9280   10.5780   -1.6560 C   0  0  0  0  0  0  0  0  0  0  0  0
   -4.9139   11.2335    1.2745 H   0  0  0  0  0  0  0  0  0  0  0  0
   -5.0072   12.2452   -0.2068 H   0  0  0  0  0  0  0  0  0  0  0  0
   -5.6978   10.5870   -0.2068 H   0  0  0  0  0  0  0  0  0  0  0  0
   -3.5792   10.5681   -1.3883 H   0  0  0  0  0  0  0  0  0  0  0  0
   -2.1946    9.1849    0.5313 H   0  0  0  0  0  0  0  0  0  0  0  0
   -3.9107    9.1343    1.1599 H   0  0  0  0  0  0  0  0  0  0  0  0
   -3.1510    8.3336   -1.6668 H   0  0  0  0  0  0  0  0  0  0  0  0
   -3.2160    7.1806   -0.2688 H   0  0  0  0  0  0  0  0  0  0  0  0
   -5.2579    8.9950   -0.5048 H   0  0  0  0  0  0  0  0  0  0  0  0
   -4.1373    5.8362   -2.5039 H   0  0  0  0  0  0  0  0  0  0  0  0
   -5.5286    5.8336   -3.6402 H   0  0  0  0  0  0  0  0  0  0  0  0
   -4.3715    7.2076   -3.6402 H   0  0  0  0  0  0  0  0  0  0  0  0
   -7.7424    7.6038   -1.4689 H   0  0  0  0  0  0  0  0  0  0  0  0
   -7.1605    8.3974   -2.9717 H   0  0  0  0  0  0  0  0  0  0  0  0
   -7.5380    6.6412   -2.9717 H   0  0  0  0  0  0  0  0  0  0  0  0
   -3.0027   12.5139    0.3188 H   0  0  0  0  0  0  0  0  0  0  0  0
   -1.9438   11.4991    2.2378 H   0  0  0  0  0  0  0  0  0  0  0  0
   -1.6364    9.9833    1.3640 H   0  0  0  0  0  0  0  0  0  0  0  0
    0.3155   11.9861    1.9525 H   0  0  0  0  0  0  0  0  0  0  0  0
    0.5489   10.6960    0.7758 H   0  0  0  0  0  0  0  0  0  0  0  0
   -0.5936   13.7626    1.7159 H   0  0  0  0  0  0  0  0  0  0  0  0
    0.0440   14.7148    0.3327 H   0  0  0  0  0  0  0  0  0  0  0  0
   -1.6663   14.1659    0.3327 H   0  0  0  0  0  0  0  0  0  0  0  0
    1.3098   11.7555   -1.2635 H   0  0  0  0  0  0  0  0  0  0  0  0
    2.2423   12.9338    0.8303 H   0  0  0  0  0  0  0  0  0  0  0  0
    3.1744   12.9336   -0.7575 H   0  0  0  0  0  0  0  0  0  0  0  0
    3.1478   15.2037    0.5778 H   0  0  0  0  0  0  0  0  0  0  0  0
   -0.1816   15.3779   -1.6995 H   0  0  0  0  0  0  0  0  0  0  0  0
    2.1348   15.7294   -3.7016 H   0  0  0  0  0  0  0  0  0  0  0  0
    0.3561   15.7010   -4.0832 H   0  0  0  0  0  0  0  0  0  0  0  0
    1.2755   17.9978   -4.0763 H   0  0  0  0  0  0  0  0  0  0  0  0
    0.0182   17.7367   -2.8047 H   0  0  0  0  0  0  0  0  0  0  0  0
    1.8225   19.0042   -1.8557 H   0  0  0  0  0  0  0  0  0  0  0  0
    3.7050   18.6160   -2.7930 H   0  0  0  0  0  0  0  0  0  0  0  0
    0.6265   17.6056    1.0568 H   0  0  0  0  0  0  0  0  0  0  0  0
    0.2789   18.6715   -0.3466 H   0  0  0  0  0  0  0  0  0  0  0  0
   -0.2973   16.9702   -0.3466 H   0  0  0  0  0  0  0  0  0  0  0  0
    2.6579   17.5180    1.2911 H   0  0  0  0  0  0  0  0  0  0  0  0
    3.8748   17.0324    0.0622 H   0  0  0  0  0  0  0  0  0  0  0  0
    3.2157   18.7034    0.0622 H   0  0  0  0  0  0  0  0  0  0  0  0
    2.8421   12.8904   -2.7121 H   0  0  0  0  0  0  0  0  0  0  0  0
    1.6132   12.3722   -3.9155 H   0  0  0  0  0  0  0  0  0  0  0  0
    2.2120   14.0658   -3.9155 H   0  0  0  0  0  0  0  0  0  0  0  0
   -0.8267   14.0514   -3.6488 H   0  0  0  0  0  0  0  0  0  0  0  0
   -0.3303   12.2707   -3.5167 H   0  0  0  0  0  0  0  0  0  0  0  0
   -2.0796   13.8485   -1.6100 H   0  0  0  0  0  0  0  0  0  0  0  0
   -2.5364   12.4616   -2.6747 H   0  0  0  0  0  0  0  0  0  0  0  0
   -0.6996    9.8277   -0.8847 H   0  0  0  0  0  0  0  0  0  0  0  0
   -1.7575   10.2187   -2.2828 H   0  0  0  0  0  0  0  0  0  0  0  0
   -0.0390   10.7418   -2.2828 H   0  0  0  0  0  0  0  0  0  0  0  0
  1  2  1  0
  2  3  1  0
  3  4  1  0
  4  5  1  0
  5  6  1  0
  6  7  1  0
  7  8  1  0
  7  9  1  0
  2 10  1  0
 10 11  1  0
 11 12  1  0
 12 13  1  0
 13 14  1  1
 13 15  1  0
 15 16  1  0
 16 17  1  0
 17 18  2  0
 18 19  1  0
 19 20  1  0
 20 21  1  0
 21 22  1  0
 22 23  1  0
 22 24  1  0
 24 25  1  0
 24 26  1  0
 19 27  1  0
 27 28  1  6
 27 29  1  0
 29 30  1  0
 30 31  1  0
 31 32  1  6
  7  5  1  0
 31 10  1  0
 31 13  1  0
 27 15  1  0
 24 18  1  0
  1 33  1  0
  1 34  1  0
  1 35  1  0
  2 36  1  6
  3 37  1  0
  3 38  1  0
  4 39  1  0
  4 40  1  0
  5 41  1  1
  8 42  1  0
  8 43  1  0
  8 44  1  0
  9 45  1  0
  9 46  1  0
  9 47  1  0
 10 48  1  1
 11 49  1  0
 11 50  1  0
 12 51  1  0
 12 52  1  0
 14 53  1  0
 14 54  1  0
 14 55  1  0
 15 56  1  6
 16 57  1  0
 16 58  1  0
 17 59  1  0
 19 60  1  1
 20 61  1  0
 20 62  1  0
 21 63  1  0
 21 64  1  0
 22 65  1  1
 23 66  1  0
 25 67  1  0
 25 68  1  0
 25 69  1  0
 26 70  1  0
 26 71  1  0
 26 72  1  0
 28 73  1  0
 28 74  1  0
 28 75  1  0
 29 76  1  0
 29 77  1  0
 30 78  1  0
 30 79  1  0
 32 80  1  0
 32 81  1  0
 32 82  1  0
M  END
>  <meeko>  (1) 
{"is_sidechain": [false], "intermolecular_energy": 2.731, "internal_energy": -0.839}

$$$$
EPH_relaxed_0001_pdb2pqr_Repair_343_r2_0001_out
     RDKit          3D

 82 86  0  0  0  0  0  0  0  0999 V2000
    2.3280   20.1940   -0.9020 C   0  0  0  0  0  0  0  0  0  0  0  0
    2.1300   19.2330    0.2730 C   0  0  2  0  0  0  0  0  0  0  0  0
    3.4700   18.7100    0.8270 C   0  0  0  0  0  0  0  0  0  0  0  0
    3.7450   19.1310    2.2730 C   0  0  0  0  0  0  0  0  0  0  0  0
    5.2150   19.2300    2.5510 C   0  0  2  0  0  0  0  0  0  0  0  0
    5.7510   18.1520    3.3300 O   0  0  0  0  0  0  0  0  0  0  0  0
    5.7900   19.4540    3.9370 C   0  0  0  0  0  0  0  0  0  0  0  0
    4.9060   19.5940    5.1360 C   0  0  0  0  0  0  0  0  0  0  0  0
    7.1700   20.0220    4.0560 C   0  0  0  0  0  0  0  0  0  0  0  0
    1.2500   18.0640   -0.1540 C   0  0  1  0  0  0  0  0  0  0  0  0
    0.2790   18.4370   -1.3050 C   0  0  0  0  0  0  0  0  0  0  0  0
    0.1380   17.1770   -2.1970 C   0  0  0  0  0  0  0  0  0  0  0  0
    0.7590   16.0340   -1.3600 C   0  0  1  0  0  0  0  0  0  0  0  0
   -0.3670   15.6100   -0.3650 C   0  0  0  0  0  0  0  0  0  0  0  0
    1.3120   14.8110   -2.1610 C   0  0  2  0  0  0  0  0  0  0  0  0
    0.2610   14.0340   -2.9740 C   0  0  0  0  0  0  0  0  0  0  0  0
   -0.3970   12.9060   -2.2510 C   0  0  0  0  0  0  0  0  0  0  0  0
    0.0410   12.3490   -1.1070 C   0  0  0  0  0  0  0  0  0  0  0  0
    1.3660   12.7900   -0.4720 C   0  0  1  0  0  0  0  0  0  0  0  0
    2.1870   11.5390   -0.0640 C   0  0  0  0  0  0  0  0  0  0  0  0
    1.3990   10.5880    0.8320 C   0  0  0  0  0  0  0  0  0  0  0  0
    0.1170   10.1260    0.1430 C   0  0  2  0  0  0  0  0  0  0  0  0
    0.4660    9.3140   -0.9820 O   0  0  0  0  0  0  0  0  0  0  0  0
   -0.7870   11.3020   -0.3210 C   0  0  0  0  0  0  0  0  0  0  0  0
   -1.4080   12.0000    0.9140 C   0  0  0  0  0  0  0  0  0  0  0  0
   -1.9740   10.7030   -1.1240 C   0  0  0  0  0  0  0  0  0  0  0  0
    2.2210   13.8360   -1.3090 C   0  0  1  0  0  0  0  0  0  0  0  0
    3.1380   13.0830   -2.3220 C   0  0  0  0  0  0  0  0  0  0  0  0
    3.1820   14.6130   -0.3340 C   0  0  0  0  0  0  0  0  0  0  0  0
    2.6160   15.8800    0.3360 C   0  0  0  0  0  0  0  0  0  0  0  0
    1.9620   16.8000   -0.6990 C   0  0  2  0  0  0  0  0  0  0  0  0
    3.0750   17.2620   -1.7010 C   0  0  0  0  0  0  0  0  0  0  0  0
    2.5361   21.2038   -0.5187 H   0  0  0  0  0  0  0  0  0  0  0  0
    3.1748   19.8531   -1.5158 H   0  0  0  0  0  0  0  0  0  0  0  0
    1.4154   20.2156   -1.5158 H   0  0  0  0  0  0  0  0  0  0  0  0
    1.6360   19.7940    1.0800 H   0  0  0  0  0  0  0  0  0  0  0  0
    3.4593   17.6110    0.7814 H   0  0  0  0  0  0  0  0  0  0  0  0
    4.2666   19.1482    0.2078 H   0  0  0  0  0  0  0  0  0  0  0  0
    3.2811   20.1120    2.4532 H   0  0  0  0  0  0  0  0  0  0  0  0
    3.3204   18.3661    2.9398 H   0  0  0  0  0  0  0  0  0  0  0  0
    5.3871   19.7366    1.5899 H   0  0  0  0  0  0  0  0  0  0  0  0
    5.5102   19.4983    6.0502 H   0  0  0  0  0  0  0  0  0  0  0  0
    4.4194   20.5804    5.1196 H   0  0  0  0  0  0  0  0  0  0  0  0
    4.1385   18.8062    5.1196 H   0  0  0  0  0  0  0  0  0  0  0  0
    7.4318   20.1297    5.1190 H   0  0  0  0  0  0  0  0  0  0  0  0
    7.8880   19.3463    3.5682 H   0  0  0  0  0  0  0  0  0  0  0  0
    7.2043   21.0074    3.5682 H   0  0  0  0  0  0  0  0  0  0  0  0
    0.7647   17.8375    0.8068 H   0  0  0  0  0  0  0  0  0  0  0  0
   -0.7012   18.7232   -0.8959 H   0  0  0  0  0  0  0  0  0  0  0  0
    0.6621   19.2901   -1.8841 H   0  0  0  0  0  0  0  0  0  0  0  0
   -0.9208   16.9699   -2.4117 H   0  0  0  0  0  0  0  0  0  0  0  0
    0.6349   17.2980   -3.1709 H   0  0  0  0  0  0  0  0  0  0  0  0
   -0.0129   15.7433    0.6679 H   0  0  0  0  0  0  0  0  0  0  0  0
   -1.2572   16.2345   -0.5309 H   0  0  0  0  0  0  0  0  0  0  0  0
   -0.6242   14.5534   -0.5309 H   0  0  0  0  0  0  0  0  0  0  0  0
    1.9673   15.2913   -2.9025 H   0  0  0  0  0  0  0  0  0  0  0  0
   -0.5217   14.7424   -3.2831 H   0  0  0  0  0  0  0  0  0  0  0  0
    0.8024   13.5807   -3.8175 H   0  0  0  0  0  0  0  0  0  0  0  0
   -1.3179   12.4953   -2.6906 H   0  0  0  0  0  0  0  0  0  0  0  0
    1.0965   13.3670    0.4249 H   0  0  0  0  0  0  0  0  0  0  0  0
    2.4841   10.9996   -0.9755 H   0  0  0  0  0  0  0  0  0  0  0  0
    3.0622   11.8854    0.5052 H   0  0  0  0  0  0  0  0  0  0  0  0
    2.0213    9.7102    1.0607 H   0  0  0  0  0  0  0  0  0  0  0  0
    1.1290   11.1193    1.7565 H   0  0  0  0  0  0  0  0  0  0  0  0
   -0.4665    9.5544    0.8798 H   0  0  0  0  0  0  0  0  0  0  0  0
    1.4330    9.3420   -1.0770 H   0  0  0  0  0  0  0  0  0  0  0  0
   -1.0053   11.5473    1.8321 H   0  0  0  0  0  0  0  0  0  0  0  0
   -1.1589   13.0712    0.8936 H   0  0  0  0  0  0  0  0  0  0  0  0
   -2.5009   11.8772    0.8936 H   0  0  0  0  0  0  0  0  0  0  0  0
   -2.7329   10.3200   -0.4258 H   0  0  0  0  0  0  0  0  0  0  0  0
   -2.4195   11.4842   -1.7574 H   0  0  0  0  0  0  0  0  0  0  0  0
   -1.6102    9.8805   -1.7574 H   0  0  0  0  0  0  0  0  0  0  0  0
    3.8739   12.4787   -1.7713 H   0  0  0  0  0  0  0  0  0  0  0  0
    2.5233   12.4256   -2.9544 H   0  0  0  0  0  0  0  0  0  0  0  0
    3.6633   13.8138   -2.9544 H   0  0  0  0  0  0  0  0  0  0  0  0
    3.4781   13.9178    0.4654 H   0  0  0  0  0  0  0  0  0  0  0  0
    4.0091   14.9671   -0.9668 H   0  0  0  0  0  0  0  0  0  0  0  0
    1.8640   15.5868    1.0834 H   0  0  0  0  0  0  0  0  0  0  0  0
    3.4434   16.4232    0.8159 H   0  0  0  0  0  0  0  0  0  0  0  0
    3.9478   17.6243   -1.1380 H   0  0  0  0  0  0  0  0  0  0  0  0
    3.3735   16.4135   -2.3341 H   0  0  0  0  0  0  0  0  0  0  0  0
    2.6849   18.0725   -2.3341 H   0  0  0  0  0  0  0  0  0  0  0  0
  1  2  1  0
  2  3  1  0
  3  4  1  0
  4  5  1  0
  5  6  1  0
  6  7  1  0
  7  8  1  0
  7  9  1  0
  2 10  1  0
 10 11  1  0
 11 12  1  0
 12 13  1  0
 13 14  1  1
 13 15  1  0
 15 16  1  0
 16 17  1  0
 17 18  2  0
 18 19  1  0
 19 20  1  0
 20 21  1  0
 21 22  1  0
 22 23  1  0
 22 24  1  0
 24 25  1  0
 24 26  1  0
 19 27  1  0
 27 28  1  6
 27 29  1  0
 29 30  1  0
 30 31  1  0
 31 32  1  6
  7  5  1  0
 31 10  1  0
 31 13  1  0
 27 15  1  0
 24 18  1  0
  1 33  1  0
  1 34  1  0
  1 35  1  0
  2 36  1  1
  3 37  1  0
  3 38  1  0
  4 39  1  0
  4 40  1  0
  5 41  1  6
  8 42  1  0
  8 43  1  0
  8 44  1  0
  9 45  1  0
  9 46  1  0
  9 47  1  0
 10 48  1  1
 11 49  1  0
 11 50  1  0
 12 51  1  0
 12 52  1  0
 14 53  1  0
 14 54  1  0
 14 55  1  0
 15 56  1  6
 16 57  1  0
 16 58  1  0
 17 59  1  0
 19 60  1  1
 20 61  1  0
 20 62  1  0
 21 63  1  0
 21 64  1  0
 22 65  1  1
 23 66  1  0
 25 67  1  0
 25 68  1  0
 25 69  1  0
 26 70  1  0
 26 71  1  0
 26 72  1  0
 28 73  1  0
 28 74  1  0
 28 75  1  0
 29 76  1  0
 29 77  1  0
 30 78  1  0
 30 79  1  0
 32 80  1  0
 32 81  1  0
 32 82  1  0
M  END
>  <meeko>  (2) 
{"is_sidechain": [false], "intermolecular_energy": 2.731, "internal_energy": -0.839}

$$$$
EPH_relaxed_0001_pdb2pqr_Repair_343_r2_0001_out
     RDKit          3D

 82 86  0  0  0  0  0  0  0  0999 V2000
   -1.4890    8.5820   -1.9110 C   0  0  0  0  0  0  0  0  0  0  0  0
   -1.5990    9.0440   -0.4550 C   0  0  2  0  0  0  0  0  0  0  0  0
   -3.0420    9.4360   -0.0780 C   0  0  0  0  0  0  0  0  0  0  0  0
   -3.1600   10.8370    0.5280 C   0  0  0  0  0  0  0  0  0  0  0  0
   -2.3530   10.9680    1.7840 C   0  0  2  0  0  0  0  0  0  0  0  0
   -3.0460   11.5770    2.8810 O   0  0  0  0  0  0  0  0  0  0  0  0
   -1.9180   12.3010    2.3630 C   0  0  0  0  0  0  0  0  0  0  0  0
   -2.2770   13.5950    1.7010 C   0  0  0  0  0  0  0  0  0  0  0  0
   -0.7430   12.3300    3.2910 C   0  0  0  0  0  0  0  0  0  0  0  0
   -0.6590   10.2180   -0.2100 C   0  0  1  0  0  0  0  0  0  0  0  0
    0.5970    9.8170    0.6080 C   0  0  0  0  0  0  0  0  0  0  0  0
    1.7730   10.6730    0.0700 C   0  0  0  0  0  0  0  0  0  0  0  0
    1.0990   11.7610   -0.7980 C   0  0  1  0  0  0  0  0  0  0  0  0
    0.6130   12.8410    0.2190 C   0  0  0  0  0  0  0  0  0  0  0  0
    1.9790   12.3870   -1.9280 C   0  0  2  0  0  0  0  0  0  0  0  0
    3.2280   13.1410   -1.4400 C   0  0  0  0  0  0  0  0  0  0  0  0
    3.0320   14.5970   -1.1740 C   0  0  0  0  0  0  0  0  0  0  0  0
    1.9830   15.3320   -1.5880 C   0  0  0  0  0  0  0  0  0  0  0  0
    0.9000   14.7240   -2.4880 C   0  0  1  0  0  0  0  0  0  0  0  0
    0.5920   15.6970   -3.6560 C   0  0  0  0  0  0  0  0  0  0  0  0
    0.2280   17.0980   -3.1710 C   0  0  0  0  0  0  0  0  0  0  0  0
    1.3540   17.6910   -2.3280 C   0  0  2  0  0  0  0  0  0  0  0  0
    2.4910   17.9120   -3.1670 O   0  0  0  0  0  0  0  0  0  0  0  0
    1.7580   16.7930   -1.1250 C   0  0  0  0  0  0  0  0  0  0  0  0
    0.6260   16.7990   -0.0680 C   0  0  0  0  0  0  0  0  0  0  0  0
    2.9940   17.4380   -0.4420 C   0  0  0  0  0  0  0  0  0  0  0  0
    1.1660   13.2390   -2.9860 C   0  0  1  0  0  0  0  0  0  0  0  0
    2.0190   13.2590   -4.2910 C   0  0  0  0  0  0  0  0  0  0  0  0
   -0.2080   12.5690   -3.3640 C   0  0  0  0  0  0  0  0  0  0  0  0
   -0.9730   11.8630   -2.2280 C   0  0  0  0  0  0  0  0  0  0  0  0
   -0.0520   10.9150   -1.4540 C   0  0  2  0  0  0  0  0  0  0  0  0
    0.4340    9.8040   -2.4460 C   0  0  0  0  0  0  0  0  0  0  0  0
   -1.2343    7.5122   -1.9380 H   0  0  0  0  0  0  0  0  0  0  0  0
   -2.4506    8.7429   -2.4204 H   0  0  0  0  0  0  0  0  0  0  0  0
   -0.7031    9.1590   -2.4204 H   0  0  0  0  0  0  0  0  0  0  0  0
   -1.3095    8.1968    0.1841 H   0  0  0  0  0  0  0  0  0  0  0  0
   -3.6612    9.3971   -0.9864 H   0  0  0  0  0  0  0  0  0  0  0  0
   -3.3787    8.7239    0.6898 H   0  0  0  0  0  0  0  0  0  0  0  0
   -2.8003   11.5739   -0.2052 H   0  0  0  0  0  0  0  0  0  0  0  0
   -4.2162   11.0138    0.7793 H   0  0  0  0  0  0  0  0  0  0  0  0
   -1.7969   10.0481    1.5503 H   0  0  0  0  0  0  0  0  0  0  0  0
   -2.4875   14.3538    2.4691 H   0  0  0  0  0  0  0  0  0  0  0  0
   -1.4382   13.9311    1.0738 H   0  0  0  0  0  0  0  0  0  0  0  0
   -3.1691   13.4509    1.0738 H   0  0  0  0  0  0  0  0  0  0  0  0
   -1.0978   12.3212    4.3322 H   0  0  0  0  0  0  0  0  0  0  0  0
   -0.1119   11.4472    3.1112 H   0  0  0  0  0  0  0  0  0  0  0  0
   -0.1562   13.2429    3.1112 H   0  0  0  0  0  0  0  0  0  0  0  0
   -1.3492   10.9021    0.3054 H   0  0  0  0  0  0  0  0  0  0  0  0
    0.4354   10.0240    1.6762 H   0  0  0  0  0  0  0  0  0  0  0  0
    0.8101    8.7429    0.5037 H   0  0  0  0  0  0  0  0  0  0  0  0
    2.3322   11.1297    0.8999 H   0  0  0  0  0  0  0  0  0  0  0  0
    2.4978   10.0740   -0.5008 H   0  0  0  0  0  0  0  0  0  0  0  0
    0.7761   12.4785    1.2447 H   0  0  0  0  0  0  0  0  0  0  0  0
    1.1793   13.7713    0.0645 H   0  0  0  0  0  0  0  0  0  0  0  0
   -0.4588   13.0342    0.0645 H   0  0  0  0  0  0  0  0  0  0  0  0
    2.3541   11.4973   -2.4550 H   0  0  0  0  0  0  0  0  0  0  0  0
    3.5673   12.6679   -0.5067 H   0  0  0  0  0  0  0  0  0  0  0  0
    3.9602   13.0776   -2.2584 H   0  0  0  0  0  0  0  0  0  0  0  0
    3.8097   15.1121   -0.5911 H   0  0  0  0  0  0  0  0  0  0  0  0
    0.0085   14.6065   -1.8544 H   0  0  0  0  0  0  0  0  0  0  0  0
    1.4808   15.7669   -4.3003 H   0  0  0  0  0  0  0  0  0  0  0  0
   -0.2747   15.2977   -4.2032 H   0  0  0  0  0  0  0  0  0  0  0  0
    0.0503   17.7460   -4.0419 H   0  0  0  0  0  0  0  0  0  0  0  0
   -0.6782   17.0314   -2.5510 H   0  0  0  0  0  0  0  0  0  0  0  0
    0.9847   18.6360   -1.9030 H   0  0  0  0  0  0  0  0  0  0  0  0
    2.1670   18.0400   -4.0750 H   0  0  0  0  0  0  0  0  0  0  0  0
    1.0658   16.7967    0.9403 H   0  0  0  0  0  0  0  0  0  0  0  0
    0.0089   17.7004   -0.1968 H   0  0  0  0  0  0  0  0  0  0  0  0
   -0.0006   15.9042   -0.1968 H   0  0  0  0  0  0  0  0  0  0  0  0
    2.8814   17.3793    0.6506 H   0  0  0  0  0  0  0  0  0  0  0  0
    3.9037   16.8996   -0.7464 H   0  0  0  0  0  0  0  0  0  0  0  0
    3.0726   18.4921   -0.7464 H   0  0  0  0  0  0  0  0  0  0  0  0
    3.0874   13.2840   -4.0304 H   0  0  0  0  0  0  0  0  0  0  0  0
    1.8068   12.3556   -4.8817 H   0  0  0  0  0  0  0  0  0  0  0  0
    1.7647   14.1514   -4.8817 H   0  0  0  0  0  0  0  0  0  0  0  0
   -0.8624   13.3562   -3.7667 H   0  0  0  0  0  0  0  0  0  0  0  0
    0.0474   11.7718   -4.0776 H   0  0  0  0  0  0  0  0  0  0  0  0
   -1.3719   12.6207   -1.5375 H   0  0  0  0  0  0  0  0  0  0  0  0
   -1.7916   11.2750   -2.6687 H   0  0  0  0  0  0  0  0  0  0  0  0
    0.8109    8.9424   -1.8754 H   0  0  0  0  0  0  0  0  0  0  0  0
   -0.4067    9.4848   -3.0795 H   0  0  0  0  0  0  0  0  0  0  0  0
    1.2390   10.2047   -3.0795 H   0  0  0  0  0  0  0  0  0  0  0  0
  1  2  1  0
  2  3  1  0
  3  4  1  0
  4  5  1  0
  5  6  1  0
  6  7  1  0
  7  8  1  0
  7  9  1  0
  2 10  1  0
 10 11  1  0
 11 12  1  0
 12 13  1  0
 13 14  1  1
 13 15  1  0
 15 16  1  0
 16 17  1  0
 17 18  2  0
 18 19  1  0
 19 20  1  0
 20 21  1  0
 21 22  1  0
 22 23  1  0
 22 24  1  0
 24 25  1  0
 24 26  1  0
 19 27  1  0
 27 28  1  6
 27 29  1  0
 29 30  1  0
 30 31  1  0
 31 32  1  6
  7  5  1  0
 31 10  1  0
 31 13  1  0
 27 15  1  0
 24 18  1  0
  1 33  1  0
  1 34  1  0
  1 35  1  0
  2 36  1  1
  3 37  1  0
  3 38  1  0
  4 39  1  0
  4 40  1  0
  5 41  1  1
  8 42  1  0
  8 43  1  0
  8 44  1  0
  9 45  1  0
  9 46  1  0
  9 47  1  0
 10 48  1  1
 11 49  1  0
 11 50  1  0
 12 51  1  0
 12 52  1  0
 14 53  1  0
 14 54  1  0
 14 55  1  0
 15 56  1  6
 16 57  1  0
 16 58  1  0
 17 59  1  0
 19 60  1  1
 20 61  1  0
 20 62  1  0
 21 63  1  0
 21 64  1  0
 22 65  1  1
 23 66  1  0
 25 67  1  0
 25 68  1  0
 25 69  1  0
 26 70  1  0
 26 71  1  0
 26 72  1  0
 28 73  1  0
 28 74  1  0
 28 75  1  0
 29 76  1  0
 29 77  1  0
 30 78  1  0
 30 79  1  0
 32 80  1  0
 32 81  1  0
 32 82  1  0
M  END
>  <meeko>  (3) 
{"is_sidechain": [false], "intermolecular_energy": 2.731, "internal_energy": -0.839}

$$$$
EPH_relaxed_0001_pdb2pqr_Repair_343_r2_0001_out
     RDKit          3D

 82 86  0  0  0  0  0  0  0  0999 V2000
    2.4300   16.6370   -0.8250 C   0  0  0  0  0  0  0  0  0  0  0  0
    2.1780   16.3200   -2.3020 C   0  0  2  0  0  0  0  0  0  0  0  0
    1.7510   17.5680   -3.0990 C   0  0  0  0  0  0  0  0  0  0  0  0
    1.4800   18.7950   -2.2240 C   0  0  0  0  0  0  0  0  0  0  0  0
    0.0420   18.8710   -1.8080 C   0  0  2  0  0  0  0  0  0  0  0  0
   -0.4080   20.1840   -1.4480 O   0  0  0  0  0  0  0  0  0  0  0  0
   -0.4040   19.2050   -0.3960 C   0  0  0  0  0  0  0  0  0  0  0  0
    0.5880   19.4830    0.6900 C   0  0  0  0  0  0  0  0  0  0  0  0
   -1.7720   18.7840    0.0410 C   0  0  0  0  0  0  0  0  0  0  0  0
    1.1160   15.2340   -2.4260 C   0  0  1  0  0  0  0  0  0  0  0  0
    1.1220   14.5490   -3.8190 C   0  0  0  0  0  0  0  0  0  0  0  0
    0.7540   13.0610   -3.5870 C   0  0  0  0  0  0  0  0  0  0  0  0
    0.2280   13.0110   -2.1340 C   0  0  1  0  0  0  0  0  0  0  0  0
   -1.2540   13.4930   -2.2260 C   0  0  0  0  0  0  0  0  0  0  0  0
    0.3420   11.6320   -1.4050 C   0  0  2  0  0  0  0  0  0  0  0  0
   -0.4660   10.4880   -2.0420 C   0  0  0  0  0  0  0  0  0  0  0  0
   -1.8590   10.3280   -1.5290 C   0  0  0  0  0  0  0  0  0  0  0  0
   -2.3460   10.8800   -0.4020 C   0  0  0  0  0  0  0  0  0  0  0  0
   -1.4370   11.6810    0.5390 C   0  0  1  0  0  0  0  0  0  0  0  0
   -1.6830   11.2320    2.0030 C   0  0  0  0  0  0  0  0  0  0  0  0
   -3.1540   11.3160    2.4010 C   0  0  0  0  0  0  0  0  0  0  0  0
   -4.0180   10.4600    1.4780 C   0  0  2  0  0  0  0  0  0  0  0  0
   -3.6920    9.0830    1.6870 O   0  0  0  0  0  0  0  0  0  0  0  0
   -3.8460   10.8150   -0.0250 C   0  0  0  0  0  0  0  0  0  0  0  0
   -4.4790   12.2000   -0.3080 C   0  0  0  0  0  0  0  0  0  0  0  0
   -4.6630    9.7880   -0.8550 C   0  0  0  0  0  0  0  0  0  0  0  0
    0.1060   11.7040    0.1590 C   0  0  1  0  0  0  0  0  0  0  0  0
    0.8250   10.4650    0.7750 C   0  0  0  0  0  0  0  0  0  0  0  0
    0.7760   12.9730    0.8070 C   0  0  0  0  0  0  0  0  0  0  0  0
    0.7360   14.2760   -0.0150 C   0  0  0  0  0  0  0  0  0  0  0  0
    1.2080   14.0330   -1.4510 C   0  0  2  0  0  0  0  0  0  0  0  0
    2.7030   13.5680   -1.3910 C   0  0  0  0  0  0  0  0  0  0  0  0
    1.8679   15.9300   -0.1972 H   0  0  0  0  0  0  0  0  0  0  0  0
    3.5046   16.5455   -0.6085 H   0  0  0  0  0  0  0  0  0  0  0  0
    2.0985   17.6633   -0.6085 H   0  0  0  0  0  0  0  0  0  0  0  0
    3.1263   15.9636   -2.7307 H   0  0  0  0  0  0  0  0  0  0  0  0
    2.5534   17.8181   -3.8086 H   0  0  0  0  0  0  0  0  0  0  0  0
    0.8062   17.3187   -3.6041 H   0  0  0  0  0  0  0  0  0  0  0  0
    2.1092   18.7370   -1.3236 H   0  0  0  0  0  0  0  0  0  0  0  0
    1.7156   19.6946   -2.8115 H   0  0  0  0  0  0  0  0  0  0  0  0
   -0.2239   18.0508   -2.4911 H   0  0  0  0  0  0  0  0  0  0  0  0
    0.1065   19.3481    1.6698 H   0  0  0  0  0  0  0  0  0  0  0  0
    1.4356   18.7878    0.5991 H   0  0  0  0  0  0  0  0  0  0  0  0
    0.9509   20.5174    0.5991 H   0  0  0  0  0  0  0  0  0  0  0  0
   -1.8177   18.7699    1.1400 H   0  0  0  0  0  0  0  0  0  0  0  0
   -2.5161   19.4947   -0.3479 H   0  0  0  0  0  0  0  0  0  0  0  0
   -1.9877   17.7779   -0.3479 H   0  0  0  0  0  0  0  0  0  0  0  0
    0.2177   15.8293   -2.2052 H   0  0  0  0  0  0  0  0  0  0  0  0
    0.3806   15.0243   -4.4781 H   0  0  0  0  0  0  0  0  0  0  0  0
    2.1065   14.6420   -4.3007 H   0  0  0  0  0  0  0  0  0  0  0  0
   -0.0254   12.7391   -4.2934 H   0  0  0  0  0  0  0  0  0  0  0  0
    1.6115   12.3900   -3.7434 H   0  0  0  0  0  0  0  0  0  0  0  0
   -1.6602   13.6251   -1.2123 H   0  0  0  0  0  0  0  0  0  0  0  0
   -1.2952   14.4509   -2.7653 H   0  0  0  0  0  0  0  0  0  0  0  0
   -1.8508   12.7427   -2.7653 H   0  0  0  0  0  0  0  0  0  0  0  0
    1.3999   11.3719   -1.5575 H   0  0  0  0  0  0  0  0  0  0  0  0
   -0.5218   10.6733   -3.1248 H   0  0  0  0  0  0  0  0  0  0  0  0
    0.0630    9.5597   -1.7804 H   0  0  0  0  0  0  0  0  0  0  0  0
   -2.5456    9.7063   -2.1224 H   0  0  0  0  0  0  0  0  0  0  0  0
   -1.7275   12.7350    0.4181 H   0  0  0  0  0  0  0  0  0  0  0  0
   -1.3465   10.1906    2.1138 H   0  0  0  0  0  0  0  0  0  0  0  0
   -1.1198   11.9112    2.6599 H   0  0  0  0  0  0  0  0  0  0  0  0
   -3.2683   10.9587    3.4351 H   0  0  0  0  0  0  0  0  0  0  0  0
   -3.4813   12.3629    2.3178 H   0  0  0  0  0  0  0  0  0  0  0  0
   -5.0696   10.6618    1.7298 H   0  0  0  0  0  0  0  0  0  0  0  0
   -3.2630    9.0110    2.5570 H   0  0  0  0  0  0  0  0  0  0  0  0
   -4.7076   12.7002    0.6446 H   0  0  0  0  0  0  0  0  0  0  0  0
   -3.7726   12.8150   -0.8848 H   0  0  0  0  0  0  0  0  0  0  0  0
   -5.4063   12.0684   -0.8848 H   0  0  0  0  0  0  0  0  0  0  0  0
   -5.2010    9.1117   -0.1745 H   0  0  0  0  0  0  0  0  0  0  0  0
   -5.3862   10.3215   -1.4892 H   0  0  0  0  0  0  0  0  0  0  0  0
   -3.9805    9.2033   -1.4892 H   0  0  0  0  0  0  0  0  0  0  0  0
    0.7884   10.5280    1.8726 H   0  0  0  0  0  0  0  0  0  0  0  0
    0.3201    9.5457    0.4435 H   0  0  0  0  0  0  0  0  0  0  0  0
    1.8737   10.4473    0.4435 H   0  0  0  0  0  0  0  0  0  0  0  0
    0.2669   13.1667    1.7627 H   0  0  0  0  0  0  0  0  0  0  0  0
    1.8431   12.7214    0.8958 H   0  0  0  0  0  0  0  0  0  0  0  0
   -0.2956   14.6573   -0.0350 H   0  0  0  0  0  0  0  0  0  0  0  0
    1.4082   15.0084    0.4559 H   0  0  0  0  0  0  0  0  0  0  0  0
    3.0149   13.4710   -0.3406 H   0  0  0  0  0  0  0  0  0  0  0  0
    2.8051   12.5957   -1.8951 H   0  0  0  0  0  0  0  0  0  0  0  0
    3.3386   14.3109   -1.8951 H   0  0  0  0  0  0  0  0  0  0  0  0
  1  2  1  0
  2  3  1  0
  3  4  1  0
  4  5  1  0
  5  6  1  0
  6  7  1  0
  7  8  1  0
  7  9  1  0
  2 10  1  0
 10 11  1  0
 11 12  1  0
 12 13  1  0
 13 14  1  6
 13 15  1  0
 15 16  1  0
 16 17  1  0
 17 18  2  0
 18 19  1  0
 19 20  1  0
 20 21  1  0
 21 22  1  0
 22 23  1  0
 22 24  1  0
 24 25  1  0
 24 26  1  0
 19 27  1  0
 27 28  1  1
 27 29  1  0
 29 30  1  0
 30 31  1  0
 31 32  1  1
  7  5  1  0
 31 10  1  0
 31 13  1  0
 27 15  1  0
 24 18  1  0
  1 33  1  0
  1 34  1  0
  1 35  1  0
  2 36  1  6
  3 37  1  0
  3 38  1  0
  4 39  1  0
  4 40  1  0
  5 41  1  6
  8 42  1  0
  8 43  1  0
  8 44  1  0
  9 45  1  0
  9 46  1  0
  9 47  1  0
 10 48  1  1
 11 49  1  0
 11 50  1  0
 12 51  1  0
 12 52  1  0
 14 53  1  0
 14 54  1  0
 14 55  1  0
 15 56  1  1
 16 57  1  0
 16 58  1  0
 17 59  1  0
 19 60  1  1
 20 61  1  0
 20 62  1  0
 21 63  1  0
 21 64  1  0
 22 65  1  1
 23 66  1  0
 25 67  1  0
 25 68  1  0
 25 69  1  0
 26 70  1  0
 26 71  1  0
 26 72  1  0
 28 73  1  0
 28 74  1  0
 28 75  1  0
 29 76  1  0
 29 77  1  0
 30 78  1  0
 30 79  1  0
 32 80  1  0
 32 81  1  0
 32 82  1  0
M  END
>  <meeko>  (4) 
{"is_sidechain": [false], "intermolecular_energy": 2.731, "internal_energy": -0.839}

$$$$
EPH_relaxed_0001_pdb2pqr_Repair_343_r2_0001_out
     RDKit          3D

 82 86  0  0  0  0  0  0  0  0999 V2000
    3.8220   18.3060    0.1520 C   0  0  0  0  0  0  0  0  0  0  0  0
    2.6690   18.8690   -0.6830 C   0  0  2  0  0  0  0  0  0  0  0  0
    1.9960   20.0780   -0.0030 C   0  0  0  0  0  0  0  0  0  0  0  0
    0.8560   19.6940    0.9450 C   0  0  0  0  0  0  0  0  0  0  0  0
   -0.4680   20.1900    0.4490 C   0  0  2  0  0  0  0  0  0  0  0  0
   -1.5120   20.1940    1.4310 O   0  0  0  0  0  0  0  0  0  0  0  0
   -1.6950   19.3080    0.3160 C   0  0  0  0  0  0  0  0  0  0  0  0
   -1.6560   17.8560    0.6790 C   0  0  0  0  0  0  0  0  0  0  0  0
   -2.7840   19.7330   -0.6190 C   0  0  0  0  0  0  0  0  0  0  0  0
    1.6370   17.7780   -0.9470 C   0  0  1  0  0  0  0  0  0  0  0  0
    0.7460   18.0850   -2.1800 C   0  0  0  0  0  0  0  0  0  0  0  0
    0.4390   16.7260   -2.8600 C   0  0  0  0  0  0  0  0  0  0  0  0
    0.8780   15.6640   -1.8240 C   0  0  1  0  0  0  0  0  0  0  0  0
   -0.3110   15.5720   -0.8160 C   0  0  0  0  0  0  0  0  0  0  0  0
    1.2620   14.2600   -2.3940 C   0  0  2  0  0  0  0  0  0  0  0  0
    0.1220   13.5120   -3.1080 C   0  0  0  0  0  0  0  0  0  0  0  0
   -0.7010   12.6220   -2.2370 C   0  0  0  0  0  0  0  0  0  0  0  0
   -0.3640   12.2090   -1.0010 C   0  0  0  0  0  0  0  0  0  0  0  0
    1.0010   12.5610   -0.3970 C   0  0  1  0  0  0  0  0  0  0  0  0
    1.6290   11.2940    0.2390 C   0  0  0  0  0  0  0  0  0  0  0  0
    0.7000   10.6240    1.2480 C   0  0  0  0  0  0  0  0  0  0  0  0
   -0.6240   10.2360    0.5960 C   0  0  2  0  0  0  0  0  0  0  0  0
   -0.3790    9.2070   -0.3680 O   0  0  0  0  0  0  0  0  0  0  0  0
   -1.3440   11.4320   -0.0880 C   0  0  0  0  0  0  0  0  0  0  0  0
   -1.8770   12.4050    0.9930 C   0  0  0  0  0  0  0  0  0  0  0  0
   -2.5930   10.8780   -0.8260 C   0  0  0  0  0  0  0  0  0  0  0  0
    2.0100   13.3230   -1.3610 C   0  0  1  0  0  0  0  0  0  0  0  0
    2.8230   12.2930   -2.2020 C   0  0  0  0  0  0  0  0  0  0  0  0
    3.0580   14.1110   -0.4890 C   0  0  0  0  0  0  0  0  0  0  0  0
    2.6700   15.5380   -0.0570 C   0  0  0  0  0  0  0  0  0  0  0  0
    2.1690   16.3550   -1.2520 C   0  0  2  0  0  0  0  0  0  0  0  0
    3.3500   16.4840   -2.2730 C   0  0  0  0  0  0  0  0  0  0  0  0
    3.5898   18.4194    1.2212 H   0  0  0  0  0  0  0  0  0  0  0  0
    3.9582   17.2400   -0.0826 H   0  0  0  0  0  0  0  0  0  0  0  0
    4.7464   18.8541   -0.0826 H   0  0  0  0  0  0  0  0  0  0  0  0
    3.0912   19.2196   -1.6364 H   0  0  0  0  0  0  0  0  0  0  0  0
    2.7590   20.6217    0.5734 H   0  0  0  0  0  0  0  0  0  0  0  0
    1.5568   20.6934   -0.8020 H   0  0  0  0  0  0  0  0  0  0  0  0
    0.8170   18.5980    1.0301 H   0  0  0  0  0  0  0  0  0  0  0  0
    1.0518   20.1585    1.9227 H   0  0  0  0  0  0  0  0  0  0  0  0
    0.0262   20.8778   -0.2530 H   0  0  0  0  0  0  0  0  0  0  0  0
   -1.6532   17.7518    1.7740 H   0  0  0  0  0  0  0  0  0  0  0  0
   -2.5409   17.3506    0.2648 H   0  0  0  0  0  0  0  0  0  0  0  0
   -0.7453   17.3988    0.2648 H   0  0  0  0  0  0  0  0  0  0  0  0
   -3.6542   20.0726   -0.0381 H   0  0  0  0  0  0  0  0  0  0  0  0
   -2.4225   20.5560   -1.2530 H   0  0  0  0  0  0  0  0  0  0  0  0
   -3.0756   18.8827   -1.2530 H   0  0  0  0  0  0  0  0  0  0  0  0
    1.1105   17.7839    0.0188 H   0  0  0  0  0  0  0  0  0  0  0  0
   -0.1890   18.5685   -1.8606 H   0  0  0  0  0  0  0  0  0  0  0  0
    1.2559   18.7681   -2.8753 H   0  0  0  0  0  0  0  0  0  0  0  0
   -0.6352   16.6348   -3.0784 H   0  0  0  0  0  0  0  0  0  0  0  0
    0.9618   16.6126   -3.8211 H   0  0  0  0  0  0  0  0  0  0  0  0
    0.0773   15.6020    0.2128 H   0  0  0  0  0  0  0  0  0  0  0  0
   -0.9932   16.4200   -0.9753 H   0  0  0  0  0  0  0  0  0  0  0  0
   -0.8547   14.6291   -0.9753 H   0  0  0  0  0  0  0  0  0  0  0  0
    1.9899   14.5149   -3.1783 H   0  0  0  0  0  0  0  0  0  0  0  0
   -0.5469   14.2609   -3.5571 H   0  0  0  0  0  0  0  0  0  0  0  0
    0.6050   12.8538   -3.8452 H   0  0  0  0  0  0  0  0  0  0  0  0
   -1.6640   12.2743   -2.6391 H   0  0  0  0  0  0  0  0  0  0  0  0
    0.8033   13.3111    0.3829 H   0  0  0  0  0  0  0  0  0  0  0  0
    1.8585   10.5746   -0.5609 H   0  0  0  0  0  0  0  0  0  0  0  0
    2.5370   11.6051    0.7763 H   0  0  0  0  0  0  0  0  0  0  0  0
    1.1870    9.7190    1.6402 H   0  0  0  0  0  0  0  0  0  0  0  0
    0.4955   11.3343    2.0626 H   0  0  0  0  0  0  0  0  0  0  0  0
   -1.2933    9.8819    1.3939 H   0  0  0  0  0  0  0  0  0  0  0  0
    0.3250    8.6360   -0.0160 H   0  0  0  0  0  0  0  0  0  0  0  0
   -1.6555   12.0006    1.9917 H   0  0  0  0  0  0  0  0  0  0  0  0
   -1.3893   13.3842    0.8775 H   0  0  0  0  0  0  0  0  0  0  0  0
   -2.9647   12.5212    0.8775 H   0  0  0  0  0  0  0  0  0  0  0  0
   -3.3384   10.5474   -0.0878 H   0  0  0  0  0  0  0  0  0  0  0  0
   -3.0268   11.6681   -1.4565 H   0  0  0  0  0  0  0  0  0  0  0  0
   -2.2985   10.0261   -1.4565 H   0  0  0  0  0  0  0  0  0  0  0  0
    3.3610   11.6114   -1.5267 H   0  0  0  0  0  0  0  0  0  0  0  0
    2.1359   11.7139   -2.8364 H   0  0  0  0  0  0  0  0  0  0  0  0
    3.5459   12.8268   -2.8364 H   0  0  0  0  0  0  0  0  0  0  0  0
    3.2391   13.5247    0.4239 H   0  0  0  0  0  0  0  0  0  0  0  0
    3.9367   14.2361   -1.1388 H   0  0  0  0  0  0  0  0  0  0  0  0
    1.8734   15.4810    0.6994 H   0  0  0  0  0  0  0  0  0  0  0  0
    3.5602   16.0332    0.3582 H   0  0  0  0  0  0  0  0  0  0  0  0
    4.2984   16.5876   -1.7254 H   0  0  0  0  0  0  0  0  0  0  0  0
    3.3880   15.5847   -2.9053 H   0  0  0  0  0  0  0  0  0  0  0  0
    3.1929   17.3703   -2.9053 H   0  0  0  0  0  0  0  0  0  0  0  0
  1  2  1  0
  2  3  1  0
  3  4  1  0
  4  5  1  0
  5  6  1  0
  6  7  1  0
  7  8  1  0
  7  9  1  0
  2 10  1  0
 10 11  1  0
 11 12  1  0
 12 13  1  0
 13 14  1  1
 13 15  1  0
 15 16  1  0
 16 17  1  0
 17 18  2  0
 18 19  1  0
 19 20  1  0
 20 21  1  0
 21 22  1  0
 22 23  1  0
 22 24  1  0
 24 25  1  0
 24 26  1  0
 19 27  1  0
 27 28  1  6
 27 29  1  0
 29 30  1  0
 30 31  1  0
 31 32  1  6
  7  5  1  0
 31 10  1  0
 31 13  1  0
 27 15  1  0
 24 18  1  0
  1 33  1  0
  1 34  1  0
  1 35  1  0
  2 36  1  6
  3 37  1  0
  3 38  1  0
  4 39  1  0
  4 40  1  0
  5 41  1  6
  8 42  1  0
  8 43  1  0
  8 44  1  0
  9 45  1  0
  9 46  1  0
  9 47  1  0
 10 48  1  1
 11 49  1  0
 11 50  1  0
 12 51  1  0
 12 52  1  0
 14 53  1  0
 14 54  1  0
 14 55  1  0
 15 56  1  6
 16 57  1  0
 16 58  1  0
 17 59  1  0
 19 60  1  1
 20 61  1  0
 20 62  1  0
 21 63  1  0
 21 64  1  0
 22 65  1  1
 23 66  1  0
 25 67  1  0
 25 68  1  0
 25 69  1  0
 26 70  1  0
 26 71  1  0
 26 72  1  0
 28 73  1  0
 28 74  1  0
 28 75  1  0
 29 76  1  0
 29 77  1  0
 30 78  1  0
 30 79  1  0
 32 80  1  0
 32 81  1  0
 32 82  1  0
M  END
>  <meeko>  (5) 
{"is_sidechain": [false], "intermolecular_energy": 2.731, "internal_energy": -0.839}

$$$$
EPH_relaxed_0001_pdb2pqr_Repair_343_r2_0001_out
     RDKit          3D

 82 86  0  0  0  0  0  0  0  0999 V2000
   -4.1340    7.6640   -1.4440 C   0  0  0  0  0  0  0  0  0  0  0  0
   -4.8160    8.6880   -0.5330 C   0  0  2  0  0  0  0  0  0  0  0  0
   -6.3290    8.7940   -0.8100 C   0  0  0  0  0  0  0  0  0  0  0  0
   -6.9300    7.5340   -1.4390 C   0  0  0  0  0  0  0  0  0  0  0  0
   -7.9410    6.8920   -0.5380 C   0  0  2  0  0  0  0  0  0  0  0  0
   -8.6730    5.8130   -1.1330 O   0  0  0  0  0  0  0  0  0  0  0  0
   -9.4380    6.9730   -0.7690 C   0  0  0  0  0  0  0  0  0  0  0  0
  -10.0080    7.7160   -1.9360 C   0  0  0  0  0  0  0  0  0  0  0  0
  -10.3550    6.7510    0.3940 C   0  0  0  0  0  0  0  0  0  0  0  0
   -4.1590   10.0530   -0.7020 C   0  0  1  0  0  0  0  0  0  0  0  0
   -5.1410   11.2250   -0.4380 C   0  0  0  0  0  0  0  0  0  0  0  0
   -4.3150   12.3590    0.2230 C   0  0  0  0  0  0  0  0  0  0  0  0
   -2.8410   11.9400    0.0170 C   0  0  1  0  0  0  0  0  0  0  0  0
   -2.5020   12.3740   -1.4440 C   0  0  0  0  0  0  0  0  0  0  0  0
   -1.8090   12.5120    1.0430 C   0  0  2  0  0  0  0  0  0  0  0  0
   -1.6750   14.0450    1.0470 C   0  0  0  0  0  0  0  0  0  0  0  0
   -0.6400   14.5970    0.1240 C   0  0  0  0  0  0  0  0  0  0  0  0
    0.3420   13.8890   -0.4630 C   0  0  0  0  0  0  0  0  0  0  0  0
    0.5410   12.4020   -0.1410 C   0  0  1  0  0  0  0  0  0  0  0  0
    2.0460   12.1250    0.1170 C   0  0  0  0  0  0  0  0  0  0  0  0
    2.9330   12.5980   -1.0310 C   0  0  0  0  0  0  0  0  0  0  0  0
    2.7500   14.0920   -1.2820 C   0  0  2  0  0  0  0  0  0  0  0  0
    3.2500   14.8140   -0.1530 O   0  0  0  0  0  0  0  0  0  0  0  0
    1.2710   14.4930   -1.5450 C   0  0  0  0  0  0  0  0  0  0  0  0
    0.8240   13.9530   -2.9260 C   0  0  0  0  0  0  0  0  0  0  0  0
    1.2060   16.0410   -1.6420 C   0  0  0  0  0  0  0  0  0  0  0  0
   -0.3930   11.8080    0.9990 C   0  0  1  0  0  0  0  0  0  0  0  0
    0.2610   12.0370    2.3960 C   0  0  0  0  0  0  0  0  0  0  0  0
   -0.5050   10.2490    0.8110 C   0  0  0  0  0  0  0  0  0  0  0  0
   -1.6210    9.7400   -0.1220 C   0  0  0  0  0  0  0  0  0  0  0  0
   -2.9650   10.3870    0.2270 C   0  0  2  0  0  0  0  0  0  0  0  0
   -3.3430    9.9510    1.6830 C   0  0  0  0  0  0  0  0  0  0  0  0
   -3.6286    6.9051   -0.8287 H   0  0  0  0  0  0  0  0  0  0  0  0
   -4.8892    7.1777   -2.0789 H   0  0  0  0  0  0  0  0  0  0  0  0
   -3.3942    8.1734   -2.0789 H   0  0  0  0  0  0  0  0  0  0  0  0
   -4.6933    8.3422    0.5040 H   0  0  0  0  0  0  0  0  0  0  0  0
   -6.8438    8.9857    0.1430 H   0  0  0  0  0  0  0  0  0  0  0  0
   -6.4666    9.6111   -1.5335 H   0  0  0  0  0  0  0  0  0  0  0  0
   -7.4189    7.8068   -2.3859 H   0  0  0  0  0  0  0  0  0  0  0  0
   -6.1159    6.8139   -1.6084 H   0  0  0  0  0  0  0  0  0  0  0  0
   -7.3187    7.0970    0.3456 H   0  0  0  0  0  0  0  0  0  0  0  0
  -10.6400    8.5398   -1.5729 H   0  0  0  0  0  0  0  0  0  0  0  0
   -9.1889    8.1239   -2.5465 H   0  0  0  0  0  0  0  0  0  0  0  0
  -10.6141    7.0305   -2.5465 H   0  0  0  0  0  0  0  0  0  0  0  0
   -9.7967    6.8862    1.3321 H   0  0  0  0  0  0  0  0  0  0  0  0
  -11.1822    7.4748    0.3521 H   0  0  0  0  0  0  0  0  0  0  0  0
  -10.7596    5.7290    0.3521 H   0  0  0  0  0  0  0  0  0  0  0  0
   -3.8127    9.9639   -1.7422 H   0  0  0  0  0  0  0  0  0  0  0  0
   -5.5759   11.5758   -1.3855 H   0  0  0  0  0  0  0  0  0  0  0  0
   -5.9691   10.9080    0.2129 H   0  0  0  0  0  0  0  0  0  0  0  0
   -4.5168   13.3227   -0.2674 H   0  0  0  0  0  0  0  0  0  0  0  0
   -4.5658   12.4923    1.2857 H   0  0  0  0  0  0  0  0  0  0  0  0
   -1.8250   13.2407   -1.4213 H   0  0  0  0  0  0  0  0  0  0  0  0
   -2.0133   11.5407   -1.9700 H   0  0  0  0  0  0  0  0  0  0  0  0
   -3.4289   12.6464   -1.9700 H   0  0  0  0  0  0  0  0  0  0  0  0
   -2.2656   12.2493    2.0087 H   0  0  0  0  0  0  0  0  0  0  0  0
   -2.6477   14.4719    0.7613 H   0  0  0  0  0  0  0  0  0  0  0  0
   -1.3545   14.3198    2.0628 H   0  0  0  0  0  0  0  0  0  0  0  0
   -0.6838   15.6741   -0.0949 H   0  0  0  0  0  0  0  0  0  0  0  0
    0.2072   11.8507   -1.0324 H   0  0  0  0  0  0  0  0  0  0  0  0
    2.3486   12.6491    1.0355 H   0  0  0  0  0  0  0  0  0  0  0  0
    2.1739   11.0365    0.2113 H   0  0  0  0  0  0  0  0  0  0  0  0
    3.9852   12.4019   -0.7773 H   0  0  0  0  0  0  0  0  0  0  0  0
    2.6487   12.0516   -1.9424 H   0  0  0  0  0  0  0  0  0  0  0  0
    3.3103   14.3437   -2.1945 H   0  0  0  0  0  0  0  0  0  0  0  0
    4.1900   14.5880   -0.0520 H   0  0  0  0  0  0  0  0  0  0  0  0
    0.1285   13.1128   -2.7835 H   0  0  0  0  0  0  0  0  0  0  0  0
    0.3212   14.7540   -3.4877 H   0  0  0  0  0  0  0  0  0  0  0  0
    1.7049   13.6086   -3.4877 H   0  0  0  0  0  0  0  0  0  0  0  0
    1.1879   16.4714   -0.6298 H   0  0  0  0  0  0  0  0  0  0  0  0
    2.0894   16.4119   -2.1824 H   0  0  0  0  0  0  0  0  0  0  0  0
    0.2947   16.3366   -2.1824 H   0  0  0  0  0  0  0  0  0  0  0  0
   -0.4621   11.7838    3.1853 H   0  0  0  0  0  0  0  0  0  0  0  0
    1.1500   11.3967    2.4941 H   0  0  0  0  0  0  0  0  0  0  0  0
    0.5564   13.0920    2.4941 H   0  0  0  0  0  0  0  0  0  0  0  0
    0.4543    9.8927    0.4076 H   0  0  0  0  0  0  0  0  0  0  0  0
   -0.7607    9.8567    1.8063 H   0  0  0  0  0  0  0  0  0  0  0  0
   -1.3616    9.9878   -1.1619 H   0  0  0  0  0  0  0  0  0  0  0  0
   -1.7130    8.6510    0.0028 H   0  0  0  0  0  0  0  0  0  0  0  0
   -2.7999   10.5774    2.4060 H   0  0  0  0  0  0  0  0  0  0  0  0
   -4.4259   10.0730    1.8328 H   0  0  0  0  0  0  0  0  0  0  0  0
   -3.0687    8.8963    1.8328 H   0  0  0  0  0  0  0  0  0  0  0  0
  1  2  1  0
  2  3  1  0
  3  4  1  0
  4  5  1  0
  5  6  1  0
  6  7  1  0
  7  8  1  0
  7  9  1  0
  2 10  1  0
 10 11  1  0
 11 12  1  0
 12 13  1  0
 13 14  1  6
 13 15  1  0
 15 16  1  0
 16 17  1  0
 17 18  2  0
 18 19  1  0
 19 20  1  0
 20 21  1  0
 21 22  1  0
 22 23  1  0
 22 24  1  0
 24 25  1  0
 24 26  1  0
 19 27  1  0
 27 28  1  1
 27 29  1  0
 29 30  1  0
 30 31  1  0
 31 32  1  1
  7  5  1  0
 31 10  1  0
 31 13  1  0
 27 15  1  0
 24 18  1  0
  1 33  1  0
  1 34  1  0
  1 35  1  0
  2 36  1  1
  3 37  1  0
  3 38  1  0
  4 39  1  0
  4 40  1  0
  5 41  1  1
  8 42  1  0
  8 43  1  0
  8 44  1  0
  9 45  1  0
  9 46  1  0
  9 47  1  0
 10 48  1  6
 11 49  1  0
 11 50  1  0
 12 51  1  0
 12 52  1  0
 14 53  1  0
 14 54  1  0
 14 55  1  0
 15 56  1  1
 16 57  1  0
 16 58  1  0
 17 59  1  0
 19 60  1  6
 20 61  1  0
 20 62  1  0
 21 63  1  0
 21 64  1  0
 22 65  1  6
 23 66  1  0
 25 67  1  0
 25 68  1  0
 25 69  1  0
 26 70  1  0
 26 71  1  0
 26 72  1  0
 28 73  1  0
 28 74  1  0
 28 75  1  0
 29 76  1  0
 29 77  1  0
 30 78  1  0
 30 79  1  0
 32 80  1  0
 32 81  1  0
 32 82  1  0
M  END
>  <meeko>  (6) 
{"is_sidechain": [false], "intermolecular_energy": 2.731, "internal_energy": -0.839}

$$$$
EPH_relaxed_0001_pdb2pqr_Repair_343_r2_0001_out
     RDKit          3D

 82 86  0  0  0  0  0  0  0  0999 V2000
    2.3500   17.9940   -2.6980 C   0  0  0  0  0  0  0  0  0  0  0  0
    1.0210   17.6370   -2.0260 C   0  0  2  0  0  0  0  0  0  0  0  0
    1.1040   17.7260   -0.4890 C   0  0  0  0  0  0  0  0  0  0  0  0
    0.7760   19.1140    0.0660 C   0  0  0  0  0  0  0  0  0  0  0  0
   -0.6580   19.2160    0.4910 C   0  0  2  0  0  0  0  0  0  0  0  0
   -1.5330   18.2580   -0.1180 O   0  0  0  0  0  0  0  0  0  0  0  0
   -1.7790   19.6360   -0.4410 C   0  0  0  0  0  0  0  0  0  0  0  0
   -1.5150   19.9820   -1.8730 C   0  0  0  0  0  0  0  0  0  0  0  0
   -3.0400   20.1790    0.1560 C   0  0  0  0  0  0  0  0  0  0  0  0
    0.5860   16.2370   -2.4450 C   0  0  1  0  0  0  0  0  0  0  0  0
    0.6840   16.0150   -3.9780 C   0  0  0  0  0  0  0  0  0  0  0  0
    1.1000   14.5360   -4.1890 C   0  0  0  0  0  0  0  0  0  0  0  0
    0.9040   13.8740   -2.8050 C   0  0  1  0  0  0  0  0  0  0  0  0
   -0.6230   13.5650   -2.7200 C   0  0  0  0  0  0  0  0  0  0  0  0
    1.7670   12.6020   -2.5190 C   0  0  2  0  0  0  0  0  0  0  0  0
    1.4970   11.4080   -3.4500 C   0  0  0  0  0  0  0  0  0  0  0  0
    0.4470   10.4570   -2.9790 C   0  0  0  0  0  0  0  0  0  0  0  0
   -0.0500   10.3970   -1.7290 C   0  0  0  0  0  0  0  0  0  0  0  0
    0.5180   11.2810   -0.6120 C   0  0  1  0  0  0  0  0  0  0  0  0
    0.7540   10.4230    0.6590 C   0  0  0  0  0  0  0  0  0  0  0  0
   -0.4960    9.6660    1.0940 C   0  0  0  0  0  0  0  0  0  0  0  0
   -0.9970    8.7530   -0.0230 C   0  0  2  0  0  0  0  0  0  0  0  0
   -0.0350    7.7160   -0.2370 O   0  0  0  0  0  0  0  0  0  0  0  0
   -1.2610    9.5060   -1.3570 C   0  0  0  0  0  0  0  0  0  0  0  0
   -2.5050   10.4160   -1.2050 C   0  0  0  0  0  0  0  0  0  0  0  0
   -1.6240    8.4510   -2.4370 C   0  0  0  0  0  0  0  0  0  0  0  0
    1.7850   12.1590   -1.0000 C   0  0  1  0  0  0  0  0  0  0  0  0
    3.0900   11.3310   -0.7930 C   0  0  0  0  0  0  0  0  0  0  0  0
    1.8790   13.3880   -0.0190 C   0  0  0  0  0  0  0  0  0  0  0  0
    1.1000   14.6560   -0.4170 C   0  0  0  0  0  0  0  0  0  0  0  0
    1.3880   15.0430   -1.8710 C   0  0  2  0  0  0  0  0  0  0  0  0
    2.9140   15.3810   -1.9820 C   0  0  0  0  0  0  0  0  0  0  0  0
    3.1077   18.1975   -1.9270 H   0  0  0  0  0  0  0  0  0  0  0  0
    2.6815   17.1531   -3.3249 H   0  0  0  0  0  0  0  0  0  0  0  0
    2.2154   18.8878   -3.3249 H   0  0  0  0  0  0  0  0  0  0  0  0
    0.2743   18.3732   -2.3584 H   0  0  0  0  0  0  0  0  0  0  0  0
    0.3933   17.0039   -0.0606 H   0  0  0  0  0  0  0  0  0  0  0  0
    2.1452   17.5064   -0.2103 H   0  0  0  0  0  0  0  0  0  0  0  0
    1.4205   19.3119    0.9352 H   0  0  0  0  0  0  0  0  0  0  0  0
    0.9512   19.8522   -0.7305 H   0  0  0  0  0  0  0  0  0  0  0  0
   -0.3609   19.5636    1.4914 H   0  0  0  0  0  0  0  0  0  0  0  0
   -0.8484   20.8556   -1.9222 H   0  0  0  0  0  0  0  0  0  0  0  0
   -1.0372   19.1275   -2.3746 H   0  0  0  0  0  0  0  0  0  0  0  0
   -2.4653   20.2171   -2.3746 H   0  0  0  0  0  0  0  0  0  0  0  0
   -2.9690   20.1484    1.2533 H   0  0  0  0  0  0  0  0  0  0  0  0
   -3.1835   21.2187   -0.1733 H   0  0  0  0  0  0  0  0  0  0  0  0
   -3.8940   19.5689   -0.1733 H   0  0  0  0  0  0  0  0  0  0  0  0
   -0.4370   16.2321   -2.0408 H   0  0  0  0  0  0  0  0  0  0  0  0
   -0.2903   16.2059   -4.4517 H   0  0  0  0  0  0  0  0  0  0  0  0
    1.4159   16.7001   -4.4308 H   0  0  0  0  0  0  0  0  0  0  0  0
    0.4590   14.0562   -4.9432 H   0  0  0  0  0  0  0  0  0  0  0  0
    2.1334   14.4415   -4.5539 H   0  0  0  0  0  0  0  0  0  0  0  0
   -0.9265   13.5036   -1.6645 H   0  0  0  0  0  0  0  0  0  0  0  0
   -1.1877   14.3671   -3.2178 H   0  0  0  0  0  0  0  0  0  0  0  0
   -0.8314   12.6065   -3.2178 H   0  0  0  0  0  0  0  0  0  0  0  0
    2.7829   12.9464   -2.7625 H   0  0  0  0  0  0  0  0  0  0  0  0
    1.1838   11.8032   -4.4276 H   0  0  0  0  0  0  0  0  0  0  0  0
    2.4340   10.8329   -3.4870 H   0  0  0  0  0  0  0  0  0  0  0  0
    0.0454    9.7452   -3.7153 H   0  0  0  0  0  0  0  0  0  0  0  0
   -0.2476   12.0444   -0.4092 H   0  0  0  0  0  0  0  0  0  0  0  0
    1.5520    9.6953    0.4500 H   0  0  0  0  0  0  0  0  0  0  0  0
    1.0320   11.1055    1.4756 H   0  0  0  0  0  0  0  0  0  0  0  0
   -0.2583    9.0562    1.9781 H   0  0  0  0  0  0  0  0  0  0  0  0
   -1.2840   10.3959    1.3311 H   0  0  0  0  0  0  0  0  0  0  0  0
   -1.9633    8.3372    0.2985 H   0  0  0  0  0  0  0  0  0  0  0  0
    0.2940    7.8040   -1.1480 H   0  0  0  0  0  0  0  0  0  0  0  0
   -2.7174   10.5713   -0.1369 H   0  0  0  0  0  0  0  0  0  0  0  0
   -2.3103   11.3864   -1.6851 H   0  0  0  0  0  0  0  0  0  0  0  0
   -3.3709    9.9366   -1.6851 H   0  0  0  0  0  0  0  0  0  0  0  0
   -1.9444    7.5198   -1.9469 H   0  0  0  0  0  0  0  0  0  0  0  0
   -2.4417    8.8351   -3.0646 H   0  0  0  0  0  0  0  0  0  0  0  0
   -0.7431    8.2507   -3.0646 H   0  0  0  0  0  0  0  0  0  0  0  0
    3.2806   11.2101    0.2836 H   0  0  0  0  0  0  0  0  0  0  0  0
    2.9738   10.3410   -1.2583 H   0  0  0  0  0  0  0  0  0  0  0  0
    3.9362   11.8578   -1.2583 H   0  0  0  0  0  0  0  0  0  0  0  0
    1.5030   13.0606    0.9615 H   0  0  0  0  0  0  0  0  0  0  0  0
    2.9380   13.6853   -0.0310 H   0  0  0  0  0  0  0  0  0  0  0  0
    0.0225   14.4674   -0.3016 H   0  0  0  0  0  0  0  0  0  0  0  0
    1.4184   15.4824    0.2355 H   0  0  0  0  0  0  0  0  0  0  0  0
    3.3428   15.4760   -0.9735 H   0  0  0  0  0  0  0  0  0  0  0  0
    3.4295   14.5753   -2.5252 H   0  0  0  0  0  0  0  0  0  0  0  0
    3.0410   16.3290   -2.5252 H   0  0  0  0  0  0  0  0  0  0  0  0
  1  2  1  0
  2  3  1  0
  3  4  1  0
  4  5  1  0
  5  6  1  0
  6  7  1  0
  7  8  1  0
  7  9  1  0
  2 10  1  0
 10 11  1  0
 11 12  1  0
 12 13  1  0
 13 14  1  1
 13 15  1  0
 15 16  1  0
 16 17  1  0
 17 18  2  0
 18 19  1  0
 19 20  1  0
 20 21  1  0
 21 22  1  0
 22 23  1  0
 22 24  1  0
 24 25  1  0
 24 26  1  0
 19 27  1  0
 27 28  1  6
 27 29  1  0
 29 30  1  0
 30 31  1  0
 31 32  1  1
  7  5  1  0
 31 10  1  0
 31 13  1  0
 27 15  1  0
 24 18  1  0
  1 33  1  0
  1 34  1  0
  1 35  1  0
  2 36  1  6
  3 37  1  0
  3 38  1  0
  4 39  1  0
  4 40  1  0
  5 41  1  1
  8 42  1  0
  8 43  1  0
  8 44  1  0
  9 45  1  0
  9 46  1  0
  9 47  1  0
 10 48  1  1
 11 49  1  0
 11 50  1  0
 12 51  1  0
 12 52  1  0
 14 53  1  0
 14 54  1  0
 14 55  1  0
 15 56  1  6
 16 57  1  0
 16 58  1  0
 17 59  1  0
 19 60  1  1
 20 61  1  0
 20 62  1  0
 21 63  1  0
 21 64  1  0
 22 65  1  1
 23 66  1  0
 25 67  1  0
 25 68  1  0
 25 69  1  0
 26 70  1  0
 26 71  1  0
 26 72  1  0
 28 73  1  0
 28 74  1  0
 28 75  1  0
 29 76  1  0
 29 77  1  0
 30 78  1  0
 30 79  1  0
 32 80  1  0
 32 81  1  0
 32 82  1  0
M  END
>  <meeko>  (7) 
{"is_sidechain": [false], "intermolecular_energy": 2.731, "internal_energy": -0.839}

$$$$
EPH_relaxed_0001_pdb2pqr_Repair_343_r2_0001_out
     RDKit          3D

 82 86  0  0  0  0  0  0  0  0999 V2000
    2.2630   17.9610   -2.5430 C   0  0  0  0  0  0  0  0  0  0  0  0
    0.7410   17.8340   -2.6530 C   0  0  2  0  0  0  0  0  0  0  0  0
    0.0240   18.3300   -1.3810 C   0  0  0  0  0  0  0  0  0  0  0  0
    0.7270   17.9290   -0.0820 C   0  0  0  0  0  0  0  0  0  0  0  0
    1.2900   19.1200    0.6330 C   0  0  2  0  0  0  0  0  0  0  0  0
    2.2100   19.9020   -0.1380 O   0  0  0  0  0  0  0  0  0  0  0  0
    2.7510   19.2490    1.0220 C   0  0  0  0  0  0  0  0  0  0  0  0
    3.7400   18.1710    0.7070 C   0  0  0  0  0  0  0  0  0  0  0  0
    3.1170   20.1900    2.1270 C   0  0  0  0  0  0  0  0  0  0  0  0
    0.3590   16.3860   -2.9370 C   0  0  1  0  0  0  0  0  0  0  0  0
    0.4270   16.0350   -4.4470 C   0  0  0  0  0  0  0  0  0  0  0  0
    0.9020   14.5630   -4.5430 C   0  0  0  0  0  0  0  0  0  0  0  0
    0.7730   14.0160   -3.1010 C   0  0  1  0  0  0  0  0  0  0  0  0
   -0.7360   13.6510   -2.9450 C   0  0  0  0  0  0  0  0  0  0  0  0
    1.7000   12.8120   -2.7330 C   0  0  2  0  0  0  0  0  0  0  0  0
    1.4590   11.5300   -3.5490 C   0  0  0  0  0  0  0  0  0  0  0  0
    0.4650   10.5810   -2.9670 C   0  0  0  0  0  0  0  0  0  0  0  0
    0.0040   10.6080   -1.7030 C   0  0  0  0  0  0  0  0  0  0  0  0
    0.5610   11.6110   -0.6840 C   0  0  1  0  0  0  0  0  0  0  0  0
    0.8680   10.8770    0.6490 C   0  0  0  0  0  0  0  0  0  0  0  0
   -0.3350   10.1080    1.1840 C   0  0  0  0  0  0  0  0  0  0  0  0
   -0.8240    9.0820    0.1660 C   0  0  2  0  0  0  0  0  0  0  0  0
    0.1780    8.0710    0.0120 O   0  0  0  0  0  0  0  0  0  0  0  0
   -1.1560    9.7030   -1.2200 C   0  0  0  0  0  0  0  0  0  0  0  0
   -2.4350   10.5690   -1.1090 C   0  0  0  0  0  0  0  0  0  0  0  0
   -1.5000    8.5440   -2.1930 C   0  0  0  0  0  0  0  0  0  0  0  0
    1.7770   12.5040   -1.1830 C   0  0  1  0  0  0  0  0  0  0  0  0
    3.1220   11.7530   -0.9450 C   0  0  0  0  0  0  0  0  0  0  0  0
    1.8410   13.8160   -0.3150 C   0  0  0  0  0  0  0  0  0  0  0  0
    0.9960   15.0100   -0.7970 C   0  0  0  0  0  0  0  0  0  0  0  0
    1.2290   15.2810   -2.2860 C   0  0  2  0  0  0  0  0  0  0  0  0
    2.7340   15.6730   -2.4720 C   0  0  0  0  0  0  0  0  0  0  0  0
    2.5532   17.9852   -1.4822 H   0  0  0  0  0  0  0  0  0  0  0  0
    2.7393   17.0995   -3.0339 H   0  0  0  0  0  0  0  0  0  0  0  0
    2.5899   18.8895   -3.0339 H   0  0  0  0  0  0  0  0  0  0  0  0
    0.4145   18.4737   -3.4862 H   0  0  0  0  0  0  0  0  0  0  0  0
   -0.0330   19.4278   -1.4203 H   0  0  0  0  0  0  0  0  0  0  0  0
   -0.9695   17.8581   -1.3675 H   0  0  0  0  0  0  0  0  0  0  0  0
    0.0018   17.4279    0.5760 H   0  0  0  0  0  0  0  0  0  0  0  0
    1.5592   17.2558   -0.3356 H   0  0  0  0  0  0  0  0  0  0  0  0
    0.3599   19.2439    1.2071 H   0  0  0  0  0  0  0  0  0  0  0  0
    4.1299   17.7460    1.6437 H   0  0  0  0  0  0  0  0  0  0  0  0
    3.2467   17.3801    0.1229 H   0  0  0  0  0  0  0  0  0  0  0  0
    4.5704   18.5945    0.1229 H   0  0  0  0  0  0  0  0  0  0  0  0
    2.9291   19.7070    3.0972 H   0  0  0  0  0  0  0  0  0  0  0  0
    4.1825   20.4517    2.0479 H   0  0  0  0  0  0  0  0  0  0  0  0
    2.5084   21.1029    2.0479 H   0  0  0  0  0  0  0  0  0  0  0  0
   -0.6520   16.3733   -2.5038 H   0  0  0  0  0  0  0  0  0  0  0  0
   -0.5667   16.1430   -4.9061 H   0  0  0  0  0  0  0  0  0  0  0  0
    1.1163   16.7078   -4.9782 H   0  0  0  0  0  0  0  0  0  0  0  0
    0.2627   13.9929   -5.2332 H   0  0  0  0  0  0  0  0  0  0  0  0
    1.9283   14.4804   -4.9301 H   0  0  0  0  0  0  0  0  0  0  0  0
   -0.9898   13.5896   -1.8764 H   0  0  0  0  0  0  0  0  0  0  0  0
   -1.3522   14.4260   -3.4243 H   0  0  0  0  0  0  0  0  0  0  0  0
   -0.9298   12.6801   -3.4243 H   0  0  0  0  0  0  0  0  0  0  0  0
    2.6925   13.1770   -3.0360 H   0  0  0  0  0  0  0  0  0  0  0  0
    1.1035   11.8245   -4.5475 H   0  0  0  0  0  0  0  0  0  0  0  0
    2.4193   10.9937   -3.5635 H   0  0  0  0  0  0  0  0  0  0  0  0
    0.0760    9.7922   -3.6276 H   0  0  0  0  0  0  0  0  0  0  0  0
   -0.2319   12.3570   -0.5262 H   0  0  0  0  0  0  0  0  0  0  0  0
    1.6923   10.1686    0.4796 H   0  0  0  0  0  0  0  0  0  0  0  0
    1.1358   11.6391    1.3956 H   0  0  0  0  0  0  0  0  0  0  0  0
   -0.0470    9.5877    2.1094 H   0  0  0  0  0  0  0  0  0  0  0  0
   -1.1484   10.8219    1.3809 H   0  0  0  0  0  0  0  0  0  0  0  0
   -1.7622    8.6567    0.5520 H   0  0  0  0  0  0  0  0  0  0  0  0
   -0.0020    7.6020   -0.8200 H   0  0  0  0  0  0  0  0  0  0  0  0
   -2.6763   10.7324   -0.0483 H   0  0  0  0  0  0  0  0  0  0  0  0
   -2.2651   11.5386   -1.5999 H   0  0  0  0  0  0  0  0  0  0  0  0
   -3.2722   10.0512   -1.5999 H   0  0  0  0  0  0  0  0  0  0  0  0
   -1.7663    7.6468   -1.6150 H   0  0  0  0  0  0  0  0  0  0  0  0
   -2.3498    8.8374   -2.8269 H   0  0  0  0  0  0  0  0  0  0  0  0
   -0.6277    8.3263   -2.8269 H   0  0  0  0  0  0  0  0  0  0  0  0
    3.3001   11.6535    0.1359 H   0  0  0  0  0  0  0  0  0  0  0  0
    3.0697   10.7536   -1.4015 H   0  0  0  0  0  0  0  0  0  0  0  0
    3.9454   12.3219   -1.4015 H   0  0  0  0  0  0  0  0  0  0  0  0
    1.5056   13.5596    0.7008 H   0  0  0  0  0  0  0  0  0  0  0  0
    2.8849   14.1559   -0.3841 H   0  0  0  0  0  0  0  0  0  0  0  0
   -0.0687   14.7863   -0.6343 H   0  0  0  0  0  0  0  0  0  0  0  0
    1.2934   15.9028   -0.2273 H   0  0  0  0  0  0  0  0  0  0  0  0
    3.2055   15.7958   -1.4858 H   0  0  0  0  0  0  0  0  0  0  0  0
    3.2531   14.8801   -3.0304 H   0  0  0  0  0  0  0  0  0  0  0  0
    2.8003   16.6184   -3.0304 H   0  0  0  0  0  0  0  0  0  0  0  0
  1  2  1  0
  2  3  1  0
  3  4  1  0
  4  5  1  0
  5  6  1  0
  6  7  1  0
  7  8  1  0
  7  9  1  0
  2 10  1  0
 10 11  1  0
 11 12  1  0
 12 13  1  0
 13 14  1  1
 13 15  1  0
 15 16  1  0
 16 17  1  0
 17 18  2  0
 18 19  1  0
 19 20  1  0
 20 21  1  0
 21 22  1  0
 22 23  1  0
 22 24  1  0
 24 25  1  0
 24 26  1  0
 19 27  1  0
 27 28  1  6
 27 29  1  0
 29 30  1  0
 30 31  1  0
 31 32  1  1
  7  5  1  0
 31 10  1  0
 31 13  1  0
 27 15  1  0
 24 18  1  0
  1 33  1  0
  1 34  1  0
  1 35  1  0
  2 36  1  6
  3 37  1  0
  3 38  1  0
  4 39  1  0
  4 40  1  0
  5 41  1  1
  8 42  1  0
  8 43  1  0
  8 44  1  0
  9 45  1  0
  9 46  1  0
  9 47  1  0
 10 48  1  1
 11 49  1  0
 11 50  1  0
 12 51  1  0
 12 52  1  0
 14 53  1  0
 14 54  1  0
 14 55  1  0
 15 56  1  6
 16 57  1  0
 16 58  1  0
 17 59  1  0
 19 60  1  1
 20 61  1  0
 20 62  1  0
 21 63  1  0
 21 64  1  0
 22 65  1  1
 23 66  1  0
 25 67  1  0
 25 68  1  0
 25 69  1  0
 26 70  1  0
 26 71  1  0
 26 72  1  0
 28 73  1  0
 28 74  1  0
 28 75  1  0
 29 76  1  0
 29 77  1  0
 30 78  1  0
 30 79  1  0
 32 80  1  0
 32 81  1  0
 32 82  1  0
M  END
>  <meeko>  (8) 
{"is_sidechain": [false], "intermolecular_energy": 2.731, "internal_energy": -0.839}

$$$$
EPH_relaxed_0001_pdb2pqr_Repair_343_r2_0001_out
     RDKit          3D

 82 86  0  0  0  0  0  0  0  0999 V2000
   -0.2620   10.3310   -3.1820 C   0  0  0  0  0  0  0  0  0  0  0  0
   -0.0530   10.0900   -1.6850 C   0  0  2  0  0  0  0  0  0  0  0  0
   -1.2970    9.4720   -1.0170 C   0  0  0  0  0  0  0  0  0  0  0  0
   -2.2220   10.5040   -0.3650 C   0  0  0  0  0  0  0  0  0  0  0  0
   -1.8800   10.7210    1.0780 C   0  0  2  0  0  0  0  0  0  0  0  0
   -3.0090   10.9290    1.9360 O   0  0  0  0  0  0  0  0  0  0  0  0
   -2.1040   12.0360    1.8020 C   0  0  0  0  0  0  0  0  0  0  0  0
   -2.6910   13.2210    1.1030 C   0  0  0  0  0  0  0  0  0  0  0  0
   -1.3070   12.3170    3.0380 C   0  0  0  0  0  0  0  0  0  0  0  0
    0.3140   11.3980   -0.9940 C   0  0  1  0  0  0  0  0  0  0  0  0
    1.4740   11.2310    0.0240 C   0  0  0  0  0  0  0  0  0  0  0  0
    2.3070   12.5380   -0.0290 C   0  0  0  0  0  0  0  0  0  0  0  0
    1.4230   13.5320   -0.8170 C   0  0  1  0  0  0  0  0  0  0  0  0
    0.4010   14.0780    0.2290 C   0  0  0  0  0  0  0  0  0  0  0  0
    2.1720   14.6920   -1.5510 C   0  0  2  0  0  0  0  0  0  0  0  0
    2.9410   15.6570   -0.6310 C   0  0  0  0  0  0  0  0  0  0  0  0
    2.1630   16.8380   -0.1530 C   0  0  0  0  0  0  0  0  0  0  0  0
    0.9970   17.2680   -0.6710 C   0  0  0  0  0  0  0  0  0  0  0  0
    0.3940   16.6010   -1.9140 C   0  0  1  0  0  0  0  0  0  0  0  0
   -0.0640   17.6930   -2.9170 C   0  0  0  0  0  0  0  0  0  0  0  0
   -1.0080   18.7100   -2.2840 C   0  0  0  0  0  0  0  0  0  0  0  0
   -0.3510   19.3940   -1.0870 C   0  0  2  0  0  0  0  0  0  0  0  0
    0.7390   20.1940   -1.5550 O   0  0  0  0  0  0  0  0  0  0  0  0
    0.1590   18.3930   -0.0140 C   0  0  0  0  0  0  0  0  0  0  0  0
   -1.0480   17.7410    0.7060 C   0  0  0  0  0  0  0  0  0  0  0  0
    0.9250   19.2020    1.0680 C   0  0  0  0  0  0  0  0  0  0  0  0
    1.2840   15.4770   -2.5990 C   0  0  1  0  0  0  0  0  0  0  0  0
    2.2690   16.1270   -3.6190 C   0  0  0  0  0  0  0  0  0  0  0  0
    0.3520   14.5190   -3.4300 C   0  0  0  0  0  0  0  0  0  0  0  0
   -0.2630   13.3230   -2.6780 C   0  0  0  0  0  0  0  0  0  0  0  0
    0.8070   12.5620   -1.8900 C   0  0  2  0  0  0  0  0  0  0  0  0
    1.8370   11.9830   -2.9190 C   0  0  0  0  0  0  0  0  0  0  0  0
   -0.9766   11.1550   -3.3245 H   0  0  0  0  0  0  0  0  0  0  0  0
    0.6987   10.5940   -3.6487 H   0  0  0  0  0  0  0  0  0  0  0  0
   -0.6583    9.4171   -3.6487 H   0  0  0  0  0  0  0  0  0  0  0  0
    0.7711    9.3693   -1.5780 H   0  0  0  0  0  0  0  0  0  0  0  0
   -1.8688    8.9282   -1.7834 H   0  0  0  0  0  0  0  0  0  0  0  0
   -0.9365    8.8111   -0.2150 H   0  0  0  0  0  0  0  0  0  0  0  0
   -2.1252   11.4592   -0.9019 H   0  0  0  0  0  0  0  0  0  0  0  0
   -3.2528   10.1239   -0.4199 H   0  0  0  0  0  0  0  0  0  0  0  0
   -1.0005   10.0658    0.9927 H   0  0  0  0  0  0  0  0  0  0  0  0
   -3.0500   13.9458    1.8485 H   0  0  0  0  0  0  0  0  0  0  0  0
   -1.9225   13.6930    0.4732 H   0  0  0  0  0  0  0  0  0  0  0  0
   -3.5321   12.8957    0.4732 H   0  0  0  0  0  0  0  0  0  0  0  0
   -1.9192   12.1011    3.9260 H   0  0  0  0  0  0  0  0  0  0  0  0
   -0.4095   11.6811    3.0480 H   0  0  0  0  0  0  0  0  0  0  0  0
   -1.0068   13.3752    3.0480 H   0  0  0  0  0  0  0  0  0  0  0  0
   -0.6600   11.6514   -0.5501 H   0  0  0  0  0  0  0  0  0  0  0  0
    1.0709   11.0795    1.0362 H   0  0  0  0  0  0  0  0  0  0  0  0
    2.0942   10.3569   -0.2236 H   0  0  0  0  0  0  0  0  0  0  0  0
    2.5046   12.9140    0.9857 H   0  0  0  0  0  0  0  0  0  0  0  0
    3.2890   12.3880   -0.5013 H   0  0  0  0  0  0  0  0  0  0  0  0
    0.7739   13.8788    1.2445 H   0  0  0  0  0  0  0  0  0  0  0  0
    0.2777   15.1622    0.0898 H   0  0  0  0  0  0  0  0  0  0  0  0
   -0.5688   13.5778    0.0898 H   0  0  0  0  0  0  0  0  0  0  0  0
    2.9388   14.1511   -2.1250 H   0  0  0  0  0  0  0  0  0  0  0  0
    3.2763   15.0913    0.2508 H   0  0  0  0  0  0  0  0  0  0  0  0
    3.7666   16.0608   -1.2354 H   0  0  0  0  0  0  0  0  0  0  0  0
    2.5773   17.4047    0.6939 H   0  0  0  0  0  0  0  0  0  0  0  0
   -0.4773   16.0303   -1.5602 H   0  0  0  0  0  0  0  0  0  0  0  0
    0.8244   18.2223   -3.2919 H   0  0  0  0  0  0  0  0  0  0  0  0
   -0.6099   17.1917   -3.7299 H   0  0  0  0  0  0  0  0  0  0  0  0
   -1.2720   19.4710   -3.0331 H   0  0  0  0  0  0  0  0  0  0  0  0
   -1.9090   18.1835   -1.9363 H   0  0  0  0  0  0  0  0  0  0  0  0
   -1.1178   20.0134   -0.5988 H   0  0  0  0  0  0  0  0  0  0  0  0
    1.4450   20.1480   -0.8890 H   0  0  0  0  0  0  0  0  0  0  0  0
   -0.9096   17.8158    1.7947 H   0  0  0  0  0  0  0  0  0  0  0  0
   -1.9725   18.2624    0.4173 H   0  0  0  0  0  0  0  0  0  0  0  0
   -1.1188   16.6819    0.4173 H   0  0  0  0  0  0  0  0  0  0  0  0
    0.6091   18.8683    2.0674 H   0  0  0  0  0  0  0  0  0  0  0  0
    2.0064   19.0378    0.9515 H   0  0  0  0  0  0  0  0  0  0  0  0
    0.7021   20.2728    0.9515 H   0  0  0  0  0  0  0  0  0  0  0  0
    3.0666   16.6533   -3.0741 H   0  0  0  0  0  0  0  0  0  0  0  0
    2.7122   15.3434   -4.2511 H   0  0  0  0  0  0  0  0  0  0  0  0
    1.7228   16.8427   -4.2511 H   0  0  0  0  0  0  0  0  0  0  0  0
   -0.4765   15.1235   -3.8278 H   0  0  0  0  0  0  0  0  0  0  0  0
    1.0058   14.0730   -4.1939 H   0  0  0  0  0  0  0  0  0  0  0  0
   -1.0292   13.6921   -1.9804 H   0  0  0  0  0  0  0  0  0  0  0  0
   -0.7099   12.6383   -3.4139 H   0  0  0  0  0  0  0  0  0  0  0  0
    2.6718   11.5138   -2.3777 H   0  0  0  0  0  0  0  0  0  0  0  0
    1.3411   11.2315   -3.5509 H   0  0  0  0  0  0  0  0  0  0  0  0
    2.2213   12.7973   -3.5509 H   0  0  0  0  0  0  0  0  0  0  0  0
  1  2  1  0
  2  3  1  0
  3  4  1  0
  4  5  1  0
  5  6  1  0
  6  7  1  0
  7  8  1  0
  7  9  1  0
  2 10  1  0
 10 11  1  0
 11 12  1  0
 12 13  1  0
 13 14  1  1
 13 15  1  0
 15 16  1  0
 16 17  1  0
 17 18  2  0
 18 19  1  0
 19 20  1  0
 20 21  1  0
 21 22  1  0
 22 23  1  0
 22 24  1  0
 24 25  1  0
 24 26  1  0
 19 27  1  0
 27 28  1  6
 27 29  1  0
 29 30  1  0
 30 31  1  0
 31 32  1  6
  7  5  1  0
 31 10  1  0
 31 13  1  0
 27 15  1  0
 24 18  1  0
  1 33  1  0
  1 34  1  0
  1 35  1  0
  2 36  1  6
  3 37  1  0
  3 38  1  0
  4 39  1  0
  4 40  1  0
  5 41  1  1
  8 42  1  0
  8 43  1  0
  8 44  1  0
  9 45  1  0
  9 46  1  0
  9 47  1  0
 10 48  1  1
 11 49  1  0
 11 50  1  0
 12 51  1  0
 12 52  1  0
 14 53  1  0
 14 54  1  0
 14 55  1  0
 15 56  1  6
 16 57  1  0
 16 58  1  0
 17 59  1  0
 19 60  1  1
 20 61  1  0
 20 62  1  0
 21 63  1  0
 21 64  1  0
 22 65  1  1
 23 66  1  0
 25 67  1  0
 25 68  1  0
 25 69  1  0
 26 70  1  0
 26 71  1  0
 26 72  1  0
 28 73  1  0
 28 74  1  0
 28 75  1  0
 29 76  1  0
 29 77  1  0
 30 78  1  0
 30 79  1  0
 32 80  1  0
 32 81  1  0
 32 82  1  0
M  END
>  <meeko>  (9) 
{"is_sidechain": [false], "intermolecular_energy": 2.731, "internal_energy": -0.839}

$$$$
EPH_relaxed_0001_pdb2pqr_Repair_343_r2_0001_out
     RDKit          3D

 82 86  0  0  0  0  0  0  0  0999 V2000
   -4.9600    7.2640   -1.1850 C   0  0  0  0  0  0  0  0  0  0  0  0
   -5.7300    8.5500   -0.8740 C   0  0  2  0  0  0  0  0  0  0  0  0
   -6.8010    8.8580   -1.9400 C   0  0  0  0  0  0  0  0  0  0  0  0
   -7.8590    7.7610   -2.0850 C   0  0  0  0  0  0  0  0  0  0  0  0
   -8.3810    7.3150   -0.7520 C   0  0  2  0  0  0  0  0  0  0  0  0
   -9.1330    6.0950   -0.7820 O   0  0  0  0  0  0  0  0  0  0  0  0
   -9.8560    7.2770   -0.4020 C   0  0  0  0  0  0  0  0  0  0  0  0
  -10.9030    7.6920   -1.3880 C   0  0  0  0  0  0  0  0  0  0  0  0
  -10.2500    7.3040    1.0420 C   0  0  0  0  0  0  0  0  0  0  0  0
   -4.7610    9.7210   -0.7550 C   0  0  1  0  0  0  0  0  0  0  0  0
   -5.1270   10.6840    0.4050 C   0  0  0  0  0  0  0  0  0  0  0  0
   -3.7910   11.2080    0.9900 C   0  0  0  0  0  0  0  0  0  0  0  0
   -2.7220   10.7980   -0.0500 C   0  0  1  0  0  0  0  0  0  0  0  0
   -2.8080   11.8880   -1.1640 C   0  0  0  0  0  0  0  0  0  0  0  0
   -1.2630   10.6340    0.4860 C   0  0  2  0  0  0  0  0  0  0  0  0
   -0.6300   11.9140    1.0590 C   0  0  0  0  0  0  0  0  0  0  0  0
    0.1240   12.7470    0.0770 C   0  0  0  0  0  0  0  0  0  0  0  0
    0.5300   12.3450   -1.1420 C   0  0  0  0  0  0  0  0  0  0  0  0
    0.3200   10.8970   -1.6030 C   0  0  1  0  0  0  0  0  0  0  0  0
    1.6300   10.3610   -2.2390 C   0  0  0  0  0  0  0  0  0  0  0  0
    2.1480   11.2610   -3.3570 C   0  0  0  0  0  0  0  0  0  0  0  0
    2.3990   12.6770   -2.8460 C   0  0  2  0  0  0  0  0  0  0  0  0
    3.4840   12.6440   -1.9130 O   0  0  0  0  0  0  0  0  0  0  0  0
    1.1520   13.3170   -2.1750 C   0  0  0  0  0  0  0  0  0  0  0  0
    0.0840   13.6290   -3.2520 C   0  0  0  0  0  0  0  0  0  0  0  0
    1.5790   14.6850   -1.5780 C   0  0  0  0  0  0  0  0  0  0  0  0
   -0.2820    9.9040   -0.5180 C   0  0  1  0  0  0  0  0  0  0  0  0
    0.8680    9.2970    0.3440 C   0  0  0  0  0  0  0  0  0  0  0  0
   -0.9700    8.6940   -1.2540 C   0  0  0  0  0  0  0  0  0  0  0  0
   -2.4480    8.8730   -1.6520 C   0  0  0  0  0  0  0  0  0  0  0  0
   -3.2750    9.3880   -0.4700 C   0  0  2  0  0  0  0  0  0  0  0  0
   -3.2260    8.3010    0.6570 C   0  0  0  0  0  0  0  0  0  0  0  0
   -4.6673    6.7752   -0.2440 H   0  0  0  0  0  0  0  0  0  0  0  0
   -5.6003    6.5850   -1.7672 H   0  0  0  0  0  0  0  0  0  0  0  0
   -4.0591    7.5077   -1.7672 H   0  0  0  0  0  0  0  0  0  0  0  0
   -6.2508    8.4002    0.0833 H   0  0  0  0  0  0  0  0  0  0  0  0
   -7.3074    9.7943   -1.6629 H   0  0  0  0  0  0  0  0  0  0  0  0
   -6.2805    8.9321   -2.9062 H   0  0  0  0  0  0  0  0  0  0  0  0
   -8.6959    8.1497   -2.6838 H   0  0  0  0  0  0  0  0  0  0  0  0
   -7.3909    6.8957   -2.5772 H   0  0  0  0  0  0  0  0  0  0  0  0
   -7.5122    7.7525   -0.2385 H   0  0  0  0  0  0  0  0  0  0  0  0
  -11.7945    8.0454   -0.8492 H   0  0  0  0  0  0  0  0  0  0  0  0
  -10.5110    8.5027   -2.0197 H   0  0  0  0  0  0  0  0  0  0  0  0
  -11.1729    6.8328   -2.0197 H   0  0  0  0  0  0  0  0  0  0  0  0
   -9.3485    7.2422    1.6693 H   0  0  0  0  0  0  0  0  0  0  0  0
  -10.7841    8.2409    1.2589 H   0  0  0  0  0  0  0  0  0  0  0  0
  -10.9069    6.4488    1.2589 H   0  0  0  0  0  0  0  0  0  0  0  0
   -4.8645   10.1489   -1.7631 H   0  0  0  0  0  0  0  0  0  0  0  0
   -5.7290   11.5227    0.0253 H   0  0  0  0  0  0  0  0  0  0  0  0
   -5.7195   10.1677    1.1747 H   0  0  0  0  0  0  0  0  0  0  0  0
   -3.8204   12.3014    1.1063 H   0  0  0  0  0  0  0  0  0  0  0  0
   -3.5821   10.7949    1.9879 H   0  0  0  0  0  0  0  0  0  0  0  0
   -2.8864   12.8819   -0.6992 H   0  0  0  0  0  0  0  0  0  0  0  0
   -1.9037   11.8458   -1.7889 H   0  0  0  0  0  0  0  0  0  0  0  0
   -3.6945   11.7045   -1.7889 H   0  0  0  0  0  0  0  0  0  0  0  0
   -1.4019    9.9598    1.3440 H   0  0  0  0  0  0  0  0  0  0  0  0
   -1.4360   12.5322    1.4810 H   0  0  0  0  0  0  0  0  0  0  0  0
    0.1068   11.5814    1.8050 H   0  0  0  0  0  0  0  0  0  0  0  0
    0.3689   13.7773    0.3745 H   0  0  0  0  0  0  0  0  0  0  0  0
   -0.4763   10.9318   -2.3611 H   0  0  0  0  0  0  0  0  0  0  0  0
    2.3998   10.2924   -1.4562 H   0  0  0  0  0  0  0  0  0  0  0  0
    1.4100    9.3765   -2.6775 H   0  0  0  0  0  0  0  0  0  0  0  0
    3.0899   10.8464   -3.7456 H   0  0  0  0  0  0  0  0  0  0  0  0
    1.3894   11.3044   -4.1524 H   0  0  0  0  0  0  0  0  0  0  0  0
    2.6419   13.3038   -3.7167 H   0  0  0  0  0  0  0  0  0  0  0  0
    3.1140   12.4320   -1.0390 H   0  0  0  0  0  0  0  0  0  0  0  0
   -0.8612   13.9051   -2.7618 H   0  0  0  0  0  0  0  0  0  0  0  0
    0.4291   14.4639   -3.8796 H   0  0  0  0  0  0  0  0  0  0  0  0
   -0.0746   12.7396   -3.8796 H   0  0  0  0  0  0  0  0  0  0  0  0
    1.5610   14.6274   -0.4797 H   0  0  0  0  0  0  0  0  0  0  0  0
    2.5966   14.9308   -1.9157 H   0  0  0  0  0  0  0  0  0  0  0  0
    0.8819   15.4661   -1.9157 H   0  0  0  0  0  0  0  0  0  0  0  0
    0.6315    9.4218    1.4110 H   0  0  0  0  0  0  0  0  0  0  0  0
    0.9724    8.2263    0.1144 H   0  0  0  0  0  0  0  0  0  0  0  0
    1.8109    9.8149    0.1144 H   0  0  0  0  0  0  0  0  0  0  0  0
   -0.3994    8.4955   -2.1733 H   0  0  0  0  0  0  0  0  0  0  0  0
   -0.9660    7.8722   -0.5229 H   0  0  0  0  0  0  0  0  0  0  0  0
   -2.5131    9.5956   -2.4788 H   0  0  0  0  0  0  0  0  0  0  0  0
   -2.8488    7.8966   -1.9618 H   0  0  0  0  0  0  0  0  0  0  0  0
   -3.2481    8.7919    1.6411 H   0  0  0  0  0  0  0  0  0  0  0  0
   -4.0950    7.6335    0.5606 H   0  0  0  0  0  0  0  0  0  0  0  0
   -2.3005    7.7144    0.5606 H   0  0  0  0  0  0  0  0  0  0  0  0
  1  2  1  0
  2  3  1  0
  3  4  1  0
  4  5  1  0
  5  6  1  0
  6  7  1  0
  7  8  1  0
  7  9  1  0
  2 10  1  0
 10 11  1  0
 11 12  1  0
 12 13  1  0
 13 14  1  6
 13 15  1  0
 15 16  1  0
 16 17  1  0
 17 18  2  0
 18 19  1  0
 19 20  1  0
 20 21  1  0
 21 22  1  0
 22 23  1  0
 22 24  1  0
 24 25  1  0
 24 26  1  0
 19 27  1  0
 27 28  1  1
 27 29  1  0
 29 30  1  0
 30 31  1  0
 31 32  1  1
  7  5  1  0
 31 10  1  0
 31 13  1  0
 27 15  1  0
 24 18  1  0
  1 33  1  0
  1 34  1  0
  1 35  1  0
  2 36  1  1
  3 37  1  0
  3 38  1  0
  4 39  1  0
  4 40  1  0
  5 41  1  1
  8 42  1  0
  8 43  1  0
  8 44  1  0
  9 45  1  0
  9 46  1  0
  9 47  1  0
 10 48  1  6
 11 49  1  0
 11 50  1  0
 12 51  1  0
 12 52  1  0
 14 53  1  0
 14 54  1  0
 14 55  1  0
 15 56  1  1
 16 57  1  0
 16 58  1  0
 17 59  1  0
 19 60  1  6
 20 61  1  0
 20 62  1  0
 21 63  1  0
 21 64  1  0
 22 65  1  6
 23 66  1  0
 25 67  1  0
 25 68  1  0
 25 69  1  0
 26 70  1  0
 26 71  1  0
 26 72  1  0
 28 73  1  0
 28 74  1  0
 28 75  1  0
 29 76  1  0
 29 77  1  0
 30 78  1  0
 30 79  1  0
 32 80  1  0
 32 81  1  0
 32 82  1  0
M  END
>  <meeko>  (10) 
{"is_sidechain": [false], "intermolecular_energy": 2.731, "internal_energy": -0.839}

$$$$
EPH_relaxed_0001_pdb2pqr_Repair_343_r2_0001_out
     RDKit          3D

 82 86  0  0  0  0  0  0  0  0999 V2000
    1.0660   15.7410   -4.5170 C   0  0  0  0  0  0  0  0  0  0  0  0
    1.4140   14.2970   -4.8900 C   0  0  2  0  0  0  0  0  0  0  0  0
    1.1940   14.0150   -6.3900 C   0  0  0  0  0  0  0  0  0  0  0  0
    1.1790   15.2770   -7.2570 C   0  0  0  0  0  0  0  0  0  0  0  0
    2.3030   15.2810   -8.2490 C   0  0  2  0  0  0  0  0  0  0  0  0
    2.4580   16.5070   -8.9740 O   0  0  0  0  0  0  0  0  0  0  0  0
    2.0940   15.3540   -9.7500 C   0  0  0  0  0  0  0  0  0  0  0  0
    0.7230   15.4280  -10.3440 C   0  0  0  0  0  0  0  0  0  0  0  0
    3.1860   14.8640  -10.6490 C   0  0  0  0  0  0  0  0  0  0  0  0
    0.5870   13.3300   -4.0510 C   0  0  1  0  0  0  0  0  0  0  0  0
    0.5870   11.8890   -4.6280 C   0  0  0  0  0  0  0  0  0  0  0  0
    0.5550   10.9220   -3.4160 C   0  0  0  0  0  0  0  0  0  0  0  0
    0.2040   11.8230   -2.2080 C   0  0  1  0  0  0  0  0  0  0  0  0
   -1.3460   11.9950   -2.2730 C   0  0  0  0  0  0  0  0  0  0  0  0
    0.6710   11.3110   -0.8060 C   0  0  2  0  0  0  0  0  0  0  0  0
    0.0500    9.9760   -0.3600 C   0  0  0  0  0  0  0  0  0  0  0  0
   -1.2200   10.0910    0.4170 C   0  0  0  0  0  0  0  0  0  0  0  0
   -1.6890   11.2160    0.9870 C   0  0  0  0  0  0  0  0  0  0  0  0
   -0.8680   12.5120    0.9620 C   0  0  1  0  0  0  0  0  0  0  0  0
   -0.8650   13.1490    2.3770 C   0  0  0  0  0  0  0  0  0  0  0  0
   -2.2720   13.3600    2.9270 C   0  0  0  0  0  0  0  0  0  0  0  0
   -3.0360   12.0400    2.9910 C   0  0  2  0  0  0  0  0  0  0  0  0
   -2.4170   11.1960    3.9660 O   0  0  0  0  0  0  0  0  0  0  0  0
   -3.0980   11.3010    1.6240 C   0  0  0  0  0  0  0  0  0  0  0  0
   -4.0240   12.0770    0.6550 C   0  0  0  0  0  0  0  0  0  0  0  0
   -3.7710    9.9220    1.8570 C   0  0  0  0  0  0  0  0  0  0  0  0
    0.5900   12.3980    0.3410 C   0  0  1  0  0  0  0  0  0  0  0  0
    1.6050   11.9610    1.4410 C   0  0  0  0  0  0  0  0  0  0  0  0
    1.0520   13.8210   -0.1500 C   0  0  0  0  0  0  0  0  0  0  0  0
    0.6630   14.2210   -1.5860 C   0  0  0  0  0  0  0  0  0  0  0  0
    1.0230   13.1120   -2.5800 C   0  0  2  0  0  0  0  0  0  0  0  0
    2.5790   12.9320   -2.5540 C   0  0  0  0  0  0  0  0  0  0  0  0
    1.0419   15.8412   -3.4218 H   0  0  0  0  0  0  0  0  0  0  0  0
    1.8262   16.4199   -4.9306 H   0  0  0  0  0  0  0  0  0  0  0  0
    0.0799   15.9991   -4.9306 H   0  0  0  0  0  0  0  0  0  0  0  0
    2.4838   14.1498   -4.6805 H   0  0  0  0  0  0  0  0  0  0  0  0
    2.0046   13.3606   -6.7430 H   0  0  0  0  0  0  0  0  0  0  0  0
    0.2038   13.5458   -6.4874 H   0  0  0  0  0  0  0  0  0  0  0  0
    0.2237   15.3250   -7.8003 H   0  0  0  0  0  0  0  0  0  0  0  0
    1.3009   16.1483   -6.5968 H   0  0  0  0  0  0  0  0  0  0  0  0
    2.8926   14.5993   -7.6184 H   0  0  0  0  0  0  0  0  0  0  0  0
   -0.0242   15.4683   -9.5378 H   0  0  0  0  0  0  0  0  0  0  0  0
    0.6410   16.3319  -10.9655 H   0  0  0  0  0  0  0  0  0  0  0  0
    0.5442   14.5382  -10.9655 H   0  0  0  0  0  0  0  0  0  0  0  0
    4.0217   14.4890  -10.0400 H   0  0  0  0  0  0  0  0  0  0  0  0
    2.8017   14.0520  -11.2838 H   0  0  0  0  0  0  0  0  0  0  0  0
    3.5370   15.6909  -11.2838 H   0  0  0  0  0  0  0  0  0  0  0  0
   -0.3856   13.8429   -4.0829 H   0  0  0  0  0  0  0  0  0  0  0  0
   -0.3000   11.7339   -5.2599 H   0  0  0  0  0  0  0  0  0  0  0  0
    1.4765   11.7128   -5.2506 H   0  0  0  0  0  0  0  0  0  0  0  0
   -0.2120   10.1464   -3.5580 H   0  0  0  0  0  0  0  0  0  0  0  0
    1.5096   10.3929   -3.2788 H   0  0  0  0  0  0  0  0  0  0  0  0
   -1.7530   12.0402   -1.2521 H   0  0  0  0  0  0  0  0  0  0  0  0
   -1.5896   12.9257   -2.8064 H   0  0  0  0  0  0  0  0  0  0  0  0
   -1.7877   11.1404   -2.8064 H   0  0  0  0  0  0  0  0  0  0  0  0
    1.7382   11.1034   -0.9736 H   0  0  0  0  0  0  0  0  0  0  0  0
   -0.1556    9.3791   -1.2608 H   0  0  0  0  0  0  0  0  0  0  0  0
    0.7809    9.5122    0.3187 H   0  0  0  0  0  0  0  0  0  0  0  0
   -1.8233    9.1786    0.5332 H   0  0  0  0  0  0  0  0  0  0  0  0
   -1.3763   13.1807    0.2518 H   0  0  0  0  0  0  0  0  0  0  0  0
   -0.3149   12.4859    3.0609 H   0  0  0  0  0  0  0  0  0  0  0  0
   -0.3863   14.1362    2.2975 H   0  0  0  0  0  0  0  0  0  0  0  0
   -2.2029   13.7855    3.9390 H   0  0  0  0  0  0  0  0  0  0  0  0
   -2.8116   14.0460    2.2575 H   0  0  0  0  0  0  0  0  0  0  0  0
   -4.0744   12.2730    3.2692 H   0  0  0  0  0  0  0  0  0  0  0  0
   -1.4890   11.0750    3.7050 H   0  0  0  0  0  0  0  0  0  0  0  0
   -4.7406   12.6775    1.2346 H   0  0  0  0  0  0  0  0  0  0  0  0
   -3.4177   12.7407    0.0211 H   0  0  0  0  0  0  0  0  0  0  0  0
   -4.5714   11.3639    0.0211 H   0  0  0  0  0  0  0  0  0  0  0  0
   -3.8617    9.7361    2.9374 H   0  0  0  0  0  0  0  0  0  0  0  0
   -4.7713    9.9202    1.3994 H   0  0  0  0  0  0  0  0  0  0  0  0
   -3.1570    9.1323    1.3994 H   0  0  0  0  0  0  0  0  0  0  0  0
    1.1717   12.1476    2.4347 H   0  0  0  0  0  0  0  0  0  0  0  0
    1.8245   10.8886    1.3322 H   0  0  0  0  0  0  0  0  0  0  0  0
    2.5349   12.5385    1.3322 H   0  0  0  0  0  0  0  0  0  0  0  0
    0.6166   14.5659    0.5323 H   0  0  0  0  0  0  0  0  0  0  0  0
    2.1513   13.7823   -0.1500 H   0  0  0  0  0  0  0  0  0  0  0  0
   -0.4209   14.4038   -1.6277 H   0  0  0  0  0  0  0  0  0  0  0  0
    1.2174   15.1309   -1.8593 H   0  0  0  0  0  0  0  0  0  0  0  0
    2.9261   12.8918   -1.5110 H   0  0  0  0  0  0  0  0  0  0  0  0
    2.8485   11.9967   -3.0664 H   0  0  0  0  0  0  0  0  0  0  0  0
    3.0549   13.7811   -3.0664 H   0  0  0  0  0  0  0  0  0  0  0  0
  1  2  1  0
  2  3  1  0
  3  4  1  0
  4  5  1  0
  5  6  1  0
  6  7  1  0
  7  8  1  0
  7  9  1  0
  2 10  1  0
 10 11  1  0
 11 12  1  0
 12 13  1  0
 13 14  1  1
 13 15  1  0
 15 16  1  0
 16 17  1  0
 17 18  2  0
 18 19  1  0
 19 20  1  0
 20 21  1  0
 21 22  1  0
 22 23  1  0
 22 24  1  0
 24 25  1  0
 24 26  1  0
 19 27  1  0
 27 28  1  1
 27 29  1  0
 29 30  1  0
 30 31  1  0
 31 32  1  6
  7  5  1  0
 31 10  1  0
 31 13  1  0
 27 15  1  0
 24 18  1  0
  1 33  1  0
  1 34  1  0
  1 35  1  0
  2 36  1  1
  3 37  1  0
  3 38  1  0
  4 39  1  0
  4 40  1  0
  5 41  1  6
  8 42  1  0
  8 43  1  0
  8 44  1  0
  9 45  1  0
  9 46  1  0
  9 47  1  0
 10 48  1  1
 11 49  1  0
 11 50  1  0
 12 51  1  0
 12 52  1  0
 14 53  1  0
 14 54  1  0
 14 55  1  0
 15 56  1  6
 16 57  1  0
 16 58  1  0
 17 59  1  0
 19 60  1  6
 20 61  1  0
 20 62  1  0
 21 63  1  0
 21 64  1  0
 22 65  1  1
 23 66  1  0
 25 67  1  0
 25 68  1  0
 25 69  1  0
 26 70  1  0
 26 71  1  0
 26 72  1  0
 28 73  1  0
 28 74  1  0
 28 75  1  0
 29 76  1  0
 29 77  1  0
 30 78  1  0
 30 79  1  0
 32 80  1  0
 32 81  1  0
 32 82  1  0
M  END
>  <meeko>  (11) 
{"is_sidechain": [false], "intermolecular_energy": 2.731, "internal_energy": -0.839}

$$$$
EPH_relaxed_0001_pdb2pqr_Repair_343_r2_0001_out
     RDKit          3D

 82 86  0  0  0  0  0  0  0  0999 V2000
   -4.5810   11.4730   -0.0150 C   0  0  0  0  0  0  0  0  0  0  0  0
   -3.2300   10.8700   -0.4100 C   0  0  2  0  0  0  0  0  0  0  0  0
   -3.0110    9.4760    0.2130 C   0  0  0  0  0  0  0  0  0  0  0  0
   -2.8040    8.3660   -0.8200 C   0  0  0  0  0  0  0  0  0  0  0  0
   -1.6550    8.6660   -1.7340 C   0  0  2  0  0  0  0  0  0  0  0  0
   -0.9460    7.5120   -2.2050 O   0  0  0  0  0  0  0  0  0  0  0  0
   -0.2050    8.4130   -1.3660 C   0  0  0  0  0  0  0  0  0  0  0  0
    0.1740    7.8360   -0.0380 C   0  0  0  0  0  0  0  0  0  0  0  0
    0.8610    9.1730   -2.0920 C   0  0  0  0  0  0  0  0  0  0  0  0
   -2.1020   11.8080    0.0020 C   0  0  1  0  0  0  0  0  0  0  0  0
   -1.1910   11.1990    1.1010 C   0  0  0  0  0  0  0  0  0  0  0  0
    0.2490   11.7010    0.8180 C   0  0  0  0  0  0  0  0  0  0  0  0
    0.0690   12.8340   -0.2200 C   0  0  1  0  0  0  0  0  0  0  0  0
   -0.3380   14.0860    0.6190 C   0  0  0  0  0  0  0  0  0  0  0  0
    1.2990   13.1300   -1.1390 C   0  0  2  0  0  0  0  0  0  0  0  0
    2.5620   13.6100   -0.4050 C   0  0  0  0  0  0  0  0  0  0  0  0
    2.6830   15.0890   -0.2430 C   0  0  0  0  0  0  0  0  0  0  0  0
    1.9650   16.0100   -0.9130 C   0  0  0  0  0  0  0  0  0  0  0  0
    0.9830   15.5940   -2.0160 C   0  0  1  0  0  0  0  0  0  0  0  0
    1.1850   16.5020   -3.2570 C   0  0  0  0  0  0  0  0  0  0  0  0
    1.0870   17.9860   -2.9190 C   0  0  0  0  0  0  0  0  0  0  0  0
    2.1180   18.3730   -1.8610 C   0  0  2  0  0  0  0  0  0  0  0  0
    3.4270   18.2430   -2.4240 O   0  0  0  0  0  0  0  0  0  0  0  0
    2.0170   17.5190   -0.5670 C   0  0  0  0  0  0  0  0  0  0  0  0
    0.7240   17.8870    0.2010 C   0  0  0  0  0  0  0  0  0  0  0  0
    3.2000   17.9140    0.3590 C   0  0  0  0  0  0  0  0  0  0  0  0
    0.9700   14.0480   -2.3850 C   0  0  1  0  0  0  0  0  0  0  0  0
    2.0600   13.7490   -3.4590 C   0  0  0  0  0  0  0  0  0  0  0  0
   -0.4140   13.6890   -3.0450 C   0  0  0  0  0  0  0  0  0  0  0  0
   -1.5560   13.2900   -2.0910 C   0  0  0  0  0  0  0  0  0  0  0  0
   -1.0890   12.2260   -1.0930 C   0  0  2  0  0  0  0  0  0  0  0  0
   -0.6940   10.9470   -1.9060 C   0  0  0  0  0  0  0  0  0  0  0  0
   -4.6602   11.5084    1.0816 H   0  0  0  0  0  0  0  0  0  0  0  0
   -4.6606   12.4921   -0.4214 H   0  0  0  0  0  0  0  0  0  0  0  0
   -5.3927   10.8517   -0.4214 H   0  0  0  0  0  0  0  0  0  0  0  0
   -3.2300   10.7462   -1.5030 H   0  0  0  0  0  0  0  0  0  0  0  0
   -2.1214    9.5200    0.8585 H   0  0  0  0  0  0  0  0  0  0  0  0
   -3.9243    9.2273    0.7734 H   0  0  0  0  0  0  0  0  0  0  0  0
   -2.6030    7.4216   -0.2929 H   0  0  0  0  0  0  0  0  0  0  0  0
   -3.7164    8.2909   -1.4298 H   0  0  0  0  0  0  0  0  0  0  0  0
   -2.1720    9.5524   -2.1304 H   0  0  0  0  0  0  0  0  0  0  0  0
   -0.2383    8.4638    0.7657 H   0  0  0  0  0  0  0  0  0  0  0  0
   -0.2312    6.8170    0.0482 H   0  0  0  0  0  0  0  0  0  0  0  0
    1.2701    7.8032    0.0482 H   0  0  0  0  0  0  0  0  0  0  0  0
    1.5316    9.6511   -1.3628 H   0  0  0  0  0  0  0  0  0  0  0  0
    1.4387    8.4818   -2.7233 H   0  0  0  0  0  0  0  0  0  0  0  0
    0.3959    9.9445   -2.7233 H   0  0  0  0  0  0  0  0  0  0  0  0
   -2.6931   12.6796    0.3197 H   0  0  0  0  0  0  0  0  0  0  0  0
   -1.5206   11.5349    2.0952 H   0  0  0  0  0  0  0  0  0  0  0  0
   -1.2359   10.1000    1.0867 H   0  0  0  0  0  0  0  0  0  0  0  0
    0.7138   12.0866    1.7374 H   0  0  0  0  0  0  0  0  0  0  0  0
    0.9063   10.8990    0.4511 H   0  0  0  0  0  0  0  0  0  0  0  0
   -0.2613   13.8500    1.6906 H   0  0  0  0  0  0  0  0  0  0  0  0
    0.3344   14.9228    0.3788 H   0  0  0  0  0  0  0  0  0  0  0  0
   -1.3739   14.3674    0.3788 H   0  0  0  0  0  0  0  0  0  0  0  0
    1.5446   12.1327   -1.5328 H   0  0  0  0  0  0  0  0  0  0  0  0
    2.5652   13.1570    0.5974 H   0  0  0  0  0  0  0  0  0  0  0  0
    3.4127   13.3022   -1.0308 H   0  0  0  0  0  0  0  0  0  0  0  0
    3.4208   15.4573    0.4850 H   0  0  0  0  0  0  0  0  0  0  0  0
   -0.0244   15.7474   -1.6017 H   0  0  0  0  0  0  0  0  0  0  0  0
    2.1798   16.3022   -3.6818 H   0  0  0  0  0  0  0  0  0  0  0  0
    0.3840   16.2697   -3.9742 H   0  0  0  0  0  0  0  0  0  0  0  0
    1.2671   18.5756   -3.8300 H   0  0  0  0  0  0  0  0  0  0  0  0
    0.0818   18.1904   -2.5216 H   0  0  0  0  0  0  0  0  0  0  0  0
    1.9147   19.4131   -1.5661 H   0  0  0  0  0  0  0  0  0  0  0  0
    3.3220   17.9930   -3.3570 H   0  0  0  0  0  0  0  0  0  0  0  0
    0.9126   17.8333    1.2834 H   0  0  0  0  0  0  0  0  0  0  0  0
    0.4162   18.9084   -0.0674 H   0  0  0  0  0  0  0  0  0  0  0  0
   -0.0755   17.1807   -0.0674 H   0  0  0  0  0  0  0  0  0  0  0  0
    2.8928   17.8114    1.4103 H   0  0  0  0  0  0  0  0  0  0  0  0
    4.0569   17.2532    0.1612 H   0  0  0  0  0  0  0  0  0  0  0  0
    3.4880   18.9570    0.1612 H   0  0  0  0  0  0  0  0  0  0  0  0
    3.0053   13.4897   -2.9598 H   0  0  0  0  0  0  0  0  0  0  0  0
    1.7343   12.9070   -4.0875 H   0  0  0  0  0  0  0  0  0  0  0  0
    2.2095   14.6393   -4.0875 H   0  0  0  0  0  0  0  0  0  0  0  0
   -0.7487   14.5681   -3.6153 H   0  0  0  0  0  0  0  0  0  0  0  0
   -0.2195   12.7924   -3.6518 H   0  0  0  0  0  0  0  0  0  0  0  0
   -1.8907   14.1801   -1.5380 H   0  0  0  0  0  0  0  0  0  0  0  0
   -2.3820   12.8742   -2.6867 H   0  0  0  0  0  0  0  0  0  0  0  0
   -0.4427   10.1332   -1.2099 H   0  0  0  0  0  0  0  0  0  0  0  0
   -1.5391   10.6397   -2.5395 H   0  0  0  0  0  0  0  0  0  0  0  0
    0.1772   11.1698   -2.5395 H   0  0  0  0  0  0  0  0  0  0  0  0
  1  2  1  0
  2  3  1  0
  3  4  1  0
  4  5  1  0
  5  6  1  0
  6  7  1  0
  7  8  1  0
  7  9  1  0
  2 10  1  0
 10 11  1  0
 11 12  1  0
 12 13  1  0
 13 14  1  1
 13 15  1  0
 15 16  1  0
 16 17  1  0
 17 18  2  0
 18 19  1  0
 19 20  1  0
 20 21  1  0
 21 22  1  0
 22 23  1  0
 22 24  1  0
 24 25  1  0
 24 26  1  0
 19 27  1  0
 27 28  1  6
 27 29  1  0
 29 30  1  0
 30 31  1  0
 31 32  1  6
  7  5  1  0
 31 10  1  0
 31 13  1  0
 27 15  1  0
 24 18  1  0
  1 33  1  0
  1 34  1  0
  1 35  1  0
  2 36  1  6
  3 37  1  0
  3 38  1  0
  4 39  1  0
  4 40  1  0
  5 41  1  6
  8 42  1  0
  8 43  1  0
  8 44  1  0
  9 45  1  0
  9 46  1  0
  9 47  1  0
 10 48  1  1
 11 49  1  0
 11 50  1  0
 12 51  1  0
 12 52  1  0
 14 53  1  0
 14 54  1  0
 14 55  1  0
 15 56  1  6
 16 57  1  0
 16 58  1  0
 17 59  1  0
 19 60  1  1
 20 61  1  0
 20 62  1  0
 21 63  1  0
 21 64  1  0
 22 65  1  1
 23 66  1  0
 25 67  1  0
 25 68  1  0
 25 69  1  0
 26 70  1  0
 26 71  1  0
 26 72  1  0
 28 73  1  0
 28 74  1  0
 28 75  1  0
 29 76  1  0
 29 77  1  0
 30 78  1  0
 30 79  1  0
 32 80  1  0
 32 81  1  0
 32 82  1  0
M  END
>  <meeko>  (12) 
{"is_sidechain": [false], "intermolecular_energy": 2.731, "internal_energy": -0.839}

$$$$
EPH_relaxed_0001_pdb2pqr_Repair_343_r2_0001_out
     RDKit          3D

 82 86  0  0  0  0  0  0  0  0999 V2000
    1.6860   13.6280   -5.9680 C   0  0  0  0  0  0  0  0  0  0  0  0
    2.2910   12.7180   -4.8950 C   0  0  2  0  0  0  0  0  0  0  0  0
    3.1560   11.5980   -5.5050 C   0  0  0  0  0  0  0  0  0  0  0  0
    4.6300   11.9800   -5.6730 C   0  0  0  0  0  0  0  0  0  0  0  0
    5.5420   10.9280   -5.1170 C   0  0  2  0  0  0  0  0  0  0  0  0
    5.1790   10.4470   -3.8160 O   0  0  0  0  0  0  0  0  0  0  0  0
    6.4310   11.1450   -3.9080 C   0  0  0  0  0  0  0  0  0  0  0  0
    6.4530   12.4530   -3.1800 C   0  0  0  0  0  0  0  0  0  0  0  0
    7.6280   10.2630   -3.7310 C   0  0  0  0  0  0  0  0  0  0  0  0
    1.1830   12.1140   -4.0410 C   0  0  1  0  0  0  0  0  0  0  0  0
    0.7200   10.7260   -4.5570 C   0  0  0  0  0  0  0  0  0  0  0  0
    0.3580    9.8810   -3.3080 C   0  0  0  0  0  0  0  0  0  0  0  0
    0.3050   10.9040   -2.1490 C   0  0  1  0  0  0  0  0  0  0  0  0
   -1.1030   11.5670   -2.2640 C   0  0  0  0  0  0  0  0  0  0  0  0
    0.5600   10.3360   -0.7150 C   0  0  2  0  0  0  0  0  0  0  0  0
   -0.4680    9.2980   -0.2310 C   0  0  0  0  0  0  0  0  0  0  0  0
   -1.6410    9.8570    0.5040 C   0  0  0  0  0  0  0  0  0  0  0  0
   -1.7240   11.1000    1.0140 C   0  0  0  0  0  0  0  0  0  0  0  0
   -0.5260   12.0560    0.9600 C   0  0  1  0  0  0  0  0  0  0  0  0
   -0.3330   12.7240    2.3460 C   0  0  0  0  0  0  0  0  0  0  0  0
   -1.6010   13.4070    2.8480 C   0  0  0  0  0  0  0  0  0  0  0  0
   -2.7550   12.4120    2.9440 C   0  0  2  0  0  0  0  0  0  0  0  0
   -2.4580   11.4600    3.9710 O   0  0  0  0  0  0  0  0  0  0  0  0
   -3.0360   11.6690    1.6080 C   0  0  0  0  0  0  0  0  0  0  0  0
   -3.6460   12.6570    0.5820 C   0  0  0  0  0  0  0  0  0  0  0  0
   -4.1250   10.5970    1.8790 C   0  0  0  0  0  0  0  0  0  0  0  0
    0.8240   11.4440    0.3840 C   0  0  1  0  0  0  0  0  0  0  0  0
    1.6260   10.7540    1.5290 C   0  0  0  0  0  0  0  0  0  0  0  0
    1.7310   12.6140   -0.1520 C   0  0  0  0  0  0  0  0  0  0  0  0
    1.5130   13.0490   -1.6130 C   0  0  0  0  0  0  0  0  0  0  0  0
    1.5040   11.8380   -2.5510 C   0  0  2  0  0  0  0  0  0  0  0  0
    2.9160   11.1620   -2.4730 C   0  0  0  0  0  0  0  0  0  0  0  0
    1.1389   14.4510   -5.4849 H   0  0  0  0  0  0  0  0  0  0  0  0
    2.4902   14.0406   -6.5949 H   0  0  0  0  0  0  0  0  0  0  0  0
    0.9944   13.0461   -6.5949 H   0  0  0  0  0  0  0  0  0  0  0  0
    2.9480   13.3377   -4.2671 H   0  0  0  0  0  0  0  0  0  0  0  0
    3.0982   10.7177   -4.8479 H   0  0  0  0  0  0  0  0  0  0  0  0
    2.7593   11.3977   -6.5112 H   0  0  0  0  0  0  0  0  0  0  0  0
    4.8452   12.1085   -6.7441 H   0  0  0  0  0  0  0  0  0  0  0  0
    4.8073   12.9145   -5.1205 H   0  0  0  0  0  0  0  0  0  0  0  0
    5.7502   10.5427   -6.1261 H   0  0  0  0  0  0  0  0  0  0  0  0
    6.4499   12.2691   -2.0955 H   0  0  0  0  0  0  0  0  0  0  0  0
    7.3606   13.0104   -3.4548 H   0  0  0  0  0  0  0  0  0  0  0  0
    5.5646   13.0406   -3.4548 H   0  0  0  0  0  0  0  0  0  0  0  0
    7.8224   10.1197   -2.6578 H   0  0  0  0  0  0  0  0  0  0  0  0
    7.4377    9.2876   -4.2026 H   0  0  0  0  0  0  0  0  0  0  0  0
    8.5032   10.7337   -4.2026 H   0  0  0  0  0  0  0  0  0  0  0  0
    0.4316   12.9132   -4.1224 H   0  0  0  0  0  0  0  0  0  0  0  0
   -0.1607   10.8380   -5.2065 H   0  0  0  0  0  0  0  0  0  0  0  0
    1.5116   10.2400   -5.1462 H   0  0  0  0  0  0  0  0  0  0  0  0
   -0.6184    9.3917   -3.4395 H   0  0  0  0  0  0  0  0  0  0  0  0
    1.0852    9.0767   -3.1225 H   0  0  0  0  0  0  0  0  0  0  0  0
   -1.5030   11.7553   -1.2567 H   0  0  0  0  0  0  0  0  0  0  0  0
   -1.0166   12.5191   -2.8082 H   0  0  0  0  0  0  0  0  0  0  0  0
   -1.7819   10.8939   -2.8082 H   0  0  0  0  0  0  0  0  0  0  0  0
    1.5026    9.7841   -0.8449 H   0  0  0  0  0  0  0  0  0  0  0  0
   -0.8450    8.7569   -1.1114 H   0  0  0  0  0  0  0  0  0  0  0  0
    0.0630    8.6557    0.4869 H   0  0  0  0  0  0  0  0  0  0  0  0
   -2.5108    9.1976    0.6403 H   0  0  0  0  0  0  0  0  0  0  0  0
   -0.7803   12.8197    0.2103 H   0  0  0  0  0  0  0  0  0  0  0  0
   -0.0377   11.9517    3.0715 H   0  0  0  0  0  0  0  0  0  0  0  0
    0.4424   13.4968    2.2390 H   0  0  0  0  0  0  0  0  0  0  0  0
   -1.4100   13.8339    3.8436 H   0  0  0  0  0  0  0  0  0  0  0  0
   -1.8784   14.1990    2.1368 H   0  0  0  0  0  0  0  0  0  0  0  0
   -3.6645   12.9830    3.1823 H   0  0  0  0  0  0  0  0  0  0  0  0
   -2.3440   11.9510    4.8020 H   0  0  0  0  0  0  0  0  0  0  0  0
   -4.1511   13.4751    1.1164 H   0  0  0  0  0  0  0  0  0  0  0  0
   -2.8457   13.0705   -0.0494 H   0  0  0  0  0  0  0  0  0  0  0  0
   -4.3742   12.1268   -0.0494 H   0  0  0  0  0  0  0  0  0  0  0  0
   -4.2532   10.4708    2.9642 H   0  0  0  0  0  0  0  0  0  0  0  0
   -5.0769   10.9203    1.4324 H   0  0  0  0  0  0  0  0  0  0  0  0
   -3.8168    9.6401    1.4324 H   0  0  0  0  0  0  0  0  0  0  0  0
    1.2372   11.0885    2.5021 H   0  0  0  0  0  0  0  0  0  0  0  0
    1.5176    9.6625    1.4464 H   0  0  0  0  0  0  0  0  0  0  0  0
    2.6891   11.0242    1.4464 H   0  0  0  0  0  0  0  0  0  0  0  0
    1.5533   13.4919    0.4865 H   0  0  0  0  0  0  0  0  0  0  0  0
    2.7575   12.2200   -0.1195 H   0  0  0  0  0  0  0  0  0  0  0  0
    0.5489   13.5726   -1.6924 H   0  0  0  0  0  0  0  0  0  0  0  0
    2.3382   13.7141   -1.9074 H   0  0  0  0  0  0  0  0  0  0  0  0
    3.1998   11.0262   -1.4189 H   0  0  0  0  0  0  0  0  0  0  0  0
    2.8818   10.1826   -2.9727 H   0  0  0  0  0  0  0  0  0  0  0  0
    3.6574   11.8028   -2.9727 H   0  0  0  0  0  0  0  0  0  0  0  0
  1  2  1  0
  2  3  1  0
  3  4  1  0
  4  5  1  0
  5  6  1  0
  6  7  1  0
  7  8  1  0
  7  9  1  0
  2 10  1  0
 10 11  1  0
 11 12  1  0
 12 13  1  0
 13 14  1  1
 13 15  1  0
 15 16  1  0
 16 17  1  0
 17 18  2  0
 18 19  1  0
 19 20  1  0
 20 21  1  0
 21 22  1  0
 22 23  1  0
 22 24  1  0
 24 25  1  0
 24 26  1  0
 19 27  1  0
 27 28  1  1
 27 29  1  0
 29 30  1  0
 30 31  1  0
 31 32  1  6
  7  5  1  0
 31 10  1  0
 31 13  1  0
 27 15  1  0
 24 18  1  0
  1 33  1  0
  1 34  1  0
  1 35  1  0
  2 36  1  1
  3 37  1  0
  3 38  1  0
  4 39  1  0
  4 40  1  0
  5 41  1  6
  8 42  1  0
  8 43  1  0
  8 44  1  0
  9 45  1  0
  9 46  1  0
  9 47  1  0
 10 48  1  1
 11 49  1  0
 11 50  1  0
 12 51  1  0
 12 52  1  0
 14 53  1  0
 14 54  1  0
 14 55  1  0
 15 56  1  6
 16 57  1  0
 16 58  1  0
 17 59  1  0
 19 60  1  6
 20 61  1  0
 20 62  1  0
 21 63  1  0
 21 64  1  0
 22 65  1  1
 23 66  1  0
 25 67  1  0
 25 68  1  0
 25 69  1  0
 26 70  1  0
 26 71  1  0
 26 72  1  0
 28 73  1  0
 28 74  1  0
 28 75  1  0
 29 76  1  0
 29 77  1  0
 30 78  1  0
 30 79  1  0
 32 80  1  0
 32 81  1  0
 32 82  1  0
M  END
>  <meeko>  (13) 
{"is_sidechain": [false], "intermolecular_energy": 2.731, "internal_energy": -0.839}

$$$$
EPH_relaxed_0001_pdb2pqr_Repair_343_r2_0001_out
     RDKit          3D

 82 86  0  0  0  0  0  0  0  0999 V2000
   -5.2600    5.8060   -1.8670 C   0  0  0  0  0  0  0  0  0  0  0  0
   -5.5340    7.3050   -2.0130 C   0  0  2  0  0  0  0  0  0  0  0  0
   -5.2320    8.0800   -0.7140 C   0  0  0  0  0  0  0  0  0  0  0  0
   -3.7680    8.5080   -0.5790 C   0  0  0  0  0  0  0  0  0  0  0  0
   -3.6230    9.7220    0.2880 C   0  0  2  0  0  0  0  0  0  0  0  0
   -3.8910   10.9650   -0.3730 O   0  0  0  0  0  0  0  0  0  0  0  0
   -2.5440   10.7690    0.0870 C   0  0  0  0  0  0  0  0  0  0  0  0
   -1.5360   10.6510   -1.0120 C   0  0  0  0  0  0  0  0  0  0  0  0
   -2.1700   11.6420    1.2450 C   0  0  0  0  0  0  0  0  0  0  0  0
   -6.9830    7.5310   -2.4280 C   0  0  1  0  0  0  0  0  0  0  0  0
   -7.3400    6.8190   -3.7600 C   0  0  0  0  0  0  0  0  0  0  0  0
   -8.8130    6.3510   -3.6370 C   0  0  0  0  0  0  0  0  0  0  0  0
   -9.3540    7.0910   -2.3910 C   0  0  1  0  0  0  0  0  0  0  0  0
   -9.7180    8.5210   -2.9000 C   0  0  0  0  0  0  0  0  0  0  0  0
  -10.5570    6.4160   -1.6550 C   0  0  2  0  0  0  0  0  0  0  0  0
  -11.8420    6.2840   -2.4910 C   0  0  0  0  0  0  0  0  0  0  0  0
  -12.7890    7.4330   -2.3920 C   0  0  0  0  0  0  0  0  0  0  0  0
  -12.7560    8.3950   -1.4500 C   0  0  0  0  0  0  0  0  0  0  0  0
  -11.7500    8.3300   -0.2940 C   0  0  1  0  0  0  0  0  0  0  0  0
  -12.4790    8.6290    1.0430 C   0  0  0  0  0  0  0  0  0  0  0  0
  -13.2450    9.9480    1.0090 C   0  0  0  0  0  0  0  0  0  0  0  0
  -14.2750    9.9510   -0.1170 C   0  0  2  0  0  0  0  0  0  0  0  0
  -15.2870    8.9830    0.1800 O   0  0  0  0  0  0  0  0  0  0  0  0
  -13.6590    9.6510   -1.5120 C   0  0  0  0  0  0  0  0  0  0  0  0
  -12.7920   10.8510   -1.9670 C   0  0  0  0  0  0  0  0  0  0  0  0
  -14.8220    9.5440   -2.5350 C   0  0  0  0  0  0  0  0  0  0  0  0
  -10.8590    7.0160   -0.2220 C   0  0  1  0  0  0  0  0  0  0  0  0
  -11.6100    5.9060    0.5750 C   0  0  0  0  0  0  0  0  0  0  0  0
   -9.5440    7.3300    0.5840 C   0  0  0  0  0  0  0  0  0  0  0  0
   -8.3510    7.8820   -0.2190 C   0  0  0  0  0  0  0  0  0  0  0  0
   -8.0860    7.0290   -1.4630 C   0  0  2  0  0  0  0  0  0  0  0  0
   -7.6950    5.5900   -0.9820 C   0  0  0  0  0  0  0  0  0  0  0  0
   -5.2122    5.5443   -0.7997 H   0  0  0  0  0  0  0  0  0  0  0  0
   -6.0690    5.2368   -2.3482 H   0  0  0  0  0  0  0  0  0  0  0  0
   -4.3020    5.5598   -2.3482 H   0  0  0  0  0  0  0  0  0  0  0  0
   -4.8595    7.6897   -2.7921 H   0  0  0  0  0  0  0  0  0  0  0  0
   -5.8609    8.9823   -0.6937 H   0  0  0  0  0  0  0  0  0  0  0  0
   -5.4467    7.3999    0.1235 H   0  0  0  0  0  0  0  0  0  0  0  0
   -3.1946    7.6815   -0.1339 H   0  0  0  0  0  0  0  0  0  0  0  0
   -3.3893    8.7555   -1.5816 H   0  0  0  0  0  0  0  0  0  0  0  0
   -3.9464    9.1566    1.1744 H   0  0  0  0  0  0  0  0  0  0  0  0
   -0.5322   10.5335   -0.5778 H   0  0  0  0  0  0  0  0  0  0  0  0
   -1.7717    9.7743   -1.6332 H   0  0  0  0  0  0  0  0  0  0  0  0
   -1.5629   11.5584   -1.6332 H   0  0  0  0  0  0  0  0  0  0  0  0
   -2.3942   11.1186    2.1862 H   0  0  0  0  0  0  0  0  0  0  0  0
   -1.0950   11.8706    1.1997 H   0  0  0  0  0  0  0  0  0  0  0  0
   -2.7461   12.5780    1.1997 H   0  0  0  0  0  0  0  0  0  0  0  0
   -6.9932    8.6301   -2.4716 H   0  0  0  0  0  0  0  0  0  0  0  0
   -7.2337    7.5175   -4.6031 H   0  0  0  0  0  0  0  0  0  0  0  0
   -6.6692    5.9669   -3.9442 H   0  0  0  0  0  0  0  0  0  0  0  0
   -9.3855    6.6304   -4.5338 H   0  0  0  0  0  0  0  0  0  0  0  0
   -8.8974    5.2583   -3.5429 H   0  0  0  0  0  0  0  0  0  0  0  0
   -9.8869    9.1846   -2.0392 H   0  0  0  0  0  0  0  0  0  0  0  0
   -8.8914    8.9146   -3.5098 H   0  0  0  0  0  0  0  0  0  0  0  0
  -10.6322    8.4715   -3.5098 H   0  0  0  0  0  0  0  0  0  0  0  0
  -10.1937    5.3892   -1.5012 H   0  0  0  0  0  0  0  0  0  0  0  0
  -11.5510    6.1736   -3.5460 H   0  0  0  0  0  0  0  0  0  0  0  0
  -12.3786    5.4125   -2.0878 H   0  0  0  0  0  0  0  0  0  0  0  0
  -13.5809    7.4999   -3.1526 H   0  0  0  0  0  0  0  0  0  0  0  0
  -11.0034    9.1120   -0.4964 H   0  0  0  0  0  0  0  0  0  0  0  0
  -13.1889    7.8140    1.2475 H   0  0  0  0  0  0  0  0  0  0  0  0
  -11.7146    8.7068    1.8301 H   0  0  0  0  0  0  0  0  0  0  0  0
  -13.7615   10.0893    1.9699 H   0  0  0  0  0  0  0  0  0  0  0  0
  -12.5299   10.7651    0.8332 H   0  0  0  0  0  0  0  0  0  0  0  0
  -14.6989   10.9645   -0.1725 H   0  0  0  0  0  0  0  0  0  0  0  0
  -15.2580    8.8120    1.1370 H   0  0  0  0  0  0  0  0  0  0  0  0
  -12.4083   11.3821   -1.0834 H   0  0  0  0  0  0  0  0  0  0  0  0
  -11.9479   10.4856   -2.5704 H   0  0  0  0  0  0  0  0  0  0  0  0
  -13.4040   11.5376   -2.5704 H   0  0  0  0  0  0  0  0  0  0  0  0
  -15.7771    9.4561   -1.9965 H   0  0  0  0  0  0  0  0  0  0  0  0
  -14.8387   10.4444   -3.1667 H   0  0  0  0  0  0  0  0  0  0  0  0
  -14.6741    8.6557   -3.1667 H   0  0  0  0  0  0  0  0  0  0  0  0
  -11.4895    6.0840    1.6538 H   0  0  0  0  0  0  0  0  0  0  0  0
  -12.6790    5.9287    0.3167 H   0  0  0  0  0  0  0  0  0  0  0  0
  -11.1912    4.9222    0.3167 H   0  0  0  0  0  0  0  0  0  0  0  0
   -9.7964    8.0713    1.3565 H   0  0  0  0  0  0  0  0  0  0  0  0
   -9.2049    6.3576    0.9706 H   0  0  0  0  0  0  0  0  0  0  0  0
   -8.5732    8.9133   -0.5305 H   0  0  0  0  0  0  0  0  0  0  0  0
   -7.4563    7.8573    0.4204 H   0  0  0  0  0  0  0  0  0  0  0  0
   -7.6870    5.5605    0.1176 H   0  0  0  0  0  0  0  0  0  0  0  0
   -8.4285    4.8641   -1.3629 H   0  0  0  0  0  0  0  0  0  0  0  0
   -6.6950    5.3351   -1.3629 H   0  0  0  0  0  0  0  0  0  0  0  0
  1  2  1  0
  2  3  1  0
  3  4  1  0
  4  5  1  0
  5  6  1  0
  6  7  1  0
  7  8  1  0
  7  9  1  0
  2 10  1  0
 10 11  1  0
 11 12  1  0
 12 13  1  0
 13 14  1  6
 13 15  1  0
 15 16  1  0
 16 17  1  0
 17 18  2  0
 18 19  1  0
 19 20  1  0
 20 21  1  0
 21 22  1  0
 22 23  1  0
 22 24  1  0
 24 25  1  0
 24 26  1  0
 19 27  1  0
 27 28  1  1
 27 29  1  0
 29 30  1  0
 30 31  1  0
 31 32  1  1
  7  5  1  0
 31 10  1  0
 31 13  1  0
 27 15  1  0
 24 18  1  0
  1 33  1  0
  1 34  1  0
  1 35  1  0
  2 36  1  6
  3 37  1  0
  3 38  1  0
  4 39  1  0
  4 40  1  0
  5 41  1  1
  8 42  1  0
  8 43  1  0
  8 44  1  0
  9 45  1  0
  9 46  1  0
  9 47  1  0
 10 48  1  6
 11 49  1  0
 11 50  1  0
 12 51  1  0
 12 52  1  0
 14 53  1  0
 14 54  1  0
 14 55  1  0
 15 56  1  1
 16 57  1  0
 16 58  1  0
 17 59  1  0
 19 60  1  6
 20 61  1  0
 20 62  1  0
 21 63  1  0
 21 64  1  0
 22 65  1  6
 23 66  1  0
 25 67  1  0
 25 68  1  0
 25 69  1  0
 26 70  1  0
 26 71  1  0
 26 72  1  0
 28 73  1  0
 28 74  1  0
 28 75  1  0
 29 76  1  0
 29 77  1  0
 30 78  1  0
 30 79  1  0
 32 80  1  0
 32 81  1  0
 32 82  1  0
M  END
>  <meeko>  (14) 
{"is_sidechain": [false], "intermolecular_energy": 2.731, "internal_energy": -0.839}

$$$$
EPH_relaxed_0001_pdb2pqr_Repair_343_r2_0001_out
     RDKit          3D

 82 86  0  0  0  0  0  0  0  0999 V2000
    2.8670   18.4600   -1.3920 C   0  0  0  0  0  0  0  0  0  0  0  0
    2.3820   17.4020   -2.3870 C   0  0  2  0  0  0  0  0  0  0  0  0
    0.9210   17.6390   -2.8210 C   0  0  0  0  0  0  0  0  0  0  0  0
    0.3830   19.0210   -2.4410 C   0  0  0  0  0  0  0  0  0  0  0  0
   -0.9620   18.9300   -1.7860 C   0  0  2  0  0  0  0  0  0  0  0  0
   -1.6310   20.1870   -1.6150 O   0  0  0  0  0  0  0  0  0  0  0  0
   -1.2620   19.4970   -0.4100 C   0  0  0  0  0  0  0  0  0  0  0  0
   -0.2090   20.1940    0.3930 C   0  0  0  0  0  0  0  0  0  0  0  0
   -2.4280   18.9480    0.3510 C   0  0  0  0  0  0  0  0  0  0  0  0
    2.5270   16.0120   -1.7790 C   0  0  1  0  0  0  0  0  0  0  0  0
    3.5080   15.9850   -0.5770 C   0  0  0  0  0  0  0  0  0  0  0  0
    2.9530   14.9450    0.4300 C   0  0  0  0  0  0  0  0  0  0  0  0
    1.8700   14.1750   -0.3620 C   0  0  1  0  0  0  0  0  0  0  0  0
    2.6590   13.1250   -1.2050 C   0  0  0  0  0  0  0  0  0  0  0  0
    0.7410   13.5040    0.4860 C   0  0  2  0  0  0  0  0  0  0  0  0
    1.2180   12.4110    1.4590 C   0  0  0  0  0  0  0  0  0  0  0  0
    1.2360   11.0260    0.9030 C   0  0  0  0  0  0  0  0  0  0  0  0
    0.6200   10.6280   -0.2260 C   0  0  0  0  0  0  0  0  0  0  0  0
   -0.2710   11.5940   -1.0200 C   0  0  1  0  0  0  0  0  0  0  0  0
   -1.5980   10.8840   -1.3940 C   0  0  0  0  0  0  0  0  0  0  0  0
   -1.3710    9.5650   -2.1250 C   0  0  0  0  0  0  0  0  0  0  0  0
   -0.5310    8.6100   -1.2810 C   0  0  2  0  0  0  0  0  0  0  0  0
   -1.2870    8.2280   -0.1280 O   0  0  0  0  0  0  0  0  0  0  0  0
    0.8280    9.2200   -0.8360 C   0  0  0  0  0  0  0  0  0  0  0  0
    1.7640    9.3550   -2.0620 C   0  0  0  0  0  0  0  0  0  0  0  0
    1.5130    8.2100    0.1240 C   0  0  0  0  0  0  0  0  0  0  0  0
   -0.5050   13.0200   -0.3600 C   0  0  1  0  0  0  0  0  0  0  0  0
   -1.7150   12.9600    0.6220 C   0  0  0  0  0  0  0  0  0  0  0  0
   -0.8990   14.0480   -1.4860 C   0  0  0  0  0  0  0  0  0  0  0  0
    0.2580   14.7680   -2.2060 C   0  0  0  0  0  0  0  0  0  0  0  0
    1.2510   15.3540   -1.1970 C   0  0  2  0  0  0  0  0  0  0  0  0
    0.4910   16.4300   -0.3490 C   0  0  0  0  0  0  0  0  0  0  0  0
    2.7023   18.1007   -0.3655 H   0  0  0  0  0  0  0  0  0  0  0  0
    3.9400   18.6454   -1.5479 H   0  0  0  0  0  0  0  0  0  0  0  0
    2.3071   19.3939   -1.5479 H   0  0  0  0  0  0  0  0  0  0  0  0
    3.0097   17.4811   -3.2868 H   0  0  0  0  0  0  0  0  0  0  0  0
    0.8616   17.5317   -3.9141 H   0  0  0  0  0  0  0  0  0  0  0  0
    0.3041   16.8973   -2.2925 H   0  0  0  0  0  0  0  0  0  0  0  0
    1.0875   19.4988   -1.7443 H   0  0  0  0  0  0  0  0  0  0  0  0
    0.2772   19.6135   -3.3618 H   0  0  0  0  0  0  0  0  0  0  0  0
   -1.1383   17.9395   -2.2308 H   0  0  0  0  0  0  0  0  0  0  0  0
   -0.4150   20.0576    1.4649 H   0  0  0  0  0  0  0  0  0  0  0  0
    0.7768   19.7694    0.1522 H   0  0  0  0  0  0  0  0  0  0  0  0
   -0.2147   21.2673    0.1522 H   0  0  0  0  0  0  0  0  0  0  0  0
   -2.2366   19.0381    1.4305 H   0  0  0  0  0  0  0  0  0  0  0  0
   -3.3348   19.5138    0.0909 H   0  0  0  0  0  0  0  0  0  0  0  0
   -2.5696   17.8886    0.0909 H   0  0  0  0  0  0  0  0  0  0  0  0
    2.8655   15.4571   -2.6664 H   0  0  0  0  0  0  0  0  0  0  0  0
    4.5120   15.6876   -0.9140 H   0  0  0  0  0  0  0  0  0  0  0  0
    3.5913   16.9788   -0.1128 H   0  0  0  0  0  0  0  0  0  0  0  0
    3.7494   14.2630    0.7626 H   0  0  0  0  0  0  0  0  0  0  0  0
    2.5494   15.4172    1.3378 H   0  0  0  0  0  0  0  0  0  0  0  0
    3.1809   12.4305   -0.5303 H   0  0  0  0  0  0  0  0  0  0  0  0
    1.9581   12.5627   -1.8394 H   0  0  0  0  0  0  0  0  0  0  0  0
    3.3941   13.6418   -1.8394 H   0  0  0  0  0  0  0  0  0  0  0  0
    0.3945   14.3359    1.1168 H   0  0  0  0  0  0  0  0  0  0  0  0
    2.2403   12.6625    1.7780 H   0  0  0  0  0  0  0  0  0  0  0  0
    0.4897   12.3985    2.2833 H   0  0  0  0  0  0  0  0  0  0  0  0
    1.8004   10.2660    1.4632 H   0  0  0  0  0  0  0  0  0  0  0  0
    0.2877   11.8443   -1.9339 H   0  0  0  0  0  0  0  0  0  0  0  0
   -2.1623   10.6830   -0.4714 H   0  0  0  0  0  0  0  0  0  0  0  0
   -2.1527   11.5496   -2.0717 H   0  0  0  0  0  0  0  0  0  0  0  0
   -2.3445    9.0980   -2.3353 H   0  0  0  0  0  0  0  0  0  0  0  0
   -0.8325    9.7713   -3.0617 H   0  0  0  0  0  0  0  0  0  0  0  0
   -0.2933    7.7376   -1.9074 H   0  0  0  0  0  0  0  0  0  0  0  0
   -1.8320    7.4610   -0.3740 H   0  0  0  0  0  0  0  0  0  0  0  0
    2.7984    9.5042   -1.7189 H   0  0  0  0  0  0  0  0  0  0  0  0
    1.7075    8.4394   -2.6690 H   0  0  0  0  0  0  0  0  0  0  0  0
    1.4511   10.2173   -2.6690 H   0  0  0  0  0  0  0  0  0  0  0  0
    1.3148    8.5022    1.1658 H   0  0  0  0  0  0  0  0  0  0  0  0
    1.1114    7.2020   -0.0569 H   0  0  0  0  0  0  0  0  0  0  0  0
    2.5980    8.2103   -0.0569 H   0  0  0  0  0  0  0  0  0  0  0  0
   -1.3472   12.9782    1.6585 H   0  0  0  0  0  0  0  0  0  0  0  0
   -2.3701   13.8268    0.4501 H   0  0  0  0  0  0  0  0  0  0  0  0
   -2.2811   12.0327    0.4501 H   0  0  0  0  0  0  0  0  0  0  0  0
   -1.4765   13.5027   -2.2471 H   0  0  0  0  0  0  0  0  0  0  0  0
   -1.4546   14.8434   -0.9677 H   0  0  0  0  0  0  0  0  0  0  0  0
    0.7832   14.0488   -2.8517 H   0  0  0  0  0  0  0  0  0  0  0  0
   -0.1594   15.5902   -2.8058 H   0  0  0  0  0  0  0  0  0  0  0  0
    0.6370   16.2233    0.7215 H   0  0  0  0  0  0  0  0  0  0  0  0
    0.8848   17.4292   -0.5865 H   0  0  0  0  0  0  0  0  0  0  0  0
   -0.5824   16.3929   -0.5865 H   0  0  0  0  0  0  0  0  0  0  0  0
  1  2  1  0
  2  3  1  0
  3  4  1  0
  4  5  1  0
  5  6  1  0
  6  7  1  0
  7  8  1  0
  7  9  1  0
  2 10  1  0
 10 11  1  0
 11 12  1  0
 12 13  1  0
 13 14  1  6
 13 15  1  0
 15 16  1  0
 16 17  1  0
 17 18  2  0
 18 19  1  0
 19 20  1  0
 20 21  1  0
 21 22  1  0
 22 23  1  0
 22 24  1  0
 24 25  1  0
 24 26  1  0
 19 27  1  0
 27 28  1  1
 27 29  1  0
 29 30  1  0
 30 31  1  0
 31 32  1  1
  7  5  1  0
 31 10  1  0
 31 13  1  0
 27 15  1  0
 24 18  1  0
  1 33  1  0
  1 34  1  0
  1 35  1  0
  2 36  1  6
  3 37  1  0
  3 38  1  0
  4 39  1  0
  4 40  1  0
  5 41  1  1
  8 42  1  0
  8 43  1  0
  8 44  1  0
  9 45  1  0
  9 46  1  0
  9 47  1  0
 10 48  1  6
 11 49  1  0
 11 50  1  0
 12 51  1  0
 12 52  1  0
 14 53  1  0
 14 54  1  0
 14 55  1  0
 15 56  1  1
 16 57  1  0
 16 58  1  0
 17 59  1  0
 19 60  1  6
 20 61  1  0
 20 62  1  0
 21 63  1  0
 21 64  1  0
 22 65  1  6
 23 66  1  0
 25 67  1  0
 25 68  1  0
 25 69  1  0
 26 70  1  0
 26 71  1  0
 26 72  1  0
 28 73  1  0
 28 74  1  0
 28 75  1  0
 29 76  1  0
 29 77  1  0
 30 78  1  0
 30 79  1  0
 32 80  1  0
 32 81  1  0
 32 82  1  0
M  END
>  <meeko>  (15) 
{"is_sidechain": [false], "intermolecular_energy": 2.731, "internal_energy": -0.839}

$$$$
EPH_relaxed_0001_pdb2pqr_Repair_343_r2_0001_out
     RDKit          3D

 82 86  0  0  0  0  0  0  0  0999 V2000
   -1.1210   16.4900   -6.0670 C   0  0  0  0  0  0  0  0  0  0  0  0
    0.0840   15.7220   -6.6160 C   0  0  2  0  0  0  0  0  0  0  0  0
   -0.1070   15.3190   -8.0920 C   0  0  0  0  0  0  0  0  0  0  0  0
    0.4440   16.3450   -9.0860 C   0  0  0  0  0  0  0  0  0  0  0  0
    1.8560   16.0320   -9.4800 C   0  0  2  0  0  0  0  0  0  0  0  0
    2.2900   16.6550  -10.6960 O   0  0  0  0  0  0  0  0  0  0  0  0
    2.2210   15.2200  -10.7090 C   0  0  0  0  0  0  0  0  0  0  0  0
    1.1700   14.6690  -11.6210 C   0  0  0  0  0  0  0  0  0  0  0  0
    3.5600   14.5520  -10.7530 C   0  0  0  0  0  0  0  0  0  0  0  0
    0.3410   14.4820   -5.7670 C   0  0  1  0  0  0  0  0  0  0  0  0
    1.4350   13.5610   -6.3700 C   0  0  0  0  0  0  0  0  0  0  0  0
    2.2070   12.9420   -5.1770 C   0  0  0  0  0  0  0  0  0  0  0  0
    1.3320   13.2590   -3.9410 C   0  0  1  0  0  0  0  0  0  0  0  0
    0.2170   12.1670   -3.9480 C   0  0  0  0  0  0  0  0  0  0  0  0
    2.0740   13.3170   -2.5660 C   0  0  2  0  0  0  0  0  0  0  0  0
    2.7320   11.9980   -2.1230 C   0  0  0  0  0  0  0  0  0  0  0  0
    1.8680   11.1000   -1.3010 C   0  0  0  0  0  0  0  0  0  0  0  0
    0.7220   11.4580   -0.6940 C   0  0  0  0  0  0  0  0  0  0  0  0
    0.2360   12.9130   -0.7220 C   0  0  1  0  0  0  0  0  0  0  0  0
   -0.2030   13.3400    0.7030 C   0  0  0  0  0  0  0  0  0  0  0  0
   -1.2350   12.3920    1.3060 C   0  0  0  0  0  0  0  0  0  0  0  0
   -0.6940   10.9670    1.3710 C   0  0  2  0  0  0  0  0  0  0  0  0
    0.3860   10.9260    2.3080 O   0  0  0  0  0  0  0  0  0  0  0  0
   -0.2120   10.4310   -0.0060 C   0  0  0  0  0  0  0  0  0  0  0  0
   -1.4330   10.1900   -0.9280 C   0  0  0  0  0  0  0  0  0  0  0  0
    0.4390    9.0400    0.2240 C   0  0  0  0  0  0  0  0  0  0  0  0
    1.2240   13.9600   -1.3960 C   0  0  1  0  0  0  0  0  0  0  0  0
    2.2440   14.4850   -0.3410 C   0  0  0  0  0  0  0  0  0  0  0  0
    0.3970   15.2110   -1.8760 C   0  0  0  0  0  0  0  0  0  0  0  0
   -0.2110   15.1420   -3.2900 C   0  0  0  0  0  0  0  0  0  0  0  0
    0.8380   14.7030   -4.3170 C   0  0  2  0  0  0  0  0  0  0  0  0
    1.9620   15.7940   -4.3480 C   0  0  0  0  0  0  0  0  0  0  0  0
   -1.0960   16.4740   -4.9674 H   0  0  0  0  0  0  0  0  0  0  0  0
   -1.0837   17.5313   -6.4195 H   0  0  0  0  0  0  0  0  0  0  0  0
   -2.0492   16.0165   -6.4195 H   0  0  0  0  0  0  0  0  0  0  0  0
    0.9540   16.3934   -6.5671 H   0  0  0  0  0  0  0  0  0  0  0  0
    0.4077   14.3615   -8.2600 H   0  0  0  0  0  0  0  0  0  0  0  0
   -1.1905   15.2496   -8.2688 H   0  0  0  0  0  0  0  0  0  0  0  0
   -0.1866   16.3425   -9.9873 H   0  0  0  0  0  0  0  0  0  0  0  0
    0.4341   17.3322   -8.6009 H   0  0  0  0  0  0  0  0  0  0  0  0
    2.1574   15.9501   -8.4253 H   0  0  0  0  0  0  0  0  0  0  0  0
    0.3528   14.2406  -11.0221 H   0  0  0  0  0  0  0  0  0  0  0  0
    0.7753   15.4762  -12.2556 H   0  0  0  0  0  0  0  0  0  0  0  0
    1.6094   13.8853  -12.2556 H   0  0  0  0  0  0  0  0  0  0  0  0
    3.9152   14.3748   -9.7271 H   0  0  0  0  0  0  0  0  0  0  0  0
    3.4734   13.5915  -11.2821 H   0  0  0  0  0  0  0  0  0  0  0  0
    4.2753   15.1989  -11.2821 H   0  0  0  0  0  0  0  0  0  0  0  0
   -0.6721   14.0535   -5.7562 H   0  0  0  0  0  0  0  0  0  0  0  0
    0.9711   12.7671   -6.9737 H   0  0  0  0  0  0  0  0  0  0  0  0
    2.1114   14.1288   -7.0258 H   0  0  0  0  0  0  0  0  0  0  0  0
    2.3167   11.8552   -5.3070 H   0  0  0  0  0  0  0  0  0  0  0  0
    3.2253   13.3473   -5.0829 H   0  0  0  0  0  0  0  0  0  0  0  0
   -0.0483   11.9072   -2.9126 H   0  0  0  0  0  0  0  0  0  0  0  0
   -0.6717   12.5537   -4.4682 H   0  0  0  0  0  0  0  0  0  0  0  0
    0.5851   11.2704   -4.4682 H   0  0  0  0  0  0  0  0  0  0  0  0
    2.9029   14.0092   -2.7755 H   0  0  0  0  0  0  0  0  0  0  0  0
    3.0321   11.4474   -3.0267 H   0  0  0  0  0  0  0  0  0  0  0  0
    3.5776   12.2806   -1.4788 H   0  0  0  0  0  0  0  0  0  0  0  0
    2.1963   10.0570   -1.1815 H   0  0  0  0  0  0  0  0  0  0  0  0
   -0.6300   12.9320   -1.4000 H   0  0  0  0  0  0  0  0  0  0  0  0
    0.6831   13.3573    1.3546 H   0  0  0  0  0  0  0  0  0  0  0  0
   -0.6679   14.3339    0.6253 H   0  0  0  0  0  0  0  0  0  0  0  0
   -1.4830   12.7296    2.3231 H   0  0  0  0  0  0  0  0  0  0  0  0
   -2.1319   12.3983    0.6692 H   0  0  0  0  0  0  0  0  0  0  0  0
   -1.5207   10.3148    1.6892 H   0  0  0  0  0  0  0  0  0  0  0  0
    1.1300   10.4700    1.8800 H   0  0  0  0  0  0  0  0  0  0  0  0
   -2.3277   10.0134   -0.3129 H   0  0  0  0  0  0  0  0  0  0  0  0
   -1.5931   11.0739   -1.5629 H   0  0  0  0  0  0  0  0  0  0  0  0
   -1.2453    9.3116   -1.5629 H   0  0  0  0  0  0  0  0  0  0  0  0
    0.5276    8.8507    1.3040 H   0  0  0  0  0  0  0  0  0  0  0  0
   -0.1882    8.2613   -0.2345 H   0  0  0  0  0  0  0  0  0  0  0  0
    1.4387    9.0227   -0.2345 H   0  0  0  0  0  0  0  0  0  0  0  0
    1.8598   14.2872    0.6706 H   0  0  0  0  0  0  0  0  0  0  0  0
    3.2071   13.9706   -0.4745 H   0  0  0  0  0  0  0  0  0  0  0  0
    2.3850   15.5677   -0.4745 H   0  0  0  0  0  0  0  0  0  0  0  0
   -0.4299   15.3558   -1.1651 H   0  0  0  0  0  0  0  0  0  0  0  0
    1.1222   16.0372   -1.9149 H   0  0  0  0  0  0  0  0  0  0  0  0
   -1.0398   14.4188   -3.2905 H   0  0  0  0  0  0  0  0  0  0  0  0
   -0.5738   16.1433   -3.5651 H   0  0  0  0  0  0  0  0  0  0  0  0
    2.2398   16.0636   -3.3184 H   0  0  0  0  0  0  0  0  0  0  0  0
    2.8432   15.3977   -4.8737 H   0  0  0  0  0  0  0  0  0  0  0  0
    1.5921   16.6867   -4.8737 H   0  0  0  0  0  0  0  0  0  0  0  0
  1  2  1  0
  2  3  1  0
  3  4  1  0
  4  5  1  0
  5  6  1  0
  6  7  1  0
  7  8  1  0
  7  9  1  0
  2 10  1  0
 10 11  1  0
 11 12  1  0
 12 13  1  0
 13 14  1  1
 13 15  1  0
 15 16  1  0
 16 17  1  0
 17 18  2  0
 18 19  1  0
 19 20  1  0
 20 21  1  0
 21 22  1  0
 22 23  1  0
 22 24  1  0
 24 25  1  0
 24 26  1  0
 19 27  1  0
 27 28  1  1
 27 29  1  0
 29 30  1  0
 30 31  1  0
 31 32  1  6
  7  5  1  0
 31 10  1  0
 31 13  1  0
 27 15  1  0
 24 18  1  0
  1 33  1  0
  1 34  1  0
  1 35  1  0
  2 36  1  6
  3 37  1  0
  3 38  1  0
  4 39  1  0
  4 40  1  0
  5 41  1  1
  8 42  1  0
  8 43  1  0
  8 44  1  0
  9 45  1  0
  9 46  1  0
  9 47  1  0
 10 48  1  1
 11 49  1  0
 11 50  1  0
 12 51  1  0
 12 52  1  0
 14 53  1  0
 14 54  1  0
 14 55  1  0
 15 56  1  6
 16 57  1  0
 16 58  1  0
 17 59  1  0
 19 60  1  6
 20 61  1  0
 20 62  1  0
 21 63  1  0
 21 64  1  0
 22 65  1  1
 23 66  1  0
 25 67  1  0
 25 68  1  0
 25 69  1  0
 26 70  1  0
 26 71  1  0
 26 72  1  0
 28 73  1  0
 28 74  1  0
 28 75  1  0
 29 76  1  0
 29 77  1  0
 30 78  1  0
 30 79  1  0
 32 80  1  0
 32 81  1  0
 32 82  1  0
M  END
>  <meeko>  (16) 
{"is_sidechain": [false], "intermolecular_energy": 2.731, "internal_energy": -0.839}

$$$$
EPH_relaxed_0001_pdb2pqr_Repair_343_r2_0001_out
     RDKit          3D

 82 86  0  0  0  0  0  0  0  0999 V2000
    1.8630   13.0290   -5.6870 C   0  0  0  0  0  0  0  0  0  0  0  0
    2.8260   12.2140   -4.8180 C   0  0  2  0  0  0  0  0  0  0  0  0
    3.7480   11.3120   -5.6620 C   0  0  0  0  0  0  0  0  0  0  0  0
    5.1950   11.8080   -5.7360 C   0  0  0  0  0  0  0  0  0  0  0  0
    6.1470   10.8360   -5.1080 C   0  0  2  0  0  0  0  0  0  0  0  0
    5.6780   10.2380   -3.8920 O   0  0  0  0  0  0  0  0  0  0  0  0
    6.8380   11.0800   -3.7790 C   0  0  0  0  0  0  0  0  0  0  0  0
    6.6050   12.3350   -2.9980 C   0  0  0  0  0  0  0  0  0  0  0  0
    8.0990   10.3310   -3.4800 C   0  0  0  0  0  0  0  0  0  0  0  0
    2.0390   11.3690   -3.8230 C   0  0  1  0  0  0  0  0  0  0  0  0
    2.9270   10.3280   -3.0900 C   0  0  0  0  0  0  0  0  0  0  0  0
    2.3720   10.2020   -1.6480 C   0  0  0  0  0  0  0  0  0  0  0  0
    0.9990   10.9130   -1.6960 C   0  0  1  0  0  0  0  0  0  0  0  0
    0.0210    9.8570   -2.2990 C   0  0  0  0  0  0  0  0  0  0  0  0
    0.4690   11.4830   -0.3390 C   0  0  2  0  0  0  0  0  0  0  0  0
    0.2110   10.4310    0.7540 C   0  0  0  0  0  0  0  0  0  0  0  0
   -1.1680    9.8600    0.7770 C   0  0  0  0  0  0  0  0  0  0  0  0
   -2.2390   10.3760    0.1450 C   0  0  0  0  0  0  0  0  0  0  0  0
   -2.1420   11.7080   -0.6090 C   0  0  1  0  0  0  0  0  0  0  0  0
   -3.3520   12.6030   -0.2360 C   0  0  0  0  0  0  0  0  0  0  0  0
   -4.6890   11.9030   -0.4580 C   0  0  0  0  0  0  0  0  0  0  0  0
   -4.7700   10.6120    0.3530 C   0  0  2  0  0  0  0  0  0  0  0  0
   -4.7930   10.9430    1.7450 O   0  0  0  0  0  0  0  0  0  0  0  0
   -3.5960    9.6340    0.0680 C   0  0  0  0  0  0  0  0  0  0  0  0
   -3.7460    9.0420   -1.3550 C   0  0  0  0  0  0  0  0  0  0  0  0
   -3.7210    8.4390    1.0510 C   0  0  0  0  0  0  0  0  0  0  0  0
   -0.7550   12.4750   -0.4870 C   0  0  1  0  0  0  0  0  0  0  0  0
   -0.7550   13.3750    0.7860 C   0  0  0  0  0  0  0  0  0  0  0  0
   -0.5940   13.4450   -1.7170 C   0  0  0  0  0  0  0  0  0  0  0  0
    0.0460   12.8550   -2.9880 C   0  0  0  0  0  0  0  0  0  0  0  0
    1.3430   12.1110   -2.6540 C   0  0  2  0  0  0  0  0  0  0  0  0
    2.3540   13.1530   -2.0660 C   0  0  0  0  0  0  0  0  0  0  0  0
    1.1834   13.6041   -5.0409 H   0  0  0  0  0  0  0  0  0  0  0  0
    2.4373   13.7196   -6.3220 H   0  0  0  0  0  0  0  0  0  0  0  0
    1.2768   12.3485   -6.3220 H   0  0  0  0  0  0  0  0  0  0  0  0
    3.4666   12.9258   -4.2767 H   0  0  0  0  0  0  0  0  0  0  0  0
    3.7483   10.3049   -5.2195 H   0  0  0  0  0  0  0  0  0  0  0  0
    3.3528   11.3194   -6.6885 H   0  0  0  0  0  0  0  0  0  0  0  0
    5.4711   11.9457   -6.7919 H   0  0  0  0  0  0  0  0  0  0  0  0
    5.2607   12.7573   -5.1842 H   0  0  0  0  0  0  0  0  0  0  0  0
    6.5307   10.5391   -6.0952 H   0  0  0  0  0  0  0  0  0  0  0  0
    6.6467   12.1103   -1.9220 H   0  0  0  0  0  0  0  0  0  0  0  0
    7.3816   13.0725   -3.2490 H   0  0  0  0  0  0  0  0  0  0  0  0
    5.6155   12.7447   -3.2490 H   0  0  0  0  0  0  0  0  0  0  0  0
    8.2298   10.2533   -2.3906 H   0  0  0  0  0  0  0  0  0  0  0  0
    8.0383    9.3224   -3.9149 H   0  0  0  0  0  0  0  0  0  0  0  0
    8.9556   10.8668   -3.9149 H   0  0  0  0  0  0  0  0  0  0  0  0
    1.2848   10.9413   -4.5000 H   0  0  0  0  0  0  0  0  0  0  0  0
    2.8731    9.3563   -3.6028 H   0  0  0  0  0  0  0  0  0  0  0  0
    3.9805   10.6443   -3.0812 H   0  0  0  0  0  0  0  0  0  0  0  0
    2.2525    9.1448   -1.3687 H   0  0  0  0  0  0  0  0  0  0  0  0
    3.0462   10.6459   -0.9008 H   0  0  0  0  0  0  0  0  0  0  0  0
   -0.4811    9.3149   -1.4841 H   0  0  0  0  0  0  0  0  0  0  0  0
   -0.7316   10.3662   -2.9190 H   0  0  0  0  0  0  0  0  0  0  0  0
    0.5863    9.1456   -2.9190 H   0  0  0  0  0  0  0  0  0  0  0  0
    1.3223   12.0796    0.0161 H   0  0  0  0  0  0  0  0  0  0  0  0
    0.9192    9.6030    0.6027 H   0  0  0  0  0  0  0  0  0  0  0  0
    0.3406   10.9519    1.7142 H   0  0  0  0  0  0  0  0  0  0  0  0
   -1.3222    8.9398    1.3596 H   0  0  0  0  0  0  0  0  0  0  0  0
   -2.1802   11.4551   -1.6789 H   0  0  0  0  0  0  0  0  0  0  0  0
   -3.2713   12.8803    0.8254 H   0  0  0  0  0  0  0  0  0  0  0  0
   -3.3263   13.4877   -0.8892 H   0  0  0  0  0  0  0  0  0  0  0  0
   -5.5030   12.5747   -0.1478 H   0  0  0  0  0  0  0  0  0  0  0  0
   -4.7819   11.6537   -1.5253 H   0  0  0  0  0  0  0  0  0  0  0  0
   -5.6913   10.0914    0.0528 H   0  0  0  0  0  0  0  0  0  0  0  0
   -4.8690   10.1120    2.2440 H   0  0  0  0  0  0  0  0  0  0  0  0
   -4.0156    7.9780   -1.2829 H   0  0  0  0  0  0  0  0  0  0  0  0
   -4.5351    9.5843   -1.8965 H   0  0  0  0  0  0  0  0  0  0  0  0
   -2.7938    9.1431   -1.8965 H   0  0  0  0  0  0  0  0  0  0  0  0
   -3.6822    8.8099    2.0859 H   0  0  0  0  0  0  0  0  0  0  0  0
   -4.6780    7.9236    0.8818 H   0  0  0  0  0  0  0  0  0  0  0  0
   -2.8914    7.7367    0.8818 H   0  0  0  0  0  0  0  0  0  0  0  0
    0.2821   13.5867    1.0854 H   0  0  0  0  0  0  0  0  0  0  0  0
   -1.2735   14.3200    0.5669 H   0  0  0  0  0  0  0  0  0  0  0  0
   -1.2735   12.8533    1.6039 H   0  0  0  0  0  0  0  0  0  0  0  0
   -1.5963   13.8088   -1.9873 H   0  0  0  0  0  0  0  0  0  0  0  0
    0.1040   14.2250   -1.3789 H   0  0  0  0  0  0  0  0  0  0  0  0
   -0.6613   12.1536   -3.4547 H   0  0  0  0  0  0  0  0  0  0  0  0
    0.2819   13.6793   -3.6771 H   0  0  0  0  0  0  0  0  0  0  0  0
    2.3196   13.1175   -0.9671 H   0  0  0  0  0  0  0  0  0  0  0  0
    3.3708   12.9112   -2.4090 H   0  0  0  0  0  0  0  0  0  0  0  0
    2.0816   14.1620   -2.4090 H   0  0  0  0  0  0  0  0  0  0  0  0
  1  2  1  0
  2  3  1  0
  3  4  1  0
  4  5  1  0
  5  6  1  0
  6  7  1  0
  7  8  1  0
  7  9  1  0
  2 10  1  0
 10 11  1  0
 11 12  1  0
 12 13  1  0
 13 14  1  6
 13 15  1  0
 15 16  1  0
 16 17  1  0
 17 18  2  0
 18 19  1  0
 19 20  1  0
 20 21  1  0
 21 22  1  0
 22 23  1  0
 22 24  1  0
 24 25  1  0
 24 26  1  0
 19 27  1  0
 27 28  1  1
 27 29  1  0
 29 30  1  0
 30 31  1  0
 31 32  1  1
  7  5  1  0
 31 10  1  0
 31 13  1  0
 27 15  1  0
 24 18  1  0
  1 33  1  0
  1 34  1  0
  1 35  1  0
  2 36  1  1
  3 37  1  0
  3 38  1  0
  4 39  1  0
  4 40  1  0
  5 41  1  6
  8 42  1  0
  8 43  1  0
  8 44  1  0
  9 45  1  0
  9 46  1  0
  9 47  1  0
 10 48  1  6
 11 49  1  0
 11 50  1  0
 12 51  1  0
 12 52  1  0
 14 53  1  0
 14 54  1  0
 14 55  1  0
 15 56  1  1
 16 57  1  0
 16 58  1  0
 17 59  1  0
 19 60  1  6
 20 61  1  0
 20 62  1  0
 21 63  1  0
 21 64  1  0
 22 65  1  6
 23 66  1  0
 25 67  1  0
 25 68  1  0
 25 69  1  0
 26 70  1  0
 26 71  1  0
 26 72  1  0
 28 73  1  0
 28 74  1  0
 28 75  1  0
 29 76  1  0
 29 77  1  0
 30 78  1  0
 30 79  1  0
 32 80  1  0
 32 81  1  0
 32 82  1  0
M  END
>  <meeko>  (17) 
{"is_sidechain": [false], "intermolecular_energy": 2.731, "internal_energy": -0.839}

$$$$
EPH_relaxed_0001_pdb2pqr_Repair_343_r2_0001_out
     RDKit          3D

 82 86  0  0  0  0  0  0  0  0999 V2000
    3.7270   12.3160   -5.3550 C   0  0  0  0  0  0  0  0  0  0  0  0
    2.2030   12.4480   -5.4270 C   0  0  2  0  0  0  0  0  0  0  0  0
    1.7350   13.8990   -5.1950 C   0  0  0  0  0  0  0  0  0  0  0  0
    0.9070   14.4700   -6.3490 C   0  0  0  0  0  0  0  0  0  0  0  0
    1.7590   14.7800   -7.5420 C   0  0  2  0  0  0  0  0  0  0  0  0
    2.1150   16.1620   -7.6810 O   0  0  0  0  0  0  0  0  0  0  0  0
    1.2820   15.6140   -8.7170 C   0  0  0  0  0  0  0  0  0  0  0  0
   -0.0990   16.1900   -8.7550 C   0  0  0  0  0  0  0  0  0  0  0  0
    1.9790   15.4610  -10.0330 C   0  0  0  0  0  0  0  0  0  0  0  0
    1.5520   11.5210   -4.4070 C   0  0  1  0  0  0  0  0  0  0  0  0
    2.5080   10.3990   -3.9240 C   0  0  0  0  0  0  0  0  0  0  0  0
    2.1760   10.1390   -2.4320 C   0  0  0  0  0  0  0  0  0  0  0  0
    0.8350   10.8730   -2.1980 C   0  0  1  0  0  0  0  0  0  0  0  0
   -0.2560    9.8970   -2.7410 C   0  0  0  0  0  0  0  0  0  0  0  0
    0.5350   11.3130   -0.7280 C   0  0  2  0  0  0  0  0  0  0  0  0
    0.4150   10.1620    0.2860 C   0  0  0  0  0  0  0  0  0  0  0  0
   -0.9620    9.6140    0.4680 C   0  0  0  0  0  0  0  0  0  0  0  0
   -2.1000   10.2070    0.0620 C   0  0  0  0  0  0  0  0  0  0  0  0
   -2.0780   11.6060   -0.5670 C   0  0  1  0  0  0  0  0  0  0  0  0
   -3.1890   12.4790    0.0730 C   0  0  0  0  0  0  0  0  0  0  0  0
   -4.5650   11.8250   -0.0060 C   0  0  0  0  0  0  0  0  0  0  0  0
   -4.5610   10.4620    0.6810 C   0  0  2  0  0  0  0  0  0  0  0  0
   -4.3620   10.6530    2.0850 O   0  0  0  0  0  0  0  0  0  0  0  0
   -3.4750    9.4980    0.1250 C   0  0  0  0  0  0  0  0  0  0  0  0
   -3.8590    9.0520   -1.3070 C   0  0  0  0  0  0  0  0  0  0  0  0
   -3.4850    8.2140    0.9970 C   0  0  0  0  0  0  0  0  0  0  0  0
   -0.6660   12.3340   -0.5890 C   0  0  1  0  0  0  0  0  0  0  0  0
   -0.4430   13.1030    0.7490 C   0  0  0  0  0  0  0  0  0  0  0  0
   -0.6640   13.4190   -1.7300 C   0  0  0  0  0  0  0  0  0  0  0  0
   -0.2440   12.9480   -3.1360 C   0  0  0  0  0  0  0  0  0  0  0  0
    1.0650   12.1540   -3.0790 C   0  0  2  0  0  0  0  0  0  0  0  0
    2.1860   13.1160   -2.5580 C   0  0  0  0  0  0  0  0  0  0  0  0
    4.0433   12.2886   -4.3018 H   0  0  0  0  0  0  0  0  0  0  0  0
    4.0387   11.3875   -5.8557 H   0  0  0  0  0  0  0  0  0  0  0  0
    4.1937   13.1771   -5.8557 H   0  0  0  0  0  0  0  0  0  0  0  0
    1.8930   12.1592   -6.4421 H   0  0  0  0  0  0  0  0  0  0  0  0
    1.1222   13.9245   -4.2819 H   0  0  0  0  0  0  0  0  0  0  0  0
    2.6396   14.5191   -5.1105 H   0  0  0  0  0  0  0  0  0  0  0  0
    0.1430   13.7333   -6.6383 H   0  0  0  0  0  0  0  0  0  0  0  0
    0.4421   15.4064   -6.0070 H   0  0  0  0  0  0  0  0  0  0  0  0
    2.2390   13.7919   -7.4853 H   0  0  0  0  0  0  0  0  0  0  0  0
   -0.4616   16.3412   -7.7276 H   0  0  0  0  0  0  0  0  0  0  0  0
   -0.0794   17.1550   -9.2827 H   0  0  0  0  0  0  0  0  0  0  0  0
   -0.7709   15.4971   -9.2827 H   0  0  0  0  0  0  0  0  0  0  0  0
    3.0402   15.2281   -9.8610 H   0  0  0  0  0  0  0  0  0  0  0  0
    1.5119   14.6440  -10.6025 H   0  0  0  0  0  0  0  0  0  0  0  0
    1.8970   16.3985  -10.6025 H   0  0  0  0  0  0  0  0  0  0  0  0
    0.6906   11.1745   -4.9968 H   0  0  0  0  0  0  0  0  0  0  0  0
    2.3462    9.4841   -4.5129 H   0  0  0  0  0  0  0  0  0  0  0  0
    3.5598   10.6961   -4.0483 H   0  0  0  0  0  0  0  0  0  0  0  0
    2.0676    9.0613   -2.2402 H   0  0  0  0  0  0  0  0  0  0  0  0
    2.9700   10.4955   -1.7593 H   0  0  0  0  0  0  0  0  0  0  0  0
   -0.7810    9.4273   -1.8962 H   0  0  0  0  0  0  0  0  0  0  0  0
   -0.9766   10.4574   -3.3547 H   0  0  0  0  0  0  0  0  0  0  0  0
    0.2210    9.1186   -3.3547 H   0  0  0  0  0  0  0  0  0  0  0  0
    1.4502   11.8582   -0.4537 H   0  0  0  0  0  0  0  0  0  0  0  0
    1.0654    9.3418   -0.0521 H   0  0  0  0  0  0  0  0  0  0  0  0
    0.7067   10.5823    1.2598 H   0  0  0  0  0  0  0  0  0  0  0  0
   -1.0542    8.6433    0.9771 H   0  0  0  0  0  0  0  0  0  0  0  0
   -2.2873   11.4617   -1.6372 H   0  0  0  0  0  0  0  0  0  0  0  0
   -2.9391   12.6481    1.1308 H   0  0  0  0  0  0  0  0  0  0  0  0
   -3.2357   13.4241   -0.4879 H   0  0  0  0  0  0  0  0  0  0  0  0
   -5.3017   12.4753    0.4885 H   0  0  0  0  0  0  0  0  0  0  0  0
   -4.8265   11.6838   -1.0651 H   0  0  0  0  0  0  0  0  0  0  0  0
   -5.5332    9.9887    0.4789 H   0  0  0  0  0  0  0  0  0  0  0  0
   -3.9500   11.5260    2.2070 H   0  0  0  0  0  0  0  0  0  0  0  0
   -4.5758    8.2194   -1.2519 H   0  0  0  0  0  0  0  0  0  0  0  0
   -4.3176    9.8958   -1.8433 H   0  0  0  0  0  0  0  0  0  0  0  0
   -2.9564    8.7238   -1.8433 H   0  0  0  0  0  0  0  0  0  0  0  0
   -3.4828    8.4933    2.0609 H   0  0  0  0  0  0  0  0  0  0  0  0
   -4.3877    7.6264    0.7740 H   0  0  0  0  0  0  0  0  0  0  0  0
   -2.5915    7.6124    0.7740 H   0  0  0  0  0  0  0  0  0  0  0  0
   -0.6384   12.4291    1.5962 H   0  0  0  0  0  0  0  0  0  0  0  0
    0.5960   13.4610    0.7974 H   0  0  0  0  0  0  0  0  0  0  0  0
   -1.1292   13.9613    0.7974 H   0  0  0  0  0  0  0  0  0  0  0  0
   -1.6838   13.8243   -1.8056 H   0  0  0  0  0  0  0  0  0  0  0  0
    0.1015   14.1500   -1.4307 H   0  0  0  0  0  0  0  0  0  0  0  0
   -1.0356   12.3078   -3.5526 H   0  0  0  0  0  0  0  0  0  0  0  0
   -0.0907   13.8327   -3.7715 H   0  0  0  0  0  0  0  0  0  0  0  0
    2.1866   13.1165   -1.4580 H   0  0  0  0  0  0  0  0  0  0  0  0
    3.1642   12.7719   -2.9251 H   0  0  0  0  0  0  0  0  0  0  0  0
    1.9944   14.1351   -2.9251 H   0  0  0  0  0  0  0  0  0  0  0  0
  1  2  1  0
  2  3  1  0
  3  4  1  0
  4  5  1  0
  5  6  1  0
  6  7  1  0
  7  8  1  0
  7  9  1  0
  2 10  1  0
 10 11  1  0
 11 12  1  0
 12 13  1  0
 13 14  1  6
 13 15  1  0
 15 16  1  0
 16 17  1  0
 17 18  2  0
 18 19  1  0
 19 20  1  0
 20 21  1  0
 21 22  1  0
 22 23  1  0
 22 24  1  0
 24 25  1  0
 24 26  1  0
 19 27  1  0
 27 28  1  1
 27 29  1  0
 29 30  1  0
 30 31  1  0
 31 32  1  1
  7  5  1  0
 31 10  1  0
 31 13  1  0
 27 15  1  0
 24 18  1  0
  1 33  1  0
  1 34  1  0
  1 35  1  0
  2 36  1  6
  3 37  1  0
  3 38  1  0
  4 39  1  0
  4 40  1  0
  5 41  1  6
  8 42  1  0
  8 43  1  0
  8 44  1  0
  9 45  1  0
  9 46  1  0
  9 47  1  0
 10 48  1  6
 11 49  1  0
 11 50  1  0
 12 51  1  0
 12 52  1  0
 14 53  1  0
 14 54  1  0
 14 55  1  0
 15 56  1  1
 16 57  1  0
 16 58  1  0
 17 59  1  0
 19 60  1  6
 20 61  1  0
 20 62  1  0
 21 63  1  0
 21 64  1  0
 22 65  1  1
 23 66  1  0
 25 67  1  0
 25 68  1  0
 25 69  1  0
 26 70  1  0
 26 71  1  0
 26 72  1  0
 28 73  1  0
 28 74  1  0
 28 75  1  0
 29 76  1  0
 29 77  1  0
 30 78  1  0
 30 79  1  0
 32 80  1  0
 32 81  1  0
 32 82  1  0
M  END
>  <meeko>  (18) 
{"is_sidechain": [false], "intermolecular_energy": 2.731, "internal_energy": -0.839}

$$$$
EPH_relaxed_0001_pdb2pqr_Repair_343_r2_0001_out
     RDKit          3D

 82 86  0  0  0  0  0  0  0  0999 V2000
    2.3710   17.5960   -3.0800 C   0  0  0  0  0  0  0  0  0  0  0  0
    1.8250   17.0470   -1.7590 C   0  0  2  0  0  0  0  0  0  0  0  0
    2.9520   16.6360   -0.7910 C   0  0  0  0  0  0  0  0  0  0  0  0
    3.8460   17.8000   -0.3570 C   0  0  0  0  0  0  0  0  0  0  0  0
    3.3960   18.3900    0.9450 C   0  0  2  0  0  0  0  0  0  0  0  0
    3.5600   19.8110    1.0480 O   0  0  0  0  0  0  0  0  0  0  0  0
    4.3420   19.0150    1.9530 C   0  0  0  0  0  0  0  0  0  0  0  0
    5.8160   19.0810    1.7020 C   0  0  0  0  0  0  0  0  0  0  0  0
    3.9020   19.1170    3.3800 C   0  0  0  0  0  0  0  0  0  0  0  0
    0.9100   15.8590   -2.0290 C   0  0  1  0  0  0  0  0  0  0  0  0
    1.0610   15.3040   -3.4710 C   0  0  0  0  0  0  0  0  0  0  0  0
    0.8680   13.7680   -3.3810 C   0  0  0  0  0  0  0  0  0  0  0  0
    0.2890   13.5290   -1.9670 C   0  0  1  0  0  0  0  0  0  0  0  0
   -1.2350   13.8390   -2.1000 C   0  0  0  0  0  0  0  0  0  0  0  0
    0.5390   12.1150   -1.3480 C   0  0  2  0  0  0  0  0  0  0  0  0
   -0.0940   10.9440   -2.1200 C   0  0  0  0  0  0  0  0  0  0  0  0
   -1.4780   10.5760   -1.6980 C   0  0  0  0  0  0  0  0  0  0  0  0
   -2.0770   10.9660   -0.5570 C   0  0  0  0  0  0  0  0  0  0  0  0
   -1.3160   11.7830    0.4940 C   0  0  1  0  0  0  0  0  0  0  0  0
   -1.5690   11.1820    1.9010 C   0  0  0  0  0  0  0  0  0  0  0  0
   -3.0550   11.0560    2.2240 C   0  0  0  0  0  0  0  0  0  0  0  0
   -3.7660   10.1880    1.1890 C   0  0  2  0  0  0  0  0  0  0  0  0
   -3.2840    8.8460    1.3030 O   0  0  0  0  0  0  0  0  0  0  0  0
   -3.5740   10.6910   -0.2680 C   0  0  0  0  0  0  0  0  0  0  0  0
   -4.3580   12.0110   -0.4710 C   0  0  0  0  0  0  0  0  0  0  0  0
   -4.2210    9.6510   -1.2220 C   0  0  0  0  0  0  0  0  0  0  0  0
    0.2280   12.0220    0.2010 C   0  0  1  0  0  0  0  0  0  0  0  0
    1.0650   10.8270    0.7510 C   0  0  0  0  0  0  0  0  0  0  0  0
    0.7090   13.3000    0.9860 C   0  0  0  0  0  0  0  0  0  0  0  0
    0.5450   14.6550    0.2720 C   0  0  0  0  0  0  0  0  0  0  0  0
    1.1060   14.5970   -1.1520 C   0  0  2  0  0  0  0  0  0  0  0  0
    2.6430   14.3080   -1.0490 C   0  0  0  0  0  0  0  0  0  0  0  0
    3.1327   18.3619   -2.8719 H   0  0  0  0  0  0  0  0  0  0  0  0
    2.8231   16.7769   -3.6585 H   0  0  0  0  0  0  0  0  0  0  0  0
    1.5495   18.0436   -3.6585 H   0  0  0  0  0  0  0  0  0  0  0  0
    1.2538   17.8535   -1.2760 H   0  0  0  0  0  0  0  0  0  0  0  0
    2.4947   16.1958    0.1074 H   0  0  0  0  0  0  0  0  0  0  0  0
    3.5929   15.9219   -1.3289 H   0  0  0  0  0  0  0  0  0  0  0  0
    4.8775   17.4346   -0.2450 H   0  0  0  0  0  0  0  0  0  0  0  0
    3.7863   18.5834   -1.1269 H   0  0  0  0  0  0  0  0  0  0  0  0
    2.6105   17.6265    1.0453 H   0  0  0  0  0  0  0  0  0  0  0  0
    6.3509   19.1049    2.6629 H   0  0  0  0  0  0  0  0  0  0  0  0
    6.1304   18.1960    1.1293 H   0  0  0  0  0  0  0  0  0  0  0  0
    6.0501   19.9905    1.1293 H   0  0  0  0  0  0  0  0  0  0  0  0
    4.7574   18.9187    4.0425 H   0  0  0  0  0  0  0  0  0  0  0  0
    3.5154   20.1286    3.5731 H   0  0  0  0  0  0  0  0  0  0  0  0
    3.1098   18.3787    3.5731 H   0  0  0  0  0  0  0  0  0  0  0  0
   -0.0633   16.3223   -1.8099 H   0  0  0  0  0  0  0  0  0  0  0  0
    0.2966   15.7441   -4.1283 H   0  0  0  0  0  0  0  0  0  0  0  0
    2.0468   15.5546   -3.8897 H   0  0  0  0  0  0  0  0  0  0  0  0
    0.1655   13.4192   -4.1522 H   0  0  0  0  0  0  0  0  0  0  0  0
    1.8073   13.2195   -3.5450 H   0  0  0  0  0  0  0  0  0  0  0  0
   -1.6796   13.9294   -1.0979 H   0  0  0  0  0  0  0  0  0  0  0  0
   -1.3707   14.7831   -2.6479 H   0  0  0  0  0  0  0  0  0  0  0  0
   -1.7287   13.0229   -2.6479 H   0  0  0  0  0  0  0  0  0  0  0  0
    1.6264   11.9953   -1.4630 H   0  0  0  0  0  0  0  0  0  0  0  0
   -0.1245   11.2162   -3.1854 H   0  0  0  0  0  0  0  0  0  0  0  0
    0.5327   10.0653   -1.9076 H   0  0  0  0  0  0  0  0  0  0  0  0
   -2.0570    9.9321   -2.3763 H   0  0  0  0  0  0  0  0  0  0  0  0
   -1.7285   12.8015    0.4443 H   0  0  0  0  0  0  0  0  0  0  0  0
   -1.1125   10.1822    1.9448 H   0  0  0  0  0  0  0  0  0  0  0  0
   -1.1228   11.8631    2.6406 H   0  0  0  0  0  0  0  0  0  0  0  0
   -3.1700   10.5985    3.2177 H   0  0  0  0  0  0  0  0  0  0  0  0
   -3.5042   12.0600    2.2088 H   0  0  0  0  0  0  0  0  0  0  0  0
   -4.8445   10.2412    1.3989 H   0  0  0  0  0  0  0  0  0  0  0  0
   -2.3600    8.8900    1.6020 H   0  0  0  0  0  0  0  0  0  0  0  0
   -4.6130   12.4404    0.5091 H   0  0  0  0  0  0  0  0  0  0  0  0
   -3.7367   12.7237   -1.0331 H   0  0  0  0  0  0  0  0  0  0  0  0
   -5.2811   11.8064   -1.0331 H   0  0  0  0  0  0  0  0  0  0  0  0
   -4.7104    8.8643   -0.6291 H   0  0  0  0  0  0  0  0  0  0  0  0
   -4.9681   10.1504   -1.8564 H   0  0  0  0  0  0  0  0  0  0  0  0
   -3.4429    9.2015   -1.8564 H   0  0  0  0  0  0  0  0  0  0  0  0
    1.0520   10.8456    1.8508 H   0  0  0  0  0  0  0  0  0  0  0  0
    0.6311    9.8809    0.3951 H   0  0  0  0  0  0  0  0  0  0  0  0
    2.1024   10.9114    0.3951 H   0  0  0  0  0  0  0  0  0  0  0  0
    0.1392   13.3477    1.9257 H   0  0  0  0  0  0  0  0  0  0  0  0
    1.7940   13.1698    1.1116 H   0  0  0  0  0  0  0  0  0  0  0  0
   -0.5239   14.9109    0.2273 H   0  0  0  0  0  0  0  0  0  0  0  0
    1.1009   15.4180    0.8367 H   0  0  0  0  0  0  0  0  0  0  0  0
    2.9356   14.2530    0.0099 H   0  0  0  0  0  0  0  0  0  0  0  0
    2.8701   13.3514   -1.5423 H   0  0  0  0  0  0  0  0  0  0  0  0
    3.2020   15.1168   -1.5423 H   0  0  0  0  0  0  0  0  0  0  0  0
  1  2  1  0
  2  3  1  0
  3  4  1  0
  4  5  1  0
  5  6  1  0
  6  7  1  0
  7  8  1  0
  7  9  1  0
  2 10  1  0
 10 11  1  0
 11 12  1  0
 12 13  1  0
 13 14  1  6
 13 15  1  0
 15 16  1  0
 16 17  1  0
 17 18  2  0
 18 19  1  0
 19 20  1  0
 20 21  1  0
 21 22  1  0
 22 23  1  0
 22 24  1  0
 24 25  1  0
 24 26  1  0
 19 27  1  0
 27 28  1  1
 27 29  1  0
 29 30  1  0
 30 31  1  0
 31 32  1  1
  7  5  1  0
 31 10  1  0
 31 13  1  0
 27 15  1  0
 24 18  1  0
  1 33  1  0
  1 34  1  0
  1 35  1  0
  2 36  1  1
  3 37  1  0
  3 38  1  0
  4 39  1  0
  4 40  1  0
  5 41  1  1
  8 42  1  0
  8 43  1  0
  8 44  1  0
  9 45  1  0
  9 46  1  0
  9 47  1  0
 10 48  1  6
 11 49  1  0
 11 50  1  0
 12 51  1  0
 12 52  1  0
 14 53  1  0
 14 54  1  0
 14 55  1  0
 15 56  1  1
 16 57  1  0
 16 58  1  0
 17 59  1  0
 19 60  1  1
 20 61  1  0
 20 62  1  0
 21 63  1  0
 21 64  1  0
 22 65  1  1
 23 66  1  0
 25 67  1  0
 25 68  1  0
 25 69  1  0
 26 70  1  0
 26 71  1  0
 26 72  1  0
 28 73  1  0
 28 74  1  0
 28 75  1  0
 29 76  1  0
 29 77  1  0
 30 78  1  0
 30 79  1  0
 32 80  1  0
 32 81  1  0
 32 82  1  0
M  END
>  <meeko>  (19) 
{"is_sidechain": [false], "intermolecular_energy": 2.731, "internal_energy": -0.839}

$$$$
EPH_relaxed_0001_pdb2pqr_Repair_343_r2_0001_out
     RDKit          3D

 82 86  0  0  0  0  0  0  0  0999 V2000
   -3.7590   10.5030    2.4150 C   0  0  0  0  0  0  0  0  0  0  0  0
   -4.1970   10.1800    0.9830 C   0  0  2  0  0  0  0  0  0  0  0  0
   -4.1280    8.6690    0.6820 C   0  0  0  0  0  0  0  0  0  0  0  0
   -4.2670    8.3320   -0.8050 C   0  0  0  0  0  0  0  0  0  0  0  0
   -5.6140    7.7530   -1.1180 C   0  0  2  0  0  0  0  0  0  0  0  0
   -5.7090    6.3320   -0.9510 O   0  0  0  0  0  0  0  0  0  0  0  0
   -5.8740    6.8250   -2.2900 C   0  0  0  0  0  0  0  0  0  0  0  0
   -4.7770    6.4240   -3.2260 C   0  0  0  0  0  0  0  0  0  0  0  0
   -7.2720    6.7030   -2.8090 C   0  0  0  0  0  0  0  0  0  0  0  0
   -3.3340   10.9490   -0.0100 C   0  0  1  0  0  0  0  0  0  0  0  0
   -3.8070   12.4150   -0.2020 C   0  0  0  0  0  0  0  0  0  0  0  0
   -2.5330   13.2710   -0.4240 C   0  0  0  0  0  0  0  0  0  0  0  0
   -1.4110   12.2390   -0.6830 C   0  0  1  0  0  0  0  0  0  0  0  0
   -1.5640   11.8490   -2.1870 C   0  0  0  0  0  0  0  0  0  0  0  0
    0.0450   12.7040   -0.3530 C   0  0  2  0  0  0  0  0  0  0  0  0
    0.5530   13.8960   -1.1820 C   0  0  0  0  0  0  0  0  0  0  0  0
    1.2560   13.5380   -2.4500 C   0  0  0  0  0  0  0  0  0  0  0  0
    1.7220   12.3160   -2.7680 C   0  0  0  0  0  0  0  0  0  0  0  0
    1.6470   11.1590   -1.7630 C   0  0  1  0  0  0  0  0  0  0  0  0
    3.0110   10.4220   -1.7190 C   0  0  0  0  0  0  0  0  0  0  0  0
    3.4750    9.9680   -3.1000 C   0  0  0  0  0  0  0  0  0  0  0  0
    3.5940   11.1540   -4.0530 C   0  0  2  0  0  0  0  0  0  0  0  0
    4.6560   12.0020   -3.6050 O   0  0  0  0  0  0  0  0  0  0  0  0
    2.2810   11.9780   -4.1710 C   0  0  0  0  0  0  0  0  0  0  0  0
    1.2150   11.1530   -4.9340 C   0  0  0  0  0  0  0  0  0  0  0  0
    2.5770   13.2230   -5.0500 C   0  0  0  0  0  0  0  0  0  0  0  0
    1.1070   11.5310   -0.3150 C   0  0  1  0  0  0  0  0  0  0  0  0
    2.2840   12.0250    0.5800 C   0  0  0  0  0  0  0  0  0  0  0  0
    0.5410   10.2330    0.3720 C   0  0  0  0  0  0  0  0  0  0  0  0
   -0.9370    9.8920    0.1020 C   0  0  0  0  0  0  0  0  0  0  0  0
   -1.8320   11.1140    0.3310 C   0  0  2  0  0  0  0  0  0  0  0  0
   -1.7160   11.5160    1.8410 C   0  0  0  0  0  0  0  0  0  0  0  0
   -4.4344   10.0049    3.1262 H   0  0  0  0  0  0  0  0  0  0  0  0
   -2.7310   10.1451    2.5735 H   0  0  0  0  0  0  0  0  0  0  0  0
   -3.7971   11.5908    2.5735 H   0  0  0  0  0  0  0  0  0  0  0  0
   -5.2475   10.4895    0.8800 H   0  0  0  0  0  0  0  0  0  0  0  0
   -3.1585    8.2882    1.0355 H   0  0  0  0  0  0  0  0  0  0  0  0
   -4.9770    8.1985    1.1996 H   0  0  0  0  0  0  0  0  0  0  0  0
   -4.1284    9.2510   -1.3934 H   0  0  0  0  0  0  0  0  0  0  0  0
   -3.5035    7.5823   -1.0599 H   0  0  0  0  0  0  0  0  0  0  0  0
   -6.1137    8.6728   -0.7799 H   0  0  0  0  0  0  0  0  0  0  0  0
   -3.8991    6.1031   -2.6460 H   0  0  0  0  0  0  0  0  0  0  0  0
   -5.1212    5.5935   -3.8599 H   0  0  0  0  0  0  0  0  0  0  0  0
   -4.5045    7.2806   -3.8599 H   0  0  0  0  0  0  0  0  0  0  0  0
   -7.9730    6.6418   -1.9635 H   0  0  0  0  0  0  0  0  0  0  0  0
   -7.5135    7.5835   -3.4225 H   0  0  0  0  0  0  0  0  0  0  0  0
   -7.3573    5.7940   -3.4225 H   0  0  0  0  0  0  0  0  0  0  0  0
   -3.4504   10.3039   -0.8934 H   0  0  0  0  0  0  0  0  0  0  0  0
   -4.4694   12.4877   -1.0772 H   0  0  0  0  0  0  0  0  0  0  0  0
   -4.3707   12.7661    0.6749 H   0  0  0  0  0  0  0  0  0  0  0  0
   -2.6577   13.9353   -1.2918 H   0  0  0  0  0  0  0  0  0  0  0  0
   -2.3119   13.9212    0.4353 H   0  0  0  0  0  0  0  0  0  0  0  0
   -1.9648   10.8274   -2.2619 H   0  0  0  0  0  0  0  0  0  0  0  0
   -2.2536   12.5504   -2.6794 H   0  0  0  0  0  0  0  0  0  0  0  0
   -0.5814   11.8944   -2.6794 H   0  0  0  0  0  0  0  0  0  0  0  0
   -0.0544   13.0778    0.6767 H   0  0  0  0  0  0  0  0  0  0  0  0
   -0.3123   14.5246   -1.4390 H   0  0  0  0  0  0  0  0  0  0  0  0
    1.2983   14.4071   -0.5548 H   0  0  0  0  0  0  0  0  0  0  0  0
    1.4057   14.3411   -3.1866 H   0  0  0  0  0  0  0  0  0  0  0  0
    0.8678   10.4800   -2.1394 H   0  0  0  0  0  0  0  0  0  0  0  0
    3.7663   11.1027   -1.2993 H   0  0  0  0  0  0  0  0  0  0  0  0
    2.8855    9.5237   -1.0967 H   0  0  0  0  0  0  0  0  0  0  0  0
    4.4568    9.4806   -3.0076 H   0  0  0  0  0  0  0  0  0  0  0  0
    2.7329    9.2647   -3.5059 H   0  0  0  0  0  0  0  0  0  0  0  0
    3.8038   10.7521   -5.0552 H   0  0  0  0  0  0  0  0  0  0  0  0
    4.3290   12.9170   -3.6220 H   0  0  0  0  0  0  0  0  0  0  0  0
    0.5586   10.6450   -4.2121 H   0  0  0  0  0  0  0  0  0  0  0  0
    0.6150   11.8243   -5.5659 H   0  0  0  0  0  0  0  0  0  0  0  0
    1.7144   10.4038   -5.5659 H   0  0  0  0  0  0  0  0  0  0  0  0
    2.7827   14.0883   -4.4027 H   0  0  0  0  0  0  0  0  0  0  0  0
    3.4528   13.0237   -5.6850 H   0  0  0  0  0  0  0  0  0  0  0  0
    1.7052   13.4392   -5.6850 H   0  0  0  0  0  0  0  0  0  0  0  0
    2.0118   11.9108    1.6397 H   0  0  0  0  0  0  0  0  0  0  0  0
    3.1829   11.4282    0.3659 H   0  0  0  0  0  0  0  0  0  0  0  0
    2.4877   13.0846    0.3659 H   0  0  0  0  0  0  0  0  0  0  0  0
    1.1471    9.3825    0.0267 H   0  0  0  0  0  0  0  0  0  0  0  0
    0.5978   10.4312    1.4525 H   0  0  0  0  0  0  0  0  0  0  0  0
   -1.0445    9.5574   -0.9403 H   0  0  0  0  0  0  0  0  0  0  0  0
   -1.2458    9.0960    0.7956 H   0  0  0  0  0  0  0  0  0  0  0  0
   -1.9659   10.6498    2.4713 H   0  0  0  0  0  0  0  0  0  0  0  0
   -0.6874   11.8412    2.0559 H   0  0  0  0  0  0  0  0  0  0  0  0
   -2.4132   12.3392    2.0559 H   0  0  0  0  0  0  0  0  0  0  0  0
  1  2  1  0
  2  3  1  0
  3  4  1  0
  4  5  1  0
  5  6  1  0
  6  7  1  0
  7  8  1  0
  7  9  1  0
  2 10  1  0
 10 11  1  0
 11 12  1  0
 12 13  1  0
 13 14  1  6
 13 15  1  0
 15 16  1  0
 16 17  1  0
 17 18  2  0
 18 19  1  0
 19 20  1  0
 20 21  1  0
 21 22  1  0
 22 23  1  0
 22 24  1  0
 24 25  1  0
 24 26  1  0
 19 27  1  0
 27 28  1  1
 27 29  1  0
 29 30  1  0
 30 31  1  0
 31 32  1  1
  7  5  1  0
 31 10  1  0
 31 13  1  0
 27 15  1  0
 24 18  1  0
  1 33  1  0
  1 34  1  0
  1 35  1  0
  2 36  1  1
  3 37  1  0
  3 38  1  0
  4 39  1  0
  4 40  1  0
  5 41  1  1
  8 42  1  0
  8 43  1  0
  8 44  1  0
  9 45  1  0
  9 46  1  0
  9 47  1  0
 10 48  1  6
 11 49  1  0
 11 50  1  0
 12 51  1  0
 12 52  1  0
 14 53  1  0
 14 54  1  0
 14 55  1  0
 15 56  1  1
 16 57  1  0
 16 58  1  0
 17 59  1  0
 19 60  1  6
 20 61  1  0
 20 62  1  0
 21 63  1  0
 21 64  1  0
 22 65  1  6
 23 66  1  0
 25 67  1  0
 25 68  1  0
 25 69  1  0
 26 70  1  0
 26 71  1  0
 26 72  1  0
 28 73  1  0
 28 74  1  0
 28 75  1  0
 29 76  1  0
 29 77  1  0
 30 78  1  0
 30 79  1  0
 32 80  1  0
 32 81  1  0
 32 82  1  0
M  END
>  <meeko>  (20) 
{"is_sidechain": [false], "intermolecular_energy": 2.731, "internal_energy": -0.839}

$$$$
