EPH_relaxed_0001_pdb2pqr_Repair_187_r2_0001_out
     RDKit          3D

 82 86  0  0  0  0  0  0  0  0999 V2000
   -1.6560    8.6640   -1.8590 C   0  0  0  0  0  0  0  0  0  0  0  0
   -2.0610    9.1690   -0.4720 C   0  0  2  0  0  0  0  0  0  0  0  0
   -3.5660    9.4950   -0.3890 C   0  0  0  0  0  0  0  0  0  0  0  0
   -4.4580    8.2580   -0.2620 C   0  0  0  0  0  0  0  0  0  0  0  0
   -5.1550    7.9420   -1.5510 C   0  0  2  0  0  0  0  0  0  0  0  0
   -6.3430    8.7070   -1.7920 O   0  0  0  0  0  0  0  0  0  0  0  0
   -6.5240    7.2920   -1.6240 C   0  0  0  0  0  0  0  0  0  0  0  0
   -7.2770    6.9180   -0.3860 C   0  0  0  0  0  0  0  0  0  0  0  0
   -6.9120    6.5800   -2.8830 C   0  0  0  0  0  0  0  0  0  0  0  0
   -1.2410   10.4010   -0.1070 C   0  0  1  0  0  0  0  0  0  0  0  0
   -0.2490   10.1350    1.0570 C   0  0  0  0  0  0  0  0  0  0  0  0
    1.0170   10.9830    0.7690 C   0  0  0  0  0  0  0  0  0  0  0  0
    0.5880   11.9530   -0.3570 C   0  0  1  0  0  0  0  0  0  0  0  0
   -0.1720   13.1050    0.3730 C   0  0  0  0  0  0  0  0  0  0  0  0
    1.7330   12.5030   -1.2680 C   0  0  2  0  0  0  0  0  0  0  0  0
    2.7920   13.3530   -0.5430 C   0  0  0  0  0  0  0  0  0  0  0  0
    2.5090   14.8180   -0.4940 C   0  0  0  0  0  0  0  0  0  0  0  0
    1.6020   15.4650   -1.2490 C   0  0  0  0  0  0  0  0  0  0  0  0
    0.8140   14.7280   -2.3390 C   0  0  1  0  0  0  0  0  0  0  0  0
    0.8210   15.5690   -3.6420 C   0  0  0  0  0  0  0  0  0  0  0  0
    0.3190   16.9930   -3.4220 C   0  0  0  0  0  0  0  0  0  0  0  0
    1.1630   17.7130   -2.3730 C   0  0  2  0  0  0  0  0  0  0  0  0
    2.4830   17.9000   -2.8930 O   0  0  0  0  0  0  0  0  0  0  0  0
    1.2380   16.9530   -1.0190 C   0  0  0  0  0  0  0  0  0  0  0  0
   -0.1390   17.0140   -0.3120 C   0  0  0  0  0  0  0  0  0  0  0  0
    2.2320   17.7130   -0.1000 C   0  0  0  0  0  0  0  0  0  0  0  0
    1.2270   13.2130   -2.5880 C   0  0  1  0  0  0  0  0  0  0  0  0
    2.4030   13.1440   -3.6100 C   0  0  0  0  0  0  0  0  0  0  0  0
    0.0180   12.4530   -3.2500 C   0  0  0  0  0  0  0  0  0  0  0  0
   -1.0170   11.8290   -2.2950 C   0  0  0  0  0  0  0  0  0  0  0  0
   -0.3290   10.9990   -1.2070 C   0  0  2  0  0  0  0  0  0  0  0  0
    0.4260    9.8200   -1.9100 C   0  0  0  0  0  0  0  0  0  0  0  0
   -0.9710    7.8099   -1.7526 H   0  0  0  0  0  0  0  0  0  0  0  0
   -2.5536    8.3477   -2.4106 H   0  0  0  0  0  0  0  0  0  0  0  0
   -1.1523    9.4715   -2.4106 H   0  0  0  0  0  0  0  0  0  0  0  0
   -1.8579    8.3609    0.2461 H   0  0  0  0  0  0  0  0  0  0  0  0
   -3.7344   10.1361    0.4889 H   0  0  0  0  0  0  0  0  0  0  0  0
   -3.8393    9.9926   -1.3312 H   0  0  0  0  0  0  0  0  0  0  0  0
   -3.8359    7.3981    0.0269 H   0  0  0  0  0  0  0  0  0  0  0  0
   -5.2238    8.4644    0.5002 H   0  0  0  0  0  0  0  0  0  0  0  0
   -4.1978    7.7031   -2.0376 H   0  0  0  0  0  0  0  0  0  0  0  0
   -6.6931    7.2080    0.5000 H   0  0  0  0  0  0  0  0  0  0  0  0
   -8.2452    7.4399   -0.3740 H   0  0  0  0  0  0  0  0  0  0  0  0
   -7.4462    5.8312   -0.3740 H   0  0  0  0  0  0  0  0  0  0  0  0
   -7.4242    5.6401   -2.6297 H   0  0  0  0  0  0  0  0  0  0  0  0
   -7.5870    7.2182   -3.4720 H   0  0  0  0  0  0  0  0  0  0  0  0
   -6.0097    6.3587   -3.4720 H   0  0  0  0  0  0  0  0  0  0  0  0
   -2.0555   11.1017    0.1288 H   0  0  0  0  0  0  0  0  0  0  0  0
   -0.6982   10.4382    2.0142 H   0  0  0  0  0  0  0  0  0  0  0  0
   -0.0004    9.0658    1.1273 H   0  0  0  0  0  0  0  0  0  0  0  0
    1.3235   11.5406    1.6663 H   0  0  0  0  0  0  0  0  0  0  0  0
    1.8782   10.3626    0.4800 H   0  0  0  0  0  0  0  0  0  0  0  0
   -0.0835   12.9708    1.4612 H   0  0  0  0  0  0  0  0  0  0  0  0
    0.2657   14.0725    0.0861 H   0  0  0  0  0  0  0  0  0  0  0  0
   -1.2337   13.0833    0.0861 H   0  0  0  0  0  0  0  0  0  0  0  0
    2.2495   11.5829   -1.5789 H   0  0  0  0  0  0  0  0  0  0  0  0
    2.8715   12.9873    0.4914 H   0  0  0  0  0  0  0  0  0  0  0  0
    3.7205   13.2415   -1.1221 H   0  0  0  0  0  0  0  0  0  0  0  0
    3.0911   15.4196    0.2196 H   0  0  0  0  0  0  0  0  0  0  0  0
   -0.2148   14.6355   -1.9607 H   0  0  0  0  0  0  0  0  0  0  0  0
    1.8503   15.6136   -4.0274 H   0  0  0  0  0  0  0  0  0  0  0  0
    0.1416   15.0822   -4.3572 H   0  0  0  0  0  0  0  0  0  0  0  0
    0.3763   17.5456   -4.3714 H   0  0  0  0  0  0  0  0  0  0  0  0
   -0.7206   16.9477   -3.0655 H   0  0  0  0  0  0  0  0  0  0  0  0
    0.6772   18.6776   -2.1644 H   0  0  0  0  0  0  0  0  0  0  0  0
    2.4250   17.8670   -3.8630 H   0  0  0  0  0  0  0  0  0  0  0  0
    0.0079   17.0075    0.7781 H   0  0  0  0  0  0  0  0  0  0  0  0
   -0.6616   17.9362   -0.6060 H   0  0  0  0  0  0  0  0  0  0  0  0
   -0.7411   16.1416   -0.6060 H   0  0  0  0  0  0  0  0  0  0  0  0
    1.9791   17.5196    0.9529 H   0  0  0  0  0  0  0  0  0  0  0  0
    3.2561   17.3655   -0.3009 H   0  0  0  0  0  0  0  0  0  0  0  0
    2.1651   18.7924   -0.3009 H   0  0  0  0  0  0  0  0  0  0  0  0
    3.3579   13.0880   -3.0669 H   0  0  0  0  0  0  0  0  0  0  0  0
    2.2877   12.2511   -4.2420 H   0  0  0  0  0  0  0  0  0  0  0  0
    2.3929   14.0443   -4.2420 H   0  0  0  0  0  0  0  0  0  0  0  0
   -0.5130   13.1695   -3.8940 H   0  0  0  0  0  0  0  0  0  0  0  0
    0.4692   11.6020   -3.7812 H   0  0  0  0  0  0  0  0  0  0  0  0
   -1.5990   12.6327   -1.8203 H   0  0  0  0  0  0  0  0  0  0  0  0
   -1.6763   11.1676   -2.8762 H   0  0  0  0  0  0  0  0  0  0  0  0
    0.8537    9.1521   -1.1477 H   0  0  0  0  0  0  0  0  0  0  0  0
   -0.2791    9.2557   -2.5379 H   0  0  0  0  0  0  0  0  0  0  0  0
    1.2336   10.2244   -2.5379 H   0  0  0  0  0  0  0  0  0  0  0  0
  1  2  1  0
  2  3  1  0
  3  4  1  0
  4  5  1  0
  5  6  1  0
  6  7  1  0
  7  8  1  0
  7  9  1  0
  2 10  1  0
 10 11  1  0
 11 12  1  0
 12 13  1  0
 13 14  1  1
 13 15  1  0
 15 16  1  0
 16 17  1  0
 17 18  2  0
 18 19  1  0
 19 20  1  0
 20 21  1  0
 21 22  1  0
 22 23  1  0
 22 24  1  0
 24 25  1  0
 24 26  1  0
 19 27  1  0
 27 28  1  6
 27 29  1  0
 29 30  1  0
 30 31  1  0
 31 32  1  6
  7  5  1  0
 31 10  1  0
 31 13  1  0
 27 15  1  0
 24 18  1  0
  1 33  1  0
  1 34  1  0
  1 35  1  0
  2 36  1  1
  3 37  1  0
  3 38  1  0
  4 39  1  0
  4 40  1  0
  5 41  1  6
  8 42  1  0
  8 43  1  0
  8 44  1  0
  9 45  1  0
  9 46  1  0
  9 47  1  0
 10 48  1  1
 11 49  1  0
 11 50  1  0
 12 51  1  0
 12 52  1  0
 14 53  1  0
 14 54  1  0
 14 55  1  0
 15 56  1  6
 16 57  1  0
 16 58  1  0
 17 59  1  0
 19 60  1  1
 20 61  1  0
 20 62  1  0
 21 63  1  0
 21 64  1  0
 22 65  1  1
 23 66  1  0
 25 67  1  0
 25 68  1  0
 25 69  1  0
 26 70  1  0
 26 71  1  0
 26 72  1  0
 28 73  1  0
 28 74  1  0
 28 75  1  0
 29 76  1  0
 29 77  1  0
 30 78  1  0
 30 79  1  0
 32 80  1  0
 32 81  1  0
 32 82  1  0
M  END
>  <meeko>  (1) 
{"is_sidechain": [false], "intermolecular_energy": 2.731, "internal_energy": -0.839}

$$$$
EPH_relaxed_0001_pdb2pqr_Repair_187_r2_0001_out
     RDKit          3D

 82 86  0  0  0  0  0  0  0  0999 V2000
    4.2790   17.1890   -0.6010 C   0  0  0  0  0  0  0  0  0  0  0  0
    2.9150   17.8300   -0.3300 C   0  0  2  0  0  0  0  0  0  0  0  0
    2.9150   18.6660    0.9660 C   0  0  0  0  0  0  0  0  0  0  0  0
    4.2650   18.6840    1.6880 C   0  0  0  0  0  0  0  0  0  0  0  0
    4.1410   19.2180    3.0820 C   0  0  2  0  0  0  0  0  0  0  0  0
    5.1320   20.1890    3.4420 O   0  0  0  0  0  0  0  0  0  0  0  0
    5.1610   18.9530    4.1740 C   0  0  0  0  0  0  0  0  0  0  0  0
    6.3790   18.1220    3.9180 C   0  0  0  0  0  0  0  0  0  0  0  0
    4.7320   19.0880    5.6020 C   0  0  0  0  0  0  0  0  0  0  0  0
    1.8400   16.7530   -0.2550 C   0  0  1  0  0  0  0  0  0  0  0  0
    0.4060   17.3280   -0.4060 C   0  0  0  0  0  0  0  0  0  0  0  0
   -0.4230   16.2670   -1.1730 C   0  0  0  0  0  0  0  0  0  0  0  0
    0.4530   14.9930   -1.1470 C   0  0  1  0  0  0  0  0  0  0  0  0
    0.1980   14.3600    0.2570 C   0  0  0  0  0  0  0  0  0  0  0  0
    0.2100   13.9630   -2.2980 C   0  0  2  0  0  0  0  0  0  0  0  0
   -1.1980   13.3430   -2.3310 C   0  0  0  0  0  0  0  0  0  0  0  0
   -1.3590   12.0820   -1.5490 C   0  0  0  0  0  0  0  0  0  0  0  0
   -0.3540   11.3180   -1.0810 C   0  0  0  0  0  0  0  0  0  0  0  0
    1.1070   11.6490   -1.4130 C   0  0  1  0  0  0  0  0  0  0  0  0
    1.8430   10.3570   -1.8530 C   0  0  0  0  0  0  0  0  0  0  0  0
    1.7170    9.2340   -0.8280 C   0  0  0  0  0  0  0  0  0  0  0  0
    0.2520    8.8940   -0.5680 C   0  0  2  0  0  0  0  0  0  0  0  0
   -0.3070    8.3270   -1.7570 O   0  0  0  0  0  0  0  0  0  0  0  0
   -0.5930   10.1220   -0.1280 C   0  0  0  0  0  0  0  0  0  0  0  0
   -0.1820   10.5500    1.3020 C   0  0  0  0  0  0  0  0  0  0  0  0
   -2.0760    9.6720   -0.0370 C   0  0  0  0  0  0  0  0  0  0  0  0
    1.3320   12.8550   -2.4240 C   0  0  1  0  0  0  0  0  0  0  0  0
    1.2810   12.3340   -3.8930 C   0  0  0  0  0  0  0  0  0  0  0  0
    2.7780   13.4400   -2.2110 C   0  0  0  0  0  0  0  0  0  0  0  0
    2.9320   14.5400   -1.1420 C   0  0  0  0  0  0  0  0  0  0  0  0
    1.8770   15.6350   -1.3270 C   0  0  2  0  0  0  0  0  0  0  0  0
    2.1220   16.3050   -2.7220 C   0  0  0  0  0  0  0  0  0  0  0  0
    4.7717   16.9574    0.3548 H   0  0  0  0  0  0  0  0  0  0  0  0
    4.1406   16.2617   -1.1763 H   0  0  0  0  0  0  0  0  0  0  0  0
    4.9046   17.8874   -1.1763 H   0  0  0  0  0  0  0  0  0  0  0  0
    2.6982   18.5132   -1.1644 H   0  0  0  0  0  0  0  0  0  0  0  0
    2.6438   19.7012    0.7113 H   0  0  0  0  0  0  0  0  0  0  0  0
    2.1915   18.1981    1.6498 H   0  0  0  0  0  0  0  0  0  0  0  0
    4.6588   17.6579    1.7331 H   0  0  0  0  0  0  0  0  0  0  0  0
    4.9446   19.3429    1.1277 H   0  0  0  0  0  0  0  0  0  0  0  0
    3.0470   19.1073    3.0517 H   0  0  0  0  0  0  0  0  0  0  0  0
    6.8240   17.8184    4.8771 H   0  0  0  0  0  0  0  0  0  0  0  0
    6.0980   17.2265    3.3444 H   0  0  0  0  0  0  0  0  0  0  0  0
    7.1103   18.7103    3.3444 H   0  0  0  0  0  0  0  0  0  0  0  0
    5.5705   18.8241    6.2633 H   0  0  0  0  0  0  0  0  0  0  0  0
    4.4247   20.1263    5.7960 H   0  0  0  0  0  0  0  0  0  0  0  0
    3.8855   18.4128    5.7960 H   0  0  0  0  0  0  0  0  0  0  0  0
    2.0695   16.3328    0.7353 H   0  0  0  0  0  0  0  0  0  0  0  0
   -0.0355   17.5097    0.5850 H   0  0  0  0  0  0  0  0  0  0  0  0
    0.4195   18.2854   -0.9474 H   0  0  0  0  0  0  0  0  0  0  0  0
   -1.3844   16.0874   -0.6697 H   0  0  0  0  0  0  0  0  0  0  0  0
   -0.6634   16.5868   -2.1977 H   0  0  0  0  0  0  0  0  0  0  0  0
    0.4866   15.0765    1.0401 H   0  0  0  0  0  0  0  0  0  0  0  0
   -0.8692   14.1143    0.3601 H   0  0  0  0  0  0  0  0  0  0  0  0
    0.7969   13.4431    0.3601 H   0  0  0  0  0  0  0  0  0  0  0  0
    0.2812   14.5925   -3.1972 H   0  0  0  0  0  0  0  0  0  0  0  0
   -1.9050   14.0841   -1.9298 H   0  0  0  0  0  0  0  0  0  0  0  0
   -1.3877   13.0756   -3.3810 H   0  0  0  0  0  0  0  0  0  0  0  0
   -2.3856   11.7486   -1.3371 H   0  0  0  0  0  0  0  0  0  0  0  0
    1.5514   12.0329   -0.4829 H   0  0  0  0  0  0  0  0  0  0  0  0
    1.4142   10.0141   -2.8062 H   0  0  0  0  0  0  0  0  0  0  0  0
    2.9113   10.5991   -1.9535 H   0  0  0  0  0  0  0  0  0  0  0  0
    2.2319    8.3397   -1.2088 H   0  0  0  0  0  0  0  0  0  0  0  0
    2.1726    9.5677    0.1159 H   0  0  0  0  0  0  0  0  0  0  0  0
    0.2223    8.1777    0.2663 H   0  0  0  0  0  0  0  0  0  0  0  0
    0.2160    7.5380   -1.9810 H   0  0  0  0  0  0  0  0  0  0  0  0
   -0.7481    9.9604    2.0381 H   0  0  0  0  0  0  0  0  0  0  0  0
    0.8949   10.3747    1.4419 H   0  0  0  0  0  0  0  0  0  0  0  0
   -0.4007   11.6189    1.4419 H   0  0  0  0  0  0  0  0  0  0  0  0
   -2.3681    9.5834    1.0198 H   0  0  0  0  0  0  0  0  0  0  0  0
   -2.7161   10.4163   -0.5332 H   0  0  0  0  0  0  0  0  0  0  0  0
   -2.1946    8.6974   -0.5332 H   0  0  0  0  0  0  0  0  0  0  0  0
    1.1738   11.2392   -3.8903 H   0  0  0  0  0  0  0  0  0  0  0  0
    0.4227   12.7851   -4.4125 H   0  0  0  0  0  0  0  0  0  0  0  0
    2.2105   12.6101   -4.4125 H   0  0  0  0  0  0  0  0  0  0  0  0
    3.4361   12.6056   -1.9271 H   0  0  0  0  0  0  0  0  0  0  0  0
    3.0351   13.9262   -3.1636 H   0  0  0  0  0  0  0  0  0  0  0  0
    2.8142   14.0915   -0.1445 H   0  0  0  0  0  0  0  0  0  0  0  0
    3.9293   14.9925   -1.2451 H   0  0  0  0  0  0  0  0  0  0  0  0
    2.4964   17.3290   -2.5763 H   0  0  0  0  0  0  0  0  0  0  0  0
    2.8643   15.7197   -3.2846 H   0  0  0  0  0  0  0  0  0  0  0  0
    1.1773   16.3366   -3.2846 H   0  0  0  0  0  0  0  0  0  0  0  0
  1  2  1  0
  2  3  1  0
  3  4  1  0
  4  5  1  0
  5  6  1  0
  6  7  1  0
  7  8  1  0
  7  9  1  0
  2 10  1  0
 10 11  1  0
 11 12  1  0
 12 13  1  0
 13 14  1  1
 13 15  1  0
 15 16  1  0
 16 17  1  0
 17 18  2  0
 18 19  1  0
 19 20  1  0
 20 21  1  0
 21 22  1  0
 22 23  1  0
 22 24  1  0
 24 25  1  0
 24 26  1  0
 19 27  1  0
 27 28  1  6
 27 29  1  0
 29 30  1  0
 30 31  1  0
 31 32  1  6
  7  5  1  0
 31 10  1  0
 31 13  1  0
 27 15  1  0
 24 18  1  0
  1 33  1  0
  1 34  1  0
  1 35  1  0
  2 36  1  6
  3 37  1  0
  3 38  1  0
  4 39  1  0
  4 40  1  0
  5 41  1  1
  8 42  1  0
  8 43  1  0
  8 44  1  0
  9 45  1  0
  9 46  1  0
  9 47  1  0
 10 48  1  1
 11 49  1  0
 11 50  1  0
 12 51  1  0
 12 52  1  0
 14 53  1  0
 14 54  1  0
 14 55  1  0
 15 56  1  6
 16 57  1  0
 16 58  1  0
 17 59  1  0
 19 60  1  1
 20 61  1  0
 20 62  1  0
 21 63  1  0
 21 64  1  0
 22 65  1  1
 23 66  1  0
 25 67  1  0
 25 68  1  0
 25 69  1  0
 26 70  1  0
 26 71  1  0
 26 72  1  0
 28 73  1  0
 28 74  1  0
 28 75  1  0
 29 76  1  0
 29 77  1  0
 30 78  1  0
 30 79  1  0
 32 80  1  0
 32 81  1  0
 32 82  1  0
M  END
>  <meeko>  (2) 
{"is_sidechain": [false], "intermolecular_energy": 2.731, "internal_energy": -0.839}

$$$$
EPH_relaxed_0001_pdb2pqr_Repair_187_r2_0001_out
     RDKit          3D

 82 86  0  0  0  0  0  0  0  0999 V2000
   -3.4240    9.3460    0.5390 C   0  0  0  0  0  0  0  0  0  0  0  0
   -2.5910    9.7200   -0.6900 C   0  0  2  0  0  0  0  0  0  0  0  0
   -1.8940    8.4950   -1.3140 C   0  0  0  0  0  0  0  0  0  0  0  0
   -2.7840    7.7040   -2.2760 C   0  0  0  0  0  0  0  0  0  0  0  0
   -4.2290    7.7830   -1.8860 C   0  0  2  0  0  0  0  0  0  0  0  0
   -4.7700    6.5700   -1.3470 O   0  0  0  0  0  0  0  0  0  0  0  0
   -5.3290    7.0150   -2.5940 C   0  0  0  0  0  0  0  0  0  0  0  0
   -5.0320    6.1130   -3.7500 C   0  0  0  0  0  0  0  0  0  0  0  0
   -6.7370    7.5120   -2.4800 C   0  0  0  0  0  0  0  0  0  0  0  0
   -1.5560   10.7740   -0.3140 C   0  0  1  0  0  0  0  0  0  0  0  0
   -0.4710   10.2270    0.6520 C   0  0  0  0  0  0  0  0  0  0  0  0
    0.8580   10.9330    0.2780 C   0  0  0  0  0  0  0  0  0  0  0  0
    0.4350   12.0910   -0.6550 C   0  0  1  0  0  0  0  0  0  0  0  0
   -0.0430   13.2250    0.3050 C   0  0  0  0  0  0  0  0  0  0  0  0
    1.5200   12.6030   -1.6580 C   0  0  2  0  0  0  0  0  0  0  0  0
    2.7790   13.2020   -1.0070 C   0  0  0  0  0  0  0  0  0  0  0  0
    2.7260   14.6720   -0.7500 C   0  0  0  0  0  0  0  0  0  0  0  0
    1.8350   15.5270   -1.2840 C   0  0  0  0  0  0  0  0  0  0  0  0
    0.8100   15.0510   -2.3220 C   0  0  1  0  0  0  0  0  0  0  0  0
    0.7710   16.0510   -3.5080 C   0  0  0  0  0  0  0  0  0  0  0  0
    0.5200   17.4860   -3.0550 C   0  0  0  0  0  0  0  0  0  0  0  0
    1.5920   17.9430   -2.0690 C   0  0  2  0  0  0  0  0  0  0  0  0
    2.8450   18.0220   -2.7550 O   0  0  0  0  0  0  0  0  0  0  0  0
    1.7290   17.0060   -0.8360 C   0  0  0  0  0  0  0  0  0  0  0  0
    0.4820   17.1520    0.0700 C   0  0  0  0  0  0  0  0  0  0  0  0
    2.9370   17.4990    0.0060 C   0  0  0  0  0  0  0  0  0  0  0  0
    0.9570   13.5430   -2.7990 C   0  0  1  0  0  0  0  0  0  0  0  0
    1.9650   13.4560   -3.9860 C   0  0  0  0  0  0  0  0  0  0  0  0
   -0.4290   13.0430   -3.3560 C   0  0  0  0  0  0  0  0  0  0  0  0
   -1.4110   12.4380   -2.3350 C   0  0  0  0  0  0  0  0  0  0  0  0
   -0.7170   11.3880   -1.4620 C   0  0  2  0  0  0  0  0  0  0  0  0
   -0.2450   10.2240   -2.3980 C   0  0  0  0  0  0  0  0  0  0  0  0
   -2.8640    9.5974    1.4518 H   0  0  0  0  0  0  0  0  0  0  0  0
   -4.3711    9.9053    0.5241 H   0  0  0  0  0  0  0  0  0  0  0  0
   -3.6353    8.2666    0.5241 H   0  0  0  0  0  0  0  0  0  0  0  0
   -3.2791   10.1273   -1.4454 H   0  0  0  0  0  0  0  0  0  0  0  0
   -1.0089    8.8432   -1.8666 H   0  0  0  0  0  0  0  0  0  0  0  0
   -1.6332    7.8179   -0.4872 H   0  0  0  0  0  0  0  0  0  0  0  0
   -2.6655    8.1138   -3.2899 H   0  0  0  0  0  0  0  0  0  0  0  0
   -2.4760    6.6487   -2.2389 H   0  0  0  0  0  0  0  0  0  0  0  0
   -4.1243    8.8454   -1.6207 H   0  0  0  0  0  0  0  0  0  0  0  0
   -4.7086    5.1308   -3.3750 H   0  0  0  0  0  0  0  0  0  0  0  0
   -5.9376    5.9916   -4.3625 H   0  0  0  0  0  0  0  0  0  0  0  0
   -4.2314    6.5534   -4.3625 H   0  0  0  0  0  0  0  0  0  0  0  0
   -7.0073    7.6074   -1.4180 H   0  0  0  0  0  0  0  0  0  0  0  0
   -6.8200    8.4938   -2.9691 H   0  0  0  0  0  0  0  0  0  0  0  0
   -7.4179    6.7999   -2.9691 H   0  0  0  0  0  0  0  0  0  0  0  0
   -2.2191   11.5383    0.1176 H   0  0  0  0  0  0  0  0  0  0  0  0
   -0.7412   10.4554    1.6935 H   0  0  0  0  0  0  0  0  0  0  0  0
   -0.3768    9.1347    0.5623 H   0  0  0  0  0  0  0  0  0  0  0  0
    1.3578   11.3218    1.1775 H   0  0  0  0  0  0  0  0  0  0  0  0
    1.5727   10.2492   -0.2033 H   0  0  0  0  0  0  0  0  0  0  0  0
    0.0925   12.9036    1.3482 H   0  0  0  0  0  0  0  0  0  0  0  0
    0.5484   14.1342    0.1217 H   0  0  0  0  0  0  0  0  0  0  0  0
   -1.1068   13.4365    0.1217 H   0  0  0  0  0  0  0  0  0  0  0  0
    1.8483   11.6727   -2.1446 H   0  0  0  0  0  0  0  0  0  0  0  0
    2.9383   12.6941   -0.0444 H   0  0  0  0  0  0  0  0  0  0  0  0
    3.5964   13.0481   -1.7268 H   0  0  0  0  0  0  0  0  0  0  0  0
    3.4790   15.0912   -0.0664 H   0  0  0  0  0  0  0  0  0  0  0  0
   -0.1628   15.0440   -1.8086 H   0  0  0  0  0  0  0  0  0  0  0  0
    1.7359   16.0111   -4.0348 H   0  0  0  0  0  0  0  0  0  0  0  0
   -0.0612   15.7578   -4.1649 H   0  0  0  0  0  0  0  0  0  0  0  0
    0.5331   18.1481   -3.9333 H   0  0  0  0  0  0  0  0  0  0  0  0
   -0.4585   17.5298   -2.5545 H   0  0  0  0  0  0  0  0  0  0  0  0
    1.2879   18.9271   -1.6828 H   0  0  0  0  0  0  0  0  0  0  0  0
    3.4750   17.4510   -2.2840 H   0  0  0  0  0  0  0  0  0  0  0  0
    0.7894   17.1160    1.1255 H   0  0  0  0  0  0  0  0  0  0  0  0
   -0.0103   18.1139   -0.1359 H   0  0  0  0  0  0  0  0  0  0  0  0
   -0.2191   16.3298   -0.1359 H   0  0  0  0  0  0  0  0  0  0  0  0
    2.7016   17.4029    1.0762 H   0  0  0  0  0  0  0  0  0  0  0  0
    3.8219   16.8901   -0.2309 H   0  0  0  0  0  0  0  0  0  0  0  0
    3.1432   18.5532   -0.2309 H   0  0  0  0  0  0  0  0  0  0  0  0
    2.9883   13.3677   -3.5923 H   0  0  0  0  0  0  0  0  0  0  0  0
    1.7316   12.5747   -4.6014 H   0  0  0  0  0  0  0  0  0  0  0  0
    1.8860   14.3643   -4.6014 H   0  0  0  0  0  0  0  0  0  0  0  0
   -0.9275   13.9025   -3.8280 H   0  0  0  0  0  0  0  0  0  0  0  0
   -0.1830   12.2188   -4.0416 H   0  0  0  0  0  0  0  0  0  0  0  0
   -1.8006   13.2405   -1.6914 H   0  0  0  0  0  0  0  0  0  0  0  0
   -2.2312   11.9515   -2.8832 H   0  0  0  0  0  0  0  0  0  0  0  0
    0.0983    9.3773   -1.7855 H   0  0  0  0  0  0  0  0  0  0  0  0
   -1.0833    9.9012   -3.0329 H   0  0  0  0  0  0  0  0  0  0  0  0
    0.5814   10.5762   -3.0329 H   0  0  0  0  0  0  0  0  0  0  0  0
  1  2  1  0
  2  3  1  0
  3  4  1  0
  4  5  1  0
  5  6  1  0
  6  7  1  0
  7  8  1  0
  7  9  1  0
  2 10  1  0
 10 11  1  0
 11 12  1  0
 12 13  1  0
 13 14  1  1
 13 15  1  0
 15 16  1  0
 16 17  1  0
 17 18  2  0
 18 19  1  0
 19 20  1  0
 20 21  1  0
 21 22  1  0
 22 23  1  0
 22 24  1  0
 24 25  1  0
 24 26  1  0
 19 27  1  0
 27 28  1  6
 27 29  1  0
 29 30  1  0
 30 31  1  0
 31 32  1  6
  7  5  1  0
 31 10  1  0
 31 13  1  0
 27 15  1  0
 24 18  1  0
  1 33  1  0
  1 34  1  0
  1 35  1  0
  2 36  1  6
  3 37  1  0
  3 38  1  0
  4 39  1  0
  4 40  1  0
  5 41  1  1
  8 42  1  0
  8 43  1  0
  8 44  1  0
  9 45  1  0
  9 46  1  0
  9 47  1  0
 10 48  1  1
 11 49  1  0
 11 50  1  0
 12 51  1  0
 12 52  1  0
 14 53  1  0
 14 54  1  0
 14 55  1  0
 15 56  1  6
 16 57  1  0
 16 58  1  0
 17 59  1  0
 19 60  1  1
 20 61  1  0
 20 62  1  0
 21 63  1  0
 21 64  1  0
 22 65  1  1
 23 66  1  0
 25 67  1  0
 25 68  1  0
 25 69  1  0
 26 70  1  0
 26 71  1  0
 26 72  1  0
 28 73  1  0
 28 74  1  0
 28 75  1  0
 29 76  1  0
 29 77  1  0
 30 78  1  0
 30 79  1  0
 32 80  1  0
 32 81  1  0
 32 82  1  0
M  END
>  <meeko>  (3) 
{"is_sidechain": [false], "intermolecular_energy": 2.731, "internal_energy": -0.839}

$$$$
EPH_relaxed_0001_pdb2pqr_Repair_187_r2_0001_out
     RDKit          3D

 82 86  0  0  0  0  0  0  0  0999 V2000
    2.3920   18.0500   -2.6690 C   0  0  0  0  0  0  0  0  0  0  0  0
    1.0940   17.6650   -1.9540 C   0  0  2  0  0  0  0  0  0  0  0  0
    1.2380   17.7180   -0.4200 C   0  0  0  0  0  0  0  0  0  0  0  0
    0.8830   19.0790    0.1850 C   0  0  0  0  0  0  0  0  0  0  0  0
   -0.5730   19.1710    0.5270 C   0  0  2  0  0  0  0  0  0  0  0  0
   -1.4180   18.2760   -0.2070 O   0  0  0  0  0  0  0  0  0  0  0  0
   -1.6280   19.6790   -0.4370 C   0  0  0  0  0  0  0  0  0  0  0  0
   -1.2710   20.1290   -1.8190 C   0  0  0  0  0  0  0  0  0  0  0  0
   -2.9180   20.1940    0.1200 C   0  0  0  0  0  0  0  0  0  0  0  0
    0.6550   16.2720   -2.3880 C   0  0  1  0  0  0  0  0  0  0  0  0
    0.8400   16.0340   -3.9110 C   0  0  0  0  0  0  0  0  0  0  0  0
    1.2350   14.5450   -4.0860 C   0  0  0  0  0  0  0  0  0  0  0  0
    0.9410   13.8990   -2.7110 C   0  0  1  0  0  0  0  0  0  0  0  0
   -0.5950   13.6240   -2.7180 C   0  0  0  0  0  0  0  0  0  0  0  0
    1.7570   12.6110   -2.3650 C   0  0  2  0  0  0  0  0  0  0  0  0
    1.5180   11.4150   -3.3020 C   0  0  0  0  0  0  0  0  0  0  0  0
    0.4200   10.4910   -2.8890 C   0  0  0  0  0  0  0  0  0  0  0  0
   -0.1530   10.4520   -1.6710 C   0  0  0  0  0  0  0  0  0  0  0  0
    0.3660   11.3340   -0.5280 C   0  0  1  0  0  0  0  0  0  0  0  0
    0.5050   10.4810    0.7610 C   0  0  0  0  0  0  0  0  0  0  0  0
   -0.7860    9.7550    1.1240 C   0  0  0  0  0  0  0  0  0  0  0  0
   -1.2380    8.8440   -0.0150 C   0  0  2  0  0  0  0  0  0  0  0  0
   -0.2880    7.7850   -0.1630 O   0  0  0  0  0  0  0  0  0  0  0  0
   -1.4040    9.5910   -1.3680 C   0  0  0  0  0  0  0  0  0  0  0  0
   -2.6340   10.5290   -1.2970 C   0  0  0  0  0  0  0  0  0  0  0  0
   -1.7250    8.5350   -2.4600 C   0  0  0  0  0  0  0  0  0  0  0  0
    1.6730   12.1810   -0.8440 C   0  0  1  0  0  0  0  0  0  0  0  0
    2.9440   11.3260   -0.5530 C   0  0  0  0  0  0  0  0  0  0  0  0
    1.7340   13.4150    0.1320 C   0  0  0  0  0  0  0  0  0  0  0  0
    1.0090   14.6960   -0.3220 C   0  0  0  0  0  0  0  0  0  0  0  0
    1.3940   15.0640   -1.7580 C   0  0  2  0  0  0  0  0  0  0  0  0
    2.9310   15.3690   -1.7790 C   0  0  0  0  0  0  0  0  0  0  0  0
    3.1672   18.2799   -1.9232 H   0  0  0  0  0  0  0  0  0  0  0  0
    2.7261   17.2123   -3.2988 H   0  0  0  0  0  0  0  0  0  0  0  0
    2.2153   18.9344   -3.2988 H   0  0  0  0  0  0  0  0  0  0  0  0
    0.3285   18.4017   -2.2391 H   0  0  0  0  0  0  0  0  0  0  0  0
    0.5726   16.9592    0.0177 H   0  0  0  0  0  0  0  0  0  0  0  0
    2.2972   17.5304   -0.1899 H   0  0  0  0  0  0  0  0  0  0  0  0
    1.4743   19.2272    1.1007 H   0  0  0  0  0  0  0  0  0  0  0  0
    1.1097   19.8552   -0.5607 H   0  0  0  0  0  0  0  0  0  0  0  0
   -0.3358   19.4365    1.5678 H   0  0  0  0  0  0  0  0  0  0  0  0
   -0.5883   20.9895   -1.7595 H   0  0  0  0  0  0  0  0  0  0  0  0
   -0.7775   19.3059   -2.3566 H   0  0  0  0  0  0  0  0  0  0  0  0
   -2.1847   20.4223   -2.3566 H   0  0  0  0  0  0  0  0  0  0  0  0
   -2.8756   20.1771    1.2191 H   0  0  0  0  0  0  0  0  0  0  0  0
   -3.0803   21.2259   -0.2248 H   0  0  0  0  0  0  0  0  0  0  0  0
   -3.7463   19.5576   -0.2248 H   0  0  0  0  0  0  0  0  0  0  0  0
   -0.3901   16.2938   -2.0456 H   0  0  0  0  0  0  0  0  0  0  0  0
   -0.0996   16.2418   -4.4438 H   0  0  0  0  0  0  0  0  0  0  0  0
    1.6130   16.6989   -4.3238 H   0  0  0  0  0  0  0  0  0  0  0  0
    0.6301   14.0728   -4.8742 H   0  0  0  0  0  0  0  0  0  0  0  0
    2.2861   14.4249   -4.3871 H   0  0  0  0  0  0  0  0  0  0  0  0
   -0.9605   13.5586   -1.6826 H   0  0  0  0  0  0  0  0  0  0  0  0
   -1.1119   14.4439   -3.2382 H   0  0  0  0  0  0  0  0  0  0  0  0
   -0.7954   12.6757   -3.2382 H   0  0  0  0  0  0  0  0  0  0  0  0
    2.7931   12.9309   -2.5500 H   0  0  0  0  0  0  0  0  0  0  0  0
    1.2740   11.8084   -4.2999 H   0  0  0  0  0  0  0  0  0  0  0  0
    2.4425   10.8194   -3.2774 H   0  0  0  0  0  0  0  0  0  0  0  0
    0.0478    9.7823   -3.6435 H   0  0  0  0  0  0  0  0  0  0  0  0
   -0.3927   12.1163   -0.3782 H   0  0  0  0  0  0  0  0  0  0  0  0
    1.2978    9.7344    0.6059 H   0  0  0  0  0  0  0  0  0  0  0  0
    0.7481   11.1637    1.5885 H   0  0  0  0  0  0  0  0  0  0  0  0
   -0.6163    9.1476    2.0252 H   0  0  0  0  0  0  0  0  0  0  0  0
   -1.5706   10.5039    1.3073 H   0  0  0  0  0  0  0  0  0  0  0  0
   -2.2310    8.4521    0.2503 H   0  0  0  0  0  0  0  0  0  0  0  0
   -0.5790    7.0480    0.4000 H   0  0  0  0  0  0  0  0  0  0  0  0
   -2.8874   10.7223   -0.2442 H   0  0  0  0  0  0  0  0  0  0  0  0
   -2.3995   11.4797   -1.7982 H   0  0  0  0  0  0  0  0  0  0  0  0
   -3.4888   10.0514   -1.7982 H   0  0  0  0  0  0  0  0  0  0  0  0
   -2.0129    7.5877   -1.9806 H   0  0  0  0  0  0  0  0  0  0  0  0
   -2.5541    8.8958   -3.0865 H   0  0  0  0  0  0  0  0  0  0  0  0
   -0.8354    8.3733   -3.0865 H   0  0  0  0  0  0  0  0  0  0  0  0
    3.0823   11.2330    0.5343 H   0  0  0  0  0  0  0  0  0  0  0  0
    2.8219   10.3257   -0.9940 H   0  0  0  0  0  0  0  0  0  0  0  0
    3.8245   11.8161   -0.9940 H   0  0  0  0  0  0  0  0  0  0  0  0
    1.2916   13.1039    1.0898 H   0  0  0  0  0  0  0  0  0  0  0  0
    2.7980   13.6892    0.1832 H   0  0  0  0  0  0  0  0  0  0  0  0
   -0.0775   14.5317   -0.2716 H   0  0  0  0  0  0  0  0  0  0  0  0
    1.3049   15.5209    0.3429 H   0  0  0  0  0  0  0  0  0  0  0  0
    3.3042   15.4431   -0.7469 H   0  0  0  0  0  0  0  0  0  0  0  0
    3.4586   14.5580   -2.3024 H   0  0  0  0  0  0  0  0  0  0  0  0
    3.1090   16.3200   -2.3024 H   0  0  0  0  0  0  0  0  0  0  0  0
  1  2  1  0
  2  3  1  0
  3  4  1  0
  4  5  1  0
  5  6  1  0
  6  7  1  0
  7  8  1  0
  7  9  1  0
  2 10  1  0
 10 11  1  0
 11 12  1  0
 12 13  1  0
 13 14  1  6
 13 15  1  0
 15 16  1  0
 16 17  1  0
 17 18  2  0
 18 19  1  0
 19 20  1  0
 20 21  1  0
 21 22  1  0
 22 23  1  0
 22 24  1  0
 24 25  1  0
 24 26  1  0
 19 27  1  0
 27 28  1  1
 27 29  1  0
 29 30  1  0
 30 31  1  0
 31 32  1  1
  7  5  1  0
 31 10  1  0
 31 13  1  0
 27 15  1  0
 24 18  1  0
  1 33  1  0
  1 34  1  0
  1 35  1  0
  2 36  1  6
  3 37  1  0
  3 38  1  0
  4 39  1  0
  4 40  1  0
  5 41  1  1
  8 42  1  0
  8 43  1  0
  8 44  1  0
  9 45  1  0
  9 46  1  0
  9 47  1  0
 10 48  1  6
 11 49  1  0
 11 50  1  0
 12 51  1  0
 12 52  1  0
 14 53  1  0
 14 54  1  0
 14 55  1  0
 15 56  1  6
 16 57  1  0
 16 58  1  0
 17 59  1  0
 19 60  1  1
 20 61  1  0
 20 62  1  0
 21 63  1  0
 21 64  1  0
 22 65  1  1
 23 66  1  0
 25 67  1  0
 25 68  1  0
 25 69  1  0
 26 70  1  0
 26 71  1  0
 26 72  1  0
 28 73  1  0
 28 74  1  0
 28 75  1  0
 29 76  1  0
 29 77  1  0
 30 78  1  0
 30 79  1  0
 32 80  1  0
 32 81  1  0
 32 82  1  0
M  END
>  <meeko>  (4) 
{"is_sidechain": [false], "intermolecular_energy": 2.731, "internal_energy": -0.839}

$$$$
EPH_relaxed_0001_pdb2pqr_Repair_187_r2_0001_out
     RDKit          3D

 82 86  0  0  0  0  0  0  0  0999 V2000
    2.1590   18.0270   -2.5480 C   0  0  0  0  0  0  0  0  0  0  0  0
    0.6370   17.8880   -2.6540 C   0  0  2  0  0  0  0  0  0  0  0  0
   -0.0800   18.3680   -1.3760 C   0  0  0  0  0  0  0  0  0  0  0  0
    0.6140   17.9370   -0.0820 C   0  0  0  0  0  0  0  0  0  0  0  0
    1.1320   19.1140    0.6880 C   0  0  2  0  0  0  0  0  0  0  0  0
    2.0090   19.9740   -0.0510 O   0  0  0  0  0  0  0  0  0  0  0  0
    2.5900   19.2880    1.0700 C   0  0  0  0  0  0  0  0  0  0  0  0
    3.6220   18.2720    0.6930 C   0  0  0  0  0  0  0  0  0  0  0  0
    2.9270   20.1870    2.2190 C   0  0  0  0  0  0  0  0  0  0  0  0
    0.2670   16.4380   -2.9460 C   0  0  1  0  0  0  0  0  0  0  0  0
    0.3600   16.0900   -4.4550 C   0  0  0  0  0  0  0  0  0  0  0  0
    0.8440   14.6200   -4.5470 C   0  0  0  0  0  0  0  0  0  0  0  0
    0.6950   14.0710   -3.1090 C   0  0  1  0  0  0  0  0  0  0  0  0
   -0.8150   13.6980   -2.9760 C   0  0  0  0  0  0  0  0  0  0  0  0
    1.6220   12.8700   -2.7280 C   0  0  2  0  0  0  0  0  0  0  0  0
    1.4010   11.5890   -3.5510 C   0  0  0  0  0  0  0  0  0  0  0  0
    0.4030   10.6330   -2.9860 C   0  0  0  0  0  0  0  0  0  0  0  0
   -0.0780   10.6560   -1.7290 C   0  0  0  0  0  0  0  0  0  0  0  0
    0.4580   11.6590   -0.6990 C   0  0  1  0  0  0  0  0  0  0  0  0
    0.7490   10.9250    0.6360 C   0  0  0  0  0  0  0  0  0  0  0  0
   -0.4590   10.1490    1.1520 C   0  0  0  0  0  0  0  0  0  0  0  0
   -0.9270    9.1220    0.1240 C   0  0  2  0  0  0  0  0  0  0  0  0
    0.0820    8.1170   -0.0160 O   0  0  0  0  0  0  0  0  0  0  0  0
   -1.2400    9.7440   -1.2650 C   0  0  0  0  0  0  0  0  0  0  0  0
   -2.5250   10.6040   -1.1720 C   0  0  0  0  0  0  0  0  0  0  0  0
   -1.5640    8.5850   -2.2460 C   0  0  0  0  0  0  0  0  0  0  0  0
    1.6770   12.5600   -1.1780 C   0  0  1  0  0  0  0  0  0  0  0  0
    3.0230   11.8150   -0.9200 C   0  0  0  0  0  0  0  0  0  0  0  0
    1.7210   13.8700   -0.3060 C   0  0  0  0  0  0  0  0  0  0  0  0
    0.8780   15.0610   -0.7990 C   0  0  0  0  0  0  0  0  0  0  0  0
    1.1320   15.3360   -2.2840 C   0  0  2  0  0  0  0  0  0  0  0  0
    2.6380   15.7360   -2.4460 C   0  0  0  0  0  0  0  0  0  0  0  0
    2.4518   18.0537   -1.4880 H   0  0  0  0  0  0  0  0  0  0  0  0
    2.6407   17.1691   -3.0399 H   0  0  0  0  0  0  0  0  0  0  0  0
    2.4773   18.9580   -3.0399 H   0  0  0  0  0  0  0  0  0  0  0  0
    0.3023   18.5310   -3.4814 H   0  0  0  0  0  0  0  0  0  0  0  0
   -0.1263   19.4668   -1.3958 H   0  0  0  0  0  0  0  0  0  0  0  0
   -1.0781   17.9056   -1.3747 H   0  0  0  0  0  0  0  0  0  0  0  0
   -0.1067   17.3907    0.5441 H   0  0  0  0  0  0  0  0  0  0  0  0
    1.4690   17.2981   -0.3479 H   0  0  0  0  0  0  0  0  0  0  0  0
    0.2039   19.1674    1.2760 H   0  0  0  0  0  0  0  0  0  0  0  0
    4.0610   17.8398    1.6043 H   0  0  0  0  0  0  0  0  0  0  0  0
    3.1517   17.4747    0.0988 H   0  0  0  0  0  0  0  0  0  0  0  0
    4.4119   18.7547    0.0988 H   0  0  0  0  0  0  0  0  0  0  0  0
    2.7302   19.6620    3.1654 H   0  0  0  0  0  0  0  0  0  0  0  0
    3.9902   20.4645    2.1679 H   0  0  0  0  0  0  0  0  0  0  0  0
    2.3082   21.0950    2.1679 H   0  0  0  0  0  0  0  0  0  0  0  0
   -0.7502   16.4197   -2.5278 H   0  0  0  0  0  0  0  0  0  0  0  0
   -0.6271   16.1940   -4.9291 H   0  0  0  0  0  0  0  0  0  0  0  0
    1.0542   16.7672   -4.9740 H   0  0  0  0  0  0  0  0  0  0  0  0
    0.2183   14.0481   -5.2480 H   0  0  0  0  0  0  0  0  0  0  0  0
    1.8764   14.5427   -4.9187 H   0  0  0  0  0  0  0  0  0  0  0  0
   -1.0839   13.6316   -1.9114 H   0  0  0  0  0  0  0  0  0  0  0  0
   -1.4280   14.4717   -3.4614 H   0  0  0  0  0  0  0  0  0  0  0  0
   -0.9972   12.7279   -3.4614 H   0  0  0  0  0  0  0  0  0  0  0  0
    2.6176   13.2402   -3.0140 H   0  0  0  0  0  0  0  0  0  0  0  0
    1.0592   11.8840   -4.5541 H   0  0  0  0  0  0  0  0  0  0  0  0
    2.3644   11.0580   -3.5527 H   0  0  0  0  0  0  0  0  0  0  0  0
    0.0290    9.8428   -3.6536 H   0  0  0  0  0  0  0  0  0  0  0  0
   -0.3419   12.3995   -0.5511 H   0  0  0  0  0  0  0  0  0  0  0  0
    1.5791   10.2208    0.4776 H   0  0  0  0  0  0  0  0  0  0  0  0
    1.0025   11.6870    1.3878 H   0  0  0  0  0  0  0  0  0  0  0  0
   -0.1827    9.6285    2.0808 H   0  0  0  0  0  0  0  0  0  0  0  0
   -1.2788   10.8584    1.3381 H   0  0  0  0  0  0  0  0  0  0  0  0
   -1.8689    8.6910    0.4942 H   0  0  0  0  0  0  0  0  0  0  0  0
   -0.1570    7.3770    0.5680 H   0  0  0  0  0  0  0  0  0  0  0  0
   -2.7774   10.7729   -0.1148 H   0  0  0  0  0  0  0  0  0  0  0  0
   -2.3555   11.5713   -1.6676 H   0  0  0  0  0  0  0  0  0  0  0  0
   -3.3546   10.0785   -1.6676 H   0  0  0  0  0  0  0  0  0  0  0  0
   -1.8169    7.6802   -1.6738 H   0  0  0  0  0  0  0  0  0  0  0  0
   -2.4173    8.8686   -2.8796 H   0  0  0  0  0  0  0  0  0  0  0  0
   -0.6873    8.3850   -2.8796 H   0  0  0  0  0  0  0  0  0  0  0  0
    3.1893   11.7229    0.1635 H   0  0  0  0  0  0  0  0  0  0  0  0
    2.9795   10.8125   -1.3708 H   0  0  0  0  0  0  0  0  0  0  0  0
    3.8494   12.3842   -1.3708 H   0  0  0  0  0  0  0  0  0  0  0  0
    1.3706   13.6096    0.7037 H   0  0  0  0  0  0  0  0  0  0  0  0
    2.7642   14.2150   -0.3572 H   0  0  0  0  0  0  0  0  0  0  0  0
   -0.1880   14.8322   -0.6528 H   0  0  0  0  0  0  0  0  0  0  0  0
    1.1630   15.9541   -0.2235 H   0  0  0  0  0  0  0  0  0  0  0  0
    3.0941   15.8571   -1.4524 H   0  0  0  0  0  0  0  0  0  0  0  0
    3.1692   14.9478   -2.9997 H   0  0  0  0  0  0  0  0  0  0  0  0
    2.7081   16.6839   -2.9997 H   0  0  0  0  0  0  0  0  0  0  0  0
  1  2  1  0
  2  3  1  0
  3  4  1  0
  4  5  1  0
  5  6  1  0
  6  7  1  0
  7  8  1  0
  7  9  1  0
  2 10  1  0
 10 11  1  0
 11 12  1  0
 12 13  1  0
 13 14  1  1
 13 15  1  0
 15 16  1  0
 16 17  1  0
 17 18  2  0
 18 19  1  0
 19 20  1  0
 20 21  1  0
 21 22  1  0
 22 23  1  0
 22 24  1  0
 24 25  1  0
 24 26  1  0
 19 27  1  0
 27 28  1  6
 27 29  1  0
 29 30  1  0
 30 31  1  0
 31 32  1  1
  7  5  1  0
 31 10  1  0
 31 13  1  0
 27 15  1  0
 24 18  1  0
  1 33  1  0
  1 34  1  0
  1 35  1  0
  2 36  1  6
  3 37  1  0
  3 38  1  0
  4 39  1  0
  4 40  1  0
  5 41  1  1
  8 42  1  0
  8 43  1  0
  8 44  1  0
  9 45  1  0
  9 46  1  0
  9 47  1  0
 10 48  1  1
 11 49  1  0
 11 50  1  0
 12 51  1  0
 12 52  1  0
 14 53  1  0
 14 54  1  0
 14 55  1  0
 15 56  1  6
 16 57  1  0
 16 58  1  0
 17 59  1  0
 19 60  1  1
 20 61  1  0
 20 62  1  0
 21 63  1  0
 21 64  1  0
 22 65  1  1
 23 66  1  0
 25 67  1  0
 25 68  1  0
 25 69  1  0
 26 70  1  0
 26 71  1  0
 26 72  1  0
 28 73  1  0
 28 74  1  0
 28 75  1  0
 29 76  1  0
 29 77  1  0
 30 78  1  0
 30 79  1  0
 32 80  1  0
 32 81  1  0
 32 82  1  0
M  END
>  <meeko>  (5) 
{"is_sidechain": [false], "intermolecular_energy": 2.731, "internal_energy": -0.839}

$$$$
EPH_relaxed_0001_pdb2pqr_Repair_187_r2_0001_out
     RDKit          3D

 82 86  0  0  0  0  0  0  0  0999 V2000
    3.9430   17.4150    0.3150 C   0  0  0  0  0  0  0  0  0  0  0  0
    2.8530   17.8250   -0.6790 C   0  0  2  0  0  0  0  0  0  0  0  0
    2.2490   19.2040   -0.3430 C   0  0  0  0  0  0  0  0  0  0  0  0
    1.2030   19.1620    0.7740 C   0  0  0  0  0  0  0  0  0  0  0  0
   -0.0140   19.9630    0.4240 C   0  0  2  0  0  0  0  0  0  0  0  0
   -0.9190   20.1850    1.5130 O   0  0  0  0  0  0  0  0  0  0  0  0
   -1.4200   19.3920    0.4250 C   0  0  0  0  0  0  0  0  0  0  0  0
   -1.6820   17.9630    0.7830 C   0  0  0  0  0  0  0  0  0  0  0  0
   -2.4720   20.0800   -0.3880 C   0  0  0  0  0  0  0  0  0  0  0  0
    1.7540   16.7690   -0.7110 C   0  0  1  0  0  0  0  0  0  0  0  0
    0.4270   17.3060   -1.3120 C   0  0  0  0  0  0  0  0  0  0  0  0
   -0.2200   16.1290   -2.0870 C   0  0  0  0  0  0  0  0  0  0  0  0
    0.5730   14.8810   -1.6350 C   0  0  1  0  0  0  0  0  0  0  0  0
   -0.0510   14.4840   -0.2610 C   0  0  0  0  0  0  0  0  0  0  0  0
    0.5900   13.6760   -2.6310 C   0  0  2  0  0  0  0  0  0  0  0  0
   -0.7850   13.0520   -2.9240 C   0  0  0  0  0  0  0  0  0  0  0  0
   -1.1850   11.9350   -2.0180 C   0  0  0  0  0  0  0  0  0  0  0  0
   -0.3600   11.2620   -1.1940 C   0  0  0  0  0  0  0  0  0  0  0  0
    1.1480   11.5420   -1.1900 C   0  0  1  0  0  0  0  0  0  0  0  0
    1.9240   10.1980   -1.2160 C   0  0  0  0  0  0  0  0  0  0  0  0
    1.5020    9.2570   -0.0920 C   0  0  0  0  0  0  0  0  0  0  0  0
    0.0070    8.9570   -0.1650 C   0  0  2  0  0  0  0  0  0  0  0  0
   -0.2550    8.2010   -1.3510 O   0  0  0  0  0  0  0  0  0  0  0  0
   -0.8760   10.2360   -0.1560 C   0  0  0  0  0  0  0  0  0  0  0  0
   -0.8240   10.8950    1.2450 C   0  0  0  0  0  0  0  0  0  0  0  0
   -2.3500    9.8010   -0.3760 C   0  0  0  0  0  0  0  0  0  0  0  0
    1.6660   12.5670   -2.2890 C   0  0  1  0  0  0  0  0  0  0  0  0
    1.9680   11.8130   -3.6200 C   0  0  0  0  0  0  0  0  0  0  0  0
    3.0320   13.1870   -1.8090 C   0  0  0  0  0  0  0  0  0  0  0  0
    2.9520   14.4470   -0.9260 C   0  0  0  0  0  0  0  0  0  0  0  0
    2.0190   15.4920   -1.5460 C   0  0  2  0  0  0  0  0  0  0  0  0
    2.6330   15.9270   -2.9200 C   0  0  0  0  0  0  0  0  0  0  0  0
    3.5738   17.5539    1.3419 H   0  0  0  0  0  0  0  0  0  0  0  0
    4.2029   16.3577    0.1586 H   0  0  0  0  0  0  0  0  0  0  0  0
    4.8353   18.0389    0.1586 H   0  0  0  0  0  0  0  0  0  0  0  0
    3.3225   17.9029   -1.6707 H   0  0  0  0  0  0  0  0  0  0  0  0
    3.0641   19.8733   -0.0305 H   0  0  0  0  0  0  0  0  0  0  0  0
    1.7374   19.5603   -1.2493 H   0  0  0  0  0  0  0  0  0  0  0  0
    0.9051   18.1169    0.9443 H   0  0  0  0  0  0  0  0  0  0  0  0
    1.6509   19.5968    1.6797 H   0  0  0  0  0  0  0  0  0  0  0  0
    0.5500   20.5347   -0.3277 H   0  0  0  0  0  0  0  0  0  0  0  0
   -1.7015   17.8569    1.8777 H   0  0  0  0  0  0  0  0  0  0  0  0
   -2.6520   17.6528    0.3672 H   0  0  0  0  0  0  0  0  0  0  0  0
   -0.8852   17.3288    0.3672 H   0  0  0  0  0  0  0  0  0  0  0  0
   -3.2010   20.5568    0.2837 H   0  0  0  0  0  0  0  0  0  0  0  0
   -2.0024   20.8460   -1.0225 H   0  0  0  0  0  0  0  0  0  0  0  0
   -2.9856   19.3427   -1.0225 H   0  0  0  0  0  0  0  0  0  0  0  0
    1.7099   16.5162    0.3586 H   0  0  0  0  0  0  0  0  0  0  0  0
   -0.2434   17.6447   -0.5084 H   0  0  0  0  0  0  0  0  0  0  0  0
    0.6119   18.1630   -1.9764 H   0  0  0  0  0  0  0  0  0  0  0  0
   -1.2836   16.0293   -1.8245 H   0  0  0  0  0  0  0  0  0  0  0  0
   -0.1812   16.2757   -3.1765 H   0  0  0  0  0  0  0  0  0  0  0  0
    0.5729   14.8809    0.5534 H   0  0  0  0  0  0  0  0  0  0  0  0
   -1.0650   14.9034   -0.1839 H   0  0  0  0  0  0  0  0  0  0  0  0
   -0.1008   13.3878   -0.1839 H   0  0  0  0  0  0  0  0  0  0  0  0
    0.9088   14.1518   -3.5702 H   0  0  0  0  0  0  0  0  0  0  0  0
   -1.5427   13.8450   -2.8407 H   0  0  0  0  0  0  0  0  0  0  0  0
   -0.7125   12.6156   -3.9311 H   0  0  0  0  0  0  0  0  0  0  0  0
   -2.2437   11.6365   -2.0242 H   0  0  0  0  0  0  0  0  0  0  0  0
    1.3560   12.0754   -0.2507 H   0  0  0  0  0  0  0  0  0  0  0  0
    1.7376    9.7018   -2.1799 H   0  0  0  0  0  0  0  0  0  0  0  0
    2.9912   10.4259   -1.0776 H   0  0  0  0  0  0  0  0  0  0  0  0
    2.0631    8.3151   -0.1812 H   0  0  0  0  0  0  0  0  0  0  0  0
    1.7164    9.7422    0.8716 H   0  0  0  0  0  0  0  0  0  0  0  0
   -0.2583    8.3859    0.7369 H   0  0  0  0  0  0  0  0  0  0  0  0
    0.1380    8.6820   -2.0990 H   0  0  0  0  0  0  0  0  0  0  0  0
   -0.8855   10.1160    2.0192 H   0  0  0  0  0  0  0  0  0  0  0  0
    0.1206   11.4478    1.3553 H   0  0  0  0  0  0  0  0  0  0  0  0
   -1.6702   11.5891    1.3553 H   0  0  0  0  0  0  0  0  0  0  0  0
   -2.8391    9.6567    0.5987 H   0  0  0  0  0  0  0  0  0  0  0  0
   -2.8819   10.5805   -0.9413 H   0  0  0  0  0  0  0  0  0  0  0  0
   -2.3734    8.8576   -0.9413 H   0  0  0  0  0  0  0  0  0  0  0  0
    2.3682   10.8139   -3.3928 H   0  0  0  0  0  0  0  0  0  0  0  0
    1.0407   11.7127   -4.2031 H   0  0  0  0  0  0  0  0  0  0  0  0
    2.7082   12.3805   -4.2031 H   0  0  0  0  0  0  0  0  0  0  0  0
    3.5656   12.4135   -1.2372 H   0  0  0  0  0  0  0  0  0  0  0  0
    3.5389   13.5128   -2.7293 H   0  0  0  0  0  0  0  0  0  0  0  0
    2.5698   14.1671    0.0668 H   0  0  0  0  0  0  0  0  0  0  0  0
    3.9591   14.8814   -0.8422 H   0  0  0  0  0  0  0  0  0  0  0  0
    3.5189   16.5547   -2.7434 H   0  0  0  0  0  0  0  0  0  0  0  0
    2.9248   15.0330   -3.4907 H   0  0  0  0  0  0  0  0  0  0  0  0
    1.8864   16.4988   -3.4907 H   0  0  0  0  0  0  0  0  0  0  0  0
  1  2  1  0
  2  3  1  0
  3  4  1  0
  4  5  1  0
  5  6  1  0
  6  7  1  0
  7  8  1  0
  7  9  1  0
  2 10  1  0
 10 11  1  0
 11 12  1  0
 12 13  1  0
 13 14  1  1
 13 15  1  0
 15 16  1  0
 16 17  1  0
 17 18  2  0
 18 19  1  0
 19 20  1  0
 20 21  1  0
 21 22  1  0
 22 23  1  0
 22 24  1  0
 24 25  1  0
 24 26  1  0
 19 27  1  0
 27 28  1  6
 27 29  1  0
 29 30  1  0
 30 31  1  0
 31 32  1  6
  7  5  1  0
 31 10  1  0
 31 13  1  0
 27 15  1  0
 24 18  1  0
  1 33  1  0
  1 34  1  0
  1 35  1  0
  2 36  1  6
  3 37  1  0
  3 38  1  0
  4 39  1  0
  4 40  1  0
  5 41  1  6
  8 42  1  0
  8 43  1  0
  8 44  1  0
  9 45  1  0
  9 46  1  0
  9 47  1  0
 10 48  1  1
 11 49  1  0
 11 50  1  0
 12 51  1  0
 12 52  1  0
 14 53  1  0
 14 54  1  0
 14 55  1  0
 15 56  1  6
 16 57  1  0
 16 58  1  0
 17 59  1  0
 19 60  1  1
 20 61  1  0
 20 62  1  0
 21 63  1  0
 21 64  1  0
 22 65  1  1
 23 66  1  0
 25 67  1  0
 25 68  1  0
 25 69  1  0
 26 70  1  0
 26 71  1  0
 26 72  1  0
 28 73  1  0
 28 74  1  0
 28 75  1  0
 29 76  1  0
 29 77  1  0
 30 78  1  0
 30 79  1  0
 32 80  1  0
 32 81  1  0
 32 82  1  0
M  END
>  <meeko>  (6) 
{"is_sidechain": [false], "intermolecular_energy": 2.731, "internal_energy": -0.839}

$$$$
EPH_relaxed_0001_pdb2pqr_Repair_187_r2_0001_out
     RDKit          3D

 82 86  0  0  0  0  0  0  0  0999 V2000
   -5.1010    5.9340   -1.8360 C   0  0  0  0  0  0  0  0  0  0  0  0
   -5.4430    7.4270   -1.8440 C   0  0  2  0  0  0  0  0  0  0  0  0
   -5.2330    8.0770   -0.4620 C   0  0  0  0  0  0  0  0  0  0  0  0
   -4.1980    9.2060   -0.4630 C   0  0  0  0  0  0  0  0  0  0  0  0
   -2.8150    8.6890   -0.7170 C   0  0  2  0  0  0  0  0  0  0  0  0
   -1.8350    9.1050    0.2430 O   0  0  0  0  0  0  0  0  0  0  0  0
   -1.6460    9.5780   -1.1000 C   0  0  0  0  0  0  0  0  0  0  0  0
   -1.8090   11.0580   -1.2530 C   0  0  0  0  0  0  0  0  0  0  0  0
   -0.4760    8.9590   -1.7980 C   0  0  0  0  0  0  0  0  0  0  0  0
   -6.8830    7.6280   -2.3010 C   0  0  1  0  0  0  0  0  0  0  0  0
   -7.1880    6.9150   -3.6450 C   0  0  0  0  0  0  0  0  0  0  0  0
   -8.6560    6.4210   -3.5670 C   0  0  0  0  0  0  0  0  0  0  0  0
   -9.2460    7.1460   -2.3350 C   0  0  1  0  0  0  0  0  0  0  0  0
   -9.6200    8.5710   -2.8490 C   0  0  0  0  0  0  0  0  0  0  0  0
  -10.4580    6.4470   -1.6370 C   0  0  2  0  0  0  0  0  0  0  0  0
  -11.7150    6.2950   -2.5100 C   0  0  0  0  0  0  0  0  0  0  0  0
  -12.6850    7.4270   -2.4350 C   0  0  0  0  0  0  0  0  0  0  0  0
  -12.6970    8.3850   -1.4890 C   0  0  0  0  0  0  0  0  0  0  0  0
  -11.7240    8.3330   -0.3040 C   0  0  1  0  0  0  0  0  0  0  0  0
  -12.4970    8.6140    1.0120 C   0  0  0  0  0  0  0  0  0  0  0  0
  -13.2860    9.9190    0.9610 C   0  0  0  0  0  0  0  0  0  0  0  0
  -14.2820    9.9080   -0.1960 C   0  0  2  0  0  0  0  0  0  0  0  0
  -15.2840    8.9210    0.0690 O   0  0  0  0  0  0  0  0  0  0  0  0
  -13.6200    9.6250   -1.5730 C   0  0  0  0  0  0  0  0  0  0  0  0
  -12.7620   10.8420   -1.9980 C   0  0  0  0  0  0  0  0  0  0  0  0
  -14.7510    9.5010   -2.6300 C   0  0  0  0  0  0  0  0  0  0  0  0
  -10.8120    7.0350   -0.2110 C   0  0  1  0  0  0  0  0  0  0  0  0
  -11.5660    5.9090    0.5600 C   0  0  0  0  0  0  0  0  0  0  0  0
   -9.5270    7.3690    0.6350 C   0  0  0  0  0  0  0  0  0  0  0  0
   -8.3210    7.9460   -0.1310 C   0  0  0  0  0  0  0  0  0  0  0  0
   -8.0050    7.1030   -1.3700 C   0  0  2  0  0  0  0  0  0  0  0  0
   -7.6030    5.6690   -0.8830 C   0  0  0  0  0  0  0  0  0  0  0  0
   -5.0203    5.5819   -0.7970 H   0  0  0  0  0  0  0  0  0  0  0  0
   -5.8940    5.3734   -2.3526 H   0  0  0  0  0  0  0  0  0  0  0  0
   -4.1431    5.7745   -2.3526 H   0  0  0  0  0  0  0  0  0  0  0  0
   -4.7575    7.9203   -2.5488 H   0  0  0  0  0  0  0  0  0  0  0  0
   -6.1949    8.4881   -0.1219 H   0  0  0  0  0  0  0  0  0  0  0  0
   -4.8515    7.2921    0.2076 H   0  0  0  0  0  0  0  0  0  0  0  0
   -4.4589    9.9282   -1.2506 H   0  0  0  0  0  0  0  0  0  0  0  0
   -4.2094    9.6828    0.5282 H   0  0  0  0  0  0  0  0  0  0  0  0
   -3.2162    7.7659   -1.1607 H   0  0  0  0  0  0  0  0  0  0  0  0
   -1.8605   11.5259   -0.2588 H   0  0  0  0  0  0  0  0  0  0  0  0
   -0.9504   11.4662   -1.8063 H   0  0  0  0  0  0  0  0  0  0  0  0
   -2.7359   11.2695   -1.8063 H   0  0  0  0  0  0  0  0  0  0  0  0
    0.2383    8.5811   -1.0517 H   0  0  0  0  0  0  0  0  0  0  0  0
   -0.8231    8.1266   -2.4277 H   0  0  0  0  0  0  0  0  0  0  0  0
    0.0169    9.7143   -2.4277 H   0  0  0  0  0  0  0  0  0  0  0  0
   -6.9116    8.7269   -2.3418 H   0  0  0  0  0  0  0  0  0  0  0  0
   -7.0691    7.6184   -4.4823 H   0  0  0  0  0  0  0  0  0  0  0  0
   -6.4973    6.0753   -3.8120 H   0  0  0  0  0  0  0  0  0  0  0  0
   -9.2068    6.6943   -4.4791 H   0  0  0  0  0  0  0  0  0  0  0  0
   -8.7240    5.3266   -3.4795 H   0  0  0  0  0  0  0  0  0  0  0  0
   -9.7946    9.2363   -1.9906 H   0  0  0  0  0  0  0  0  0  0  0  0
   -8.7958    8.9686   -3.4594 H   0  0  0  0  0  0  0  0  0  0  0  0
  -10.5332    8.5126   -3.4594 H   0  0  0  0  0  0  0  0  0  0  0  0
  -10.0809    5.4261   -1.4767 H   0  0  0  0  0  0  0  0  0  0  0  0
  -11.3916    6.1935   -3.5565 H   0  0  0  0  0  0  0  0  0  0  0  0
  -12.2473    5.4126   -2.1253 H   0  0  0  0  0  0  0  0  0  0  0  0
  -13.4549    7.4833   -3.2186 H   0  0  0  0  0  0  0  0  0  0  0  0
  -10.9856    9.1288   -0.4813 H   0  0  0  0  0  0  0  0  0  0  0  0
  -13.1975    7.7855    1.1930 H   0  0  0  0  0  0  0  0  0  0  0  0
  -11.7569    8.7032    1.8209 H   0  0  0  0  0  0  0  0  0  0  0  0
  -13.8336   10.0461    1.9065 H   0  0  0  0  0  0  0  0  0  0  0  0
  -12.5814   10.7503    0.8106 H   0  0  0  0  0  0  0  0  0  0  0  0
  -14.7222   10.9139   -0.2621 H   0  0  0  0  0  0  0  0  0  0  0  0
  -15.4080    8.8780    1.0320 H   0  0  0  0  0  0  0  0  0  0  0  0
  -12.3948   11.3628   -1.1014 H   0  0  0  0  0  0  0  0  0  0  0  0
  -11.9068   10.4963   -2.5973 H   0  0  0  0  0  0  0  0  0  0  0  0
  -13.3749   11.5314   -2.5973 H   0  0  0  0  0  0  0  0  0  0  0  0
  -15.7197    9.3948   -2.1197 H   0  0  0  0  0  0  0  0  0  0  0  0
  -14.7651   10.4030   -3.2595 H   0  0  0  0  0  0  0  0  0  0  0  0
  -14.5693    8.6174   -3.2595 H   0  0  0  0  0  0  0  0  0  0  0  0
  -11.4580    6.0703    1.6427 H   0  0  0  0  0  0  0  0  0  0  0  0
  -12.6323    5.9309    0.2906 H   0  0  0  0  0  0  0  0  0  0  0  0
  -11.1397    4.9314    0.2906 H   0  0  0  0  0  0  0  0  0  0  0  0
   -9.8153    8.1023    1.4026 H   0  0  0  0  0  0  0  0  0  0  0  0
   -9.1819    6.4013    1.0281 H   0  0  0  0  0  0  0  0  0  0  0  0
   -8.5526    8.9745   -0.4449 H   0  0  0  0  0  0  0  0  0  0  0  0
   -7.4448    7.9347    0.5340 H   0  0  0  0  0  0  0  0  0  0  0  0
   -7.5959    5.6438    0.2167 H   0  0  0  0  0  0  0  0  0  0  0  0
   -8.3302    4.9358   -1.2619 H   0  0  0  0  0  0  0  0  0  0  0  0
   -6.6006    5.4207   -1.2619 H   0  0  0  0  0  0  0  0  0  0  0  0
  1  2  1  0
  2  3  1  0
  3  4  1  0
  4  5  1  0
  5  6  1  0
  6  7  1  0
  7  8  1  0
  7  9  1  0
  2 10  1  0
 10 11  1  0
 11 12  1  0
 12 13  1  0
 13 14  1  6
 13 15  1  0
 15 16  1  0
 16 17  1  0
 17 18  2  0
 18 19  1  0
 19 20  1  0
 20 21  1  0
 21 22  1  0
 22 23  1  0
 22 24  1  0
 24 25  1  0
 24 26  1  0
 19 27  1  0
 27 28  1  1
 27 29  1  0
 29 30  1  0
 30 31  1  0
 31 32  1  1
  7  5  1  0
 31 10  1  0
 31 13  1  0
 27 15  1  0
 24 18  1  0
  1 33  1  0
  1 34  1  0
  1 35  1  0
  2 36  1  6
  3 37  1  0
  3 38  1  0
  4 39  1  0
  4 40  1  0
  5 41  1  6
  8 42  1  0
  8 43  1  0
  8 44  1  0
  9 45  1  0
  9 46  1  0
  9 47  1  0
 10 48  1  6
 11 49  1  0
 11 50  1  0
 12 51  1  0
 12 52  1  0
 14 53  1  0
 14 54  1  0
 14 55  1  0
 15 56  1  1
 16 57  1  0
 16 58  1  0
 17 59  1  0
 19 60  1  6
 20 61  1  0
 20 62  1  0
 21 63  1  0
 21 64  1  0
 22 65  1  6
 23 66  1  0
 25 67  1  0
 25 68  1  0
 25 69  1  0
 26 70  1  0
 26 71  1  0
 26 72  1  0
 28 73  1  0
 28 74  1  0
 28 75  1  0
 29 76  1  0
 29 77  1  0
 30 78  1  0
 30 79  1  0
 32 80  1  0
 32 81  1  0
 32 82  1  0
M  END
>  <meeko>  (7) 
{"is_sidechain": [false], "intermolecular_energy": 2.731, "internal_energy": -0.839}

$$$$
EPH_relaxed_0001_pdb2pqr_Repair_187_r2_0001_out
     RDKit          3D

 82 86  0  0  0  0  0  0  0  0999 V2000
    1.8980   18.2290   -2.1220 C   0  0  0  0  0  0  0  0  0  0  0  0
    1.4950   17.2920   -0.9800 C   0  0  2  0  0  0  0  0  0  0  0  0
    2.7050   16.8650   -0.1240 C   0  0  0  0  0  0  0  0  0  0  0  0
    3.6920   18.0020    0.1570 C   0  0  0  0  0  0  0  0  0  0  0  0
    3.4060   18.6730    1.4660 C   0  0  2  0  0  0  0  0  0  0  0  0
    3.7690   20.0590    1.5200 O   0  0  0  0  0  0  0  0  0  0  0  0
    4.4880   19.1800    2.4000 C   0  0  0  0  0  0  0  0  0  0  0  0
    5.9390   19.0360    2.0640 C   0  0  0  0  0  0  0  0  0  0  0  0
    4.1530   19.3690    3.8470 C   0  0  0  0  0  0  0  0  0  0  0  0
    0.7940   16.0610   -1.5410 C   0  0  1  0  0  0  0  0  0  0  0  0
    0.3820   16.2330   -3.0280 C   0  0  0  0  0  0  0  0  0  0  0  0
    0.5380   14.8450   -3.6990 C   0  0  0  0  0  0  0  0  0  0  0  0
    0.7090   13.8580   -2.5200 C   0  0  1  0  0  0  0  0  0  0  0  0
   -0.7400   13.5890   -2.0080 C   0  0  0  0  0  0  0  0  0  0  0  0
    1.4660   12.5280   -2.8370 C   0  0  2  0  0  0  0  0  0  0  0  0
    0.7830   11.6200   -3.8740 C   0  0  0  0  0  0  0  0  0  0  0  0
   -0.1690   10.6160   -3.3150 C   0  0  0  0  0  0  0  0  0  0  0  0
   -0.2550   10.2550   -2.0210 C   0  0  0  0  0  0  0  0  0  0  0  0
    0.7310   10.8060   -0.9830 C   0  0  1  0  0  0  0  0  0  0  0  0
    1.2520    9.6450   -0.0960 C   0  0  0  0  0  0  0  0  0  0  0  0
    0.1210    8.8440    0.5420 C   0  0  0  0  0  0  0  0  0  0  0  0
   -0.8050    8.2640   -0.5240 C   0  0  2  0  0  0  0  0  0  0  0  0
   -0.0840    7.2840   -1.2780 O   0  0  0  0  0  0  0  0  0  0  0  0
   -1.3840    9.3400   -1.4850 C   0  0  0  0  0  0  0  0  0  0  0  0
   -2.4040   10.2220   -0.7240 C   0  0  0  0  0  0  0  0  0  0  0  0
   -2.1850    8.6090   -2.5950 C   0  0  0  0  0  0  0  0  0  0  0  0
    1.9060   11.7110   -1.5550 C   0  0  1  0  0  0  0  0  0  0  0  0
    3.1060   10.8140   -1.9880 C   0  0  0  0  0  0  0  0  0  0  0  0
    2.4420   12.6440   -0.4060 C   0  0  0  0  0  0  0  0  0  0  0  0
    1.7290   13.9970   -0.2200 C   0  0  0  0  0  0  0  0  0  0  0  0
    1.5920   14.7330   -1.5570 C   0  0  2  0  0  0  0  0  0  0  0  0
    3.0350   15.0370   -2.0850 C   0  0  0  0  0  0  0  0  0  0  0  0
    2.3001   19.1639   -1.7046 H   0  0  0  0  0  0  0  0  0  0  0  0
    2.6668   17.7432   -2.7409 H   0  0  0  0  0  0  0  0  0  0  0  0
    1.0166   18.4530   -2.7409 H   0  0  0  0  0  0  0  0  0  0  0  0
    0.8065   17.8460   -0.3249 H   0  0  0  0  0  0  0  0  0  0  0  0
    2.3324   16.4828    0.8378 H   0  0  0  0  0  0  0  0  0  0  0  0
    3.2501   16.1002   -0.6966 H   0  0  0  0  0  0  0  0  0  0  0  0
    4.7119   17.5906    0.1825 H   0  0  0  0  0  0  0  0  0  0  0  0
    3.5891   18.7509   -0.6421 H   0  0  0  0  0  0  0  0  0  0  0  0
    2.5307   18.0278    1.6324 H   0  0  0  0  0  0  0  0  0  0  0  0
    6.5263   18.9777    2.9923 H   0  0  0  0  0  0  0  0  0  0  0  0
    6.0900   18.1185    1.4764 H   0  0  0  0  0  0  0  0  0  0  0  0
    6.2674   19.9060    1.4764 H   0  0  0  0  0  0  0  0  0  0  0  0
    4.9439   18.9228    4.4678 H   0  0  0  0  0  0  0  0  0  0  0  0
    4.0758   20.4438    4.0682 H   0  0  0  0  0  0  0  0  0  0  0  0
    3.1932   18.8793    4.0682 H   0  0  0  0  0  0  0  0  0  0  0  0
   -0.0443   15.9882   -0.8325 H   0  0  0  0  0  0  0  0  0  0  0  0
   -0.6627   16.5707   -3.0949 H   0  0  0  0  0  0  0  0  0  0  0  0
    1.0100   16.9856   -3.5271 H   0  0  0  0  0  0  0  0  0  0  0  0
   -0.3572   14.5955   -4.2875 H   0  0  0  0  0  0  0  0  0  0  0  0
    1.3878   14.8123   -4.3967 H   0  0  0  0  0  0  0  0  0  0  0  0
   -0.7459   13.5879   -0.9080 H   0  0  0  0  0  0  0  0  0  0  0  0
   -1.4118   14.3778   -2.3775 H   0  0  0  0  0  0  0  0  0  0  0  0
   -1.0839   12.6117   -2.3775 H   0  0  0  0  0  0  0  0  0  0  0  0
    2.3873   12.8899   -3.3169 H   0  0  0  0  0  0  0  0  0  0  0  0
    0.2277   12.2616   -4.5740 H   0  0  0  0  0  0  0  0  0  0  0  0
    1.5891   11.0423   -4.3498 H   0  0  0  0  0  0  0  0  0  0  0  0
   -0.8591   10.1296   -4.0202 H   0  0  0  0  0  0  0  0  0  0  0  0
    0.1596   11.5175   -0.3688 H   0  0  0  0  0  0  0  0  0  0  0  0
    1.8554    8.9685   -0.7191 H   0  0  0  0  0  0  0  0  0  0  0  0
    1.8482   10.0866    0.7162 H   0  0  0  0  0  0  0  0  0  0  0  0
    0.5509    8.0211    1.1319 H   0  0  0  0  0  0  0  0  0  0  0  0
   -0.4640    9.5153    1.1879 H   0  0  0  0  0  0  0  0  0  0  0  0
   -1.6634    7.8133   -0.0044 H   0  0  0  0  0  0  0  0  0  0  0  0
   -0.6950    6.5530   -1.4700 H   0  0  0  0  0  0  0  0  0  0  0  0
   -2.2600   10.0975    0.3594 H   0  0  0  0  0  0  0  0  0  0  0  0
   -2.2509   11.2769   -0.9954 H   0  0  0  0  0  0  0  0  0  0  0  0
   -3.4258    9.9182   -0.9954 H   0  0  0  0  0  0  0  0  0  0  0  0
   -2.9222    7.9362   -2.1325 H   0  0  0  0  0  0  0  0  0  0  0  0
   -2.7057    9.3497   -3.2196 H   0  0  0  0  0  0  0  0  0  0  0  0
   -1.4949    8.0229   -3.2196 H   0  0  0  0  0  0  0  0  0  0  0  0
    3.6188   10.4307   -1.0935 H   0  0  0  0  0  0  0  0  0  0  0  0
    2.7351    9.9699   -2.5880 H   0  0  0  0  0  0  0  0  0  0  0  0
    3.8106   11.4087   -2.5880 H   0  0  0  0  0  0  0  0  0  0  0  0
    2.3558   12.0896    0.5402 H   0  0  0  0  0  0  0  0  0  0  0  0
    3.4711   12.8990   -0.6990 H   0  0  0  0  0  0  0  0  0  0  0  0
    0.7270   13.8212    0.1983 H   0  0  0  0  0  0  0  0  0  0  0  0
    2.3276   14.6181    0.4626 H   0  0  0  0  0  0  0  0  0  0  0  0
    3.7149   15.1802   -1.2322 H   0  0  0  0  0  0  0  0  0  0  0  0
    3.3869   14.1933   -2.6968 H   0  0  0  0  0  0  0  0  0  0  0  0
    3.0166   15.9510   -2.6968 H   0  0  0  0  0  0  0  0  0  0  0  0
  1  2  1  0
  2  3  1  0
  3  4  1  0
  4  5  1  0
  5  6  1  0
  6  7  1  0
  7  8  1  0
  7  9  1  0
  2 10  1  0
 10 11  1  0
 11 12  1  0
 12 13  1  0
 13 14  1  1
 13 15  1  0
 15 16  1  0
 16 17  1  0
 17 18  2  0
 18 19  1  0
 19 20  1  0
 20 21  1  0
 21 22  1  0
 22 23  1  0
 22 24  1  0
 24 25  1  0
 24 26  1  0
 19 27  1  0
 27 28  1  6
 27 29  1  0
 29 30  1  0
 30 31  1  0
 31 32  1  6
  7  5  1  0
 31 10  1  0
 31 13  1  0
 27 15  1  0
 24 18  1  0
  1 33  1  0
  1 34  1  0
  1 35  1  0
  2 36  1  1
  3 37  1  0
  3 38  1  0
  4 39  1  0
  4 40  1  0
  5 41  1  1
  8 42  1  0
  8 43  1  0
  8 44  1  0
  9 45  1  0
  9 46  1  0
  9 47  1  0
 10 48  1  1
 11 49  1  0
 11 50  1  0
 12 51  1  0
 12 52  1  0
 14 53  1  0
 14 54  1  0
 14 55  1  0
 15 56  1  6
 16 57  1  0
 16 58  1  0
 17 59  1  0
 19 60  1  1
 20 61  1  0
 20 62  1  0
 21 63  1  0
 21 64  1  0
 22 65  1  1
 23 66  1  0
 25 67  1  0
 25 68  1  0
 25 69  1  0
 26 70  1  0
 26 71  1  0
 26 72  1  0
 28 73  1  0
 28 74  1  0
 28 75  1  0
 29 76  1  0
 29 77  1  0
 30 78  1  0
 30 79  1  0
 32 80  1  0
 32 81  1  0
 32 82  1  0
M  END
>  <meeko>  (8) 
{"is_sidechain": [false], "intermolecular_energy": 2.731, "internal_energy": -0.839}

$$$$
EPH_relaxed_0001_pdb2pqr_Repair_187_r2_0001_out
     RDKit          3D

 82 86  0  0  0  0  0  0  0  0999 V2000
    2.9830   18.2750   -3.7020 C   0  0  0  0  0  0  0  0  0  0  0  0
    2.0210   18.0520   -2.5310 C   0  0  2  0  0  0  0  0  0  0  0  0
    2.1620   19.1400   -1.4480 C   0  0  0  0  0  0  0  0  0  0  0  0
    1.0530   20.1940   -1.4870 C   0  0  0  0  0  0  0  0  0  0  0  0
    0.0400   19.9740   -0.4050 C   0  0  2  0  0  0  0  0  0  0  0  0
   -0.6690   18.7310   -0.4930 O   0  0  0  0  0  0  0  0  0  0  0  0
   -1.4560   19.9220   -0.6570 C   0  0  0  0  0  0  0  0  0  0  0  0
   -2.0220   20.0940   -2.0310 C   0  0  0  0  0  0  0  0  0  0  0  0
   -2.3830   20.1940    0.4860 C   0  0  0  0  0  0  0  0  0  0  0  0
    2.2560   16.6750   -1.9210 C   0  0  1  0  0  0  0  0  0  0  0  0
    2.8470   16.7500   -0.4880 C   0  0  0  0  0  0  0  0  0  0  0  0
    2.2450   15.5630    0.3070 C   0  0  0  0  0  0  0  0  0  0  0  0
    1.5980   14.6610   -0.7700 C   0  0  1  0  0  0  0  0  0  0  0  0
    2.7800   13.8300   -1.3610 C   0  0  0  0  0  0  0  0  0  0  0  0
    0.4290   13.7400   -0.2890 C   0  0  2  0  0  0  0  0  0  0  0  0
    0.8170   12.6930    0.7690 C   0  0  0  0  0  0  0  0  0  0  0  0
    1.2590   11.3730    0.2280 C   0  0  0  0  0  0  0  0  0  0  0  0
    1.0740   10.9440   -1.0340 C   0  0  0  0  0  0  0  0  0  0  0  0
    0.2720   11.7790   -2.0410 C   0  0  1  0  0  0  0  0  0  0  0  0
   -0.7340   10.8640   -2.7880 C   0  0  0  0  0  0  0  0  0  0  0  0
   -0.0590    9.6590   -3.4360 C   0  0  0  0  0  0  0  0  0  0  0  0
    0.6790    8.8220   -2.3940 C   0  0  2  0  0  0  0  0  0  0  0  0
   -0.2800    8.2330   -1.5110 O   0  0  0  0  0  0  0  0  0  0  0  0
    1.7140    9.6400   -1.5720 C   0  0  0  0  0  0  0  0  0  0  0  0
    2.9120   10.0230   -2.4760 C   0  0  0  0  0  0  0  0  0  0  0  0
    2.2840    8.7130   -0.4650 C   0  0  0  0  0  0  0  0  0  0  0  0
   -0.4110   13.0930   -1.4630 C   0  0  1  0  0  0  0  0  0  0  0  0
   -1.8120   12.7480   -0.8710 C   0  0  0  0  0  0  0  0  0  0  0  0
   -0.6650   14.1020   -2.6450 C   0  0  0  0  0  0  0  0  0  0  0  0
    0.4850   15.0660   -2.9940 C   0  0  0  0  0  0  0  0  0  0  0  0
    1.0210   15.7580   -1.7370 C   0  0  2  0  0  0  0  0  0  0  0  0
   -0.1400   16.6190   -1.1330 C   0  0  0  0  0  0  0  0  0  0  0  0
    3.9856   18.5074   -3.3137 H   0  0  0  0  0  0  0  0  0  0  0  0
    3.0299   17.3639   -4.3166 H   0  0  0  0  0  0  0  0  0  0  0  0
    2.6243   19.1138   -4.3166 H   0  0  0  0  0  0  0  0  0  0  0  0
    0.9968   18.1130   -2.9275 H   0  0  0  0  0  0  0  0  0  0  0  0
    2.1437   18.6529   -0.4619 H   0  0  0  0  0  0  0  0  0  0  0  0
    3.1102   19.6636   -1.6398 H   0  0  0  0  0  0  0  0  0  0  0  0
    1.5027   21.1894   -1.3570 H   0  0  0  0  0  0  0  0  0  0  0  0
    0.5404   20.1162   -2.4572 H   0  0  0  0  0  0  0  0  0  0  0  0
    0.6478   20.5443    0.3128 H   0  0  0  0  0  0  0  0  0  0  0  0
   -3.0721   20.4131   -1.9577 H   0  0  0  0  0  0  0  0  0  0  0  0
   -1.4439   20.8570   -2.5728 H   0  0  0  0  0  0  0  0  0  0  0  0
   -1.9662   19.1383   -2.5728 H   0  0  0  0  0  0  0  0  0  0  0  0
   -1.8501   20.0376    1.4355 H   0  0  0  0  0  0  0  0  0  0  0  0
   -2.7373   21.2340    0.4313 H   0  0  0  0  0  0  0  0  0  0  0  0
   -3.2430   19.5103    0.4313 H   0  0  0  0  0  0  0  0  0  0  0  0
    2.9300   16.2500   -2.6794 H   0  0  0  0  0  0  0  0  0  0  0  0
    3.9430   16.6639   -0.5253 H   0  0  0  0  0  0  0  0  0  0  0  0
    2.6026   17.7100   -0.0098 H   0  0  0  0  0  0  0  0  0  0  0  0
    3.0329   15.0182    0.8477 H   0  0  0  0  0  0  0  0  0  0  0  0
    1.5198   15.8935    1.0652 H   0  0  0  0  0  0  0  0  0  0  0  0
    3.3788   13.4090   -0.5399 H   0  0  0  0  0  0  0  0  0  0  0  0
    2.3805   13.0130   -1.9798 H   0  0  0  0  0  0  0  0  0  0  0  0
    3.4136   14.4825   -1.9798 H   0  0  0  0  0  0  0  0  0  0  0  0
   -0.2358   14.4503    0.2243 H   0  0  0  0  0  0  0  0  0  0  0  0
    1.6398   13.1065    1.3706 H   0  0  0  0  0  0  0  0  0  0  0  0
   -0.0961   12.4938    1.3492 H   0  0  0  0  0  0  0  0  0  0  0  0
    1.7797   10.6942    0.9194 H   0  0  0  0  0  0  0  0  0  0  0  0
    1.0060   12.1852   -2.7526 H   0  0  0  0  0  0  0  0  0  0  0  0
   -1.4841   10.5035   -2.0687 H   0  0  0  0  0  0  0  0  0  0  0  0
   -1.1953   11.4594   -3.5896 H   0  0  0  0  0  0  0  0  0  0  0  0
   -0.8241    9.0359   -3.9222 H   0  0  0  0  0  0  0  0  0  0  0  0
    0.6697   10.0205   -4.1765 H   0  0  0  0  0  0  0  0  0  0  0  0
    1.2472    8.0502   -2.9339 H   0  0  0  0  0  0  0  0  0  0  0  0
   -0.1330    8.6060   -0.6260 H   0  0  0  0  0  0  0  0  0  0  0  0
    3.7721   10.2980   -1.8479 H   0  0  0  0  0  0  0  0  0  0  0  0
    3.1808    9.1660   -3.1111 H   0  0  0  0  0  0  0  0  0  0  0  0
    2.6338   10.8770   -3.1111 H   0  0  0  0  0  0  0  0  0  0  0  0
    2.0313    9.1240    0.5235 H   0  0  0  0  0  0  0  0  0  0  0  0
    1.8472    7.7086   -0.5670 H   0  0  0  0  0  0  0  0  0  0  0  0
    3.3774    8.6495   -0.5670 H   0  0  0  0  0  0  0  0  0  0  0  0
   -1.7591   12.7610    0.2277 H   0  0  0  0  0  0  0  0  0  0  0  0
   -2.5473   13.4919   -1.2116 H   0  0  0  0  0  0  0  0  0  0  0  0
   -2.1178   11.7477   -1.2116 H   0  0  0  0  0  0  0  0  0  0  0  0
   -0.8885   13.5107   -3.5452 H   0  0  0  0  0  0  0  0  0  0  0  0
   -1.4873   14.7469   -2.3015 H   0  0  0  0  0  0  0  0  0  0  0  0
    1.2996   14.4980   -3.4671 H   0  0  0  0  0  0  0  0  0  0  0  0
    0.1019   15.8348   -3.6812 H   0  0  0  0  0  0  0  0  0  0  0  0
   -0.0906   16.5823   -0.0347 H   0  0  0  0  0  0  0  0  0  0  0  0
   -0.0373   17.6610   -1.4701 H   0  0  0  0  0  0  0  0  0  0  0  0
   -1.1073   16.2182   -1.4701 H   0  0  0  0  0  0  0  0  0  0  0  0
  1  2  1  0
  2  3  1  0
  3  4  1  0
  4  5  1  0
  5  6  1  0
  6  7  1  0
  7  8  1  0
  7  9  1  0
  2 10  1  0
 10 11  1  0
 11 12  1  0
 12 13  1  0
 13 14  1  6
 13 15  1  0
 15 16  1  0
 16 17  1  0
 17 18  2  0
 18 19  1  0
 19 20  1  0
 20 21  1  0
 21 22  1  0
 22 23  1  0
 22 24  1  0
 24 25  1  0
 24 26  1  0
 19 27  1  0
 27 28  1  1
 27 29  1  0
 29 30  1  0
 30 31  1  0
 31 32  1  1
  7  5  1  0
 31 10  1  0
 31 13  1  0
 27 15  1  0
 24 18  1  0
  1 33  1  0
  1 34  1  0
  1 35  1  0
  2 36  1  6
  3 37  1  0
  3 38  1  0
  4 39  1  0
  4 40  1  0
  5 41  1  1
  8 42  1  0
  8 43  1  0
  8 44  1  0
  9 45  1  0
  9 46  1  0
  9 47  1  0
 10 48  1  6
 11 49  1  0
 11 50  1  0
 12 51  1  0
 12 52  1  0
 14 53  1  0
 14 54  1  0
 14 55  1  0
 15 56  1  1
 16 57  1  0
 16 58  1  0
 17 59  1  0
 19 60  1  6
 20 61  1  0
 20 62  1  0
 21 63  1  0
 21 64  1  0
 22 65  1  6
 23 66  1  0
 25 67  1  0
 25 68  1  0
 25 69  1  0
 26 70  1  0
 26 71  1  0
 26 72  1  0
 28 73  1  0
 28 74  1  0
 28 75  1  0
 29 76  1  0
 29 77  1  0
 30 78  1  0
 30 79  1  0
 32 80  1  0
 32 81  1  0
 32 82  1  0
M  END
>  <meeko>  (9) 
{"is_sidechain": [false], "intermolecular_energy": 2.731, "internal_energy": -0.839}

$$$$
EPH_relaxed_0001_pdb2pqr_Repair_187_r2_0001_out
     RDKit          3D

 82 86  0  0  0  0  0  0  0  0999 V2000
   -5.0790    8.6530   -0.1590 C   0  0  0  0  0  0  0  0  0  0  0  0
   -5.2510    7.7010   -1.3460 C   0  0  2  0  0  0  0  0  0  0  0  0
   -4.2150    7.9650   -2.4570 C   0  0  0  0  0  0  0  0  0  0  0  0
   -2.7830    7.5920   -2.0650 C   0  0  0  0  0  0  0  0  0  0  0  0
   -2.2540    8.4850   -0.9830 C   0  0  2  0  0  0  0  0  0  0  0  0
   -2.2770    9.8840   -1.2970 O   0  0  0  0  0  0  0  0  0  0  0  0
   -0.9790    9.2960   -1.1170 C   0  0  0  0  0  0  0  0  0  0  0  0
   -0.1530    9.2510   -2.3640 C   0  0  0  0  0  0  0  0  0  0  0  0
   -0.2820    9.7450    0.1290 C   0  0  0  0  0  0  0  0  0  0  0  0
   -6.6620    7.8220   -1.9100 C   0  0  1  0  0  0  0  0  0  0  0  0
   -6.8250    7.0980   -3.2730 C   0  0  0  0  0  0  0  0  0  0  0  0
   -8.2640    6.5220   -3.3040 C   0  0  0  0  0  0  0  0  0  0  0  0
   -8.9840    7.2080   -2.1200 C   0  0  1  0  0  0  0  0  0  0  0  0
   -9.3990    8.6120   -2.6610 C   0  0  0  0  0  0  0  0  0  0  0  0
  -10.2040    6.4390   -1.5140 C   0  0  2  0  0  0  0  0  0  0  0  0
  -11.3820    6.2190   -2.4790 C   0  0  0  0  0  0  0  0  0  0  0  0
  -12.4170    7.2950   -2.4770 C   0  0  0  0  0  0  0  0  0  0  0  0
  -12.5530    8.2470   -1.5360 C   0  0  0  0  0  0  0  0  0  0  0  0
  -11.6710    8.2470   -0.2810 C   0  0  1  0  0  0  0  0  0  0  0  0
  -12.5540    8.4780    0.9730 C   0  0  0  0  0  0  0  0  0  0  0  0
  -13.4090    9.7370    0.8620 C   0  0  0  0  0  0  0  0  0  0  0  0
  -14.3150    9.6740   -0.3650 C   0  0  2  0  0  0  0  0  0  0  0  0
  -15.2760    8.6320   -0.1760 O   0  0  0  0  0  0  0  0  0  0  0  0
  -13.5360    9.4340   -1.6890 C   0  0  0  0  0  0  0  0  0  0  0  0
  -12.7190   10.6990   -2.0490 C   0  0  0  0  0  0  0  0  0  0  0  0
  -14.5760    9.2510   -2.8270 C   0  0  0  0  0  0  0  0  0  0  0  0
  -10.6960    7.0020   -0.1190 C   0  0  1  0  0  0  0  0  0  0  0  0
  -11.4410    5.8320    0.5950 C   0  0  0  0  0  0  0  0  0  0  0  0
   -9.4990    7.4040    0.8200 C   0  0  0  0  0  0  0  0  0  0  0  0
   -8.2740    8.0510    0.1460 C   0  0  0  0  0  0  0  0  0  0  0  0
   -7.8190    7.2310   -1.0650 C   0  0  2  0  0  0  0  0  0  0  0  0
   -7.3740    5.8210   -0.5480 C   0  0  0  0  0  0  0  0  0  0  0  0
   -5.1807    8.0898    0.7804 H   0  0  0  0  0  0  0  0  0  0  0  0
   -4.0825    9.1168   -0.2024 H   0  0  0  0  0  0  0  0  0  0  0  0
   -5.8502    9.4362   -0.2024 H   0  0  0  0  0  0  0  0  0  0  0  0
   -5.0852    6.6784   -0.9762 H   0  0  0  0  0  0  0  0  0  0  0  0
   -4.4973    7.3759   -3.3420 H   0  0  0  0  0  0  0  0  0  0  0  0
   -4.2228    9.0474   -2.6529 H   0  0  0  0  0  0  0  0  0  0  0  0
   -2.7708    6.5521   -1.7067 H   0  0  0  0  0  0  0  0  0  0  0  0
   -2.1427    7.7109   -2.9515 H   0  0  0  0  0  0  0  0  0  0  0  0
   -2.6105    7.7936   -0.2052 H   0  0  0  0  0  0  0  0  0  0  0  0
    0.9123    9.1930   -2.0962 H   0  0  0  0  0  0  0  0  0  0  0  0
   -0.4309    8.3667   -2.9562 H   0  0  0  0  0  0  0  0  0  0  0  0
   -0.3332   10.1603   -2.9562 H   0  0  0  0  0  0  0  0  0  0  0  0
   -0.8371    9.3874    1.0088 H   0  0  0  0  0  0  0  0  0  0  0  0
    0.7381    9.3338    0.1470 H   0  0  0  0  0  0  0  0  0  0  0  0
   -0.2347   10.8438    0.1470 H   0  0  0  0  0  0  0  0  0  0  0  0
   -6.7495    8.9176   -1.9537 H   0  0  0  0  0  0  0  0  0  0  0  0
   -6.6841    7.8101   -4.0995 H   0  0  0  0  0  0  0  0  0  0  0  0
   -6.0773    6.2994   -3.3880 H   0  0  0  0  0  0  0  0  0  0  0  0
   -8.7600    6.7670   -4.2548 H   0  0  0  0  0  0  0  0  0  0  0  0
   -8.2763    5.4252   -3.2209 H   0  0  0  0  0  0  0  0  0  0  0  0
   -9.5984    9.2866   -1.8153 H   0  0  0  0  0  0  0  0  0  0  0  0
   -8.5842    9.0241   -3.2745 H   0  0  0  0  0  0  0  0  0  0  0  0
  -10.3069    8.5149   -3.2745 H   0  0  0  0  0  0  0  0  0  0  0  0
   -9.7835    5.4403   -1.3251 H   0  0  0  0  0  0  0  0  0  0  0  0
  -10.9762    6.1395   -3.4983 H   0  0  0  0  0  0  0  0  0  0  0  0
  -11.8909    5.3064   -2.1352 H   0  0  0  0  0  0  0  0  0  0  0  0
  -13.1285    7.3108   -3.3157 H   0  0  0  0  0  0  0  0  0  0  0  0
  -10.9693    9.0853   -0.4029 H   0  0  0  0  0  0  0  0  0  0  0  0
  -13.2183    7.6107    1.1013 H   0  0  0  0  0  0  0  0  0  0  0  0
  -11.8830    8.6047    1.8354 H   0  0  0  0  0  0  0  0  0  0  0  0
  -14.0309    9.8307    1.7644 H   0  0  0  0  0  0  0  0  0  0  0  0
  -12.7427   10.6066    0.7625 H   0  0  0  0  0  0  0  0  0  0  0  0
  -14.8065   10.6532   -0.4632 H   0  0  0  0  0  0  0  0  0  0  0  0
  -15.9370    8.9530    0.4610 H   0  0  0  0  0  0  0  0  0  0  0  0
  -12.3947   11.2011   -1.1256 H   0  0  0  0  0  0  0  0  0  0  0  0
  -11.8365   10.4100   -2.6386 H   0  0  0  0  0  0  0  0  0  0  0  0
  -13.3454   11.3846   -2.6386 H   0  0  0  0  0  0  0  0  0  0  0  0
  -15.5703    9.0760   -2.3903 H   0  0  0  0  0  0  0  0  0  0  0  0
  -14.6029   10.1582   -3.4485 H   0  0  0  0  0  0  0  0  0  0  0  0
  -14.2916    8.3891   -3.4485 H   0  0  0  0  0  0  0  0  0  0  0  0
  -11.3612    5.9574    1.6849 H   0  0  0  0  0  0  0  0  0  0  0  0
  -12.5012    5.8392    0.3018 H   0  0  0  0  0  0  0  0  0  0  0  0
  -10.9860    4.8744    0.3018 H   0  0  0  0  0  0  0  0  0  0  0  0
   -9.8845    8.1167    1.5639 H   0  0  0  0  0  0  0  0  0  0  0  0
   -9.1301    6.4557    1.2378 H   0  0  0  0  0  0  0  0  0  0  0  0
   -8.5395    9.0657   -0.1855 H   0  0  0  0  0  0  0  0  0  0  0  0
   -7.4508    8.0876    0.8747 H   0  0  0  0  0  0  0  0  0  0  0  0
   -7.3729    5.8174    0.5520 H   0  0  0  0  0  0  0  0  0  0  0  0
   -8.0748    5.0574   -0.9165 H   0  0  0  0  0  0  0  0  0  0  0  0
   -6.3618    5.5980   -0.9165 H   0  0  0  0  0  0  0  0  0  0  0  0
  1  2  1  0
  2  3  1  0
  3  4  1  0
  4  5  1  0
  5  6  1  0
  6  7  1  0
  7  8  1  0
  7  9  1  0
  2 10  1  0
 10 11  1  0
 11 12  1  0
 12 13  1  0
 13 14  1  6
 13 15  1  0
 15 16  1  0
 16 17  1  0
 17 18  2  0
 18 19  1  0
 19 20  1  0
 20 21  1  0
 21 22  1  0
 22 23  1  0
 22 24  1  0
 24 25  1  0
 24 26  1  0
 19 27  1  0
 27 28  1  1
 27 29  1  0
 29 30  1  0
 30 31  1  0
 31 32  1  1
  7  5  1  0
 31 10  1  0
 31 13  1  0
 27 15  1  0
 24 18  1  0
  1 33  1  0
  1 34  1  0
  1 35  1  0
  2 36  1  1
  3 37  1  0
  3 38  1  0
  4 39  1  0
  4 40  1  0
  5 41  1  1
  8 42  1  0
  8 43  1  0
  8 44  1  0
  9 45  1  0
  9 46  1  0
  9 47  1  0
 10 48  1  6
 11 49  1  0
 11 50  1  0
 12 51  1  0
 12 52  1  0
 14 53  1  0
 14 54  1  0
 14 55  1  0
 15 56  1  1
 16 57  1  0
 16 58  1  0
 17 59  1  0
 19 60  1  6
 20 61  1  0
 20 62  1  0
 21 63  1  0
 21 64  1  0
 22 65  1  6
 23 66  1  0
 25 67  1  0
 25 68  1  0
 25 69  1  0
 26 70  1  0
 26 71  1  0
 26 72  1  0
 28 73  1  0
 28 74  1  0
 28 75  1  0
 29 76  1  0
 29 77  1  0
 30 78  1  0
 30 79  1  0
 32 80  1  0
 32 81  1  0
 32 82  1  0
M  END
>  <meeko>  (10) 
{"is_sidechain": [false], "intermolecular_energy": 2.731, "internal_energy": -0.839}

$$$$
EPH_relaxed_0001_pdb2pqr_Repair_187_r2_0001_out
     RDKit          3D

 82 86  0  0  0  0  0  0  0  0999 V2000
   -0.2990   10.6110   -4.2010 C   0  0  0  0  0  0  0  0  0  0  0  0
    0.8140   10.3600   -3.1800 C   0  0  2  0  0  0  0  0  0  0  0  0
    0.6310    9.0200   -2.4390 C   0  0  0  0  0  0  0  0  0  0  0  0
   -0.8010    8.7740   -1.9570 C   0  0  0  0  0  0  0  0  0  0  0  0
   -0.9530    9.0750   -0.4960 C   0  0  2  0  0  0  0  0  0  0  0  0
   -2.3100    9.1320   -0.0350 O   0  0  0  0  0  0  0  0  0  0  0  0
   -1.5650   10.3590    0.0340 C   0  0  0  0  0  0  0  0  0  0  0  0
   -2.0620   11.4260   -0.8890 C   0  0  0  0  0  0  0  0  0  0  0  0
   -1.2340   10.7850    1.4310 C   0  0  0  0  0  0  0  0  0  0  0  0
    0.8680   11.5070   -2.1780 C   0  0  1  0  0  0  0  0  0  0  0  0
    1.8530   11.2330   -1.0100 C   0  0  0  0  0  0  0  0  0  0  0  0
    2.4860   12.5970   -0.6300 C   0  0  0  0  0  0  0  0  0  0  0  0
    1.6130   13.6480   -1.3550 C   0  0  1  0  0  0  0  0  0  0  0  0
    0.3630   13.8310   -0.4380 C   0  0  0  0  0  0  0  0  0  0  0  0
    2.2990   15.0150   -1.6740 C   0  0  2  0  0  0  0  0  0  0  0  0
    2.7560   15.8190   -0.4440 C   0  0  0  0  0  0  0  0  0  0  0  0
    1.7480   16.7730    0.1050 C   0  0  0  0  0  0  0  0  0  0  0  0
    0.6360   17.1870   -0.5300 C   0  0  0  0  0  0  0  0  0  0  0  0
    0.3500   16.7620   -1.9770 C   0  0  1  0  0  0  0  0  0  0  0  0
   -0.0850   18.0000   -2.8040 C   0  0  0  0  0  0  0  0  0  0  0  0
   -1.2590   18.7420   -2.1720 C   0  0  0  0  0  0  0  0  0  0  0  0
   -0.9160   19.1990   -0.7560 C   0  0  2  0  0  0  0  0  0  0  0  0
    0.1100   20.1940   -0.8290 O   0  0  0  0  0  0  0  0  0  0  0  0
   -0.4540   18.0380    0.1680 C   0  0  0  0  0  0  0  0  0  0  0  0
   -1.6570   17.1180    0.4890 C   0  0  0  0  0  0  0  0  0  0  0  0
   -0.0040   18.6540    1.5200 C   0  0  0  0  0  0  0  0  0  0  0  0
    1.4950   15.9230   -2.6910 C   0  0  1  0  0  0  0  0  0  0  0  0
    2.5330   16.8860   -3.3450 C   0  0  0  0  0  0  0  0  0  0  0  0
    0.8630   15.0880   -3.8670 C   0  0  0  0  0  0  0  0  0  0  0  0
    0.3090   13.6950   -3.5100 C   0  0  0  0  0  0  0  0  0  0  0  0
    1.3310   12.8890   -2.7020 C   0  0  2  0  0  0  0  0  0  0  0  0
    2.5910   12.6700   -3.6070 C   0  0  0  0  0  0  0  0  0  0  0  0
   -1.2402   10.8233   -3.6727 H   0  0  0  0  0  0  0  0  0  0  0  0
   -0.0306   11.4712   -4.8319 H   0  0  0  0  0  0  0  0  0  0  0  0
   -0.4258    9.7189   -4.8319 H   0  0  0  0  0  0  0  0  0  0  0  0
    1.7637   10.3042   -3.7323 H   0  0  0  0  0  0  0  0  0  0  0  0
    0.9127    8.2045   -3.1214 H   0  0  0  0  0  0  0  0  0  0  0  0
    1.2694    9.0577   -1.5440 H   0  0  0  0  0  0  0  0  0  0  0  0
   -1.4851    9.4197   -2.5272 H   0  0  0  0  0  0  0  0  0  0  0  0
   -1.0386    7.7117   -2.1151 H   0  0  0  0  0  0  0  0  0  0  0  0
   -0.0099    8.5574   -0.2664 H   0  0  0  0  0  0  0  0  0  0  0  0
   -2.4540   12.2677   -0.2991 H   0  0  0  0  0  0  0  0  0  0  0  0
   -1.2346   11.7767   -1.5233 H   0  0  0  0  0  0  0  0  0  0  0  0
   -2.8629   11.0183   -1.5233 H   0  0  0  0  0  0  0  0  0  0  0  0
   -1.7465   10.1253    2.1466 H   0  0  0  0  0  0  0  0  0  0  0  0
   -0.1469   10.7202    1.5862 H   0  0  0  0  0  0  0  0  0  0  0  0
   -1.5654   11.8223    1.5862 H   0  0  0  0  0  0  0  0  0  0  0  0
   -0.1929   11.5505   -1.8905 H   0  0  0  0  0  0  0  0  0  0  0  0
    1.3123   10.8132   -0.1489 H   0  0  0  0  0  0  0  0  0  0  0  0
    2.6252   10.5077   -1.3061 H   0  0  0  0  0  0  0  0  0  0  0  0
    2.4540   12.7501    0.4588 H   0  0  0  0  0  0  0  0  0  0  0  0
    3.5446   12.6613   -0.9218 H   0  0  0  0  0  0  0  0  0  0  0  0
    0.6722   13.7857    0.6167 H   0  0  0  0  0  0  0  0  0  0  0  0
   -0.1019   14.8068   -0.6423 H   0  0  0  0  0  0  0  0  0  0  0  0
   -0.3621   13.0294   -0.6423 H   0  0  0  0  0  0  0  0  0  0  0  0
    3.2208   14.7014   -2.1858 H   0  0  0  0  0  0  0  0  0  0  0  0
    3.0164   15.1049    0.3512 H   0  0  0  0  0  0  0  0  0  0  0  0
    3.6045   16.4331   -0.7801 H   0  0  0  0  0  0  0  0  0  0  0  0
    1.9294   17.1715    1.1141 H   0  0  0  0  0  0  0  0  0  0  0  0
   -0.4776   16.0393   -1.9243 H   0  0  0  0  0  0  0  0  0  0  0  0
    0.7681   18.6901   -2.8812 H   0  0  0  0  0  0  0  0  0  0  0  0
   -0.4082   17.6441   -3.7934 H   0  0  0  0  0  0  0  0  0  0  0  0
   -1.5012   19.6221   -2.7858 H   0  0  0  0  0  0  0  0  0  0  0  0
   -2.1203   18.0596   -2.1221 H   0  0  0  0  0  0  0  0  0  0  0  0
   -1.8346   19.6074   -0.3095 H   0  0  0  0  0  0  0  0  0  0  0  0
   -0.3090   21.0600   -0.6870 H   0  0  0  0  0  0  0  0  0  0  0  0
   -1.7711   17.0307    1.5796 H   0  0  0  0  0  0  0  0  0  0  0  0
   -2.5729   17.5482    0.0578 H   0  0  0  0  0  0  0  0  0  0  0  0
   -1.4817   16.1214    0.0578 H   0  0  0  0  0  0  0  0  0  0  0  0
   -0.4305   18.0701    2.3490 H   0  0  0  0  0  0  0  0  0  0  0  0
    1.0939   18.6344    1.5845 H   0  0  0  0  0  0  0  0  0  0  0  0
   -0.3565   19.6940    1.5845 H   0  0  0  0  0  0  0  0  0  0  0  0
    3.0958   17.4082   -2.5572 H   0  0  0  0  0  0  0  0  0  0  0  0
    3.2285   16.3061   -3.9695 H   0  0  0  0  0  0  0  0  0  0  0  0
    2.0068   17.6229   -3.9695 H   0  0  0  0  0  0  0  0  0  0  0  0
    0.0349   15.6780   -4.2866 H   0  0  0  0  0  0  0  0  0  0  0  0
    1.6927   14.8981   -4.5637 H   0  0  0  0  0  0  0  0  0  0  0  0
   -0.6077   13.8143   -2.9138 H   0  0  0  0  0  0  0  0  0  0  0  0
    0.0938   13.1535   -4.4430 H   0  0  0  0  0  0  0  0  0  0  0  0
    3.4761   12.5162   -2.9722 H   0  0  0  0  0  0  0  0  0  0  0  0
    2.4370   11.7852   -4.2421 H   0  0  0  0  0  0  0  0  0  0  0  0
    2.7446   13.5549   -4.2421 H   0  0  0  0  0  0  0  0  0  0  0  0
  1  2  1  0
  2  3  1  0
  3  4  1  0
  4  5  1  0
  5  6  1  0
  6  7  1  0
  7  8  1  0
  7  9  1  0
  2 10  1  0
 10 11  1  0
 11 12  1  0
 12 13  1  0
 13 14  1  1
 13 15  1  0
 15 16  1  0
 16 17  1  0
 17 18  2  0
 18 19  1  0
 19 20  1  0
 20 21  1  0
 21 22  1  0
 22 23  1  0
 22 24  1  0
 24 25  1  0
 24 26  1  0
 19 27  1  0
 27 28  1  6
 27 29  1  0
 29 30  1  0
 30 31  1  0
 31 32  1  6
  7  5  1  0
 31 10  1  0
 31 13  1  0
 27 15  1  0
 24 18  1  0
  1 33  1  0
  1 34  1  0
  1 35  1  0
  2 36  1  6
  3 37  1  0
  3 38  1  0
  4 39  1  0
  4 40  1  0
  5 41  1  1
  8 42  1  0
  8 43  1  0
  8 44  1  0
  9 45  1  0
  9 46  1  0
  9 47  1  0
 10 48  1  1
 11 49  1  0
 11 50  1  0
 12 51  1  0
 12 52  1  0
 14 53  1  0
 14 54  1  0
 14 55  1  0
 15 56  1  6
 16 57  1  0
 16 58  1  0
 17 59  1  0
 19 60  1  1
 20 61  1  0
 20 62  1  0
 21 63  1  0
 21 64  1  0
 22 65  1  1
 23 66  1  0
 25 67  1  0
 25 68  1  0
 25 69  1  0
 26 70  1  0
 26 71  1  0
 26 72  1  0
 28 73  1  0
 28 74  1  0
 28 75  1  0
 29 76  1  0
 29 77  1  0
 30 78  1  0
 30 79  1  0
 32 80  1  0
 32 81  1  0
 32 82  1  0
M  END
>  <meeko>  (11) 
{"is_sidechain": [false], "intermolecular_energy": 2.731, "internal_energy": -0.839}

$$$$
EPH_relaxed_0001_pdb2pqr_Repair_187_r2_0001_out
     RDKit          3D

 82 86  0  0  0  0  0  0  0  0999 V2000
    0.1810    8.9540   -2.6480 C   0  0  0  0  0  0  0  0  0  0  0  0
    0.8930   10.1100   -3.3560 C   0  0  2  0  0  0  0  0  0  0  0  0
    2.4140   10.0980   -3.1000 C   0  0  0  0  0  0  0  0  0  0  0  0
    3.2280   10.7900   -4.1980 C   0  0  0  0  0  0  0  0  0  0  0  0
    4.6370   11.0520   -3.7610 C   0  0  2  0  0  0  0  0  0  0  0  0
    5.3340   12.0310   -4.5420 O   0  0  0  0  0  0  0  0  0  0  0  0
    5.8520   10.6920   -4.5950 C   0  0  0  0  0  0  0  0  0  0  0  0
    5.7140   10.0370   -5.9330 C   0  0  0  0  0  0  0  0  0  0  0  0
    7.1710   10.5280   -3.9050 C   0  0  0  0  0  0  0  0  0  0  0  0
    0.2990   11.4400   -2.9070 C   0  0  1  0  0  0  0  0  0  0  0  0
   -1.0690   11.2720   -2.1930 C   0  0  0  0  0  0  0  0  0  0  0  0
   -1.1320   12.3580   -1.0880 C   0  0  0  0  0  0  0  0  0  0  0  0
    0.0380   13.3150   -1.4140 C   0  0  1  0  0  0  0  0  0  0  0  0
   -0.5090   14.2490   -2.5390 C   0  0  0  0  0  0  0  0  0  0  0  0
    0.6150   14.1340   -0.2140 C   0  0  2  0  0  0  0  0  0  0  0  0
   -0.3760   15.1060    0.4500 C   0  0  0  0  0  0  0  0  0  0  0  0
   -0.3930   16.4870   -0.1190 C   0  0  0  0  0  0  0  0  0  0  0  0
    0.5470   17.0120   -0.9260 C   0  0  0  0  0  0  0  0  0  0  0  0
    1.8210   16.2270   -1.2660 C   0  0  1  0  0  0  0  0  0  0  0  0
    3.0560   17.1520   -1.1100 C   0  0  0  0  0  0  0  0  0  0  0  0
    2.9300   18.4390   -1.9200 C   0  0  0  0  0  0  0  0  0  0  0  0
    1.6830   19.2200   -1.5130 C   0  0  2  0  0  0  0  0  0  0  0  0
    1.8490   19.6850   -0.1700 O   0  0  0  0  0  0  0  0  0  0  0  0
    0.3760   18.3860   -1.6200 C   0  0  0  0  0  0  0  0  0  0  0  0
    0.0360   18.1380   -3.1110 C   0  0  0  0  0  0  0  0  0  0  0  0
   -0.7850   19.2420   -1.0470 C   0  0  0  0  0  0  0  0  0  0  0  0
    2.0000   14.8380   -0.5160 C   0  0  1  0  0  0  0  0  0  0  0  0
    2.6950   15.0630    0.8620 C   0  0  0  0  0  0  0  0  0  0  0  0
    2.9670   13.9210   -1.3550 C   0  0  0  0  0  0  0  0  0  0  0  0
    2.3200   13.0460   -2.4470 C   0  0  0  0  0  0  0  0  0  0  0  0
    1.1170   12.2770   -1.8920 C   0  0  2  0  0  0  0  0  0  0  0  0
    1.6400   11.3130   -0.7730 C   0  0  0  0  0  0  0  0  0  0  0  0
    0.2620    9.0855   -1.5589 H   0  0  0  0  0  0  0  0  0  0  0  0
   -0.8800    8.9440   -2.9382 H   0  0  0  0  0  0  0  0  0  0  0  0
    0.6495    8.0020   -2.9382 H   0  0  0  0  0  0  0  0  0  0  0  0
    0.7390    9.9813   -4.4375 H   0  0  0  0  0  0  0  0  0  0  0  0
    2.6099   10.6108   -2.1468 H   0  0  0  0  0  0  0  0  0  0  0  0
    2.7289    9.0442   -3.0817 H   0  0  0  0  0  0  0  0  0  0  0  0
    3.2451   10.1453   -5.0891 H   0  0  0  0  0  0  0  0  0  0  0  0
    2.7523   11.7566   -4.4201 H   0  0  0  0  0  0  0  0  0  0  0  0
    4.3747   10.8471   -2.7126 H   0  0  0  0  0  0  0  0  0  0  0  0
    5.4890    8.9689   -5.7969 H   0  0  0  0  0  0  0  0  0  0  0  0
    4.8969   10.5154   -6.4929 H   0  0  0  0  0  0  0  0  0  0  0  0
    6.6546   10.1451   -6.4929 H   0  0  0  0  0  0  0  0  0  0  0  0
    7.0198   10.5468   -2.8156 H   0  0  0  0  0  0  0  0  0  0  0  0
    7.6202    9.5671   -4.1963 H   0  0  0  0  0  0  0  0  0  0  0  0
    7.8419   11.3496   -4.1963 H   0  0  0  0  0  0  0  0  0  0  0  0
    0.2560   11.9599   -3.8754 H   0  0  0  0  0  0  0  0  0  0  0  0
   -1.8908   11.4132   -2.9104 H   0  0  0  0  0  0  0  0  0  0  0  0
   -1.1696   10.2644   -1.7633 H   0  0  0  0  0  0  0  0  0  0  0  0
   -2.0925   12.8929   -1.1236 H   0  0  0  0  0  0  0  0  0  0  0  0
   -1.0517   11.9302   -0.0778 H   0  0  0  0  0  0  0  0  0  0  0  0
   -1.0152   15.1133   -2.0842 H   0  0  0  0  0  0  0  0  0  0  0  0
    0.3264   14.5998   -3.1628 H   0  0  0  0  0  0  0  0  0  0  0  0
   -1.2236   13.6920   -3.1628 H   0  0  0  0  0  0  0  0  0  0  0  0
    0.8107   13.3506    0.5330 H   0  0  0  0  0  0  0  0  0  0  0  0
   -1.3866   14.6837    0.3477 H   0  0  0  0  0  0  0  0  0  0  0  0
   -0.0461   15.2110    1.4941 H   0  0  0  0  0  0  0  0  0  0  0  0
   -1.2464   17.1293    0.1440 H   0  0  0  0  0  0  0  0  0  0  0  0
    1.7168   15.9179   -2.3165 H   0  0  0  0  0  0  0  0  0  0  0  0
    3.1684   17.4138   -0.0475 H   0  0  0  0  0  0  0  0  0  0  0  0
    3.9324   16.6048   -1.4874 H   0  0  0  0  0  0  0  0  0  0  0  0
    3.8187   19.0631   -1.7448 H   0  0  0  0  0  0  0  0  0  0  0  0
    2.8480   18.1768   -2.9851 H   0  0  0  0  0  0  0  0  0  0  0  0
    1.5762   20.0608   -2.2142 H   0  0  0  0  0  0  0  0  0  0  0  0
    1.9440   18.9040    0.4020 H   0  0  0  0  0  0  0  0  0  0  0  0
   -0.8508   17.4911   -3.1822 H   0  0  0  0  0  0  0  0  0  0  0  0
   -0.1706   19.0990   -3.6047 H   0  0  0  0  0  0  0  0  0  0  0  0
    0.8880   17.6478   -3.6047 H   0  0  0  0  0  0  0  0  0  0  0  0
   -0.7511   19.2170    0.0522 H   0  0  0  0  0  0  0  0  0  0  0  0
   -0.6804   20.2807   -1.3935 H   0  0  0  0  0  0  0  0  0  0  0  0
   -1.7464   18.8349   -1.3935 H   0  0  0  0  0  0  0  0  0  0  0  0
    1.9866   14.8337    1.6717 H   0  0  0  0  0  0  0  0  0  0  0  0
    3.5709   14.4025    0.9431 H   0  0  0  0  0  0  0  0  0  0  0  0
    3.0176   16.1115    0.9431 H   0  0  0  0  0  0  0  0  0  0  0  0
    3.7038   14.5745   -1.8450 H   0  0  0  0  0  0  0  0  0  0  0  0
    3.3916   13.2107   -0.6304 H   0  0  0  0  0  0  0  0  0  0  0  0
    1.9851   13.6905   -3.2731 H   0  0  0  0  0  0  0  0  0  0  0  0
    3.0662   12.3205   -2.8030 H   0  0  0  0  0  0  0  0  0  0  0  0
    1.4092   11.7384    0.2148 H   0  0  0  0  0  0  0  0  0  0  0  0
    1.1495   10.3336   -0.8741 H   0  0  0  0  0  0  0  0  0  0  0  0
    2.7284   11.1902   -0.8741 H   0  0  0  0  0  0  0  0  0  0  0  0
  1  2  1  0
  2  3  1  0
  3  4  1  0
  4  5  1  0
  5  6  1  0
  6  7  1  0
  7  8  1  0
  7  9  1  0
  2 10  1  0
 10 11  1  0
 11 12  1  0
 12 13  1  0
 13 14  1  6
 13 15  1  0
 15 16  1  0
 16 17  1  0
 17 18  2  0
 18 19  1  0
 19 20  1  0
 20 21  1  0
 21 22  1  0
 22 23  1  0
 22 24  1  0
 24 25  1  0
 24 26  1  0
 19 27  1  0
 27 28  1  1
 27 29  1  0
 29 30  1  0
 30 31  1  0
 31 32  1  1
  7  5  1  0
 31 10  1  0
 31 13  1  0
 27 15  1  0
 24 18  1  0
  1 33  1  0
  1 34  1  0
  1 35  1  0
  2 36  1  6
  3 37  1  0
  3 38  1  0
  4 39  1  0
  4 40  1  0
  5 41  1  1
  8 42  1  0
  8 43  1  0
  8 44  1  0
  9 45  1  0
  9 46  1  0
  9 47  1  0
 10 48  1  6
 11 49  1  0
 11 50  1  0
 12 51  1  0
 12 52  1  0
 14 53  1  0
 14 54  1  0
 14 55  1  0
 15 56  1  1
 16 57  1  0
 16 58  1  0
 17 59  1  0
 19 60  1  6
 20 61  1  0
 20 62  1  0
 21 63  1  0
 21 64  1  0
 22 65  1  6
 23 66  1  0
 25 67  1  0
 25 68  1  0
 25 69  1  0
 26 70  1  0
 26 71  1  0
 26 72  1  0
 28 73  1  0
 28 74  1  0
 28 75  1  0
 29 76  1  0
 29 77  1  0
 30 78  1  0
 30 79  1  0
 32 80  1  0
 32 81  1  0
 32 82  1  0
M  END
>  <meeko>  (12) 
{"is_sidechain": [false], "intermolecular_energy": 2.731, "internal_energy": -0.839}

$$$$
EPH_relaxed_0001_pdb2pqr_Repair_187_r2_0001_out
     RDKit          3D

 82 86  0  0  0  0  0  0  0  0999 V2000
   -2.2660    7.8570   -2.1390 C   0  0  0  0  0  0  0  0  0  0  0  0
   -2.2080    8.4730   -0.7390 C   0  0  2  0  0  0  0  0  0  0  0  0
   -3.5820    8.4530   -0.0380 C   0  0  0  0  0  0  0  0  0  0  0  0
   -4.7670    8.5130   -1.0060 C   0  0  0  0  0  0  0  0  0  0  0  0
   -5.5320    7.2240   -1.0260 C   0  0  2  0  0  0  0  0  0  0  0  0
   -5.6250    6.6020   -2.3140 O   0  0  0  0  0  0  0  0  0  0  0  0
   -6.8610    7.0520   -1.7370 C   0  0  0  0  0  0  0  0  0  0  0  0
   -7.5030    8.1830   -2.4770 C   0  0  0  0  0  0  0  0  0  0  0  0
   -7.7650    5.9380   -1.3050 C   0  0  0  0  0  0  0  0  0  0  0  0
   -1.6860    9.9020   -0.8200 C   0  0  1  0  0  0  0  0  0  0  0  0
   -1.2550   10.4610    0.5620 C   0  0  0  0  0  0  0  0  0  0  0  0
   -0.0350   11.3850    0.3110 C   0  0  0  0  0  0  0  0  0  0  0  0
   -0.0120   11.5900   -1.2220 C   0  0  1  0  0  0  0  0  0  0  0  0
   -1.0710   12.7040   -1.4940 C   0  0  0  0  0  0  0  0  0  0  0  0
    1.3750   11.9470   -1.8500 C   0  0  2  0  0  0  0  0  0  0  0  0
    1.9850   13.2760   -1.3710 C   0  0  0  0  0  0  0  0  0  0  0  0
    1.6240   14.4740   -2.1860 C   0  0  0  0  0  0  0  0  0  0  0  0
    1.0770   14.4480   -3.4160 C   0  0  0  0  0  0  0  0  0  0  0  0
    0.8580   13.1200   -4.1520 C   0  0  1  0  0  0  0  0  0  0  0  0
    1.3580   13.2500   -5.6150 C   0  0  0  0  0  0  0  0  0  0  0  0
    0.7290   14.4330   -6.3450 C   0  0  0  0  0  0  0  0  0  0  0  0
    1.0180   15.7410   -5.6140 C   0  0  2  0  0  0  0  0  0  0  0  0
    2.4220   16.0100   -5.6870 O   0  0  0  0  0  0  0  0  0  0  0  0
    0.5660   15.7250   -4.1270 C   0  0  0  0  0  0  0  0  0  0  0  0
   -0.9810   15.7360   -4.0530 C   0  0  0  0  0  0  0  0  0  0  0  0
    1.0420   17.0480   -3.4690 C   0  0  0  0  0  0  0  0  0  0  0  0
    1.4240   11.8230   -3.4270 C   0  0  1  0  0  0  0  0  0  0  0  0
    2.9200   11.6090   -3.8110 C   0  0  0  0  0  0  0  0  0  0  0  0
    0.6450   10.5600   -3.9520 C   0  0  0  0  0  0  0  0  0  0  0  0
   -0.6550   10.1890   -3.2140 C   0  0  0  0  0  0  0  0  0  0  0  0
   -0.4350   10.1540   -1.6990 C   0  0  2  0  0  0  0  0  0  0  0  0
    0.6100    9.0270   -1.3930 C   0  0  0  0  0  0  0  0  0  0  0  0
   -2.3688    6.7650   -2.0551 H   0  0  0  0  0  0  0  0  0  0  0  0
   -3.1296    8.2658   -2.6840 H   0  0  0  0  0  0  0  0  0  0  0  0
   -1.3412    8.0974   -2.6840 H   0  0  0  0  0  0  0  0  0  0  0  0
   -1.5209    7.8602   -0.1370 H   0  0  0  0  0  0  0  0  0  0  0  0
   -3.6592    7.5257    0.5487 H   0  0  0  0  0  0  0  0  0  0  0  0
   -3.6351    9.3533    0.5918 H   0  0  0  0  0  0  0  0  0  0  0  0
   -5.4420    9.3234   -0.6935 H   0  0  0  0  0  0  0  0  0  0  0  0
   -4.3748    8.6949   -2.0175 H   0  0  0  0  0  0  0  0  0  0  0  0
   -5.2064    6.9877   -0.0022 H   0  0  0  0  0  0  0  0  0  0  0  0
   -7.9135    8.9062   -1.7569 H   0  0  0  0  0  0  0  0  0  0  0  0
   -6.7526    8.6805   -3.1090 H   0  0  0  0  0  0  0  0  0  0  0  0
   -8.3148    7.7938   -3.1090 H   0  0  0  0  0  0  0  0  0  0  0  0
   -7.7978    5.8976   -0.2062 H   0  0  0  0  0  0  0  0  0  0  0  0
   -8.7779    6.1152   -1.6958 H   0  0  0  0  0  0  0  0  0  0  0  0
   -7.3830    4.9833   -1.6958 H   0  0  0  0  0  0  0  0  0  0  0  0
   -2.5640   10.3929   -1.2652 H   0  0  0  0  0  0  0  0  0  0  0  0
   -2.0785   11.0350    1.0119 H   0  0  0  0  0  0  0  0  0  0  0  0
   -0.9970    9.6461    1.2543 H   0  0  0  0  0  0  0  0  0  0  0  0
   -0.1625   12.3466    0.8298 H   0  0  0  0  0  0  0  0  0  0  0  0
    0.9026   10.9510    0.6887 H   0  0  0  0  0  0  0  0  0  0  0  0
   -1.4443   13.0967   -0.5367 H   0  0  0  0  0  0  0  0  0  0  0  0
   -0.6066   13.5190   -2.0685 H   0  0  0  0  0  0  0  0  0  0  0  0
   -1.9085   12.2814   -2.0685 H   0  0  0  0  0  0  0  0  0  0  0  0
    2.0266   11.1572   -1.4479 H   0  0  0  0  0  0  0  0  0  0  0  0
    1.6473   13.4526   -0.3391 H   0  0  0  0  0  0  0  0  0  0  0  0
    3.0750   13.1617   -1.4644 H   0  0  0  0  0  0  0  0  0  0  0  0
    1.8218   15.4617   -1.7439 H   0  0  0  0  0  0  0  0  0  0  0  0
   -0.2276   12.9431   -4.1425 H   0  0  0  0  0  0  0  0  0  0  0  0
    2.4499   13.3825   -5.6041 H   0  0  0  0  0  0  0  0  0  0  0  0
    1.0668   12.3341   -6.1501 H   0  0  0  0  0  0  0  0  0  0  0  0
    1.1435   14.4899   -7.3623 H   0  0  0  0  0  0  0  0  0  0  0  0
   -0.3603   14.2843   -6.3813 H   0  0  0  0  0  0  0  0  0  0  0  0
    0.4357   16.5313   -6.1103 H   0  0  0  0  0  0  0  0  0  0  0  0
    2.8740   15.3750   -5.1060 H   0  0  0  0  0  0  0  0  0  0  0  0
   -1.2977   15.7383   -2.9996 H   0  0  0  0  0  0  0  0  0  0  0  0
   -1.3656   16.6369   -4.5534 H   0  0  0  0  0  0  0  0  0  0  0  0
   -1.3784   14.8407   -4.5534 H   0  0  0  0  0  0  0  0  0  0  0  0
    1.0056   16.9469   -2.3743 H   0  0  0  0  0  0  0  0  0  0  0  0
    2.0740   17.2632   -3.7832 H   0  0  0  0  0  0  0  0  0  0  0  0
    0.3837   17.8714   -3.7832 H   0  0  0  0  0  0  0  0  0  0  0  0
    3.5246   11.5225   -2.8961 H   0  0  0  0  0  0  0  0  0  0  0  0
    3.0182   10.6877   -4.4039 H   0  0  0  0  0  0  0  0  0  0  0  0
    3.2726   12.4659   -4.4039 H   0  0  0  0  0  0  0  0  0  0  0  0
    0.3889   10.7416   -5.0062 H   0  0  0  0  0  0  0  0  0  0  0  0
    1.3244    9.7118   -3.7819 H   0  0  0  0  0  0  0  0  0  0  0  0
   -1.4274   10.9363   -3.4482 H   0  0  0  0  0  0  0  0  0  0  0  0
   -0.9730    9.1894   -3.5452 H   0  0  0  0  0  0  0  0  0  0  0  0
    0.7168    8.9118   -0.3043 H   0  0  0  0  0  0  0  0  0  0  0  0
    0.2648    8.0784   -1.8300 H   0  0  0  0  0  0  0  0  0  0  0  0
    1.5819    9.2997   -1.8300 H   0  0  0  0  0  0  0  0  0  0  0  0
  1  2  1  0
  2  3  1  0
  3  4  1  0
  4  5  1  0
  5  6  1  0
  6  7  1  0
  7  8  1  0
  7  9  1  0
  2 10  1  0
 10 11  1  0
 11 12  1  0
 12 13  1  0
 13 14  1  1
 13 15  1  0
 15 16  1  0
 16 17  1  0
 17 18  2  0
 18 19  1  0
 19 20  1  0
 20 21  1  0
 21 22  1  0
 22 23  1  0
 22 24  1  0
 24 25  1  0
 24 26  1  0
 19 27  1  0
 27 28  1  6
 27 29  1  0
 29 30  1  0
 30 31  1  0
 31 32  1  6
  7  5  1  0
 31 10  1  0
 31 13  1  0
 27 15  1  0
 24 18  1  0
  1 33  1  0
  1 34  1  0
  1 35  1  0
  2 36  1  1
  3 37  1  0
  3 38  1  0
  4 39  1  0
  4 40  1  0
  5 41  1  1
  8 42  1  0
  8 43  1  0
  8 44  1  0
  9 45  1  0
  9 46  1  0
  9 47  1  0
 10 48  1  6
 11 49  1  0
 11 50  1  0
 12 51  1  0
 12 52  1  0
 14 53  1  0
 14 54  1  0
 14 55  1  0
 15 56  1  1
 16 57  1  0
 16 58  1  0
 17 59  1  0
 19 60  1  6
 20 61  1  0
 20 62  1  0
 21 63  1  0
 21 64  1  0
 22 65  1  6
 23 66  1  0
 25 67  1  0
 25 68  1  0
 25 69  1  0
 26 70  1  0
 26 71  1  0
 26 72  1  0
 28 73  1  0
 28 74  1  0
 28 75  1  0
 29 76  1  0
 29 77  1  0
 30 78  1  0
 30 79  1  0
 32 80  1  0
 32 81  1  0
 32 82  1  0
M  END
>  <meeko>  (13) 
{"is_sidechain": [false], "intermolecular_energy": 2.731, "internal_energy": -0.839}

$$$$
EPH_relaxed_0001_pdb2pqr_Repair_187_r2_0001_out
     RDKit          3D

 82 86  0  0  0  0  0  0  0  0999 V2000
   -4.0030    7.0760   -3.3430 C   0  0  0  0  0  0  0  0  0  0  0  0
   -4.0600    7.2180   -1.8190 C   0  0  2  0  0  0  0  0  0  0  0  0
   -5.4960    7.0740   -1.2760 C   0  0  0  0  0  0  0  0  0  0  0  0
   -6.5710    7.6010   -2.2310 C   0  0  0  0  0  0  0  0  0  0  0  0
   -7.9160    7.6610   -1.5720 C   0  0  2  0  0  0  0  0  0  0  0  0
   -8.3960    6.4040   -1.0770 O   0  0  0  0  0  0  0  0  0  0  0  0
   -9.1560    6.9980   -2.1420 C   0  0  0  0  0  0  0  0  0  0  0  0
   -9.1110    6.2290   -3.4240 C   0  0  0  0  0  0  0  0  0  0  0  0
  -10.4980    7.5050   -1.7140 C   0  0  0  0  0  0  0  0  0  0  0  0
   -3.4770    8.5630   -1.4010 C   0  0  1  0  0  0  0  0  0  0  0  0
   -4.0410    9.0620   -0.0440 C   0  0  0  0  0  0  0  0  0  0  0  0
   -2.8870    9.8100    0.6720 C   0  0  0  0  0  0  0  0  0  0  0  0
   -1.8110   10.0050   -0.4210 C   0  0  1  0  0  0  0  0  0  0  0  0
   -2.2840   11.2520   -1.2320 C   0  0  0  0  0  0  0  0  0  0  0  0
   -0.3390   10.1670    0.0800 C   0  0  2  0  0  0  0  0  0  0  0  0
   -0.0810   11.4020    0.9610 C   0  0  0  0  0  0  0  0  0  0  0  0
    0.3300   12.6350    0.2260 C   0  0  0  0  0  0  0  0  0  0  0  0
    0.7620   12.6790   -1.0480 C   0  0  0  0  0  0  0  0  0  0  0  0
    0.9640   11.3900   -1.8560 C   0  0  1  0  0  0  0  0  0  0  0  0
    2.3320   11.4460   -2.5850 C   0  0  0  0  0  0  0  0  0  0  0  0
    2.4900   12.7010   -3.4380 C   0  0  0  0  0  0  0  0  0  0  0  0
    2.3400   13.9600   -2.5890 C   0  0  2  0  0  0  0  0  0  0  0  0
    3.4400   14.0350   -1.6770 O   0  0  0  0  0  0  0  0  0  0  0  0
    1.0020   14.0110   -1.7990 C   0  0  0  0  0  0  0  0  0  0  0  0
   -0.1740   14.2340   -2.7820 C   0  0  0  0  0  0  0  0  0  0  0  0
    1.0390   15.2590   -0.8770 C   0  0  0  0  0  0  0  0  0  0  0  0
    0.7520   10.0320   -1.0590 C   0  0  1  0  0  0  0  0  0  0  0  0
    2.0800    9.6140   -0.3570 C   0  0  0  0  0  0  0  0  0  0  0  0
    0.4100    8.8840   -2.0820 C   0  0  0  0  0  0  0  0  0  0  0  0
   -1.0750    8.6970   -2.4450 C   0  0  0  0  0  0  0  0  0  0  0  0
   -1.9450    8.6380   -1.1850 C   0  0  2  0  0  0  0  0  0  0  0  0
   -1.5060    7.3800   -0.3600 C   0  0  0  0  0  0  0  0  0  0  0  0
   -3.6050    6.0844   -3.6042 H   0  0  0  0  0  0  0  0  0  0  0  0
   -5.0151    7.1862   -3.7596 H   0  0  0  0  0  0  0  0  0  0  0  0
   -3.3481    7.8554   -3.7596 H   0  0  0  0  0  0  0  0  0  0  0  0
   -3.4609    6.4027   -1.3873 H   0  0  0  0  0  0  0  0  0  0  0  0
   -5.6909    6.0079   -1.0880 H   0  0  0  0  0  0  0  0  0  0  0  0
   -5.5554    7.6795   -0.3595 H   0  0  0  0  0  0  0  0  0  0  0  0
   -6.2902    8.6121   -2.5610 H   0  0  0  0  0  0  0  0  0  0  0  0
   -6.6382    6.9121   -3.0859 H   0  0  0  0  0  0  0  0  0  0  0  0
   -7.7235    8.6841   -1.2168 H   0  0  0  0  0  0  0  0  0  0  0  0
   -9.0480    5.1530   -3.2041 H   0  0  0  0  0  0  0  0  0  0  0  0
  -10.0225    6.4317   -4.0054 H   0  0  0  0  0  0  0  0  0  0  0  0
   -8.2293    6.5367   -4.0054 H   0  0  0  0  0  0  0  0  0  0  0  0
  -10.5493    7.5244   -0.6154 H   0  0  0  0  0  0  0  0  0  0  0  0
  -10.6480    8.5218   -2.1061 H   0  0  0  0  0  0  0  0  0  0  0  0
  -11.2828    6.8414   -2.1061 H   0  0  0  0  0  0  0  0  0  0  0  0
   -3.7640    9.1677   -2.2739 H   0  0  0  0  0  0  0  0  0  0  0  0
   -4.8871    9.7442   -0.2133 H   0  0  0  0  0  0  0  0  0  0  0  0
   -4.4052    8.2217    0.5654 H   0  0  0  0  0  0  0  0  0  0  0  0
   -3.2325   10.7818    1.0545 H   0  0  0  0  0  0  0  0  0  0  0  0
   -2.5039    9.2529    1.5397 H   0  0  0  0  0  0  0  0  0  0  0  0
   -2.5862   12.0487   -0.5364 H   0  0  0  0  0  0  0  0  0  0  0  0
   -1.4598   11.6116   -1.8656 H   0  0  0  0  0  0  0  0  0  0  0  0
   -3.1393   10.9745   -1.8656 H   0  0  0  0  0  0  0  0  0  0  0  0
   -0.2189    9.2972    0.7426 H   0  0  0  0  0  0  0  0  0  0  0  0
   -1.0069   11.6267    1.5108 H   0  0  0  0  0  0  0  0  0  0  0  0
    0.7656   11.1396    1.6125 H   0  0  0  0  0  0  0  0  0  0  0  0
    0.2751   13.5883    0.7720 H   0  0  0  0  0  0  0  0  0  0  0  0
    0.1486   11.3618   -2.5938 H   0  0  0  0  0  0  0  0  0  0  0  0
    3.1337   11.4283   -1.8320 H   0  0  0  0  0  0  0  0  0  0  0  0
    2.3879   10.5768   -3.2568 H   0  0  0  0  0  0  0  0  0  0  0  0
    3.4869   12.6971   -3.9030 H   0  0  0  0  0  0  0  0  0  0  0  0
    1.7057   12.7022   -4.2093 H   0  0  0  0  0  0  0  0  0  0  0  0
    2.3325   14.8205   -3.2742 H   0  0  0  0  0  0  0  0  0  0  0  0
    3.0830   14.2690   -0.8030 H   0  0  0  0  0  0  0  0  0  0  0  0
   -1.0991   14.4094   -2.2132 H   0  0  0  0  0  0  0  0  0  0  0  0
    0.0383   15.1079   -3.4154 H   0  0  0  0  0  0  0  0  0  0  0  0
   -0.2964   13.3431   -3.4154 H   0  0  0  0  0  0  0  0  0  0  0  0
    1.0295   14.9380    0.1751 H   0  0  0  0  0  0  0  0  0  0  0  0
    1.9546   15.8351   -1.0763 H   0  0  0  0  0  0  0  0  0  0  0  0
    0.1591   15.8883   -1.0763 H   0  0  0  0  0  0  0  0  0  0  0  0
    1.9469    9.6559    0.7341 H   0  0  0  0  0  0  0  0  0  0  0  0
    2.3453    8.5889   -0.6549 H   0  0  0  0  0  0  0  0  0  0  0  0
    2.8846   10.3023   -0.6549 H   0  0  0  0  0  0  0  0  0  0  0  0
    0.9563    9.0945   -3.0133 H   0  0  0  0  0  0  0  0  0  0  0  0
    0.7024    7.9517   -1.5767 H   0  0  0  0  0  0  0  0  0  0  0  0
   -1.4020    9.5420   -3.0687 H   0  0  0  0  0  0  0  0  0  0  0  0
   -1.1854    7.7490   -2.9919 H   0  0  0  0  0  0  0  0  0  0  0  0
   -1.5832    7.6011    0.7148 H   0  0  0  0  0  0  0  0  0  0  0  0
   -2.1613    6.5320   -0.6078 H   0  0  0  0  0  0  0  0  0  0  0  0
   -0.4653    7.1238   -0.6078 H   0  0  0  0  0  0  0  0  0  0  0  0
  1  2  1  0
  2  3  1  0
  3  4  1  0
  4  5  1  0
  5  6  1  0
  6  7  1  0
  7  8  1  0
  7  9  1  0
  2 10  1  0
 10 11  1  0
 11 12  1  0
 12 13  1  0
 13 14  1  6
 13 15  1  0
 15 16  1  0
 16 17  1  0
 17 18  2  0
 18 19  1  0
 19 20  1  0
 20 21  1  0
 21 22  1  0
 22 23  1  0
 22 24  1  0
 24 25  1  0
 24 26  1  0
 19 27  1  0
 27 28  1  1
 27 29  1  0
 29 30  1  0
 30 31  1  0
 31 32  1  1
  7  5  1  0
 31 10  1  0
 31 13  1  0
 27 15  1  0
 24 18  1  0
  1 33  1  0
  1 34  1  0
  1 35  1  0
  2 36  1  1
  3 37  1  0
  3 38  1  0
  4 39  1  0
  4 40  1  0
  5 41  1  1
  8 42  1  0
  8 43  1  0
  8 44  1  0
  9 45  1  0
  9 46  1  0
  9 47  1  0
 10 48  1  6
 11 49  1  0
 11 50  1  0
 12 51  1  0
 12 52  1  0
 14 53  1  0
 14 54  1  0
 14 55  1  0
 15 56  1  1
 16 57  1  0
 16 58  1  0
 17 59  1  0
 19 60  1  6
 20 61  1  0
 20 62  1  0
 21 63  1  0
 21 64  1  0
 22 65  1  6
 23 66  1  0
 25 67  1  0
 25 68  1  0
 25 69  1  0
 26 70  1  0
 26 71  1  0
 26 72  1  0
 28 73  1  0
 28 74  1  0
 28 75  1  0
 29 76  1  0
 29 77  1  0
 30 78  1  0
 30 79  1  0
 32 80  1  0
 32 81  1  0
 32 82  1  0
M  END
>  <meeko>  (14) 
{"is_sidechain": [false], "intermolecular_energy": 2.731, "internal_energy": -0.839}

$$$$
EPH_relaxed_0001_pdb2pqr_Repair_187_r2_0001_out
     RDKit          3D

 82 86  0  0  0  0  0  0  0  0999 V2000
   -0.9570   16.3840   -5.8490 C   0  0  0  0  0  0  0  0  0  0  0  0
    0.1480   15.7080   -6.6650 C   0  0  2  0  0  0  0  0  0  0  0  0
   -0.2340   15.5640   -8.1520 C   0  0  0  0  0  0  0  0  0  0  0  0
    0.4590   16.5780   -9.0660 C   0  0  0  0  0  0  0  0  0  0  0  0
    1.8530   16.1510   -9.4120 C   0  0  2  0  0  0  0  0  0  0  0  0
    2.3540   16.6840  -10.6450 O   0  0  0  0  0  0  0  0  0  0  0  0
    2.1860   15.2580  -10.5930 C   0  0  0  0  0  0  0  0  0  0  0  0
    1.1180   14.7380  -11.5030 C   0  0  0  0  0  0  0  0  0  0  0  0
    3.4760   14.4990  -10.5750 C   0  0  0  0  0  0  0  0  0  0  0  0
    0.4660   14.3390   -6.0750 C   0  0  1  0  0  0  0  0  0  0  0  0
    1.7150   13.6840   -6.7230 C   0  0  0  0  0  0  0  0  0  0  0  0
    2.4350   12.8890   -5.6040 C   0  0  0  0  0  0  0  0  0  0  0  0
    1.4140   12.8370   -4.4430 C   0  0  1  0  0  0  0  0  0  0  0  0
    0.4420   11.6750   -4.8160 C   0  0  0  0  0  0  0  0  0  0  0  0
    2.0080   12.6550   -3.0090 C   0  0  2  0  0  0  0  0  0  0  0  0
    2.7710   11.3390   -2.7800 C   0  0  0  0  0  0  0  0  0  0  0  0
    1.9450   10.2010   -2.2780 C   0  0  0  0  0  0  0  0  0  0  0  0
    0.7110   10.3050   -1.7510 C   0  0  0  0  0  0  0  0  0  0  0  0
    0.0620   11.6770   -1.5280 C   0  0  1  0  0  0  0  0  0  0  0  0
   -0.5610   11.7310   -0.1070 C   0  0  0  0  0  0  0  0  0  0  0  0
   -1.5270   10.5790    0.1520 C   0  0  0  0  0  0  0  0  0  0  0  0
   -0.8300    9.2320   -0.0230 C   0  0  2  0  0  0  0  0  0  0  0  0
    0.1520    9.0840    1.0080 O   0  0  0  0  0  0  0  0  0  0  0  0
   -0.1570    9.0670   -1.4140 C   0  0  0  0  0  0  0  0  0  0  0  0
   -1.2460    8.9250   -2.5060 C   0  0  0  0  0  0  0  0  0  0  0  0
    0.6290    7.7280   -1.4080 C   0  0  0  0  0  0  0  0  0  0  0  0
    0.9790   12.9370   -1.8400 C   0  0  1  0  0  0  0  0  0  0  0  0
    1.8230   13.3060   -0.5820 C   0  0  0  0  0  0  0  0  0  0  0  0
    0.0600   14.1800   -2.1390 C   0  0  0  0  0  0  0  0  0  0  0  0
   -0.3960   14.3720   -3.5980 C   0  0  0  0  0  0  0  0  0  0  0  0
    0.7910   14.2760   -4.5610 C   0  0  2  0  0  0  0  0  0  0  0  0
    1.7760   15.4470   -4.2240 C   0  0  0  0  0  0  0  0  0  0  0  0
   -0.7501   16.2574   -4.7761 H   0  0  0  0  0  0  0  0  0  0  0  0
   -0.9887   17.4563   -6.0923 H   0  0  0  0  0  0  0  0  0  0  0  0
   -1.9261   15.9240   -6.0923 H   0  0  0  0  0  0  0  0  0  0  0  0
    1.0385   16.3517   -6.6132 H   0  0  0  0  0  0  0  0  0  0  0  0
    0.0405   14.5521   -8.4847 H   0  0  0  0  0  0  0  0  0  0  0  0
   -1.3155   15.7510   -8.2258 H   0  0  0  0  0  0  0  0  0  0  0  0
   -0.1236   16.6781   -9.9936 H   0  0  0  0  0  0  0  0  0  0  0  0
    0.5173   17.5375   -8.5313 H   0  0  0  0  0  0  0  0  0  0  0  0
    2.1263   16.0993   -8.3477 H   0  0  0  0  0  0  0  0  0  0  0  0
    0.2893   14.3345  -10.9027 H   0  0  0  0  0  0  0  0  0  0  0  0
    0.7467   15.5561  -12.1376 H   0  0  0  0  0  0  0  0  0  0  0  0
    1.5330   13.9411  -12.1376 H   0  0  0  0  0  0  0  0  0  0  0  0
    3.7812   14.3194   -9.5336 H   0  0  0  0  0  0  0  0  0  0  0  0
    3.3419   13.5358  -11.0891 H   0  0  0  0  0  0  0  0  0  0  0  0
    4.2528   15.0840  -11.0891 H   0  0  0  0  0  0  0  0  0  0  0  0
   -0.4850   13.8250   -6.2784 H   0  0  0  0  0  0  0  0  0  0  0  0
    1.4095   13.0054   -7.5331 H   0  0  0  0  0  0  0  0  0  0  0  0
    2.3799   14.4455   -7.1566 H   0  0  0  0  0  0  0  0  0  0  0  0
    2.6843   11.8742   -5.9476 H   0  0  0  0  0  0  0  0  0  0  0  0
    3.3840   13.3575   -5.3041 H   0  0  0  0  0  0  0  0  0  0  0  0
    0.0545   11.2117   -3.8966 H   0  0  0  0  0  0  0  0  0  0  0  0
   -0.3958   12.0733   -5.4072 H   0  0  0  0  0  0  0  0  0  0  0  0
    0.9820   10.9207   -5.4072 H   0  0  0  0  0  0  0  0  0  0  0  0
    2.7661   13.4509   -2.9663 H   0  0  0  0  0  0  0  0  0  0  0  0
    3.2208   11.0361   -3.7371 H   0  0  0  0  0  0  0  0  0  0  0  0
    3.5097   11.5490   -1.9924 H   0  0  0  0  0  0  0  0  0  0  0  0
    2.3815    9.1935   -2.3444 H   0  0  0  0  0  0  0  0  0  0  0  0
   -0.7298   11.7653   -2.2865 H   0  0  0  0  0  0  0  0  0  0  0  0
    0.2494   11.6854    0.6354 H   0  0  0  0  0  0  0  0  0  0  0  0
   -1.1304   12.6688   -0.0273 H   0  0  0  0  0  0  0  0  0  0  0  0
   -1.9103   10.6550    1.1802 H   0  0  0  0  0  0  0  0  0  0  0  0
   -2.3524   10.6437   -0.5722 H   0  0  0  0  0  0  0  0  0  0  0  0
   -1.6003    8.4499    0.0470 H   0  0  0  0  0  0  0  0  0  0  0  0
    0.0010    9.7890    1.6610 H   0  0  0  0  0  0  0  0  0  0  0  0
   -2.2289    8.7968   -2.0291 H   0  0  0  0  0  0  0  0  0  0  0  0
   -1.2574    9.8293   -3.1322 H   0  0  0  0  0  0  0  0  0  0  0  0
   -1.0251    8.0481   -3.1322 H   0  0  0  0  0  0  0  0  0  0  0  0
    0.8126    7.4152   -0.3695 H   0  0  0  0  0  0  0  0  0  0  0  0
    0.0411    6.9554   -1.9251 H   0  0  0  0  0  0  0  0  0  0  0  0
    1.5902    7.8647   -1.9251 H   0  0  0  0  0  0  0  0  0  0  0  0
    1.2548   13.0576    0.3265 H   0  0  0  0  0  0  0  0  0  0  0  0
    2.7646   12.7374   -0.5925 H   0  0  0  0  0  0  0  0  0  0  0  0
    2.0450   14.3833   -0.5925 H   0  0  0  0  0  0  0  0  0  0  0  0
   -0.8429   14.0833   -1.5182 H   0  0  0  0  0  0  0  0  0  0  0  0
    0.6823   15.0587   -1.9140 H   0  0  0  0  0  0  0  0  0  0  0  0
   -1.1289   13.5919   -3.8515 H   0  0  0  0  0  0  0  0  0  0  0  0
   -0.8468   15.3706   -3.6958 H   0  0  0  0  0  0  0  0  0  0  0  0
    1.8629   15.5503   -3.1323 H   0  0  0  0  0  0  0  0  0  0  0  0
    2.7656   15.2282   -4.6515 H   0  0  0  0  0  0  0  0  0  0  0  0
    1.3910   16.3845   -4.6515 H   0  0  0  0  0  0  0  0  0  0  0  0
  1  2  1  0
  2  3  1  0
  3  4  1  0
  4  5  1  0
  5  6  1  0
  6  7  1  0
  7  8  1  0
  7  9  1  0
  2 10  1  0
 10 11  1  0
 11 12  1  0
 12 13  1  0
 13 14  1  6
 13 15  1  0
 15 16  1  0
 16 17  1  0
 17 18  2  0
 18 19  1  0
 19 20  1  0
 20 21  1  0
 21 22  1  0
 22 23  1  0
 22 24  1  0
 24 25  1  0
 24 26  1  0
 19 27  1  0
 27 28  1  1
 27 29  1  0
 29 30  1  0
 30 31  1  0
 31 32  1  1
  7  5  1  0
 31 10  1  0
 31 13  1  0
 27 15  1  0
 24 18  1  0
  1 33  1  0
  1 34  1  0
  1 35  1  0
  2 36  1  6
  3 37  1  0
  3 38  1  0
  4 39  1  0
  4 40  1  0
  5 41  1  1
  8 42  1  0
  8 43  1  0
  8 44  1  0
  9 45  1  0
  9 46  1  0
  9 47  1  0
 10 48  1  1
 11 49  1  0
 11 50  1  0
 12 51  1  0
 12 52  1  0
 14 53  1  0
 14 54  1  0
 14 55  1  0
 15 56  1  1
 16 57  1  0
 16 58  1  0
 17 59  1  0
 19 60  1  6
 20 61  1  0
 20 62  1  0
 21 63  1  0
 21 64  1  0
 22 65  1  1
 23 66  1  0
 25 67  1  0
 25 68  1  0
 25 69  1  0
 26 70  1  0
 26 71  1  0
 26 72  1  0
 28 73  1  0
 28 74  1  0
 28 75  1  0
 29 76  1  0
 29 77  1  0
 30 78  1  0
 30 79  1  0
 32 80  1  0
 32 81  1  0
 32 82  1  0
M  END
>  <meeko>  (15) 
{"is_sidechain": [false], "intermolecular_energy": 2.731, "internal_energy": -0.839}

$$$$
EPH_relaxed_0001_pdb2pqr_Repair_187_r2_0001_out
     RDKit          3D

 82 86  0  0  0  0  0  0  0  0999 V2000
    2.9890   18.2370   -3.4150 C   0  0  0  0  0  0  0  0  0  0  0  0
    2.0560   17.9970   -2.2250 C   0  0  2  0  0  0  0  0  0  0  0  0
    2.2460   19.0520   -1.1160 C   0  0  0  0  0  0  0  0  0  0  0  0
    3.3810   18.7250   -0.1430 C   0  0  0  0  0  0  0  0  0  0  0  0
    3.3010   19.5560    1.1020 C   0  0  2  0  0  0  0  0  0  0  0  0
    4.5290   20.1940    1.4760 O   0  0  0  0  0  0  0  0  0  0  0  0
    4.0240   19.2070    2.3890 C   0  0  0  0  0  0  0  0  0  0  0  0
    4.8800   17.9840    2.4960 C   0  0  0  0  0  0  0  0  0  0  0  0
    3.5140   19.7800    3.6750 C   0  0  0  0  0  0  0  0  0  0  0  0
    2.2840   16.6000   -1.6590 C   0  0  1  0  0  0  0  0  0  0  0  0
    2.9010   16.6260   -0.2350 C   0  0  0  0  0  0  0  0  0  0  0  0
    2.2980   15.4240    0.5360 C   0  0  0  0  0  0  0  0  0  0  0  0
    1.6200   14.5620   -0.5550 C   0  0  1  0  0  0  0  0  0  0  0  0
    2.7810   13.7340   -1.1900 C   0  0  0  0  0  0  0  0  0  0  0  0
    0.4480   13.6420   -0.0800 C   0  0  2  0  0  0  0  0  0  0  0  0
    0.8410   12.5590    0.9410 C   0  0  0  0  0  0  0  0  0  0  0  0
    1.2560   11.2510    0.3540 C   0  0  0  0  0  0  0  0  0  0  0  0
    1.0430   10.8610   -0.9170 C   0  0  0  0  0  0  0  0  0  0  0  0
    0.2350   11.7350   -1.8840 C   0  0  1  0  0  0  0  0  0  0  0  0
   -0.7960   10.8540   -2.6390 C   0  0  0  0  0  0  0  0  0  0  0  0
   -0.1480    9.6610   -3.3340 C   0  0  0  0  0  0  0  0  0  0  0  0
    0.5980    8.7840   -2.3310 C   0  0  2  0  0  0  0  0  0  0  0  0
   -0.3540    8.1820   -1.4480 O   0  0  0  0  0  0  0  0  0  0  0  0
    1.6570    9.5650   -1.5030 C   0  0  0  0  0  0  0  0  0  0  0  0
    2.8430    9.9600   -2.4170 C   0  0  0  0  0  0  0  0  0  0  0  0
    2.2340    8.5990   -0.4340 C   0  0  0  0  0  0  0  0  0  0  0  0
   -0.4210   13.0390   -1.2570 C   0  0  1  0  0  0  0  0  0  0  0  0
   -1.8150   12.6950   -0.6490 C   0  0  0  0  0  0  0  0  0  0  0  0
   -0.6820   14.0860   -2.4040 C   0  0  0  0  0  0  0  0  0  0  0  0
    0.4740   15.0450   -2.7450 C   0  0  0  0  0  0  0  0  0  0  0  0
    1.0410   15.6940   -1.4790 C   0  0  2  0  0  0  0  0  0  0  0  0
   -0.0980   16.5510   -0.8290 C   0  0  0  0  0  0  0  0  0  0  0  0
    3.9931   18.4953   -3.0474 H   0  0  0  0  0  0  0  0  0  0  0  0
    3.0459   17.3242   -4.0263 H   0  0  0  0  0  0  0  0  0  0  0  0
    2.5984   19.0639   -4.0263 H   0  0  0  0  0  0  0  0  0  0  0  0
    1.0227   18.0856   -2.5917 H   0  0  0  0  0  0  0  0  0  0  0  0
    2.4641   20.0198   -1.5912 H   0  0  0  0  0  0  0  0  0  0  0  0
    1.3158   19.0724   -0.5293 H   0  0  0  0  0  0  0  0  0  0  0  0
    3.3185   17.6621    0.1333 H   0  0  0  0  0  0  0  0  0  0  0  0
    4.3355   18.9471   -0.6426 H   0  0  0  0  0  0  0  0  0  0  0  0
    2.2523   19.8127    0.8912 H   0  0  0  0  0  0  0  0  0  0  0  0
    5.0472   17.7451    3.5567 H   0  0  0  0  0  0  0  0  0  0  0  0
    4.3752   17.1390    2.0050 H   0  0  0  0  0  0  0  0  0  0  0  0
    5.8468   18.1690    2.0050 H   0  0  0  0  0  0  0  0  0  0  0  0
    3.9813   19.2550    4.5212 H   0  0  0  0  0  0  0  0  0  0  0  0
    3.7639   20.8501    3.7243 H   0  0  0  0  0  0  0  0  0  0  0  0
    2.4221   19.6558    3.7243 H   0  0  0  0  0  0  0  0  0  0  0  0
    2.9390   16.1889   -2.4412 H   0  0  0  0  0  0  0  0  0  0  0  0
    3.9950   16.5275   -0.2944 H   0  0  0  0  0  0  0  0  0  0  0  0
    2.6772   17.5746    0.2750 H   0  0  0  0  0  0  0  0  0  0  0  0
    3.0883   14.8538    1.0461 H   0  0  0  0  0  0  0  0  0  0  0  0
    1.5909   15.7412    1.3167 H   0  0  0  0  0  0  0  0  0  0  0  0
    3.3972   13.2946   -0.3917 H   0  0  0  0  0  0  0  0  0  0  0  0
    2.3605   12.9308   -1.8129 H   0  0  0  0  0  0  0  0  0  0  0  0
    3.4035   14.3932   -1.8129 H   0  0  0  0  0  0  0  0  0  0  0  0
   -0.1981   14.3459    0.4650 H   0  0  0  0  0  0  0  0  0  0  0  0
    1.6795   12.9444    1.5397 H   0  0  0  0  0  0  0  0  0  0  0  0
   -0.0641   12.3544    1.5316 H   0  0  0  0  0  0  0  0  0  0  0  0
    1.7803   10.5459    1.0158 H   0  0  0  0  0  0  0  0  0  0  0  0
    0.9619   12.1534   -2.5957 H   0  0  0  0  0  0  0  0  0  0  0  0
   -1.5373   10.4814   -1.9168 H   0  0  0  0  0  0  0  0  0  0  0  0
   -1.2643   11.4782   -3.4143 H   0  0  0  0  0  0  0  0  0  0  0  0
   -0.9295    9.0621   -3.8245 H   0  0  0  0  0  0  0  0  0  0  0  0
    0.5721   10.0358   -4.0763 H   0  0  0  0  0  0  0  0  0  0  0  0
    1.1470    8.0218   -2.9034 H   0  0  0  0  0  0  0  0  0  0  0  0
   -0.9690    7.6600   -1.9900 H   0  0  0  0  0  0  0  0  0  0  0  0
    3.7046   10.2470   -1.7962 H   0  0  0  0  0  0  0  0  0  0  0  0
    3.1172    9.1047   -3.0520 H   0  0  0  0  0  0  0  0  0  0  0  0
    2.5496   10.8089   -3.0520 H   0  0  0  0  0  0  0  0  0  0  0  0
    2.0040    8.9840    0.5704 H   0  0  0  0  0  0  0  0  0  0  0  0
    1.7824    7.6036   -0.5574 H   0  0  0  0  0  0  0  0  0  0  0  0
    3.3245    8.5247   -0.5574 H   0  0  0  0  0  0  0  0  0  0  0  0
   -1.7502   12.7110    0.4490 H   0  0  0  0  0  0  0  0  0  0  0  0
   -2.5543   13.4376   -0.9835 H   0  0  0  0  0  0  0  0  0  0  0  0
   -2.1239   11.6937   -0.9835 H   0  0  0  0  0  0  0  0  0  0  0  0
   -0.9290   13.5246   -3.3171 H   0  0  0  0  0  0  0  0  0  0  0  0
   -1.4893   14.7309   -2.0268 H   0  0  0  0  0  0  0  0  0  0  0  0
    1.2728   14.4807   -3.2485 H   0  0  0  0  0  0  0  0  0  0  0  0
    0.0887   15.8381   -3.4027 H   0  0  0  0  0  0  0  0  0  0  0  0
   -0.0207   16.4929    0.2667 H   0  0  0  0  0  0  0  0  0  0  0  0
    0.0035   17.5986   -1.1487 H   0  0  0  0  0  0  0  0  0  0  0  0
   -1.0765   16.1633   -1.1487 H   0  0  0  0  0  0  0  0  0  0  0  0
  1  2  1  0
  2  3  1  0
  3  4  1  0
  4  5  1  0
  5  6  1  0
  6  7  1  0
  7  8  1  0
  7  9  1  0
  2 10  1  0
 10 11  1  0
 11 12  1  0
 12 13  1  0
 13 14  1  6
 13 15  1  0
 15 16  1  0
 16 17  1  0
 17 18  2  0
 18 19  1  0
 19 20  1  0
 20 21  1  0
 21 22  1  0
 22 23  1  0
 22 24  1  0
 24 25  1  0
 24 26  1  0
 19 27  1  0
 27 28  1  1
 27 29  1  0
 29 30  1  0
 30 31  1  0
 31 32  1  1
  7  5  1  0
 31 10  1  0
 31 13  1  0
 27 15  1  0
 24 18  1  0
  1 33  1  0
  1 34  1  0
  1 35  1  0
  2 36  1  6
  3 37  1  0
  3 38  1  0
  4 39  1  0
  4 40  1  0
  5 41  1  1
  8 42  1  0
  8 43  1  0
  8 44  1  0
  9 45  1  0
  9 46  1  0
  9 47  1  0
 10 48  1  6
 11 49  1  0
 11 50  1  0
 12 51  1  0
 12 52  1  0
 14 53  1  0
 14 54  1  0
 14 55  1  0
 15 56  1  1
 16 57  1  0
 16 58  1  0
 17 59  1  0
 19 60  1  6
 20 61  1  0
 20 62  1  0
 21 63  1  0
 21 64  1  0
 22 65  1  6
 23 66  1  0
 25 67  1  0
 25 68  1  0
 25 69  1  0
 26 70  1  0
 26 71  1  0
 26 72  1  0
 28 73  1  0
 28 74  1  0
 28 75  1  0
 29 76  1  0
 29 77  1  0
 30 78  1  0
 30 79  1  0
 32 80  1  0
 32 81  1  0
 32 82  1  0
M  END
>  <meeko>  (16) 
{"is_sidechain": [false], "intermolecular_energy": 2.731, "internal_energy": -0.839}

$$$$
EPH_relaxed_0001_pdb2pqr_Repair_187_r2_0001_out
     RDKit          3D

 82 86  0  0  0  0  0  0  0  0999 V2000
    0.9460   14.9270   -2.6550 C   0  0  0  0  0  0  0  0  0  0  0  0
    1.1900   14.2510   -4.0070 C   0  0  2  0  0  0  0  0  0  0  0  0
    0.4690   14.9810   -5.1590 C   0  0  0  0  0  0  0  0  0  0  0  0
    0.9950   14.6090   -6.5480 C   0  0  0  0  0  0  0  0  0  0  0  0
    0.7840   15.7160   -7.5350 C   0  0  2  0  0  0  0  0  0  0  0  0
    0.4180   15.2820   -8.8520 O   0  0  0  0  0  0  0  0  0  0  0  0
    1.6840   15.9520   -8.7340 C   0  0  0  0  0  0  0  0  0  0  0  0
    2.8650   15.0740   -9.0070 C   0  0  0  0  0  0  0  0  0  0  0  0
    1.7060   17.3130   -9.3550 C   0  0  0  0  0  0  0  0  0  0  0  0
    0.7400   12.7960   -3.9500 C   0  0  1  0  0  0  0  0  0  0  0  0
    1.8680   11.8060   -4.3470 C   0  0  0  0  0  0  0  0  0  0  0  0
    1.6790   10.5400   -3.4730 C   0  0  0  0  0  0  0  0  0  0  0  0
    0.2730   10.7020   -2.8490 C   0  0  1  0  0  0  0  0  0  0  0  0
   -0.7160   10.2350   -3.9620 C   0  0  0  0  0  0  0  0  0  0  0  0
    0.0240    9.9490   -1.5020 C   0  0  2  0  0  0  0  0  0  0  0  0
    0.1280    8.4160   -1.5830 C   0  0  0  0  0  0  0  0  0  0  0  0
   -1.1490    7.7050   -1.8910 C   0  0  0  0  0  0  0  0  0  0  0  0
   -2.3810    8.2420   -1.8160 C   0  0  0  0  0  0  0  0  0  0  0  0
   -2.5870    9.6690   -1.2900 C   0  0  1  0  0  0  0  0  0  0  0  0
   -3.7550    9.6800   -0.2690 C   0  0  0  0  0  0  0  0  0  0  0  0
   -5.0350    9.0770   -0.8380 C   0  0  0  0  0  0  0  0  0  0  0  0
   -4.8040    7.6390   -1.2960 C   0  0  2  0  0  0  0  0  0  0  0  0
   -4.5320    6.8280   -0.1490 O   0  0  0  0  0  0  0  0  0  0  0  0
   -3.6430    7.5010   -2.3200 C   0  0  0  0  0  0  0  0  0  0  0  0
   -4.0660    8.1270   -3.6730 C   0  0  0  0  0  0  0  0  0  0  0  0
   -3.4230    5.9890   -2.5910 C   0  0  0  0  0  0  0  0  0  0  0  0
   -1.2880   10.4000   -0.7400 C   0  0  1  0  0  0  0  0  0  0  0  0
   -1.0740   10.0450    0.7630 C   0  0  0  0  0  0  0  0  0  0  0  0
   -1.5100   11.9570   -0.8020 C   0  0  0  0  0  0  0  0  0  0  0  0
   -1.1320   12.6620   -2.1190 C   0  0  0  0  0  0  0  0  0  0  0  0
    0.2700   12.2510   -2.5780 C   0  0  2  0  0  0  0  0  0  0  0  0
    1.2890   12.7280   -1.4880 C   0  0  0  0  0  0  0  0  0  0  0  0
    1.1985   14.2275   -1.8444 H   0  0  0  0  0  0  0  0  0  0  0  0
    1.5769   15.8245   -2.5746 H   0  0  0  0  0  0  0  0  0  0  0  0
   -0.1127   15.2146   -2.5746 H   0  0  0  0  0  0  0  0  0  0  0  0
    2.2700   14.2978   -4.2104 H   0  0  0  0  0  0  0  0  0  0  0  0
   -0.6009   14.7294   -5.1139 H   0  0  0  0  0  0  0  0  0  0  0  0
    0.6531   16.0569   -5.0230 H   0  0  0  0  0  0  0  0  0  0  0  0
    2.0718   14.3959   -6.4761 H   0  0  0  0  0  0  0  0  0  0  0  0
    0.4410   13.7260   -6.8994 H   0  0  0  0  0  0  0  0  0  0  0  0
    0.4220   16.3861   -6.7413 H   0  0  0  0  0  0  0  0  0  0  0  0
    3.3061   14.7461   -8.0542 H   0  0  0  0  0  0  0  0  0  0  0  0
    2.5426   14.1946   -9.5837 H   0  0  0  0  0  0  0  0  0  0  0  0
    3.6143   15.6361   -9.5837 H   0  0  0  0  0  0  0  0  0  0  0  0
    1.7183   18.0769   -8.5637 H   0  0  0  0  0  0  0  0  0  0  0  0
    2.6059   17.4168   -9.9790 H   0  0  0  0  0  0  0  0  0  0  0  0
    0.8099   17.4459   -9.9790 H   0  0  0  0  0  0  0  0  0  0  0  0
   -0.1081   12.8371   -4.6493 H   0  0  0  0  0  0  0  0  0  0  0  0
    1.7864   11.5463   -5.4128 H   0  0  0  0  0  0  0  0  0  0  0  0
    2.8604   12.2526   -4.1864 H   0  0  0  0  0  0  0  0  0  0  0  0
    1.7272    9.6311   -4.0907 H   0  0  0  0  0  0  0  0  0  0  0  0
    2.4647   10.4393   -2.7098 H   0  0  0  0  0  0  0  0  0  0  0  0
   -1.6173    9.8094   -3.4966 H   0  0  0  0  0  0  0  0  0  0  0  0
   -0.9974   11.0953   -4.5870 H   0  0  0  0  0  0  0  0  0  0  0  0
   -0.2305    9.4710   -4.5870 H   0  0  0  0  0  0  0  0  0  0  0  0
    0.8770   10.2744   -0.8885 H   0  0  0  0  0  0  0  0  0  0  0  0
    0.8546    8.1658   -2.3700 H   0  0  0  0  0  0  0  0  0  0  0  0
    0.4301    8.0782   -0.5807 H   0  0  0  0  0  0  0  0  0  0  0  0
   -1.0765    6.6535   -2.2058 H   0  0  0  0  0  0  0  0  0  0  0  0
   -2.8502   10.2810   -2.1653 H   0  0  0  0  0  0  0  0  0  0  0  0
   -3.4551    9.0998    0.6161 H   0  0  0  0  0  0  0  0  0  0  0  0
   -3.9651   10.7291   -0.0134 H   0  0  0  0  0  0  0  0  0  0  0  0
   -5.8138    9.0867   -0.0612 H   0  0  0  0  0  0  0  0  0  0  0  0
   -5.3496    9.6756   -1.7056 H   0  0  0  0  0  0  0  0  0  0  0  0
   -5.7174    7.3062   -1.8107 H   0  0  0  0  0  0  0  0  0  0  0  0
   -4.4200    7.4230    0.6120 H   0  0  0  0  0  0  0  0  0  0  0  0
   -4.6731    9.0254   -3.4875 H   0  0  0  0  0  0  0  0  0  0  0  0
   -3.1684    8.4028   -4.2460 H   0  0  0  0  0  0  0  0  0  0  0  0
   -4.6568    7.3971   -4.2460 H   0  0  0  0  0  0  0  0  0  0  0  0
   -3.3449    5.4525   -1.6339 H   0  0  0  0  0  0  0  0  0  0  0  0
   -4.2728    5.5920   -3.1656 H   0  0  0  0  0  0  0  0  0  0  0  0
   -2.4953    5.8507   -3.1656 H   0  0  0  0  0  0  0  0  0  0  0  0
   -1.5398   10.8177    1.3922 H   0  0  0  0  0  0  0  0  0  0  0  0
   -1.5348    9.0697    0.9786 H   0  0  0  0  0  0  0  0  0  0  0  0
    0.0036    9.9971    0.9786 H   0  0  0  0  0  0  0  0  0  0  0  0
   -2.5773   12.1484   -0.6168 H   0  0  0  0  0  0  0  0  0  0  0  0
   -0.8282   12.3747   -0.0466 H   0  0  0  0  0  0  0  0  0  0  0  0
   -1.8602   12.3869   -2.8963 H   0  0  0  0  0  0  0  0  0  0  0  0
   -1.1412   13.7489   -1.9501 H   0  0  0  0  0  0  0  0  0  0  0  0
    0.8740   12.5337   -0.4880 H   0  0  0  0  0  0  0  0  0  0  0  0
    2.2351   12.1792   -1.6053 H   0  0  0  0  0  0  0  0  0  0  0  0
    1.4735   13.8061   -1.6053 H   0  0  0  0  0  0  0  0  0  0  0  0
  1  2  1  0
  2  3  1  0
  3  4  1  0
  4  5  1  0
  5  6  1  0
  6  7  1  0
  7  8  1  0
  7  9  1  0
  2 10  1  0
 10 11  1  0
 11 12  1  0
 12 13  1  0
 13 14  1  6
 13 15  1  0
 15 16  1  0
 16 17  1  0
 17 18  2  0
 18 19  1  0
 19 20  1  0
 20 21  1  0
 21 22  1  0
 22 23  1  0
 22 24  1  0
 24 25  1  0
 24 26  1  0
 19 27  1  0
 27 28  1  1
 27 29  1  0
 29 30  1  0
 30 31  1  0
 31 32  1  1
  7  5  1  0
 31 10  1  0
 31 13  1  0
 27 15  1  0
 24 18  1  0
  1 33  1  0
  1 34  1  0
  1 35  1  0
  2 36  1  6
  3 37  1  0
  3 38  1  0
  4 39  1  0
  4 40  1  0
  5 41  1  1
  8 42  1  0
  8 43  1  0
  8 44  1  0
  9 45  1  0
  9 46  1  0
  9 47  1  0
 10 48  1  6
 11 49  1  0
 11 50  1  0
 12 51  1  0
 12 52  1  0
 14 53  1  0
 14 54  1  0
 14 55  1  0
 15 56  1  1
 16 57  1  0
 16 58  1  0
 17 59  1  0
 19 60  1  6
 20 61  1  0
 20 62  1  0
 21 63  1  0
 21 64  1  0
 22 65  1  6
 23 66  1  0
 25 67  1  0
 25 68  1  0
 25 69  1  0
 26 70  1  0
 26 71  1  0
 26 72  1  0
 28 73  1  0
 28 74  1  0
 28 75  1  0
 29 76  1  0
 29 77  1  0
 30 78  1  0
 30 79  1  0
 32 80  1  0
 32 81  1  0
 32 82  1  0
M  END
>  <meeko>  (17) 
{"is_sidechain": [false], "intermolecular_energy": 2.731, "internal_energy": -0.839}

$$$$
EPH_relaxed_0001_pdb2pqr_Repair_187_r2_0001_out
     RDKit          3D

 82 86  0  0  0  0  0  0  0  0999 V2000
    0.1260    9.9180   -4.5560 C   0  0  0  0  0  0  0  0  0  0  0  0
    1.1890   10.6770   -3.7560 C   0  0  2  0  0  0  0  0  0  0  0  0
    1.7110    9.8570   -2.5590 C   0  0  0  0  0  0  0  0  0  0  0  0
    0.7600    8.7430   -2.1150 C   0  0  0  0  0  0  0  0  0  0  0  0
   -0.0780    9.1630   -0.9450 C   0  0  2  0  0  0  0  0  0  0  0  0
   -0.6330    8.0810   -0.1870 O   0  0  0  0  0  0  0  0  0  0  0  0
   -1.5750    8.9300   -0.8620 C   0  0  0  0  0  0  0  0  0  0  0  0
   -2.3220    8.2520   -1.9680 C   0  0  0  0  0  0  0  0  0  0  0  0
   -2.3830    9.7880    0.0610 C   0  0  0  0  0  0  0  0  0  0  0  0
    0.6220   12.0060   -3.2700 C   0  0  1  0  0  0  0  0  0  0  0  0
   -0.8450   11.8860   -2.7780 C   0  0  0  0  0  0  0  0  0  0  0  0
   -1.0020   12.8740   -1.5940 C   0  0  0  0  0  0  0  0  0  0  0  0
    0.2630   13.7610   -1.6550 C   0  0  1  0  0  0  0  0  0  0  0  0
   -0.0480   14.8280   -2.7510 C   0  0  0  0  0  0  0  0  0  0  0  0
    0.7070   14.4250   -0.3110 C   0  0  2  0  0  0  0  0  0  0  0  0
   -0.3070   15.4120    0.2950 C   0  0  0  0  0  0  0  0  0  0  0  0
   -0.1490   16.8330   -0.1350 C   0  0  0  0  0  0  0  0  0  0  0  0
    0.9330   17.3500   -0.7440 C   0  0  0  0  0  0  0  0  0  0  0  0
    2.1900   16.5000   -0.9730 C   0  0  1  0  0  0  0  0  0  0  0  0
    3.4450   17.3080   -0.5540 C   0  0  0  0  0  0  0  0  0  0  0  0
    3.5250   18.6660   -1.2450 C   0  0  0  0  0  0  0  0  0  0  0  0
    2.2850   19.5040   -0.9470 C   0  0  2  0  0  0  0  0  0  0  0  0
    2.2780   19.8370    0.4450 O   0  0  0  0  0  0  0  0  0  0  0  0
    0.9570   18.7880   -1.3190 C   0  0  0  0  0  0  0  0  0  0  0  0
    0.8290   18.6970   -2.8600 C   0  0  0  0  0  0  0  0  0  0  0  0
   -0.2180   19.6800   -0.8380 C   0  0  0  0  0  0  0  0  0  0  0  0
    2.1640   15.0410   -0.3430 C   0  0  1  0  0  0  0  0  0  0  0  0
    2.6580   15.0920    1.1350 C   0  0  0  0  0  0  0  0  0  0  0  0
    3.1830   14.1270   -1.1200 C   0  0  0  0  0  0  0  0  0  0  0  0
    2.6520   13.4030   -2.3720 C   0  0  0  0  0  0  0  0  0  0  0  0
    1.3320   12.6860   -2.0720 C   0  0  2  0  0  0  0  0  0  0  0  0
    1.6180   11.5910   -0.9890 C   0  0  0  0  0  0  0  0  0  0  0  0
   -0.5693    9.4215   -3.8631 H   0  0  0  0  0  0  0  0  0  0  0  0
   -0.4300   10.6246   -5.1897 H   0  0  0  0  0  0  0  0  0  0  0  0
    0.6139    9.1627   -5.1897 H   0  0  0  0  0  0  0  0  0  0  0  0
    2.0413   10.8592   -4.4271 H   0  0  0  0  0  0  0  0  0  0  0  0
    2.6713    9.4014   -2.8425 H   0  0  0  0  0  0  0  0  0  0  0  0
    1.8100   10.5518   -1.7120 H   0  0  0  0  0  0  0  0  0  0  0  0
    0.0970    8.4848   -2.9539 H   0  0  0  0  0  0  0  0  0  0  0  0
    1.3653    7.8767   -1.8099 H   0  0  0  0  0  0  0  0  0  0  0  0
    0.5383   10.0619   -0.7962 H   0  0  0  0  0  0  0  0  0  0  0  0
   -3.0723    7.5710   -1.5400 H   0  0  0  0  0  0  0  0  0  0  0  0
   -2.8249    9.0085   -2.5884 H   0  0  0  0  0  0  0  0  0  0  0  0
   -1.6177    7.6784   -2.5884 H   0  0  0  0  0  0  0  0  0  0  0  0
   -2.1425    9.5326    1.1036 H   0  0  0  0  0  0  0  0  0  0  0  0
   -2.1463   10.8467   -0.1212 H   0  0  0  0  0  0  0  0  0  0  0  0
   -3.4540    9.6152   -0.1212 H   0  0  0  0  0  0  0  0  0  0  0  0
    0.7580   12.6084   -4.1803 H   0  0  0  0  0  0  0  0  0  0  0  0
   -1.5393   12.1527   -3.5884 H   0  0  0  0  0  0  0  0  0  0  0  0
   -1.0739   10.8563   -2.4661 H   0  0  0  0  0  0  0  0  0  0  0  0
   -1.9097   13.4835   -1.7147 H   0  0  0  0  0  0  0  0  0  0  0  0
   -1.1016   12.3557   -0.6289 H   0  0  0  0  0  0  0  0  0  0  0  0
   -0.3248   15.7778   -2.2700 H   0  0  0  0  0  0  0  0  0  0  0  0
    0.8431   14.9804   -3.3777 H   0  0  0  0  0  0  0  0  0  0  0  0
   -0.8814   14.4778   -3.3777 H   0  0  0  0  0  0  0  0  0  0  0  0
    0.7379   13.5675    0.3772 H   0  0  0  0  0  0  0  0  0  0  0  0
   -1.3162   15.0807    0.0093 H   0  0  0  0  0  0  0  0  0  0  0  0
   -0.1306   15.4012    1.3807 H   0  0  0  0  0  0  0  0  0  0  0  0
   -0.9889   17.5151    0.0631 H   0  0  0  0  0  0  0  0  0  0  0  0
    2.2243   16.2921   -2.0526 H   0  0  0  0  0  0  0  0  0  0  0  0
    3.4146   17.4674    0.5340 H   0  0  0  0  0  0  0  0  0  0  0  0
    4.3304   16.7284   -0.8540 H   0  0  0  0  0  0  0  0  0  0  0  0
    4.4161   19.2011   -0.8849 H   0  0  0  0  0  0  0  0  0  0  0  0
    3.5862   18.5039   -2.3313 H   0  0  0  0  0  0  0  0  0  0  0  0
    2.3395   20.4074   -1.5722 H   0  0  0  0  0  0  0  0  0  0  0  0
    3.1710   20.1410    0.6790 H   0  0  0  0  0  0  0  0  0  0  0  0
   -0.0422   18.0776   -3.1196 H   0  0  0  0  0  0  0  0  0  0  0  0
    0.6987   19.7064   -3.2774 H   0  0  0  0  0  0  0  0  0  0  0  0
    1.7396   18.2424   -3.2774 H   0  0  0  0  0  0  0  0  0  0  0  0
   -0.2396   19.6964    0.2617 H   0  0  0  0  0  0  0  0  0  0  0  0
   -0.0806   20.7033   -1.2173 H   0  0  0  0  0  0  0  0  0  0  0  0
   -1.1668   19.2726   -1.2173 H   0  0  0  0  0  0  0  0  0  0  0  0
    1.7963   15.0030    1.8129 H   0  0  0  0  0  0  0  0  0  0  0  0
    3.3553   14.2611    1.3174 H   0  0  0  0  0  0  0  0  0  0  0  0
    3.1709   16.0479    1.3174 H   0  0  0  0  0  0  0  0  0  0  0  0
    4.0256   14.7605   -1.4342 H   0  0  0  0  0  0  0  0  0  0  0  0
    3.4468   13.3255   -0.4143 H   0  0  0  0  0  0  0  0  0  0  0  0
    2.4874   14.1404   -3.1715 H   0  0  0  0  0  0  0  0  0  0  0  0
    3.3944   12.6544   -2.6857 H   0  0  0  0  0  0  0  0  0  0  0  0
    1.5037   12.0284    0.0138 H   0  0  0  0  0  0  0  0  0  0  0  0
    0.9066   10.7608   -1.1101 H   0  0  0  0  0  0  0  0  0  0  0  0
    2.6445   11.2148   -1.1101 H   0  0  0  0  0  0  0  0  0  0  0  0
  1  2  1  0
  2  3  1  0
  3  4  1  0
  4  5  1  0
  5  6  1  0
  6  7  1  0
  7  8  1  0
  7  9  1  0
  2 10  1  0
 10 11  1  0
 11 12  1  0
 12 13  1  0
 13 14  1  6
 13 15  1  0
 15 16  1  0
 16 17  1  0
 17 18  2  0
 18 19  1  0
 19 20  1  0
 20 21  1  0
 21 22  1  0
 22 23  1  0
 22 24  1  0
 24 25  1  0
 24 26  1  0
 19 27  1  0
 27 28  1  1
 27 29  1  0
 29 30  1  0
 30 31  1  0
 31 32  1  1
  7  5  1  0
 31 10  1  0
 31 13  1  0
 27 15  1  0
 24 18  1  0
  1 33  1  0
  1 34  1  0
  1 35  1  0
  2 36  1  6
  3 37  1  0
  3 38  1  0
  4 39  1  0
  4 40  1  0
  5 41  1  1
  8 42  1  0
  8 43  1  0
  8 44  1  0
  9 45  1  0
  9 46  1  0
  9 47  1  0
 10 48  1  6
 11 49  1  0
 11 50  1  0
 12 51  1  0
 12 52  1  0
 14 53  1  0
 14 54  1  0
 14 55  1  0
 15 56  1  1
 16 57  1  0
 16 58  1  0
 17 59  1  0
 19 60  1  6
 20 61  1  0
 20 62  1  0
 21 63  1  0
 21 64  1  0
 22 65  1  6
 23 66  1  0
 25 67  1  0
 25 68  1  0
 25 69  1  0
 26 70  1  0
 26 71  1  0
 26 72  1  0
 28 73  1  0
 28 74  1  0
 28 75  1  0
 29 76  1  0
 29 77  1  0
 30 78  1  0
 30 79  1  0
 32 80  1  0
 32 81  1  0
 32 82  1  0
M  END
>  <meeko>  (18) 
{"is_sidechain": [false], "intermolecular_energy": 2.731, "internal_energy": -0.839}

$$$$
EPH_relaxed_0001_pdb2pqr_Repair_187_r2_0001_out
     RDKit          3D

 82 86  0  0  0  0  0  0  0  0999 V2000
   -0.3430    9.0660   -0.9430 C   0  0  0  0  0  0  0  0  0  0  0  0
    0.4520   10.0720   -1.7790 C   0  0  2  0  0  0  0  0  0  0  0  0
    1.8460    9.5350   -2.1640 C   0  0  0  0  0  0  0  0  0  0  0  0
    2.2990    9.9490   -3.5660 C   0  0  0  0  0  0  0  0  0  0  0  0
    3.7930    9.9540   -3.6860 C   0  0  2  0  0  0  0  0  0  0  0  0
    4.4180   11.1960   -3.3350 O   0  0  0  0  0  0  0  0  0  0  0  0
    4.5480   10.7870   -4.7060 C   0  0  0  0  0  0  0  0  0  0  0  0
    3.8290   11.6710   -5.6760 C   0  0  0  0  0  0  0  0  0  0  0  0
    5.9360   10.3720   -5.0830 C   0  0  0  0  0  0  0  0  0  0  0  0
    0.5920   11.3850   -1.0190 C   0  0  1  0  0  0  0  0  0  0  0  0
    1.6290   11.3010    0.1330 C   0  0  0  0  0  0  0  0  0  0  0  0
    2.3200   12.6870    0.2140 C   0  0  0  0  0  0  0  0  0  0  0  0
    1.4400   13.6130   -0.6560 C   0  0  1  0  0  0  0  0  0  0  0  0
    0.2460   14.0150    0.2660 C   0  0  0  0  0  0  0  0  0  0  0  0
    2.1480   14.8690   -1.2630 C   0  0  2  0  0  0  0  0  0  0  0  0
    2.6920   15.8730   -0.2320 C   0  0  0  0  0  0  0  0  0  0  0  0
    1.7410   16.9520    0.1700 C   0  0  0  0  0  0  0  0  0  0  0  0
    0.6090   17.2790   -0.4800 C   0  0  0  0  0  0  0  0  0  0  0  0
    0.2360   16.5990   -1.8030 C   0  0  1  0  0  0  0  0  0  0  0  0
   -0.2070   17.6730   -2.8310 C   0  0  0  0  0  0  0  0  0  0  0  0
   -1.3240   18.5660   -2.2980 C   0  0  0  0  0  0  0  0  0  0  0  0
   -0.8940   19.2700   -1.0140 C   0  0  2  0  0  0  0  0  0  0  0  0
    0.1550   20.1930   -1.3230 O   0  0  0  0  0  0  0  0  0  0  0  0
   -0.4170   18.2890    0.0920 C   0  0  0  0  0  0  0  0  0  0  0  0
   -1.6270   17.4930    0.6400 C   0  0  0  0  0  0  0  0  0  0  0  0
    0.1210   19.1320    1.2800 C   0  0  0  0  0  0  0  0  0  0  0  0
    1.3170   15.5960   -2.3960 C   0  0  1  0  0  0  0  0  0  0  0  0
    2.3450   16.3780   -3.2690 C   0  0  0  0  0  0  0  0  0  0  0  0
    0.6000   14.5780   -3.3600 C   0  0  0  0  0  0  0  0  0  0  0  0
    0.0260   13.3010   -2.7180 C   0  0  0  0  0  0  0  0  0  0  0  0
    1.0660   12.6240   -1.8190 C   0  0  2  0  0  0  0  0  0  0  0  0
    2.2690   12.1900   -2.7230 C   0  0  0  0  0  0  0  0  0  0  0  0
   -0.1822    9.2694    0.1260 H   0  0  0  0  0  0  0  0  0  0  0  0
   -1.4137    9.1597   -1.1771 H   0  0  0  0  0  0  0  0  0  0  0  0
   -0.0044    8.0459   -1.1771 H   0  0  0  0  0  0  0  0  0  0  0  0
   -0.1063   10.2403   -2.7117 H   0  0  0  0  0  0  0  0  0  0  0  0
    2.5778    9.9153   -1.4361 H   0  0  0  0  0  0  0  0  0  0  0  0
    1.7803    8.4370   -2.1585 H   0  0  0  0  0  0  0  0  0  0  0  0
    1.8848    9.2405   -4.2984 H   0  0  0  0  0  0  0  0  0  0  0  0
    1.9359   10.9697   -3.7567 H   0  0  0  0  0  0  0  0  0  0  0  0
    3.8411    8.8868   -3.4236 H   0  0  0  0  0  0  0  0  0  0  0  0
    3.2286   12.4091   -5.1240 H   0  0  0  0  0  0  0  0  0  0  0  0
    4.5617   12.1936   -6.3085 H   0  0  0  0  0  0  0  0  0  0  0  0
    3.1681   11.0601   -6.3085 H   0  0  0  0  0  0  0  0  0  0  0  0
    6.5262   10.1955   -4.1717 H   0  0  0  0  0  0  0  0  0  0  0  0
    5.8936    9.4473   -5.6772 H   0  0  0  0  0  0  0  0  0  0  0  0
    6.4081   11.1683   -5.6772 H   0  0  0  0  0  0  0  0  0  0  0  0
   -0.4506   11.5222   -0.6962 H   0  0  0  0  0  0  0  0  0  0  0  0
    1.1227   11.0740    1.0828 H   0  0  0  0  0  0  0  0  0  0  0  0
    2.3633   10.5036   -0.0536 H   0  0  0  0  0  0  0  0  0  0  0  0
    2.3511   13.0452    1.2536 H   0  0  0  0  0  0  0  0  0  0  0  0
    3.3628   12.6542   -0.1347 H   0  0  0  0  0  0  0  0  0  0  0  0
    0.5460   13.9140    1.3195 H   0  0  0  0  0  0  0  0  0  0  0  0
   -0.0381   15.0583    0.0641 H   0  0  0  0  0  0  0  0  0  0  0  0
   -0.6112   13.3559    0.0641 H   0  0  0  0  0  0  0  0  0  0  0  0
    3.0328   14.4307   -1.7477 H   0  0  0  0  0  0  0  0  0  0  0  0
    2.9730   15.3132    0.6722 H   0  0  0  0  0  0  0  0  0  0  0  0
    3.5394   16.3792   -0.7175 H   0  0  0  0  0  0  0  0  0  0  0  0
    1.9867   17.5284    1.0741 H   0  0  0  0  0  0  0  0  0  0  0  0
   -0.6077   15.9314   -1.5740 H   0  0  0  0  0  0  0  0  0  0  0  0
    0.6601   18.3027   -3.0792 H   0  0  0  0  0  0  0  0  0  0  0  0
   -0.5926   17.1484   -3.7176 H   0  0  0  0  0  0  0  0  0  0  0  0
   -1.5734   19.3222   -3.0569 H   0  0  0  0  0  0  0  0  0  0  0  0
   -2.2002   17.9385   -2.0777 H   0  0  0  0  0  0  0  0  0  0  0  0
   -1.7758   19.7907   -0.6125 H   0  0  0  0  0  0  0  0  0  0  0  0
    0.2760   20.1890   -2.2880 H   0  0  0  0  0  0  0  0  0  0  0  0
   -1.6069   17.5062    1.7397 H   0  0  0  0  0  0  0  0  0  0  0  0
   -2.5604   17.9540    0.2848 H   0  0  0  0  0  0  0  0  0  0  0  0
   -1.5732   16.4533    0.2848 H   0  0  0  0  0  0  0  0  0  0  0  0
   -0.1788   18.6622    2.2284 H   0  0  0  0  0  0  0  0  0  0  0  0
    1.2186   19.1823    1.2266 H   0  0  0  0  0  0  0  0  0  0  0  0
   -0.2957   20.1486    1.2266 H   0  0  0  0  0  0  0  0  0  0  0  0
    3.0490   16.9135   -2.6151 H   0  0  0  0  0  0  0  0  0  0  0  0
    2.8994   15.6713   -3.9039 H   0  0  0  0  0  0  0  0  0  0  0  0
    1.8119   17.1009   -3.9039 H   0  0  0  0  0  0  0  0  0  0  0  0
   -0.2317   15.1091   -3.8460 H   0  0  0  0  0  0  0  0  0  0  0  0
    1.3859   14.2277   -4.0453 H   0  0  0  0  0  0  0  0  0  0  0  0
   -0.8539   13.5664   -2.1136 H   0  0  0  0  0  0  0  0  0  0  0  0
   -0.2540   12.6011   -3.5191 H   0  0  0  0  0  0  0  0  0  0  0  0
    3.1137   11.8852   -2.0878 H   0  0  0  0  0  0  0  0  0  0  0  0
    1.9643   11.3451   -3.3581 H   0  0  0  0  0  0  0  0  0  0  0  0
    2.5739   13.0348   -3.3581 H   0  0  0  0  0  0  0  0  0  0  0  0
  1  2  1  0
  2  3  1  0
  3  4  1  0
  4  5  1  0
  5  6  1  0
  6  7  1  0
  7  8  1  0
  7  9  1  0
  2 10  1  0
 10 11  1  0
 11 12  1  0
 12 13  1  0
 13 14  1  1
 13 15  1  0
 15 16  1  0
 16 17  1  0
 17 18  2  0
 18 19  1  0
 19 20  1  0
 20 21  1  0
 21 22  1  0
 22 23  1  0
 22 24  1  0
 24 25  1  0
 24 26  1  0
 19 27  1  0
 27 28  1  6
 27 29  1  0
 29 30  1  0
 30 31  1  0
 31 32  1  6
  7  5  1  0
 31 10  1  0
 31 13  1  0
 27 15  1  0
 24 18  1  0
  1 33  1  0
  1 34  1  0
  1 35  1  0
  2 36  1  6
  3 37  1  0
  3 38  1  0
  4 39  1  0
  4 40  1  0
  5 41  1  1
  8 42  1  0
  8 43  1  0
  8 44  1  0
  9 45  1  0
  9 46  1  0
  9 47  1  0
 10 48  1  1
 11 49  1  0
 11 50  1  0
 12 51  1  0
 12 52  1  0
 14 53  1  0
 14 54  1  0
 14 55  1  0
 15 56  1  6
 16 57  1  0
 16 58  1  0
 17 59  1  0
 19 60  1  1
 20 61  1  0
 20 62  1  0
 21 63  1  0
 21 64  1  0
 22 65  1  1
 23 66  1  0
 25 67  1  0
 25 68  1  0
 25 69  1  0
 26 70  1  0
 26 71  1  0
 26 72  1  0
 28 73  1  0
 28 74  1  0
 28 75  1  0
 29 76  1  0
 29 77  1  0
 30 78  1  0
 30 79  1  0
 32 80  1  0
 32 81  1  0
 32 82  1  0
M  END
>  <meeko>  (19) 
{"is_sidechain": [false], "intermolecular_energy": 2.731, "internal_energy": -0.839}

$$$$
