EPH_relaxed_0001_pdb2pqr_Repair_313_r2_0001_out
     RDKit          3D

 82 86  0  0  0  0  0  0  0  0999 V2000
    2.7390   17.1070   -1.0350 C   0  0  0  0  0  0  0  0  0  0  0  0
    1.9680   17.2750   -2.3470 C   0  0  2  0  0  0  0  0  0  0  0  0
    0.9830   18.4590   -2.2940 C   0  0  0  0  0  0  0  0  0  0  0  0
    1.0430   19.2530   -0.9860 C   0  0  0  0  0  0  0  0  0  0  0  0
   -0.2460   19.9650   -0.7090 C   0  0  2  0  0  0  0  0  0  0  0  0
   -0.5170   20.1940    0.6800 O   0  0  0  0  0  0  0  0  0  0  0  0
   -1.4250   19.3190   -0.0080 C   0  0  0  0  0  0  0  0  0  0  0  0
   -1.3720   17.8980    0.4600 C   0  0  0  0  0  0  0  0  0  0  0  0
   -2.7880   19.9030   -0.2120 C   0  0  0  0  0  0  0  0  0  0  0  0
    1.2200   15.9890   -2.6780 C   0  0  1  0  0  0  0  0  0  0  0  0
    0.8120   15.9030   -4.1730 C   0  0  0  0  0  0  0  0  0  0  0  0
    0.9140   14.4100   -4.5790 C   0  0  0  0  0  0  0  0  0  0  0  0
    1.0500   13.6500   -3.2390 C   0  0  1  0  0  0  0  0  0  0  0  0
   -0.4080   13.5330   -2.6940 C   0  0  0  0  0  0  0  0  0  0  0  0
    1.7560   12.2560   -3.3040 C   0  0  2  0  0  0  0  0  0  0  0  0
    1.0370   11.2000   -4.1630 C   0  0  0  0  0  0  0  0  0  0  0  0
    0.0480   10.3520   -3.4340 C   0  0  0  0  0  0  0  0  0  0  0  0
   -0.0480   10.2370   -2.0970 C   0  0  0  0  0  0  0  0  0  0  0  0
    0.9600   10.9310   -1.1710 C   0  0  1  0  0  0  0  0  0  0  0  0
    1.4380    9.9320   -0.0850 C   0  0  0  0  0  0  0  0  0  0  0  0
    0.2780    9.3030    0.6820 C   0  0  0  0  0  0  0  0  0  0  0  0
   -0.6710    8.5740   -0.2650 C   0  0  2  0  0  0  0  0  0  0  0  0
    0.0120    7.4470   -0.8240 O   0  0  0  0  0  0  0  0  0  0  0  0
   -1.2100    9.4780   -1.4090 C   0  0  0  0  0  0  0  0  0  0  0  0
   -2.1950   10.5220   -0.8270 C   0  0  0  0  0  0  0  0  0  0  0  0
   -2.0400    8.5870   -2.3710 C   0  0  0  0  0  0  0  0  0  0  0  0
    2.1670   11.6710   -1.8930 C   0  0  1  0  0  0  0  0  0  0  0  0
    3.3310   10.6660   -2.1490 C   0  0  0  0  0  0  0  0  0  0  0  0
    2.7400   12.7780   -0.9300 C   0  0  0  0  0  0  0  0  0  0  0  0
    2.0790   14.1680   -0.9980 C   0  0  0  0  0  0  0  0  0  0  0  0
    1.9670   14.6520   -2.4470 C   0  0  2  0  0  0  0  0  0  0  0  0
    3.4200   14.8000   -3.0150 C   0  0  0  0  0  0  0  0  0  0  0  0
    2.0553   17.2560   -0.1863 H   0  0  0  0  0  0  0  0  0  0  0  0
    3.1666   16.0946   -0.9880 H   0  0  0  0  0  0  0  0  0  0  0  0
    3.5490   17.8497   -0.9880 H   0  0  0  0  0  0  0  0  0  0  0  0
    2.7020   17.4920   -3.1370 H   0  0  0  0  0  0  0  0  0  0  0  0
    1.2153   19.1412   -3.1251 H   0  0  0  0  0  0  0  0  0  0  0  0
   -0.0302   18.0371   -2.3672 H   0  0  0  0  0  0  0  0  0  0  0  0
    1.2523   18.5600   -0.1578 H   0  0  0  0  0  0  0  0  0  0  0  0
    1.8378   20.0077   -1.0797 H   0  0  0  0  0  0  0  0  0  0  0  0
   -0.1655   20.5259   -1.6518 H   0  0  0  0  0  0  0  0  0  0  0  0
   -1.3711   17.8739    1.5597 H   0  0  0  0  0  0  0  0  0  0  0  0
   -2.2505   17.3545    0.0821 H   0  0  0  0  0  0  0  0  0  0  0  0
   -0.4555   17.4214    0.0821 H   0  0  0  0  0  0  0  0  0  0  0  0
   -3.2518   20.1017    0.7654 H   0  0  0  0  0  0  0  0  0  0  0  0
   -2.7032   20.8438   -0.7757 H   0  0  0  0  0  0  0  0  0  0  0  0
   -3.4107   19.1927   -0.7757 H   0  0  0  0  0  0  0  0  0  0  0  0
    0.3807   16.0775   -1.9725 H   0  0  0  0  0  0  0  0  0  0  0  0
   -0.2193   16.2621   -4.3055 H   0  0  0  0  0  0  0  0  0  0  0  0
    1.4669   16.5280   -4.7979 H   0  0  0  0  0  0  0  0  0  0  0  0
    0.0087   14.0909   -5.1163 H   0  0  0  0  0  0  0  0  0  0  0  0
    1.7602   14.2183   -5.2551 H   0  0  0  0  0  0  0  0  0  0  0  0
   -0.3895   13.5345   -1.5942 H   0  0  0  0  0  0  0  0  0  0  0  0
   -1.0028   14.3863   -3.0519 H   0  0  0  0  0  0  0  0  0  0  0  0
   -0.8591   12.5958   -3.0519 H   0  0  0  0  0  0  0  0  0  0  0  0
    2.6898   12.4891   -3.8365 H   0  0  0  0  0  0  0  0  0  0  0  0
    0.5055   11.7236   -4.9713 H   0  0  0  0  0  0  0  0  0  0  0  0
    1.8194   10.5152   -4.5221 H   0  0  0  0  0  0  0  0  0  0  0  0
   -0.6624    9.7721   -4.0415 H   0  0  0  0  0  0  0  0  0  0  0  0
    0.4177   11.7635   -0.6990 H   0  0  0  0  0  0  0  0  0  0  0  0
    2.0146    9.1314   -0.5714 H   0  0  0  0  0  0  0  0  0  0  0  0
    2.0516   10.4912    0.6366 H   0  0  0  0  0  0  0  0  0  0  0  0
    0.6774    8.5856    1.4140 H   0  0  0  0  0  0  0  0  0  0  0  0
   -0.2802   10.1022    1.1916 H   0  0  0  0  0  0  0  0  0  0  0  0
   -1.5453    8.2579    0.3230 H   0  0  0  0  0  0  0  0  0  0  0  0
   -0.6410    6.9230   -1.3180 H   0  0  0  0  0  0  0  0  0  0  0  0
   -2.1607   10.4857    0.2719 H   0  0  0  0  0  0  0  0  0  0  0  0
   -1.9086   11.5272   -1.1698 H   0  0  0  0  0  0  0  0  0  0  0  0
   -3.2152   10.2945   -1.1698 H   0  0  0  0  0  0  0  0  0  0  0  0
   -2.6743    7.9061   -1.7845 H   0  0  0  0  0  0  0  0  0  0  0  0
   -2.6742    9.2239   -3.0052 H   0  0  0  0  0  0  0  0  0  0  0  0
   -1.3598    7.9995   -3.0052 H   0  0  0  0  0  0  0  0  0  0  0  0
    3.7337   10.3183   -1.1862 H   0  0  0  0  0  0  0  0  0  0  0  0
    2.9534    9.8055   -2.7207 H   0  0  0  0  0  0  0  0  0  0  0  0
    4.1273   11.1651   -2.7207 H   0  0  0  0  0  0  0  0  0  0  0  0
    2.6342   12.4093    0.1010 H   0  0  0  0  0  0  0  0  0  0  0  0
    3.7777   12.9364   -1.2589 H   0  0  0  0  0  0  0  0  0  0  0  0
    1.0719   14.1093   -0.5594 H   0  0  0  0  0  0  0  0  0  0  0  0
    2.7023   14.8804   -0.4376 H   0  0  0  0  0  0  0  0  0  0  0  0
    4.1339   14.8727   -2.1813 H   0  0  0  0  0  0  0  0  0  0  0  0
    3.6640   13.9221   -3.6312 H   0  0  0  0  0  0  0  0  0  0  0  0
    3.4820   15.7091   -3.6312 H   0  0  0  0  0  0  0  0  0  0  0  0
  1  2  1  0
  2  3  1  0
  3  4  1  0
  4  5  1  0
  5  6  1  0
  6  7  1  0
  7  8  1  0
  7  9  1  0
  2 10  1  0
 10 11  1  0
 11 12  1  0
 12 13  1  0
 13 14  1  1
 13 15  1  0
 15 16  1  0
 16 17  1  0
 17 18  2  0
 18 19  1  0
 19 20  1  0
 20 21  1  0
 21 22  1  0
 22 23  1  0
 22 24  1  0
 24 25  1  0
 24 26  1  0
 19 27  1  0
 27 28  1  6
 27 29  1  0
 29 30  1  0
 30 31  1  0
 31 32  1  6
  7  5  1  0
 31 10  1  0
 31 13  1  0
 27 15  1  0
 24 18  1  0
  1 33  1  0
  1 34  1  0
  1 35  1  0
  2 36  1  6
  3 37  1  0
  3 38  1  0
  4 39  1  0
  4 40  1  0
  5 41  1  6
  8 42  1  0
  8 43  1  0
  8 44  1  0
  9 45  1  0
  9 46  1  0
  9 47  1  0
 10 48  1  1
 11 49  1  0
 11 50  1  0
 12 51  1  0
 12 52  1  0
 14 53  1  0
 14 54  1  0
 14 55  1  0
 15 56  1  6
 16 57  1  0
 16 58  1  0
 17 59  1  0
 19 60  1  1
 20 61  1  0
 20 62  1  0
 21 63  1  0
 21 64  1  0
 22 65  1  1
 23 66  1  0
 25 67  1  0
 25 68  1  0
 25 69  1  0
 26 70  1  0
 26 71  1  0
 26 72  1  0
 28 73  1  0
 28 74  1  0
 28 75  1  0
 29 76  1  0
 29 77  1  0
 30 78  1  0
 30 79  1  0
 32 80  1  0
 32 81  1  0
 32 82  1  0
M  END
>  <meeko>  (1) 
{"is_sidechain": [false], "intermolecular_energy": 2.731, "internal_energy": -0.839}

$$$$
EPH_relaxed_0001_pdb2pqr_Repair_313_r2_0001_out
     RDKit          3D

 82 86  0  0  0  0  0  0  0  0999 V2000
    2.4520   20.1940   -0.8010 C   0  0  0  0  0  0  0  0  0  0  0  0
    2.1820   19.2350    0.3610 C   0  0  2  0  0  0  0  0  0  0  0  0
    3.4830   18.7790    1.0520 C   0  0  0  0  0  0  0  0  0  0  0  0
    3.9290   19.6990    2.1920 C   0  0  0  0  0  0  0  0  0  0  0  0
    5.2270   19.2490    2.7920 C   0  0  2  0  0  0  0  0  0  0  0  0
    5.1850   17.9560    3.4100 O   0  0  0  0  0  0  0  0  0  0  0  0
    5.4420   19.0680    4.2830 C   0  0  0  0  0  0  0  0  0  0  0  0
    4.3460   19.3350    5.2670 C   0  0  0  0  0  0  0  0  0  0  0  0
    6.8400   19.1070    4.8140 C   0  0  0  0  0  0  0  0  0  0  0  0
    1.4040   18.0220   -0.1360 C   0  0  1  0  0  0  0  0  0  0  0  0
    0.2170   18.4110   -1.0580 C   0  0  0  0  0  0  0  0  0  0  0  0
    0.0980   17.2950   -2.1270 C   0  0  0  0  0  0  0  0  0  0  0  0
    0.9900   16.1480   -1.5950 C   0  0  1  0  0  0  0  0  0  0  0  0
    0.1070   15.4080   -0.5420 C   0  0  0  0  0  0  0  0  0  0  0  0
    1.5590   15.1620   -2.6670 C   0  0  2  0  0  0  0  0  0  0  0  0
    0.4990   14.3640   -3.4470 C   0  0  0  0  0  0  0  0  0  0  0  0
    0.1200   13.0510   -2.8480 C   0  0  0  0  0  0  0  0  0  0  0  0
    0.8070   12.4010   -1.8900 C   0  0  0  0  0  0  0  0  0  0  0  0
    2.1490   12.9410   -1.3790 C   0  0  1  0  0  0  0  0  0  0  0  0
    3.1810   11.7840   -1.3150 C   0  0  0  0  0  0  0  0  0  0  0  0
    2.6800   10.5980   -0.4960 C   0  0  0  0  0  0  0  0  0  0  0  0
    1.3740   10.0530   -1.0690 C   0  0  2  0  0  0  0  0  0  0  0  0
    1.6370    9.4850   -2.3560 O   0  0  0  0  0  0  0  0  0  0  0  0
    0.2620   11.1310   -1.1910 C   0  0  0  0  0  0  0  0  0  0  0  0
   -0.2350   11.5290    0.2210 C   0  0  0  0  0  0  0  0  0  0  0  0
   -0.9520   10.4850   -1.9120 C   0  0  0  0  0  0  0  0  0  0  0  0
    2.7140   14.2210   -2.1330 C   0  0  1  0  0  0  0  0  0  0  0  0
    3.5420   13.7820   -3.3790 C   0  0  0  0  0  0  0  0  0  0  0  0
    3.7120   14.9800   -1.1810 C   0  0  0  0  0  0  0  0  0  0  0  0
    3.1030   16.0280   -0.2290 C   0  0  0  0  0  0  0  0  0  0  0  0
    2.1750   16.9820   -0.9860 C   0  0  2  0  0  0  0  0  0  0  0  0
    3.0400   17.7570   -2.0380 C   0  0  0  0  0  0  0  0  0  0  0  0
    2.7300   21.1816   -0.4043 H   0  0  0  0  0  0  0  0  0  0  0  0
    3.2745   19.8014   -1.4169 H   0  0  0  0  0  0  0  0  0  0  0  0
    1.5455   20.2882   -1.4169 H   0  0  0  0  0  0  0  0  0  0  0  0
    1.5850   19.7796    1.1073 H   0  0  0  0  0  0  0  0  0  0  0  0
    3.3238   17.7706    1.4615 H   0  0  0  0  0  0  0  0  0  0  0  0
    4.2767   18.8021    0.2908 H   0  0  0  0  0  0  0  0  0  0  0  0
    4.0524   20.7191    1.7993 H   0  0  0  0  0  0  0  0  0  0  0  0
    3.1596   19.6694    2.9775 H   0  0  0  0  0  0  0  0  0  0  0  0
    5.7969   19.7944    2.0253 H   0  0  0  0  0  0  0  0  0  0  0  0
    4.7399   19.2390    6.2896 H   0  0  0  0  0  0  0  0  0  0  0  0
    3.9589   20.3537    5.1173 H   0  0  0  0  0  0  0  0  0  0  0  0
    3.5338   18.6085    5.1173 H   0  0  0  0  0  0  0  0  0  0  0  0
    6.8147   19.1063    5.9137 H   0  0  0  0  0  0  0  0  0  0  0  0
    7.3917   18.2239    4.4594 H   0  0  0  0  0  0  0  0  0  0  0  0
    7.3416   20.0195    4.4594 H   0  0  0  0  0  0  0  0  0  0  0  0
    1.1161   17.5792    0.8289 H   0  0  0  0  0  0  0  0  0  0  0  0
   -0.7121   18.4757   -0.4727 H   0  0  0  0  0  0  0  0  0  0  0  0
    0.3857   19.3915   -1.5272 H   0  0  0  0  0  0  0  0  0  0  0  0
   -0.9456   16.9615   -2.2257 H   0  0  0  0  0  0  0  0  0  0  0  0
    0.4103   17.6379   -3.1245 H   0  0  0  0  0  0  0  0  0  0  0  0
    0.4358   15.6836    0.4709 H   0  0  0  0  0  0  0  0  0  0  0  0
   -0.9455   15.6978   -0.6774 H   0  0  0  0  0  0  0  0  0  0  0  0
    0.2083   14.3211   -0.6774 H   0  0  0  0  0  0  0  0  0  0  0  0
    2.0161   15.8453   -3.3979 H   0  0  0  0  0  0  0  0  0  0  0  0
   -0.4090   14.9812   -3.5148 H   0  0  0  0  0  0  0  0  0  0  0  0
    0.9498   14.1337   -4.4236 H   0  0  0  0  0  0  0  0  0  0  0  0
   -0.7984   12.5738   -3.2207 H   0  0  0  0  0  0  0  0  0  0  0  0
    1.9564   13.3270   -0.3671 H   0  0  0  0  0  0  0  0  0  0  0  0
    3.3911   11.4418   -2.3391 H   0  0  0  0  0  0  0  0  0  0  0  0
    4.0861   12.1706   -0.8238 H   0  0  0  0  0  0  0  0  0  0  0  0
    3.4398    9.8027   -0.5118 H   0  0  0  0  0  0  0  0  0  0  0  0
    2.4978   10.9349    0.5352 H   0  0  0  0  0  0  0  0  0  0  0  0
    0.9980    9.2927   -0.3686 H   0  0  0  0  0  0  0  0  0  0  0  0
    2.4070    8.8980   -2.2670 H   0  0  0  0  0  0  0  0  0  0  0  0
    0.3853   11.0323    0.9816 H   0  0  0  0  0  0  0  0  0  0  0  0
   -0.1602   12.6198    0.3421 H   0  0  0  0  0  0  0  0  0  0  0  0
   -1.2830   11.2176    0.3421 H   0  0  0  0  0  0  0  0  0  0  0  0
   -1.6638   10.1062   -1.1638 H   0  0  0  0  0  0  0  0  0  0  0  0
   -1.4480   11.2384   -2.5415 H   0  0  0  0  0  0  0  0  0  0  0  0
   -0.6042    9.6527   -2.5415 H   0  0  0  0  0  0  0  0  0  0  0  0
    4.4690   13.2905   -3.0486 H   0  0  0  0  0  0  0  0  0  0  0  0
    2.9499   13.0794   -3.9837 H   0  0  0  0  0  0  0  0  0  0  0  0
    3.7913   14.6664   -3.9837 H   0  0  0  0  0  0  0  0  0  0  0  0
    4.2215   14.2257   -0.5634 H   0  0  0  0  0  0  0  0  0  0  0  0
    4.3725   15.5495   -1.8514 H   0  0  0  0  0  0  0  0  0  0  0  0
    2.5277   15.5119    0.5538 H   0  0  0  0  0  0  0  0  0  0  0  0
    3.9203   16.6138    0.2170 H   0  0  0  0  0  0  0  0  0  0  0  0
    3.7610   18.4029   -1.5155 H   0  0  0  0  0  0  0  0  0  0  0  0
    3.5825   17.0371   -2.6685 H   0  0  0  0  0  0  0  0  0  0  0  0
    2.3838   18.3750   -2.6685 H   0  0  0  0  0  0  0  0  0  0  0  0
  1  2  1  0
  2  3  1  0
  3  4  1  0
  4  5  1  0
  5  6  1  0
  6  7  1  0
  7  8  1  0
  7  9  1  0
  2 10  1  0
 10 11  1  0
 11 12  1  0
 12 13  1  0
 13 14  1  1
 13 15  1  0
 15 16  1  0
 16 17  1  0
 17 18  2  0
 18 19  1  0
 19 20  1  0
 20 21  1  0
 21 22  1  0
 22 23  1  0
 22 24  1  0
 24 25  1  0
 24 26  1  0
 19 27  1  0
 27 28  1  6
 27 29  1  0
 29 30  1  0
 30 31  1  0
 31 32  1  6
  7  5  1  0
 31 10  1  0
 31 13  1  0
 27 15  1  0
 24 18  1  0
  1 33  1  0
  1 34  1  0
  1 35  1  0
  2 36  1  1
  3 37  1  0
  3 38  1  0
  4 39  1  0
  4 40  1  0
  5 41  1  6
  8 42  1  0
  8 43  1  0
  8 44  1  0
  9 45  1  0
  9 46  1  0
  9 47  1  0
 10 48  1  1
 11 49  1  0
 11 50  1  0
 12 51  1  0
 12 52  1  0
 14 53  1  0
 14 54  1  0
 14 55  1  0
 15 56  1  6
 16 57  1  0
 16 58  1  0
 17 59  1  0
 19 60  1  1
 20 61  1  0
 20 62  1  0
 21 63  1  0
 21 64  1  0
 22 65  1  1
 23 66  1  0
 25 67  1  0
 25 68  1  0
 25 69  1  0
 26 70  1  0
 26 71  1  0
 26 72  1  0
 28 73  1  0
 28 74  1  0
 28 75  1  0
 29 76  1  0
 29 77  1  0
 30 78  1  0
 30 79  1  0
 32 80  1  0
 32 81  1  0
 32 82  1  0
M  END
>  <meeko>  (2) 
{"is_sidechain": [false], "intermolecular_energy": 2.731, "internal_energy": -0.839}

$$$$
EPH_relaxed_0001_pdb2pqr_Repair_313_r2_0001_out
     RDKit          3D

 82 86  0  0  0  0  0  0  0  0999 V2000
    4.6710   17.7870   -0.8610 C   0  0  0  0  0  0  0  0  0  0  0  0
    3.2920   18.3710   -0.5450 C   0  0  2  0  0  0  0  0  0  0  0  0
    3.2480   19.0370    0.8450 C   0  0  0  0  0  0  0  0  0  0  0  0
    4.3320   18.5350    1.8030 C   0  0  0  0  0  0  0  0  0  0  0  0
    4.2370   19.1960    3.1440 C   0  0  2  0  0  0  0  0  0  0  0  0
    5.2350   20.1940    3.3920 O   0  0  0  0  0  0  0  0  0  0  0  0
    5.2790   19.0310    4.2340 C   0  0  0  0  0  0  0  0  0  0  0  0
    6.4930   18.1790    4.0310 C   0  0  0  0  0  0  0  0  0  0  0  0
    4.8800   19.2980    5.6520 C   0  0  0  0  0  0  0  0  0  0  0  0
    2.2330   17.2790   -0.6320 C   0  0  1  0  0  0  0  0  0  0  0  0
    0.8380   17.8300   -1.0320 C   0  0  0  0  0  0  0  0  0  0  0  0
    0.1620   16.7440   -1.9090 C   0  0  0  0  0  0  0  0  0  0  0  0
    1.0380   15.4840   -1.7130 C   0  0  1  0  0  0  0  0  0  0  0  0
    0.5580   14.8690   -0.3610 C   0  0  0  0  0  0  0  0  0  0  0  0
    1.0040   14.4330   -2.8690 C   0  0  2  0  0  0  0  0  0  0  0  0
   -0.3700   13.7910   -3.1280 C   0  0  0  0  0  0  0  0  0  0  0  0
   -0.6450   12.5400   -2.3610 C   0  0  0  0  0  0  0  0  0  0  0  0
    0.2770   11.7990   -1.7180 C   0  0  0  0  0  0  0  0  0  0  0  0
    1.7680   12.1470   -1.8050 C   0  0  1  0  0  0  0  0  0  0  0  0
    2.5840   10.8590   -2.0920 C   0  0  0  0  0  0  0  0  0  0  0  0
    2.3020    9.7510   -1.0830 C   0  0  0  0  0  0  0  0  0  0  0  0
    0.8180    9.3920   -1.0670 C   0  0  2  0  0  0  0  0  0  0  0  0
    0.4740    8.7980   -2.3230 O   0  0  0  0  0  0  0  0  0  0  0  0
   -0.1040   10.6140   -0.7970 C   0  0  0  0  0  0  0  0  0  0  0  0
    0.0550   11.0710    0.6740 C   0  0  0  0  0  0  0  0  0  0  0  0
   -1.5760   10.1430   -0.9480 C   0  0  0  0  0  0  0  0  0  0  0  0
    2.1450   13.3400   -2.7850 C   0  0  1  0  0  0  0  0  0  0  0  0
    2.3480   12.7960   -4.2330 C   0  0  0  0  0  0  0  0  0  0  0  0
    3.5270   13.9510   -2.3430 C   0  0  0  0  0  0  0  0  0  0  0  0
    3.4860   15.0690   -1.2840 C   0  0  0  0  0  0  0  0  0  0  0  0
    2.4630   16.1450   -1.6630 C   0  0  2  0  0  0  0  0  0  0  0  0
    2.9310   16.7970   -3.0080 C   0  0  0  0  0  0  0  0  0  0  0  0
    5.1985   17.5636    0.0780 H   0  0  0  0  0  0  0  0  0  0  0  0
    4.5525   16.8618   -1.4441 H   0  0  0  0  0  0  0  0  0  0  0  0
    5.2530   18.5159   -1.4441 H   0  0  0  0  0  0  0  0  0  0  0  0
    3.0842   19.1513   -1.2920 H   0  0  0  0  0  0  0  0  0  0  0  0
    3.3753   20.1218    0.7144 H   0  0  0  0  0  0  0  0  0  0  0  0
    2.2776   18.7792    1.2943 H   0  0  0  0  0  0  0  0  0  0  0  0
    4.2179   17.4486    1.9324 H   0  0  0  0  0  0  0  0  0  0  0  0
    5.3127   18.7799    1.3691 H   0  0  0  0  0  0  0  0  0  0  0  0
    3.1426   19.0852    3.1467 H   0  0  0  0  0  0  0  0  0  0  0  0
    6.9055   17.8895    5.0088 H   0  0  0  0  0  0  0  0  0  0  0  0
    6.2169   17.2755    3.4675 H   0  0  0  0  0  0  0  0  0  0  0  0
    7.2487   18.7459    3.4675 H   0  0  0  0  0  0  0  0  0  0  0  0
    5.5987   18.8171    6.3319 H   0  0  0  0  0  0  0  0  0  0  0  0
    4.8736   20.3830    5.8330 H   0  0  0  0  0  0  0  0  0  0  0  0
    3.8746   18.8901    5.8330 H   0  0  0  0  0  0  0  0  0  0  0  0
    2.2982   16.8777    0.3901 H   0  0  0  0  0  0  0  0  0  0  0  0
    0.2340   18.0205   -0.1326 H   0  0  0  0  0  0  0  0  0  0  0  0
    0.9309   18.7789   -1.5806 H   0  0  0  0  0  0  0  0  0  0  0  0
   -0.8680   16.5574   -1.5709 H   0  0  0  0  0  0  0  0  0  0  0  0
    0.0926   17.0439   -2.9650 H   0  0  0  0  0  0  0  0  0  0  0  0
    0.9979   15.4327    0.4749 H   0  0  0  0  0  0  0  0  0  0  0  0
   -0.5391   14.9231   -0.3026 H   0  0  0  0  0  0  0  0  0  0  0  0
    0.8769   13.8179   -0.3026 H   0  0  0  0  0  0  0  0  0  0  0  0
    1.2169   15.0503   -3.7542 H   0  0  0  0  0  0  0  0  0  0  0  0
   -1.1439   14.5274   -2.8657 H   0  0  0  0  0  0  0  0  0  0  0  0
   -0.3761   13.5040   -4.1899 H   0  0  0  0  0  0  0  0  0  0  0  0
   -1.6885   12.1947   -2.3176 H   0  0  0  0  0  0  0  0  0  0  0  0
    2.0444   12.5521   -0.8204 H   0  0  0  0  0  0  0  0  0  0  0  0
    2.3257   10.4946   -3.0972 H   0  0  0  0  0  0  0  0  0  0  0  0
    3.6509   11.1159   -2.0162 H   0  0  0  0  0  0  0  0  0  0  0  0
    2.8852    8.8590   -1.3555 H   0  0  0  0  0  0  0  0  0  0  0  0
    2.5879   10.1066   -0.0821 H   0  0  0  0  0  0  0  0  0  0  0  0
    0.6572    8.6878   -0.2374 H   0  0  0  0  0  0  0  0  0  0  0  0
   -0.0450    9.4490   -2.8240 H   0  0  0  0  0  0  0  0  0  0  0  0
   -0.2311   10.2488    1.3464 H   0  0  0  0  0  0  0  0  0  0  0  0
    1.1028   11.3493    0.8603 H   0  0  0  0  0  0  0  0  0  0  0  0
   -0.5938   11.9396    0.8603 H   0  0  0  0  0  0  0  0  0  0  0  0
   -2.0196   10.0011    0.0485 H   0  0  0  0  0  0  0  0  0  0  0  0
   -2.1493   10.9026   -1.4997 H   0  0  0  0  0  0  0  0  0  0  0  0
   -1.6018    9.1917   -1.4997 H   0  0  0  0  0  0  0  0  0  0  0  0
    2.7322   11.7663   -4.1873 H   0  0  0  0  0  0  0  0  0  0  0  0
    1.3860   12.8051   -4.7663 H   0  0  0  0  0  0  0  0  0  0  0  0
    3.0689   13.4331   -4.7663 H   0  0  0  0  0  0  0  0  0  0  0  0
    4.1388   13.1314   -1.9380 H   0  0  0  0  0  0  0  0  0  0  0  0
    3.9336   14.4266   -3.2477 H   0  0  0  0  0  0  0  0  0  0  0  0
    3.2082   14.6345   -0.3124 H   0  0  0  0  0  0  0  0  0  0  0  0
    4.4808   15.5350   -1.2267 H   0  0  0  0  0  0  0  0  0  0  0  0
    3.5599   17.6731   -2.7914 H   0  0  0  0  0  0  0  0  0  0  0  0
    3.5105   16.0642   -3.5886 H   0  0  0  0  0  0  0  0  0  0  0  0
    2.0513   17.1116   -3.5886 H   0  0  0  0  0  0  0  0  0  0  0  0
  1  2  1  0
  2  3  1  0
  3  4  1  0
  4  5  1  0
  5  6  1  0
  6  7  1  0
  7  8  1  0
  7  9  1  0
  2 10  1  0
 10 11  1  0
 11 12  1  0
 12 13  1  0
 13 14  1  1
 13 15  1  0
 15 16  1  0
 16 17  1  0
 17 18  2  0
 18 19  1  0
 19 20  1  0
 20 21  1  0
 21 22  1  0
 22 23  1  0
 22 24  1  0
 24 25  1  0
 24 26  1  0
 19 27  1  0
 27 28  1  6
 27 29  1  0
 29 30  1  0
 30 31  1  0
 31 32  1  6
  7  5  1  0
 31 10  1  0
 31 13  1  0
 27 15  1  0
 24 18  1  0
  1 33  1  0
  1 34  1  0
  1 35  1  0
  2 36  1  6
  3 37  1  0
  3 38  1  0
  4 39  1  0
  4 40  1  0
  5 41  1  1
  8 42  1  0
  8 43  1  0
  8 44  1  0
  9 45  1  0
  9 46  1  0
  9 47  1  0
 10 48  1  1
 11 49  1  0
 11 50  1  0
 12 51  1  0
 12 52  1  0
 14 53  1  0
 14 54  1  0
 14 55  1  0
 15 56  1  6
 16 57  1  0
 16 58  1  0
 17 59  1  0
 19 60  1  1
 20 61  1  0
 20 62  1  0
 21 63  1  0
 21 64  1  0
 22 65  1  1
 23 66  1  0
 25 67  1  0
 25 68  1  0
 25 69  1  0
 26 70  1  0
 26 71  1  0
 26 72  1  0
 28 73  1  0
 28 74  1  0
 28 75  1  0
 29 76  1  0
 29 77  1  0
 30 78  1  0
 30 79  1  0
 32 80  1  0
 32 81  1  0
 32 82  1  0
M  END
>  <meeko>  (3) 
{"is_sidechain": [false], "intermolecular_energy": 2.731, "internal_energy": -0.839}

$$$$
EPH_relaxed_0001_pdb2pqr_Repair_313_r2_0001_out
     RDKit          3D

 82 86  0  0  0  0  0  0  0  0999 V2000
    2.9930   17.1210   -2.2230 C   0  0  0  0  0  0  0  0  0  0  0  0
    1.6190   17.3260   -2.8660 C   0  0  2  0  0  0  0  0  0  0  0  0
    0.7070   18.2300   -2.0120 C   0  0  0  0  0  0  0  0  0  0  0  0
    0.7570   17.9160   -0.5150 C   0  0  0  0  0  0  0  0  0  0  0  0
    1.1830   19.1090    0.2880 C   0  0  2  0  0  0  0  0  0  0  0  0
    2.1930   19.9160   -0.3310 O   0  0  0  0  0  0  0  0  0  0  0  0
    2.5670   19.2600    0.8910 C   0  0  0  0  0  0  0  0  0  0  0  0
    3.6130   18.2030    0.7190 C   0  0  0  0  0  0  0  0  0  0  0  0
    2.7450   20.1930    2.0470 C   0  0  0  0  0  0  0  0  0  0  0  0
    0.9460   15.9780   -3.0970 C   0  0  1  0  0  0  0  0  0  0  0  0
    0.6110   15.7250   -4.5910 C   0  0  0  0  0  0  0  0  0  0  0  0
    0.7990   14.2070   -4.8410 C   0  0  0  0  0  0  0  0  0  0  0  0
    0.9110   13.5890   -3.4280 C   0  0  1  0  0  0  0  0  0  0  0  0
   -0.5630   13.4530   -2.9330 C   0  0  0  0  0  0  0  0  0  0  0  0
    1.6820   12.2330   -3.3250 C   0  0  2  0  0  0  0  0  0  0  0  0
    1.0530   11.0640   -4.1010 C   0  0  0  0  0  0  0  0  0  0  0  0
    0.0720   10.2420   -3.3320 C   0  0  0  0  0  0  0  0  0  0  0  0
   -0.0790   10.2540   -1.9950 C   0  0  0  0  0  0  0  0  0  0  0  0
    0.8530   11.0840   -1.1040 C   0  0  1  0  0  0  0  0  0  0  0  0
    1.3270   10.2220    0.0960 C   0  0  0  0  0  0  0  0  0  0  0  0
    0.1650    9.6140    0.8750 C   0  0  0  0  0  0  0  0  0  0  0  0
   -0.7060    8.7480   -0.0320 C   0  0  2  0  0  0  0  0  0  0  0  0
    0.0520    7.6080   -0.4480 O   0  0  0  0  0  0  0  0  0  0  0  0
   -1.2340    9.5080   -1.2810 C   0  0  0  0  0  0  0  0  0  0  0  0
   -2.2920   10.5520   -0.8470 C   0  0  0  0  0  0  0  0  0  0  0  0
   -1.9780    8.4860   -2.1820 C   0  0  0  0  0  0  0  0  0  0  0  0
    2.0560   11.8110   -1.8460 C   0  0  1  0  0  0  0  0  0  0  0  0
    3.2760   10.8460   -1.9540 C   0  0  0  0  0  0  0  0  0  0  0  0
    2.5330   13.0340   -0.9770 C   0  0  0  0  0  0  0  0  0  0  0  0
    1.8120   14.3750   -1.2100 C   0  0  0  0  0  0  0  0  0  0  0  0
    1.7430   14.7090   -2.7030 C   0  0  2  0  0  0  0  0  0  0  0  0
    3.2120   14.8740   -3.2240 C   0  0  0  0  0  0  0  0  0  0  0  0
    2.8913   17.1362   -1.1278 H   0  0  0  0  0  0  0  0  0  0  0  0
    3.4050   16.1514   -2.5396 H   0  0  0  0  0  0  0  0  0  0  0  0
    3.6701   17.9281   -2.5396 H   0  0  0  0  0  0  0  0  0  0  0  0
    1.7776   17.8323   -3.8296 H   0  0  0  0  0  0  0  0  0  0  0  0
    1.0185   19.2748   -2.1582 H   0  0  0  0  0  0  0  0  0  0  0  0
   -0.3261   18.0496   -2.3439 H   0  0  0  0  0  0  0  0  0  0  0  0
   -0.2435   17.6016   -0.1831 H   0  0  0  0  0  0  0  0  0  0  0  0
    1.4944   17.1152   -0.3570 H   0  0  0  0  0  0  0  0  0  0  0  0
    0.1758   19.2094    0.7186 H   0  0  0  0  0  0  0  0  0  0  0  0
    3.9530   17.8594    1.7071 H   0  0  0  0  0  0  0  0  0  0  0  0
    3.1889   17.3547    0.1618 H   0  0  0  0  0  0  0  0  0  0  0  0
    4.4657   18.6182    0.1618 H   0  0  0  0  0  0  0  0  0  0  0  0
    2.6385   19.6345    2.9887 H   0  0  0  0  0  0  0  0  0  0  0  0
    3.7459   20.6469    2.0011 H   0  0  0  0  0  0  0  0  0  0  0  0
    1.9815   20.9835    2.0011 H   0  0  0  0  0  0  0  0  0  0  0  0
    0.0719   16.0934   -2.4392 H   0  0  0  0  0  0  0  0  0  0  0  0
   -0.4284   16.0175   -4.8009 H   0  0  0  0  0  0  0  0  0  0  0  0
    1.2649   16.3173   -5.2480 H   0  0  0  0  0  0  0  0  0  0  0  0
   -0.0663   13.7921   -5.3787 H   0  0  0  0  0  0  0  0  0  0  0  0
    1.6822   13.9929   -5.4608 H   0  0  0  0  0  0  0  0  0  0  0  0
   -0.5818   13.4513   -1.8332 H   0  0  0  0  0  0  0  0  0  0  0  0
   -1.1555   14.3003   -3.3085 H   0  0  0  0  0  0  0  0  0  0  0  0
   -0.9905   12.5116   -3.3085 H   0  0  0  0  0  0  0  0  0  0  0  0
    2.6267   12.4592   -3.8411 H   0  0  0  0  0  0  0  0  0  0  0  0
    0.5352   11.4782   -4.9786 H   0  0  0  0  0  0  0  0  0  0  0  0
    1.8820   10.3877   -4.3569 H   0  0  0  0  0  0  0  0  0  0  0  0
   -0.5823    9.5701   -3.9068 H   0  0  0  0  0  0  0  0  0  0  0  0
    0.2514   11.9302   -0.7407 H   0  0  0  0  0  0  0  0  0  0  0  0
    1.9614    9.4075   -0.2838 H   0  0  0  0  0  0  0  0  0  0  0  0
    1.8804   10.8803    0.7818 H   0  0  0  0  0  0  0  0  0  0  0  0
    0.5641    8.9931    1.6906 H   0  0  0  0  0  0  0  0  0  0  0  0
   -0.4519   10.4301    1.2794 H   0  0  0  0  0  0  0  0  0  0  0  0
   -1.5899    8.4466    0.5493 H   0  0  0  0  0  0  0  0  0  0  0  0
   -0.1030    6.9000    0.2000 H   0  0  0  0  0  0  0  0  0  0  0  0
   -2.3356   10.5950    0.2513 H   0  0  0  0  0  0  0  0  0  0  0  0
   -2.0151   11.5406   -1.2420 H   0  0  0  0  0  0  0  0  0  0  0  0
   -3.2768   10.2620   -1.2420 H   0  0  0  0  0  0  0  0  0  0  0  0
   -2.5080    7.7580   -1.5503 H   0  0  0  0  0  0  0  0  0  0  0  0
   -2.7027    9.0165   -2.8171 H   0  0  0  0  0  0  0  0  0  0  0  0
   -1.2505    7.9593   -2.8171 H   0  0  0  0  0  0  0  0  0  0  0  0
    3.6192   10.5745   -0.9448 H   0  0  0  0  0  0  0  0  0  0  0  0
    2.9775    9.9369   -2.4967 H   0  0  0  0  0  0  0  0  0  0  0  0
    4.0919   11.3458   -2.4967 H   0  0  0  0  0  0  0  0  0  0  0  0
    2.3985   12.7633    0.0806 H   0  0  0  0  0  0  0  0  0  0  0  0
    3.5758   13.2118   -1.2784 H   0  0  0  0  0  0  0  0  0  0  0  0
    0.7900   14.3084   -0.8087 H   0  0  0  0  0  0  0  0  0  0  0  0
    2.3757   15.1694   -0.6989 H   0  0  0  0  0  0  0  0  0  0  0  0
    3.8982   14.9511   -2.3678 H   0  0  0  0  0  0  0  0  0  0  0  0
    3.4846   14.0008   -3.8349 H   0  0  0  0  0  0  0  0  0  0  0  0
    3.2841   15.7859   -3.8349 H   0  0  0  0  0  0  0  0  0  0  0  0
  1  2  1  0
  2  3  1  0
  3  4  1  0
  4  5  1  0
  5  6  1  0
  6  7  1  0
  7  8  1  0
  7  9  1  0
  2 10  1  0
 10 11  1  0
 11 12  1  0
 12 13  1  0
 13 14  1  1
 13 15  1  0
 15 16  1  0
 16 17  1  0
 17 18  2  0
 18 19  1  0
 19 20  1  0
 20 21  1  0
 21 22  1  0
 22 23  1  0
 22 24  1  0
 24 25  1  0
 24 26  1  0
 19 27  1  0
 27 28  1  6
 27 29  1  0
 29 30  1  0
 30 31  1  0
 31 32  1  6
  7  5  1  0
 31 10  1  0
 31 13  1  0
 27 15  1  0
 24 18  1  0
  1 33  1  0
  1 34  1  0
  1 35  1  0
  2 36  1  6
  3 37  1  0
  3 38  1  0
  4 39  1  0
  4 40  1  0
  5 41  1  1
  8 42  1  0
  8 43  1  0
  8 44  1  0
  9 45  1  0
  9 46  1  0
  9 47  1  0
 10 48  1  1
 11 49  1  0
 11 50  1  0
 12 51  1  0
 12 52  1  0
 14 53  1  0
 14 54  1  0
 14 55  1  0
 15 56  1  6
 16 57  1  0
 16 58  1  0
 17 59  1  0
 19 60  1  1
 20 61  1  0
 20 62  1  0
 21 63  1  0
 21 64  1  0
 22 65  1  1
 23 66  1  0
 25 67  1  0
 25 68  1  0
 25 69  1  0
 26 70  1  0
 26 71  1  0
 26 72  1  0
 28 73  1  0
 28 74  1  0
 28 75  1  0
 29 76  1  0
 29 77  1  0
 30 78  1  0
 30 79  1  0
 32 80  1  0
 32 81  1  0
 32 82  1  0
M  END
>  <meeko>  (4) 
{"is_sidechain": [false], "intermolecular_energy": 2.731, "internal_energy": -0.839}

$$$$
EPH_relaxed_0001_pdb2pqr_Repair_313_r2_0001_out
     RDKit          3D

 82 86  0  0  0  0  0  0  0  0999 V2000
   -0.5560    8.1490   -1.5620 C   0  0  0  0  0  0  0  0  0  0  0  0
   -0.8670    9.2870   -0.5860 C   0  0  2  0  0  0  0  0  0  0  0  0
   -2.2180    9.9640   -0.8960 C   0  0  0  0  0  0  0  0  0  0  0  0
   -3.3790    9.4370   -0.0480 C   0  0  0  0  0  0  0  0  0  0  0  0
   -3.8310    8.0840   -0.5070 C   0  0  2  0  0  0  0  0  0  0  0  0
   -4.0050    7.9600   -1.9250 O   0  0  0  0  0  0  0  0  0  0  0  0
   -5.1910    7.8220   -1.1260 C   0  0  0  0  0  0  0  0  0  0  0  0
   -6.1860    8.9230   -1.3190 C   0  0  0  0  0  0  0  0  0  0  0  0
   -5.7360    6.4280   -1.0920 C   0  0  0  0  0  0  0  0  0  0  0  0
    0.2530   10.3200   -0.6180 C   0  0  1  0  0  0  0  0  0  0  0  0
    1.6630    9.6730   -0.5870 C   0  0  0  0  0  0  0  0  0  0  0  0
    2.5830   10.5640   -1.4620 C   0  0  0  0  0  0  0  0  0  0  0  0
    1.7680   11.8580   -1.6920 C   0  0  1  0  0  0  0  0  0  0  0  0
    1.9760   12.7000   -0.3940 C   0  0  0  0  0  0  0  0  0  0  0  0
    2.1220   12.6790   -2.9750 C   0  0  2  0  0  0  0  0  0  0  0  0
    3.5580   13.2300   -3.0210 C   0  0  0  0  0  0  0  0  0  0  0  0
    3.7360   14.5940   -2.4400 C   0  0  0  0  0  0  0  0  0  0  0  0
    2.7450   15.4620   -2.1630 C   0  0  0  0  0  0  0  0  0  0  0  0
    1.2900   15.1380   -2.5260 C   0  0  1  0  0  0  0  0  0  0  0  0
    0.6410   16.3700   -3.2100 C   0  0  0  0  0  0  0  0  0  0  0  0
    0.7640   17.6380   -2.3710 C   0  0  0  0  0  0  0  0  0  0  0  0
    2.2280   17.9590   -2.0800 C   0  0  2  0  0  0  0  0  0  0  0  0
    2.8770   18.3040   -3.3070 O   0  0  0  0  0  0  0  0  0  0  0  0
    2.9890   16.7860   -1.3990 C   0  0  0  0  0  0  0  0  0  0  0  0
    2.4810   16.6110    0.0540 C   0  0  0  0  0  0  0  0  0  0  0  0
    4.4850   17.1870   -1.2900 C   0  0  0  0  0  0  0  0  0  0  0  0
    1.0620   13.7950   -3.3440 C   0  0  1  0  0  0  0  0  0  0  0  0
    1.2180   14.0690   -4.8710 C   0  0  0  0  0  0  0  0  0  0  0  0
   -0.4190   13.3070   -3.1290 C   0  0  0  0  0  0  0  0  0  0  0  0
   -0.6830   12.4010   -1.9110 C   0  0  0  0  0  0  0  0  0  0  0  0
    0.3270   11.2510   -1.8540 C   0  0  2  0  0  0  0  0  0  0  0  0
    0.1260   10.3740   -3.1370 C   0  0  0  0  0  0  0  0  0  0  0  0
   -0.3072    7.2388   -0.9966 H   0  0  0  0  0  0  0  0  0  0  0  0
   -1.4350    7.9586   -2.1953 H   0  0  0  0  0  0  0  0  0  0  0  0
    0.2977    8.4321   -2.1953 H   0  0  0  0  0  0  0  0  0  0  0  0
   -0.9399    8.8496    0.4206 H   0  0  0  0  0  0  0  0  0  0  0  0
   -2.1157   11.0437   -0.7122 H   0  0  0  0  0  0  0  0  0  0  0  0
   -2.4577    9.7380   -1.9455 H   0  0  0  0  0  0  0  0  0  0  0  0
   -3.0520    9.3671    1.0000 H   0  0  0  0  0  0  0  0  0  0  0  0
   -4.2235   10.1342   -0.1517 H   0  0  0  0  0  0  0  0  0  0  0  0
   -3.2895    7.5973    0.3176 H   0  0  0  0  0  0  0  0  0  0  0  0
   -6.5195    9.2920   -0.3379 H   0  0  0  0  0  0  0  0  0  0  0  0
   -5.7186    9.7453   -1.8805 H   0  0  0  0  0  0  0  0  0  0  0  0
   -7.0513    8.5410   -1.8805 H   0  0  0  0  0  0  0  0  0  0  0  0
   -5.8609    6.1085   -0.0468 H   0  0  0  0  0  0  0  0  0  0  0  0
   -6.7103    6.4027   -1.6021 H   0  0  0  0  0  0  0  0  0  0  0  0
   -5.0373    5.7486   -1.6021 H   0  0  0  0  0  0  0  0  0  0  0  0
   -0.0089   10.9038    0.2768 H   0  0  0  0  0  0  0  0  0  0  0  0
    2.0408    9.6372    0.4455 H   0  0  0  0  0  0  0  0  0  0  0  0
    1.6330    8.6416   -0.9683 H   0  0  0  0  0  0  0  0  0  0  0  0
    3.5234   10.7856   -0.9361 H   0  0  0  0  0  0  0  0  0  0  0  0
    2.8633   10.0740   -2.4061 H   0  0  0  0  0  0  0  0  0  0  0  0
    1.8181   12.0606    0.4871 H   0  0  0  0  0  0  0  0  0  0  0  0
    3.0002   13.1009   -0.3772 H   0  0  0  0  0  0  0  0  0  0  0  0
    1.2563   13.5317   -0.3772 H   0  0  0  0  0  0  0  0  0  0  0  0
    2.0693   11.9158   -3.7655 H   0  0  0  0  0  0  0  0  0  0  0  0
    4.2063   12.5365   -2.4653 H   0  0  0  0  0  0  0  0  0  0  0  0
    3.8171   13.3166   -4.0865 H   0  0  0  0  0  0  0  0  0  0  0  0
    4.7642   14.9170   -2.2196 H   0  0  0  0  0  0  0  0  0  0  0  0
    0.7789   14.9263   -1.5752 H   0  0  0  0  0  0  0  0  0  0  0  0
    1.1368   16.5380   -4.1774 H   0  0  0  0  0  0  0  0  0  0  0  0
   -0.4306   16.1558   -3.3357 H   0  0  0  0  0  0  0  0  0  0  0  0
    0.3133   18.4781   -2.9198 H   0  0  0  0  0  0  0  0  0  0  0  0
    0.2425   17.4792   -1.4156 H   0  0  0  0  0  0  0  0  0  0  0  0
    2.2464   18.7994   -1.3705 H   0  0  0  0  0  0  0  0  0  0  0  0
    2.7770   17.5520   -3.9150 H   0  0  0  0  0  0  0  0  0  0  0  0
    3.2804   16.8864    0.7576 H   0  0  0  0  0  0  0  0  0  0  0  0
    1.6084   17.2603    0.2181 H   0  0  0  0  0  0  0  0  0  0  0  0
    2.1935   15.5620    0.2181 H   0  0  0  0  0  0  0  0  0  0  0  0
    4.7680   17.2628   -0.2297 H   0  0  0  0  0  0  0  0  0  0  0  0
    5.1060   16.4236   -1.7815 H   0  0  0  0  0  0  0  0  0  0  0  0
    4.6409   18.1586   -1.7815 H   0  0  0  0  0  0  0  0  0  0  0  0
    1.7572   15.0161   -5.0204 H   0  0  0  0  0  0  0  0  0  0  0  0
    1.7839   13.2477   -5.3350 H   0  0  0  0  0  0  0  0  0  0  0  0
    0.2229   14.1365   -5.3350 H   0  0  0  0  0  0  0  0  0  0  0  0
   -1.0514   14.2006   -3.0221 H   0  0  0  0  0  0  0  0  0  0  0  0
   -0.6462   12.6830   -4.0060 H   0  0  0  0  0  0  0  0  0  0  0  0
   -0.5987   12.9998   -0.9921 H   0  0  0  0  0  0  0  0  0  0  0  0
   -1.6935   11.9761   -2.0024 H   0  0  0  0  0  0  0  0  0  0  0  0
   -0.1107    9.3411   -2.8417 H   0  0  0  0  0  0  0  0  0  0  0  0
   -0.7016   10.7833   -3.7349 H   0  0  0  0  0  0  0  0  0  0  0  0
    1.0493   10.3820   -3.7349 H   0  0  0  0  0  0  0  0  0  0  0  0
  1  2  1  0
  2  3  1  0
  3  4  1  0
  4  5  1  0
  5  6  1  0
  6  7  1  0
  7  8  1  0
  7  9  1  0
  2 10  1  0
 10 11  1  0
 11 12  1  0
 12 13  1  0
 13 14  1  1
 13 15  1  0
 15 16  1  0
 16 17  1  0
 17 18  2  0
 18 19  1  0
 19 20  1  0
 20 21  1  0
 21 22  1  0
 22 23  1  0
 22 24  1  0
 24 25  1  0
 24 26  1  0
 19 27  1  0
 27 28  1  6
 27 29  1  0
 29 30  1  0
 30 31  1  0
 31 32  1  6
  7  5  1  0
 31 10  1  0
 31 13  1  0
 27 15  1  0
 24 18  1  0
  1 33  1  0
  1 34  1  0
  1 35  1  0
  2 36  1  1
  3 37  1  0
  3 38  1  0
  4 39  1  0
  4 40  1  0
  5 41  1  1
  8 42  1  0
  8 43  1  0
  8 44  1  0
  9 45  1  0
  9 46  1  0
  9 47  1  0
 10 48  1  1
 11 49  1  0
 11 50  1  0
 12 51  1  0
 12 52  1  0
 14 53  1  0
 14 54  1  0
 14 55  1  0
 15 56  1  6
 16 57  1  0
 16 58  1  0
 17 59  1  0
 19 60  1  1
 20 61  1  0
 20 62  1  0
 21 63  1  0
 21 64  1  0
 22 65  1  1
 23 66  1  0
 25 67  1  0
 25 68  1  0
 25 69  1  0
 26 70  1  0
 26 71  1  0
 26 72  1  0
 28 73  1  0
 28 74  1  0
 28 75  1  0
 29 76  1  0
 29 77  1  0
 30 78  1  0
 30 79  1  0
 32 80  1  0
 32 81  1  0
 32 82  1  0
M  END
>  <meeko>  (5) 
{"is_sidechain": [false], "intermolecular_energy": 2.731, "internal_energy": -0.839}

$$$$
EPH_relaxed_0001_pdb2pqr_Repair_313_r2_0001_out
     RDKit          3D

 82 86  0  0  0  0  0  0  0  0999 V2000
   -0.7770    8.8120   -1.9630 C   0  0  0  0  0  0  0  0  0  0  0  0
   -1.2250    9.2100   -0.5540 C   0  0  2  0  0  0  0  0  0  0  0  0
   -2.7580    9.3310   -0.4440 C   0  0  0  0  0  0  0  0  0  0  0  0
   -3.5180    8.2660   -1.2390 C   0  0  0  0  0  0  0  0  0  0  0  0
   -4.9570    8.1870   -0.8260 C   0  0  2  0  0  0  0  0  0  0  0  0
   -5.3940    6.8820   -0.4240 O   0  0  0  0  0  0  0  0  0  0  0  0
   -6.0100    7.4210   -1.6050 C   0  0  0  0  0  0  0  0  0  0  0  0
   -5.6680    6.6820   -2.8610 C   0  0  0  0  0  0  0  0  0  0  0  0
   -7.4480    7.7920   -1.4190 C   0  0  0  0  0  0  0  0  0  0  0  0
   -0.5690   10.5260   -0.1520 C   0  0  1  0  0  0  0  0  0  0  0  0
    0.4310   10.3600    1.0230 C   0  0  0  0  0  0  0  0  0  0  0  0
    1.5860   11.3640    0.7730 C   0  0  0  0  0  0  0  0  0  0  0  0
    1.0570   12.2960   -0.3420 C   0  0  1  0  0  0  0  0  0  0  0  0
    0.1500   13.3300    0.3970 C   0  0  0  0  0  0  0  0  0  0  0  0
    2.1390   13.0030   -1.2220 C   0  0  2  0  0  0  0  0  0  0  0  0
    3.0730   13.9620   -0.4640 C   0  0  0  0  0  0  0  0  0  0  0  0
    2.6100   15.3790   -0.3920 C   0  0  0  0  0  0  0  0  0  0  0  0
    1.6410   15.9250   -1.1500 C   0  0  0  0  0  0  0  0  0  0  0  0
    0.9670   15.1180   -2.2670 C   0  0  1  0  0  0  0  0  0  0  0  0
    0.8890   15.9810   -3.5540 C   0  0  0  0  0  0  0  0  0  0  0  0
    0.2110   17.3270   -3.3160 C   0  0  0  0  0  0  0  0  0  0  0  0
    0.9440   18.1240   -2.2400 C   0  0  2  0  0  0  0  0  0  0  0  0
    2.2380   18.4830   -2.7330 O   0  0  0  0  0  0  0  0  0  0  0  0
    1.0920   17.3510   -0.8990 C   0  0  0  0  0  0  0  0  0  0  0  0
   -0.2910   17.2260   -0.2150 C   0  0  0  0  0  0  0  0  0  0  0  0
    1.9710   18.2080    0.0520 C   0  0  0  0  0  0  0  0  0  0  0  0
    1.5680   13.6720   -2.5380 C   0  0  1  0  0  0  0  0  0  0  0  0
    2.7580   13.7700   -3.5400 C   0  0  0  0  0  0  0  0  0  0  0  0
    0.4720   12.7820   -3.2340 C   0  0  0  0  0  0  0  0  0  0  0  0
   -0.4920   12.0150   -2.3090 C   0  0  0  0  0  0  0  0  0  0  0  0
    0.2790   11.2550   -1.2250 C   0  0  2  0  0  0  0  0  0  0  0  0
    1.1830   10.1920   -1.9370 C   0  0  0  0  0  0  0  0  0  0  0  0
    0.0438    8.0828   -1.8945 H   0  0  0  0  0  0  0  0  0  0  0  0
   -1.6230    8.3622   -2.5034 H   0  0  0  0  0  0  0  0  0  0  0  0
   -0.4299    9.7051   -2.5034 H   0  0  0  0  0  0  0  0  0  0  0  0
   -0.9069    8.4109    0.1318 H   0  0  0  0  0  0  0  0  0  0  0  0
   -3.0384    9.2393    0.6157 H   0  0  0  0  0  0  0  0  0  0  0  0
   -3.0347   10.3074   -0.8684 H   0  0  0  0  0  0  0  0  0  0  0  0
   -3.4675    8.5163   -2.3090 H   0  0  0  0  0  0  0  0  0  0  0  0
   -3.0502    7.2906   -1.0396 H   0  0  0  0  0  0  0  0  0  0  0  0
   -4.9276    9.2172   -0.4415 H   0  0  0  0  0  0  0  0  0  0  0  0
   -5.2187    5.7112   -2.6045 H   0  0  0  0  0  0  0  0  0  0  0  0
   -6.5821    6.5186   -3.4508 H   0  0  0  0  0  0  0  0  0  0  0  0
   -4.9519    7.2731   -3.4508 H   0  0  0  0  0  0  0  0  0  0  0  0
   -7.6755    7.8507   -0.3444 H   0  0  0  0  0  0  0  0  0  0  0  0
   -7.6383    8.7687   -1.8880 H   0  0  0  0  0  0  0  0  0  0  0  0
   -8.0871    7.0293   -1.8880 H   0  0  0  0  0  0  0  0  0  0  0  0
   -1.4673   11.1159    0.0827 H   0  0  0  0  0  0  0  0  0  0  0  0
   -0.0662   10.5848    1.9781 H   0  0  0  0  0  0  0  0  0  0  0  0
    0.8092    9.3285    1.0769 H   0  0  0  0  0  0  0  0  0  0  0  0
    1.8072   11.9368    1.6857 H   0  0  0  0  0  0  0  0  0  0  0  0
    2.5219   10.8612    0.4878 H   0  0  0  0  0  0  0  0  0  0  0  0
    0.2607   13.2038    1.4841 H   0  0  0  0  0  0  0  0  0  0  0  0
    0.4504   14.3496    0.1138 H   0  0  0  0  0  0  0  0  0  0  0  0
   -0.9000   13.1651    0.1138 H   0  0  0  0  0  0  0  0  0  0  0  0
    2.7710   12.1607   -1.5399 H   0  0  0  0  0  0  0  0  0  0  0  0
    3.1825   13.5876    0.5645 H   0  0  0  0  0  0  0  0  0  0  0  0
    4.0162   13.9785   -1.0297 H   0  0  0  0  0  0  0  0  0  0  0  0
    3.1025   16.0327    0.3430 H   0  0  0  0  0  0  0  0  0  0  0  0
   -0.0473   14.8901   -1.9076 H   0  0  0  0  0  0  0  0  0  0  0  0
    1.9105   16.1607   -3.9205 H   0  0  0  0  0  0  0  0  0  0  0  0
    0.2860   15.4290   -4.2900 H   0  0  0  0  0  0  0  0  0  0  0  0
    0.2128   17.9019   -4.2538 H   0  0  0  0  0  0  0  0  0  0  0  0
   -0.8200   17.1460   -2.9779 H   0  0  0  0  0  0  0  0  0  0  0  0
    0.3399   19.0172   -2.0225 H   0  0  0  0  0  0  0  0  0  0  0  0
    2.8810   17.8590   -2.3560 H   0  0  0  0  0  0  0  0  0  0  0  0
   -0.1622   17.2376    0.8774 H   0  0  0  0  0  0  0  0  0  0  0  0
   -0.9276   18.0703   -0.5182 H   0  0  0  0  0  0  0  0  0  0  0  0
   -0.7659   16.2813   -0.5182 H   0  0  0  0  0  0  0  0  0  0  0  0
    1.7238   17.9670    1.0964 H   0  0  0  0  0  0  0  0  0  0  0  0
    3.0329   17.9890   -0.1334 H   0  0  0  0  0  0  0  0  0  0  0  0
    1.7789   19.2751   -0.1334 H   0  0  0  0  0  0  0  0  0  0  0  0
    3.7023   13.8478   -2.9813 H   0  0  0  0  0  0  0  0  0  0  0  0
    2.7794   12.8706   -4.1729 H   0  0  0  0  0  0  0  0  0  0  0  0
    2.6320   14.6608   -4.1729 H   0  0  0  0  0  0  0  0  0  0  0  0
   -0.1342   13.4405   -3.8735 H   0  0  0  0  0  0  0  0  0  0  0  0
    1.0331   12.0041   -3.7726 H   0  0  0  0  0  0  0  0  0  0  0  0
   -1.1766   12.7302   -1.8296 H   0  0  0  0  0  0  0  0  0  0  0  0
   -1.0560   11.2892   -2.9133 H   0  0  0  0  0  0  0  0  0  0  0  0
    1.6999    9.5841   -1.1799 H   0  0  0  0  0  0  0  0  0  0  0  0
    0.5577    9.5409   -2.5655 H   0  0  0  0  0  0  0  0  0  0  0  0
    1.9261   10.7046   -2.5655 H   0  0  0  0  0  0  0  0  0  0  0  0
  1  2  1  0
  2  3  1  0
  3  4  1  0
  4  5  1  0
  5  6  1  0
  6  7  1  0
  7  8  1  0
  7  9  1  0
  2 10  1  0
 10 11  1  0
 11 12  1  0
 12 13  1  0
 13 14  1  1
 13 15  1  0
 15 16  1  0
 16 17  1  0
 17 18  2  0
 18 19  1  0
 19 20  1  0
 20 21  1  0
 21 22  1  0
 22 23  1  0
 22 24  1  0
 24 25  1  0
 24 26  1  0
 19 27  1  0
 27 28  1  6
 27 29  1  0
 29 30  1  0
 30 31  1  0
 31 32  1  6
  7  5  1  0
 31 10  1  0
 31 13  1  0
 27 15  1  0
 24 18  1  0
  1 33  1  0
  1 34  1  0
  1 35  1  0
  2 36  1  1
  3 37  1  0
  3 38  1  0
  4 39  1  0
  4 40  1  0
  5 41  1  1
  8 42  1  0
  8 43  1  0
  8 44  1  0
  9 45  1  0
  9 46  1  0
  9 47  1  0
 10 48  1  1
 11 49  1  0
 11 50  1  0
 12 51  1  0
 12 52  1  0
 14 53  1  0
 14 54  1  0
 14 55  1  0
 15 56  1  6
 16 57  1  0
 16 58  1  0
 17 59  1  0
 19 60  1  1
 20 61  1  0
 20 62  1  0
 21 63  1  0
 21 64  1  0
 22 65  1  1
 23 66  1  0
 25 67  1  0
 25 68  1  0
 25 69  1  0
 26 70  1  0
 26 71  1  0
 26 72  1  0
 28 73  1  0
 28 74  1  0
 28 75  1  0
 29 76  1  0
 29 77  1  0
 30 78  1  0
 30 79  1  0
 32 80  1  0
 32 81  1  0
 32 82  1  0
M  END
>  <meeko>  (6) 
{"is_sidechain": [false], "intermolecular_energy": 2.731, "internal_energy": -0.839}

$$$$
EPH_relaxed_0001_pdb2pqr_Repair_313_r2_0001_out
     RDKit          3D

 82 86  0  0  0  0  0  0  0  0999 V2000
   -2.6330    7.7630   -2.6790 C   0  0  0  0  0  0  0  0  0  0  0  0
   -2.8710    8.1820   -1.2250 C   0  0  2  0  0  0  0  0  0  0  0  0
   -4.3720    8.3080   -0.8960 C   0  0  0  0  0  0  0  0  0  0  0  0
   -5.1530    7.0030   -1.0760 C   0  0  0  0  0  0  0  0  0  0  0  0
   -6.1390    7.0980   -2.2000 C   0  0  2  0  0  0  0  0  0  0  0  0
   -6.8710    8.3300   -2.2530 O   0  0  0  0  0  0  0  0  0  0  0  0
   -7.6420    7.1460   -1.9930 C   0  0  0  0  0  0  0  0  0  0  0  0
   -8.2430    7.0980   -0.6240 C   0  0  0  0  0  0  0  0  0  0  0  0
   -8.5330    6.7460   -3.1280 C   0  0  0  0  0  0  0  0  0  0  0  0
   -2.1640    9.5030   -0.9430 C   0  0  1  0  0  0  0  0  0  0  0  0
   -2.4460   10.0370    0.4870 C   0  0  0  0  0  0  0  0  0  0  0  0
   -1.1480   10.7380    0.9660 C   0  0  0  0  0  0  0  0  0  0  0  0
   -0.2850   10.8760   -0.3110 C   0  0  1  0  0  0  0  0  0  0  0  0
   -0.8470   12.1370   -1.0400 C   0  0  0  0  0  0  0  0  0  0  0  0
    1.2600   10.9760   -0.0930 C   0  0  2  0  0  0  0  0  0  0  0  0
    1.7280   12.2040    0.7060 C   0  0  0  0  0  0  0  0  0  0  0  0
    2.0490   13.4120   -0.1120 C   0  0  0  0  0  0  0  0  0  0  0  0
    2.2390   13.4260   -1.4440 C   0  0  0  0  0  0  0  0  0  0  0  0
    2.2330   12.1240   -2.2550 C   0  0  1  0  0  0  0  0  0  0  0  0
    3.4440   12.1120   -3.2250 C   0  0  0  0  0  0  0  0  0  0  0  0
    3.4940   13.3520   -4.1130 C   0  0  0  0  0  0  0  0  0  0  0  0
    3.5580   14.6240   -3.2700 C   0  0  2  0  0  0  0  0  0  0  0  0
    4.8100   14.6560   -2.5780 O   0  0  0  0  0  0  0  0  0  0  0  0
    2.3930   14.7410   -2.2480 C   0  0  0  0  0  0  0  0  0  0  0  0
    1.0660   15.0090   -3.0010 C   0  0  0  0  0  0  0  0  0  0  0  0
    2.6530   15.9930   -1.3690 C   0  0  0  0  0  0  0  0  0  0  0  0
    2.1140   10.7830   -1.4110 C   0  0  1  0  0  0  0  0  0  0  0  0
    3.5300   10.3110   -0.9590 C   0  0  0  0  0  0  0  0  0  0  0  0
    1.5400    9.6440   -2.3340 C   0  0  0  0  0  0  0  0  0  0  0  0
    0.0070    9.5200   -2.4140 C   0  0  0  0  0  0  0  0  0  0  0  0
   -0.6160    9.5100   -1.0150 C   0  0  2  0  0  0  0  0  0  0  0  0
   -0.0870    8.2400   -0.2650 C   0  0  0  0  0  0  0  0  0  0  0  0
   -2.0898    6.8067   -2.7008 H   0  0  0  0  0  0  0  0  0  0  0  0
   -3.6001    7.6471   -3.1902 H   0  0  0  0  0  0  0  0  0  0  0  0
   -2.0382    8.5343   -3.1902 H   0  0  0  0  0  0  0  0  0  0  0  0
   -2.4564    7.3928   -0.5806 H   0  0  0  0  0  0  0  0  0  0  0  0
   -4.4722    8.6312    0.1506 H   0  0  0  0  0  0  0  0  0  0  0  0
   -4.7961    9.0367   -1.6026 H   0  0  0  0  0  0  0  0  0  0  0  0
   -4.4440    6.1900   -1.2915 H   0  0  0  0  0  0  0  0  0  0  0  0
   -5.7091    6.8053   -0.1477 H   0  0  0  0  0  0  0  0  0  0  0  0
   -5.5019    6.4724   -2.8425 H   0  0  0  0  0  0  0  0  0  0  0  0
   -7.4442    7.1618    0.1296 H   0  0  0  0  0  0  0  0  0  0  0  0
   -8.9349    7.9437   -0.4974 H   0  0  0  0  0  0  0  0  0  0  0  0
   -8.7919    6.1532   -0.4974 H   0  0  0  0  0  0  0  0  0  0  0  0
   -9.4683    6.3261   -2.7295 H   0  0  0  0  0  0  0  0  0  0  0  0
   -8.7604    7.6284   -3.7442 H   0  0  0  0  0  0  0  0  0  0  0  0
   -8.0248    5.9897   -3.7442 H   0  0  0  0  0  0  0  0  0  0  0  0
   -2.5811   10.1141   -1.7569 H   0  0  0  0  0  0  0  0  0  0  0  0
   -3.2789   10.7552    0.4659 H   0  0  0  0  0  0  0  0  0  0  0  0
   -2.7271    9.2187    1.1662 H   0  0  0  0  0  0  0  0  0  0  0  0
   -1.3748   11.7272    1.3902 H   0  0  0  0  0  0  0  0  0  0  0  0
   -0.6351   10.1710    1.7569 H   0  0  0  0  0  0  0  0  0  0  0  0
   -1.1761   12.8755   -0.2941 H   0  0  0  0  0  0  0  0  0  0  0  0
   -0.0601   12.5776   -1.6698 H   0  0  0  0  0  0  0  0  0  0  0  0
   -1.7008   11.8464   -1.6698 H   0  0  0  0  0  0  0  0  0  0  0  0
    1.4645   10.1069    0.5496 H   0  0  0  0  0  0  0  0  0  0  0  0
    0.9296   12.4743    1.4128 H   0  0  0  0  0  0  0  0  0  0  0  0
    2.6679   11.9089    1.1955 H   0  0  0  0  0  0  0  0  0  0  0  0
    2.1375   14.3710    0.4194 H   0  0  0  0  0  0  0  0  0  0  0  0
    1.2951   12.1278   -2.8297 H   0  0  0  0  0  0  0  0  0  0  0  0
    4.3698   12.0647   -2.6328 H   0  0  0  0  0  0  0  0  0  0  0  0
    3.3381   11.2353   -3.8809 H   0  0  0  0  0  0  0  0  0  0  0  0
    4.3861   13.2998   -4.7545 H   0  0  0  0  0  0  0  0  0  0  0  0
    2.5811   13.3823   -4.7260 H   0  0  0  0  0  0  0  0  0  0  0  0
    3.4609   15.4790   -3.9553 H   0  0  0  0  0  0  0  0  0  0  0  0
    4.9370   13.7880   -2.1590 H   0  0  0  0  0  0  0  0  0  0  0  0
    0.2578   15.1722   -2.2729 H   0  0  0  0  0  0  0  0  0  0  0  0
    1.1768   15.9029   -3.6324 H   0  0  0  0  0  0  0  0  0  0  0  0
    0.8212   14.1422   -3.6324 H   0  0  0  0  0  0  0  0  0  0  0  0
    2.5950   15.7136   -0.3067 H   0  0  0  0  0  0  0  0  0  0  0  0
    3.6535   16.3938   -1.5886 H   0  0  0  0  0  0  0  0  0  0  0  0
    1.8948   16.7591   -1.5886 H   0  0  0  0  0  0  0  0  0  0  0  0
    3.5778   10.2951    0.1398 H   0  0  0  0  0  0  0  0  0  0  0  0
    3.7215    9.3004   -1.3490 H   0  0  0  0  0  0  0  0  0  0  0  0
    4.2895   11.0046   -1.3490 H   0  0  0  0  0  0  0  0  0  0  0  0
    1.9129    9.8225   -3.3534 H   0  0  0  0  0  0  0  0  0  0  0  0
    1.8808    8.7038   -1.8758 H   0  0  0  0  0  0  0  0  0  0  0  0
   -0.3940   10.3735   -2.9804 H   0  0  0  0  0  0  0  0  0  0  0  0
   -0.2426    8.5735   -2.9158 H   0  0  0  0  0  0  0  0  0  0  0  0
   -0.1541    8.4011    0.8211 H   0  0  0  0  0  0  0  0  0  0  0  0
   -0.6969    7.3683   -0.5448 H   0  0  0  0  0  0  0  0  0  0  0  0
    0.9613    8.0590   -0.5448 H   0  0  0  0  0  0  0  0  0  0  0  0
  1  2  1  0
  2  3  1  0
  3  4  1  0
  4  5  1  0
  5  6  1  0
  6  7  1  0
  7  8  1  0
  7  9  1  0
  2 10  1  0
 10 11  1  0
 11 12  1  0
 12 13  1  0
 13 14  1  6
 13 15  1  0
 15 16  1  0
 16 17  1  0
 17 18  2  0
 18 19  1  0
 19 20  1  0
 20 21  1  0
 21 22  1  0
 22 23  1  0
 22 24  1  0
 24 25  1  0
 24 26  1  0
 19 27  1  0
 27 28  1  1
 27 29  1  0
 29 30  1  0
 30 31  1  0
 31 32  1  1
  7  5  1  0
 31 10  1  0
 31 13  1  0
 27 15  1  0
 24 18  1  0
  1 33  1  0
  1 34  1  0
  1 35  1  0
  2 36  1  1
  3 37  1  0
  3 38  1  0
  4 39  1  0
  4 40  1  0
  5 41  1  6
  8 42  1  0
  8 43  1  0
  8 44  1  0
  9 45  1  0
  9 46  1  0
  9 47  1  0
 10 48  1  6
 11 49  1  0
 11 50  1  0
 12 51  1  0
 12 52  1  0
 14 53  1  0
 14 54  1  0
 14 55  1  0
 15 56  1  1
 16 57  1  0
 16 58  1  0
 17 59  1  0
 19 60  1  6
 20 61  1  0
 20 62  1  0
 21 63  1  0
 21 64  1  0
 22 65  1  6
 23 66  1  0
 25 67  1  0
 25 68  1  0
 25 69  1  0
 26 70  1  0
 26 71  1  0
 26 72  1  0
 28 73  1  0
 28 74  1  0
 28 75  1  0
 29 76  1  0
 29 77  1  0
 30 78  1  0
 30 79  1  0
 32 80  1  0
 32 81  1  0
 32 82  1  0
M  END
>  <meeko>  (7) 
{"is_sidechain": [false], "intermolecular_energy": 2.731, "internal_energy": -0.839}

$$$$
EPH_relaxed_0001_pdb2pqr_Repair_313_r2_0001_out
     RDKit          3D

 82 86  0  0  0  0  0  0  0  0999 V2000
   -0.9150    9.2570   -2.8500 C   0  0  0  0  0  0  0  0  0  0  0  0
    0.1780    8.9650   -1.8170 C   0  0  2  0  0  0  0  0  0  0  0  0
   -0.4030    8.7380   -0.4070 C   0  0  0  0  0  0  0  0  0  0  0  0
   -0.8570   10.0260    0.2860 C   0  0  0  0  0  0  0  0  0  0  0  0
    0.1740   10.5320    1.2490 C   0  0  2  0  0  0  0  0  0  0  0  0
   -0.3390   11.3750    2.2880 O   0  0  0  0  0  0  0  0  0  0  0  0
    0.5690   11.9920    1.3610 C   0  0  0  0  0  0  0  0  0  0  0  0
   -0.0610   13.0390    0.4970 C   0  0  0  0  0  0  0  0  0  0  0  0
    1.9000   12.3300    1.9560 C   0  0  0  0  0  0  0  0  0  0  0  0
    1.1840   10.1090   -1.7890 C   0  0  1  0  0  0  0  0  0  0  0  0
    2.6260    9.6450   -2.1270 C   0  0  0  0  0  0  0  0  0  0  0  0
    3.2970   10.8030   -2.9090 C   0  0  0  0  0  0  0  0  0  0  0  0
    2.3500   12.0090   -2.7090 C   0  0  1  0  0  0  0  0  0  0  0  0
    2.7170   12.5780   -1.3030 C   0  0  0  0  0  0  0  0  0  0  0  0
    2.3990   13.1170   -3.8110 C   0  0  2  0  0  0  0  0  0  0  0  0
    3.7530   13.8340   -3.9550 C   0  0  0  0  0  0  0  0  0  0  0  0
    3.9190   15.0570   -3.1150 C   0  0  0  0  0  0  0  0  0  0  0  0
    2.9250   15.7220   -2.4960 C   0  0  0  0  0  0  0  0  0  0  0  0
    1.4610   15.3090   -2.6910 C   0  0  1  0  0  0  0  0  0  0  0  0
    0.6000   16.5690   -2.9670 C   0  0  0  0  0  0  0  0  0  0  0  0
    0.7660   17.6390   -1.8920 C   0  0  0  0  0  0  0  0  0  0  0  0
    2.2270   18.0650   -1.7680 C   0  0  2  0  0  0  0  0  0  0  0  0
    2.6140   18.7360   -2.9710 O   0  0  0  0  0  0  0  0  0  0  0  0
    3.1910   16.8760   -1.4990 C   0  0  0  0  0  0  0  0  0  0  0  0
    2.9680   16.3400   -0.0630 C   0  0  0  0  0  0  0  0  0  0  0  0
    4.6440   17.4220   -1.5370 C   0  0  0  0  0  0  0  0  0  0  0  0
    1.2020   14.1490   -3.7470 C   0  0  1  0  0  0  0  0  0  0  0  0
    1.0580   14.7540   -5.1770 C   0  0  0  0  0  0  0  0  0  0  0  0
   -0.1720   13.4530   -3.4190 C   0  0  0  0  0  0  0  0  0  0  0  0
   -0.1370   12.2870   -2.4130 C   0  0  0  0  0  0  0  0  0  0  0  0
    0.9590   11.2800   -2.7770 C   0  0  2  0  0  0  0  0  0  0  0  0
    0.6040   10.6740   -4.1780 C   0  0  0  0  0  0  0  0  0  0  0  0
   -1.8522    9.5074   -2.3314 H   0  0  0  0  0  0  0  0  0  0  0  0
   -0.6070   10.1044   -3.4802 H   0  0  0  0  0  0  0  0  0  0  0  0
   -1.0706    8.3689   -3.4802 H   0  0  0  0  0  0  0  0  0  0  0  0
    0.6815    8.0351   -2.1198 H   0  0  0  0  0  0  0  0  0  0  0  0
   -1.2693    8.0656   -0.4924 H   0  0  0  0  0  0  0  0  0  0  0  0
    0.4022    8.3088    0.2074 H   0  0  0  0  0  0  0  0  0  0  0  0
   -1.0394   10.7962   -0.4778 H   0  0  0  0  0  0  0  0  0  0  0  0
   -1.7744    9.8054    0.8514 H   0  0  0  0  0  0  0  0  0  0  0  0
    0.7683    9.6139    1.1307 H   0  0  0  0  0  0  0  0  0  0  0  0
   -0.5241   13.8086    1.1321 H   0  0  0  0  0  0  0  0  0  0  0  0
    0.7086   13.5021   -0.1381 H   0  0  0  0  0  0  0  0  0  0  0  0
   -0.8306   12.5759   -0.1381 H   0  0  0  0  0  0  0  0  0  0  0  0
    1.8265   12.3113    3.0534 H   0  0  0  0  0  0  0  0  0  0  0  0
    2.6470   11.5930    1.6260 H   0  0  0  0  0  0  0  0  0  0  0  0
    2.2048   13.3341    1.6260 H   0  0  0  0  0  0  0  0  0  0  0  0
    1.0379   10.4561   -0.7555 H   0  0  0  0  0  0  0  0  0  0  0  0
    3.1843    9.4393   -1.2018 H   0  0  0  0  0  0  0  0  0  0  0  0
    2.6138    8.7208   -2.7234 H   0  0  0  0  0  0  0  0  0  0  0  0
    4.2947   11.0207   -2.5002 H   0  0  0  0  0  0  0  0  0  0  0  0
    3.4431   10.5591   -3.9716 H   0  0  0  0  0  0  0  0  0  0  0  0
    2.2968   11.9265   -0.5227 H   0  0  0  0  0  0  0  0  0  0  0  0
    3.8112   12.6175   -1.1976 H   0  0  0  0  0  0  0  0  0  0  0  0
    2.3017   13.5911   -1.1976 H   0  0  0  0  0  0  0  0  0  0  0  0
    2.2688   12.5357   -4.7357 H   0  0  0  0  0  0  0  0  0  0  0  0
    4.5455   13.1224   -3.6799 H   0  0  0  0  0  0  0  0  0  0  0  0
    3.8086   14.1726   -5.0001 H   0  0  0  0  0  0  0  0  0  0  0  0
    4.9397   15.4480   -2.9912 H   0  0  0  0  0  0  0  0  0  0  0  0
    1.1480   14.8431   -1.7450 H   0  0  0  0  0  0  0  0  0  0  0  0
    0.8983   16.9943   -3.9366 H   0  0  0  0  0  0  0  0  0  0  0  0
   -0.4552   16.2582   -2.9682 H   0  0  0  0  0  0  0  0  0  0  0  0
    0.1568   18.5152   -2.1589 H   0  0  0  0  0  0  0  0  0  0  0  0
    0.4384   17.2224   -0.9281 H   0  0  0  0  0  0  0  0  0  0  0  0
    2.3038   18.7333   -0.8977 H   0  0  0  0  0  0  0  0  0  0  0  0
    2.1280   19.5770   -3.0090 H   0  0  0  0  0  0  0  0  0  0  0  0
    3.2845   17.1008    0.6656 H   0  0  0  0  0  0  0  0  0  0  0  0
    1.9013   16.1143    0.0826 H   0  0  0  0  0  0  0  0  0  0  0  0
    3.5598   15.4243    0.0826 H   0  0  0  0  0  0  0  0  0  0  0  0
    5.0109   17.5599   -0.5092 H   0  0  0  0  0  0  0  0  0  0  0  0
    5.2912   16.7057   -2.0644 H   0  0  0  0  0  0  0  0  0  0  0  0
    4.6593   18.3872   -2.0644 H   0  0  0  0  0  0  0  0  0  0  0  0
    0.8039   15.8215   -5.0996 H   0  0  0  0  0  0  0  0  0  0  0  0
    2.0080   14.6416   -5.7200 H   0  0  0  0  0  0  0  0  0  0  0  0
    0.2605   14.2257   -5.7200 H   0  0  0  0  0  0  0  0  0  0  0  0
   -0.8463   14.2219   -3.0139 H   0  0  0  0  0  0  0  0  0  0  0  0
   -0.5015   13.0047   -4.3680 H   0  0  0  0  0  0  0  0  0  0  0  0
    0.0606   12.6857   -1.4070 H   0  0  0  0  0  0  0  0  0  0  0  0
   -1.1087   11.7721   -2.4396 H   0  0  0  0  0  0  0  0  0  0  0  0
    0.0523    9.7323   -4.0410 H   0  0  0  0  0  0  0  0  0  0  0  0
   -0.0197   11.3862   -4.7382 H   0  0  0  0  0  0  0  0  0  0  0  0
    1.5302   10.4782   -4.7382 H   0  0  0  0  0  0  0  0  0  0  0  0
  1  2  1  0
  2  3  1  0
  3  4  1  0
  4  5  1  0
  5  6  1  0
  6  7  1  0
  7  8  1  0
  7  9  1  0
  2 10  1  0
 10 11  1  0
 11 12  1  0
 12 13  1  0
 13 14  1  1
 13 15  1  0
 15 16  1  0
 16 17  1  0
 17 18  2  0
 18 19  1  0
 19 20  1  0
 20 21  1  0
 21 22  1  0
 22 23  1  0
 22 24  1  0
 24 25  1  0
 24 26  1  0
 19 27  1  0
 27 28  1  6
 27 29  1  0
 29 30  1  0
 30 31  1  0
 31 32  1  6
  7  5  1  0
 31 10  1  0
 31 13  1  0
 27 15  1  0
 24 18  1  0
  1 33  1  0
  1 34  1  0
  1 35  1  0
  2 36  1  6
  3 37  1  0
  3 38  1  0
  4 39  1  0
  4 40  1  0
  5 41  1  1
  8 42  1  0
  8 43  1  0
  8 44  1  0
  9 45  1  0
  9 46  1  0
  9 47  1  0
 10 48  1  1
 11 49  1  0
 11 50  1  0
 12 51  1  0
 12 52  1  0
 14 53  1  0
 14 54  1  0
 14 55  1  0
 15 56  1  6
 16 57  1  0
 16 58  1  0
 17 59  1  0
 19 60  1  1
 20 61  1  0
 20 62  1  0
 21 63  1  0
 21 64  1  0
 22 65  1  1
 23 66  1  0
 25 67  1  0
 25 68  1  0
 25 69  1  0
 26 70  1  0
 26 71  1  0
 26 72  1  0
 28 73  1  0
 28 74  1  0
 28 75  1  0
 29 76  1  0
 29 77  1  0
 30 78  1  0
 30 79  1  0
 32 80  1  0
 32 81  1  0
 32 82  1  0
M  END
>  <meeko>  (8) 
{"is_sidechain": [false], "intermolecular_energy": 2.731, "internal_energy": -0.839}

$$$$
EPH_relaxed_0001_pdb2pqr_Repair_313_r2_0001_out
     RDKit          3D

 82 86  0  0  0  0  0  0  0  0999 V2000
    3.6090   17.7390   -1.6110 C   0  0  0  0  0  0  0  0  0  0  0  0
    2.5230   17.2870   -2.5910 C   0  0  2  0  0  0  0  0  0  0  0  0
    1.1260   17.7980   -2.1850 C   0  0  0  0  0  0  0  0  0  0  0  0
    1.1340   18.6920   -0.9420 C   0  0  0  0  0  0  0  0  0  0  0  0
   -0.0680   19.5850   -0.8930 C   0  0  2  0  0  0  0  0  0  0  0  0
   -0.3540   20.1330    0.4000 O   0  0  0  0  0  0  0  0  0  0  0  0
   -1.3390   19.2370   -0.1400 C   0  0  0  0  0  0  0  0  0  0  0  0
   -1.4710   17.9520    0.6160 C   0  0  0  0  0  0  0  0  0  0  0  0
   -2.6140   19.9120   -0.5380 C   0  0  0  0  0  0  0  0  0  0  0  0
    2.5120   15.7660   -2.6890 C   0  0  1  0  0  0  0  0  0  0  0  0
    3.9190   15.1760   -2.9750 C   0  0  0  0  0  0  0  0  0  0  0  0
    4.0010   13.8260   -2.2170 C   0  0  0  0  0  0  0  0  0  0  0  0
    2.5420   13.5250   -1.7990 C   0  0  1  0  0  0  0  0  0  0  0  0
    1.8780   12.9140   -3.0720 C   0  0  0  0  0  0  0  0  0  0  0  0
    2.3580   12.6000   -0.5510 C   0  0  2  0  0  0  0  0  0  0  0  0
    2.9130   11.1740   -0.7090 C   0  0  0  0  0  0  0  0  0  0  0  0
    1.9470   10.1700   -1.2450 C   0  0  0  0  0  0  0  0  0  0  0  0
    0.6130   10.3300   -1.3200 C   0  0  0  0  0  0  0  0  0  0  0  0
   -0.0640   11.5810   -0.7450 C   0  0  1  0  0  0  0  0  0  0  0  0
   -1.3010   11.1630    0.0920 C   0  0  0  0  0  0  0  0  0  0  0  0
   -2.2700   10.2860   -0.6950 C   0  0  0  0  0  0  0  0  0  0  0  0
   -1.5750    9.0240   -1.2010 C   0  0  2  0  0  0  0  0  0  0  0  0
   -1.2240    8.2100   -0.0780 O   0  0  0  0  0  0  0  0  0  0  0  0
   -0.3070    9.3200   -2.0490 C   0  0  0  0  0  0  0  0  0  0  0  0
   -0.7230    9.9350   -3.4090 C   0  0  0  0  0  0  0  0  0  0  0  0
    0.3760    7.9650   -2.3770 C   0  0  0  0  0  0  0  0  0  0  0  0
    0.8880   12.5870    0.0350 C   0  0  1  0  0  0  0  0  0  0  0  0
    1.0080   12.1570    1.5280 C   0  0  0  0  0  0  0  0  0  0  0  0
    0.2320   14.0190    0.0360 C   0  0  0  0  0  0  0  0  0  0  0  0
    0.5480   14.9290   -1.1660 C   0  0  0  0  0  0  0  0  0  0  0  0
    2.0550   14.9750   -1.4370 C   0  0  2  0  0  0  0  0  0  0  0  0
    2.7480   15.6060   -0.1820 C   0  0  0  0  0  0  0  0  0  0  0  0
    3.2562   17.5922   -0.5795 H   0  0  0  0  0  0  0  0  0  0  0  0
    4.5206   17.1456   -1.7747 H   0  0  0  0  0  0  0  0  0  0  0  0
    3.8304   18.8040   -1.7747 H   0  0  0  0  0  0  0  0  0  0  0  0
    2.7616   17.7215   -3.5730 H   0  0  0  0  0  0  0  0  0  0  0  0
    0.7097   18.3743   -3.0244 H   0  0  0  0  0  0  0  0  0  0  0  0
    0.5191   16.9137   -1.9406 H   0  0  0  0  0  0  0  0  0  0  0  0
    1.1416   18.0552   -0.0451 H   0  0  0  0  0  0  0  0  0  0  0  0
    2.0312   19.3271   -0.9826 H   0  0  0  0  0  0  0  0  0  0  0  0
    0.1095   19.9199   -1.9256 H   0  0  0  0  0  0  0  0  0  0  0  0
   -1.4498   18.1583    1.6963 H   0  0  0  0  0  0  0  0  0  0  0  0
   -2.4235   17.4684    0.3537 H   0  0  0  0  0  0  0  0  0  0  0  0
   -0.6367   17.2849    0.3537 H   0  0  0  0  0  0  0  0  0  0  0  0
   -3.1701   20.2064    0.3642 H   0  0  0  0  0  0  0  0  0  0  0  0
   -2.3843   20.8066   -1.1354 H   0  0  0  0  0  0  0  0  0  0  0  0
   -3.2247   19.2191   -1.1354 H   0  0  0  0  0  0  0  0  0  0  0  0
    1.7813   15.6391   -3.5014 H   0  0  0  0  0  0  0  0  0  0  0  0
    4.0487   15.0124   -4.0550 H   0  0  0  0  0  0  0  0  0  0  0  0
    4.7105   15.8639   -2.6429 H   0  0  0  0  0  0  0  0  0  0  0  0
    4.3879   13.0339   -2.8749 H   0  0  0  0  0  0  0  0  0  0  0  0
    4.6815   13.8724   -1.3540 H   0  0  0  0  0  0  0  0  0  0  0  0
    1.0994   12.1975   -2.7714 H   0  0  0  0  0  0  0  0  0  0  0  0
    1.4251   13.7178   -3.6710 H   0  0  0  0  0  0  0  0  0  0  0  0
    2.6414   12.3960   -3.6710 H   0  0  0  0  0  0  0  0  0  0  0  0
    2.9965   13.0874    0.2005 H   0  0  0  0  0  0  0  0  0  0  0  0
    3.7728   11.2177   -1.3937 H   0  0  0  0  0  0  0  0  0  0  0  0
    3.1739   10.8348    0.3043 H   0  0  0  0  0  0  0  0  0  0  0  0
    2.3609    9.2183   -1.6097 H   0  0  0  0  0  0  0  0  0  0  0  0
   -0.3846   12.1783   -1.6113 H   0  0  0  0  0  0  0  0  0  0  0  0
   -0.9570   10.6042    0.9749 H   0  0  0  0  0  0  0  0  0  0  0  0
   -1.8369   12.0803    0.3773 H   0  0  0  0  0  0  0  0  0  0  0  0
   -3.1073    9.9988   -0.0420 H   0  0  0  0  0  0  0  0  0  0  0  0
   -2.6363   10.8567   -1.5611 H   0  0  0  0  0  0  0  0  0  0  0  0
   -2.2804    8.5027   -1.8649 H   0  0  0  0  0  0  0  0  0  0  0  0
   -0.6960    7.4640   -0.4090 H   0  0  0  0  0  0  0  0  0  0  0  0
   -1.3314   10.8345   -3.2339 H   0  0  0  0  0  0  0  0  0  0  0  0
    0.1775   10.2068   -3.9793 H   0  0  0  0  0  0  0  0  0  0  0  0
   -1.3104    9.2003   -3.9793 H   0  0  0  0  0  0  0  0  0  0  0  0
    0.6359    7.4493   -1.4408 H   0  0  0  0  0  0  0  0  0  0  0  0
   -0.3140    7.3385   -2.9613 H   0  0  0  0  0  0  0  0  0  0  0  0
    1.2900    8.1471   -2.9613 H   0  0  0  0  0  0  0  0  0  0  0  0
    0.7692   13.0129    2.1764 H   0  0  0  0  0  0  0  0  0  0  0  0
    0.3047   11.3359    1.7307 H   0  0  0  0  0  0  0  0  0  0  0  0
    2.0349   11.8187    1.7307 H   0  0  0  0  0  0  0  0  0  0  0  0
   -0.8592   13.8851    0.0741 H   0  0  0  0  0  0  0  0  0  0  0  0
    0.6643   14.5328    0.9073 H   0  0  0  0  0  0  0  0  0  0  0  0
    0.0338   14.5398   -2.0571 H   0  0  0  0  0  0  0  0  0  0  0  0
    0.2016   15.9473   -0.9359 H   0  0  0  0  0  0  0  0  0  0  0  0
    2.2958   15.1943    0.7323 H   0  0  0  0  0  0  0  0  0  0  0  0
    3.8221   15.3693   -0.1985 H   0  0  0  0  0  0  0  0  0  0  0  0
    2.6127   16.6975   -0.1985 H   0  0  0  0  0  0  0  0  0  0  0  0
  1  2  1  0
  2  3  1  0
  3  4  1  0
  4  5  1  0
  5  6  1  0
  6  7  1  0
  7  8  1  0
  7  9  1  0
  2 10  1  0
 10 11  1  0
 11 12  1  0
 12 13  1  0
 13 14  1  6
 13 15  1  0
 15 16  1  0
 16 17  1  0
 17 18  2  0
 18 19  1  0
 19 20  1  0
 20 21  1  0
 21 22  1  0
 22 23  1  0
 22 24  1  0
 24 25  1  0
 24 26  1  0
 19 27  1  0
 27 28  1  1
 27 29  1  0
 29 30  1  0
 30 31  1  0
 31 32  1  1
  7  5  1  0
 31 10  1  0
 31 13  1  0
 27 15  1  0
 24 18  1  0
  1 33  1  0
  1 34  1  0
  1 35  1  0
  2 36  1  6
  3 37  1  0
  3 38  1  0
  4 39  1  0
  4 40  1  0
  5 41  1  6
  8 42  1  0
  8 43  1  0
  8 44  1  0
  9 45  1  0
  9 46  1  0
  9 47  1  0
 10 48  1  6
 11 49  1  0
 11 50  1  0
 12 51  1  0
 12 52  1  0
 14 53  1  0
 14 54  1  0
 14 55  1  0
 15 56  1  1
 16 57  1  0
 16 58  1  0
 17 59  1  0
 19 60  1  6
 20 61  1  0
 20 62  1  0
 21 63  1  0
 21 64  1  0
 22 65  1  6
 23 66  1  0
 25 67  1  0
 25 68  1  0
 25 69  1  0
 26 70  1  0
 26 71  1  0
 26 72  1  0
 28 73  1  0
 28 74  1  0
 28 75  1  0
 29 76  1  0
 29 77  1  0
 30 78  1  0
 30 79  1  0
 32 80  1  0
 32 81  1  0
 32 82  1  0
M  END
>  <meeko>  (9) 
{"is_sidechain": [false], "intermolecular_energy": 2.731, "internal_energy": -0.839}

$$$$
EPH_relaxed_0001_pdb2pqr_Repair_313_r2_0001_out
     RDKit          3D

 82 86  0  0  0  0  0  0  0  0999 V2000
    5.6650   14.8540   -2.7120 C   0  0  0  0  0  0  0  0  0  0  0  0
    4.5920   15.9360   -2.5580 C   0  0  2  0  0  0  0  0  0  0  0  0
    5.0460   17.0740   -1.6220 C   0  0  0  0  0  0  0  0  0  0  0  0
    3.9840   18.1580   -1.4120 C   0  0  0  0  0  0  0  0  0  0  0  0
    4.0010   18.6860   -0.0100 C   0  0  2  0  0  0  0  0  0  0  0  0
    3.2250   17.9250    0.9260 O   0  0  0  0  0  0  0  0  0  0  0  0
    2.7820   19.2700    0.6790 C   0  0  0  0  0  0  0  0  0  0  0  0
    1.4600   19.3570   -0.0170 C   0  0  0  0  0  0  0  0  0  0  0  0
    2.9890   20.1940    1.8380 C   0  0  0  0  0  0  0  0  0  0  0  0
    3.3000   15.3160   -2.0370 C   0  0  1  0  0  0  0  0  0  0  0  0
    2.1280   16.3320   -1.9900 C   0  0  0  0  0  0  0  0  0  0  0  0
    0.8380   15.5420   -2.3300 C   0  0  0  0  0  0  0  0  0  0  0  0
    1.2550   14.0550   -2.2340 C   0  0  1  0  0  0  0  0  0  0  0  0
    1.2070   13.7230   -0.7100 C   0  0  0  0  0  0  0  0  0  0  0  0
    0.4060   13.0440   -3.0720 C   0  0  2  0  0  0  0  0  0  0  0  0
   -1.0780   12.9530   -2.6770 C   0  0  0  0  0  0  0  0  0  0  0  0
   -1.4000   11.9300   -1.6390 C   0  0  0  0  0  0  0  0  0  0  0  0
   -0.5910   10.9260   -1.2530 C   0  0  0  0  0  0  0  0  0  0  0  0
    0.7550   10.6860   -1.9500 C   0  0  1  0  0  0  0  0  0  0  0  0
    0.9120    9.1760   -2.2670 C   0  0  0  0  0  0  0  0  0  0  0  0
    0.7300    8.2980   -1.0320 C   0  0  0  0  0  0  0  0  0  0  0  0
   -0.6410    8.5220   -0.4010 C   0  0  2  0  0  0  0  0  0  0  0  0
   -1.6470    8.0460   -1.3020 O   0  0  0  0  0  0  0  0  0  0  0  0
   -0.9180   10.0100   -0.0480 C   0  0  0  0  0  0  0  0  0  0  0  0
   -0.0240   10.4370    1.1430 C   0  0  0  0  0  0  0  0  0  0  0  0
   -2.3850   10.1180    0.4490 C   0  0  0  0  0  0  0  0  0  0  0  0
    1.0570   11.6080   -3.2090 C   0  0  1  0  0  0  0  0  0  0  0  0
    0.4540   10.9670   -4.4960 C   0  0  0  0  0  0  0  0  0  0  0  0
    2.6140   11.6760   -3.4350 C   0  0  0  0  0  0  0  0  0  0  0  0
    3.3790   12.7730   -2.6700 C   0  0  0  0  0  0  0  0  0  0  0  0
    2.7020   14.1360   -2.8420 C   0  0  2  0  0  0  0  0  0  0  0  0
    2.7550   14.5070   -4.3640 C   0  0  0  0  0  0  0  0  0  0  0  0
    5.9953   14.5209   -1.7170 H   0  0  0  0  0  0  0  0  0  0  0  0
    5.2474   13.9996   -3.2648 H   0  0  0  0  0  0  0  0  0  0  0  0
    6.5229   15.2644   -3.2648 H   0  0  0  0  0  0  0  0  0  0  0  0
    4.4190   16.3752   -3.5515 H   0  0  0  0  0  0  0  0  0  0  0  0
    5.2972   16.6395   -0.6432 H   0  0  0  0  0  0  0  0  0  0  0  0
    5.9103   17.5584   -2.0999 H   0  0  0  0  0  0  0  0  0  0  0  0
    4.1788   18.9875   -2.1077 H   0  0  0  0  0  0  0  0  0  0  0  0
    2.9963   17.7111   -1.5982 H   0  0  0  0  0  0  0  0  0  0  0  0
    5.0264   19.0627   -0.1393 H   0  0  0  0  0  0  0  0  0  0  0  0
    0.6548   19.4100    0.7306 H   0  0  0  0  0  0  0  0  0  0  0  0
    1.4357   20.2587   -0.6466 H   0  0  0  0  0  0  0  0  0  0  0  0
    1.3178   18.4663   -0.6466 H   0  0  0  0  0  0  0  0  0  0  0  0
    2.8641   19.6367    2.7781 H   0  0  0  0  0  0  0  0  0  0  0  0
    4.0039   20.6159    1.7939 H   0  0  0  0  0  0  0  0  0  0  0  0
    2.2511   21.0086    1.7939 H   0  0  0  0  0  0  0  0  0  0  0  0
    3.6474   14.9624   -1.0550 H   0  0  0  0  0  0  0  0  0  0  0  0
    2.0487   16.7727   -0.9853 H   0  0  0  0  0  0  0  0  0  0  0  0
    2.2881   17.1533   -2.7040 H   0  0  0  0  0  0  0  0  0  0  0  0
    0.0412   15.7695   -1.6066 H   0  0  0  0  0  0  0  0  0  0  0  0
    0.4395   15.8005   -3.3221 H   0  0  0  0  0  0  0  0  0  0  0  0
    1.3406   14.6474   -0.1290 H   0  0  0  0  0  0  0  0  0  0  0  0
    0.2344   13.2723   -0.4634 H   0  0  0  0  0  0  0  0  0  0  0  0
    2.0122   13.0153   -0.4634 H   0  0  0  0  0  0  0  0  0  0  0  0
    0.4207   13.4980   -4.0738 H   0  0  0  0  0  0  0  0  0  0  0  0
   -1.3884   13.9360   -2.2932 H   0  0  0  0  0  0  0  0  0  0  0  0
   -1.6163   12.6446   -3.5854 H   0  0  0  0  0  0  0  0  0  0  0  0
   -2.3816   12.0028   -1.1479 H   0  0  0  0  0  0  0  0  0  0  0  0
    1.5288   10.9993   -1.2337 H   0  0  0  0  0  0  0  0  0  0  0  0
    0.1578    8.8924   -3.0158 H   0  0  0  0  0  0  0  0  0  0  0  0
    1.9338    9.0176   -2.6423 H   0  0  0  0  0  0  0  0  0  0  0  0
    0.8235    7.2417   -1.3243 H   0  0  0  0  0  0  0  0  0  0  0  0
    1.5030    8.5632   -0.2957 H   0  0  0  0  0  0  0  0  0  0  0  0
   -0.6617    7.9658    0.5478 H   0  0  0  0  0  0  0  0  0  0  0  0
   -2.3900    8.6720   -1.2690 H   0  0  0  0  0  0  0  0  0  0  0  0
   -0.5319   10.1944    2.0881 H   0  0  0  0  0  0  0  0  0  0  0  0
    0.9344    9.8994    1.0933 H   0  0  0  0  0  0  0  0  0  0  0  0
    0.1602   11.5203    1.0933 H   0  0  0  0  0  0  0  0  0  0  0  0
   -2.4004   10.1191    1.5489 H   0  0  0  0  0  0  0  0  0  0  0  0
   -2.8310   11.0514    0.0751 H   0  0  0  0  0  0  0  0  0  0  0  0
   -2.9629    9.2600    0.0751 H   0  0  0  0  0  0  0  0  0  0  0  0
   -0.2744   10.1927   -4.2133 H   0  0  0  0  0  0  0  0  0  0  0  0
   -0.0487   11.7434   -5.0914 H   0  0  0  0  0  0  0  0  0  0  0  0
    1.2597   10.5126   -5.0914 H   0  0  0  0  0  0  0  0  0  0  0  0
    3.0365   10.7053   -3.1361 H   0  0  0  0  0  0  0  0  0  0  0  0
    2.7401   11.9252   -4.4989 H   0  0  0  0  0  0  0  0  0  0  0  0
    3.4032   12.5157   -1.6008 H   0  0  0  0  0  0  0  0  0  0  0  0
    4.4000   12.8353   -3.0746 H   0  0  0  0  0  0  0  0  0  0  0  0
    2.9098   15.5907   -4.4721 H   0  0  0  0  0  0  0  0  0  0  0  0
    3.5853   13.9683   -4.8440 H   0  0  0  0  0  0  0  0  0  0  0  0
    1.8071   14.2224   -4.8440 H   0  0  0  0  0  0  0  0  0  0  0  0
  1  2  1  0
  2  3  1  0
  3  4  1  0
  4  5  1  0
  5  6  1  0
  6  7  1  0
  7  8  1  0
  7  9  1  0
  2 10  1  0
 10 11  1  0
 11 12  1  0
 12 13  1  0
 13 14  1  1
 13 15  1  0
 15 16  1  0
 16 17  1  0
 17 18  2  0
 18 19  1  0
 19 20  1  0
 20 21  1  0
 21 22  1  0
 22 23  1  0
 22 24  1  0
 24 25  1  0
 24 26  1  0
 19 27  1  0
 27 28  1  6
 27 29  1  0
 29 30  1  0
 30 31  1  0
 31 32  1  6
  7  5  1  0
 31 10  1  0
 31 13  1  0
 27 15  1  0
 24 18  1  0
  1 33  1  0
  1 34  1  0
  1 35  1  0
  2 36  1  6
  3 37  1  0
  3 38  1  0
  4 39  1  0
  4 40  1  0
  5 41  1  1
  8 42  1  0
  8 43  1  0
  8 44  1  0
  9 45  1  0
  9 46  1  0
  9 47  1  0
 10 48  1  1
 11 49  1  0
 11 50  1  0
 12 51  1  0
 12 52  1  0
 14 53  1  0
 14 54  1  0
 14 55  1  0
 15 56  1  6
 16 57  1  0
 16 58  1  0
 17 59  1  0
 19 60  1  1
 20 61  1  0
 20 62  1  0
 21 63  1  0
 21 64  1  0
 22 65  1  1
 23 66  1  0
 25 67  1  0
 25 68  1  0
 25 69  1  0
 26 70  1  0
 26 71  1  0
 26 72  1  0
 28 73  1  0
 28 74  1  0
 28 75  1  0
 29 76  1  0
 29 77  1  0
 30 78  1  0
 30 79  1  0
 32 80  1  0
 32 81  1  0
 32 82  1  0
M  END
>  <meeko>  (10) 
{"is_sidechain": [false], "intermolecular_energy": 2.731, "internal_energy": -0.839}

$$$$
EPH_relaxed_0001_pdb2pqr_Repair_313_r2_0001_out
     RDKit          3D

 82 86  0  0  0  0  0  0  0  0999 V2000
    0.1210   10.2640   -3.5060 C   0  0  0  0  0  0  0  0  0  0  0  0
    1.1880   10.1150   -2.4190 C   0  0  2  0  0  0  0  0  0  0  0  0
    0.9420    8.8810   -1.5280 C   0  0  0  0  0  0  0  0  0  0  0  0
    0.1710    9.1930   -0.2430 C   0  0  0  0  0  0  0  0  0  0  0  0
   -1.2450    8.7070   -0.3130 C   0  0  2  0  0  0  0  0  0  0  0  0
   -1.8280    8.7510   -1.6220 O   0  0  0  0  0  0  0  0  0  0  0  0
   -2.4230    9.6080   -0.6340 C   0  0  0  0  0  0  0  0  0  0  0  0
   -2.2390   11.0680   -0.9040 C   0  0  0  0  0  0  0  0  0  0  0  0
   -3.7910    9.1750   -0.2060 C   0  0  0  0  0  0  0  0  0  0  0  0
    1.2360   11.3750   -1.5620 C   0  0  1  0  0  0  0  0  0  0  0  0
    2.1130   11.2020   -0.2940 C   0  0  0  0  0  0  0  0  0  0  0  0
    2.7960   12.5690   -0.0320 C   0  0  0  0  0  0  0  0  0  0  0  0
    2.0430   13.5630   -0.9470 C   0  0  1  0  0  0  0  0  0  0  0  0
    0.7410   13.9210   -0.1630 C   0  0  0  0  0  0  0  0  0  0  0  0
    2.8310   14.8440   -1.3730 C   0  0  2  0  0  0  0  0  0  0  0  0
    3.2420   15.7720   -0.2170 C   0  0  0  0  0  0  0  0  0  0  0  0
    2.2540   16.8360    0.1290 C   0  0  0  0  0  0  0  0  0  0  0  0
    1.2180   17.2210   -0.6400 C   0  0  0  0  0  0  0  0  0  0  0  0
    1.0170   16.6330   -2.0420 C   0  0  1  0  0  0  0  0  0  0  0  0
    0.7180   17.7770   -3.0460 C   0  0  0  0  0  0  0  0  0  0  0  0
   -0.4530   18.6510   -2.6060 C   0  0  0  0  0  0  0  0  0  0  0  0
   -0.1900   19.2640   -1.2330 C   0  0  2  0  0  0  0  0  0  0  0  0
    0.8960   20.1900   -1.3430 O   0  0  0  0  0  0  0  0  0  0  0  0
    0.1330   18.2070   -0.1410 C   0  0  0  0  0  0  0  0  0  0  0  0
   -1.1440   17.3950    0.1920 C   0  0  0  0  0  0  0  0  0  0  0  0
    0.5170   18.9640    1.1590 C   0  0  0  0  0  0  0  0  0  0  0  0
    2.1600   15.6550   -2.5550 C   0  0  1  0  0  0  0  0  0  0  0  0
    3.2980   16.4760   -3.2340 C   0  0  0  0  0  0  0  0  0  0  0  0
    1.5680   14.7110   -3.6680 C   0  0  0  0  0  0  0  0  0  0  0  0
    0.9080   13.4030   -3.1910 C   0  0  0  0  0  0  0  0  0  0  0  0
    1.8170   12.6560   -2.2110 C   0  0  2  0  0  0  0  0  0  0  0  0
    3.1260   12.2620   -2.9780 C   0  0  0  0  0  0  0  0  0  0  0  0
   -0.8641   10.4016   -3.0364 H   0  0  0  0  0  0  0  0  0  0  0  0
    0.3543   11.1383   -4.1315 H   0  0  0  0  0  0  0  0  0  0  0  0
    0.1059    9.3592   -4.1315 H   0  0  0  0  0  0  0  0  0  0  0  0
    2.1552    9.9703   -2.9227 H   0  0  0  0  0  0  0  0  0  0  0  0
    0.3672    8.1435   -2.1074 H   0  0  0  0  0  0  0  0  0  0  0  0
    1.9291    8.5009   -1.2261 H   0  0  0  0  0  0  0  0  0  0  0  0
    0.6747    8.7022    0.6028 H   0  0  0  0  0  0  0  0  0  0  0  0
    0.1521   10.2850   -0.1115 H   0  0  0  0  0  0  0  0  0  0  0  0
   -1.0650    7.9900    0.5016 H   0  0  0  0  0  0  0  0  0  0  0  0
   -2.1705   11.6115    0.0499 H   0  0  0  0  0  0  0  0  0  0  0  0
   -1.3145   11.2207   -1.4802 H   0  0  0  0  0  0  0  0  0  0  0  0
   -3.0967   11.4453   -1.4802 H   0  0  0  0  0  0  0  0  0  0  0  0
   -3.8434    9.1584    0.8926 H   0  0  0  0  0  0  0  0  0  0  0  0
   -4.5383    9.8805   -0.5981 H   0  0  0  0  0  0  0  0  0  0  0  0
   -3.9963    8.1680   -0.5981 H   0  0  0  0  0  0  0  0  0  0  0  0
    0.1612   11.5063   -1.3683 H   0  0  0  0  0  0  0  0  0  0  0  0
    1.4857   10.9213    0.5649 H   0  0  0  0  0  0  0  0  0  0  0  0
    2.8608   10.4080   -0.4365 H   0  0  0  0  0  0  0  0  0  0  0  0
    2.6927   12.8587    1.0241 H   0  0  0  0  0  0  0  0  0  0  0  0
    3.8753   12.5433   -0.2429 H   0  0  0  0  0  0  0  0  0  0  0  0
    0.9374   13.8670    0.9180 H   0  0  0  0  0  0  0  0  0  0  0  0
    0.4223   14.9401   -0.4273 H   0  0  0  0  0  0  0  0  0  0  0  0
   -0.0539   13.2081   -0.4273 H   0  0  0  0  0  0  0  0  0  0  0  0
    3.7685   14.4239   -1.7662 H   0  0  0  0  0  0  0  0  0  0  0  0
    3.4001   15.1513    0.6773 H   0  0  0  0  0  0  0  0  0  0  0  0
    4.1478   16.2964   -0.5553 H   0  0  0  0  0  0  0  0  0  0  0  0
    2.3832   17.3488    1.0935 H   0  0  0  0  0  0  0  0  0  0  0  0
    0.1470   15.9640   -1.9682 H   0  0  0  0  0  0  0  0  0  0  0  0
    1.6140   18.4084   -3.1381 H   0  0  0  0  0  0  0  0  0  0  0  0
    0.4473   17.3153   -4.0070 H   0  0  0  0  0  0  0  0  0  0  0  0
   -0.5953   19.4583   -3.3395 H   0  0  0  0  0  0  0  0  0  0  0  0
   -1.3550   18.0245   -2.5440 H   0  0  0  0  0  0  0  0  0  0  0  0
   -1.1136   19.7698   -0.9150 H   0  0  0  0  0  0  0  0  0  0  0  0
    1.7210   19.6760   -1.3430 H   0  0  0  0  0  0  0  0  0  0  0  0
   -1.2581   17.3224    1.2837 H   0  0  0  0  0  0  0  0  0  0  0  0
   -2.0221   17.9010   -0.2356 H   0  0  0  0  0  0  0  0  0  0  0  0
   -1.0583   16.3852   -0.2356 H   0  0  0  0  0  0  0  0  0  0  0  0
    0.2148   18.3683    2.0330 H   0  0  0  0  0  0  0  0  0  0  0  0
    1.6051   19.1237    1.1825 H   0  0  0  0  0  0  0  0  0  0  0  0
    0.0031   19.9363    1.1825 H   0  0  0  0  0  0  0  0  0  0  0  0
    3.9320   16.9334   -2.4602 H   0  0  0  0  0  0  0  0  0  0  0  0
    3.9080   15.8086   -3.8605 H   0  0  0  0  0  0  0  0  0  0  0  0
    2.8570   17.2653   -3.8605 H   0  0  0  0  0  0  0  0  0  0  0  0
    0.8093   15.2840   -4.2213 H   0  0  0  0  0  0  0  0  0  0  0  0
    2.4344   14.3942   -4.2672 H   0  0  0  0  0  0  0  0  0  0  0  0
   -0.0421   13.6411   -2.6904 H   0  0  0  0  0  0  0  0  0  0  0  0
    0.7318   12.7598   -4.0658 H   0  0  0  0  0  0  0  0  0  0  0  0
    3.9181   12.0236   -2.2530 H   0  0  0  0  0  0  0  0  0  0  0  0
    2.9304   11.3829   -3.6096 H   0  0  0  0  0  0  0  0  0  0  0  0
    3.4481   13.1030   -3.6096 H   0  0  0  0  0  0  0  0  0  0  0  0
  1  2  1  0
  2  3  1  0
  3  4  1  0
  4  5  1  0
  5  6  1  0
  6  7  1  0
  7  8  1  0
  7  9  1  0
  2 10  1  0
 10 11  1  0
 11 12  1  0
 12 13  1  0
 13 14  1  1
 13 15  1  0
 15 16  1  0
 16 17  1  0
 17 18  2  0
 18 19  1  0
 19 20  1  0
 20 21  1  0
 21 22  1  0
 22 23  1  0
 22 24  1  0
 24 25  1  0
 24 26  1  0
 19 27  1  0
 27 28  1  6
 27 29  1  0
 29 30  1  0
 30 31  1  0
 31 32  1  6
  7  5  1  0
 31 10  1  0
 31 13  1  0
 27 15  1  0
 24 18  1  0
  1 33  1  0
  1 34  1  0
  1 35  1  0
  2 36  1  6
  3 37  1  0
  3 38  1  0
  4 39  1  0
  4 40  1  0
  5 41  1  1
  8 42  1  0
  8 43  1  0
  8 44  1  0
  9 45  1  0
  9 46  1  0
  9 47  1  0
 10 48  1  1
 11 49  1  0
 11 50  1  0
 12 51  1  0
 12 52  1  0
 14 53  1  0
 14 54  1  0
 14 55  1  0
 15 56  1  6
 16 57  1  0
 16 58  1  0
 17 59  1  0
 19 60  1  1
 20 61  1  0
 20 62  1  0
 21 63  1  0
 21 64  1  0
 22 65  1  1
 23 66  1  0
 25 67  1  0
 25 68  1  0
 25 69  1  0
 26 70  1  0
 26 71  1  0
 26 72  1  0
 28 73  1  0
 28 74  1  0
 28 75  1  0
 29 76  1  0
 29 77  1  0
 30 78  1  0
 30 79  1  0
 32 80  1  0
 32 81  1  0
 32 82  1  0
M  END
>  <meeko>  (11) 
{"is_sidechain": [false], "intermolecular_energy": 2.731, "internal_energy": -0.839}

$$$$
EPH_relaxed_0001_pdb2pqr_Repair_313_r2_0001_out
     RDKit          3D

 82 86  0  0  0  0  0  0  0  0999 V2000
    4.7170   16.8430   -1.8880 C   0  0  0  0  0  0  0  0  0  0  0  0
    4.7400   15.3120   -1.8870 C   0  0  2  0  0  0  0  0  0  0  0  0
    5.1270   14.7360   -3.2640 C   0  0  0  0  0  0  0  0  0  0  0  0
    6.0490   13.5160   -3.1840 C   0  0  0  0  0  0  0  0  0  0  0  0
    5.6560   12.4580   -4.1700 C   0  0  2  0  0  0  0  0  0  0  0  0
    5.2010   11.2320   -3.5830 O   0  0  0  0  0  0  0  0  0  0  0  0
    6.4150   11.1560   -4.3470 C   0  0  0  0  0  0  0  0  0  0  0  0
    7.6300   10.8440   -3.5310 C   0  0  0  0  0  0  0  0  0  0  0  0
    6.2690   10.4130   -5.6380 C   0  0  0  0  0  0  0  0  0  0  0  0
    3.3810   14.7710   -1.4590 C   0  0  1  0  0  0  0  0  0  0  0  0
    2.3480   15.8980   -1.1910 C   0  0  0  0  0  0  0  0  0  0  0  0
    0.9670   15.3560   -1.6410 C   0  0  0  0  0  0  0  0  0  0  0  0
    1.1900   13.8380   -1.8390 C   0  0  1  0  0  0  0  0  0  0  0  0
    1.1020   13.2290   -0.4040 C   0  0  0  0  0  0  0  0  0  0  0  0
    0.2170   13.1200   -2.8310 C   0  0  2  0  0  0  0  0  0  0  0  0
   -1.2660   13.1420   -2.4220 C   0  0  0  0  0  0  0  0  0  0  0  0
   -1.7140   11.9880   -1.5880 C   0  0  0  0  0  0  0  0  0  0  0  0
   -1.0400   10.8360   -1.4200 C   0  0  0  0  0  0  0  0  0  0  0  0
    0.2630   10.5670   -2.1840 C   0  0  1  0  0  0  0  0  0  0  0  0
    0.2250    9.1370   -2.7840 C   0  0  0  0  0  0  0  0  0  0  0  0
   -0.0660    8.0690   -1.7340 C   0  0  0  0  0  0  0  0  0  0  0  0
   -1.3970    8.3390   -1.0370 C   0  0  2  0  0  0  0  0  0  0  0  0
   -2.4560    8.1740   -1.9850 O   0  0  0  0  0  0  0  0  0  0  0  0
   -1.4800    9.7550   -0.4020 C   0  0  0  0  0  0  0  0  0  0  0  0
   -0.5380    9.8310    0.8250 C   0  0  0  0  0  0  0  0  0  0  0  0
   -2.9200    9.9500    0.1440 C   0  0  0  0  0  0  0  0  0  0  0  0
    0.6790   11.6670   -3.2530 C   0  0  1  0  0  0  0  0  0  0  0  0
   -0.0030   11.3630   -4.6220 C   0  0  0  0  0  0  0  0  0  0  0  0
    2.2310   11.5800   -3.5020 C   0  0  0  0  0  0  0  0  0  0  0  0
    3.1320   12.4060   -2.5640 C   0  0  0  0  0  0  0  0  0  0  0  0
    2.6350   13.8510   -2.4580 C   0  0  2  0  0  0  0  0  0  0  0  0
    2.7330   14.4960   -3.8820 C   0  0  0  0  0  0  0  0  0  0  0  0
    4.7115   17.2103   -0.8511 H   0  0  0  0  0  0  0  0  0  0  0  0
    5.6095   17.2228   -2.4068 H   0  0  0  0  0  0  0  0  0  0  0  0
    3.8135   17.1958   -2.4068 H   0  0  0  0  0  0  0  0  0  0  0  0
    5.5093   14.9937   -1.1681 H   0  0  0  0  0  0  0  0  0  0  0  0
    4.2060   14.4415   -3.7885 H   0  0  0  0  0  0  0  0  0  0  0  0
    5.6806   15.5228   -3.7974 H   0  0  0  0  0  0  0  0  0  0  0  0
    7.0805   13.8344   -3.3951 H   0  0  0  0  0  0  0  0  0  0  0  0
    5.9667   13.0900   -2.1732 H   0  0  0  0  0  0  0  0  0  0  0  0
    5.3196   13.2196   -4.8888 H   0  0  0  0  0  0  0  0  0  0  0  0
    7.3800   10.9082   -2.4617 H   0  0  0  0  0  0  0  0  0  0  0  0
    7.9782    9.8273   -3.7657 H   0  0  0  0  0  0  0  0  0  0  0  0
    8.4250   11.5671   -3.7657 H   0  0  0  0  0  0  0  0  0  0  0  0
    6.0607    9.3532   -5.4296 H   0  0  0  0  0  0  0  0  0  0  0  0
    5.4382   10.8430   -6.2166 H   0  0  0  0  0  0  0  0  0  0  0  0
    7.2008   10.4967   -6.2166 H   0  0  0  0  0  0  0  0  0  0  0  0
    3.6822   14.1961   -0.5709 H   0  0  0  0  0  0  0  0  0  0  0  0
    2.3269   16.1453   -0.1194 H   0  0  0  0  0  0  0  0  0  0  0  0
    2.6110   16.8135   -1.7411 H   0  0  0  0  0  0  0  0  0  0  0  0
    0.2069   15.5393   -0.8673 H   0  0  0  0  0  0  0  0  0  0  0  0
    0.6036   15.8473   -2.5556 H   0  0  0  0  0  0  0  0  0  0  0  0
    1.2176   14.0293    0.3417 H   0  0  0  0  0  0  0  0  0  0  0  0
    0.1243   12.7427   -0.2714 H   0  0  0  0  0  0  0  0  0  0  0  0
    1.9021   12.4859   -0.2714 H   0  0  0  0  0  0  0  0  0  0  0  0
    0.2876   13.7512   -3.7291 H   0  0  0  0  0  0  0  0  0  0  0  0
   -1.4477   14.0647   -1.8514 H   0  0  0  0  0  0  0  0  0  0  0  0
   -1.8410   13.0827   -3.3579 H   0  0  0  0  0  0  0  0  0  0  0  0
   -2.6773   12.0881   -1.0664 H   0  0  0  0  0  0  0  0  0  0  0  0
    1.0719   10.6389   -1.4420 H   0  0  0  0  0  0  0  0  0  0  0  0
   -0.5603    9.0982   -3.5533 H   0  0  0  0  0  0  0  0  0  0  0  0
    1.2180    8.9265   -3.2078 H   0  0  0  0  0  0  0  0  0  0  0  0
   -0.1089    7.0849   -2.2235 H   0  0  0  0  0  0  0  0  0  0  0  0
    0.7355    8.0888   -0.9809 H   0  0  0  0  0  0  0  0  0  0  0  0
   -1.4882    7.6189   -0.2104 H   0  0  0  0  0  0  0  0  0  0  0  0
   -2.0620    7.8510   -2.8130 H   0  0  0  0  0  0  0  0  0  0  0  0
   -1.1340    9.7829    1.7483 H   0  0  0  0  0  0  0  0  0  0  0  0
    0.1667    8.9868    0.7991 H   0  0  0  0  0  0  0  0  0  0  0  0
    0.0223   10.7773    0.7991 H   0  0  0  0  0  0  0  0  0  0  0  0
   -2.8987    9.9471    1.2438 H   0  0  0  0  0  0  0  0  0  0  0  0
   -3.3203   10.9106   -0.2124 H   0  0  0  0  0  0  0  0  0  0  0  0
   -3.5614    9.1305   -0.2124 H   0  0  0  0  0  0  0  0  0  0  0  0
   -0.9950   10.9208   -4.4473 H   0  0  0  0  0  0  0  0  0  0  0  0
   -0.1132   12.2972   -5.1922 H   0  0  0  0  0  0  0  0  0  0  0  0
    0.6181   10.6565   -5.1922 H   0  0  0  0  0  0  0  0  0  0  0  0
    2.5255   10.5248   -3.4024 H   0  0  0  0  0  0  0  0  0  0  0  0
    2.3867   12.0093   -4.5027 H   0  0  0  0  0  0  0  0  0  0  0  0
    3.1249   11.9488   -1.5636 H   0  0  0  0  0  0  0  0  0  0  0  0
    4.1519   12.4154   -2.9760 H   0  0  0  0  0  0  0  0  0  0  0  0
    2.8976   15.5791   -3.7834 H   0  0  0  0  0  0  0  0  0  0  0  0
    3.5731   14.0460   -4.4313 H   0  0  0  0  0  0  0  0  0  0  0  0
    1.7972   14.3158   -4.4313 H   0  0  0  0  0  0  0  0  0  0  0  0
  1  2  1  0
  2  3  1  0
  3  4  1  0
  4  5  1  0
  5  6  1  0
  6  7  1  0
  7  8  1  0
  7  9  1  0
  2 10  1  0
 10 11  1  0
 11 12  1  0
 12 13  1  0
 13 14  1  1
 13 15  1  0
 15 16  1  0
 16 17  1  0
 17 18  2  0
 18 19  1  0
 19 20  1  0
 20 21  1  0
 21 22  1  0
 22 23  1  0
 22 24  1  0
 24 25  1  0
 24 26  1  0
 19 27  1  0
 27 28  1  6
 27 29  1  0
 29 30  1  0
 30 31  1  0
 31 32  1  6
  7  5  1  0
 31 10  1  0
 31 13  1  0
 27 15  1  0
 24 18  1  0
  1 33  1  0
  1 34  1  0
  1 35  1  0
  2 36  1  1
  3 37  1  0
  3 38  1  0
  4 39  1  0
  4 40  1  0
  5 41  1  6
  8 42  1  0
  8 43  1  0
  8 44  1  0
  9 45  1  0
  9 46  1  0
  9 47  1  0
 10 48  1  1
 11 49  1  0
 11 50  1  0
 12 51  1  0
 12 52  1  0
 14 53  1  0
 14 54  1  0
 14 55  1  0
 15 56  1  6
 16 57  1  0
 16 58  1  0
 17 59  1  0
 19 60  1  1
 20 61  1  0
 20 62  1  0
 21 63  1  0
 21 64  1  0
 22 65  1  1
 23 66  1  0
 25 67  1  0
 25 68  1  0
 25 69  1  0
 26 70  1  0
 26 71  1  0
 26 72  1  0
 28 73  1  0
 28 74  1  0
 28 75  1  0
 29 76  1  0
 29 77  1  0
 30 78  1  0
 30 79  1  0
 32 80  1  0
 32 81  1  0
 32 82  1  0
M  END
>  <meeko>  (12) 
{"is_sidechain": [false], "intermolecular_energy": 2.731, "internal_energy": -0.839}

$$$$
EPH_relaxed_0001_pdb2pqr_Repair_313_r2_0001_out
     RDKit          3D

 82 86  0  0  0  0  0  0  0  0999 V2000
   -1.0930   10.6150    1.4920 C   0  0  0  0  0  0  0  0  0  0  0  0
   -1.7240   10.2650    0.1410 C   0  0  2  0  0  0  0  0  0  0  0  0
   -2.5090    8.9390    0.1930 C   0  0  0  0  0  0  0  0  0  0  0  0
   -3.9200    9.0360   -0.3930 C   0  0  0  0  0  0  0  0  0  0  0  0
   -4.4680    7.6860   -0.7440 C   0  0  2  0  0  0  0  0  0  0  0  0
   -4.6040    7.4420   -2.1500 O   0  0  0  0  0  0  0  0  0  0  0  0
   -5.8240    7.4760   -1.3920 C   0  0  0  0  0  0  0  0  0  0  0  0
   -6.7160    8.6300   -1.7250 C   0  0  0  0  0  0  0  0  0  0  0  0
   -6.4850    6.1400   -1.2520 C   0  0  0  0  0  0  0  0  0  0  0  0
   -0.6440   10.1890   -0.9320 C   0  0  1  0  0  0  0  0  0  0  0  0
   -1.0310    9.2460   -2.1030 C   0  0  0  0  0  0  0  0  0  0  0  0
   -0.4380    9.8680   -3.3930 C   0  0  0  0  0  0  0  0  0  0  0  0
    0.5410   10.9540   -2.8880 C   0  0  1  0  0  0  0  0  0  0  0  0
    1.8420   10.1780   -2.5130 C   0  0  0  0  0  0  0  0  0  0  0  0
    0.8350   12.1320   -3.8730 C   0  0  2  0  0  0  0  0  0  0  0  0
    1.5130   11.7250   -5.1930 C   0  0  0  0  0  0  0  0  0  0  0  0
    3.0050   11.7390   -5.1750 C   0  0  0  0  0  0  0  0  0  0  0  0
    3.7700   12.3340   -4.2400 C   0  0  0  0  0  0  0  0  0  0  0  0
    3.1370   13.1650   -3.1160 C   0  0  1  0  0  0  0  0  0  0  0  0
    3.9040   14.5050   -2.9690 C   0  0  0  0  0  0  0  0  0  0  0  0
    5.4030   14.3030   -2.7710 C   0  0  0  0  0  0  0  0  0  0  0  0
    6.0060   13.5240   -3.9370 C   0  0  2  0  0  0  0  0  0  0  0  0
    5.9290   14.3280   -5.1180 O   0  0  0  0  0  0  0  0  0  0  0  0
    5.3080   12.1580   -4.1880 C   0  0  0  0  0  0  0  0  0  0  0  0
    5.6470   11.1810   -3.0360 C   0  0  0  0  0  0  0  0  0  0  0  0
    5.9170   11.5400   -5.4750 C   0  0  0  0  0  0  0  0  0  0  0  0
    1.5640   13.3680   -3.2070 C   0  0  1  0  0  0  0  0  0  0  0  0
    1.2380   14.6090   -4.0940 C   0  0  0  0  0  0  0  0  0  0  0  0
    1.0030   13.6900   -1.7710 C   0  0  0  0  0  0  0  0  0  0  0  0
    0.6190   12.4870   -0.8890 C   0  0  0  0  0  0  0  0  0  0  0  0
   -0.2700   11.5050   -1.6590 C   0  0  2  0  0  0  0  0  0  0  0  0
   -1.5970   12.2510   -2.0300 C   0  0  0  0  0  0  0  0  0  0  0  0
   -1.7419   10.2551    2.3040 H   0  0  0  0  0  0  0  0  0  0  0  0
   -0.1063   10.1352    1.5711 H   0  0  0  0  0  0  0  0  0  0  0  0
   -0.9776   11.7061    1.5711 H   0  0  0  0  0  0  0  0  0  0  0  0
   -2.4397   11.0627   -0.1070 H   0  0  0  0  0  0  0  0  0  0  0  0
   -1.9487    8.1812   -0.3743 H   0  0  0  0  0  0  0  0  0  0  0  0
   -2.6193    8.6720    1.2544 H   0  0  0  0  0  0  0  0  0  0  0  0
   -4.5821    9.5080    0.3479 H   0  0  0  0  0  0  0  0  0  0  0  0
   -3.8686    9.6354   -1.3139 H   0  0  0  0  0  0  0  0  0  0  0  0
   -3.9970    7.2382    0.1435 H   0  0  0  0  0  0  0  0  0  0  0  0
   -7.0758    9.0955   -0.7955 H   0  0  0  0  0  0  0  0  0  0  0  0
   -6.1534    9.3708   -2.3122 H   0  0  0  0  0  0  0  0  0  0  0  0
   -7.5746    8.2722   -2.3122 H   0  0  0  0  0  0  0  0  0  0  0  0
   -6.6039    5.8997   -0.1852 H   0  0  0  0  0  0  0  0  0  0  0  0
   -7.4734    6.1676   -1.7340 H   0  0  0  0  0  0  0  0  0  0  0  0
   -5.8634    5.3710   -1.7340 H   0  0  0  0  0  0  0  0  0  0  0  0
    0.2016    9.8445   -0.3187 H   0  0  0  0  0  0  0  0  0  0  0  0
   -0.6093    8.2436   -1.9373 H   0  0  0  0  0  0  0  0  0  0  0  0
   -2.1232    9.1412   -2.1811 H   0  0  0  0  0  0  0  0  0  0  0  0
    0.0959    9.1070   -3.9811 H   0  0  0  0  0  0  0  0  0  0  0  0
   -1.2154   10.2812   -4.0525 H   0  0  0  0  0  0  0  0  0  0  0  0
    1.9336   10.1233   -1.4182 H   0  0  0  0  0  0  0  0  0  0  0  0
    1.7946    9.1605   -2.9282 H   0  0  0  0  0  0  0  0  0  0  0  0
    2.7148   10.7032   -2.9282 H   0  0  0  0  0  0  0  0  0  0  0  0
   -0.1762   12.4675   -4.1468 H   0  0  0  0  0  0  0  0  0  0  0  0
    1.1858   10.7049   -5.4425 H   0  0  0  0  0  0  0  0  0  0  0  0
    1.2109   12.4789   -5.9349 H   0  0  0  0  0  0  0  0  0  0  0  0
    3.5236   11.2196   -5.9944 H   0  0  0  0  0  0  0  0  0  0  0  0
    3.2468   12.5699   -2.1974 H   0  0  0  0  0  0  0  0  0  0  0  0
    3.7460   15.1032   -3.8785 H   0  0  0  0  0  0  0  0  0  0  0  0
    3.5153   15.0156   -2.0756 H   0  0  0  0  0  0  0  0  0  0  0  0
    5.8929   15.2855   -2.7025 H   0  0  0  0  0  0  0  0  0  0  0  0
    5.5613   13.7296   -1.8457 H   0  0  0  0  0  0  0  0  0  0  0  0
    7.0510   13.2988   -3.6774 H   0  0  0  0  0  0  0  0  0  0  0  0
    5.2360   13.9510   -5.6860 H   0  0  0  0  0  0  0  0  0  0  0  0
    5.4743   11.6787   -2.0704 H   0  0  0  0  0  0  0  0  0  0  0  0
    5.0053   10.2906   -3.1095 H   0  0  0  0  0  0  0  0  0  0  0  0
    6.7023   10.8795   -3.1095 H   0  0  0  0  0  0  0  0  0  0  0  0
    6.6644   10.7815   -5.1993 H   0  0  0  0  0  0  0  0  0  0  0  0
    5.1193   11.0699   -6.0689 H   0  0  0  0  0  0  0  0  0  0  0  0
    6.3988   12.3307   -6.0689 H   0  0  0  0  0  0  0  0  0  0  0  0
    1.0115   15.4711   -3.4494 H   0  0  0  0  0  0  0  0  0  0  0  0
    2.1050   14.8437   -4.7291 H   0  0  0  0  0  0  0  0  0  0  0  0
    0.3676   14.3873   -4.7291 H   0  0  0  0  0  0  0  0  0  0  0  0
    1.7727   14.2639   -1.2341 H   0  0  0  0  0  0  0  0  0  0  0  0
    0.0614   14.2314   -1.9448 H   0  0  0  0  0  0  0  0  0  0  0  0
    1.5348   11.9685   -0.5688 H   0  0  0  0  0  0  0  0  0  0  0  0
    0.0605   12.8558   -0.0160 H   0  0  0  0  0  0  0  0  0  0  0  0
   -2.1216   12.5459   -1.1092 H   0  0  0  0  0  0  0  0  0  0  0  0
   -1.3604   13.1483   -2.6206 H   0  0  0  0  0  0  0  0  0  0  0  0
   -2.2406   11.5825   -2.6206 H   0  0  0  0  0  0  0  0  0  0  0  0
  1  2  1  0
  2  3  1  0
  3  4  1  0
  4  5  1  0
  5  6  1  0
  6  7  1  0
  7  8  1  0
  7  9  1  0
  2 10  1  0
 10 11  1  0
 11 12  1  0
 12 13  1  0
 13 14  1  1
 13 15  1  0
 15 16  1  0
 16 17  1  0
 17 18  2  0
 18 19  1  0
 19 20  1  0
 20 21  1  0
 21 22  1  0
 22 23  1  0
 22 24  1  0
 24 25  1  0
 24 26  1  0
 19 27  1  0
 27 28  1  6
 27 29  1  0
 29 30  1  0
 30 31  1  0
 31 32  1  6
  7  5  1  0
 31 10  1  0
 31 13  1  0
 27 15  1  0
 24 18  1  0
  1 33  1  0
  1 34  1  0
  1 35  1  0
  2 36  1  6
  3 37  1  0
  3 38  1  0
  4 39  1  0
  4 40  1  0
  5 41  1  1
  8 42  1  0
  8 43  1  0
  8 44  1  0
  9 45  1  0
  9 46  1  0
  9 47  1  0
 10 48  1  1
 11 49  1  0
 11 50  1  0
 12 51  1  0
 12 52  1  0
 14 53  1  0
 14 54  1  0
 14 55  1  0
 15 56  1  6
 16 57  1  0
 16 58  1  0
 17 59  1  0
 19 60  1  1
 20 61  1  0
 20 62  1  0
 21 63  1  0
 21 64  1  0
 22 65  1  1
 23 66  1  0
 25 67  1  0
 25 68  1  0
 25 69  1  0
 26 70  1  0
 26 71  1  0
 26 72  1  0
 28 73  1  0
 28 74  1  0
 28 75  1  0
 29 76  1  0
 29 77  1  0
 30 78  1  0
 30 79  1  0
 32 80  1  0
 32 81  1  0
 32 82  1  0
M  END
>  <meeko>  (13) 
{"is_sidechain": [false], "intermolecular_energy": 2.731, "internal_energy": -0.839}

$$$$
EPH_relaxed_0001_pdb2pqr_Repair_313_r2_0001_out
     RDKit          3D

 82 86  0  0  0  0  0  0  0  0999 V2000
    1.6700   11.0830   -5.2580 C   0  0  0  0  0  0  0  0  0  0  0  0
    2.4360   12.4060   -5.3480 C   0  0  2  0  0  0  0  0  0  0  0  0
    3.8820   12.2760   -4.8290 C   0  0  0  0  0  0  0  0  0  0  0  0
    4.1880   10.9180   -4.1920 C   0  0  0  0  0  0  0  0  0  0  0  0
    5.5140   10.9200   -3.4930 C   0  0  2  0  0  0  0  0  0  0  0  0
    6.3260   12.0720   -3.7530 O   0  0  0  0  0  0  0  0  0  0  0  0
    6.8420   10.8150   -4.2190 C   0  0  0  0  0  0  0  0  0  0  0  0
    6.9100   10.6990   -5.7090 C   0  0  0  0  0  0  0  0  0  0  0  0
    8.0380   10.3340   -3.4560 C   0  0  0  0  0  0  0  0  0  0  0  0
    1.6980   13.4870   -4.5680 C   0  0  1  0  0  0  0  0  0  0  0  0
    0.1840   13.1830   -4.4120 C   0  0  0  0  0  0  0  0  0  0  0  0
   -0.2390   13.7200   -3.0200 C   0  0  0  0  0  0  0  0  0  0  0  0
    0.9480   14.6020   -2.5650 C   0  0  1  0  0  0  0  0  0  0  0  0
    0.7380   15.9650   -3.2950 C   0  0  0  0  0  0  0  0  0  0  0  0
    1.1160   14.7930   -1.0230 C   0  0  2  0  0  0  0  0  0  0  0  0
   -0.0560   15.5030   -0.3220 C   0  0  0  0  0  0  0  0  0  0  0  0
    0.0600   16.9890   -0.2350 C   0  0  0  0  0  0  0  0  0  0  0  0
    1.1840   17.6990   -0.4420 C   0  0  0  0  0  0  0  0  0  0  0  0
    2.5220   16.9970   -0.7050 C   0  0  1  0  0  0  0  0  0  0  0  0
    3.6280   17.6450    0.1700 C   0  0  0  0  0  0  0  0  0  0  0  0
    3.7140   19.1560   -0.0210 C   0  0  0  0  0  0  0  0  0  0  0  0
    2.3810   19.8250    0.3060 C   0  0  2  0  0  0  0  0  0  0  0  0
    2.1230   19.6780    1.7060 O   0  0  0  0  0  0  0  0  0  0  0  0
    1.1900   19.2470   -0.5080 C   0  0  0  0  0  0  0  0  0  0  0  0
    1.3210   19.6690   -1.9930 C   0  0  0  0  0  0  0  0  0  0  0  0
   -0.1130   19.9070    0.0180 C   0  0  0  0  0  0  0  0  0  0  0  0
    2.5070   15.4120   -0.5940 C   0  0  1  0  0  0  0  0  0  0  0  0
    2.7500   14.9800    0.8850 C   0  0  0  0  0  0  0  0  0  0  0  0
    3.7060   14.8260   -1.4300 C   0  0  0  0  0  0  0  0  0  0  0  0
    3.4420   14.5480   -2.9220 C   0  0  0  0  0  0  0  0  0  0  0  0
    2.1500   13.7460   -3.1090 C   0  0  2  0  0  0  0  0  0  0  0  0
    2.3400   12.3600   -2.4040 C   0  0  0  0  0  0  0  0  0  0  0  0
    1.5171   10.8190   -4.2012 H   0  0  0  0  0  0  0  0  0  0  0  0
    0.6941   11.1899   -5.7541 H   0  0  0  0  0  0  0  0  0  0  0  0
    2.2486   10.2898   -5.7541 H   0  0  0  0  0  0  0  0  0  0  0  0
    2.4907   12.6856   -6.4105 H   0  0  0  0  0  0  0  0  0  0  0  0
    4.5692   12.4255   -5.6748 H   0  0  0  0  0  0  0  0  0  0  0  0
    4.0110   13.0355   -4.0438 H   0  0  0  0  0  0  0  0  0  0  0  0
    3.4003   10.6812   -3.4616 H   0  0  0  0  0  0  0  0  0  0  0  0
    4.2231   10.1639   -4.9921 H   0  0  0  0  0  0  0  0  0  0  0  0
    5.0927   10.3656   -2.6415 H   0  0  0  0  0  0  0  0  0  0  0  0
    7.4490    9.7795   -5.9810 H   0  0  0  0  0  0  0  0  0  0  0  0
    5.8907   10.6619   -6.1208 H   0  0  0  0  0  0  0  0  0  0  0  0
    7.4403   11.5703   -6.1208 H   0  0  0  0  0  0  0  0  0  0  0  0
    7.8407   10.4134   -2.3768 H   0  0  0  0  0  0  0  0  0  0  0  0
    8.2407    9.2844   -3.7155 H   0  0  0  0  0  0  0  0  0  0  0  0
    8.9109   10.9510   -3.7155 H   0  0  0  0  0  0  0  0  0  0  0  0
    1.9337   14.3596   -5.1949 H   0  0  0  0  0  0  0  0  0  0  0  0
   -0.3877   13.6900   -5.2033 H   0  0  0  0  0  0  0  0  0  0  0  0
   -0.0129   12.1040   -4.4956 H   0  0  0  0  0  0  0  0  0  0  0  0
   -1.1594   14.3174   -3.0975 H   0  0  0  0  0  0  0  0  0  0  0  0
   -0.4537   12.9097   -2.3078 H   0  0  0  0  0  0  0  0  0  0  0  0
    0.6148   16.7648   -2.5499 H   0  0  0  0  0  0  0  0  0  0  0  0
    1.6133   16.1823   -3.9248 H   0  0  0  0  0  0  0  0  0  0  0  0
   -0.1621   15.9088   -3.9248 H   0  0  0  0  0  0  0  0  0  0  0  0
    1.1012   13.7568   -0.6541 H   0  0  0  0  0  0  0  0  0  0  0  0
   -0.9770   15.2655   -0.8746 H   0  0  0  0  0  0  0  0  0  0  0  0
   -0.0581   15.1362    0.7151 H   0  0  0  0  0  0  0  0  0  0  0  0
   -0.8506   17.5510    0.0199 H   0  0  0  0  0  0  0  0  0  0  0  0
    2.7458   17.1587   -1.7698 H   0  0  0  0  0  0  0  0  0  0  0  0
    3.4094   17.4350    1.2274 H   0  0  0  0  0  0  0  0  0  0  0  0
    4.5923   17.2140   -0.1371 H   0  0  0  0  0  0  0  0  0  0  0  0
    4.4917   19.5591    0.6443 H   0  0  0  0  0  0  0  0  0  0  0  0
    3.9617   19.3630   -1.0726 H   0  0  0  0  0  0  0  0  0  0  0  0
    2.4665   20.8855    0.0268 H   0  0  0  0  0  0  0  0  0  0  0  0
    2.9490   19.8760    2.1790 H   0  0  0  0  0  0  0  0  0  0  0  0
    1.6467   20.7182   -2.0487 H   0  0  0  0  0  0  0  0  0  0  0  0
    2.0624   19.0279   -2.4923 H   0  0  0  0  0  0  0  0  0  0  0  0
    0.3469   19.5605   -2.4923 H   0  0  0  0  0  0  0  0  0  0  0  0
   -0.1073   19.9041    1.1180 H   0  0  0  0  0  0  0  0  0  0  0  0
   -0.1716   20.9435   -0.3456 H   0  0  0  0  0  0  0  0  0  0  0  0
   -0.9833   19.3410   -0.3456 H   0  0  0  0  0  0  0  0  0  0  0  0
    2.3250   15.7355    1.5622 H   0  0  0  0  0  0  0  0  0  0  0  0
    2.2654   14.0096    1.0679 H   0  0  0  0  0  0  0  0  0  0  0  0
    3.8310   14.8902    1.0679 H   0  0  0  0  0  0  0  0  0  0  0  0
    4.5375   15.5434   -1.3672 H   0  0  0  0  0  0  0  0  0  0  0  0
    3.9124   13.8411   -0.9858 H   0  0  0  0  0  0  0  0  0  0  0  0
    3.3520   15.5054   -3.4562 H   0  0  0  0  0  0  0  0  0  0  0  0
    4.2810   13.9609   -3.3237 H   0  0  0  0  0  0  0  0  0  0  0  0
    2.3211   12.4980   -1.3129 H   0  0  0  0  0  0  0  0  0  0  0  0
    1.5263   11.6824   -2.7021 H   0  0  0  0  0  0  0  0  0  0  0  0
    3.3060   11.9264   -2.7021 H   0  0  0  0  0  0  0  0  0  0  0  0
  1  2  1  0
  2  3  1  0
  3  4  1  0
  4  5  1  0
  5  6  1  0
  6  7  1  0
  7  8  1  0
  7  9  1  0
  2 10  1  0
 10 11  1  0
 11 12  1  0
 12 13  1  0
 13 14  1  6
 13 15  1  0
 15 16  1  0
 16 17  1  0
 17 18  2  0
 18 19  1  0
 19 20  1  0
 20 21  1  0
 21 22  1  0
 22 23  1  0
 22 24  1  0
 24 25  1  0
 24 26  1  0
 19 27  1  0
 27 28  1  1
 27 29  1  0
 29 30  1  0
 30 31  1  0
 31 32  1  1
  7  5  1  0
 31 10  1  0
 31 13  1  0
 27 15  1  0
 24 18  1  0
  1 33  1  0
  1 34  1  0
  1 35  1  0
  2 36  1  6
  3 37  1  0
  3 38  1  0
  4 39  1  0
  4 40  1  0
  5 41  1  1
  8 42  1  0
  8 43  1  0
  8 44  1  0
  9 45  1  0
  9 46  1  0
  9 47  1  0
 10 48  1  6
 11 49  1  0
 11 50  1  0
 12 51  1  0
 12 52  1  0
 14 53  1  0
 14 54  1  0
 14 55  1  0
 15 56  1  1
 16 57  1  0
 16 58  1  0
 17 59  1  0
 19 60  1  6
 20 61  1  0
 20 62  1  0
 21 63  1  0
 21 64  1  0
 22 65  1  1
 23 66  1  0
 25 67  1  0
 25 68  1  0
 25 69  1  0
 26 70  1  0
 26 71  1  0
 26 72  1  0
 28 73  1  0
 28 74  1  0
 28 75  1  0
 29 76  1  0
 29 77  1  0
 30 78  1  0
 30 79  1  0
 32 80  1  0
 32 81  1  0
 32 82  1  0
M  END
>  <meeko>  (14) 
{"is_sidechain": [false], "intermolecular_energy": 2.731, "internal_energy": -0.839}

$$$$
EPH_relaxed_0001_pdb2pqr_Repair_313_r2_0001_out
     RDKit          3D

 82 86  0  0  0  0  0  0  0  0999 V2000
    2.9020   10.4740   -3.5840 C   0  0  0  0  0  0  0  0  0  0  0  0
    3.4600   10.8270   -2.2030 C   0  0  2  0  0  0  0  0  0  0  0  0
    2.5440   10.3340   -1.0640 C   0  0  0  0  0  0  0  0  0  0  0  0
    1.3210    9.5540   -1.5520 C   0  0  0  0  0  0  0  0  0  0  0  0
    0.1790    9.6540   -0.5860 C   0  0  2  0  0  0  0  0  0  0  0  0
   -0.2790    8.3980   -0.0680 O   0  0  0  0  0  0  0  0  0  0  0  0
   -1.2140    9.1270   -0.8790 C   0  0  0  0  0  0  0  0  0  0  0  0
   -1.5380    8.4620   -2.1800 C   0  0  0  0  0  0  0  0  0  0  0  0
   -2.3680    9.6900   -0.1110 C   0  0  0  0  0  0  0  0  0  0  0  0
    3.6630   12.3330   -2.0930 C   0  0  1  0  0  0  0  0  0  0  0  0
    4.7890   12.8530   -3.0260 C   0  0  0  0  0  0  0  0  0  0  0  0
    4.3540   14.2600   -3.5100 C   0  0  0  0  0  0  0  0  0  0  0  0
    3.1690   14.6400   -2.5920 C   0  0  1  0  0  0  0  0  0  0  0  0
    3.8310   15.1600   -1.2770 C   0  0  0  0  0  0  0  0  0  0  0  0
    2.1490   15.6730   -3.1710 C   0  0  2  0  0  0  0  0  0  0  0  0
    2.7320   17.0640   -3.4790 C   0  0  0  0  0  0  0  0  0  0  0  0
    2.6620   18.0470   -2.3580 C   0  0  0  0  0  0  0  0  0  0  0  0
    1.9030   17.9210   -1.2530 C   0  0  0  0  0  0  0  0  0  0  0  0
    0.9310   16.7450   -1.0960 C   0  0  1  0  0  0  0  0  0  0  0  0
   -0.4430   17.2710   -0.6020 C   0  0  0  0  0  0  0  0  0  0  0  0
   -0.3270   18.1060    0.6690 C   0  0  0  0  0  0  0  0  0  0  0  0
    0.6020   19.2990    0.4550 C   0  0  2  0  0  0  0  0  0  0  0  0
   -0.0060   20.1940   -0.4800 O   0  0  0  0  0  0  0  0  0  0  0  0
    2.0140   18.8920   -0.0520 C   0  0  0  0  0  0  0  0  0  0  0  0
    2.7880   18.1760    1.0820 C   0  0  0  0  0  0  0  0  0  0  0  0
    2.8020   20.1930   -0.3620 C   0  0  0  0  0  0  0  0  0  0  0  0
    0.7990   15.7810   -2.3520 C   0  0  1  0  0  0  0  0  0  0  0  0
   -0.2760   16.3340   -3.3370 C   0  0  0  0  0  0  0  0  0  0  0  0
    0.2780   14.3750   -1.8700 C   0  0  0  0  0  0  0  0  0  0  0  0
    1.3440   13.3560   -1.4220 C   0  0  0  0  0  0  0  0  0  0  0  0
    2.4630   13.2410   -2.4610 C   0  0  2  0  0  0  0  0  0  0  0  0
    1.8310   12.7000   -3.7880 C   0  0  0  0  0  0  0  0  0  0  0  0
    1.9776    9.8892   -3.4674 H   0  0  0  0  0  0  0  0  0  0  0  0
    2.6835   11.3986   -4.1385 H   0  0  0  0  0  0  0  0  0  0  0  0
    3.6439    9.8805   -4.1385 H   0  0  0  0  0  0  0  0  0  0  0  0
    4.4268   10.3135   -2.0957 H   0  0  0  0  0  0  0  0  0  0  0  0
    3.1323    9.6799   -0.4037 H   0  0  0  0  0  0  0  0  0  0  0  0
    2.1688   11.2275   -0.5436 H   0  0  0  0  0  0  0  0  0  0  0  0
    1.0031    9.9605   -2.5234 H   0  0  0  0  0  0  0  0  0  0  0  0
    1.6029    8.4945   -1.6418 H   0  0  0  0  0  0  0  0  0  0  0  0
    0.5384   10.6293   -0.2260 H   0  0  0  0  0  0  0  0  0  0  0  0
   -2.0123    7.4886   -1.9861 H   0  0  0  0  0  0  0  0  0  0  0  0
   -2.2274    9.0977   -2.7551 H   0  0  0  0  0  0  0  0  0  0  0  0
   -0.6125    8.3109   -2.7551 H   0  0  0  0  0  0  0  0  0  0  0  0
   -2.1724    9.5946    0.9672 H   0  0  0  0  0  0  0  0  0  0  0  0
   -2.4962   10.7519   -0.3678 H   0  0  0  0  0  0  0  0  0  0  0  0
   -3.2838    9.1375   -0.3678 H   0  0  0  0  0  0  0  0  0  0  0  0
    3.8784   12.4125   -1.0172 H   0  0  0  0  0  0  0  0  0  0  0  0
    5.7382   12.9189   -2.4740 H   0  0  0  0  0  0  0  0  0  0  0  0
    4.9431   12.1727   -3.8766 H   0  0  0  0  0  0  0  0  0  0  0  0
    5.1777   14.9806   -3.3990 H   0  0  0  0  0  0  0  0  0  0  0  0
    4.0759   14.2672   -4.5742 H   0  0  0  0  0  0  0  0  0  0  0  0
    3.2996   14.7426   -0.4090 H   0  0  0  0  0  0  0  0  0  0  0  0
    4.8847   14.8456   -1.2478 H   0  0  0  0  0  0  0  0  0  0  0  0
    3.7751   16.2582   -1.2478 H   0  0  0  0  0  0  0  0  0  0  0  0
    1.8960   15.2321   -4.1465 H   0  0  0  0  0  0  0  0  0  0  0  0
    3.7895   16.9362   -3.7535 H   0  0  0  0  0  0  0  0  0  0  0  0
    2.1142   17.4806   -4.2881 H   0  0  0  0  0  0  0  0  0  0  0  0
    3.2831   18.9510   -2.4417 H   0  0  0  0  0  0  0  0  0  0  0  0
    1.3738   16.0848   -0.3357 H   0  0  0  0  0  0  0  0  0  0  0  0
   -0.8876   17.8928   -1.3930 H   0  0  0  0  0  0  0  0  0  0  0  0
   -1.0715   16.3981   -0.3718 H   0  0  0  0  0  0  0  0  0  0  0  0
   -1.3249   18.4728    0.9511 H   0  0  0  0  0  0  0  0  0  0  0  0
    0.0904   17.4746    1.4672 H   0  0  0  0  0  0  0  0  0  0  0  0
    0.7475   19.7840    1.4315 H   0  0  0  0  0  0  0  0  0  0  0  0
    0.6920   20.5200   -1.0730 H   0  0  0  0  0  0  0  0  0  0  0  0
    2.4137   18.5222    2.0567 H   0  0  0  0  0  0  0  0  0  0  0  0
    2.6401   17.0893    0.9974 H   0  0  0  0  0  0  0  0  0  0  0  0
    3.8600   18.4079    0.9974 H   0  0  0  0  0  0  0  0  0  0  0  0
    3.0954   20.6775    0.5810 H   0  0  0  0  0  0  0  0  0  0  0  0
    3.7027   19.9464   -0.9433 H   0  0  0  0  0  0  0  0  0  0  0  0
    2.1663   20.8770   -0.9433 H   0  0  0  0  0  0  0  0  0  0  0  0
   -1.1113   16.7637   -2.7646 H   0  0  0  0  0  0  0  0  0  0  0  0
    0.1733   17.1129   -3.9706 H   0  0  0  0  0  0  0  0  0  0  0  0
   -0.6484   15.5155   -3.9706 H   0  0  0  0  0  0  0  0  0  0  0  0
   -0.3988   14.5444   -1.0196 H   0  0  0  0  0  0  0  0  0  0  0  0
   -0.1971   13.9251   -2.7542 H   0  0  0  0  0  0  0  0  0  0  0  0
    1.7746   13.6833   -0.4641 H   0  0  0  0  0  0  0  0  0  0  0  0
    0.8646   12.3721   -1.3124 H   0  0  0  0  0  0  0  0  0  0  0  0
    1.0155   12.0019   -3.5478 H   0  0  0  0  0  0  0  0  0  0  0  0
    1.4327   13.5414   -4.3741 H   0  0  0  0  0  0  0  0  0  0  0  0
    2.6009   12.1767   -4.3741 H   0  0  0  0  0  0  0  0  0  0  0  0
  1  2  1  0
  2  3  1  0
  3  4  1  0
  4  5  1  0
  5  6  1  0
  6  7  1  0
  7  8  1  0
  7  9  1  0
  2 10  1  0
 10 11  1  0
 11 12  1  0
 12 13  1  0
 13 14  1  1
 13 15  1  0
 15 16  1  0
 16 17  1  0
 17 18  2  0
 18 19  1  0
 19 20  1  0
 20 21  1  0
 21 22  1  0
 22 23  1  0
 22 24  1  0
 24 25  1  0
 24 26  1  0
 19 27  1  0
 27 28  1  6
 27 29  1  0
 29 30  1  0
 30 31  1  0
 31 32  1  6
  7  5  1  0
 31 10  1  0
 31 13  1  0
 27 15  1  0
 24 18  1  0
  1 33  1  0
  1 34  1  0
  1 35  1  0
  2 36  1  1
  3 37  1  0
  3 38  1  0
  4 39  1  0
  4 40  1  0
  5 41  1  1
  8 42  1  0
  8 43  1  0
  8 44  1  0
  9 45  1  0
  9 46  1  0
  9 47  1  0
 10 48  1  1
 11 49  1  0
 11 50  1  0
 12 51  1  0
 12 52  1  0
 14 53  1  0
 14 54  1  0
 14 55  1  0
 15 56  1  6
 16 57  1  0
 16 58  1  0
 17 59  1  0
 19 60  1  1
 20 61  1  0
 20 62  1  0
 21 63  1  0
 21 64  1  0
 22 65  1  1
 23 66  1  0
 25 67  1  0
 25 68  1  0
 25 69  1  0
 26 70  1  0
 26 71  1  0
 26 72  1  0
 28 73  1  0
 28 74  1  0
 28 75  1  0
 29 76  1  0
 29 77  1  0
 30 78  1  0
 30 79  1  0
 32 80  1  0
 32 81  1  0
 32 82  1  0
M  END
>  <meeko>  (15) 
{"is_sidechain": [false], "intermolecular_energy": 2.731, "internal_energy": -0.839}

$$$$
EPH_relaxed_0001_pdb2pqr_Repair_313_r2_0001_out
     RDKit          3D

 82 86  0  0  0  0  0  0  0  0999 V2000
   -5.2540    5.7760   -1.5370 C   0  0  0  0  0  0  0  0  0  0  0  0
   -5.4700    7.2730   -1.7730 C   0  0  2  0  0  0  0  0  0  0  0  0
   -5.1790    8.1080   -0.5100 C   0  0  0  0  0  0  0  0  0  0  0  0
   -4.1920    9.2560   -0.7450 C   0  0  0  0  0  0  0  0  0  0  0  0
   -2.7960    8.8750   -0.3550 C   0  0  2  0  0  0  0  0  0  0  0  0
   -2.2490    9.6350    0.7310 O   0  0  0  0  0  0  0  0  0  0  0  0
   -1.5980    9.7870   -0.5410 C   0  0  0  0  0  0  0  0  0  0  0  0
   -1.7400   11.1510   -1.1390 C   0  0  0  0  0  0  0  0  0  0  0  0
   -0.2330    9.1730   -0.5960 C   0  0  0  0  0  0  0  0  0  0  0  0
   -6.8960    7.5240   -2.2460 C   0  0  1  0  0  0  0  0  0  0  0  0
   -7.2040    6.8420   -3.6060 C   0  0  0  0  0  0  0  0  0  0  0  0
   -8.6860    6.3910   -3.5550 C   0  0  0  0  0  0  0  0  0  0  0  0
   -9.2720    7.1140   -2.3190 C   0  0  1  0  0  0  0  0  0  0  0  0
   -9.5960    8.5580   -2.8160 C   0  0  0  0  0  0  0  0  0  0  0  0
  -10.5140    6.4410   -1.6490 C   0  0  2  0  0  0  0  0  0  0  0  0
  -11.7620    6.3400   -2.5420 C   0  0  0  0  0  0  0  0  0  0  0  0
  -12.6990    7.5000   -2.4610 C   0  0  0  0  0  0  0  0  0  0  0  0
  -12.6960    8.4430   -1.5010 C   0  0  0  0  0  0  0  0  0  0  0  0
  -11.7420    8.3440   -0.3040 C   0  0  1  0  0  0  0  0  0  0  0  0
  -12.5240    8.6280    1.0060 C   0  0  0  0  0  0  0  0  0  0  0  0
  -13.2730    9.9560    0.9640 C   0  0  0  0  0  0  0  0  0  0  0  0
  -14.2530    9.9940   -0.2050 C   0  0  2  0  0  0  0  0  0  0  0  0
  -15.2870    9.0330    0.0300 O   0  0  0  0  0  0  0  0  0  0  0  0
  -13.5800    9.7120   -1.5780 C   0  0  0  0  0  0  0  0  0  0  0  0
  -12.6800   10.9090   -1.9720 C   0  0  0  0  0  0  0  0  0  0  0  0
  -14.6990    9.6390   -2.6520 C   0  0  0  0  0  0  0  0  0  0  0  0
  -10.8700    7.0180   -0.2190 C   0  0  1  0  0  0  0  0  0  0  0  0
  -11.6680    5.9040    0.5240 C   0  0  0  0  0  0  0  0  0  0  0  0
   -9.5880    7.3000    0.6490 C   0  0  0  0  0  0  0  0  0  0  0  0
   -8.3550    7.8520   -0.0920 C   0  0  0  0  0  0  0  0  0  0  0  0
   -8.0460    7.0190   -1.3390 C   0  0  2  0  0  0  0  0  0  0  0  0
   -7.6940    5.5660   -0.8690 C   0  0  0  0  0  0  0  0  0  0  0  0
   -5.2251    5.5757   -0.4558 H   0  0  0  0  0  0  0  0  0  0  0  0
   -6.0798    5.2100   -1.9928 H   0  0  0  0  0  0  0  0  0  0  0  0
   -4.3019    5.4666   -1.9928 H   0  0  0  0  0  0  0  0  0  0  0  0
   -4.7593    7.5913   -2.5499 H   0  0  0  0  0  0  0  0  0  0  0  0
   -6.1269    8.5334   -0.1488 H   0  0  0  0  0  0  0  0  0  0  0  0
   -4.7164    7.4312    0.2235 H   0  0  0  0  0  0  0  0  0  0  0  0
   -4.2037    9.5235   -1.8119 H   0  0  0  0  0  0  0  0  0  0  0  0
   -4.5019   10.1078   -0.1218 H   0  0  0  0  0  0  0  0  0  0  0  0
   -2.9772    7.8276   -0.6381 H   0  0  0  0  0  0  0  0  0  0  0  0
   -1.8177   11.8976   -0.3349 H   0  0  0  0  0  0  0  0  0  0  0  0
   -0.8600   11.3721   -1.7609 H   0  0  0  0  0  0  0  0  0  0  0  0
   -2.6467   11.1861   -1.7609 H   0  0  0  0  0  0  0  0  0  0  0  0
    0.1359    9.0071    0.4269 H   0  0  0  0  0  0  0  0  0  0  0  0
   -0.2846    8.2114   -1.1277 H   0  0  0  0  0  0  0  0  0  0  0  0
    0.4522    9.8496   -1.1277 H   0  0  0  0  0  0  0  0  0  0  0  0
   -6.8906    8.6237   -2.2695 H   0  0  0  0  0  0  0  0  0  0  0  0
   -7.0532    7.5550   -4.4300 H   0  0  0  0  0  0  0  0  0  0  0  0
   -6.5362    5.9850   -3.7781 H   0  0  0  0  0  0  0  0  0  0  0  0
   -9.2159    6.6946   -4.4699 H   0  0  0  0  0  0  0  0  0  0  0  0
   -8.7871    5.2979   -3.4855 H   0  0  0  0  0  0  0  0  0  0  0  0
   -9.7444    9.2193   -1.9496 H   0  0  0  0  0  0  0  0  0  0  0  0
   -8.7596    8.9327   -3.4243 H   0  0  0  0  0  0  0  0  0  0  0  0
  -10.5123    8.5394   -3.4243 H   0  0  0  0  0  0  0  0  0  0  0  0
  -10.1708    5.4067   -1.4992 H   0  0  0  0  0  0  0  0  0  0  0  0
  -11.4268    6.2459   -3.5854 H   0  0  0  0  0  0  0  0  0  0  0  0
  -12.3256    5.4673   -2.1803 H   0  0  0  0  0  0  0  0  0  0  0  0
  -13.4562    7.5914   -3.2537 H   0  0  0  0  0  0  0  0  0  0  0  0
  -10.9783    9.1204   -0.4591 H   0  0  0  0  0  0  0  0  0  0  0  0
  -13.2510    7.8180    1.1653 H   0  0  0  0  0  0  0  0  0  0  0  0
  -11.7929    8.6829    1.8260 H   0  0  0  0  0  0  0  0  0  0  0  0
  -13.8293   10.0852    1.9041 H   0  0  0  0  0  0  0  0  0  0  0  0
  -12.5414   10.7672    0.8347 H   0  0  0  0  0  0  0  0  0  0  0  0
  -14.6624   11.0135   -0.2599 H   0  0  0  0  0  0  0  0  0  0  0  0
  -15.7030    8.8330   -0.8260 H   0  0  0  0  0  0  0  0  0  0  0  0
  -12.3083   11.4033   -1.0623 H   0  0  0  0  0  0  0  0  0  0  0  0
  -11.8283   10.5472   -2.5668 H   0  0  0  0  0  0  0  0  0  0  0  0
  -13.2641   11.6267   -2.5668 H   0  0  0  0  0  0  0  0  0  0  0  0
  -15.6791    9.5751   -2.1566 H   0  0  0  0  0  0  0  0  0  0  0  0
  -14.6638   10.5414   -3.2801 H   0  0  0  0  0  0  0  0  0  0  0  0
  -14.5469    8.7489   -3.2801 H   0  0  0  0  0  0  0  0  0  0  0  0
  -11.5678    6.0438    1.6105 H   0  0  0  0  0  0  0  0  0  0  0  0
  -12.7298    5.9641    0.2429 H   0  0  0  0  0  0  0  0  0  0  0  0
  -11.2695    4.9180    0.2429 H   0  0  0  0  0  0  0  0  0  0  0  0
   -9.8648    8.0298    1.4241 H   0  0  0  0  0  0  0  0  0  0  0  0
   -9.2775    6.3166    1.0317 H   0  0  0  0  0  0  0  0  0  0  0  0
   -8.5519    8.8914   -0.3934 H   0  0  0  0  0  0  0  0  0  0  0  0
   -7.4891    7.8045    0.5847 H   0  0  0  0  0  0  0  0  0  0  0  0
   -7.6849    5.5283    0.2303 H   0  0  0  0  0  0  0  0  0  0  0  0
   -8.4479    4.8634   -1.2537 H   0  0  0  0  0  0  0  0  0  0  0  0
   -6.7021    5.2864   -1.2537 H   0  0  0  0  0  0  0  0  0  0  0  0
  1  2  1  0
  2  3  1  0
  3  4  1  0
  4  5  1  0
  5  6  1  0
  6  7  1  0
  7  8  1  0
  7  9  1  0
  2 10  1  0
 10 11  1  0
 11 12  1  0
 12 13  1  0
 13 14  1  6
 13 15  1  0
 15 16  1  0
 16 17  1  0
 17 18  2  0
 18 19  1  0
 19 20  1  0
 20 21  1  0
 21 22  1  0
 22 23  1  0
 22 24  1  0
 24 25  1  0
 24 26  1  0
 19 27  1  0
 27 28  1  1
 27 29  1  0
 29 30  1  0
 30 31  1  0
 31 32  1  1
  7  5  1  0
 31 10  1  0
 31 13  1  0
 27 15  1  0
 24 18  1  0
  1 33  1  0
  1 34  1  0
  1 35  1  0
  2 36  1  6
  3 37  1  0
  3 38  1  0
  4 39  1  0
  4 40  1  0
  5 41  1  1
  8 42  1  0
  8 43  1  0
  8 44  1  0
  9 45  1  0
  9 46  1  0
  9 47  1  0
 10 48  1  6
 11 49  1  0
 11 50  1  0
 12 51  1  0
 12 52  1  0
 14 53  1  0
 14 54  1  0
 14 55  1  0
 15 56  1  1
 16 57  1  0
 16 58  1  0
 17 59  1  0
 19 60  1  6
 20 61  1  0
 20 62  1  0
 21 63  1  0
 21 64  1  0
 22 65  1  6
 23 66  1  0
 25 67  1  0
 25 68  1  0
 25 69  1  0
 26 70  1  0
 26 71  1  0
 26 72  1  0
 28 73  1  0
 28 74  1  0
 28 75  1  0
 29 76  1  0
 29 77  1  0
 30 78  1  0
 30 79  1  0
 32 80  1  0
 32 81  1  0
 32 82  1  0
M  END
>  <meeko>  (16) 
{"is_sidechain": [false], "intermolecular_energy": 2.731, "internal_energy": -0.839}

$$$$
EPH_relaxed_0001_pdb2pqr_Repair_313_r2_0001_out
     RDKit          3D

 82 86  0  0  0  0  0  0  0  0999 V2000
   -0.7090    7.6460   -2.7320 C   0  0  0  0  0  0  0  0  0  0  0  0
   -1.4100    8.3240   -1.5520 C   0  0  2  0  0  0  0  0  0  0  0  0
   -2.8870    7.8980   -1.4310 C   0  0  0  0  0  0  0  0  0  0  0  0
   -3.5100    7.4540   -2.7570 C   0  0  0  0  0  0  0  0  0  0  0  0
   -4.6140    6.4630   -2.5470 C   0  0  2  0  0  0  0  0  0  0  0  0
   -5.6560    6.5100   -3.5290 O   0  0  0  0  0  0  0  0  0  0  0  0
   -6.0340    6.8560   -2.1870 C   0  0  0  0  0  0  0  0  0  0  0  0
   -6.4270    8.2900   -2.0170 C   0  0  0  0  0  0  0  0  0  0  0  0
   -6.9130    5.8400   -1.5270 C   0  0  0  0  0  0  0  0  0  0  0  0
   -1.3140    9.8390   -1.6910 C   0  0  1  0  0  0  0  0  0  0  0  0
   -2.6080   10.5640   -1.2350 C   0  0  0  0  0  0  0  0  0  0  0  0
   -2.1670   11.9020   -0.5870 C   0  0  0  0  0  0  0  0  0  0  0  0
   -0.6810   12.0560   -0.9850 C   0  0  1  0  0  0  0  0  0  0  0  0
   -0.7120   12.6250   -2.4390 C   0  0  0  0  0  0  0  0  0  0  0  0
    0.2000   12.9360   -0.0400 C   0  0  2  0  0  0  0  0  0  0  0  0
   -0.2260   14.4110    0.0630 C   0  0  0  0  0  0  0  0  0  0  0  0
    0.4140   15.3300   -0.9250 C   0  0  0  0  0  0  0  0  0  0  0  0
    1.5000   15.0460   -1.6680 C   0  0  0  0  0  0  0  0  0  0  0  0
    2.2600   13.7260   -1.4800 C   0  0  1  0  0  0  0  0  0  0  0  0
    3.7830   14.0110   -1.4100 C   0  0  0  0  0  0  0  0  0  0  0  0
    4.2850   14.8070   -2.6110 C   0  0  0  0  0  0  0  0  0  0  0  0
    3.5470   16.1380   -2.7300 C   0  0  2  0  0  0  0  0  0  0  0  0
    3.8960   16.9610   -1.6120 O   0  0  0  0  0  0  0  0  0  0  0  0
    2.0020   15.9780   -2.7980 C   0  0  0  0  0  0  0  0  0  0  0  0
    1.6030   15.3520   -4.1580 C   0  0  0  0  0  0  0  0  0  0  0  0
    1.3730   17.3970   -2.7730 C   0  0  0  0  0  0  0  0  0  0  0  0
    1.7560   12.8000   -0.2910 C   0  0  1  0  0  0  0  0  0  0  0  0
    2.4600   13.2120    1.0380 C   0  0  0  0  0  0  0  0  0  0  0  0
    2.1880   11.3130   -0.5790 C   0  0  0  0  0  0  0  0  0  0  0  0
    1.2190   10.4590   -1.4190 C   0  0  0  0  0  0  0  0  0  0  0  0
   -0.2100   10.5600   -0.8780 C   0  0  2  0  0  0  0  0  0  0  0  0
   -0.2150    9.9740    0.5750 C   0  0  0  0  0  0  0  0  0  0  0  0
    0.0335    6.9278   -2.3539 H   0  0  0  0  0  0  0  0  0  0  0  0
   -1.4528    7.1159   -3.3450 H   0  0  0  0  0  0  0  0  0  0  0  0
   -0.2040    8.4071   -3.3450 H   0  0  0  0  0  0  0  0  0  0  0  0
   -0.8977    8.0020   -0.6334 H   0  0  0  0  0  0  0  0  0  0  0  0
   -2.9499    7.0608   -0.7202 H   0  0  0  0  0  0  0  0  0  0  0  0
   -3.4492    8.7803   -1.0911 H   0  0  0  0  0  0  0  0  0  0  0  0
   -3.9165    8.3364   -3.2729 H   0  0  0  0  0  0  0  0  0  0  0  0
   -2.7262    6.9712   -3.3592 H   0  0  0  0  0  0  0  0  0  0  0  0
   -3.9128    5.7417   -2.1019 H   0  0  0  0  0  0  0  0  0  0  0  0
   -6.4921    8.5277   -0.9450 H   0  0  0  0  0  0  0  0  0  0  0  0
   -5.6727    8.9355   -2.4905 H   0  0  0  0  0  0  0  0  0  0  0  0
   -7.4051    8.4608   -2.4905 H   0  0  0  0  0  0  0  0  0  0  0  0
   -6.8291    5.9369   -0.4345 H   0  0  0  0  0  0  0  0  0  0  0  0
   -7.9571    6.0058   -1.8307 H   0  0  0  0  0  0  0  0  0  0  0  0
   -6.5987    4.8306   -1.8307 H   0  0  0  0  0  0  0  0  0  0  0  0
   -1.0962    9.9114   -2.7668 H   0  0  0  0  0  0  0  0  0  0  0  0
   -3.2582   10.7586   -2.1007 H   0  0  0  0  0  0  0  0  0  0  0  0
   -3.1752    9.9480   -0.5217 H   0  0  0  0  0  0  0  0  0  0  0  0
   -2.7631   12.7389   -0.9798 H   0  0  0  0  0  0  0  0  0  0  0  0
   -2.3095   11.9046    0.5037 H   0  0  0  0  0  0  0  0  0  0  0  0
   -0.7718   13.7227   -2.4020 H   0  0  0  0  0  0  0  0  0  0  0  0
    0.2038   12.3254   -2.9696 H   0  0  0  0  0  0  0  0  0  0  0  0
   -1.5898   12.2277   -2.9696 H   0  0  0  0  0  0  0  0  0  0  0  0
   -0.0031   12.4967    0.9478 H   0  0  0  0  0  0  0  0  0  0  0  0
   -1.3152   14.4612   -0.0820 H   0  0  0  0  0  0  0  0  0  0  0  0
    0.1024   14.7542    1.0551 H   0  0  0  0  0  0  0  0  0  0  0  0
   -0.0405   16.3230   -1.0567 H   0  0  0  0  0  0  0  0  0  0  0  0
    2.0357   13.1160   -2.3675 H   0  0  0  0  0  0  0  0  0  0  0  0
    3.9929   14.5838   -0.4947 H   0  0  0  0  0  0  0  0  0  0  0  0
    4.3043   13.0424   -1.4099 H   0  0  0  0  0  0  0  0  0  0  0  0
    5.3609   15.0014   -2.4899 H   0  0  0  0  0  0  0  0  0  0  0  0
    4.1006   14.2204   -3.5231 H   0  0  0  0  0  0  0  0  0  0  0  0
    3.8568   16.6028   -3.6776 H   0  0  0  0  0  0  0  0  0  0  0  0
    3.5610   16.5250   -0.8100 H   0  0  0  0  0  0  0  0  0  0  0  0
    1.0193   14.4362   -3.9830 H   0  0  0  0  0  0  0  0  0  0  0  0
    0.9958   16.0704   -4.7283 H   0  0  0  0  0  0  0  0  0  0  0  0
    2.5106   15.1049   -4.7283 H   0  0  0  0  0  0  0  0  0  0  0  0
    1.2312   17.7169   -1.7301 H   0  0  0  0  0  0  0  0  0  0  0  0
    2.0421   18.1038   -3.2856 H   0  0  0  0  0  0  0  0  0  0  0  0
    0.4000   17.3758   -3.2856 H   0  0  0  0  0  0  0  0  0  0  0  0
    1.8627   12.8624    1.8930 H   0  0  0  0  0  0  0  0  0  0  0  0
    3.4606   12.7569    1.0793 H   0  0  0  0  0  0  0  0  0  0  0  0
    2.5533   14.3073    1.0793 H   0  0  0  0  0  0  0  0  0  0  0  0
    3.1510   11.3430   -1.1098 H   0  0  0  0  0  0  0  0  0  0  0  0
    2.2204   10.8263    0.4069 H   0  0  0  0  0  0  0  0  0  0  0  0
    1.2357   10.8145   -2.4598 H   0  0  0  0  0  0  0  0  0  0  0  0
    1.5409    9.4085   -1.3658 H   0  0  0  0  0  0  0  0  0  0  0  0
   -0.2080   10.7986    1.3030 H   0  0  0  0  0  0  0  0  0  0  0  0
   -1.1184    9.3636    0.7211 H   0  0  0  0  0  0  0  0  0  0  0  0
    0.6778    9.3483    0.7211 H   0  0  0  0  0  0  0  0  0  0  0  0
  1  2  1  0
  2  3  1  0
  3  4  1  0
  4  5  1  0
  5  6  1  0
  6  7  1  0
  7  8  1  0
  7  9  1  0
  2 10  1  0
 10 11  1  0
 11 12  1  0
 12 13  1  0
 13 14  1  6
 13 15  1  0
 15 16  1  0
 16 17  1  0
 17 18  2  0
 18 19  1  0
 19 20  1  0
 20 21  1  0
 21 22  1  0
 22 23  1  0
 22 24  1  0
 24 25  1  0
 24 26  1  0
 19 27  1  0
 27 28  1  1
 27 29  1  0
 29 30  1  0
 30 31  1  0
 31 32  1  1
  7  5  1  0
 31 10  1  0
 31 13  1  0
 27 15  1  0
 24 18  1  0
  1 33  1  0
  1 34  1  0
  1 35  1  0
  2 36  1  1
  3 37  1  0
  3 38  1  0
  4 39  1  0
  4 40  1  0
  5 41  1  1
  8 42  1  0
  8 43  1  0
  8 44  1  0
  9 45  1  0
  9 46  1  0
  9 47  1  0
 10 48  1  6
 11 49  1  0
 11 50  1  0
 12 51  1  0
 12 52  1  0
 14 53  1  0
 14 54  1  0
 14 55  1  0
 15 56  1  1
 16 57  1  0
 16 58  1  0
 17 59  1  0
 19 60  1  6
 20 61  1  0
 20 62  1  0
 21 63  1  0
 21 64  1  0
 22 65  1  6
 23 66  1  0
 25 67  1  0
 25 68  1  0
 25 69  1  0
 26 70  1  0
 26 71  1  0
 26 72  1  0
 28 73  1  0
 28 74  1  0
 28 75  1  0
 29 76  1  0
 29 77  1  0
 30 78  1  0
 30 79  1  0
 32 80  1  0
 32 81  1  0
 32 82  1  0
M  END
>  <meeko>  (17) 
{"is_sidechain": [false], "intermolecular_energy": 2.731, "internal_energy": -0.839}

$$$$
EPH_relaxed_0001_pdb2pqr_Repair_313_r2_0001_out
     RDKit          3D

 82 86  0  0  0  0  0  0  0  0999 V2000
   -0.7420   16.3010   -5.8690 C   0  0  0  0  0  0  0  0  0  0  0  0
    0.3880   15.5460   -6.5740 C   0  0  2  0  0  0  0  0  0  0  0  0
    0.0110   15.1510   -8.0160 C   0  0  0  0  0  0  0  0  0  0  0  0
    0.3980   16.2000   -9.0630 C   0  0  0  0  0  0  0  0  0  0  0  0
    1.7840   15.9750   -9.5860 C   0  0  2  0  0  0  0  0  0  0  0  0
    2.0740   16.6440  -10.8210 O   0  0  0  0  0  0  0  0  0  0  0  0
    2.0830   15.2080  -10.8610 C   0  0  0  0  0  0  0  0  0  0  0  0
    0.9870   14.6150  -11.6900 C   0  0  0  0  0  0  0  0  0  0  0  0
    3.4470   14.6180  -11.0380 C   0  0  0  0  0  0  0  0  0  0  0  0
    0.7600   14.3030   -5.7740 C   0  0  1  0  0  0  0  0  0  0  0  0
    1.9550   13.5290   -6.3940 C   0  0  0  0  0  0  0  0  0  0  0  0
    2.7680   12.9420   -5.2120 C   0  0  0  0  0  0  0  0  0  0  0  0
    1.8460   13.1100   -3.9820 C   0  0  1  0  0  0  0  0  0  0  0  0
    0.8520   11.9090   -4.0590 C   0  0  0  0  0  0  0  0  0  0  0  0
    2.5560   13.1830   -2.5910 C   0  0  2  0  0  0  0  0  0  0  0  0
    3.3420   11.9220   -2.1920 C   0  0  0  0  0  0  0  0  0  0  0  0
    2.5650   10.9020   -1.4270 C   0  0  0  0  0  0  0  0  0  0  0  0
    1.3780   11.1110   -0.8290 C   0  0  0  0  0  0  0  0  0  0  0  0
    0.7420   12.5070   -0.8050 C   0  0  1  0  0  0  0  0  0  0  0  0
    0.2380   12.8220    0.6280 C   0  0  0  0  0  0  0  0  0  0  0  0
   -0.6980   11.7450    1.1690 C   0  0  0  0  0  0  0  0  0  0  0  0
   -0.0110   10.3820    1.1840 C   0  0  2  0  0  0  0  0  0  0  0  0
    1.0530   10.4120    2.1400 O   0  0  0  0  0  0  0  0  0  0  0  0
    0.5470    9.9620   -0.2050 C   0  0  0  0  0  0  0  0  0  0  0  0
   -0.6270    9.6370   -1.1610 C   0  0  0  0  0  0  0  0  0  0  0  0
    1.3370    8.6380   -0.0210 C   0  0  0  0  0  0  0  0  0  0  0  0
    1.6240   13.6800   -1.4130 C   0  0  1  0  0  0  0  0  0  0  0  0
    2.5670   14.2620   -0.3150 C   0  0  0  0  0  0  0  0  0  0  0  0
    0.6780   14.8590   -1.8550 C   0  0  0  0  0  0  0  0  0  0  0  0
    0.1030   14.7890   -3.2830 C   0  0  0  0  0  0  0  0  0  0  0  0
    1.2080   14.5100   -4.3060 C   0  0  2  0  0  0  0  0  0  0  0  0
    2.2120   15.7120   -4.2670 C   0  0  0  0  0  0  0  0  0  0  0  0
   -0.6155   16.2165   -4.7796 H   0  0  0  0  0  0  0  0  0  0  0  0
   -0.7122   17.3613   -6.1605 H   0  0  0  0  0  0  0  0  0  0  0  0
   -1.7101   15.8677   -6.1605 H   0  0  0  0  0  0  0  0  0  0  0  0
    1.2527   16.2233   -6.6327 H   0  0  0  0  0  0  0  0  0  0  0  0
    0.5223   14.2088   -8.2629 H   0  0  0  0  0  0  0  0  0  0  0  0
   -1.0843   15.0548   -8.0470 H   0  0  0  0  0  0  0  0  0  0  0  0
   -0.3125   16.1464   -9.9011 H   0  0  0  0  0  0  0  0  0  0  0  0
    0.3683   17.1899   -8.5842 H   0  0  0  0  0  0  0  0  0  0  0  0
    2.1815   15.8909   -8.5638 H   0  0  0  0  0  0  0  0  0  0  0  0
    0.2133   14.1964  -11.0296 H   0  0  0  0  0  0  0  0  0  0  0  0
    0.5437   15.3963  -12.3248 H   0  0  0  0  0  0  0  0  0  0  0  0
    1.3985   13.8165  -12.3248 H   0  0  0  0  0  0  0  0  0  0  0  0
    3.8937   14.4248  -10.0516 H   0  0  0  0  0  0  0  0  0  0  0  0
    3.3683   13.6735  -11.5963 H   0  0  0  0  0  0  0  0  0  0  0  0
    4.0815   15.3221  -11.5963 H   0  0  0  0  0  0  0  0  0  0  0  0
   -0.2022   13.7707   -5.8021 H   0  0  0  0  0  0  0  0  0  0  0  0
    1.5871   12.7185   -7.0404 H   0  0  0  0  0  0  0  0  0  0  0  0
    2.5782   14.1926   -7.0115 H   0  0  0  0  0  0  0  0  0  0  0  0
    2.9937   11.8795   -5.3858 H   0  0  0  0  0  0  0  0  0  0  0  0
    3.7358   13.4478   -5.0798 H   0  0  0  0  0  0  0  0  0  0  0  0
    0.5859   11.5875   -3.0413 H   0  0  0  0  0  0  0  0  0  0  0  0
   -0.0571   12.2192   -4.5950 H   0  0  0  0  0  0  0  0  0  0  0  0
    1.3267   11.0739   -4.5950 H   0  0  0  0  0  0  0  0  0  0  0  0
    3.3111   13.9663   -2.7529 H   0  0  0  0  0  0  0  0  0  0  0  0
    3.7126   11.4470   -3.1123 H   0  0  0  0  0  0  0  0  0  0  0  0
    4.1427   12.2625   -1.5190 H   0  0  0  0  0  0  0  0  0  0  0  0
    2.9996    9.8948   -1.3454 H   0  0  0  0  0  0  0  0  0  0  0  0
   -0.1102   12.4653   -1.4992 H   0  0  0  0  0  0  0  0  0  0  0  0
    1.1070   12.9028    1.2976 H   0  0  0  0  0  0  0  0  0  0  0  0
   -0.3277   13.7643    0.5834 H   0  0  0  0  0  0  0  0  0  0  0  0
   -0.9961   12.0091    2.1944 H   0  0  0  0  0  0  0  0  0  0  0  0
   -1.5804   11.6861    0.5149 H   0  0  0  0  0  0  0  0  0  0  0  0
   -0.7695    9.6337    1.4572 H   0  0  0  0  0  0  0  0  0  0  0  0
    1.7690    9.8480    1.8020 H   0  0  0  0  0  0  0  0  0  0  0  0
   -1.5221    9.3892   -0.5715 H   0  0  0  0  0  0  0  0  0  0  0  0
   -0.8361   10.5110   -1.7953 H   0  0  0  0  0  0  0  0  0  0  0  0
   -0.3568    8.7799   -1.7953 H   0  0  0  0  0  0  0  0  0  0  0  0
    1.4606    8.4309    1.0522 H   0  0  0  0  0  0  0  0  0  0  0  0
    0.7838    7.8124   -0.4924 H   0  0  0  0  0  0  0  0  0  0  0  0
    2.3263    8.7328   -0.4924 H   0  0  0  0  0  0  0  0  0  0  0  0
    2.1675   14.0154    0.6798 H   0  0  0  0  0  0  0  0  0  0  0  0
    3.5709   13.8262   -0.4253 H   0  0  0  0  0  0  0  0  0  0  0  0
    2.6275   15.3548   -0.4253 H   0  0  0  0  0  0  0  0  0  0  0  0
   -0.1704   14.8854   -1.1553 H   0  0  0  0  0  0  0  0  0  0  0  0
    1.3124   15.7575   -1.8434 H   0  0  0  0  0  0  0  0  0  0  0  0
   -0.6437   13.9827   -3.3311 H   0  0  0  0  0  0  0  0  0  0  0  0
   -0.3601   15.7576   -3.5224 H   0  0  0  0  0  0  0  0  0  0  0  0
    2.4304   15.9735   -3.2211 H   0  0  0  0  0  0  0  0  0  0  0  0
    3.1446   15.4275   -4.7763 H   0  0  0  0  0  0  0  0  0  0  0  0
    1.7659   16.5790   -4.7763 H   0  0  0  0  0  0  0  0  0  0  0  0
  1  2  1  0
  2  3  1  0
  3  4  1  0
  4  5  1  0
  5  6  1  0
  6  7  1  0
  7  8  1  0
  7  9  1  0
  2 10  1  0
 10 11  1  0
 11 12  1  0
 12 13  1  0
 13 14  1  1
 13 15  1  0
 15 16  1  0
 16 17  1  0
 17 18  2  0
 18 19  1  0
 19 20  1  0
 20 21  1  0
 21 22  1  0
 22 23  1  0
 22 24  1  0
 24 25  1  0
 24 26  1  0
 19 27  1  0
 27 28  1  1
 27 29  1  0
 29 30  1  0
 30 31  1  0
 31 32  1  6
  7  5  1  0
 31 10  1  0
 31 13  1  0
 27 15  1  0
 24 18  1  0
  1 33  1  0
  1 34  1  0
  1 35  1  0
  2 36  1  6
  3 37  1  0
  3 38  1  0
  4 39  1  0
  4 40  1  0
  5 41  1  1
  8 42  1  0
  8 43  1  0
  8 44  1  0
  9 45  1  0
  9 46  1  0
  9 47  1  0
 10 48  1  1
 11 49  1  0
 11 50  1  0
 12 51  1  0
 12 52  1  0
 14 53  1  0
 14 54  1  0
 14 55  1  0
 15 56  1  6
 16 57  1  0
 16 58  1  0
 17 59  1  0
 19 60  1  6
 20 61  1  0
 20 62  1  0
 21 63  1  0
 21 64  1  0
 22 65  1  1
 23 66  1  0
 25 67  1  0
 25 68  1  0
 25 69  1  0
 26 70  1  0
 26 71  1  0
 26 72  1  0
 28 73  1  0
 28 74  1  0
 28 75  1  0
 29 76  1  0
 29 77  1  0
 30 78  1  0
 30 79  1  0
 32 80  1  0
 32 81  1  0
 32 82  1  0
M  END
>  <meeko>  (18) 
{"is_sidechain": [false], "intermolecular_energy": 2.731, "internal_energy": -0.839}

$$$$
