EPH_relaxed_0001_pdb2pqr_Repair_248_r2_0001_out
     RDKit          3D

 82 86  0  0  0  0  0  0  0  0999 V2000
    4.1300   17.2770   -0.7340 C   0  0  0  0  0  0  0  0  0  0  0  0
    2.7750   17.8940   -0.3760 C   0  0  2  0  0  0  0  0  0  0  0  0
    2.8410   18.7280    0.9200 C   0  0  0  0  0  0  0  0  0  0  0  0
    4.1620   18.5800    1.6800 C   0  0  0  0  0  0  0  0  0  0  0  0
    4.0970   19.2210    3.0330 C   0  0  2  0  0  0  0  0  0  0  0  0
    5.1190   20.1940    3.2840 O   0  0  0  0  0  0  0  0  0  0  0  0
    5.1500   19.0170    4.1070 C   0  0  0  0  0  0  0  0  0  0  0  0
    6.3420   18.1430    3.8750 C   0  0  0  0  0  0  0  0  0  0  0  0
    4.7740   19.2690    5.5340 C   0  0  0  0  0  0  0  0  0  0  0  0
    1.7260   16.7980   -0.2360 C   0  0  1  0  0  0  0  0  0  0  0  0
    0.2850   17.3620   -0.1140 C   0  0  0  0  0  0  0  0  0  0  0  0
   -0.6510   16.3610   -0.8400 C   0  0  0  0  0  0  0  0  0  0  0  0
    0.2220   15.1040   -1.0630 C   0  0  1  0  0  0  0  0  0  0  0  0
    0.1860   14.3430    0.3000 C   0  0  0  0  0  0  0  0  0  0  0  0
   -0.1930   14.1770   -2.2520 C   0  0  2  0  0  0  0  0  0  0  0  0
   -1.5890   13.5410   -2.1280 C   0  0  0  0  0  0  0  0  0  0  0  0
   -1.6260   12.2130   -1.4470 C   0  0  0  0  0  0  0  0  0  0  0  0
   -0.5600   11.4260   -1.2100 C   0  0  0  0  0  0  0  0  0  0  0  0
    0.8320   11.8080   -1.7290 C   0  0  1  0  0  0  0  0  0  0  0  0
    1.4950   10.5720   -2.3910 C   0  0  0  0  0  0  0  0  0  0  0  0
    1.5290    9.3590   -1.4660 C   0  0  0  0  0  0  0  0  0  0  0  0
    0.1210    8.9750   -1.0180 C   0  0  2  0  0  0  0  0  0  0  0  0
   -0.6120    8.5080   -2.1550 O   0  0  0  0  0  0  0  0  0  0  0  0
   -0.6480   10.1450   -0.3440 C   0  0  0  0  0  0  0  0  0  0  0  0
   -0.0240   10.4500    1.0400 C   0  0  0  0  0  0  0  0  0  0  0  0
   -2.0990    9.6660   -0.0690 C   0  0  0  0  0  0  0  0  0  0  0  0
    0.8980   13.1020   -2.6480 C   0  0  1  0  0  0  0  0  0  0  0  0
    0.6240   12.7150   -4.1330 C   0  0  0  0  0  0  0  0  0  0  0  0
    2.3590   13.6890   -2.6050 C   0  0  0  0  0  0  0  0  0  0  0  0
    2.6730   14.6910   -1.4770 C   0  0  0  0  0  0  0  0  0  0  0  0
    1.6000   15.7810   -1.3990 C   0  0  2  0  0  0  0  0  0  0  0  0
    1.6280   16.5780   -2.7480 C   0  0  0  0  0  0  0  0  0  0  0  0
    4.6751   17.0288    0.1886 H   0  0  0  0  0  0  0  0  0  0  0  0
    3.9719   16.3621   -1.3239 H   0  0  0  0  0  0  0  0  0  0  0  0
    4.7163   17.9969   -1.3239 H   0  0  0  0  0  0  0  0  0  0  0  0
    2.4951   18.5749   -1.1934 H   0  0  0  0  0  0  0  0  0  0  0  0
    2.7078   19.7880    0.6581 H   0  0  0  0  0  0  0  0  0  0  0  0
    2.0454   18.3565    1.5825 H   0  0  0  0  0  0  0  0  0  0  0  0
    4.3849   17.5098    1.8027 H   0  0  0  0  0  0  0  0  0  0  0  0
    4.9500   19.0823    1.0997 H   0  0  0  0  0  0  0  0  0  0  0  0
    3.0007   19.1327    3.0482 H   0  0  0  0  0  0  0  0  0  0  0  0
    6.7638   17.8337    4.8427 H   0  0  0  0  0  0  0  0  0  0  0  0
    6.0382   17.2520    3.3059 H   0  0  0  0  0  0  0  0  0  0  0  0
    7.1004   18.7007    3.3059 H   0  0  0  0  0  0  0  0  0  0  0  0
    5.5031   18.7804    6.1971 H   0  0  0  0  0  0  0  0  0  0  0  0
    4.7713   20.3520    5.7267 H   0  0  0  0  0  0  0  0  0  0  0  0
    3.7713   18.8598    5.7267 H   0  0  0  0  0  0  0  0  0  0  0  0
    2.1051   16.2943    0.6655 H   0  0  0  0  0  0  0  0  0  0  0  0
    0.0000   17.4470    0.9450 H   0  0  0  0  0  0  0  0  0  0  0  0
    0.2143   18.3643   -0.5617 H   0  0  0  0  0  0  0  0  0  0  0  0
   -1.5239   16.1219   -0.2149 H   0  0  0  0  0  0  0  0  0  0  0  0
   -1.0465   16.7674   -1.7826 H   0  0  0  0  0  0  0  0  0  0  0  0
    0.2203   15.0686    1.1261 H   0  0  0  0  0  0  0  0  0  0  0  0
   -0.7410   13.7546    0.3671 H   0  0  0  0  0  0  0  0  0  0  0  0
    1.0533   13.6697    0.3671 H   0  0  0  0  0  0  0  0  0  0  0  0
   -0.2611   14.8863   -3.0900 H   0  0  0  0  0  0  0  0  0  0  0  0
   -2.2284   14.2325   -1.5596 H   0  0  0  0  0  0  0  0  0  0  0  0
   -1.9361   13.3654   -3.1569 H   0  0  0  0  0  0  0  0  0  0  0  0
   -2.6071   11.8467   -1.1105 H   0  0  0  0  0  0  0  0  0  0  0  0
    1.4123   12.1142   -0.8461 H   0  0  0  0  0  0  0  0  0  0  0  0
    0.9268   10.3095   -3.2956 H   0  0  0  0  0  0  0  0  0  0  0  0
    2.5352   10.8391   -2.6288 H   0  0  0  0  0  0  0  0  0  0  0  0
    1.9804    8.5106   -2.0012 H   0  0  0  0  0  0  0  0  0  0  0  0
    2.1237    9.6126   -0.5761 H   0  0  0  0  0  0  0  0  0  0  0  0
    0.2196    8.1865   -0.2574 H   0  0  0  0  0  0  0  0  0  0  0  0
   -0.2300    8.9280   -2.9440 H   0  0  0  0  0  0  0  0  0  0  0  0
   -0.7090   10.1152    1.8329 H   0  0  0  0  0  0  0  0  0  0  0  0
    0.9345    9.9188    1.1351 H   0  0  0  0  0  0  0  0  0  0  0  0
    0.1457   11.5327    1.1351 H   0  0  0  0  0  0  0  0  0  0  0  0
   -2.2672    9.6105    1.0166 H   0  0  0  0  0  0  0  0  0  0  0  0
   -2.8104   10.3770   -0.5144 H   0  0  0  0  0  0  0  0  0  0  0  0
   -2.2474    8.6712   -0.5144 H   0  0  0  0  0  0  0  0  0  0  0  0
   -0.0113   11.8177   -4.1668 H   0  0  0  0  0  0  0  0  0  0  0  0
    0.1120   13.5461   -4.6400 H   0  0  0  0  0  0  0  0  0  0  0  0
    1.5780   12.5081   -4.6400 H   0  0  0  0  0  0  0  0  0  0  0  0
    3.0545   12.8431   -2.5016 H   0  0  0  0  0  0  0  0  0  0  0  0
    2.4659   14.2628   -3.5374 H   0  0  0  0  0  0  0  0  0  0  0  0
    2.7105   14.1534   -0.5180 H   0  0  0  0  0  0  0  0  0  0  0  0
    3.6419   15.1666   -1.6894 H   0  0  0  0  0  0  0  0  0  0  0  0
    1.6659   17.6567   -2.5359 H   0  0  0  0  0  0  0  0  0  0  0  0
    2.5165   16.2868   -3.3275 H   0  0  0  0  0  0  0  0  0  0  0  0
    0.7213   16.3499   -3.3275 H   0  0  0  0  0  0  0  0  0  0  0  0
  1  2  1  0
  2  3  1  0
  3  4  1  0
  4  5  1  0
  5  6  1  0
  6  7  1  0
  7  8  1  0
  7  9  1  0
  2 10  1  0
 10 11  1  0
 11 12  1  0
 12 13  1  0
 13 14  1  1
 13 15  1  0
 15 16  1  0
 16 17  1  0
 17 18  2  0
 18 19  1  0
 19 20  1  0
 20 21  1  0
 21 22  1  0
 22 23  1  0
 22 24  1  0
 24 25  1  0
 24 26  1  0
 19 27  1  0
 27 28  1  6
 27 29  1  0
 29 30  1  0
 30 31  1  0
 31 32  1  6
  7  5  1  0
 31 10  1  0
 31 13  1  0
 27 15  1  0
 24 18  1  0
  1 33  1  0
  1 34  1  0
  1 35  1  0
  2 36  1  6
  3 37  1  0
  3 38  1  0
  4 39  1  0
  4 40  1  0
  5 41  1  1
  8 42  1  0
  8 43  1  0
  8 44  1  0
  9 45  1  0
  9 46  1  0
  9 47  1  0
 10 48  1  1
 11 49  1  0
 11 50  1  0
 12 51  1  0
 12 52  1  0
 14 53  1  0
 14 54  1  0
 14 55  1  0
 15 56  1  6
 16 57  1  0
 16 58  1  0
 17 59  1  0
 19 60  1  1
 20 61  1  0
 20 62  1  0
 21 63  1  0
 21 64  1  0
 22 65  1  1
 23 66  1  0
 25 67  1  0
 25 68  1  0
 25 69  1  0
 26 70  1  0
 26 71  1  0
 26 72  1  0
 28 73  1  0
 28 74  1  0
 28 75  1  0
 29 76  1  0
 29 77  1  0
 30 78  1  0
 30 79  1  0
 32 80  1  0
 32 81  1  0
 32 82  1  0
M  END
>  <meeko>  (1) 
{"is_sidechain": [false], "intermolecular_energy": 2.731, "internal_energy": -0.839}

$$$$
EPH_relaxed_0001_pdb2pqr_Repair_248_r2_0001_out
     RDKit          3D

 82 86  0  0  0  0  0  0  0  0999 V2000
   -1.7540    8.5760   -1.9500 C   0  0  0  0  0  0  0  0  0  0  0  0
   -2.1090    9.0380   -0.5340 C   0  0  2  0  0  0  0  0  0  0  0  0
   -3.6110    9.3510   -0.3840 C   0  0  0  0  0  0  0  0  0  0  0  0
   -4.4940    8.1030   -0.2970 C   0  0  0  0  0  0  0  0  0  0  0  0
   -5.2430    7.8640   -1.5730 C   0  0  2  0  0  0  0  0  0  0  0  0
   -6.4390    8.6420   -1.7200 O   0  0  0  0  0  0  0  0  0  0  0  0
   -6.6150    7.2190   -1.6300 C   0  0  0  0  0  0  0  0  0  0  0  0
   -7.3180    6.7700   -0.3870 C   0  0  0  0  0  0  0  0  0  0  0  0
   -7.0540    6.5840   -2.9120 C   0  0  0  0  0  0  0  0  0  0  0  0
   -1.2820   10.2640   -0.1650 C   0  0  1  0  0  0  0  0  0  0  0  0
   -0.3030    9.9940    1.0090 C   0  0  0  0  0  0  0  0  0  0  0  0
    0.9710   10.8320    0.7310 C   0  0  0  0  0  0  0  0  0  0  0  0
    0.5610   11.8010   -0.4020 C   0  0  1  0  0  0  0  0  0  0  0  0
   -0.1970   12.9610    0.3180 C   0  0  0  0  0  0  0  0  0  0  0  0
    1.7190   12.3400   -1.3040 C   0  0  2  0  0  0  0  0  0  0  0  0
    2.7770   13.1840   -0.5720 C   0  0  0  0  0  0  0  0  0  0  0  0
    2.5050   14.6510   -0.5290 C   0  0  0  0  0  0  0  0  0  0  0  0
    1.6100   15.3030   -1.2940 C   0  0  0  0  0  0  0  0  0  0  0  0
    0.8270   14.5690   -2.3900 C   0  0  1  0  0  0  0  0  0  0  0  0
    0.8520   15.4070   -3.6950 C   0  0  0  0  0  0  0  0  0  0  0  0
    0.3590   16.8350   -3.4830 C   0  0  0  0  0  0  0  0  0  0  0  0
    1.1990   17.5510   -2.4290 C   0  0  2  0  0  0  0  0  0  0  0  0
    2.5250   17.7260   -2.9370 O   0  0  0  0  0  0  0  0  0  0  0  0
    1.2550   16.7950   -1.0720 C   0  0  0  0  0  0  0  0  0  0  0  0
   -0.1270   16.8680   -0.3780 C   0  0  0  0  0  0  0  0  0  0  0  0
    2.2470   17.5490   -0.1460 C   0  0  0  0  0  0  0  0  0  0  0  0
    1.2300   13.0510   -2.6310 C   0  0  1  0  0  0  0  0  0  0  0  0
    2.4150   12.9690   -3.6420 C   0  0  0  0  0  0  0  0  0  0  0  0
    0.0210   12.2980   -3.3020 C   0  0  0  0  0  0  0  0  0  0  0  0
   -1.0270   11.6840   -2.3550 C   0  0  0  0  0  0  0  0  0  0  0  0
   -0.3550   10.8520   -1.2580 C   0  0  2  0  0  0  0  0  0  0  0  0
    0.3970    9.6650   -1.9500 C   0  0  0  0  0  0  0  0  0  0  0  0
   -1.0846    7.7049   -1.8945 H   0  0  0  0  0  0  0  0  0  0  0  0
   -2.6733    8.2984   -2.4864 H   0  0  0  0  0  0  0  0  0  0  0  0
   -1.2490    9.3928   -2.4864 H   0  0  0  0  0  0  0  0  0  0  0  0
   -1.8747    8.2108    0.1522 H   0  0  0  0  0  0  0  0  0  0  0  0
   -3.7528    9.9414    0.5332 H   0  0  0  0  0  0  0  0  0  0  0  0
   -3.9170    9.8990   -1.2873 H   0  0  0  0  0  0  0  0  0  0  0  0
   -3.8580    7.2302   -0.0881 H   0  0  0  0  0  0  0  0  0  0  0  0
   -5.2279    8.2575    0.5077 H   0  0  0  0  0  0  0  0  0  0  0  0
   -4.3066    7.6548   -2.1109 H   0  0  0  0  0  0  0  0  0  0  0  0
   -6.7644    7.1236    0.4954 H   0  0  0  0  0  0  0  0  0  0  0  0
   -8.3365    7.1852   -0.3715 H   0  0  0  0  0  0  0  0  0  0  0  0
   -7.3696    5.6713   -0.3715 H   0  0  0  0  0  0  0  0  0  0  0  0
   -7.6668    5.6976   -2.6911 H   0  0  0  0  0  0  0  0  0  0  0  0
   -7.6477    7.3046   -3.4936 H   0  0  0  0  0  0  0  0  0  0  0  0
   -6.1702    6.2831   -3.4936 H   0  0  0  0  0  0  0  0  0  0  0  0
   -2.0933   10.9716    0.0612 H   0  0  0  0  0  0  0  0  0  0  0  0
   -0.7591   10.3028    1.9612 H   0  0  0  0  0  0  0  0  0  0  0  0
   -0.0626    8.9232    1.0844 H   0  0  0  0  0  0  0  0  0  0  0  0
    1.2722   11.3905    1.6296 H   0  0  0  0  0  0  0  0  0  0  0  0
    1.8305   10.2045    0.4526 H   0  0  0  0  0  0  0  0  0  0  0  0
   -0.1134   12.8331    1.4073 H   0  0  0  0  0  0  0  0  0  0  0  0
    0.2461   13.9248    0.0269 H   0  0  0  0  0  0  0  0  0  0  0  0
   -1.2576   12.9422    0.0269 H   0  0  0  0  0  0  0  0  0  0  0  0
    2.2315   11.4152   -1.6074 H   0  0  0  0  0  0  0  0  0  0  0  0
    2.8444   12.8204    0.4640 H   0  0  0  0  0  0  0  0  0  0  0  0
    3.7096   13.0643   -1.1428 H   0  0  0  0  0  0  0  0  0  0  0  0
    3.0851   15.2498    0.1886 H   0  0  0  0  0  0  0  0  0  0  0  0
   -0.2059   14.4850   -2.0212 H   0  0  0  0  0  0  0  0  0  0  0  0
    1.8850   15.4429   -4.0712 H   0  0  0  0  0  0  0  0  0  0  0  0
    0.1753   14.9237   -4.4151 H   0  0  0  0  0  0  0  0  0  0  0  0
    0.4286   17.3847   -4.4332 H   0  0  0  0  0  0  0  0  0  0  0  0
   -0.6840   16.7985   -3.1354 H   0  0  0  0  0  0  0  0  0  0  0  0
    0.7192   18.5203   -2.2281 H   0  0  0  0  0  0  0  0  0  0  0  0
    2.5390   18.5560   -3.4430 H   0  0  0  0  0  0  0  0  0  0  0  0
    0.0099   16.8608    0.7134 H   0  0  0  0  0  0  0  0  0  0  0  0
   -0.6391   17.7944   -0.6772 H   0  0  0  0  0  0  0  0  0  0  0  0
   -0.7338   16.0007   -0.6772 H   0  0  0  0  0  0  0  0  0  0  0  0
    1.9888   17.3528    0.9051 H   0  0  0  0  0  0  0  0  0  0  0  0
    3.2710   17.1992   -0.3435 H   0  0  0  0  0  0  0  0  0  0  0  0
    2.1841   18.6293   -0.3435 H   0  0  0  0  0  0  0  0  0  0  0  0
    3.3641   12.9033   -3.0899 H   0  0  0  0  0  0  0  0  0  0  0  0
    2.2963   12.0769   -4.2745 H   0  0  0  0  0  0  0  0  0  0  0  0
    2.4203   13.8689   -4.2745 H   0  0  0  0  0  0  0  0  0  0  0  0
   -0.4989   13.0167   -3.9525 H   0  0  0  0  0  0  0  0  0  0  0  0
    0.4707   11.4423   -3.8270 H   0  0  0  0  0  0  0  0  0  0  0  0
   -1.6077   12.4931   -1.8880 H   0  0  0  0  0  0  0  0  0  0  0  0
   -1.6854   11.0255   -2.9406 H   0  0  0  0  0  0  0  0  0  0  0  0
    0.8182    9.0001   -1.1816 H   0  0  0  0  0  0  0  0  0  0  0  0
   -0.3083    9.1000   -2.5772 H   0  0  0  0  0  0  0  0  0  0  0  0
    1.2091   10.0613   -2.5772 H   0  0  0  0  0  0  0  0  0  0  0  0
  1  2  1  0
  2  3  1  0
  3  4  1  0
  4  5  1  0
  5  6  1  0
  6  7  1  0
  7  8  1  0
  7  9  1  0
  2 10  1  0
 10 11  1  0
 11 12  1  0
 12 13  1  0
 13 14  1  1
 13 15  1  0
 15 16  1  0
 16 17  1  0
 17 18  2  0
 18 19  1  0
 19 20  1  0
 20 21  1  0
 21 22  1  0
 22 23  1  0
 22 24  1  0
 24 25  1  0
 24 26  1  0
 19 27  1  0
 27 28  1  6
 27 29  1  0
 29 30  1  0
 30 31  1  0
 31 32  1  6
  7  5  1  0
 31 10  1  0
 31 13  1  0
 27 15  1  0
 24 18  1  0
  1 33  1  0
  1 34  1  0
  1 35  1  0
  2 36  1  1
  3 37  1  0
  3 38  1  0
  4 39  1  0
  4 40  1  0
  5 41  1  6
  8 42  1  0
  8 43  1  0
  8 44  1  0
  9 45  1  0
  9 46  1  0
  9 47  1  0
 10 48  1  1
 11 49  1  0
 11 50  1  0
 12 51  1  0
 12 52  1  0
 14 53  1  0
 14 54  1  0
 14 55  1  0
 15 56  1  6
 16 57  1  0
 16 58  1  0
 17 59  1  0
 19 60  1  1
 20 61  1  0
 20 62  1  0
 21 63  1  0
 21 64  1  0
 22 65  1  1
 23 66  1  0
 25 67  1  0
 25 68  1  0
 25 69  1  0
 26 70  1  0
 26 71  1  0
 26 72  1  0
 28 73  1  0
 28 74  1  0
 28 75  1  0
 29 76  1  0
 29 77  1  0
 30 78  1  0
 30 79  1  0
 32 80  1  0
 32 81  1  0
 32 82  1  0
M  END
>  <meeko>  (2) 
{"is_sidechain": [false], "intermolecular_energy": 2.731, "internal_energy": -0.839}

$$$$
EPH_relaxed_0001_pdb2pqr_Repair_248_r2_0001_out
     RDKit          3D

 82 86  0  0  0  0  0  0  0  0999 V2000
    0.5470   18.4520    0.0860 C   0  0  0  0  0  0  0  0  0  0  0  0
    1.5950   17.3620   -0.1530 C   0  0  2  0  0  0  0  0  0  0  0  0
    2.8210   17.8950   -0.9220 C   0  0  0  0  0  0  0  0  0  0  0  0
    4.0540   18.1110   -0.0400 C   0  0  0  0  0  0  0  0  0  0  0  0
    3.6780   18.5780    1.3340 C   0  0  2  0  0  0  0  0  0  0  0  0
    3.8930   19.9750    1.5710 O   0  0  0  0  0  0  0  0  0  0  0  0
    4.6870   19.0700    2.3550 C   0  0  0  0  0  0  0  0  0  0  0  0
    6.1500   19.1200    2.0460 C   0  0  0  0  0  0  0  0  0  0  0  0
    4.3110   19.0390    3.8040 C   0  0  0  0  0  0  0  0  0  0  0  0
    0.9710   16.1970   -0.9120 C   0  0  1  0  0  0  0  0  0  0  0  0
    0.7920   16.4960   -2.4240 C   0  0  0  0  0  0  0  0  0  0  0  0
    1.0280   15.1600   -3.1750 C   0  0  0  0  0  0  0  0  0  0  0  0
    1.0050   14.0810   -2.0670 C   0  0  1  0  0  0  0  0  0  0  0  0
   -0.5090   13.8100   -1.8030 C   0  0  0  0  0  0  0  0  0  0  0  0
    1.7830   12.7600   -2.3730 C   0  0  2  0  0  0  0  0  0  0  0  0
    1.2530   11.9540   -3.5720 C   0  0  0  0  0  0  0  0  0  0  0  0
    0.2120   10.9340   -3.2450 C   0  0  0  0  0  0  0  0  0  0  0  0
   -0.0740   10.4760   -2.0120 C   0  0  0  0  0  0  0  0  0  0  0  0
    0.7510   10.9190   -0.7970 C   0  0  1  0  0  0  0  0  0  0  0  0
    1.1140    9.6790    0.0620 C   0  0  0  0  0  0  0  0  0  0  0  0
   -0.1120    8.8600    0.4550 C   0  0  0  0  0  0  0  0  0  0  0  0
   -0.8730    8.3890   -0.7820 C   0  0  2  0  0  0  0  0  0  0  0  0
   -0.0590    7.4530   -1.4950 O   0  0  0  0  0  0  0  0  0  0  0  0
   -1.2840    9.5520   -1.7280 C   0  0  0  0  0  0  0  0  0  0  0  0
   -2.3960   10.3980   -1.0610 C   0  0  0  0  0  0  0  0  0  0  0  0
   -1.9170    8.9300   -3.0020 C   0  0  0  0  0  0  0  0  0  0  0  0
    2.0110   11.8350   -1.1100 C   0  0  1  0  0  0  0  0  0  0  0  0
    3.2500   10.9430   -1.4290 C   0  0  0  0  0  0  0  0  0  0  0  0
    2.3790   12.6610    0.1780 C   0  0  0  0  0  0  0  0  0  0  0  0
    1.6650   14.0140    0.3640 C   0  0  0  0  0  0  0  0  0  0  0  0
    1.7430   14.8540   -0.9140 C   0  0  2  0  0  0  0  0  0  0  0  0
    3.2540   15.1620   -1.1930 C   0  0  0  0  0  0  0  0  0  0  0  0
    0.4082   18.5964    1.1676 H   0  0  0  0  0  0  0  0  0  0  0  0
    0.8873   19.3939   -0.3689 H   0  0  0  0  0  0  0  0  0  0  0  0
   -0.4076   18.1489   -0.3689 H   0  0  0  0  0  0  0  0  0  0  0  0
    1.9453   17.0186    0.8315 H   0  0  0  0  0  0  0  0  0  0  0  0
    3.0792   17.1709   -1.7088 H   0  0  0  0  0  0  0  0  0  0  0  0
    2.5420   18.8773   -1.3311 H   0  0  0  0  0  0  0  0  0  0  0  0
    4.6029   17.1615    0.0440 H   0  0  0  0  0  0  0  0  0  0  0  0
    4.6780   18.8871   -0.5071 H   0  0  0  0  0  0  0  0  0  0  0  0
    2.8723   17.8315    1.3932 H   0  0  0  0  0  0  0  0  0  0  0  0
    6.7226   19.1396    2.9850 H   0  0  0  0  0  0  0  0  0  0  0  0
    6.4322   18.2310    1.4629 H   0  0  0  0  0  0  0  0  0  0  0  0
    6.3708   20.0262    1.4629 H   0  0  0  0  0  0  0  0  0  0  0  0
    5.2192   19.1139    4.4201 H   0  0  0  0  0  0  0  0  0  0  0  0
    3.6450   19.8853    4.0282 H   0  0  0  0  0  0  0  0  0  0  0  0
    3.7926   18.0951    4.0282 H   0  0  0  0  0  0  0  0  0  0  0  0
    0.0334   16.0903   -0.3468 H   0  0  0  0  0  0  0  0  0  0  0  0
   -0.2255   16.8657   -2.6192 H   0  0  0  0  0  0  0  0  0  0  0  0
    1.4992   17.2685   -2.7604 H   0  0  0  0  0  0  0  0  0  0  0  0
    0.2284   14.9804   -3.9088 H   0  0  0  0  0  0  0  0  0  0  0  0
    1.9725   15.1593   -3.7388 H   0  0  0  0  0  0  0  0  0  0  0  0
   -0.6920   13.7772   -0.7188 H   0  0  0  0  0  0  0  0  0  0  0  0
   -1.1093   14.6150   -2.2520 H   0  0  0  0  0  0  0  0  0  0  0  0
   -0.7928   12.8468   -2.2520 H   0  0  0  0  0  0  0  0  0  0  0  0
    2.7719   13.1333   -2.6775 H   0  0  0  0  0  0  0  0  0  0  0  0
    0.8198   12.6627   -4.2931 H   0  0  0  0  0  0  0  0  0  0  0  0
    2.1138   11.3945   -3.9670 H   0  0  0  0  0  0  0  0  0  0  0  0
   -0.3701   10.5223   -4.0826 H   0  0  0  0  0  0  0  0  0  0  0  0
    0.1035   11.5961   -0.2206 H   0  0  0  0  0  0  0  0  0  0  0  0
    1.7962    9.0376   -0.5153 H   0  0  0  0  0  0  0  0  0  0  0  0
    1.5847   10.0407    0.9881 H   0  0  0  0  0  0  0  0  0  0  0  0
    0.2117    7.9827    1.0342 H   0  0  0  0  0  0  0  0  0  0  0  0
   -0.7793    9.4938    1.0575 H   0  0  0  0  0  0  0  0  0  0  0  0
   -1.8068    7.9210   -0.4370 H   0  0  0  0  0  0  0  0  0  0  0  0
    0.0650    6.6760   -0.9240 H   0  0  0  0  0  0  0  0  0  0  0  0
   -2.3038   10.3278    0.0329 H   0  0  0  0  0  0  0  0  0  0  0  0
   -2.2933   11.4484   -1.3710 H   0  0  0  0  0  0  0  0  0  0  0  0
   -3.3809   10.0188   -1.3710 H   0  0  0  0  0  0  0  0  0  0  0  0
   -2.6735    8.1867   -2.7101 H   0  0  0  0  0  0  0  0  0  0  0  0
   -2.3925    9.7220   -3.5993 H   0  0  0  0  0  0  0  0  0  0  0  0
   -1.1335    8.4407   -3.5993 H   0  0  0  0  0  0  0  0  0  0  0  0
    3.7134   10.6094   -0.4888 H   0  0  0  0  0  0  0  0  0  0  0  0
    2.9305   10.0664   -2.0116 H   0  0  0  0  0  0  0  0  0  0  0  0
    3.9800   11.5242   -2.0116 H   0  0  0  0  0  0  0  0  0  0  0  0
    2.1422   12.0369    1.0523 H   0  0  0  0  0  0  0  0  0  0  0  0
    3.4442   12.9111    0.0646 H   0  0  0  0  0  0  0  0  0  0  0  0
    0.6087   13.8326    0.6117 H   0  0  0  0  0  0  0  0  0  0  0  0
    2.1615   14.5643    1.1768 H   0  0  0  0  0  0  0  0  0  0  0  0
    3.7885   15.2709   -0.2378 H   0  0  0  0  0  0  0  0  0  0  0  0
    3.6965   14.3356   -1.7685 H   0  0  0  0  0  0  0  0  0  0  0  0
    3.3377   16.0957   -1.7685 H   0  0  0  0  0  0  0  0  0  0  0  0
  1  2  1  0
  2  3  1  0
  3  4  1  0
  4  5  1  0
  5  6  1  0
  6  7  1  0
  7  8  1  0
  7  9  1  0
  2 10  1  0
 10 11  1  0
 11 12  1  0
 12 13  1  0
 13 14  1  1
 13 15  1  0
 15 16  1  0
 16 17  1  0
 17 18  2  0
 18 19  1  0
 19 20  1  0
 20 21  1  0
 21 22  1  0
 22 23  1  0
 22 24  1  0
 24 25  1  0
 24 26  1  0
 19 27  1  0
 27 28  1  6
 27 29  1  0
 29 30  1  0
 30 31  1  0
 31 32  1  6
  7  5  1  0
 31 10  1  0
 31 13  1  0
 27 15  1  0
 24 18  1  0
  1 33  1  0
  1 34  1  0
  1 35  1  0
  2 36  1  1
  3 37  1  0
  3 38  1  0
  4 39  1  0
  4 40  1  0
  5 41  1  1
  8 42  1  0
  8 43  1  0
  8 44  1  0
  9 45  1  0
  9 46  1  0
  9 47  1  0
 10 48  1  1
 11 49  1  0
 11 50  1  0
 12 51  1  0
 12 52  1  0
 14 53  1  0
 14 54  1  0
 14 55  1  0
 15 56  1  6
 16 57  1  0
 16 58  1  0
 17 59  1  0
 19 60  1  1
 20 61  1  0
 20 62  1  0
 21 63  1  0
 21 64  1  0
 22 65  1  1
 23 66  1  0
 25 67  1  0
 25 68  1  0
 25 69  1  0
 26 70  1  0
 26 71  1  0
 26 72  1  0
 28 73  1  0
 28 74  1  0
 28 75  1  0
 29 76  1  0
 29 77  1  0
 30 78  1  0
 30 79  1  0
 32 80  1  0
 32 81  1  0
 32 82  1  0
M  END
>  <meeko>  (3) 
{"is_sidechain": [false], "intermolecular_energy": 2.731, "internal_energy": -0.839}

$$$$
EPH_relaxed_0001_pdb2pqr_Repair_248_r2_0001_out
     RDKit          3D

 82 86  0  0  0  0  0  0  0  0999 V2000
    2.3790   17.9720   -2.7780 C   0  0  0  0  0  0  0  0  0  0  0  0
    1.0620   17.6580   -2.0620 C   0  0  2  0  0  0  0  0  0  0  0  0
    1.2000   17.7440   -0.5290 C   0  0  0  0  0  0  0  0  0  0  0  0
    0.8710   19.1250    0.0430 C   0  0  0  0  0  0  0  0  0  0  0  0
   -0.5530   19.2100    0.5030 C   0  0  2  0  0  0  0  0  0  0  0  0
   -1.4420   18.2790   -0.1280 O   0  0  0  0  0  0  0  0  0  0  0  0
   -1.6930   19.6700   -0.3860 C   0  0  0  0  0  0  0  0  0  0  0  0
   -1.4590   20.0770   -1.8070 C   0  0  0  0  0  0  0  0  0  0  0  0
   -2.9400   20.1880    0.2600 C   0  0  0  0  0  0  0  0  0  0  0  0
    0.5690   16.2740   -2.4640 C   0  0  1  0  0  0  0  0  0  0  0  0
    0.5770   16.0600   -4.0010 C   0  0  0  0  0  0  0  0  0  0  0  0
    0.9400   14.5720   -4.2440 C   0  0  0  0  0  0  0  0  0  0  0  0
    0.8040   13.9060   -2.8550 C   0  0  1  0  0  0  0  0  0  0  0  0
   -0.7250   13.6350   -2.6890 C   0  0  0  0  0  0  0  0  0  0  0  0
    1.6470   12.6100   -2.6250 C   0  0  2  0  0  0  0  0  0  0  0  0
    1.2950   11.4290   -3.5470 C   0  0  0  0  0  0  0  0  0  0  0  0
    0.2480   10.5030   -3.0250 C   0  0  0  0  0  0  0  0  0  0  0  0
   -0.1820   10.4460   -1.7500 C   0  0  0  0  0  0  0  0  0  0  0  0
    0.4700   11.3070   -0.6610 C   0  0  1  0  0  0  0  0  0  0  0  0
    0.7530   10.4340    0.5900 C   0  0  0  0  0  0  0  0  0  0  0  0
   -0.4920    9.7060    1.0880 C   0  0  0  0  0  0  0  0  0  0  0  0
   -1.0780    8.8160   -0.0050 C   0  0  2  0  0  0  0  0  0  0  0  0
   -0.1560    7.7550   -0.2780 O   0  0  0  0  0  0  0  0  0  0  0  0
   -1.3940    9.5850   -1.3180 C   0  0  0  0  0  0  0  0  0  0  0  0
   -2.6030   10.5260   -1.0920 C   0  0  0  0  0  0  0  0  0  0  0  0
   -1.8440    8.5480   -2.3820 C   0  0  0  0  0  0  0  0  0  0  0  0
    1.7370   12.1550   -1.1120 C   0  0  1  0  0  0  0  0  0  0  0  0
    3.0280   11.2910   -0.9820 C   0  0  0  0  0  0  0  0  0  0  0  0
    1.9170   13.3730   -0.1300 C   0  0  0  0  0  0  0  0  0  0  0  0
    1.1510   14.6640   -0.4780 C   0  0  0  0  0  0  0  0  0  0  0  0
    1.3690   15.0540   -1.9420 C   0  0  2  0  0  0  0  0  0  0  0  0
    2.8950   15.3530   -2.1350 C   0  0  0  0  0  0  0  0  0  0  0  0
    3.1659   18.1596   -2.0326 H   0  0  0  0  0  0  0  0  0  0  0  0
    2.6668   17.1173   -3.4078 H   0  0  0  0  0  0  0  0  0  0  0  0
    2.2502   18.8646   -3.4078 H   0  0  0  0  0  0  0  0  0  0  0  0
    0.3284   18.4175   -2.3703 H   0  0  0  0  0  0  0  0  0  0  0  0
    0.5170   17.0095   -0.0773 H   0  0  0  0  0  0  0  0  0  0  0  0
    2.2542   17.5403   -0.2897 H   0  0  0  0  0  0  0  0  0  0  0  0
    1.5342   19.3240    0.8978 H   0  0  0  0  0  0  0  0  0  0  0  0
    1.0192   19.8698   -0.7528 H   0  0  0  0  0  0  0  0  0  0  0  0
   -0.2343   19.5146    1.5108 H   0  0  0  0  0  0  0  0  0  0  0  0
   -0.9108   21.0304   -1.8298 H   0  0  0  0  0  0  0  0  0  0  0  0
   -0.8685   19.3022   -2.3178 H   0  0  0  0  0  0  0  0  0  0  0  0
   -2.4257   20.1975   -2.3178 H   0  0  0  0  0  0  0  0  0  0  0  0
   -2.8321   20.1432    1.3538 H   0  0  0  0  0  0  0  0  0  0  0  0
   -3.1076   21.2302   -0.0495 H   0  0  0  0  0  0  0  0  0  0  0  0
   -3.7967   19.5713   -0.0495 H   0  0  0  0  0  0  0  0  0  0  0  0
   -0.4298   16.2937   -2.0035 H   0  0  0  0  0  0  0  0  0  0  0  0
   -0.4161   16.2808   -4.4193 H   0  0  0  0  0  0  0  0  0  0  0  0
    1.3021   16.7280   -4.4889 H   0  0  0  0  0  0  0  0  0  0  0  0
    0.2447   14.1151   -4.9636 H   0  0  0  0  0  0  0  0  0  0  0  0
    1.9481   14.4521   -4.6674 H   0  0  0  0  0  0  0  0  0  0  0  0
   -0.9754   13.5906   -1.6188 H   0  0  0  0  0  0  0  0  0  0  0  0
   -1.2950   14.4461   -3.1656 H   0  0  0  0  0  0  0  0  0  0  0  0
   -0.9815   12.6774   -3.1656 H   0  0  0  0  0  0  0  0  0  0  0  0
    2.6563   12.9303   -2.9229 H   0  0  0  0  0  0  0  0  0  0  0  0
    0.9397   11.8390   -4.5039 H   0  0  0  0  0  0  0  0  0  0  0  0
    2.2131   10.8299   -3.6381 H   0  0  0  0  0  0  0  0  0  0  0  0
   -0.2118    9.8077   -3.7427 H   0  0  0  0  0  0  0  0  0  0  0  0
   -0.2633   12.0886   -0.4131 H   0  0  0  0  0  0  0  0  0  0  0  0
    1.5192    9.6876    0.3334 H   0  0  0  0  0  0  0  0  0  0  0  0
    1.0934   11.1027    1.3943 H   0  0  0  0  0  0  0  0  0  0  0  0
   -0.2225    9.0829    1.9535 H   0  0  0  0  0  0  0  0  0  0  0  0
   -1.2460   10.4547    1.3726 H   0  0  0  0  0  0  0  0  0  0  0  0
   -2.0365    8.4244    0.3664 H   0  0  0  0  0  0  0  0  0  0  0  0
    0.4490    7.6890    0.4800 H   0  0  0  0  0  0  0  0  0  0  0  0
   -2.7698   10.6558   -0.0125 H   0  0  0  0  0  0  0  0  0  0  0  0
   -2.3973   11.5040   -1.5515 H   0  0  0  0  0  0  0  0  0  0  0  0
   -3.5006   10.0865   -1.5515 H   0  0  0  0  0  0  0  0  0  0  0  0
   -2.2332    7.6510   -1.8781 H   0  0  0  0  0  0  0  0  0  0  0  0
   -2.6327    8.9866   -3.0109 H   0  0  0  0  0  0  0  0  0  0  0  0
   -0.9849    8.2716   -3.0109 H   0  0  0  0  0  0  0  0  0  0  0  0
    3.2598   11.1359    0.0821 H   0  0  0  0  0  0  0  0  0  0  0  0
    2.8681   10.3173   -1.4682 H   0  0  0  0  0  0  0  0  0  0  0  0
    3.8671   11.8101   -1.4682 H   0  0  0  0  0  0  0  0  0  0  0  0
    1.5861   13.0482    0.8675 H   0  0  0  0  0  0  0  0  0  0  0  0
    2.9814   13.6424   -0.1970 H   0  0  0  0  0  0  0  0  0  0  0  0
    0.0768   14.5025   -0.3050 H   0  0  0  0  0  0  0  0  0  0  0  0
    1.5265   15.4770    0.1607 H   0  0  0  0  0  0  0  0  0  0  0  0
    3.3774   15.4475   -1.1510 H   0  0  0  0  0  0  0  0  0  0  0  0
    3.3621   14.5293   -2.6948 H   0  0  0  0  0  0  0  0  0  0  0  0
    3.0167   16.2921   -2.6948 H   0  0  0  0  0  0  0  0  0  0  0  0
  1  2  1  0
  2  3  1  0
  3  4  1  0
  4  5  1  0
  5  6  1  0
  6  7  1  0
  7  8  1  0
  7  9  1  0
  2 10  1  0
 10 11  1  0
 11 12  1  0
 12 13  1  0
 13 14  1  1
 13 15  1  0
 15 16  1  0
 16 17  1  0
 17 18  2  0
 18 19  1  0
 19 20  1  0
 20 21  1  0
 21 22  1  0
 22 23  1  0
 22 24  1  0
 24 25  1  0
 24 26  1  0
 19 27  1  0
 27 28  1  6
 27 29  1  0
 29 30  1  0
 30 31  1  0
 31 32  1  1
  7  5  1  0
 31 10  1  0
 31 13  1  0
 27 15  1  0
 24 18  1  0
  1 33  1  0
  1 34  1  0
  1 35  1  0
  2 36  1  6
  3 37  1  0
  3 38  1  0
  4 39  1  0
  4 40  1  0
  5 41  1  1
  8 42  1  0
  8 43  1  0
  8 44  1  0
  9 45  1  0
  9 46  1  0
  9 47  1  0
 10 48  1  1
 11 49  1  0
 11 50  1  0
 12 51  1  0
 12 52  1  0
 14 53  1  0
 14 54  1  0
 14 55  1  0
 15 56  1  6
 16 57  1  0
 16 58  1  0
 17 59  1  0
 19 60  1  1
 20 61  1  0
 20 62  1  0
 21 63  1  0
 21 64  1  0
 22 65  1  1
 23 66  1  0
 25 67  1  0
 25 68  1  0
 25 69  1  0
 26 70  1  0
 26 71  1  0
 26 72  1  0
 28 73  1  0
 28 74  1  0
 28 75  1  0
 29 76  1  0
 29 77  1  0
 30 78  1  0
 30 79  1  0
 32 80  1  0
 32 81  1  0
 32 82  1  0
M  END
>  <meeko>  (4) 
{"is_sidechain": [false], "intermolecular_energy": 2.731, "internal_energy": -0.839}

$$$$
EPH_relaxed_0001_pdb2pqr_Repair_248_r2_0001_out
     RDKit          3D

 82 86  0  0  0  0  0  0  0  0999 V2000
    2.0060   19.5320   -1.6900 C   0  0  0  0  0  0  0  0  0  0  0  0
    1.3390   19.4120   -0.3170 C   0  0  2  0  0  0  0  0  0  0  0  0
    2.2790   19.8470    0.8250 C   0  0  0  0  0  0  0  0  0  0  0  0
    3.3790   18.8290    1.1380 C   0  0  0  0  0  0  0  0  0  0  0  0
    3.8410   18.9320    2.5600 C   0  0  2  0  0  0  0  0  0  0  0  0
    4.4230   20.1940    2.9100 O   0  0  0  0  0  0  0  0  0  0  0  0
    5.3000   19.0580    2.9580 C   0  0  0  0  0  0  0  0  0  0  0  0
    6.3890   19.0860    1.9320 C   0  0  0  0  0  0  0  0  0  0  0  0
    5.6990   18.6620    4.3460 C   0  0  0  0  0  0  0  0  0  0  0  0
    0.8710   17.9790   -0.0900 C   0  0  1  0  0  0  0  0  0  0  0  0
   -0.5570   17.9060    0.5140 C   0  0  0  0  0  0  0  0  0  0  0  0
   -1.2340   16.6500   -0.0930 C   0  0  0  0  0  0  0  0  0  0  0  0
   -0.0790   15.8660   -0.7580 C   0  0  1  0  0  0  0  0  0  0  0  0
    0.6030   15.0880    0.4110 C   0  0  0  0  0  0  0  0  0  0  0  0
   -0.4770   14.9120   -1.9310 C   0  0  2  0  0  0  0  0  0  0  0  0
   -1.4210   13.7610   -1.5450 C   0  0  0  0  0  0  0  0  0  0  0  0
   -0.7470   12.4980   -1.1200 C   0  0  0  0  0  0  0  0  0  0  0  0
    0.5500   12.1990   -1.3200 C   0  0  0  0  0  0  0  0  0  0  0  0
    1.4600   13.1370   -2.1230 C   0  0  1  0  0  0  0  0  0  0  0  0
    2.2850   12.3100   -3.1440 C   0  0  0  0  0  0  0  0  0  0  0  0
    3.0570   11.1700   -2.4860 C   0  0  0  0  0  0  0  0  0  0  0  0
    2.1110   10.2270   -1.7470 C   0  0  2  0  0  0  0  0  0  0  0  0
    1.2820    9.5610   -2.7050 O   0  0  0  0  0  0  0  0  0  0  0  0
    1.2210   10.9500   -0.6980 C   0  0  0  0  0  0  0  0  0  0  0  0
    2.0930   11.4110    0.4960 C   0  0  0  0  0  0  0  0  0  0  0  0
    0.2170    9.9120   -0.1270 C   0  0  0  0  0  0  0  0  0  0  0  0
    0.7480   14.3930   -2.7880 C   0  0  1  0  0  0  0  0  0  0  0  0
    0.1800   14.0030   -4.1870 C   0  0  0  0  0  0  0  0  0  0  0  0
    1.8210   15.5170   -3.0420 C   0  0  0  0  0  0  0  0  0  0  0  0
    2.0830   16.5010   -1.8860 C   0  0  0  0  0  0  0  0  0  0  0  0
    0.7680   17.0590   -1.3320 C   0  0  2  0  0  0  0  0  0  0  0  0
    0.0700   17.8660   -2.4800 C   0  0  0  0  0  0  0  0  0  0  0  0
    3.0810   19.7254   -1.5598 H   0  0  0  0  0  0  0  0  0  0  0  0
    1.8671   18.5944   -2.2483 H   0  0  0  0  0  0  0  0  0  0  0  0
    1.5491   20.3624   -2.2483 H   0  0  0  0  0  0  0  0  0  0  0  0
    0.4737   20.0911   -0.3087 H   0  0  0  0  0  0  0  0  0  0  0  0
    2.7555   20.7966    0.5400 H   0  0  0  0  0  0  0  0  0  0  0  0
    1.6620   19.9424    1.7307 H   0  0  0  0  0  0  0  0  0  0  0  0
    2.9876   17.8160    0.9628 H   0  0  0  0  0  0  0  0  0  0  0  0
    4.2371   19.0388    0.4825 H   0  0  0  0  0  0  0  0  0  0  0  0
    3.0405   18.2557    2.8943 H   0  0  0  0  0  0  0  0  0  0  0  0
    7.3666   19.1111    2.4356 H   0  0  0  0  0  0  0  0  0  0  0  0
    6.3235   18.1859    1.3031 H   0  0  0  0  0  0  0  0  0  0  0  0
    6.2773   19.9816    1.3031 H   0  0  0  0  0  0  0  0  0  0  0  0
    5.1144   19.2422    5.0752 H   0  0  0  0  0  0  0  0  0  0  0  0
    5.5051   17.5890    4.4912 H   0  0  0  0  0  0  0  0  0  0  0  0
    6.7705   18.8639    4.4912 H   0  0  0  0  0  0  0  0  0  0  0  0
    1.6740   17.6256    0.5736 H   0  0  0  0  0  0  0  0  0  0  0  0
   -0.5013   17.8149    1.6088 H   0  0  0  0  0  0  0  0  0  0  0  0
   -1.1311   18.8154    0.2832 H   0  0  0  0  0  0  0  0  0  0  0  0
   -1.7098   16.0468    0.6943 H   0  0  0  0  0  0  0  0  0  0  0  0
   -2.0280   16.9094   -0.8088 H   0  0  0  0  0  0  0  0  0  0  0  0
    0.2512   15.4893    1.3729 H   0  0  0  0  0  0  0  0  0  0  0  0
    0.3438   14.0212    0.3419 H   0  0  0  0  0  0  0  0  0  0  0  0
    1.6945   15.2053    0.3419 H   0  0  0  0  0  0  0  0  0  0  0  0
   -1.0657   15.5737   -2.5834 H   0  0  0  0  0  0  0  0  0  0  0  0
   -2.0539   14.1048   -0.7136 H   0  0  0  0  0  0  0  0  0  0  0  0
   -1.9860   13.5127   -2.4555 H   0  0  0  0  0  0  0  0  0  0  0  0
   -1.3622   11.7491   -0.5998 H   0  0  0  0  0  0  0  0  0  0  0  0
    2.1342   13.6060   -1.3912 H   0  0  0  0  0  0  0  0  0  0  0  0
    1.5981   11.8856   -3.8911 H   0  0  0  0  0  0  0  0  0  0  0  0
    3.0186   12.9866   -3.6067 H   0  0  0  0  0  0  0  0  0  0  0  0
    3.5956   10.6052   -3.2612 H   0  0  0  0  0  0  0  0  0  0  0  0
    3.7648   11.5975   -1.7606 H   0  0  0  0  0  0  0  0  0  0  0  0
    2.7303    9.5083   -1.1903 H   0  0  0  0  0  0  0  0  0  0  0  0
    1.6950    8.7040   -2.9050 H   0  0  0  0  0  0  0  0  0  0  0  0
    1.5926   11.1465    1.4392 H   0  0  0  0  0  0  0  0  0  0  0  0
    3.0726   10.9130    0.4484 H   0  0  0  0  0  0  0  0  0  0  0  0
    2.2331   12.5010    0.4484 H   0  0  0  0  0  0  0  0  0  0  0  0
    0.2451    9.9410    0.9723 H   0  0  0  0  0  0  0  0  0  0  0  0
   -0.7982   10.1543   -0.4744 H   0  0  0  0  0  0  0  0  0  0  0  0
    0.4929    8.9054   -0.4744 H   0  0  0  0  0  0  0  0  0  0  0  0
   -0.7205   13.3847   -4.0577 H   0  0  0  0  0  0  0  0  0  0  0  0
   -0.0784   14.9150   -4.7450 H   0  0  0  0  0  0  0  0  0  0  0  0
    0.9383   13.4342   -4.7450 H   0  0  0  0  0  0  0  0  0  0  0  0
    2.7736   15.0204   -3.2787 H   0  0  0  0  0  0  0  0  0  0  0  0
    1.4072   16.1316   -3.8550 H   0  0  0  0  0  0  0  0  0  0  0  0
    2.6186   15.9762   -1.0812 H   0  0  0  0  0  0  0  0  0  0  0  0
    2.6860   17.3381   -2.2678 H   0  0  0  0  0  0  0  0  0  0  0  0
   -0.5902   18.6293   -2.0425 H   0  0  0  0  0  0  0  0  0  0  0  0
    0.8345   18.3551   -3.1016 H   0  0  0  0  0  0  0  0  0  0  0  0
   -0.5241   17.1800   -3.1016 H   0  0  0  0  0  0  0  0  0  0  0  0
  1  2  1  0
  2  3  1  0
  3  4  1  0
  4  5  1  0
  5  6  1  0
  6  7  1  0
  7  8  1  0
  7  9  1  0
  2 10  1  0
 10 11  1  0
 11 12  1  0
 12 13  1  0
 13 14  1  1
 13 15  1  0
 15 16  1  0
 16 17  1  0
 17 18  2  0
 18 19  1  0
 19 20  1  0
 20 21  1  0
 21 22  1  0
 22 23  1  0
 22 24  1  0
 24 25  1  0
 24 26  1  0
 19 27  1  0
 27 28  1  6
 27 29  1  0
 29 30  1  0
 30 31  1  0
 31 32  1  6
  7  5  1  0
 31 10  1  0
 31 13  1  0
 27 15  1  0
 24 18  1  0
  1 33  1  0
  1 34  1  0
  1 35  1  0
  2 36  1  6
  3 37  1  0
  3 38  1  0
  4 39  1  0
  4 40  1  0
  5 41  1  1
  8 42  1  0
  8 43  1  0
  8 44  1  0
  9 45  1  0
  9 46  1  0
  9 47  1  0
 10 48  1  1
 11 49  1  0
 11 50  1  0
 12 51  1  0
 12 52  1  0
 14 53  1  0
 14 54  1  0
 14 55  1  0
 15 56  1  6
 16 57  1  0
 16 58  1  0
 17 59  1  0
 19 60  1  1
 20 61  1  0
 20 62  1  0
 21 63  1  0
 21 64  1  0
 22 65  1  1
 23 66  1  0
 25 67  1  0
 25 68  1  0
 25 69  1  0
 26 70  1  0
 26 71  1  0
 26 72  1  0
 28 73  1  0
 28 74  1  0
 28 75  1  0
 29 76  1  0
 29 77  1  0
 30 78  1  0
 30 79  1  0
 32 80  1  0
 32 81  1  0
 32 82  1  0
M  END
>  <meeko>  (5) 
{"is_sidechain": [false], "intermolecular_energy": 2.731, "internal_energy": -0.839}

$$$$
EPH_relaxed_0001_pdb2pqr_Repair_248_r2_0001_out
     RDKit          3D

 82 86  0  0  0  0  0  0  0  0999 V2000
    3.9670   17.2780    0.0990 C   0  0  0  0  0  0  0  0  0  0  0  0
    2.7680   17.7640   -0.7210 C   0  0  2  0  0  0  0  0  0  0  0  0
    2.2150   19.1060   -0.2000 C   0  0  0  0  0  0  0  0  0  0  0  0
    1.0440   18.9520    0.7750 C   0  0  0  0  0  0  0  0  0  0  0  0
   -0.0950   19.8590    0.4210 C   0  0  2  0  0  0  0  0  0  0  0  0
   -0.9590   20.1910    1.5160 O   0  0  0  0  0  0  0  0  0  0  0  0
   -1.5490   19.4260    0.4530 C   0  0  0  0  0  0  0  0  0  0  0  0
   -1.9420   18.0370    0.8480 C   0  0  0  0  0  0  0  0  0  0  0  0
   -2.5420   20.1940   -0.3630 C   0  0  0  0  0  0  0  0  0  0  0  0
    1.6690   16.7090   -0.7110 C   0  0  1  0  0  0  0  0  0  0  0  0
    0.3200   17.2450   -1.2590 C   0  0  0  0  0  0  0  0  0  0  0  0
   -0.3570   16.0700   -2.0100 C   0  0  0  0  0  0  0  0  0  0  0  0
    0.4530   14.8210   -1.5900 C   0  0  1  0  0  0  0  0  0  0  0  0
   -0.1170   14.4230   -0.1930 C   0  0  0  0  0  0  0  0  0  0  0  0
    0.4320   13.6160   -2.5870 C   0  0  2  0  0  0  0  0  0  0  0  0
   -0.9540   12.9930   -2.8270 C   0  0  0  0  0  0  0  0  0  0  0  0
   -1.3190   11.8750   -1.9070 C   0  0  0  0  0  0  0  0  0  0  0  0
   -0.4620   11.2020   -1.1170 C   0  0  0  0  0  0  0  0  0  0  0  0
    1.0450   11.4810   -1.1710 C   0  0  1  0  0  0  0  0  0  0  0  0
    1.8190   10.1380   -1.2280 C   0  0  0  0  0  0  0  0  0  0  0  0
    1.4410    9.1960   -0.0890 C   0  0  0  0  0  0  0  0  0  0  0  0
   -0.0560    8.8960   -0.1040 C   0  0  2  0  0  0  0  0  0  0  0  0
   -0.3630    8.1400   -1.2800 O   0  0  0  0  0  0  0  0  0  0  0  0
   -0.9370   10.1750   -0.0590 C   0  0  0  0  0  0  0  0  0  0  0  0
   -0.8310   10.8320    1.3390 C   0  0  0  0  0  0  0  0  0  0  0  0
   -2.4190    9.7390   -0.2220 C   0  0  0  0  0  0  0  0  0  0  0  0
    1.5200   12.5070   -2.2870 C   0  0  1  0  0  0  0  0  0  0  0  0
    1.7700   11.7550   -3.6300 C   0  0  0  0  0  0  0  0  0  0  0  0
    2.9040   13.1270   -1.8610 C   0  0  0  0  0  0  0  0  0  0  0  0
    2.8580   14.3860   -0.9750 C   0  0  0  0  0  0  0  0  0  0  0  0
    1.9010   15.4320   -1.5570 C   0  0  2  0  0  0  0  0  0  0  0  0
    2.4620   15.8680   -2.9530 C   0  0  0  0  0  0  0  0  0  0  0  0
    3.7395   17.3702    1.1713 H   0  0  0  0  0  0  0  0  0  0  0  0
    4.1739   16.2250   -0.1427 H   0  0  0  0  0  0  0  0  0  0  0  0
    4.8487   17.8897   -0.1427 H   0  0  0  0  0  0  0  0  0  0  0  0
    3.1161   17.9275   -1.7516 H   0  0  0  0  0  0  0  0  0  0  0  0
    3.0274   19.6402    0.3145 H   0  0  0  0  0  0  0  0  0  0  0  0
    1.8364   19.6584   -1.0727 H   0  0  0  0  0  0  0  0  0  0  0  0
    0.6919   17.9102    0.7475 H   0  0  0  0  0  0  0  0  0  0  0  0
    1.3976   19.2222    1.7809 H   0  0  0  0  0  0  0  0  0  0  0  0
    0.5102   20.3572   -0.3507 H   0  0  0  0  0  0  0  0  0  0  0  0
   -1.9638   17.9601    1.9451 H   0  0  0  0  0  0  0  0  0  0  0  0
   -2.9398   17.8095    0.4446 H   0  0  0  0  0  0  0  0  0  0  0  0
   -1.2113   17.3205    0.4446 H   0  0  0  0  0  0  0  0  0  0  0  0
   -3.2323   20.7279    0.3067 H   0  0  0  0  0  0  0  0  0  0  0  0
   -2.0122   20.9196   -0.9976 H   0  0  0  0  0  0  0  0  0  0  0  0
   -3.1111   19.4987   -0.9976 H   0  0  0  0  0  0  0  0  0  0  0  0
    1.6670   16.4564    0.3596 H   0  0  0  0  0  0  0  0  0  0  0  0
   -0.3186   17.5822   -0.4293 H   0  0  0  0  0  0  0  0  0  0  0  0
    0.4791   18.1025   -1.9294 H   0  0  0  0  0  0  0  0  0  0  0  0
   -1.4097   15.9703   -1.7068 H   0  0  0  0  0  0  0  0  0  0  0  0
   -0.3606   16.2181   -3.1000 H   0  0  0  0  0  0  0  0  0  0  0  0
    0.5103   14.8610    0.5973 H   0  0  0  0  0  0  0  0  0  0  0  0
   -1.1458   14.8001   -0.0958 H   0  0  0  0  0  0  0  0  0  0  0  0
   -0.1174   13.3273   -0.0958 H   0  0  0  0  0  0  0  0  0  0  0  0
    0.7152   14.0913   -3.5377 H   0  0  0  0  0  0  0  0  0  0  0  0
   -1.7075   13.7863   -2.7134 H   0  0  0  0  0  0  0  0  0  0  0  0
   -0.9211   12.5577   -3.8367 H   0  0  0  0  0  0  0  0  0  0  0  0
   -2.3771   11.5764   -1.8720 H   0  0  0  0  0  0  0  0  0  0  0  0
    1.2893   12.0127   -0.2396 H   0  0  0  0  0  0  0  0  0  0  0  0
    1.5954    9.6425   -2.1843 H   0  0  0  0  0  0  0  0  0  0  0  0
    2.8907   10.3660   -1.1309 H   0  0  0  0  0  0  0  0  0  0  0  0
    1.9982    8.2541   -0.2007 H   0  0  0  0  0  0  0  0  0  0  0  0
    1.6927    9.6805    0.8659 H   0  0  0  0  0  0  0  0  0  0  0  0
   -0.2875    8.3242    0.8067 H   0  0  0  0  0  0  0  0  0  0  0  0
   -1.3040    7.9020   -1.2390 H   0  0  0  0  0  0  0  0  0  0  0  0
   -0.9550   10.0631    2.1158 H   0  0  0  0  0  0  0  0  0  0  0  0
    0.1554   11.3068    1.4472 H   0  0  0  0  0  0  0  0  0  0  0  0
   -1.6180   11.5929    1.4472 H   0  0  0  0  0  0  0  0  0  0  0  0
   -2.8732    9.6054    0.7709 H   0  0  0  0  0  0  0  0  0  0  0  0
   -2.9701   10.5131   -0.7762 H   0  0  0  0  0  0  0  0  0  0  0  0
   -2.4631    8.7898   -0.7762 H   0  0  0  0  0  0  0  0  0  0  0  0
    2.1106   10.7306   -3.4187 H   0  0  0  0  0  0  0  0  0  0  0  0
    0.8356   11.7186   -4.2093 H   0  0  0  0  0  0  0  0  0  0  0  0
    2.5402   12.2853   -4.2093 H   0  0  0  0  0  0  0  0  0  0  0  0
    3.4600   12.3534   -1.3112 H   0  0  0  0  0  0  0  0  0  0  0  0
    3.3744   13.4532   -2.8003 H   0  0  0  0  0  0  0  0  0  0  0  0
    2.5150   14.1052    0.0317 H   0  0  0  0  0  0  0  0  0  0  0  0
    3.8675   14.8206   -0.9306 H   0  0  0  0  0  0  0  0  0  0  0  0
    3.3231   16.5372   -2.8094 H   0  0  0  0  0  0  0  0  0  0  0  0
    2.7796   14.9773   -3.5150 H   0  0  0  0  0  0  0  0  0  0  0  0
    1.6773   16.3956   -3.5150 H   0  0  0  0  0  0  0  0  0  0  0  0
  1  2  1  0
  2  3  1  0
  3  4  1  0
  4  5  1  0
  5  6  1  0
  6  7  1  0
  7  8  1  0
  7  9  1  0
  2 10  1  0
 10 11  1  0
 11 12  1  0
 12 13  1  0
 13 14  1  1
 13 15  1  0
 15 16  1  0
 16 17  1  0
 17 18  2  0
 18 19  1  0
 19 20  1  0
 20 21  1  0
 21 22  1  0
 22 23  1  0
 22 24  1  0
 24 25  1  0
 24 26  1  0
 19 27  1  0
 27 28  1  6
 27 29  1  0
 29 30  1  0
 30 31  1  0
 31 32  1  6
  7  5  1  0
 31 10  1  0
 31 13  1  0
 27 15  1  0
 24 18  1  0
  1 33  1  0
  1 34  1  0
  1 35  1  0
  2 36  1  6
  3 37  1  0
  3 38  1  0
  4 39  1  0
  4 40  1  0
  5 41  1  6
  8 42  1  0
  8 43  1  0
  8 44  1  0
  9 45  1  0
  9 46  1  0
  9 47  1  0
 10 48  1  1
 11 49  1  0
 11 50  1  0
 12 51  1  0
 12 52  1  0
 14 53  1  0
 14 54  1  0
 14 55  1  0
 15 56  1  6
 16 57  1  0
 16 58  1  0
 17 59  1  0
 19 60  1  1
 20 61  1  0
 20 62  1  0
 21 63  1  0
 21 64  1  0
 22 65  1  1
 23 66  1  0
 25 67  1  0
 25 68  1  0
 25 69  1  0
 26 70  1  0
 26 71  1  0
 26 72  1  0
 28 73  1  0
 28 74  1  0
 28 75  1  0
 29 76  1  0
 29 77  1  0
 30 78  1  0
 30 79  1  0
 32 80  1  0
 32 81  1  0
 32 82  1  0
M  END
>  <meeko>  (6) 
{"is_sidechain": [false], "intermolecular_energy": 2.731, "internal_energy": -0.839}

$$$$
EPH_relaxed_0001_pdb2pqr_Repair_248_r2_0001_out
     RDKit          3D

 82 86  0  0  0  0  0  0  0  0999 V2000
   -4.9540    5.9830   -2.1580 C   0  0  0  0  0  0  0  0  0  0  0  0
   -5.3760    7.4440   -1.9770 C   0  0  2  0  0  0  0  0  0  0  0  0
   -5.1860    7.9280   -0.5260 C   0  0  0  0  0  0  0  0  0  0  0  0
   -4.1290    9.0260   -0.3760 C   0  0  0  0  0  0  0  0  0  0  0  0
   -2.7840    8.5690   -0.8550 C   0  0  2  0  0  0  0  0  0  0  0  0
   -1.7030    8.8450    0.0450 O   0  0  0  0  0  0  0  0  0  0  0  0
   -1.6600    9.5190   -1.2240 C   0  0  0  0  0  0  0  0  0  0  0  0
   -1.8310   11.0030   -1.1300 C   0  0  0  0  0  0  0  0  0  0  0  0
   -0.5760    9.0270   -2.1310 C   0  0  0  0  0  0  0  0  0  0  0  0
   -6.8300    7.6210   -2.3990 C   0  0  1  0  0  0  0  0  0  0  0  0
   -7.1590    6.8910   -3.7290 C   0  0  0  0  0  0  0  0  0  0  0  0
   -8.6170    6.3770   -3.6080 C   0  0  0  0  0  0  0  0  0  0  0  0
   -9.1860    7.1050   -2.3680 C   0  0  1  0  0  0  0  0  0  0  0  0
   -9.5940    8.5200   -2.8850 C   0  0  0  0  0  0  0  0  0  0  0  0
  -10.3690    6.3960   -1.6330 C   0  0  2  0  0  0  0  0  0  0  0  0
  -11.6460    6.2180   -2.4730 C   0  0  0  0  0  0  0  0  0  0  0  0
  -12.6300    7.3370   -2.3820 C   0  0  0  0  0  0  0  0  0  0  0  0
  -12.6320    8.3040   -1.4460 C   0  0  0  0  0  0  0  0  0  0  0  0
  -11.6290    8.2770   -0.2850 C   0  0  1  0  0  0  0  0  0  0  0  0
  -12.3710    8.5600    1.0470 C   0  0  0  0  0  0  0  0  0  0  0  0
  -13.1790    9.8530    1.0040 C   0  0  0  0  0  0  0  0  0  0  0  0
  -14.2050    9.8170   -0.1260 C   0  0  2  0  0  0  0  0  0  0  0  0
  -15.1860    8.8190    0.1730 O   0  0  0  0  0  0  0  0  0  0  0  0
  -13.5740    9.5300   -1.5170 C   0  0  0  0  0  0  0  0  0  0  0  0
  -12.7440   10.7550   -1.9750 C   0  0  0  0  0  0  0  0  0  0  0  0
  -14.7290    9.3810   -2.5430 C   0  0  0  0  0  0  0  0  0  0  0  0
  -10.6960    6.9930   -0.2040 C   0  0  1  0  0  0  0  0  0  0  0  0
  -11.4140    5.8640    0.5970 C   0  0  0  0  0  0  0  0  0  0  0  0
   -9.3940    7.3530    0.6060 C   0  0  0  0  0  0  0  0  0  0  0  0
   -8.2170    7.9390   -0.1970 C   0  0  0  0  0  0  0  0  0  0  0  0
   -7.9200    7.0890   -1.4350 C   0  0  2  0  0  0  0  0  0  0  0  0
   -7.4850    5.6660   -0.9450 C   0  0  0  0  0  0  0  0  0  0  0  0
   -4.8190    5.5154   -1.1715 H   0  0  0  0  0  0  0  0  0  0  0  0
   -5.7328    5.4428   -2.7162 H   0  0  0  0  0  0  0  0  0  0  0  0
   -4.0071    5.9413   -2.7162 H   0  0  0  0  0  0  0  0  0  0  0  0
   -4.7255    8.0579   -2.6173 H   0  0  0  0  0  0  0  0  0  0  0  0
   -6.1473    8.3195   -0.1619 H   0  0  0  0  0  0  0  0  0  0  0  0
   -4.8363    7.0637    0.0577 H   0  0  0  0  0  0  0  0  0  0  0  0
   -4.4386    9.9019   -0.9650 H   0  0  0  0  0  0  0  0  0  0  0  0
   -4.0456    9.2786    0.6913 H   0  0  0  0  0  0  0  0  0  0  0  0
   -3.2361    7.7193   -1.3876 H   0  0  0  0  0  0  0  0  0  0  0  0
   -1.8654   11.3018   -0.0719 H   0  0  0  0  0  0  0  0  0  0  0  0
   -0.9844   11.5017   -1.6245 H   0  0  0  0  0  0  0  0  0  0  0  0
   -2.7689   11.2961   -1.6245 H   0  0  0  0  0  0  0  0  0  0  0  0
    0.2619    8.6467   -1.5283 H   0  0  0  0  0  0  0  0  0  0  0  0
   -0.9678    8.2185   -2.7657 H   0  0  0  0  0  0  0  0  0  0  0  0
   -0.2254    9.8542   -2.7657 H   0  0  0  0  0  0  0  0  0  0  0  0
   -6.8754    8.7189   -2.4490 H   0  0  0  0  0  0  0  0  0  0  0  0
   -7.0721    7.5882   -4.5754 H   0  0  0  0  0  0  0  0  0  0  0  0
   -6.4606    6.0600   -3.9068 H   0  0  0  0  0  0  0  0  0  0  0  0
   -9.1951    6.6335   -4.5080 H   0  0  0  0  0  0  0  0  0  0  0  0
   -8.6664    5.2826   -3.5082 H   0  0  0  0  0  0  0  0  0  0  0  0
   -9.7850    9.1825   -2.0279 H   0  0  0  0  0  0  0  0  0  0  0  0
   -8.7793    8.9362   -3.4957 H   0  0  0  0  0  0  0  0  0  0  0  0
  -10.5052    8.4385   -3.4957 H   0  0  0  0  0  0  0  0  0  0  0  0
   -9.9729    5.3824   -1.4723 H   0  0  0  0  0  0  0  0  0  0  0  0
  -11.3479    6.1123   -3.5265 H   0  0  0  0  0  0  0  0  0  0  0  0
  -12.1554    5.3310   -2.0683 H   0  0  0  0  0  0  0  0  0  0  0  0
  -13.4211    7.3743   -3.1453 H   0  0  0  0  0  0  0  0  0  0  0  0
  -10.9073    9.0819   -0.4880 H   0  0  0  0  0  0  0  0  0  0  0  0
  -13.0549    7.7237    1.2541 H   0  0  0  0  0  0  0  0  0  0  0  0
  -11.6116    8.6673    1.8356 H   0  0  0  0  0  0  0  0  0  0  0  0
  -13.7032    9.9821    1.9624 H   0  0  0  0  0  0  0  0  0  0  0  0
  -12.4902   10.6921    0.8267 H   0  0  0  0  0  0  0  0  0  0  0  0
  -14.6616   10.8158   -0.1889 H   0  0  0  0  0  0  0  0  0  0  0  0
  -15.7320    8.6960   -0.6220 H   0  0  0  0  0  0  0  0  0  0  0  0
  -12.3755   11.2988   -1.0927 H   0  0  0  0  0  0  0  0  0  0  0  0
  -11.8900   10.4143   -2.5788 H   0  0  0  0  0  0  0  0  0  0  0  0
  -13.3771   11.4218   -2.5788 H   0  0  0  0  0  0  0  0  0  0  0  0
  -15.6818    9.2581   -2.0072 H   0  0  0  0  0  0  0  0  0  0  0  0
  -14.7768   10.2804   -3.1745 H   0  0  0  0  0  0  0  0  0  0  0  0
  -14.5470    8.4989   -3.1745 H   0  0  0  0  0  0  0  0  0  0  0  0
  -11.2970    6.0480    1.6752 H   0  0  0  0  0  0  0  0  0  0  0  0
  -12.4836    5.8558    0.3404 H   0  0  0  0  0  0  0  0  0  0  0  0
  -10.9679    4.8918    0.3404 H   0  0  0  0  0  0  0  0  0  0  0  0
   -9.6727    8.0897    1.3739 H   0  0  0  0  0  0  0  0  0  0  0  0
   -9.0253    6.3943    0.9997 H   0  0  0  0  0  0  0  0  0  0  0  0
   -8.4718    8.9608   -0.5149 H   0  0  0  0  0  0  0  0  0  0  0  0
   -7.3240    7.9465    0.4453 H   0  0  0  0  0  0  0  0  0  0  0  0
   -7.4780    5.6432    0.1547 H   0  0  0  0  0  0  0  0  0  0  0  0
   -8.1947    4.9153   -1.3228 H   0  0  0  0  0  0  0  0  0  0  0  0
   -6.4769    5.4404   -1.3228 H   0  0  0  0  0  0  0  0  0  0  0  0
  1  2  1  0
  2  3  1  0
  3  4  1  0
  4  5  1  0
  5  6  1  0
  6  7  1  0
  7  8  1  0
  7  9  1  0
  2 10  1  0
 10 11  1  0
 11 12  1  0
 12 13  1  0
 13 14  1  6
 13 15  1  0
 15 16  1  0
 16 17  1  0
 17 18  2  0
 18 19  1  0
 19 20  1  0
 20 21  1  0
 21 22  1  0
 22 23  1  0
 22 24  1  0
 24 25  1  0
 24 26  1  0
 19 27  1  0
 27 28  1  1
 27 29  1  0
 29 30  1  0
 30 31  1  0
 31 32  1  1
  7  5  1  0
 31 10  1  0
 31 13  1  0
 27 15  1  0
 24 18  1  0
  1 33  1  0
  1 34  1  0
  1 35  1  0
  2 36  1  6
  3 37  1  0
  3 38  1  0
  4 39  1  0
  4 40  1  0
  5 41  1  6
  8 42  1  0
  8 43  1  0
  8 44  1  0
  9 45  1  0
  9 46  1  0
  9 47  1  0
 10 48  1  6
 11 49  1  0
 11 50  1  0
 12 51  1  0
 12 52  1  0
 14 53  1  0
 14 54  1  0
 14 55  1  0
 15 56  1  1
 16 57  1  0
 16 58  1  0
 17 59  1  0
 19 60  1  6
 20 61  1  0
 20 62  1  0
 21 63  1  0
 21 64  1  0
 22 65  1  6
 23 66  1  0
 25 67  1  0
 25 68  1  0
 25 69  1  0
 26 70  1  0
 26 71  1  0
 26 72  1  0
 28 73  1  0
 28 74  1  0
 28 75  1  0
 29 76  1  0
 29 77  1  0
 30 78  1  0
 30 79  1  0
 32 80  1  0
 32 81  1  0
 32 82  1  0
M  END
>  <meeko>  (7) 
{"is_sidechain": [false], "intermolecular_energy": 2.731, "internal_energy": -0.839}

$$$$
EPH_relaxed_0001_pdb2pqr_Repair_248_r2_0001_out
     RDKit          3D

 82 86  0  0  0  0  0  0  0  0999 V2000
    0.2830    8.9230   -2.6140 C   0  0  0  0  0  0  0  0  0  0  0  0
    1.0690   10.0690   -3.2570 C   0  0  2  0  0  0  0  0  0  0  0  0
    2.5570   10.0510   -2.8550 C   0  0  0  0  0  0  0  0  0  0  0  0
    3.4920   10.6170   -3.9280 C   0  0  0  0  0  0  0  0  0  0  0  0
    4.8750   10.8400   -3.3960 C   0  0  2  0  0  0  0  0  0  0  0  0
    5.5010   12.0490   -3.8450 O   0  0  0  0  0  0  0  0  0  0  0  0
    6.1190   10.8220   -4.2660 C   0  0  0  0  0  0  0  0  0  0  0  0
    6.0370   10.5740   -5.7400 C   0  0  0  0  0  0  0  0  0  0  0  0
    7.4420   10.5590   -3.6170 C   0  0  0  0  0  0  0  0  0  0  0  0
    0.4430   11.4060   -2.8760 C   0  0  1  0  0  0  0  0  0  0  0  0
   -0.9700   11.2480   -2.2540 C   0  0  0  0  0  0  0  0  0  0  0  0
   -1.1100   12.3560   -1.1780 C   0  0  0  0  0  0  0  0  0  0  0  0
    0.0770   13.3100   -1.4430 C   0  0  1  0  0  0  0  0  0  0  0  0
   -0.3940   14.2200   -2.6210 C   0  0  0  0  0  0  0  0  0  0  0  0
    0.5700   14.1550   -0.2230 C   0  0  2  0  0  0  0  0  0  0  0  0
   -0.4660   15.1370    0.3520 C   0  0  0  0  0  0  0  0  0  0  0  0
   -0.4470   16.5050   -0.2450 C   0  0  0  0  0  0  0  0  0  0  0  0
    0.5450   17.0170   -0.9960 C   0  0  0  0  0  0  0  0  0  0  0  0
    1.8410   16.2300   -1.2330 C   0  0  1  0  0  0  0  0  0  0  0  0
    3.0610   17.1630   -1.0120 C   0  0  0  0  0  0  0  0  0  0  0  0
    2.9870   18.4320   -1.8550 C   0  0  0  0  0  0  0  0  0  0  0  0
    1.7140   19.2170   -1.5490 C   0  0  2  0  0  0  0  0  0  0  0  0
    1.7870   19.7090   -0.2070 O   0  0  0  0  0  0  0  0  0  0  0  0
    0.4180   18.3760   -1.7280 C   0  0  0  0  0  0  0  0  0  0  0  0
    0.1820   18.0980   -3.2330 C   0  0  0  0  0  0  0  0  0  0  0  0
   -0.7810   19.2410   -1.2520 C   0  0  0  0  0  0  0  0  0  0  0  0
    1.9710   14.8570   -0.4440 C   0  0  1  0  0  0  0  0  0  0  0  0
    2.5700   15.1120    0.9730 C   0  0  0  0  0  0  0  0  0  0  0  0
    2.9940   13.9270   -1.1980 C   0  0  0  0  0  0  0  0  0  0  0  0
    2.4250   13.0280   -2.3120 C   0  0  0  0  0  0  0  0  0  0  0  0
    1.1890   12.2660   -1.8250 C   0  0  2  0  0  0  0  0  0  0  0  0
    1.6360   11.3260   -0.6540 C   0  0  0  0  0  0  0  0  0  0  0  0
    0.3411    9.0077   -1.5188 H   0  0  0  0  0  0  0  0  0  0  0  0
   -0.7691    8.9770   -2.9306 H   0  0  0  0  0  0  0  0  0  0  0  0
    0.7123    7.9610   -2.9306 H   0  0  0  0  0  0  0  0  0  0  0  0
    1.0205    9.9321   -4.3474 H   0  0  0  0  0  0  0  0  0  0  0  0
    2.6766   10.6492   -1.9396 H   0  0  0  0  0  0  0  0  0  0  0  0
    2.8373    8.9975   -2.7078 H   0  0  0  0  0  0  0  0  0  0  0  0
    3.5428    9.9074   -4.7669 H   0  0  0  0  0  0  0  0  0  0  0  0
    3.0902   11.5870   -4.2561 H   0  0  0  0  0  0  0  0  0  0  0  0
    4.6232   10.3240   -2.4577 H   0  0  0  0  0  0  0  0  0  0  0  0
    5.6963    9.5437   -5.9201 H   0  0  0  0  0  0  0  0  0  0  0  0
    5.3245   11.2800   -6.1915 H   0  0  0  0  0  0  0  0  0  0  0  0
    7.0299   10.7161   -6.1915 H   0  0  0  0  0  0  0  0  0  0  0  0
    7.3251   10.5822   -2.5235 H   0  0  0  0  0  0  0  0  0  0  0  0
    7.8115    9.5698   -3.9253 H   0  0  0  0  0  0  0  0  0  0  0  0
    8.1617   11.3317   -3.9253 H   0  0  0  0  0  0  0  0  0  0  0  0
    0.4648   11.9064   -3.8554 H   0  0  0  0  0  0  0  0  0  0  0  0
   -1.7412   11.3722   -3.0285 H   0  0  0  0  0  0  0  0  0  0  0  0
   -1.0981   10.2489   -1.8120 H   0  0  0  0  0  0  0  0  0  0  0  0
   -2.0670   12.8868   -1.2895 H   0  0  0  0  0  0  0  0  0  0  0  0
   -1.0975   11.9488   -0.1562 H   0  0  0  0  0  0  0  0  0  0  0  0
   -0.8643   15.1286   -2.2170 H   0  0  0  0  0  0  0  0  0  0  0  0
    0.4729   14.4991   -3.2380 H   0  0  0  0  0  0  0  0  0  0  0  0
   -1.1224   13.6734   -3.2380 H   0  0  0  0  0  0  0  0  0  0  0  0
    0.7163   13.3875    0.5513 H   0  0  0  0  0  0  0  0  0  0  0  0
   -1.4664   14.7092    0.1901 H   0  0  0  0  0  0  0  0  0  0  0  0
   -0.2083   15.2645    1.4138 H   0  0  0  0  0  0  0  0  0  0  0  0
   -1.3181   17.1493   -0.0548 H   0  0  0  0  0  0  0  0  0  0  0  0
    1.8098   15.8996   -2.2817 H   0  0  0  0  0  0  0  0  0  0  0  0
    3.1000   17.4469    0.0500 H   0  0  0  0  0  0  0  0  0  0  0  0
    3.9626   16.6116   -1.3170 H   0  0  0  0  0  0  0  0  0  0  0  0
    3.8607   19.0626   -1.6337 H   0  0  0  0  0  0  0  0  0  0  0  0
    2.9771   18.1475   -2.9175 H   0  0  0  0  0  0  0  0  0  0  0  0
    1.6540   20.0437   -2.2722 H   0  0  0  0  0  0  0  0  0  0  0  0
    2.6940   19.5650    0.1100 H   0  0  0  0  0  0  0  0  0  0  0  0
   -0.5262   17.2638   -3.3451 H   0  0  0  0  0  0  0  0  0  0  0  0
   -0.2324   18.9976   -3.7115 H   0  0  0  0  0  0  0  0  0  0  0  0
    1.1370   17.8351   -3.7115 H   0  0  0  0  0  0  0  0  0  0  0  0
   -0.8063   19.2592   -0.1524 H   0  0  0  0  0  0  0  0  0  0  0  0
   -0.6675   20.2666   -1.6332 H   0  0  0  0  0  0  0  0  0  0  0  0
   -1.7184   18.8098   -1.6332 H   0  0  0  0  0  0  0  0  0  0  0  0
    1.8438   14.8028    1.7391 H   0  0  0  0  0  0  0  0  0  0  0  0
    3.4962   14.5301    1.0897 H   0  0  0  0  0  0  0  0  0  0  0  0
    2.7926   16.1829    1.0897 H   0  0  0  0  0  0  0  0  0  0  0  0
    3.7601   14.5735   -1.6509 H   0  0  0  0  0  0  0  0  0  0  0  0
    3.3704   13.2329   -0.4322 H   0  0  0  0  0  0  0  0  0  0  0  0
    2.1457   13.6543   -3.1721 H   0  0  0  0  0  0  0  0  0  0  0  0
    3.1954   12.2979   -2.6008 H   0  0  0  0  0  0  0  0  0  0  0  0
    1.4077   11.8060    0.3090 H   0  0  0  0  0  0  0  0  0  0  0  0
    1.0959   10.3703   -0.7244 H   0  0  0  0  0  0  0  0  0  0  0  0
    2.7182   11.1417   -0.7244 H   0  0  0  0  0  0  0  0  0  0  0  0
  1  2  1  0
  2  3  1  0
  3  4  1  0
  4  5  1  0
  5  6  1  0
  6  7  1  0
  7  8  1  0
  7  9  1  0
  2 10  1  0
 10 11  1  0
 11 12  1  0
 12 13  1  0
 13 14  1  6
 13 15  1  0
 15 16  1  0
 16 17  1  0
 17 18  2  0
 18 19  1  0
 19 20  1  0
 20 21  1  0
 21 22  1  0
 22 23  1  0
 22 24  1  0
 24 25  1  0
 24 26  1  0
 19 27  1  0
 27 28  1  1
 27 29  1  0
 29 30  1  0
 30 31  1  0
 31 32  1  1
  7  5  1  0
 31 10  1  0
 31 13  1  0
 27 15  1  0
 24 18  1  0
  1 33  1  0
  1 34  1  0
  1 35  1  0
  2 36  1  6
  3 37  1  0
  3 38  1  0
  4 39  1  0
  4 40  1  0
  5 41  1  1
  8 42  1  0
  8 43  1  0
  8 44  1  0
  9 45  1  0
  9 46  1  0
  9 47  1  0
 10 48  1  6
 11 49  1  0
 11 50  1  0
 12 51  1  0
 12 52  1  0
 14 53  1  0
 14 54  1  0
 14 55  1  0
 15 56  1  1
 16 57  1  0
 16 58  1  0
 17 59  1  0
 19 60  1  6
 20 61  1  0
 20 62  1  0
 21 63  1  0
 21 64  1  0
 22 65  1  6
 23 66  1  0
 25 67  1  0
 25 68  1  0
 25 69  1  0
 26 70  1  0
 26 71  1  0
 26 72  1  0
 28 73  1  0
 28 74  1  0
 28 75  1  0
 29 76  1  0
 29 77  1  0
 30 78  1  0
 30 79  1  0
 32 80  1  0
 32 81  1  0
 32 82  1  0
M  END
>  <meeko>  (8) 
{"is_sidechain": [false], "intermolecular_energy": 2.731, "internal_energy": -0.839}

$$$$
EPH_relaxed_0001_pdb2pqr_Repair_248_r2_0001_out
     RDKit          3D

 82 86  0  0  0  0  0  0  0  0999 V2000
   -2.3230   14.6180   -0.6000 C   0  0  0  0  0  0  0  0  0  0  0  0
   -1.0840   15.2030    0.0830 C   0  0  2  0  0  0  0  0  0  0  0  0
   -0.7500   16.6170   -0.4340 C   0  0  0  0  0  0  0  0  0  0  0  0
    0.7440   16.8470   -0.6760 C   0  0  0  0  0  0  0  0  0  0  0  0
    1.2120   18.1370   -0.0740 C   0  0  2  0  0  0  0  0  0  0  0  0
    1.8840   19.0150   -0.9870 O   0  0  0  0  0  0  0  0  0  0  0  0
    2.6760   18.4990    0.0960 C   0  0  0  0  0  0  0  0  0  0  0  0
    3.7650   17.5690   -0.3360 C   0  0  0  0  0  0  0  0  0  0  0  0
    3.0440   19.5300    1.1170 C   0  0  0  0  0  0  0  0  0  0  0  0
    0.1100   14.2780   -0.1240 C   0  0  1  0  0  0  0  0  0  0  0  0
    0.3240   13.3050    1.0660 C   0  0  0  0  0  0  0  0  0  0  0  0
    0.8460   11.9740    0.4670 C   0  0  0  0  0  0  0  0  0  0  0  0
    1.2280   12.3250   -0.9900 C   0  0  1  0  0  0  0  0  0  0  0  0
    2.6410   12.9780   -0.8880 C   0  0  0  0  0  0  0  0  0  0  0  0
    1.2110   11.1420   -2.0130 C   0  0  2  0  0  0  0  0  0  0  0  0
    2.2100   10.0100   -1.7180 C   0  0  0  0  0  0  0  0  0  0  0  0
    3.5550   10.1670   -2.3480 C   0  0  0  0  0  0  0  0  0  0  0  0
    3.8570   11.0200   -3.3440 C   0  0  0  0  0  0  0  0  0  0  0  0
    2.7690   11.8750   -4.0070 C   0  0  1  0  0  0  0  0  0  0  0  0
    2.9230   11.8040   -5.5490 C   0  0  0  0  0  0  0  0  0  0  0  0
    4.3260   12.1810   -6.0150 C   0  0  0  0  0  0  0  0  0  0  0  0
    5.3740   11.2710   -5.3800 C   0  0  2  0  0  0  0  0  0  0  0  0
    5.1990    9.9440   -5.8840 O   0  0  0  0  0  0  0  0  0  0  0  0
    5.3100   11.2530   -3.8270 C   0  0  0  0  0  0  0  0  0  0  0  0
    5.7940   12.6150   -3.2700 C   0  0  0  0  0  0  0  0  0  0  0  0
    6.3230   10.1920   -3.3200 C   0  0  0  0  0  0  0  0  0  0  0  0
    1.2800   11.5950   -3.5280 C   0  0  1  0  0  0  0  0  0  0  0  0
    0.6600   10.4360   -4.3670 C   0  0  0  0  0  0  0  0  0  0  0  0
    0.4000   12.8690   -3.8120 C   0  0  0  0  0  0  0  0  0  0  0  0
    0.3630   13.9470   -2.7130 C   0  0  0  0  0  0  0  0  0  0  0  0
    0.0680   13.3250   -1.3450 C   0  0  2  0  0  0  0  0  0  0  0  0
   -1.3580   12.6790   -1.4100 C   0  0  0  0  0  0  0  0  0  0  0  0
   -3.0381   14.2804    0.1646 H   0  0  0  0  0  0  0  0  0  0  0  0
   -2.7940   15.3888   -1.2277 H   0  0  0  0  0  0  0  0  0  0  0  0
   -2.0271   13.7645   -1.2277 H   0  0  0  0  0  0  0  0  0  0  0  0
   -1.3070   15.2873    1.1569 H   0  0  0  0  0  0  0  0  0  0  0  0
   -1.2838   16.7749   -1.3828 H   0  0  0  0  0  0  0  0  0  0  0  0
   -1.0621   17.3266    0.3464 H   0  0  0  0  0  0  0  0  0  0  0  0
    1.3096   16.0179   -0.2258 H   0  0  0  0  0  0  0  0  0  0  0  0
    0.9115   16.8953   -1.7621 H   0  0  0  0  0  0  0  0  0  0  0  0
    0.3641   18.1446    0.6267 H   0  0  0  0  0  0  0  0  0  0  0  0
    4.2597   17.1465    0.5510 H   0  0  0  0  0  0  0  0  0  0  0  0
    3.3348   16.7553   -0.9383 H   0  0  0  0  0  0  0  0  0  0  0  0
    4.5013   18.1213   -0.9383 H   0  0  0  0  0  0  0  0  0  0  0  0
    2.8964   19.1163    2.1255 H   0  0  0  0  0  0  0  0  0  0  0  0
    4.0989   19.8137    0.9879 H   0  0  0  0  0  0  0  0  0  0  0  0
    2.4072   20.4176    0.9879 H   0  0  0  0  0  0  0  0  0  0  0  0
    0.9036   15.0277   -0.2592 H   0  0  0  0  0  0  0  0  0  0  0  0
    1.0630   13.7205    1.7669 H   0  0  0  0  0  0  0  0  0  0  0  0
   -0.6126   13.1479    1.6211 H   0  0  0  0  0  0  0  0  0  0  0  0
    1.7248   11.6161    1.0234 H   0  0  0  0  0  0  0  0  0  0  0  0
    0.0965   11.1706    0.5197 H   0  0  0  0  0  0  0  0  0  0  0  0
    2.9116   13.1030    0.1708 H   0  0  0  0  0  0  0  0  0  0  0  0
    3.3807   12.3304   -1.3815 H   0  0  0  0  0  0  0  0  0  0  0  0
    2.6271   13.9610   -1.3815 H   0  0  0  0  0  0  0  0  0  0  0  0
    0.2130   10.7071   -1.8551 H   0  0  0  0  0  0  0  0  0  0  0  0
    2.3493    9.9548   -0.6283 H   0  0  0  0  0  0  0  0  0  0  0  0
    1.7744    9.0983   -2.1528 H   0  0  0  0  0  0  0  0  0  0  0  0
    4.3674    9.5317   -1.9655 H   0  0  0  0  0  0  0  0  0  0  0  0
    2.9392   12.9057   -3.6625 H   0  0  0  0  0  0  0  0  0  0  0  0
    2.7063   10.7770   -5.8781 H   0  0  0  0  0  0  0  0  0  0  0  0
    2.2198   12.5269   -5.9883 H   0  0  0  0  0  0  0  0  0  0  0  0
    4.3802   12.0838   -7.1094 H   0  0  0  0  0  0  0  0  0  0  0  0
    4.5305   13.2181   -5.7107 H   0  0  0  0  0  0  0  0  0  0  0  0
    6.3632   11.6703   -5.6484 H   0  0  0  0  0  0  0  0  0  0  0  0
    6.0310    9.4620   -5.7410 H   0  0  0  0  0  0  0  0  0  0  0  0
    5.7837   12.5860   -2.1704 H   0  0  0  0  0  0  0  0  0  0  0  0
    6.8173   12.8123   -3.6220 H   0  0  0  0  0  0  0  0  0  0  0  0
    5.1247   13.4138   -3.6220 H   0  0  0  0  0  0  0  0  0  0  0  0
    6.3284   10.1864   -2.2200 H   0  0  0  0  0  0  0  0  0  0  0  0
    6.0297    9.1986   -3.6903 H   0  0  0  0  0  0  0  0  0  0  0  0
    7.3289   10.4391   -3.6903 H   0  0  0  0  0  0  0  0  0  0  0  0
    0.2510    9.6715   -3.6901 H   0  0  0  0  0  0  0  0  0  0  0  0
   -0.1461   10.8331   -5.0014 H   0  0  0  0  0  0  0  0  0  0  0  0
    1.4378    9.9858   -5.0014 H   0  0  0  0  0  0  0  0  0  0  0  0
    0.7841   13.3411   -4.7283 H   0  0  0  0  0  0  0  0  0  0  0  0
   -0.6322   12.4955   -3.8833 H   0  0  0  0  0  0  0  0  0  0  0  0
    1.3377   14.4553   -2.6745 H   0  0  0  0  0  0  0  0  0  0  0  0
   -0.4360   14.6643   -2.9519 H   0  0  0  0  0  0  0  0  0  0  0  0
   -1.7309   12.5101   -0.3890 H   0  0  0  0  0  0  0  0  0  0  0  0
   -2.0427   13.3548   -1.9433 H   0  0  0  0  0  0  0  0  0  0  0  0
   -1.3015   11.7186   -1.9433 H   0  0  0  0  0  0  0  0  0  0  0  0
  1  2  1  0
  2  3  1  0
  3  4  1  0
  4  5  1  0
  5  6  1  0
  6  7  1  0
  7  8  1  0
  7  9  1  0
  2 10  1  0
 10 11  1  0
 11 12  1  0
 12 13  1  0
 13 14  1  1
 13 15  1  0
 15 16  1  0
 16 17  1  0
 17 18  2  0
 18 19  1  0
 19 20  1  0
 20 21  1  0
 21 22  1  0
 22 23  1  0
 22 24  1  0
 24 25  1  0
 24 26  1  0
 19 27  1  0
 27 28  1  6
 27 29  1  0
 29 30  1  0
 30 31  1  0
 31 32  1  6
  7  5  1  0
 31 10  1  0
 31 13  1  0
 27 15  1  0
 24 18  1  0
  1 33  1  0
  1 34  1  0
  1 35  1  0
  2 36  1  1
  3 37  1  0
  3 38  1  0
  4 39  1  0
  4 40  1  0
  5 41  1  1
  8 42  1  0
  8 43  1  0
  8 44  1  0
  9 45  1  0
  9 46  1  0
  9 47  1  0
 10 48  1  6
 11 49  1  0
 11 50  1  0
 12 51  1  0
 12 52  1  0
 14 53  1  0
 14 54  1  0
 14 55  1  0
 15 56  1  6
 16 57  1  0
 16 58  1  0
 17 59  1  0
 19 60  1  1
 20 61  1  0
 20 62  1  0
 21 63  1  0
 21 64  1  0
 22 65  1  1
 23 66  1  0
 25 67  1  0
 25 68  1  0
 25 69  1  0
 26 70  1  0
 26 71  1  0
 26 72  1  0
 28 73  1  0
 28 74  1  0
 28 75  1  0
 29 76  1  0
 29 77  1  0
 30 78  1  0
 30 79  1  0
 32 80  1  0
 32 81  1  0
 32 82  1  0
M  END
>  <meeko>  (9) 
{"is_sidechain": [false], "intermolecular_energy": 2.731, "internal_energy": -0.839}

$$$$
EPH_relaxed_0001_pdb2pqr_Repair_248_r2_0001_out
     RDKit          3D

 82 86  0  0  0  0  0  0  0  0999 V2000
   -0.1780   10.5520   -4.1290 C   0  0  0  0  0  0  0  0  0  0  0  0
    1.0090   10.3950   -3.1750 C   0  0  2  0  0  0  0  0  0  0  0  0
    0.9830    9.0430   -2.4340 C   0  0  0  0  0  0  0  0  0  0  0  0
   -0.4040    8.6490   -1.9190 C   0  0  0  0  0  0  0  0  0  0  0  0
   -0.5740    8.9880   -0.4690 C   0  0  2  0  0  0  0  0  0  0  0  0
   -1.9200    8.8920    0.0140 O   0  0  0  0  0  0  0  0  0  0  0  0
   -1.3360   10.2050    0.0220 C   0  0  0  0  0  0  0  0  0  0  0  0
   -1.9770   11.1620   -0.9330 C   0  0  0  0  0  0  0  0  0  0  0  0
   -1.0430   10.7260    1.3940 C   0  0  0  0  0  0  0  0  0  0  0  0
    1.0220   11.5400   -2.1690 C   0  0  1  0  0  0  0  0  0  0  0  0
    2.0090   11.2940   -0.9970 C   0  0  0  0  0  0  0  0  0  0  0  0
    2.5970   12.6760   -0.6110 C   0  0  0  0  0  0  0  0  0  0  0  0
    1.6940   13.7010   -1.3370 C   0  0  1  0  0  0  0  0  0  0  0  0
    0.4340   13.8410   -0.4250 C   0  0  0  0  0  0  0  0  0  0  0  0
    2.3380   15.0910   -1.6490 C   0  0  2  0  0  0  0  0  0  0  0  0
    2.7630   15.9050   -0.4150 C   0  0  0  0  0  0  0  0  0  0  0  0
    1.7220   16.8250    0.1320 C   0  0  0  0  0  0  0  0  0  0  0  0
    0.6000   17.2050   -0.5070 C   0  0  0  0  0  0  0  0  0  0  0  0
    0.3350   16.7750   -1.9560 C   0  0  1  0  0  0  0  0  0  0  0  0
   -0.1360   18.0010   -2.7810 C   0  0  0  0  0  0  0  0  0  0  0  0
   -1.3350   18.7040   -2.1530 C   0  0  0  0  0  0  0  0  0  0  0  0
   -1.0130   19.1670   -0.7340 C   0  0  2  0  0  0  0  0  0  0  0  0
   -0.0190   20.1940   -0.7990 O   0  0  0  0  0  0  0  0  0  0  0  0
   -0.5180   18.0190    0.1880 C   0  0  0  0  0  0  0  0  0  0  0  0
   -1.6940   17.0600    0.5020 C   0  0  0  0  0  0  0  0  0  0  0  0
   -0.0950   18.6440    1.5450 C   0  0  0  0  0  0  0  0  0  0  0  0
    1.5100   15.9750   -2.6670 C   0  0  1  0  0  0  0  0  0  0  0  0
    2.5190   16.9730   -3.3130 C   0  0  0  0  0  0  0  0  0  0  0  0
    0.9100   15.1230   -3.8480 C   0  0  0  0  0  0  0  0  0  0  0  0
    0.3990   13.7130   -3.4980 C   0  0  0  0  0  0  0  0  0  0  0  0
    1.4420   12.9370   -2.6880 C   0  0  2  0  0  0  0  0  0  0  0  0
    2.7130   12.7610   -3.5880 C   0  0  0  0  0  0  0  0  0  0  0  0
   -1.1030   10.6743   -3.5464 H   0  0  0  0  0  0  0  0  0  0  0  0
   -0.0242   11.4376   -4.7630 H   0  0  0  0  0  0  0  0  0  0  0  0
   -0.2597    9.6568   -4.7630 H   0  0  0  0  0  0  0  0  0  0  0  0
    1.9267   10.4220   -3.7809 H   0  0  0  0  0  0  0  0  0  0  0  0
    1.3315    8.2615   -3.1253 H   0  0  0  0  0  0  0  0  0  0  0  0
    1.6348    9.1466   -1.5540 H   0  0  0  0  0  0  0  0  0  0  0  0
   -1.1666    9.1858   -2.5024 H   0  0  0  0  0  0  0  0  0  0  0  0
   -0.5152    7.5605   -2.0319 H   0  0  0  0  0  0  0  0  0  0  0  0
    0.4301    8.6033   -0.2369 H   0  0  0  0  0  0  0  0  0  0  0  0
   -2.5024   11.9465   -0.3687 H   0  0  0  0  0  0  0  0  0  0  0  0
   -1.2037   11.6214   -1.5662 H   0  0  0  0  0  0  0  0  0  0  0  0
   -2.6961   10.6217   -1.5662 H   0  0  0  0  0  0  0  0  0  0  0  0
   -1.4373   10.0249    2.1444 H   0  0  0  0  0  0  0  0  0  0  0  0
    0.0447   10.8278    1.5230 H   0  0  0  0  0  0  0  0  0  0  0  0
   -1.5210   11.7083    1.5230 H   0  0  0  0  0  0  0  0  0  0  0  0
   -0.0407   11.5488   -1.8852 H   0  0  0  0  0  0  0  0  0  0  0  0
    1.4774   10.8555   -0.1396 H   0  0  0  0  0  0  0  0  0  0  0  0
    2.8049   10.5938   -1.2908 H   0  0  0  0  0  0  0  0  0  0  0  0
    2.5558   12.8250    0.4781 H   0  0  0  0  0  0  0  0  0  0  0  0
    3.6542   12.7744   -0.8983 H   0  0  0  0  0  0  0  0  0  0  0  0
    0.7401   13.8070    0.6310 H   0  0  0  0  0  0  0  0  0  0  0  0
   -0.0636   14.8000   -0.6318 H   0  0  0  0  0  0  0  0  0  0  0  0
   -0.2620   13.0147   -0.6318 H   0  0  0  0  0  0  0  0  0  0  0  0
    3.2721   14.8092   -2.1570 H   0  0  0  0  0  0  0  0  0  0  0  0
    3.0422   15.1972    0.3793 H   0  0  0  0  0  0  0  0  0  0  0  0
    3.5931   16.5469   -0.7451 H   0  0  0  0  0  0  0  0  0  0  0  0
    1.8859   17.2263    1.1430 H   0  0  0  0  0  0  0  0  0  0  0  0
   -0.4687   16.0254   -1.9098 H   0  0  0  0  0  0  0  0  0  0  0  0
    0.6952   18.7180   -2.8527 H   0  0  0  0  0  0  0  0  0  0  0  0
   -0.4442   17.6374   -3.7724 H   0  0  0  0  0  0  0  0  0  0  0  0
   -1.6014   19.5781   -2.7654 H   0  0  0  0  0  0  0  0  0  0  0  0
   -2.1750   17.9952   -2.1094 H   0  0  0  0  0  0  0  0  0  0  0  0
   -1.9463   19.5443   -0.2907 H   0  0  0  0  0  0  0  0  0  0  0  0
   -0.0700   20.5970   -1.6830 H   0  0  0  0  0  0  0  0  0  0  0  0
   -1.8094   16.9659    1.5919 H   0  0  0  0  0  0  0  0  0  0  0  0
   -2.6213   17.4627    0.0685 H   0  0  0  0  0  0  0  0  0  0  0  0
   -1.4861   16.0706    0.0685 H   0  0  0  0  0  0  0  0  0  0  0  0
   -0.5031   18.0410    2.3695 H   0  0  0  0  0  0  0  0  0  0  0  0
    1.0027   18.6635    1.6134 H   0  0  0  0  0  0  0  0  0  0  0  0
   -0.4849   19.6703    1.6134 H   0  0  0  0  0  0  0  0  0  0  0  0
    3.0617   17.5098   -2.5210 H   0  0  0  0  0  0  0  0  0  0  0  0
    3.2351   16.4181   -3.9369 H   0  0  0  0  0  0  0  0  0  0  0  0
    1.9719   17.6952   -3.9369 H   0  0  0  0  0  0  0  0  0  0  0  0
    0.0655   15.6876   -4.2700 H   0  0  0  0  0  0  0  0  0  0  0  0
    1.7489   14.9611   -4.5409 H   0  0  0  0  0  0  0  0  0  0  0  0
   -0.5236   13.8014   -2.9056 H   0  0  0  0  0  0  0  0  0  0  0  0
    0.2052   13.1680   -4.4336 H   0  0  0  0  0  0  0  0  0  0  0  0
    3.6003   12.6381   -2.9495 H   0  0  0  0  0  0  0  0  0  0  0  0
    2.5922   11.8710   -4.2231 H   0  0  0  0  0  0  0  0  0  0  0  0
    2.8386   13.6503   -4.2231 H   0  0  0  0  0  0  0  0  0  0  0  0
  1  2  1  0
  2  3  1  0
  3  4  1  0
  4  5  1  0
  5  6  1  0
  6  7  1  0
  7  8  1  0
  7  9  1  0
  2 10  1  0
 10 11  1  0
 11 12  1  0
 12 13  1  0
 13 14  1  1
 13 15  1  0
 15 16  1  0
 16 17  1  0
 17 18  2  0
 18 19  1  0
 19 20  1  0
 20 21  1  0
 21 22  1  0
 22 23  1  0
 22 24  1  0
 24 25  1  0
 24 26  1  0
 19 27  1  0
 27 28  1  6
 27 29  1  0
 29 30  1  0
 30 31  1  0
 31 32  1  6
  7  5  1  0
 31 10  1  0
 31 13  1  0
 27 15  1  0
 24 18  1  0
  1 33  1  0
  1 34  1  0
  1 35  1  0
  2 36  1  6
  3 37  1  0
  3 38  1  0
  4 39  1  0
  4 40  1  0
  5 41  1  1
  8 42  1  0
  8 43  1  0
  8 44  1  0
  9 45  1  0
  9 46  1  0
  9 47  1  0
 10 48  1  1
 11 49  1  0
 11 50  1  0
 12 51  1  0
 12 52  1  0
 14 53  1  0
 14 54  1  0
 14 55  1  0
 15 56  1  6
 16 57  1  0
 16 58  1  0
 17 59  1  0
 19 60  1  1
 20 61  1  0
 20 62  1  0
 21 63  1  0
 21 64  1  0
 22 65  1  1
 23 66  1  0
 25 67  1  0
 25 68  1  0
 25 69  1  0
 26 70  1  0
 26 71  1  0
 26 72  1  0
 28 73  1  0
 28 74  1  0
 28 75  1  0
 29 76  1  0
 29 77  1  0
 30 78  1  0
 30 79  1  0
 32 80  1  0
 32 81  1  0
 32 82  1  0
M  END
>  <meeko>  (10) 
{"is_sidechain": [false], "intermolecular_energy": 2.731, "internal_energy": -0.839}

$$$$
EPH_relaxed_0001_pdb2pqr_Repair_248_r2_0001_out
     RDKit          3D

 82 86  0  0  0  0  0  0  0  0999 V2000
   -4.1490    7.5180   -3.6390 C   0  0  0  0  0  0  0  0  0  0  0  0
   -3.7460    7.3210   -2.1750 C   0  0  2  0  0  0  0  0  0  0  0  0
   -4.9060    6.7680   -1.3230 C   0  0  0  0  0  0  0  0  0  0  0  0
   -6.2050    6.5680   -2.1070 C   0  0  0  0  0  0  0  0  0  0  0  0
   -7.3760    6.3550   -1.1960 C   0  0  2  0  0  0  0  0  0  0  0  0
   -8.4550    5.6080   -1.7720 O   0  0  0  0  0  0  0  0  0  0  0  0
   -8.7410    6.9740   -1.4290 C   0  0  0  0  0  0  0  0  0  0  0  0
   -9.0070    7.8540   -2.6100 C   0  0  0  0  0  0  0  0  0  0  0  0
   -9.6690    7.1210   -0.2640 C   0  0  0  0  0  0  0  0  0  0  0  0
   -3.2520    8.6400   -1.5910 C   0  0  1  0  0  0  0  0  0  0  0  0
   -3.8060    8.9060   -0.1650 C   0  0  0  0  0  0  0  0  0  0  0  0
   -2.6880    9.6400    0.6190 C   0  0  0  0  0  0  0  0  0  0  0  0
   -1.6680   10.0650   -0.4630 C   0  0  1  0  0  0  0  0  0  0  0  0
   -2.2620   11.3680   -1.0850 C   0  0  0  0  0  0  0  0  0  0  0  0
   -0.1950   10.2750    0.0190 C   0  0  2  0  0  0  0  0  0  0  0  0
   -0.0020   11.3970    1.0540 C   0  0  0  0  0  0  0  0  0  0  0  0
    0.2890   12.7460    0.4860 C   0  0  0  0  0  0  0  0  0  0  0  0
    0.6720   12.9950   -0.7800 C   0  0  0  0  0  0  0  0  0  0  0  0
    0.9440   11.8480   -1.7620 C   0  0  1  0  0  0  0  0  0  0  0  0
    2.2780   12.1090   -2.5090 C   0  0  0  0  0  0  0  0  0  0  0  0
    2.3100   13.4760   -3.1860 C   0  0  0  0  0  0  0  0  0  0  0  0
    2.0950   14.5940   -2.1690 C   0  0  2  0  0  0  0  0  0  0  0  0
    3.2170   14.6330   -1.2820 O   0  0  0  0  0  0  0  0  0  0  0  0
    0.7850   14.4320   -1.3480 C   0  0  0  0  0  0  0  0  0  0  0  0
   -0.4380   14.6900   -2.2630 C   0  0  0  0  0  0  0  0  0  0  0  0
    0.7600   15.5440   -0.2650 C   0  0  0  0  0  0  0  0  0  0  0  0
    0.8620   10.3820   -1.1530 C   0  0  1  0  0  0  0  0  0  0  0  0
    2.2420    9.9800   -0.5460 C   0  0  0  0  0  0  0  0  0  0  0  0
    0.5730    9.3580   -2.3140 C   0  0  0  0  0  0  0  0  0  0  0  0
   -0.9050    9.1040   -2.6640 C   0  0  0  0  0  0  0  0  0  0  0  0
   -1.7240    8.8070   -1.4040 C   0  0  2  0  0  0  0  0  0  0  0  0
   -1.1630    7.4890   -0.7690 C   0  0  0  0  0  0  0  0  0  0  0  0
   -5.1364    8.0007   -3.6857 H   0  0  0  0  0  0  0  0  0  0  0  0
   -3.4056    8.1543   -4.1415 H   0  0  0  0  0  0  0  0  0  0  0  0
   -4.1945    6.5405   -4.1415 H   0  0  0  0  0  0  0  0  0  0  0  0
   -2.9360    6.5772   -2.1510 H   0  0  0  0  0  0  0  0  0  0  0  0
   -4.5989    5.7973   -0.9066 H   0  0  0  0  0  0  0  0  0  0  0  0
   -5.1141    7.5134   -0.5413 H   0  0  0  0  0  0  0  0  0  0  0  0
   -6.3904    7.4603   -2.7230 H   0  0  0  0  0  0  0  0  0  0  0  0
   -6.0918    5.6718   -2.7347 H   0  0  0  0  0  0  0  0  0  0  0  0
   -6.7166    6.3331   -0.3158 H   0  0  0  0  0  0  0  0  0  0  0  0
   -9.3090    8.8530   -2.2623 H   0  0  0  0  0  0  0  0  0  0  0  0
   -8.0940    7.9378   -3.2179 H   0  0  0  0  0  0  0  0  0  0  0  0
   -9.8135    7.4180   -3.2179 H   0  0  0  0  0  0  0  0  0  0  0  0
   -9.0990    7.0307    0.6725 H   0  0  0  0  0  0  0  0  0  0  0  0
  -10.1545    8.1072   -0.3041 H   0  0  0  0  0  0  0  0  0  0  0  0
  -10.4355    6.3331   -0.3041 H   0  0  0  0  0  0  0  0  0  0  0  0
   -3.6135    9.3320   -2.3659 H   0  0  0  0  0  0  0  0  0  0  0  0
   -4.7064    9.5356   -0.2197 H   0  0  0  0  0  0  0  0  0  0  0  0
   -4.0851    7.9654    0.3323 H   0  0  0  0  0  0  0  0  0  0  0  0
   -3.0924   10.5210    1.1390 H   0  0  0  0  0  0  0  0  0  0  0  0
   -2.2344    9.0037    1.3932 H   0  0  0  0  0  0  0  0  0  0  0  0
   -2.5729   12.0500   -0.2798 H   0  0  0  0  0  0  0  0  0  0  0  0
   -1.4986   11.8586   -1.7067 H   0  0  0  0  0  0  0  0  0  0  0  0
   -3.1330   11.1135   -1.7067 H   0  0  0  0  0  0  0  0  0  0  0  0
    0.0149    9.3361    0.5523 H   0  0  0  0  0  0  0  0  0  0  0  0
   -0.9232   11.4711    1.6506 H   0  0  0  0  0  0  0  0  0  0  0  0
    0.8838   11.1178    1.6434 H   0  0  0  0  0  0  0  0  0  0  0  0
    0.1814   13.6096    1.1587 H   0  0  0  0  0  0  0  0  0  0  0  0
    0.1092   11.8564   -2.4782 H   0  0  0  0  0  0  0  0  0  0  0  0
    3.1044   12.0543   -1.7851 H   0  0  0  0  0  0  0  0  0  0  0  0
    2.3770   11.3446   -3.2938 H   0  0  0  0  0  0  0  0  0  0  0  0
    3.2872   13.6143   -3.6717 H   0  0  0  0  0  0  0  0  0  0  0  0
    1.5010   13.5181   -3.9301 H   0  0  0  0  0  0  0  0  0  0  0  0
    1.9993   15.5356   -2.7296 H   0  0  0  0  0  0  0  0  0  0  0  0
    3.0200   15.2830   -0.5870 H   0  0  0  0  0  0  0  0  0  0  0  0
   -1.3269   14.8775   -1.6428 H   0  0  0  0  0  0  0  0  0  0  0  0
   -0.2424   15.5666   -2.8980 H   0  0  0  0  0  0  0  0  0  0  0  0
   -0.6132   13.8090   -2.8980 H   0  0  0  0  0  0  0  0  0  0  0  0
    0.7704   15.0833    0.7338 H   0  0  0  0  0  0  0  0  0  0  0  0
    1.6439   16.1885   -0.3807 H   0  0  0  0  0  0  0  0  0  0  0  0
   -0.1520   16.1481   -0.3807 H   0  0  0  0  0  0  0  0  0  0  0  0
    2.1789    9.9984    0.5520 H   0  0  0  0  0  0  0  0  0  0  0  0
    2.5088    8.9668   -0.8810 H   0  0  0  0  0  0  0  0  0  0  0  0
    3.0112   10.6914   -0.8810 H   0  0  0  0  0  0  0  0  0  0  0  0
    1.0698    9.7339   -3.2206 H   0  0  0  0  0  0  0  0  0  0  0  0
    0.9519    8.3926   -1.9472 H   0  0  0  0  0  0  0  0  0  0  0  0
   -1.3162    9.9965   -3.1583 H   0  0  0  0  0  0  0  0  0  0  0  0
   -0.9621    8.2325   -3.3328 H   0  0  0  0  0  0  0  0  0  0  0  0
   -1.1963    7.5673    0.3277 H   0  0  0  0  0  0  0  0  0  0  0  0
   -1.7758    6.6355   -1.0945 H   0  0  0  0  0  0  0  0  0  0  0  0
   -0.1230    7.3390   -1.0945 H   0  0  0  0  0  0  0  0  0  0  0  0
  1  2  1  0
  2  3  1  0
  3  4  1  0
  4  5  1  0
  5  6  1  0
  6  7  1  0
  7  8  1  0
  7  9  1  0
  2 10  1  0
 10 11  1  0
 11 12  1  0
 12 13  1  0
 13 14  1  6
 13 15  1  0
 15 16  1  0
 16 17  1  0
 17 18  2  0
 18 19  1  0
 19 20  1  0
 20 21  1  0
 21 22  1  0
 22 23  1  0
 22 24  1  0
 24 25  1  0
 24 26  1  0
 19 27  1  0
 27 28  1  1
 27 29  1  0
 29 30  1  0
 30 31  1  0
 31 32  1  1
  7  5  1  0
 31 10  1  0
 31 13  1  0
 27 15  1  0
 24 18  1  0
  1 33  1  0
  1 34  1  0
  1 35  1  0
  2 36  1  6
  3 37  1  0
  3 38  1  0
  4 39  1  0
  4 40  1  0
  5 41  1  1
  8 42  1  0
  8 43  1  0
  8 44  1  0
  9 45  1  0
  9 46  1  0
  9 47  1  0
 10 48  1  6
 11 49  1  0
 11 50  1  0
 12 51  1  0
 12 52  1  0
 14 53  1  0
 14 54  1  0
 14 55  1  0
 15 56  1  1
 16 57  1  0
 16 58  1  0
 17 59  1  0
 19 60  1  6
 20 61  1  0
 20 62  1  0
 21 63  1  0
 21 64  1  0
 22 65  1  6
 23 66  1  0
 25 67  1  0
 25 68  1  0
 25 69  1  0
 26 70  1  0
 26 71  1  0
 26 72  1  0
 28 73  1  0
 28 74  1  0
 28 75  1  0
 29 76  1  0
 29 77  1  0
 30 78  1  0
 30 79  1  0
 32 80  1  0
 32 81  1  0
 32 82  1  0
M  END
>  <meeko>  (11) 
{"is_sidechain": [false], "intermolecular_energy": 2.731, "internal_energy": -0.839}

$$$$
EPH_relaxed_0001_pdb2pqr_Repair_248_r2_0001_out
     RDKit          3D

 82 86  0  0  0  0  0  0  0  0999 V2000
   -0.3260   15.1750   -7.5740 C   0  0  0  0  0  0  0  0  0  0  0  0
    1.0550   15.1180   -6.9160 C   0  0  2  0  0  0  0  0  0  0  0  0
    2.1950   15.1830   -7.9510 C   0  0  0  0  0  0  0  0  0  0  0  0
    2.2270   16.4890   -8.7500 C   0  0  0  0  0  0  0  0  0  0  0  0
    1.8260   16.2750  -10.1790 C   0  0  2  0  0  0  0  0  0  0  0  0
    1.1890   15.0170  -10.4400 O   0  0  0  0  0  0  0  0  0  0  0  0
    2.4590   15.2290  -11.0780 C   0  0  0  0  0  0  0  0  0  0  0  0
    3.5470   14.3300  -10.5820 C   0  0  0  0  0  0  0  0  0  0  0  0
    2.3650   15.4100  -12.5610 C   0  0  0  0  0  0  0  0  0  0  0  0
    1.1810   13.8480   -6.0820 C   0  0  1  0  0  0  0  0  0  0  0  0
    2.6100   13.2440   -6.1260 C   0  0  0  0  0  0  0  0  0  0  0  0
    2.8800   12.6310   -4.7280 C   0  0  0  0  0  0  0  0  0  0  0  0
    1.4950   12.6050   -4.0390 C   0  0  1  0  0  0  0  0  0  0  0  0
    0.7910   11.3310   -4.6010 C   0  0  0  0  0  0  0  0  0  0  0  0
    1.5010   12.6200   -2.4760 C   0  0  2  0  0  0  0  0  0  0  0  0
    2.1740   11.4050   -1.8140 C   0  0  0  0  0  0  0  0  0  0  0  0
    1.2670   10.2560   -1.5200 C   0  0  0  0  0  0  0  0  0  0  0  0
   -0.0780   10.3020   -1.5130 C   0  0  0  0  0  0  0  0  0  0  0  0
   -0.8210   11.6270   -1.7240 C   0  0  1  0  0  0  0  0  0  0  0  0
   -1.9420   11.7680   -0.6610 C   0  0  0  0  0  0  0  0  0  0  0  0
   -2.8830   10.5680   -0.6410 C   0  0  0  0  0  0  0  0  0  0  0  0
   -2.1150    9.2770   -0.3710 C   0  0  2  0  0  0  0  0  0  0  0  0
   -1.5980    9.3190    0.9630 O   0  0  0  0  0  0  0  0  0  0  0  0
   -0.9540    9.0330   -1.3740 C   0  0  0  0  0  0  0  0  0  0  0  0
   -1.5340    8.6870   -2.7680 C   0  0  0  0  0  0  0  0  0  0  0  0
   -0.1740    7.7750   -0.9050 C   0  0  0  0  0  0  0  0  0  0  0  0
    0.0910   12.9250   -1.8250 C   0  0  1  0  0  0  0  0  0  0  0  0
    0.3710   13.4910   -0.4000 C   0  0  0  0  0  0  0  0  0  0  0  0
   -0.6960   14.0470   -2.6010 C   0  0  0  0  0  0  0  0  0  0  0  0
   -0.5660   14.0520   -4.1360 C   0  0  0  0  0  0  0  0  0  0  0  0
    0.9030   13.9650   -4.5620 C   0  0  2  0  0  0  0  0  0  0  0  0
    1.6320   15.2450   -4.0300 C   0  0  0  0  0  0  0  0  0  0  0  0
   -1.1022   15.2070   -6.7952 H   0  0  0  0  0  0  0  0  0  0  0  0
   -0.3970   16.0768   -8.1998 H   0  0  0  0  0  0  0  0  0  0  0  0
   -0.4711   14.2821   -8.1998 H   0  0  0  0  0  0  0  0  0  0  0  0
    1.1485   16.0009   -6.2665 H   0  0  0  0  0  0  0  0  0  0  0  0
    3.1526   15.0771   -7.4201 H   0  0  0  0  0  0  0  0  0  0  0  0
    2.0223   14.3696   -8.6711 H   0  0  0  0  0  0  0  0  0  0  0  0
    1.5325   17.2064   -8.2885 H   0  0  0  0  0  0  0  0  0  0  0  0
    3.2574   16.8737   -8.7370 H   0  0  0  0  0  0  0  0  0  0  0  0
    1.6443   17.3515  -10.3140 H   0  0  0  0  0  0  0  0  0  0  0  0
    3.5486   14.3287   -9.4820 H   0  0  0  0  0  0  0  0  0  0  0  0
    3.3741   13.3078  -10.9496 H   0  0  0  0  0  0  0  0  0  0  0  0
    4.5183   14.6925  -10.9496 H   0  0  0  0  0  0  0  0  0  0  0  0
    1.8684   16.3661  -12.7829 H   0  0  0  0  0  0  0  0  0  0  0  0
    3.3758   15.4124  -12.9949 H   0  0  0  0  0  0  0  0  0  0  0  0
    1.7817   14.5845  -12.9949 H   0  0  0  0  0  0  0  0  0  0  0  0
    0.4033   13.2348   -6.5607 H   0  0  0  0  0  0  0  0  0  0  0  0
    2.6678   12.4638   -6.8992 H   0  0  0  0  0  0  0  0  0  0  0  0
    3.3567   14.0139   -6.3705 H   0  0  0  0  0  0  0  0  0  0  0  0
    3.2860   11.6130   -4.8222 H   0  0  0  0  0  0  0  0  0  0  0  0
    3.6201   13.2089   -4.1550 H   0  0  0  0  0  0  0  0  0  0  0  0
    0.4449   10.7047   -3.7656 H   0  0  0  0  0  0  0  0  0  0  0  0
   -0.0702   11.6295   -5.2168 H   0  0  0  0  0  0  0  0  0  0  0  0
    1.5020   10.7607   -5.2168 H   0  0  0  0  0  0  0  0  0  0  0  0
    2.1493   13.4798   -2.2515 H   0  0  0  0  0  0  0  0  0  0  0  0
    2.9681   11.0480   -2.4863 H   0  0  0  0  0  0  0  0  0  0  0  0
    2.5464   11.7560   -0.8403 H   0  0  0  0  0  0  0  0  0  0  0  0
    1.7384    9.2893   -1.2894 H   0  0  0  0  0  0  0  0  0  0  0  0
   -1.2650   11.5694   -2.7287 H   0  0  0  0  0  0  0  0  0  0  0  0
   -1.4769   11.8680    0.3308 H   0  0  0  0  0  0  0  0  0  0  0  0
   -2.5380   12.6555   -0.9199 H   0  0  0  0  0  0  0  0  0  0  0  0
   -3.6337   10.7124    0.1499 H   0  0  0  0  0  0  0  0  0  0  0  0
   -3.3703   10.4876   -1.6239 H   0  0  0  0  0  0  0  0  0  0  0  0
   -2.8192    8.4416   -0.4984 H   0  0  0  0  0  0  0  0  0  0  0  0
   -1.5880   10.2490    1.2450 H   0  0  0  0  0  0  0  0  0  0  0  0
   -2.4728    8.1269   -2.6458 H   0  0  0  0  0  0  0  0  0  0  0  0
   -1.7307    9.6155   -3.3241 H   0  0  0  0  0  0  0  0  0  0  0  0
   -0.8104    8.0729   -3.3241 H   0  0  0  0  0  0  0  0  0  0  0  0
   -0.1549    7.7442    0.1944 H   0  0  0  0  0  0  0  0  0  0  0  0
   -0.6706    6.8715   -1.2886 H   0  0  0  0  0  0  0  0  0  0  0  0
    0.8561    7.8181   -1.2886 H   0  0  0  0  0  0  0  0  0  0  0  0
    0.0164   12.7743    0.3554 H   0  0  0  0  0  0  0  0  0  0  0  0
    1.4521   13.6508   -0.2749 H   0  0  0  0  0  0  0  0  0  0  0  0
   -0.1579   14.4473   -0.2749 H   0  0  0  0  0  0  0  0  0  0  0  0
   -1.7628   13.9339   -2.3578 H   0  0  0  0  0  0  0  0  0  0  0  0
   -0.2457   14.9948   -2.2711 H   0  0  0  0  0  0  0  0  0  0  0  0
   -1.1113   13.1892   -4.5462 H   0  0  0  0  0  0  0  0  0  0  0  0
   -0.9877   14.9923   -4.5207 H   0  0  0  0  0  0  0  0  0  0  0  0
    1.6283   15.2386   -2.9300 H   0  0  0  0  0  0  0  0  0  0  0  0
    2.6703   15.2532   -4.3932 H   0  0  0  0  0  0  0  0  0  0  0  0
    1.1094   16.1422   -4.3932 H   0  0  0  0  0  0  0  0  0  0  0  0
  1  2  1  0
  2  3  1  0
  3  4  1  0
  4  5  1  0
  5  6  1  0
  6  7  1  0
  7  8  1  0
  7  9  1  0
  2 10  1  0
 10 11  1  0
 11 12  1  0
 12 13  1  0
 13 14  1  1
 13 15  1  0
 15 16  1  0
 16 17  1  0
 17 18  2  0
 18 19  1  0
 19 20  1  0
 20 21  1  0
 21 22  1  0
 22 23  1  0
 22 24  1  0
 24 25  1  0
 24 26  1  0
 19 27  1  0
 27 28  1  1
 27 29  1  0
 29 30  1  0
 30 31  1  0
 31 32  1  1
  7  5  1  0
 31 10  1  0
 31 13  1  0
 27 15  1  0
 24 18  1  0
  1 33  1  0
  1 34  1  0
  1 35  1  0
  2 36  1  1
  3 37  1  0
  3 38  1  0
  4 39  1  0
  4 40  1  0
  5 41  1  6
  8 42  1  0
  8 43  1  0
  8 44  1  0
  9 45  1  0
  9 46  1  0
  9 47  1  0
 10 48  1  6
 11 49  1  0
 11 50  1  0
 12 51  1  0
 12 52  1  0
 14 53  1  0
 14 54  1  0
 14 55  1  0
 15 56  1  6
 16 57  1  0
 16 58  1  0
 17 59  1  0
 19 60  1  6
 20 61  1  0
 20 62  1  0
 21 63  1  0
 21 64  1  0
 22 65  1  1
 23 66  1  0
 25 67  1  0
 25 68  1  0
 25 69  1  0
 26 70  1  0
 26 71  1  0
 26 72  1  0
 28 73  1  0
 28 74  1  0
 28 75  1  0
 29 76  1  0
 29 77  1  0
 30 78  1  0
 30 79  1  0
 32 80  1  0
 32 81  1  0
 32 82  1  0
M  END
>  <meeko>  (12) 
{"is_sidechain": [false], "intermolecular_energy": 2.731, "internal_energy": -0.839}

$$$$
EPH_relaxed_0001_pdb2pqr_Repair_248_r2_0001_out
     RDKit          3D

 82 86  0  0  0  0  0  0  0  0999 V2000
    0.1830    8.5500   -1.5850 C   0  0  0  0  0  0  0  0  0  0  0  0
    1.1450    9.2310   -0.6080 C   0  0  2  0  0  0  0  0  0  0  0  0
    0.5010    9.4630    0.7740 C   0  0  0  0  0  0  0  0  0  0  0  0
    1.2330   10.5040    1.6260 C   0  0  0  0  0  0  0  0  0  0  0  0
    0.2840   11.5030    2.2170 C   0  0  2  0  0  0  0  0  0  0  0  0
    0.7270   12.8640    2.1460 O   0  0  0  0  0  0  0  0  0  0  0  0
    0.5890   12.3100    3.4640 C   0  0  0  0  0  0  0  0  0  0  0  0
    1.8840   12.1540    4.1970 C   0  0  0  0  0  0  0  0  0  0  0  0
   -0.5540   12.8840    4.2420 C   0  0  0  0  0  0  0  0  0  0  0  0
    1.6220   10.5570   -1.1890 C   0  0  1  0  0  0  0  0  0  0  0  0
    2.3760   10.3820   -2.5350 C   0  0  0  0  0  0  0  0  0  0  0  0
    2.0290   11.6180   -3.4050 C   0  0  0  0  0  0  0  0  0  0  0  0
    1.3670   12.6130   -2.4230 C   0  0  1  0  0  0  0  0  0  0  0  0
    2.5580   13.3060   -1.6900 C   0  0  0  0  0  0  0  0  0  0  0  0
    0.3910   13.6590   -3.0540 C   0  0  2  0  0  0  0  0  0  0  0  0
    1.0340   14.6300   -4.0580 C   0  0  0  0  0  0  0  0  0  0  0  0
    1.5640   15.8970   -3.4700 C   0  0  0  0  0  0  0  0  0  0  0  0
    1.2750   16.3710   -2.2440 C   0  0  0  0  0  0  0  0  0  0  0  0
    0.2560   15.6590   -1.3450 C   0  0  1  0  0  0  0  0  0  0  0  0
   -0.7160   16.7040   -0.7360 C   0  0  0  0  0  0  0  0  0  0  0  0
    0.0150   17.8310   -0.0120 C   0  0  0  0  0  0  0  0  0  0  0  0
    0.9760   18.5510   -0.9540 C   0  0  2  0  0  0  0  0  0  0  0  0
    0.2150   19.2350   -1.9550 O   0  0  0  0  0  0  0  0  0  0  0  0
    1.9970   17.5970   -1.6350 C   0  0  0  0  0  0  0  0  0  0  0  0
    3.0150   17.0900   -0.5840 C   0  0  0  0  0  0  0  0  0  0  0  0
    2.8120   18.4260   -2.6640 C   0  0  0  0  0  0  0  0  0  0  0  0
   -0.5050   14.4270   -1.9990 C   0  0  1  0  0  0  0  0  0  0  0  0
   -1.7670   14.9270   -2.7670 C   0  0  0  0  0  0  0  0  0  0  0  0
   -1.0280   13.4790   -0.8550 C   0  0  0  0  0  0  0  0  0  0  0  0
   -0.0590   12.3900   -0.3580 C   0  0  0  0  0  0  0  0  0  0  0  0
    0.5430   11.6130   -1.5330 C   0  0  2  0  0  0  0  0  0  0  0  0
   -0.6300   10.8880   -2.2770 C   0  0  0  0  0  0  0  0  0  0  0  0
   -0.5876    8.0045   -1.0205 H   0  0  0  0  0  0  0  0  0  0  0  0
   -0.2962    9.3112   -2.2182 H   0  0  0  0  0  0  0  0  0  0  0  0
    0.7416    7.8450   -2.2182 H   0  0  0  0  0  0  0  0  0  0  0  0
    2.0027    8.5576   -0.4638 H   0  0  0  0  0  0  0  0  0  0  0  0
   -0.5339    9.8036    0.6224 H   0  0  0  0  0  0  0  0  0  0  0  0
    0.5525    8.5081    1.3176 H   0  0  0  0  0  0  0  0  0  0  0  0
    1.7621    9.9891    2.4414 H   0  0  0  0  0  0  0  0  0  0  0  0
    1.9387   11.0434    0.9772 H   0  0  0  0  0  0  0  0  0  0  0  0
   -0.5806   10.8862    1.9306 H   0  0  0  0  0  0  0  0  0  0  0  0
    1.6969   12.1765    5.2807 H   0  0  0  0  0  0  0  0  0  0  0  0
    2.3462   11.1937    3.9246 H   0  0  0  0  0  0  0  0  0  0  0  0
    2.5610   12.9771    3.9246 H   0  0  0  0  0  0  0  0  0  0  0  0
   -0.3523   12.7827    5.3186 H   0  0  0  0  0  0  0  0  0  0  0  0
   -0.6717   13.9481    3.9895 H   0  0  0  0  0  0  0  0  0  0  0  0
   -1.4778   12.3429    3.9895 H   0  0  0  0  0  0  0  0  0  0  0  0
    2.2415   10.9124   -0.3524 H   0  0  0  0  0  0  0  0  0  0  0  0
    3.4607   10.3353   -2.3585 H   0  0  0  0  0  0  0  0  0  0  0  0
    2.0784    9.4493   -3.0366 H   0  0  0  0  0  0  0  0  0  0  0  0
    2.9397   12.0525   -3.8431 H   0  0  0  0  0  0  0  0  0  0  0  0
    1.3699   11.3630   -4.2480 H   0  0  0  0  0  0  0  0  0  0  0  0
    2.4168   13.2238   -0.6022 H   0  0  0  0  0  0  0  0  0  0  0  0
    3.5000   12.8150   -1.9756 H   0  0  0  0  0  0  0  0  0  0  0  0
    2.5966   14.3676   -1.9756 H   0  0  0  0  0  0  0  0  0  0  0  0
   -0.2847   13.0239   -3.6457 H   0  0  0  0  0  0  0  0  0  0  0  0
    1.8685   14.1080   -4.5491 H   0  0  0  0  0  0  0  0  0  0  0  0
    0.2323   14.9275   -4.7500 H   0  0  0  0  0  0  0  0  0  0  0  0
    2.2484   16.4929   -4.0917 H   0  0  0  0  0  0  0  0  0  0  0  0
    0.8393   15.1800   -0.5448 H   0  0  0  0  0  0  0  0  0  0  0  0
   -1.3194   17.1387   -1.5465 H   0  0  0  0  0  0  0  0  0  0  0  0
   -1.3442   16.1848    0.0028 H   0  0  0  0  0  0  0  0  0  0  0  0
   -0.7229   18.5520    0.3696 H   0  0  0  0  0  0  0  0  0  0  0  0
    0.5941   17.3983    0.8171 H   0  0  0  0  0  0  0  0  0  0  0  0
    1.5628   19.2578   -0.3489 H   0  0  0  0  0  0  0  0  0  0  0  0
    0.3450   20.1890   -1.8230 H   0  0  0  0  0  0  0  0  0  0  0  0
    2.6260   17.2837    0.4265 H   0  0  0  0  0  0  0  0  0  0  0  0
    3.1707   16.0091   -0.7160 H   0  0  0  0  0  0  0  0  0  0  0  0
    3.9715   17.6170   -0.7160 H   0  0  0  0  0  0  0  0  0  0  0  0
    3.4864   19.1120   -2.1304 H   0  0  0  0  0  0  0  0  0  0  0  0
    3.4040   17.7471   -3.2953 H   0  0  0  0  0  0  0  0  0  0  0  0
    2.1231   19.0064   -3.2953 H   0  0  0  0  0  0  0  0  0  0  0  0
   -2.5385   15.2327   -2.0449 H   0  0  0  0  0  0  0  0  0  0  0  0
   -1.4955   15.7855   -3.3989 H   0  0  0  0  0  0  0  0  0  0  0  0
   -2.1571   14.1155   -3.3989 H   0  0  0  0  0  0  0  0  0  0  0  0
   -1.2892   14.1105    0.0070 H   0  0  0  0  0  0  0  0  0  0  0  0
   -1.8728   12.9317   -1.2986 H   0  0  0  0  0  0  0  0  0  0  0  0
    0.7527   12.8642    0.2132 H   0  0  0  0  0  0  0  0  0  0  0  0
   -0.6178   11.6871    0.2774 H   0  0  0  0  0  0  0  0  0  0  0  0
   -1.3234   10.4594   -1.5384 H   0  0  0  0  0  0  0  0  0  0  0  0
   -1.1673   11.6118   -2.9075 H   0  0  0  0  0  0  0  0  0  0  0  0
   -0.2228   10.0838   -2.9075 H   0  0  0  0  0  0  0  0  0  0  0  0
  1  2  1  0
  2  3  1  0
  3  4  1  0
  4  5  1  0
  5  6  1  0
  6  7  1  0
  7  8  1  0
  7  9  1  0
  2 10  1  0
 10 11  1  0
 11 12  1  0
 12 13  1  0
 13 14  1  1
 13 15  1  0
 15 16  1  0
 16 17  1  0
 17 18  2  0
 18 19  1  0
 19 20  1  0
 20 21  1  0
 21 22  1  0
 22 23  1  0
 22 24  1  0
 24 25  1  0
 24 26  1  0
 19 27  1  0
 27 28  1  6
 27 29  1  0
 29 30  1  0
 30 31  1  0
 31 32  1  6
  7  5  1  0
 31 10  1  0
 31 13  1  0
 27 15  1  0
 24 18  1  0
  1 33  1  0
  1 34  1  0
  1 35  1  0
  2 36  1  1
  3 37  1  0
  3 38  1  0
  4 39  1  0
  4 40  1  0
  5 41  1  1
  8 42  1  0
  8 43  1  0
  8 44  1  0
  9 45  1  0
  9 46  1  0
  9 47  1  0
 10 48  1  1
 11 49  1  0
 11 50  1  0
 12 51  1  0
 12 52  1  0
 14 53  1  0
 14 54  1  0
 14 55  1  0
 15 56  1  6
 16 57  1  0
 16 58  1  0
 17 59  1  0
 19 60  1  1
 20 61  1  0
 20 62  1  0
 21 63  1  0
 21 64  1  0
 22 65  1  1
 23 66  1  0
 25 67  1  0
 25 68  1  0
 25 69  1  0
 26 70  1  0
 26 71  1  0
 26 72  1  0
 28 73  1  0
 28 74  1  0
 28 75  1  0
 29 76  1  0
 29 77  1  0
 30 78  1  0
 30 79  1  0
 32 80  1  0
 32 81  1  0
 32 82  1  0
M  END
>  <meeko>  (13) 
{"is_sidechain": [false], "intermolecular_energy": 2.731, "internal_energy": -0.839}

$$$$
EPH_relaxed_0001_pdb2pqr_Repair_248_r2_0001_out
     RDKit          3D

 82 86  0  0  0  0  0  0  0  0999 V2000
    3.8020    9.7060    0.0810 C   0  0  0  0  0  0  0  0  0  0  0  0
    2.4090   10.2840   -0.1820 C   0  0  2  0  0  0  0  0  0  0  0  0
    1.5770    9.3890   -1.1210 C   0  0  0  0  0  0  0  0  0  0  0  0
    0.4070    8.6870   -0.4260 C   0  0  0  0  0  0  0  0  0  0  0  0
   -0.5950    8.1690   -1.4130 C   0  0  2  0  0  0  0  0  0  0  0  0
   -1.0070    9.1210   -2.4030 O   0  0  0  0  0  0  0  0  0  0  0  0
   -2.0250    8.6700   -1.4940 C   0  0  0  0  0  0  0  0  0  0  0  0
   -2.5330    9.7330   -0.5720 C   0  0  0  0  0  0  0  0  0  0  0  0
   -3.0550    7.7910   -2.1320 C   0  0  0  0  0  0  0  0  0  0  0  0
    2.5300   11.6850   -0.7700 C   0  0  1  0  0  0  0  0  0  0  0  0
    3.0790   11.6790   -2.2210 C   0  0  0  0  0  0  0  0  0  0  0  0
    2.3730   12.8370   -2.9720 C   0  0  0  0  0  0  0  0  0  0  0  0
    1.7000   13.6710   -1.8570 C   0  0  1  0  0  0  0  0  0  0  0  0
    2.8410   14.5700   -1.2850 C   0  0  0  0  0  0  0  0  0  0  0  0
    0.4560   14.5180   -2.2820 C   0  0  2  0  0  0  0  0  0  0  0  0
    0.7380   15.6100   -3.3290 C   0  0  0  0  0  0  0  0  0  0  0  0
    1.1060   16.9460   -2.7740 C   0  0  0  0  0  0  0  0  0  0  0  0
    0.9320   17.3370   -1.4980 C   0  0  0  0  0  0  0  0  0  0  0  0
    0.2210   16.4300   -0.4860 C   0  0  1  0  0  0  0  0  0  0  0  0
   -0.8210   17.2590    0.3110 C   0  0  0  0  0  0  0  0  0  0  0  0
   -0.2090   18.4950    0.9640 C   0  0  0  0  0  0  0  0  0  0  0  0
    0.4370   19.4010   -0.0810 C   0  0  2  0  0  0  0  0  0  0  0  0
   -0.5880   19.9390   -0.9220 O   0  0  0  0  0  0  0  0  0  0  0  0
    1.4980   18.6720   -0.9520 C   0  0  0  0  0  0  0  0  0  0  0  0
    2.7470   18.3550   -0.0940 C   0  0  0  0  0  0  0  0  0  0  0  0
    1.9680   19.6570   -2.0560 C   0  0  0  0  0  0  0  0  0  0  0  0
   -0.3880   15.0840   -1.0700 C   0  0  1  0  0  0  0  0  0  0  0  0
   -1.8270   15.3420   -1.6120 C   0  0  0  0  0  0  0  0  0  0  0  0
   -0.5350   14.0370    0.0970 C   0  0  0  0  0  0  0  0  0  0  0  0
    0.6880   13.1480    0.3910 C   0  0  0  0  0  0  0  0  0  0  0  0
    1.2300   12.5180   -0.8970 C   0  0  2  0  0  0  0  0  0  0  0  0
    0.1120   11.5910   -1.4830 C   0  0  0  0  0  0  0  0  0  0  0  0
    3.9711    9.6358    1.1657 H   0  0  0  0  0  0  0  0  0  0  0  0
    3.8737    8.7039   -0.3668 H   0  0  0  0  0  0  0  0  0  0  0  0
    4.5621   10.3630   -0.3668 H   0  0  0  0  0  0  0  0  0  0  0  0
    1.8824   10.3299    0.7827 H   0  0  0  0  0  0  0  0  0  0  0  0
    1.1746   10.0151   -1.9310 H   0  0  0  0  0  0  0  0  0  0  0  0
    2.2489    8.6016   -1.4932 H   0  0  0  0  0  0  0  0  0  0  0  0
    0.7965    7.8432    0.1625 H   0  0  0  0  0  0  0  0  0  0  0  0
   -0.0969    9.4201    0.2210 H   0  0  0  0  0  0  0  0  0  0  0  0
   -0.1707    7.1562   -1.3485 H   0  0  0  0  0  0  0  0  0  0  0  0
   -2.3819    9.4168    0.4707 H   0  0  0  0  0  0  0  0  0  0  0  0
   -1.9849   10.6691   -0.7544 H   0  0  0  0  0  0  0  0  0  0  0  0
   -3.6057    9.8946   -0.7544 H   0  0  0  0  0  0  0  0  0  0  0  0
   -3.6435    7.2887   -1.3501 H   0  0  0  0  0  0  0  0  0  0  0  0
   -3.7222    8.4023   -2.7574 H   0  0  0  0  0  0  0  0  0  0  0  0
   -2.5562    7.0360   -2.7574 H   0  0  0  0  0  0  0  0  0  0  0  0
    3.1974   12.1405   -0.0236 H   0  0  0  0  0  0  0  0  0  0  0  0
    4.1672   11.8395   -2.2148 H   0  0  0  0  0  0  0  0  0  0  0  0
    2.8853   10.7140   -2.7122 H   0  0  0  0  0  0  0  0  0  0  0  0
    3.1047   13.4452   -3.5240 H   0  0  0  0  0  0  0  0  0  0  0  0
    1.6488   12.4723   -3.7153 H   0  0  0  0  0  0  0  0  0  0  0  0
    2.8105   14.5460   -0.1857 H   0  0  0  0  0  0  0  0  0  0  0  0
    3.8141   14.1933   -1.6331 H   0  0  0  0  0  0  0  0  0  0  0  0
    2.7024   15.6042   -1.6331 H   0  0  0  0  0  0  0  0  0  0  0  0
   -0.1748   13.7729   -2.7889 H   0  0  0  0  0  0  0  0  0  0  0  0
    1.5674   15.2657   -3.9642 H   0  0  0  0  0  0  0  0  0  0  0  0
   -0.2047   15.7572   -3.8765 H   0  0  0  0  0  0  0  0  0  0  0  0
    1.5574   17.6720   -3.4662 H   0  0  0  0  0  0  0  0  0  0  0  0
    1.0033   16.0618    0.1940 H   0  0  0  0  0  0  0  0  0  0  0  0
   -1.6165   17.5810   -0.3772 H   0  0  0  0  0  0  0  0  0  0  0  0
   -1.2151   16.6178    1.1132 H   0  0  0  0  0  0  0  0  0  0  0  0
   -0.9989   19.0545    1.4865 H   0  0  0  0  0  0  0  0  0  0  0  0
    0.5659   18.1697    1.6737 H   0  0  0  0  0  0  0  0  0  0  0  0
    0.9683   20.1993    0.4580 H   0  0  0  0  0  0  0  0  0  0  0  0
   -0.2280   19.9990   -1.8230 H   0  0  0  0  0  0  0  0  0  0  0  0
    2.4857   18.4213    0.9725 H   0  0  0  0  0  0  0  0  0  0  0  0
    3.1004   17.3387   -0.3224 H   0  0  0  0  0  0  0  0  0  0  0  0
    3.5423   19.0798   -0.3224 H   0  0  0  0  0  0  0  0  0  0  0  0
    2.3966   20.5553   -1.5876 H   0  0  0  0  0  0  0  0  0  0  0  0
    2.7308   19.1700   -2.6813 H   0  0  0  0  0  0  0  0  0  0  0  0
    1.1096   19.9436   -2.6813 H   0  0  0  0  0  0  0  0  0  0  0  0
   -2.5203   15.4663   -0.7670 H   0  0  0  0  0  0  0  0  0  0  0  0
   -1.8295   16.2549   -2.2257 H   0  0  0  0  0  0  0  0  0  0  0  0
   -2.1465   14.4868   -2.2257 H   0  0  0  0  0  0  0  0  0  0  0  0
   -0.7701   14.5939    1.0160 H   0  0  0  0  0  0  0  0  0  0  0  0
   -1.3213   13.3436   -0.2360 H   0  0  0  0  0  0  0  0  0  0  0  0
    1.4766   13.7615    0.8512 H   0  0  0  0  0  0  0  0  0  0  0  0
    0.3801   12.3420    1.0733 H   0  0  0  0  0  0  0  0  0  0  0  0
   -0.4485   11.1263   -0.6584 H   0  0  0  0  0  0  0  0  0  0  0  0
   -0.5737   12.1892   -2.1011 H   0  0  0  0  0  0  0  0  0  0  0  0
    0.5729   10.8064   -2.1011 H   0  0  0  0  0  0  0  0  0  0  0  0
  1  2  1  0
  2  3  1  0
  3  4  1  0
  4  5  1  0
  5  6  1  0
  6  7  1  0
  7  8  1  0
  7  9  1  0
  2 10  1  0
 10 11  1  0
 11 12  1  0
 12 13  1  0
 13 14  1  1
 13 15  1  0
 15 16  1  0
 16 17  1  0
 17 18  2  0
 18 19  1  0
 19 20  1  0
 20 21  1  0
 21 22  1  0
 22 23  1  0
 22 24  1  0
 24 25  1  0
 24 26  1  0
 19 27  1  0
 27 28  1  6
 27 29  1  0
 29 30  1  0
 30 31  1  0
 31 32  1  6
  7  5  1  0
 31 10  1  0
 31 13  1  0
 27 15  1  0
 24 18  1  0
  1 33  1  0
  1 34  1  0
  1 35  1  0
  2 36  1  1
  3 37  1  0
  3 38  1  0
  4 39  1  0
  4 40  1  0
  5 41  1  6
  8 42  1  0
  8 43  1  0
  8 44  1  0
  9 45  1  0
  9 46  1  0
  9 47  1  0
 10 48  1  1
 11 49  1  0
 11 50  1  0
 12 51  1  0
 12 52  1  0
 14 53  1  0
 14 54  1  0
 14 55  1  0
 15 56  1  6
 16 57  1  0
 16 58  1  0
 17 59  1  0
 19 60  1  1
 20 61  1  0
 20 62  1  0
 21 63  1  0
 21 64  1  0
 22 65  1  1
 23 66  1  0
 25 67  1  0
 25 68  1  0
 25 69  1  0
 26 70  1  0
 26 71  1  0
 26 72  1  0
 28 73  1  0
 28 74  1  0
 28 75  1  0
 29 76  1  0
 29 77  1  0
 30 78  1  0
 30 79  1  0
 32 80  1  0
 32 81  1  0
 32 82  1  0
M  END
>  <meeko>  (14) 
{"is_sidechain": [false], "intermolecular_energy": 2.731, "internal_energy": -0.839}

$$$$
EPH_relaxed_0001_pdb2pqr_Repair_248_r2_0001_out
     RDKit          3D

 82 86  0  0  0  0  0  0  0  0999 V2000
    0.8930   14.9810   -2.6360 C   0  0  0  0  0  0  0  0  0  0  0  0
    1.1590   14.3210   -3.9920 C   0  0  2  0  0  0  0  0  0  0  0  0
    0.4580   15.0650   -5.1470 C   0  0  0  0  0  0  0  0  0  0  0  0
    0.9110   14.6090   -6.5360 C   0  0  0  0  0  0  0  0  0  0  0  0
    0.7350   15.6900   -7.5590 C   0  0  2  0  0  0  0  0  0  0  0  0
    0.4120   15.2230   -8.8750 O   0  0  0  0  0  0  0  0  0  0  0  0
    1.6750   15.8930   -8.7330 C   0  0  0  0  0  0  0  0  0  0  0  0
    2.8620   15.0060   -8.9440 C   0  0  0  0  0  0  0  0  0  0  0  0
    1.7210   17.2380   -9.3890 C   0  0  0  0  0  0  0  0  0  0  0  0
    0.7080   12.8660   -3.9590 C   0  0  1  0  0  0  0  0  0  0  0  0
    1.8240   11.8840   -4.4050 C   0  0  0  0  0  0  0  0  0  0  0  0
    1.6520   10.5970   -3.5580 C   0  0  0  0  0  0  0  0  0  0  0  0
    0.2610   10.7470   -2.8990 C   0  0  1  0  0  0  0  0  0  0  0  0
   -0.7540   10.3080   -4.0010 C   0  0  0  0  0  0  0  0  0  0  0  0
    0.0400    9.9620   -1.5650 C   0  0  2  0  0  0  0  0  0  0  0  0
    0.1380    8.4310   -1.6850 C   0  0  0  0  0  0  0  0  0  0  0  0
   -1.1460    7.7300   -1.9820 C   0  0  0  0  0  0  0  0  0  0  0  0
   -2.3750    8.2670   -1.8660 C   0  0  0  0  0  0  0  0  0  0  0  0
   -2.5670    9.6810   -1.3020 C   0  0  1  0  0  0  0  0  0  0  0  0
   -3.7110    9.6700   -0.2550 C   0  0  0  0  0  0  0  0  0  0  0  0
   -5.0050    9.0820   -0.8090 C   0  0  0  0  0  0  0  0  0  0  0  0
   -4.7880    7.6560   -1.3060 C   0  0  2  0  0  0  0  0  0  0  0  0
   -4.4920    6.8170   -0.1850 O   0  0  0  0  0  0  0  0  0  0  0  0
   -3.6500    7.5410   -2.3600 C   0  0  0  0  0  0  0  0  0  0  0  0
   -4.1020    8.1990   -3.6870 C   0  0  0  0  0  0  0  0  0  0  0  0
   -3.4390    6.0350   -2.6720 C   0  0  0  0  0  0  0  0  0  0  0  0
   -1.2540   10.3970   -0.7640 C   0  0  1  0  0  0  0  0  0  0  0  0
   -1.0070   10.0060    0.7260 C   0  0  0  0  0  0  0  0  0  0  0  0
   -1.4730   11.9560   -0.7830 C   0  0  0  0  0  0  0  0  0  0  0  0
   -1.1240   12.6910   -2.0910 C   0  0  0  0  0  0  0  0  0  0  0  0
    0.2670   12.2890   -2.5910 C   0  0  2  0  0  0  0  0  0  0  0  0
    1.3110   12.7380   -1.5130 C   0  0  0  0  0  0  0  0  0  0  0  0
    1.1726   14.2873   -1.8294 H   0  0  0  0  0  0  0  0  0  0  0  0
    1.4907   15.9006   -2.5523 H   0  0  0  0  0  0  0  0  0  0  0  0
   -0.1754   15.2292   -2.5523 H   0  0  0  0  0  0  0  0  0  0  0  0
    2.2421   14.3697   -4.1775 H   0  0  0  0  0  0  0  0  0  0  0  0
   -0.6256   14.8961   -5.0621 H   0  0  0  0  0  0  0  0  0  0  0  0
    0.7251   16.1280   -5.0542 H   0  0  0  0  0  0  0  0  0  0  0  0
    1.9743   14.3307   -6.4907 H   0  0  0  0  0  0  0  0  0  0  0  0
    0.2912   13.7505   -6.8342 H   0  0  0  0  0  0  0  0  0  0  0  0
    0.3481   16.3810   -6.7956 H   0  0  0  0  0  0  0  0  0  0  0  0
    3.2699   14.7012   -7.9690 H   0  0  0  0  0  0  0  0  0  0  0  0
    2.5566   14.1130   -9.5091 H   0  0  0  0  0  0  0  0  0  0  0  0
    3.6319   15.5519   -9.5091 H   0  0  0  0  0  0  0  0  0  0  0  0
    1.7478   18.0215   -8.6174 H   0  0  0  0  0  0  0  0  0  0  0  0
    2.6221   17.3096  -10.0158 H   0  0  0  0  0  0  0  0  0  0  0  0
    0.8269   17.3710  -10.0158 H   0  0  0  0  0  0  0  0  0  0  0  0
   -0.1555   12.9255   -4.6379 H   0  0  0  0  0  0  0  0  0  0  0  0
    1.7178   11.6505   -5.4747 H   0  0  0  0  0  0  0  0  0  0  0  0
    2.8207   12.3248   -4.2558 H   0  0  0  0  0  0  0  0  0  0  0  0
    1.6839    9.7033   -4.1986 H   0  0  0  0  0  0  0  0  0  0  0  0
    2.4546   10.4757   -2.8156 H   0  0  0  0  0  0  0  0  0  0  0  0
   -1.6643    9.9143   -3.5252 H   0  0  0  0  0  0  0  0  0  0  0  0
   -1.0130   11.1745   -4.6271 H   0  0  0  0  0  0  0  0  0  0  0  0
   -0.2999    9.5259   -4.6271 H   0  0  0  0  0  0  0  0  0  0  0  0
    0.9073   10.2707   -0.9630 H   0  0  0  0  0  0  0  0  0  0  0  0
    0.8469    8.1983   -2.4933 H   0  0  0  0  0  0  0  0  0  0  0  0
    0.4604    8.0689   -0.6976 H   0  0  0  0  0  0  0  0  0  0  0  0
   -1.0826    6.6866   -2.3245 H   0  0  0  0  0  0  0  0  0  0  0  0
   -2.8495   10.3134   -2.1565 H   0  0  0  0  0  0  0  0  0  0  0  0
   -3.3922    9.0690    0.6094 H   0  0  0  0  0  0  0  0  0  0  0  0
   -3.9132   10.7131    0.0298 H   0  0  0  0  0  0  0  0  0  0  0  0
   -5.7658    9.0743   -0.0146 H   0  0  0  0  0  0  0  0  0  0  0  0
   -5.3378    9.7014   -1.6549 H   0  0  0  0  0  0  0  0  0  0  0  0
   -5.7136    7.3369   -1.8075 H   0  0  0  0  0  0  0  0  0  0  0  0
   -5.3370    6.5170    0.1890 H   0  0  0  0  0  0  0  0  0  0  0  0
   -4.7122    9.0873   -3.4666 H   0  0  0  0  0  0  0  0  0  0  0  0
   -3.2171    8.4971   -4.2685 H   0  0  0  0  0  0  0  0  0  0  0  0
   -4.6977    7.4800   -4.2685 H   0  0  0  0  0  0  0  0  0  0  0  0
   -3.3602    5.4729   -1.7298 H   0  0  0  0  0  0  0  0  0  0  0  0
   -4.2931    5.6579   -3.2537 H   0  0  0  0  0  0  0  0  0  0  0  0
   -2.5142    5.9071   -3.2537 H   0  0  0  0  0  0  0  0  0  0  0  0
   -1.4779   10.7515    1.3836 H   0  0  0  0  0  0  0  0  0  0  0  0
   -1.4438    9.0157    0.9225 H   0  0  0  0  0  0  0  0  0  0  0  0
    0.0749    9.9751    0.9225 H   0  0  0  0  0  0  0  0  0  0  0  0
   -2.5351   12.1454   -0.5682 H   0  0  0  0  0  0  0  0  0  0  0  0
   -0.7727   12.3540   -0.0338 H   0  0  0  0  0  0  0  0  0  0  0  0
   -1.8700   12.4349   -2.8578 H   0  0  0  0  0  0  0  0  0  0  0  0
   -1.1277   13.7737   -1.8968 H   0  0  0  0  0  0  0  0  0  0  0  0
    0.8997   12.5611   -0.5082 H   0  0  0  0  0  0  0  0  0  0  0  0
    2.2381   12.1590   -1.6369 H   0  0  0  0  0  0  0  0  0  0  0  0
    1.5284   13.8092   -1.6369 H   0  0  0  0  0  0  0  0  0  0  0  0
  1  2  1  0
  2  3  1  0
  3  4  1  0
  4  5  1  0
  5  6  1  0
  6  7  1  0
  7  8  1  0
  7  9  1  0
  2 10  1  0
 10 11  1  0
 11 12  1  0
 12 13  1  0
 13 14  1  6
 13 15  1  0
 15 16  1  0
 16 17  1  0
 17 18  2  0
 18 19  1  0
 19 20  1  0
 20 21  1  0
 21 22  1  0
 22 23  1  0
 22 24  1  0
 24 25  1  0
 24 26  1  0
 19 27  1  0
 27 28  1  1
 27 29  1  0
 29 30  1  0
 30 31  1  0
 31 32  1  1
  7  5  1  0
 31 10  1  0
 31 13  1  0
 27 15  1  0
 24 18  1  0
  1 33  1  0
  1 34  1  0
  1 35  1  0
  2 36  1  6
  3 37  1  0
  3 38  1  0
  4 39  1  0
  4 40  1  0
  5 41  1  1
  8 42  1  0
  8 43  1  0
  8 44  1  0
  9 45  1  0
  9 46  1  0
  9 47  1  0
 10 48  1  6
 11 49  1  0
 11 50  1  0
 12 51  1  0
 12 52  1  0
 14 53  1  0
 14 54  1  0
 14 55  1  0
 15 56  1  1
 16 57  1  0
 16 58  1  0
 17 59  1  0
 19 60  1  6
 20 61  1  0
 20 62  1  0
 21 63  1  0
 21 64  1  0
 22 65  1  6
 23 66  1  0
 25 67  1  0
 25 68  1  0
 25 69  1  0
 26 70  1  0
 26 71  1  0
 26 72  1  0
 28 73  1  0
 28 74  1  0
 28 75  1  0
 29 76  1  0
 29 77  1  0
 30 78  1  0
 30 79  1  0
 32 80  1  0
 32 81  1  0
 32 82  1  0
M  END
>  <meeko>  (15) 
{"is_sidechain": [false], "intermolecular_energy": 2.731, "internal_energy": -0.839}

$$$$
EPH_relaxed_0001_pdb2pqr_Repair_248_r2_0001_out
     RDKit          3D

 82 86  0  0  0  0  0  0  0  0999 V2000
   -0.2660    9.4410   -4.2490 C   0  0  0  0  0  0  0  0  0  0  0  0
   -0.0020    9.6890   -2.7620 C   0  0  2  0  0  0  0  0  0  0  0  0
   -0.7220    8.6620   -1.8650 C   0  0  0  0  0  0  0  0  0  0  0  0
   -2.2480    8.7050   -1.9820 C   0  0  0  0  0  0  0  0  0  0  0  0
   -2.7870    7.4770   -2.6500 C   0  0  2  0  0  0  0  0  0  0  0  0
   -3.8250    7.7240   -3.6080 O   0  0  0  0  0  0  0  0  0  0  0  0
   -4.2020    6.9660   -2.4470 C   0  0  0  0  0  0  0  0  0  0  0  0
   -5.1640    7.6730   -1.5450 C   0  0  0  0  0  0  0  0  0  0  0  0
   -4.4900    5.5260   -2.7340 C   0  0  0  0  0  0  0  0  0  0  0  0
   -0.4350   11.1020   -2.3860 C   0  0  1  0  0  0  0  0  0  0  0  0
   -1.6750   11.1190   -1.4530 C   0  0  0  0  0  0  0  0  0  0  0  0
   -1.4930   12.3180   -0.4880 C   0  0  0  0  0  0  0  0  0  0  0  0
   -0.3370   13.1420   -1.1030 C   0  0  1  0  0  0  0  0  0  0  0  0
   -1.0040   13.9890   -2.2320 C   0  0  0  0  0  0  0  0  0  0  0  0
    0.4760   14.0370   -0.1130 C   0  0  2  0  0  0  0  0  0  0  0  0
   -0.3330   15.1490    0.5770 C   0  0  0  0  0  0  0  0  0  0  0  0
   -0.3620   16.4570   -0.1420 C   0  0  0  0  0  0  0  0  0  0  0  0
    0.4640   16.8180   -1.1420 C   0  0  0  0  0  0  0  0  0  0  0  0
    1.6160   15.9050   -1.5800 C   0  0  1  0  0  0  0  0  0  0  0  0
    2.9130   16.7430   -1.7290 C   0  0  0  0  0  0  0  0  0  0  0  0
    2.7330   17.9410   -2.6560 C   0  0  0  0  0  0  0  0  0  0  0  0
    1.6180   18.8550   -2.1550 C   0  0  2  0  0  0  0  0  0  0  0  0
    2.0280   19.4480   -0.9190 O   0  0  0  0  0  0  0  0  0  0  0  0
    0.2630   18.1190   -1.9580 C   0  0  0  0  0  0  0  0  0  0  0  0
   -0.3290   17.7400   -3.3380 C   0  0  0  0  0  0  0  0  0  0  0  0
   -0.7350   19.1200   -1.3170 C   0  0  0  0  0  0  0  0  0  0  0  0
    1.8330   14.5950   -0.7080 C   0  0  1  0  0  0  0  0  0  0  0  0
    2.7550   14.9120    0.5090 C   0  0  0  0  0  0  0  0  0  0  0  0
    2.5930   13.5210   -1.5730 C   0  0  0  0  0  0  0  0  0  0  0  0
    1.7260   12.5870   -2.4390 C   0  0  0  0  0  0  0  0  0  0  0  0
    0.5860   11.9770   -1.6170 C   0  0  2  0  0  0  0  0  0  0  0  0
    1.2270   11.1010   -0.4870 C   0  0  0  0  0  0  0  0  0  0  0  0
   -1.0637    8.6917   -4.3598 H   0  0  0  0  0  0  0  0  0  0  0  0
   -0.5770   10.3811   -4.7280 H   0  0  0  0  0  0  0  0  0  0  0  0
    0.6529    9.0719   -4.7280 H   0  0  0  0  0  0  0  0  0  0  0  0
    1.0790    9.5736   -2.5942 H   0  0  0  0  0  0  0  0  0  0  0  0
   -0.3804    7.6551   -2.1468 H   0  0  0  0  0  0  0  0  0  0  0  0
   -0.4724    8.9140   -0.8238 H   0  0  0  0  0  0  0  0  0  0  0  0
   -2.6809    8.7815   -0.9737 H   0  0  0  0  0  0  0  0  0  0  0  0
   -2.5206    9.5767   -2.5950 H   0  0  0  0  0  0  0  0  0  0  0  0
   -1.8071    6.9817   -2.5831 H   0  0  0  0  0  0  0  0  0  0  0  0
   -4.8960    7.4760   -0.4965 H   0  0  0  0  0  0  0  0  0  0  0  0
   -5.1197    8.7551   -1.7377 H   0  0  0  0  0  0  0  0  0  0  0  0
   -6.1835    7.3076   -1.7377 H   0  0  0  0  0  0  0  0  0  0  0  0
   -4.5996    4.9781   -1.7865 H   0  0  0  0  0  0  0  0  0  0  0  0
   -5.4218    5.4468   -3.3132 H   0  0  0  0  0  0  0  0  0  0  0  0
   -3.6604    5.0945   -3.3132 H   0  0  0  0  0  0  0  0  0  0  0  0
   -0.6051   11.5161   -3.3908 H   0  0  0  0  0  0  0  0  0  0  0  0
   -2.5930   11.2458   -2.0456 H   0  0  0  0  0  0  0  0  0  0  0  0
   -1.7631   10.1743   -0.8964 H   0  0  0  0  0  0  0  0  0  0  0  0
   -2.4133   12.9183   -0.4367 H   0  0  0  0  0  0  0  0  0  0  0  0
   -1.2744   11.9960    0.5408 H   0  0  0  0  0  0  0  0  0  0  0  0
   -1.6247   14.7772   -1.7809 H   0  0  0  0  0  0  0  0  0  0  0  0
   -0.2230   14.4490   -2.8553 H   0  0  0  0  0  0  0  0  0  0  0  0
   -1.6343   13.3376   -2.8553 H   0  0  0  0  0  0  0  0  0  0  0  0
    0.7438   13.3251    0.6816 H   0  0  0  0  0  0  0  0  0  0  0  0
   -1.3698   14.7977    0.6853 H   0  0  0  0  0  0  0  0  0  0  0  0
    0.1700   15.3404    1.5363 H   0  0  0  0  0  0  0  0  0  0  0  0
   -1.1223   17.1874    0.1717 H   0  0  0  0  0  0  0  0  0  0  0  0
    1.3228   15.4937   -2.5572 H   0  0  0  0  0  0  0  0  0  0  0  0
    3.2129   17.1079   -0.7356 H   0  0  0  0  0  0  0  0  0  0  0  0
    3.6818   16.0920   -2.1707 H   0  0  0  0  0  0  0  0  0  0  0  0
    3.6738   18.5096   -2.6965 H   0  0  0  0  0  0  0  0  0  0  0  0
    2.4628   17.5733   -3.6569 H   0  0  0  0  0  0  0  0  0  0  0  0
    1.4487   19.6210   -2.9261 H   0  0  0  0  0  0  0  0  0  0  0  0
    2.4380   18.7500   -0.3800 H   0  0  0  0  0  0  0  0  0  0  0  0
   -1.2474   17.1520   -3.1940 H   0  0  0  0  0  0  0  0  0  0  0  0
   -0.5643   18.6558   -3.9001 H   0  0  0  0  0  0  0  0  0  0  0  0
    0.4042   17.1430   -3.9001 H   0  0  0  0  0  0  0  0  0  0  0  0
   -0.6684   19.0532   -0.2211 H   0  0  0  0  0  0  0  0  0  0  0  0
   -0.4859   20.1423   -1.6378 H   0  0  0  0  0  0  0  0  0  0  0  0
   -1.7580   18.8740   -1.6378 H   0  0  0  0  0  0  0  0  0  0  0  0
    2.2064   14.7234    1.4436 H   0  0  0  0  0  0  0  0  0  0  0  0
    3.6465   14.2688    0.4710 H   0  0  0  0  0  0  0  0  0  0  0  0
    3.0625   15.9675    0.4710 H   0  0  0  0  0  0  0  0  0  0  0  0
    3.2770   14.0590   -2.2458 H   0  0  0  0  0  0  0  0  0  0  0  0
    3.0873   12.8617   -0.8443 H   0  0  0  0  0  0  0  0  0  0  0  0
    1.2995   13.1632   -3.2733 H   0  0  0  0  0  0  0  0  0  0  0  0
    2.3600   11.7718   -2.8178 H   0  0  0  0  0  0  0  0  0  0  0  0
    0.9353   11.4996    0.4959 H   0  0  0  0  0  0  0  0  0  0  0  0
    0.8730   10.0638   -0.5818 H   0  0  0  0  0  0  0  0  0  0  0  0
    2.3227   11.1246   -0.5818 H   0  0  0  0  0  0  0  0  0  0  0  0
  1  2  1  0
  2  3  1  0
  3  4  1  0
  4  5  1  0
  5  6  1  0
  6  7  1  0
  7  8  1  0
  7  9  1  0
  2 10  1  0
 10 11  1  0
 11 12  1  0
 12 13  1  0
 13 14  1  6
 13 15  1  0
 15 16  1  0
 16 17  1  0
 17 18  2  0
 18 19  1  0
 19 20  1  0
 20 21  1  0
 21 22  1  0
 22 23  1  0
 22 24  1  0
 24 25  1  0
 24 26  1  0
 19 27  1  0
 27 28  1  1
 27 29  1  0
 29 30  1  0
 30 31  1  0
 31 32  1  1
  7  5  1  0
 31 10  1  0
 31 13  1  0
 27 15  1  0
 24 18  1  0
  1 33  1  0
  1 34  1  0
  1 35  1  0
  2 36  1  6
  3 37  1  0
  3 38  1  0
  4 39  1  0
  4 40  1  0
  5 41  1  6
  8 42  1  0
  8 43  1  0
  8 44  1  0
  9 45  1  0
  9 46  1  0
  9 47  1  0
 10 48  1  6
 11 49  1  0
 11 50  1  0
 12 51  1  0
 12 52  1  0
 14 53  1  0
 14 54  1  0
 14 55  1  0
 15 56  1  1
 16 57  1  0
 16 58  1  0
 17 59  1  0
 19 60  1  6
 20 61  1  0
 20 62  1  0
 21 63  1  0
 21 64  1  0
 22 65  1  6
 23 66  1  0
 25 67  1  0
 25 68  1  0
 25 69  1  0
 26 70  1  0
 26 71  1  0
 26 72  1  0
 28 73  1  0
 28 74  1  0
 28 75  1  0
 29 76  1  0
 29 77  1  0
 30 78  1  0
 30 79  1  0
 32 80  1  0
 32 81  1  0
 32 82  1  0
M  END
>  <meeko>  (16) 
{"is_sidechain": [false], "intermolecular_energy": 2.731, "internal_energy": -0.839}

$$$$
EPH_relaxed_0001_pdb2pqr_Repair_248_r2_0001_out
     RDKit          3D

 82 86  0  0  0  0  0  0  0  0999 V2000
    2.7260   11.3450   -5.3800 C   0  0  0  0  0  0  0  0  0  0  0  0
    1.7130   11.0550   -4.2690 C   0  0  2  0  0  0  0  0  0  0  0  0
    0.5870   10.1130   -4.7400 C   0  0  0  0  0  0  0  0  0  0  0  0
   -0.4660    9.8260   -3.6660 C   0  0  0  0  0  0  0  0  0  0  0  0
    0.1020    9.0230   -2.5340 C   0  0  2  0  0  0  0  0  0  0  0  0
   -0.6910    7.8940   -2.1450 O   0  0  0  0  0  0  0  0  0  0  0  0
   -0.5450    8.9350   -1.1650 C   0  0  0  0  0  0  0  0  0  0  0  0
   -1.8160    9.6610   -0.8530 C   0  0  0  0  0  0  0  0  0  0  0  0
    0.3060    8.5460    0.0040 C   0  0  0  0  0  0  0  0  0  0  0  0
    1.1180   12.3610   -3.7540 C   0  0  1  0  0  0  0  0  0  0  0  0
   -0.4250   12.2970   -3.6050 C   0  0  0  0  0  0  0  0  0  0  0  0
   -0.7910   13.1580   -2.3690 C   0  0  0  0  0  0  0  0  0  0  0  0
    0.4980   13.9500   -2.0490 C   0  0  1  0  0  0  0  0  0  0  0  0
    0.4890   15.1510   -3.0460 C   0  0  0  0  0  0  0  0  0  0  0  0
    0.6670   14.4280   -0.5700 C   0  0  2  0  0  0  0  0  0  0  0  0
   -0.4060   15.4150   -0.0770 C   0  0  0  0  0  0  0  0  0  0  0  0
   -0.0890   16.8590   -0.2850 C   0  0  0  0  0  0  0  0  0  0  0  0
    1.1260   17.3580   -0.5820 C   0  0  0  0  0  0  0  0  0  0  0  0
    2.3590   16.4470   -0.6400 C   0  0  1  0  0  0  0  0  0  0  0  0
    3.5290   17.1090    0.1330 C   0  0  0  0  0  0  0  0  0  0  0  0
    3.8260   18.5240   -0.3530 C   0  0  0  0  0  0  0  0  0  0  0  0
    2.5920   19.4140   -0.2240 C   0  0  2  0  0  0  0  0  0  0  0  0
    2.2950   19.5920    1.1640 O   0  0  0  0  0  0  0  0  0  0  0  0
    1.3460   18.8440   -0.9570 C   0  0  0  0  0  0  0  0  0  0  0  0
    1.5560   18.9330   -2.4880 C   0  0  0  0  0  0  0  0  0  0  0  0
    0.1380   19.7640   -0.6300 C   0  0  0  0  0  0  0  0  0  0  0  0
    2.1240   14.9340   -0.2150 C   0  0  1  0  0  0  0  0  0  0  0  0
    2.2820   14.7850    1.3300 C   0  0  0  0  0  0  0  0  0  0  0  0
    3.2430   14.0370   -0.8640 C   0  0  0  0  0  0  0  0  0  0  0  0
    2.9660   13.4960   -2.2800 C   0  0  0  0  0  0  0  0  0  0  0  0
    1.5790   12.8510   -2.3580 C   0  0  2  0  0  0  0  0  0  0  0  0
    1.5660   11.6250   -1.3820 C   0  0  0  0  0  0  0  0  0  0  0  0
    3.6920   11.6215   -4.9324 H   0  0  0  0  0  0  0  0  0  0  0  0
    2.8541   10.4474   -6.0029 H   0  0  0  0  0  0  0  0  0  0  0  0
    2.3597   12.1744   -6.0029 H   0  0  0  0  0  0  0  0  0  0  0  0
    2.2510   10.5451   -3.4563 H   0  0  0  0  0  0  0  0  0  0  0  0
    0.0856   10.5756   -5.6029 H   0  0  0  0  0  0  0  0  0  0  0  0
    1.0576    9.1516   -4.9934 H   0  0  0  0  0  0  0  0  0  0  0  0
   -0.8428   10.7813   -3.2717 H   0  0  0  0  0  0  0  0  0  0  0  0
   -1.2768    9.2431   -4.1273 H   0  0  0  0  0  0  0  0  0  0  0  0
    1.1290    9.2575   -2.8508 H   0  0  0  0  0  0  0  0  0  0  0  0
   -1.9397    9.7316    0.2377 H   0  0  0  0  0  0  0  0  0  0  0  0
   -1.7758   10.6724   -1.2837 H   0  0  0  0  0  0  0  0  0  0  0  0
   -2.6667    9.1126   -1.2837 H   0  0  0  0  0  0  0  0  0  0  0  0
   -0.2220    8.7874    0.9383 H   0  0  0  0  0  0  0  0  0  0  0  0
    0.5092    7.4656   -0.0338 H   0  0  0  0  0  0  0  0  0  0  0  0
    1.2560    9.0993   -0.0338 H   0  0  0  0  0  0  0  0  0  0  0  0
    1.4805   13.0481   -4.5327 H   0  0  0  0  0  0  0  0  0  0  0  0
   -0.9097   12.7019   -4.5056 H   0  0  0  0  0  0  0  0  0  0  0  0
   -0.7669   11.2591   -3.4786 H   0  0  0  0  0  0  0  0  0  0  0  0
   -1.6191   13.8428   -2.6043 H   0  0  0  0  0  0  0  0  0  0  0  0
   -1.1260   12.5457   -1.5188 H   0  0  0  0  0  0  0  0  0  0  0  0
    0.4819   16.0955   -2.4822 H   0  0  0  0  0  0  0  0  0  0  0  0
    1.3875   15.1087   -3.6792 H   0  0  0  0  0  0  0  0  0  0  0  0
   -0.4088   15.0952   -3.6792 H   0  0  0  0  0  0  0  0  0  0  0  0
    0.5038   13.5003   -0.0019 H   0  0  0  0  0  0  0  0  0  0  0  0
   -1.3425   15.1926   -0.6095 H   0  0  0  0  0  0  0  0  0  0  0  0
   -0.4731   15.2723    1.0116 H   0  0  0  0  0  0  0  0  0  0  0  0
   -0.9177   17.5757   -0.1874 H   0  0  0  0  0  0  0  0  0  0  0  0
    2.6201   16.3562   -1.7047 H   0  0  0  0  0  0  0  0  0  0  0  0
    3.2672   17.1507    1.2006 H   0  0  0  0  0  0  0  0  0  0  0  0
    4.4293   16.5011   -0.0401 H   0  0  0  0  0  0  0  0  0  0  0  0
    4.6413   18.9487    0.2511 H   0  0  0  0  0  0  0  0  0  0  0  0
    4.1173   18.4780   -1.4127 H   0  0  0  0  0  0  0  0  0  0  0  0
    2.8263   20.3746   -0.7060 H   0  0  0  0  0  0  0  0  0  0  0  0
    1.7280   18.8530    1.4410 H   0  0  0  0  0  0  0  0  0  0  0  0
    2.5502   19.3544   -2.6978 H   0  0  0  0  0  0  0  0  0  0  0  0
    1.4840   17.9270   -2.9271 H   0  0  0  0  0  0  0  0  0  0  0  0
    0.7830   19.5809   -2.9271 H   0  0  0  0  0  0  0  0  0  0  0  0
    0.0265   19.8489    0.4610 H   0  0  0  0  0  0  0  0  0  0  0  0
    0.3102   20.7618   -1.0597 H   0  0  0  0  0  0  0  0  0  0  0  0
   -0.7782   19.3328   -1.0597 H   0  0  0  0  0  0  0  0  0  0  0  0
    1.5720   15.4546    1.8375 H   0  0  0  0  0  0  0  0  0  0  0  0
    2.0765   13.7443    1.6209 H   0  0  0  0  0  0  0  0  0  0  0  0
    3.3089   15.0511    1.6209 H   0  0  0  0  0  0  0  0  0  0  0  0
    4.1642   14.6364   -0.9111 H   0  0  0  0  0  0  0  0  0  0  0  0
    3.3051   13.1456   -0.2225 H   0  0  0  0  0  0  0  0  0  0  0  0
    3.0177   14.3267   -2.9992 H   0  0  0  0  0  0  0  0  0  0  0  0
    3.7218   12.7332   -2.5184 H   0  0  0  0  0  0  0  0  0  0  0  0
    1.5698   11.9840   -0.3422 H   0  0  0  0  0  0  0  0  0  0  0  0
    0.6614   11.0247   -1.5593 H   0  0  0  0  0  0  0  0  0  0  0  0
    2.4576   11.0057   -1.5593 H   0  0  0  0  0  0  0  0  0  0  0  0
  1  2  1  0
  2  3  1  0
  3  4  1  0
  4  5  1  0
  5  6  1  0
  6  7  1  0
  7  8  1  0
  7  9  1  0
  2 10  1  0
 10 11  1  0
 11 12  1  0
 12 13  1  0
 13 14  1  6
 13 15  1  0
 15 16  1  0
 16 17  1  0
 17 18  2  0
 18 19  1  0
 19 20  1  0
 20 21  1  0
 21 22  1  0
 22 23  1  0
 22 24  1  0
 24 25  1  0
 24 26  1  0
 19 27  1  0
 27 28  1  1
 27 29  1  0
 29 30  1  0
 30 31  1  0
 31 32  1  1
  7  5  1  0
 31 10  1  0
 31 13  1  0
 27 15  1  0
 24 18  1  0
  1 33  1  0
  1 34  1  0
  1 35  1  0
  2 36  1  1
  3 37  1  0
  3 38  1  0
  4 39  1  0
  4 40  1  0
  5 41  1  1
  8 42  1  0
  8 43  1  0
  8 44  1  0
  9 45  1  0
  9 46  1  0
  9 47  1  0
 10 48  1  6
 11 49  1  0
 11 50  1  0
 12 51  1  0
 12 52  1  0
 14 53  1  0
 14 54  1  0
 14 55  1  0
 15 56  1  1
 16 57  1  0
 16 58  1  0
 17 59  1  0
 19 60  1  6
 20 61  1  0
 20 62  1  0
 21 63  1  0
 21 64  1  0
 22 65  1  6
 23 66  1  0
 25 67  1  0
 25 68  1  0
 25 69  1  0
 26 70  1  0
 26 71  1  0
 26 72  1  0
 28 73  1  0
 28 74  1  0
 28 75  1  0
 29 76  1  0
 29 77  1  0
 30 78  1  0
 30 79  1  0
 32 80  1  0
 32 81  1  0
 32 82  1  0
M  END
>  <meeko>  (17) 
{"is_sidechain": [false], "intermolecular_energy": 2.731, "internal_energy": -0.839}

$$$$
EPH_relaxed_0001_pdb2pqr_Repair_248_r2_0001_out
     RDKit          3D

 82 86  0  0  0  0  0  0  0  0999 V2000
    2.1960   18.9890   -0.9280 C   0  0  0  0  0  0  0  0  0  0  0  0
    2.1010   18.0420   -2.1270 C   0  0  2  0  0  0  0  0  0  0  0  0
    0.7240   18.1130   -2.8160 C   0  0  0  0  0  0  0  0  0  0  0  0
   -0.1080   19.3310   -2.4050 C   0  0  0  0  0  0  0  0  0  0  0  0
   -1.2990   18.9380   -1.5840 C   0  0  2  0  0  0  0  0  0  0  0  0
   -2.1570   20.0250   -1.2150 O   0  0  0  0  0  0  0  0  0  0  0  0
   -1.4900   19.3500   -0.1360 C   0  0  0  0  0  0  0  0  0  0  0  0
   -0.4780   20.1920    0.5760 C   0  0  0  0  0  0  0  0  0  0  0  0
   -2.4070   18.5370    0.7240 C   0  0  0  0  0  0  0  0  0  0  0  0
    2.3900   16.6120   -1.6850 C   0  0  1  0  0  0  0  0  0  0  0  0
    3.4840   16.5360   -0.5870 C   0  0  0  0  0  0  0  0  0  0  0  0
    3.0950   15.3640    0.3510 C   0  0  0  0  0  0  0  0  0  0  0  0
    1.9890   14.6020   -0.4140 C   0  0  1  0  0  0  0  0  0  0  0  0
    2.7540   13.6990   -1.4320 C   0  0  0  0  0  0  0  0  0  0  0  0
    0.9910   13.7720    0.4580 C   0  0  2  0  0  0  0  0  0  0  0  0
    1.6270   12.6250    1.2630 C   0  0  0  0  0  0  0  0  0  0  0  0
    1.6750   11.3060    0.5640 C   0  0  0  0  0  0  0  0  0  0  0  0
    0.9770   10.9790   -0.5390 C   0  0  0  0  0  0  0  0  0  0  0  0
   -0.0440   11.9530   -1.1420 C   0  0  1  0  0  0  0  0  0  0  0  0
   -1.3560   11.1910   -1.4660 C   0  0  0  0  0  0  0  0  0  0  0  0
   -1.1220    9.9710   -2.3500 C   0  0  0  0  0  0  0  0  0  0  0  0
   -0.1460    8.9990   -1.6910 C   0  0  2  0  0  0  0  0  0  0  0  0
   -0.7600    8.4520   -0.5200 O   0  0  0  0  0  0  0  0  0  0  0  0
    1.2100    9.6570   -1.3100 C   0  0  0  0  0  0  0  0  0  0  0  0
    2.0120    9.9780   -2.5960 C   0  0  0  0  0  0  0  0  0  0  0  0
    2.0460    8.6080   -0.5280 C   0  0  0  0  0  0  0  0  0  0  0  0
   -0.3000   13.2870   -0.3180 C   0  0  1  0  0  0  0  0  0  0  0  0
   -1.4010   13.0440    0.7590 C   0  0  0  0  0  0  0  0  0  0  0  0
   -0.8640   14.3910   -1.2890 C   0  0  0  0  0  0  0  0  0  0  0  0
    0.1710   15.2580   -2.0310 C   0  0  0  0  0  0  0  0  0  0  0  0
    1.2190   15.8110   -1.0610 C   0  0  2  0  0  0  0  0  0  0  0  0
    0.4820   16.7410   -0.0380 C   0  0  0  0  0  0  0  0  0  0  0  0
    2.1377   18.4076    0.0040 H   0  0  0  0  0  0  0  0  0  0  0  0
    3.1530   19.5303   -0.9632 H   0  0  0  0  0  0  0  0  0  0  0  0
    1.3656   19.7096   -0.9632 H   0  0  0  0  0  0  0  0  0  0  0  0
    2.8540   18.3628   -2.8618 H   0  0  0  0  0  0  0  0  0  0  0  0
    0.8816   18.1513   -3.9040 H   0  0  0  0  0  0  0  0  0  0  0  0
    0.1623   17.2201   -2.5044 H   0  0  0  0  0  0  0  0  0  0  0  0
    0.5234   20.0110   -1.8143 H   0  0  0  0  0  0  0  0  0  0  0  0
   -0.4697   19.8234   -3.3197 H   0  0  0  0  0  0  0  0  0  0  0  0
   -1.3519   17.9607   -2.0862 H   0  0  0  0  0  0  0  0  0  0  0  0
   -0.6093   20.0827    1.6627 H   0  0  0  0  0  0  0  0  0  0  0  0
    0.5340   19.8656    0.2943 H   0  0  0  0  0  0  0  0  0  0  0  0
   -0.6149   21.2465    0.2943 H   0  0  0  0  0  0  0  0  0  0  0  0
   -2.1858   18.7331    1.7835 H   0  0  0  0  0  0  0  0  0  0  0  0
   -3.4503   18.8123    0.5102 H   0  0  0  0  0  0  0  0  0  0  0  0
   -2.2586   17.4682    0.5102 H   0  0  0  0  0  0  0  0  0  0  0  0
    2.6734   16.1727   -2.6528 H   0  0  0  0  0  0  0  0  0  0  0  0
    4.4665   16.3458   -1.0436 H   0  0  0  0  0  0  0  0  0  0  0  0
    3.5514   17.4822   -0.0301 H   0  0  0  0  0  0  0  0  0  0  0  0
    3.9604   14.7105    0.5351 H   0  0  0  0  0  0  0  0  0  0  0  0
    2.7546   15.7142    1.3366 H   0  0  0  0  0  0  0  0  0  0  0  0
    3.3708   12.9709   -0.8849 H   0  0  0  0  0  0  0  0  0  0  0  0
    2.0298   13.1644   -2.0642 H   0  0  0  0  0  0  0  0  0  0  0  0
    3.4004   14.3255   -2.0642 H   0  0  0  0  0  0  0  0  0  0  0  0
    0.6570   14.5104    1.2018 H   0  0  0  0  0  0  0  0  0  0  0  0
    2.6583   12.9155    1.5122 H   0  0  0  0  0  0  0  0  0  0  0  0
    0.9855   12.4794    2.1446 H   0  0  0  0  0  0  0  0  0  0  0  0
    2.3374   10.5363    0.9869 H   0  0  0  0  0  0  0  0  0  0  0  0
    0.4074   12.3314   -2.0710 H   0  0  0  0  0  0  0  0  0  0  0  0
   -1.8134   10.8597   -0.5220 H   0  0  0  0  0  0  0  0  0  0  0  0
   -2.0144   11.8797   -2.0158 H   0  0  0  0  0  0  0  0  0  0  0  0
   -2.0810    9.4593   -2.5186 H   0  0  0  0  0  0  0  0  0  0  0  0
   -0.6921   10.3067   -3.3052 H   0  0  0  0  0  0  0  0  0  0  0  0
    0.0817    8.2120   -2.4250 H   0  0  0  0  0  0  0  0  0  0  0  0
   -0.0660    8.3350    0.1500 H   0  0  0  0  0  0  0  0  0  0  0  0
    3.0011   10.3739   -2.3221 H   0  0  0  0  0  0  0  0  0  0  0  0
    2.1359    9.0602   -3.1895 H   0  0  0  0  0  0  0  0  0  0  0  0
    1.4685   10.7279   -3.1895 H   0  0  0  0  0  0  0  0  0  0  0  0
    1.9179    8.7688    0.5526 H   0  0  0  0  0  0  0  0  0  0  0  0
    1.7038    7.5963   -0.7913 H   0  0  0  0  0  0  0  0  0  0  0  0
    3.1086    8.7158   -0.7913 H   0  0  0  0  0  0  0  0  0  0  0  0
   -0.9604   13.1412    1.7622 H   0  0  0  0  0  0  0  0  0  0  0  0
   -2.2032   13.7867    0.6373 H   0  0  0  0  0  0  0  0  0  0  0  0
   -1.8161   12.0326    0.6373 H   0  0  0  0  0  0  0  0  0  0  0  0
   -1.4788   13.8844   -2.0476 H   0  0  0  0  0  0  0  0  0  0  0  0
   -1.4139   15.0900   -0.6416 H   0  0  0  0  0  0  0  0  0  0  0  0
    0.6741   14.6447   -2.7930 H   0  0  0  0  0  0  0  0  0  0  0  0
   -0.3524   16.1035   -2.5013 H   0  0  0  0  0  0  0  0  0  0  0  0
    0.7301   16.4279    0.9869 H   0  0  0  0  0  0  0  0  0  0  0  0
    0.8031   17.7818   -0.1913 H   0  0  0  0  0  0  0  0  0  0  0  0
   -0.6047   16.6662   -0.1913 H   0  0  0  0  0  0  0  0  0  0  0  0
  1  2  1  0
  2  3  1  0
  3  4  1  0
  4  5  1  0
  5  6  1  0
  6  7  1  0
  7  8  1  0
  7  9  1  0
  2 10  1  0
 10 11  1  0
 11 12  1  0
 12 13  1  0
 13 14  1  6
 13 15  1  0
 15 16  1  0
 16 17  1  0
 17 18  2  0
 18 19  1  0
 19 20  1  0
 20 21  1  0
 21 22  1  0
 22 23  1  0
 22 24  1  0
 24 25  1  0
 24 26  1  0
 19 27  1  0
 27 28  1  1
 27 29  1  0
 29 30  1  0
 30 31  1  0
 31 32  1  1
  7  5  1  0
 31 10  1  0
 31 13  1  0
 27 15  1  0
 24 18  1  0
  1 33  1  0
  1 34  1  0
  1 35  1  0
  2 36  1  6
  3 37  1  0
  3 38  1  0
  4 39  1  0
  4 40  1  0
  5 41  1  1
  8 42  1  0
  8 43  1  0
  8 44  1  0
  9 45  1  0
  9 46  1  0
  9 47  1  0
 10 48  1  6
 11 49  1  0
 11 50  1  0
 12 51  1  0
 12 52  1  0
 14 53  1  0
 14 54  1  0
 14 55  1  0
 15 56  1  1
 16 57  1  0
 16 58  1  0
 17 59  1  0
 19 60  1  6
 20 61  1  0
 20 62  1  0
 21 63  1  0
 21 64  1  0
 22 65  1  6
 23 66  1  0
 25 67  1  0
 25 68  1  0
 25 69  1  0
 26 70  1  0
 26 71  1  0
 26 72  1  0
 28 73  1  0
 28 74  1  0
 28 75  1  0
 29 76  1  0
 29 77  1  0
 30 78  1  0
 30 79  1  0
 32 80  1  0
 32 81  1  0
 32 82  1  0
M  END
>  <meeko>  (18) 
{"is_sidechain": [false], "intermolecular_energy": 2.731, "internal_energy": -0.839}

$$$$
