EPH_relaxed_0001_pdb2pqr_Repair_252_r2_0001_out
     RDKit          3D

 82 86  0  0  0  0  0  0  0  0999 V2000
   -5.1600    5.8340   -1.7830 C   0  0  0  0  0  0  0  0  0  0  0  0
   -5.4630    7.3350   -1.7980 C   0  0  2  0  0  0  0  0  0  0  0  0
   -5.2450    7.9850   -0.4160 C   0  0  0  0  0  0  0  0  0  0  0  0
   -4.1640    9.0690   -0.4100 C   0  0  0  0  0  0  0  0  0  0  0  0
   -2.8490    8.5440   -0.9040 C   0  0  2  0  0  0  0  0  0  0  0  0
   -1.7520    8.7310   -0.0000 O   0  0  0  0  0  0  0  0  0  0  0  0
   -1.6700    9.4340   -1.2500 C   0  0  0  0  0  0  0  0  0  0  0  0
   -1.7510   10.9230   -1.1180 C   0  0  0  0  0  0  0  0  0  0  0  0
   -0.6190    8.9020   -2.1740 C   0  0  0  0  0  0  0  0  0  0  0  0
   -6.8940    7.5720   -2.2640 C   0  0  1  0  0  0  0  0  0  0  0  0
   -7.2030    6.8820   -3.6200 C   0  0  0  0  0  0  0  0  0  0  0  0
   -8.6810    6.4180   -3.5590 C   0  0  0  0  0  0  0  0  0  0  0  0
   -9.2660    7.1400   -2.3230 C   0  0  1  0  0  0  0  0  0  0  0  0
   -9.6070    8.5790   -2.8230 C   0  0  0  0  0  0  0  0  0  0  0  0
  -10.4990    6.4590   -1.6440 C   0  0  2  0  0  0  0  0  0  0  0  0
  -11.7510    6.3440   -2.5300 C   0  0  0  0  0  0  0  0  0  0  0  0
  -12.6980    7.4950   -2.4480 C   0  0  0  0  0  0  0  0  0  0  0  0
  -12.6980    8.4420   -1.4910 C   0  0  0  0  0  0  0  0  0  0  0  0
  -11.7370    8.3560   -0.2990 C   0  0  1  0  0  0  0  0  0  0  0  0
  -12.5140    8.6370    1.0140 C   0  0  0  0  0  0  0  0  0  0  0  0
  -13.2750    9.9590    0.9720 C   0  0  0  0  0  0  0  0  0  0  0  0
  -14.2620    9.9830   -0.1930 C   0  0  2  0  0  0  0  0  0  0  0  0
  -15.2860    9.0140    0.0510 O   0  0  0  0  0  0  0  0  0  0  0  0
  -13.5940    9.7020   -1.5680 C   0  0  0  0  0  0  0  0  0  0  0  0
  -12.7070   10.9060   -1.9710 C   0  0  0  0  0  0  0  0  0  0  0  0
  -14.7180    9.6150   -2.6360 C   0  0  0  0  0  0  0  0  0  0  0  0
  -10.8530    7.0380   -0.2140 C   0  0  1  0  0  0  0  0  0  0  0  0
  -11.6370    5.9190    0.5380 C   0  0  0  0  0  0  0  0  0  0  0  0
   -9.5680    7.3350    0.6460 C   0  0  0  0  0  0  0  0  0  0  0  0
   -8.3440    7.8950   -0.1030 C   0  0  0  0  0  0  0  0  0  0  0  0
   -8.0350    7.0600   -1.3490 C   0  0  2  0  0  0  0  0  0  0  0  0
   -7.6670    5.6120   -0.8760 C   0  0  0  0  0  0  0  0  0  0  0  0
   -5.0895    5.4846   -0.7424 H   0  0  0  0  0  0  0  0  0  0  0  0
   -5.9668    5.2919   -2.2979 H   0  0  0  0  0  0  0  0  0  0  0  0
   -4.2061    5.6473   -2.2979 H   0  0  0  0  0  0  0  0  0  0  0  0
   -4.7603    7.8072   -2.5003 H   0  0  0  0  0  0  0  0  0  0  0  0
   -6.1934    8.4384   -0.0919 H   0  0  0  0  0  0  0  0  0  0  0  0
   -4.9065    7.1893    0.2639 H   0  0  0  0  0  0  0  0  0  0  0  0
   -4.4848    9.8959   -1.0607 H   0  0  0  0  0  0  0  0  0  0  0  0
   -4.0286    9.4124    0.6262 H   0  0  0  0  0  0  0  0  0  0  0  0
   -3.3520    7.7373   -1.4573 H   0  0  0  0  0  0  0  0  0  0  0  0
   -1.7659   11.1964   -0.0526 H   0  0  0  0  0  0  0  0  0  0  0  0
   -0.8765   11.3821   -1.6022 H   0  0  0  0  0  0  0  0  0  0  0  0
   -2.6701   11.2846   -1.6022 H   0  0  0  0  0  0  0  0  0  0  0  0
    0.2095    8.4826   -1.5843 H   0  0  0  0  0  0  0  0  0  0  0  0
   -1.0528    8.1149   -2.8083 H   0  0  0  0  0  0  0  0  0  0  0  0
   -0.2415    9.7176   -2.8083 H   0  0  0  0  0  0  0  0  0  0  0  0
   -6.8986    8.6717   -2.2911 H   0  0  0  0  0  0  0  0  0  0  0  0
   -7.0630    7.5931   -4.4475 H   0  0  0  0  0  0  0  0  0  0  0  0
   -6.5284    6.0304   -3.7927 H   0  0  0  0  0  0  0  0  0  0  0  0
   -9.2188    6.7135   -4.4719 H   0  0  0  0  0  0  0  0  0  0  0  0
   -8.7721    5.3243   -3.4850 H   0  0  0  0  0  0  0  0  0  0  0  0
   -9.7637    9.2402   -1.9580 H   0  0  0  0  0  0  0  0  0  0  0  0
   -8.7749    8.9625   -3.4317 H   0  0  0  0  0  0  0  0  0  0  0  0
  -10.5227    8.5483   -3.4317 H   0  0  0  0  0  0  0  0  0  0  0  0
  -10.1456    5.4284   -1.4924 H   0  0  0  0  0  0  0  0  0  0  0  0
  -11.4205    6.2496   -3.5749 H   0  0  0  0  0  0  0  0  0  0  0  0
  -12.3047    5.4676   -2.1622 H   0  0  0  0  0  0  0  0  0  0  0  0
  -13.4607    7.5764   -3.2365 H   0  0  0  0  0  0  0  0  0  0  0  0
  -10.9816    9.1390   -0.4611 H   0  0  0  0  0  0  0  0  0  0  0  0
  -13.2331    7.8213    1.1797 H   0  0  0  0  0  0  0  0  0  0  0  0
  -11.7790    8.7006    1.8299 H   0  0  0  0  0  0  0  0  0  0  0  0
  -13.8274   10.0867    1.9146 H   0  0  0  0  0  0  0  0  0  0  0  0
  -12.5517   10.7766    0.8367 H   0  0  0  0  0  0  0  0  0  0  0  0
  -14.6809   10.9985   -0.2497 H   0  0  0  0  0  0  0  0  0  0  0  0
  -15.4580    8.5500   -0.7860 H   0  0  0  0  0  0  0  0  0  0  0  0
  -12.3370   11.4083   -1.0650 H   0  0  0  0  0  0  0  0  0  0  0  0
  -11.8539   10.5497   -2.5671 H   0  0  0  0  0  0  0  0  0  0  0  0
  -13.3001   11.6151   -2.5671 H   0  0  0  0  0  0  0  0  0  0  0  0
  -15.6945    9.5394   -2.1353 H   0  0  0  0  0  0  0  0  0  0  0  0
  -14.6971   10.5174   -3.2646 H   0  0  0  0  0  0  0  0  0  0  0  0
  -14.5585    8.7265   -3.2646 H   0  0  0  0  0  0  0  0  0  0  0  0
  -11.5344    6.0655    1.6234 H   0  0  0  0  0  0  0  0  0  0  0  0
  -12.7004    5.9665    0.2605 H   0  0  0  0  0  0  0  0  0  0  0  0
  -11.2292    4.9358    0.2605 H   0  0  0  0  0  0  0  0  0  0  0  0
   -9.8471    8.0653    1.4198 H   0  0  0  0  0  0  0  0  0  0  0  0
   -9.2466    6.3556    1.0301 H   0  0  0  0  0  0  0  0  0  0  0  0
   -8.5513    8.9317   -0.4068 H   0  0  0  0  0  0  0  0  0  0  0  0
   -7.4740    7.8575    0.5691 H   0  0  0  0  0  0  0  0  0  0  0  0
   -7.6580    5.5766    0.2234 H   0  0  0  0  0  0  0  0  0  0  0  0
   -8.4128    4.9003   -1.2597 H   0  0  0  0  0  0  0  0  0  0  0  0
   -6.6719    5.3427   -1.2597 H   0  0  0  0  0  0  0  0  0  0  0  0
  1  2  1  0
  2  3  1  0
  3  4  1  0
  4  5  1  0
  5  6  1  0
  6  7  1  0
  7  8  1  0
  7  9  1  0
  2 10  1  0
 10 11  1  0
 11 12  1  0
 12 13  1  0
 13 14  1  6
 13 15  1  0
 15 16  1  0
 16 17  1  0
 17 18  2  0
 18 19  1  0
 19 20  1  0
 20 21  1  0
 21 22  1  0
 22 23  1  0
 22 24  1  0
 24 25  1  0
 24 26  1  0
 19 27  1  0
 27 28  1  1
 27 29  1  0
 29 30  1  0
 30 31  1  0
 31 32  1  1
  7  5  1  0
 31 10  1  0
 31 13  1  0
 27 15  1  0
 24 18  1  0
  1 33  1  0
  1 34  1  0
  1 35  1  0
  2 36  1  6
  3 37  1  0
  3 38  1  0
  4 39  1  0
  4 40  1  0
  5 41  1  6
  8 42  1  0
  8 43  1  0
  8 44  1  0
  9 45  1  0
  9 46  1  0
  9 47  1  0
 10 48  1  6
 11 49  1  0
 11 50  1  0
 12 51  1  0
 12 52  1  0
 14 53  1  0
 14 54  1  0
 14 55  1  0
 15 56  1  1
 16 57  1  0
 16 58  1  0
 17 59  1  0
 19 60  1  6
 20 61  1  0
 20 62  1  0
 21 63  1  0
 21 64  1  0
 22 65  1  6
 23 66  1  0
 25 67  1  0
 25 68  1  0
 25 69  1  0
 26 70  1  0
 26 71  1  0
 26 72  1  0
 28 73  1  0
 28 74  1  0
 28 75  1  0
 29 76  1  0
 29 77  1  0
 30 78  1  0
 30 79  1  0
 32 80  1  0
 32 81  1  0
 32 82  1  0
M  END
>  <meeko>  (1) 
{"is_sidechain": [false], "intermolecular_energy": 2.731, "internal_energy": -0.839}

$$$$
EPH_relaxed_0001_pdb2pqr_Repair_252_r2_0001_out
     RDKit          3D

 82 86  0  0  0  0  0  0  0  0999 V2000
   -5.0510    8.4340   -0.5070 C   0  0  0  0  0  0  0  0  0  0  0  0
   -5.3710    7.3930   -1.5830 C   0  0  2  0  0  0  0  0  0  0  0  0
   -4.3670    7.4380   -2.7520 C   0  0  0  0  0  0  0  0  0  0  0  0
   -2.9130    7.2220   -2.3230 C   0  0  0  0  0  0  0  0  0  0  0  0
   -2.0520    8.3970   -2.6730 C   0  0  2  0  0  0  0  0  0  0  0  0
   -0.6710    8.2540   -2.3170 O   0  0  0  0  0  0  0  0  0  0  0  0
   -1.3960    9.2920   -1.6370 C   0  0  0  0  0  0  0  0  0  0  0  0
   -1.5750    9.0490   -0.1710 C   0  0  0  0  0  0  0  0  0  0  0  0
   -0.9900   10.6750   -2.0410 C   0  0  0  0  0  0  0  0  0  0  0  0
   -6.7880    7.6030   -2.1050 C   0  0  1  0  0  0  0  0  0  0  0  0
   -7.0320    6.9060   -3.4700 C   0  0  0  0  0  0  0  0  0  0  0  0
   -8.5020    6.4160   -3.4660 C   0  0  0  0  0  0  0  0  0  0  0  0
   -9.1480    7.1290   -2.2540 C   0  0  1  0  0  0  0  0  0  0  0  0
   -9.4940    8.5610   -2.7690 C   0  0  0  0  0  0  0  0  0  0  0  0
  -10.3930    6.4260   -1.6220 C   0  0  2  0  0  0  0  0  0  0  0  0
  -11.6080    6.2880   -2.5550 C   0  0  0  0  0  0  0  0  0  0  0  0
  -12.5780    7.4220   -2.5120 C   0  0  0  0  0  0  0  0  0  0  0  0
  -12.6310    8.3700   -1.5570 C   0  0  0  0  0  0  0  0  0  0  0  0
  -11.7160    8.3020   -0.3280 C   0  0  1  0  0  0  0  0  0  0  0  0
  -12.5480    8.5710    0.9530 C   0  0  0  0  0  0  0  0  0  0  0  0
  -13.3300    9.8780    0.8790 C   0  0  0  0  0  0  0  0  0  0  0  0
  -14.2720    9.8840   -0.3220 C   0  0  2  0  0  0  0  0  0  0  0  0
  -15.2870    8.8970   -0.1160 O   0  0  0  0  0  0  0  0  0  0  0  0
  -13.5460    9.6140   -1.6700 C   0  0  0  0  0  0  0  0  0  0  0  0
  -12.6660   10.8330   -2.0410 C   0  0  0  0  0  0  0  0  0  0  0  0
  -14.6270    9.5050   -2.7800 C   0  0  0  0  0  0  0  0  0  0  0  0
  -10.8120    7.0000   -0.2080 C   0  0  1  0  0  0  0  0  0  0  0  0
  -11.6040    5.8680    0.5150 C   0  0  0  0  0  0  0  0  0  0  0  0
   -9.5670    7.3210    0.7010 C   0  0  0  0  0  0  0  0  0  0  0  0
   -8.3250    7.9020   -0.0010 C   0  0  0  0  0  0  0  0  0  0  0  0
   -7.9530    7.0720   -1.2330 C   0  0  2  0  0  0  0  0  0  0  0  0
   -7.5780    5.6310   -0.7440 C   0  0  0  0  0  0  0  0  0  0  0  0
   -5.1885    7.9866    0.4884 H   0  0  0  0  0  0  0  0  0  0  0  0
   -4.0088    8.7678   -0.6182 H   0  0  0  0  0  0  0  0  0  0  0  0
   -5.7258    9.2956   -0.6182 H   0  0  0  0  0  0  0  0  0  0  0  0
   -5.2899    6.4001   -1.1166 H   0  0  0  0  0  0  0  0  0  0  0  0
   -4.6371    6.6517   -3.4723 H   0  0  0  0  0  0  0  0  0  0  0  0
   -4.4271    8.4457   -3.1888 H   0  0  0  0  0  0  0  0  0  0  0  0
   -2.8815    7.0687   -1.2342 H   0  0  0  0  0  0  0  0  0  0  0  0
   -2.5252    6.3415   -2.8563 H   0  0  0  0  0  0  0  0  0  0  0  0
   -2.6727    8.6197   -3.5534 H   0  0  0  0  0  0  0  0  0  0  0  0
   -1.0164    9.8073    0.3973 H   0  0  0  0  0  0  0  0  0  0  0  0
   -2.6432    9.1132    0.0836 H   0  0  0  0  0  0  0  0  0  0  0  0
   -1.1969    8.0479    0.0836 H   0  0  0  0  0  0  0  0  0  0  0  0
   -0.8117   11.2823   -1.1414 H   0  0  0  0  0  0  0  0  0  0  0  0
   -0.0682   10.6265   -2.6393 H   0  0  0  0  0  0  0  0  0  0  0  0
   -1.7917   11.1325   -2.6393 H   0  0  0  0  0  0  0  0  0  0  0  0
   -6.8118    8.7023   -2.1355 H   0  0  0  0  0  0  0  0  0  0  0  0
   -6.8725    7.6184   -4.2928 H   0  0  0  0  0  0  0  0  0  0  0  0
   -6.3364    6.0662   -3.6143 H   0  0  0  0  0  0  0  0  0  0  0  0
   -9.0089    6.7011   -4.3997 H   0  0  0  0  0  0  0  0  0  0  0  0
   -8.5764    5.3209   -3.3940 H   0  0  0  0  0  0  0  0  0  0  0  0
   -9.6557    9.2301   -1.9110 H   0  0  0  0  0  0  0  0  0  0  0  0
   -8.6621    8.9421   -3.3795 H   0  0  0  0  0  0  0  0  0  0  0  0
  -10.4081    8.5202   -3.3795 H   0  0  0  0  0  0  0  0  0  0  0  0
  -10.0271    5.4021   -1.4557 H   0  0  0  0  0  0  0  0  0  0  0  0
  -11.2360    6.1981   -3.5863 H   0  0  0  0  0  0  0  0  0  0  0  0
  -12.1599    5.4026   -2.2065 H   0  0  0  0  0  0  0  0  0  0  0  0
  -13.3112    7.4888   -3.3293 H   0  0  0  0  0  0  0  0  0  0  0  0
  -10.9687    9.0982   -0.4605 H   0  0  0  0  0  0  0  0  0  0  0  0
  -13.2582    7.7427    1.0925 H   0  0  0  0  0  0  0  0  0  0  0  0
  -11.8462    8.6493    1.7964 H   0  0  0  0  0  0  0  0  0  0  0  0
  -13.9201    9.9969    1.7997 H   0  0  0  0  0  0  0  0  0  0  0  0
  -12.6164   10.7079    0.7691 H   0  0  0  0  0  0  0  0  0  0  0  0
  -14.7072   10.8915   -0.3961 H   0  0  0  0  0  0  0  0  0  0  0  0
  -16.0830    9.1900   -0.5920 H   0  0  0  0  0  0  0  0  0  0  0  0
  -12.3122   11.3231   -1.1220 H   0  0  0  0  0  0  0  0  0  0  0  0
  -11.8021   10.4952   -2.6323 H   0  0  0  0  0  0  0  0  0  0  0  0
  -13.2586   11.5466   -2.6323 H   0  0  0  0  0  0  0  0  0  0  0  0
  -15.6196    9.4049   -2.3166 H   0  0  0  0  0  0  0  0  0  0  0  0
  -14.6036   10.4101   -3.4048 H   0  0  0  0  0  0  0  0  0  0  0  0
  -14.4234    8.6228   -3.4048 H   0  0  0  0  0  0  0  0  0  0  0  0
  -11.5146    5.9958    1.6039 H   0  0  0  0  0  0  0  0  0  0  0  0
  -12.6640    5.9197    0.2256 H   0  0  0  0  0  0  0  0  0  0  0  0
  -11.1922    4.8899    0.2256 H   0  0  0  0  0  0  0  0  0  0  0  0
   -9.8891    8.0471    1.4620 H   0  0  0  0  0  0  0  0  0  0  0  0
   -9.2433    6.3481    1.0993 H   0  0  0  0  0  0  0  0  0  0  0  0
   -8.5387    8.9346   -0.3140 H   0  0  0  0  0  0  0  0  0  0  0  0
   -7.4812    7.8802    0.7044 H   0  0  0  0  0  0  0  0  0  0  0  0
   -7.5718    5.6070    0.3557 H   0  0  0  0  0  0  0  0  0  0  0  0
   -8.3187    4.9111   -1.1223 H   0  0  0  0  0  0  0  0  0  0  0  0
   -6.5803    5.3635   -1.1223 H   0  0  0  0  0  0  0  0  0  0  0  0
  1  2  1  0
  2  3  1  0
  3  4  1  0
  4  5  1  0
  5  6  1  0
  6  7  1  0
  7  8  1  0
  7  9  1  0
  2 10  1  0
 10 11  1  0
 11 12  1  0
 12 13  1  0
 13 14  1  6
 13 15  1  0
 15 16  1  0
 16 17  1  0
 17 18  2  0
 18 19  1  0
 19 20  1  0
 20 21  1  0
 21 22  1  0
 22 23  1  0
 22 24  1  0
 24 25  1  0
 24 26  1  0
 19 27  1  0
 27 28  1  1
 27 29  1  0
 29 30  1  0
 30 31  1  0
 31 32  1  1
  7  5  1  0
 31 10  1  0
 31 13  1  0
 27 15  1  0
 24 18  1  0
  1 33  1  0
  1 34  1  0
  1 35  1  0
  2 36  1  1
  3 37  1  0
  3 38  1  0
  4 39  1  0
  4 40  1  0
  5 41  1  6
  8 42  1  0
  8 43  1  0
  8 44  1  0
  9 45  1  0
  9 46  1  0
  9 47  1  0
 10 48  1  6
 11 49  1  0
 11 50  1  0
 12 51  1  0
 12 52  1  0
 14 53  1  0
 14 54  1  0
 14 55  1  0
 15 56  1  1
 16 57  1  0
 16 58  1  0
 17 59  1  0
 19 60  1  6
 20 61  1  0
 20 62  1  0
 21 63  1  0
 21 64  1  0
 22 65  1  6
 23 66  1  0
 25 67  1  0
 25 68  1  0
 25 69  1  0
 26 70  1  0
 26 71  1  0
 26 72  1  0
 28 73  1  0
 28 74  1  0
 28 75  1  0
 29 76  1  0
 29 77  1  0
 30 78  1  0
 30 79  1  0
 32 80  1  0
 32 81  1  0
 32 82  1  0
M  END
>  <meeko>  (2) 
{"is_sidechain": [false], "intermolecular_energy": 2.731, "internal_energy": -0.839}

$$$$
EPH_relaxed_0001_pdb2pqr_Repair_252_r2_0001_out
     RDKit          3D

 82 86  0  0  0  0  0  0  0  0999 V2000
   -2.4400    7.7370   -0.0320 C   0  0  0  0  0  0  0  0  0  0  0  0
   -3.1290    9.1020   -0.1030 C   0  0  2  0  0  0  0  0  0  0  0  0
   -4.5890    8.9910   -0.5860 C   0  0  0  0  0  0  0  0  0  0  0  0
   -5.0800    7.5490   -0.7350 C   0  0  0  0  0  0  0  0  0  0  0  0
   -5.9400    7.3780   -1.9500 C   0  0  2  0  0  0  0  0  0  0  0  0
   -6.8830    8.4360   -2.1700 O   0  0  0  0  0  0  0  0  0  0  0  0
   -7.4370    7.1400   -1.8900 C   0  0  0  0  0  0  0  0  0  0  0  0
   -8.1620    7.0580   -0.5830 C   0  0  0  0  0  0  0  0  0  0  0  0
   -8.1090    6.5050   -3.0670 C   0  0  0  0  0  0  0  0  0  0  0  0
   -2.3460   10.0330   -1.0210 C   0  0  1  0  0  0  0  0  0  0  0  0
   -2.9750   11.4490   -1.1140 C   0  0  0  0  0  0  0  0  0  0  0  0
   -1.8010   12.4520   -1.2490 C   0  0  0  0  0  0  0  0  0  0  0  0
   -0.5690   11.5710   -1.5630 C   0  0  1  0  0  0  0  0  0  0  0  0
   -0.6630   11.2800   -3.0930 C   0  0  0  0  0  0  0  0  0  0  0  0
    0.8230   12.1650   -1.1720 C   0  0  2  0  0  0  0  0  0  0  0  0
    1.2050   13.4650   -1.9020 C   0  0  0  0  0  0  0  0  0  0  0  0
    1.9560   13.2810   -3.1800 C   0  0  0  0  0  0  0  0  0  0  0  0
    2.5560   12.1450   -3.5780 C   0  0  0  0  0  0  0  0  0  0  0  0
    2.5990   10.9140   -2.6630 C   0  0  1  0  0  0  0  0  0  0  0  0
    4.0360   10.3290   -2.6480 C   0  0  0  0  0  0  0  0  0  0  0  0
    4.5610   10.0320   -4.0500 C   0  0  0  0  0  0  0  0  0  0  0  0
    4.5580   11.2920   -4.9110 C   0  0  2  0  0  0  0  0  0  0  0  0
    5.5150   12.2150   -4.3830 O   0  0  0  0  0  0  0  0  0  0  0  0
    3.1640   11.9760   -4.9920 C   0  0  0  0  0  0  0  0  0  0  0  0
    2.2030   11.0990   -5.8330 C   0  0  0  0  0  0  0  0  0  0  0  0
    3.3300   13.3080   -5.7720 C   0  0  0  0  0  0  0  0  0  0  0  0
    2.0070   11.1160   -1.2020 C   0  0  1  0  0  0  0  0  0  0  0  0
    3.1140   11.6670   -0.2510 C   0  0  0  0  0  0  0  0  0  0  0  0
    1.5800    9.7160   -0.6220 C   0  0  0  0  0  0  0  0  0  0  0  0
    0.1510    9.2370   -0.9430 C   0  0  0  0  0  0  0  0  0  0  0  0
   -0.8750   10.3340   -0.6410 C   0  0  2  0  0  0  0  0  0  0  0  0
   -0.8190   10.6320    0.8960 C   0  0  0  0  0  0  0  0  0  0  0  0
   -2.2966    7.4530    1.0210 H   0  0  0  0  0  0  0  0  0  0  0  0
   -3.0659    6.9838   -0.5330 H   0  0  0  0  0  0  0  0  0  0  0  0
   -1.4623    7.7933   -0.5330 H   0  0  0  0  0  0  0  0  0  0  0  0
   -3.1489    9.5157    0.9161 H   0  0  0  0  0  0  0  0  0  0  0  0
   -5.2353    9.5045    0.1411 H   0  0  0  0  0  0  0  0  0  0  0  0
   -4.6330    9.4503   -1.5846 H   0  0  0  0  0  0  0  0  0  0  0  0
   -4.2087    6.8828   -0.8186 H   0  0  0  0  0  0  0  0  0  0  0  0
   -5.6840    7.2998    0.1499 H   0  0  0  0  0  0  0  0  0  0  0  0
   -5.1303    6.8523   -2.4773 H   0  0  0  0  0  0  0  0  0  0  0  0
   -7.4398    7.1397    0.2427 H   0  0  0  0  0  0  0  0  0  0  0  0
   -8.8904    7.8795   -0.5156 H   0  0  0  0  0  0  0  0  0  0  0  0
   -8.6886    6.0946   -0.5156 H   0  0  0  0  0  0  0  0  0  0  0  0
   -8.8664    5.7893   -2.7147 H   0  0  0  0  0  0  0  0  0  0  0  0
   -8.5941    7.2823   -3.6757 H   0  0  0  0  0  0  0  0  0  0  0  0
   -7.3604    5.9767   -3.6757 H   0  0  0  0  0  0  0  0  0  0  0  0
   -2.3823    9.4475   -1.9515 H   0  0  0  0  0  0  0  0  0  0  0  0
   -3.6322   11.5145   -1.9937 H   0  0  0  0  0  0  0  0  0  0  0  0
   -3.5831   11.6702   -0.2244 H   0  0  0  0  0  0  0  0  0  0  0  0
   -1.9893   13.1622   -2.0676 H   0  0  0  0  0  0  0  0  0  0  0  0
   -1.6614   13.0555   -0.3400 H   0  0  0  0  0  0  0  0  0  0  0  0
   -0.9977   10.2439   -3.2493 H   0  0  0  0  0  0  0  0  0  0  0  0
   -1.3835   11.9716   -3.5542 H   0  0  0  0  0  0  0  0  0  0  0  0
    0.3259   11.4194   -3.5542 H   0  0  0  0  0  0  0  0  0  0  0  0
    0.6728   12.4460   -0.1191 H   0  0  0  0  0  0  0  0  0  0  0  0
    0.2784   14.0130   -2.1280 H   0  0  0  0  0  0  0  0  0  0  0  0
    1.8827   14.0065   -1.2256 H   0  0  0  0  0  0  0  0  0  0  0  0
    2.0241   14.1485   -3.8529 H   0  0  0  0  0  0  0  0  0  0  0  0
    1.9039   10.1836   -3.1029 H   0  0  0  0  0  0  0  0  0  0  0  0
    4.7074   11.0551   -2.1664 H   0  0  0  0  0  0  0  0  0  0  0  0
    4.0042    9.3787   -2.0948 H   0  0  0  0  0  0  0  0  0  0  0  0
    5.5895    9.6490   -3.9758 H   0  0  0  0  0  0  0  0  0  0  0  0
    3.9053    9.2839   -4.5196 H   0  0  0  0  0  0  0  0  0  0  0  0
    4.8204   10.9903   -5.9358 H   0  0  0  0  0  0  0  0  0  0  0  0
    5.1020   12.6690   -3.6290 H   0  0  0  0  0  0  0  0  0  0  0  0
    1.5597   10.5119   -5.1611 H   0  0  0  0  0  0  0  0  0  0  0  0
    1.5780   11.7446   -6.4675 H   0  0  0  0  0  0  0  0  0  0  0  0
    2.7889   10.4178   -6.4675 H   0  0  0  0  0  0  0  0  0  0  0  0
    3.4336   14.1396   -5.0595 H   0  0  0  0  0  0  0  0  0  0  0  0
    4.2282   13.2530   -6.4046 H   0  0  0  0  0  0  0  0  0  0  0  0
    2.4457   13.4751   -6.4046 H   0  0  0  0  0  0  0  0  0  0  0  0
    2.8082   11.5148    0.7946 H   0  0  0  0  0  0  0  0  0  0  0  0
    4.0574   11.1333   -0.4385 H   0  0  0  0  0  0  0  0  0  0  0  0
    3.2570   12.7414   -0.4385 H   0  0  0  0  0  0  0  0  0  0  0  0
    2.2794    8.9647   -1.0175 H   0  0  0  0  0  0  0  0  0  0  0  0
    1.6037    9.8381    0.4709 H   0  0  0  0  0  0  0  0  0  0  0  0
    0.0912    8.9717   -2.0088 H   0  0  0  0  0  0  0  0  0  0  0  0
   -0.0753    8.3623   -0.3156 H   0  0  0  0  0  0  0  0  0  0  0  0
   -0.9938    9.7018    1.4565 H   0  0  0  0  0  0  0  0  0  0  0  0
    0.1708   11.0359    1.1554 H   0  0  0  0  0  0  0  0  0  0  0  0
   -1.5946   11.3676    1.1554 H   0  0  0  0  0  0  0  0  0  0  0  0
  1  2  1  0
  2  3  1  0
  3  4  1  0
  4  5  1  0
  5  6  1  0
  6  7  1  0
  7  8  1  0
  7  9  1  0
  2 10  1  0
 10 11  1  0
 11 12  1  0
 12 13  1  0
 13 14  1  6
 13 15  1  0
 15 16  1  0
 16 17  1  0
 17 18  2  0
 18 19  1  0
 19 20  1  0
 20 21  1  0
 21 22  1  0
 22 23  1  0
 22 24  1  0
 24 25  1  0
 24 26  1  0
 19 27  1  0
 27 28  1  1
 27 29  1  0
 29 30  1  0
 30 31  1  0
 31 32  1  1
  7  5  1  0
 31 10  1  0
 31 13  1  0
 27 15  1  0
 24 18  1  0
  1 33  1  0
  1 34  1  0
  1 35  1  0
  2 36  1  1
  3 37  1  0
  3 38  1  0
  4 39  1  0
  4 40  1  0
  5 41  1  6
  8 42  1  0
  8 43  1  0
  8 44  1  0
  9 45  1  0
  9 46  1  0
  9 47  1  0
 10 48  1  6
 11 49  1  0
 11 50  1  0
 12 51  1  0
 12 52  1  0
 14 53  1  0
 14 54  1  0
 14 55  1  0
 15 56  1  1
 16 57  1  0
 16 58  1  0
 17 59  1  0
 19 60  1  6
 20 61  1  0
 20 62  1  0
 21 63  1  0
 21 64  1  0
 22 65  1  6
 23 66  1  0
 25 67  1  0
 25 68  1  0
 25 69  1  0
 26 70  1  0
 26 71  1  0
 26 72  1  0
 28 73  1  0
 28 74  1  0
 28 75  1  0
 29 76  1  0
 29 77  1  0
 30 78  1  0
 30 79  1  0
 32 80  1  0
 32 81  1  0
 32 82  1  0
M  END
>  <meeko>  (3) 
{"is_sidechain": [false], "intermolecular_energy": 2.731, "internal_energy": -0.839}

$$$$
EPH_relaxed_0001_pdb2pqr_Repair_252_r2_0001_out
     RDKit          3D

 82 86  0  0  0  0  0  0  0  0999 V2000
   -4.7730    7.0320   -2.9030 C   0  0  0  0  0  0  0  0  0  0  0  0
   -5.1720    7.6590   -1.5650 C   0  0  2  0  0  0  0  0  0  0  0  0
   -6.6460    8.1130   -1.5530 C   0  0  0  0  0  0  0  0  0  0  0  0
   -7.6450    6.9550   -1.4890 C   0  0  0  0  0  0  0  0  0  0  0  0
   -8.4480    6.9840   -0.2240 C   0  0  2  0  0  0  0  0  0  0  0  0
   -9.4520    5.9650   -0.1280 O   0  0  0  0  0  0  0  0  0  0  0  0
   -9.9270    7.3200   -0.1790 C   0  0  0  0  0  0  0  0  0  0  0  0
  -10.6900    7.6510   -1.4240 C   0  0  0  0  0  0  0  0  0  0  0  0
  -10.5130    7.8030    1.1110 C   0  0  0  0  0  0  0  0  0  0  0  0
   -4.2610    8.8410   -1.2520 C   0  0  1  0  0  0  0  0  0  0  0  0
   -4.6940    9.6060    0.0270 C   0  0  0  0  0  0  0  0  0  0  0  0
   -3.3940   10.0960    0.7160 C   0  0  0  0  0  0  0  0  0  0  0  0
   -2.2880    9.8900   -0.3460 C   0  0  1  0  0  0  0  0  0  0  0  0
   -2.4040   11.1280   -1.2900 C   0  0  0  0  0  0  0  0  0  0  0  0
   -0.8330    9.7130    0.1970 C   0  0  2  0  0  0  0  0  0  0  0  0
   -0.2720   10.9210    0.9670 C   0  0  0  0  0  0  0  0  0  0  0  0
    0.4610   11.9220    0.1360 C   0  0  0  0  0  0  0  0  0  0  0  0
    0.9070   11.7220   -1.1180 C   0  0  0  0  0  0  0  0  0  0  0  0
    0.7740   10.3500   -1.7910 C   0  0  1  0  0  0  0  0  0  0  0  0
    2.1190    9.9720   -2.4660 C   0  0  0  0  0  0  0  0  0  0  0  0
    2.6140   11.0480   -3.4270 C   0  0  0  0  0  0  0  0  0  0  0  0
    2.7900   12.3830   -2.7070 C   0  0  2  0  0  0  0  0  0  0  0  0
    3.8570   12.2600   -1.7620 O   0  0  0  0  0  0  0  0  0  0  0  0
    1.5010   12.8610   -1.9810 C   0  0  0  0  0  0  0  0  0  0  0  0
    0.4400   13.2820   -3.0280 C   0  0  0  0  0  0  0  0  0  0  0  0
    1.8530   14.1440   -1.1800 C   0  0  0  0  0  0  0  0  0  0  0  0
    0.2000    9.1820   -0.8790 C   0  0  1  0  0  0  0  0  0  0  0  0
    1.3600    8.5060   -0.0860 C   0  0  0  0  0  0  0  0  0  0  0  0
   -0.4180    8.0650   -1.8010 C   0  0  0  0  0  0  0  0  0  0  0  0
   -1.8950    8.2360   -2.2050 C   0  0  0  0  0  0  0  0  0  0  0  0
   -2.7670    8.5350   -0.9820 C   0  0  2  0  0  0  0  0  0  0  0  0
   -2.6880    7.2970   -0.0240 C   0  0  0  0  0  0  0  0  0  0  0  0
   -4.1907    6.1169   -2.7200 H   0  0  0  0  0  0  0  0  0  0  0  0
   -5.6785    6.7820   -3.4753 H   0  0  0  0  0  0  0  0  0  0  0  0
   -4.1631    7.7464   -3.4753 H   0  0  0  0  0  0  0  0  0  0  0  0
   -5.0578    6.8861   -0.7906 H   0  0  0  0  0  0  0  0  0  0  0  0
   -6.8040    8.7571   -0.6754 H   0  0  0  0  0  0  0  0  0  0  0  0
   -6.8274    8.6426   -2.4999 H   0  0  0  0  0  0  0  0  0  0  0  0
   -8.3293    7.0269   -2.3472 H   0  0  0  0  0  0  0  0  0  0  0  0
   -7.0787    6.0123   -1.5138 H   0  0  0  0  0  0  0  0  0  0  0  0
   -7.5864    7.3687    0.3414 H   0  0  0  0  0  0  0  0  0  0  0  0
  -11.6680    8.0753   -1.1528 H   0  0  0  0  0  0  0  0  0  0  0  0
  -10.1238    8.3844   -2.0169 H   0  0  0  0  0  0  0  0  0  0  0  0
  -10.8387    6.7365   -2.0169 H   0  0  0  0  0  0  0  0  0  0  0  0
   -9.9669    7.3529    1.9531 H   0  0  0  0  0  0  0  0  0  0  0  0
  -10.4301    8.8986    1.1639 H   0  0  0  0  0  0  0  0  0  0  0  0
  -11.5726    7.5125    1.1639 H   0  0  0  0  0  0  0  0  0  0  0  0
   -4.3652    9.4078   -2.1890 H   0  0  0  0  0  0  0  0  0  0  0  0
   -5.3275   10.4644   -0.2411 H   0  0  0  0  0  0  0  0  0  0  0  0
   -5.2763    8.9570    0.6976 H   0  0  0  0  0  0  0  0  0  0  0  0
   -3.4763   11.1582    0.9900 H   0  0  0  0  0  0  0  0  0  0  0  0
   -3.1845    9.5502    1.6478 H   0  0  0  0  0  0  0  0  0  0  0  0
   -2.4897   12.0431   -0.6857 H   0  0  0  0  0  0  0  0  0  0  0  0
   -1.5078   11.1904   -1.9247 H   0  0  0  0  0  0  0  0  0  0  0  0
   -3.2962   11.0228   -1.9247 H   0  0  0  0  0  0  0  0  0  0  0  0
   -0.9553    8.9145    0.9436 H   0  0  0  0  0  0  0  0  0  0  0  0
   -1.1140   11.4347    1.4539 H   0  0  0  0  0  0  0  0  0  0  0  0
    0.4651   10.5150    1.6754 H   0  0  0  0  0  0  0  0  0  0  0  0
    0.6528   12.9067    0.5872 H   0  0  0  0  0  0  0  0  0  0  0  0
   -0.0095   10.4613   -2.5550 H   0  0  0  0  0  0  0  0  0  0  0  0
    2.8769    9.8230   -1.6828 H   0  0  0  0  0  0  0  0  0  0  0  0
    1.9535    9.0541   -3.0492 H   0  0  0  0  0  0  0  0  0  0  0  0
    3.5807   10.7365   -3.8493 H   0  0  0  0  0  0  0  0  0  0  0  0
    1.8686   11.1753   -4.2259 H   0  0  0  0  0  0  0  0  0  0  0  0
    3.0207   13.1417   -3.4694 H   0  0  0  0  0  0  0  0  0  0  0  0
    4.5080   11.6390   -2.1320 H   0  0  0  0  0  0  0  0  0  0  0  0
   -0.4628   13.6402   -2.5116 H   0  0  0  0  0  0  0  0  0  0  0  0
    0.8459   14.0872   -3.6580 H   0  0  0  0  0  0  0  0  0  0  0  0
    0.1834   12.4176   -3.6580 H   0  0  0  0  0  0  0  0  0  0  0  0
    1.7946   13.9311   -0.1024 H   0  0  0  0  0  0  0  0  0  0  0  0
    2.8730   14.4672   -1.4351 H   0  0  0  0  0  0  0  0  0  0  0  0
    1.1407   14.9425   -1.4351 H   0  0  0  0  0  0  0  0  0  0  0  0
    1.1771    8.6126    0.9934 H   0  0  0  0  0  0  0  0  0  0  0  0
    1.4084    7.4383   -0.3460 H   0  0  0  0  0  0  0  0  0  0  0  0
    2.3128    8.9903   -0.3460 H   0  0  0  0  0  0  0  0  0  0  0  0
    0.1777    8.0291   -2.7250 H   0  0  0  0  0  0  0  0  0  0  0  0
   -0.3893    7.1456   -1.1978 H   0  0  0  0  0  0  0  0  0  0  0  0
   -1.9787    9.0688   -2.9188 H   0  0  0  0  0  0  0  0  0  0  0  0
   -2.2438    7.2990   -2.6637 H   0  0  0  0  0  0  0  0  0  0  0  0
   -2.7099    7.6400    1.0209 H   0  0  0  0  0  0  0  0  0  0  0  0
   -3.5457    6.6339   -0.2103 H   0  0  0  0  0  0  0  0  0  0  0  0
   -1.7530    6.7483   -0.2103 H   0  0  0  0  0  0  0  0  0  0  0  0
  1  2  1  0
  2  3  1  0
  3  4  1  0
  4  5  1  0
  5  6  1  0
  6  7  1  0
  7  8  1  0
  7  9  1  0
  2 10  1  0
 10 11  1  0
 11 12  1  0
 12 13  1  0
 13 14  1  6
 13 15  1  0
 15 16  1  0
 16 17  1  0
 17 18  2  0
 18 19  1  0
 19 20  1  0
 20 21  1  0
 21 22  1  0
 22 23  1  0
 22 24  1  0
 24 25  1  0
 24 26  1  0
 19 27  1  0
 27 28  1  1
 27 29  1  0
 29 30  1  0
 30 31  1  0
 31 32  1  1
  7  5  1  0
 31 10  1  0
 31 13  1  0
 27 15  1  0
 24 18  1  0
  1 33  1  0
  1 34  1  0
  1 35  1  0
  2 36  1  1
  3 37  1  0
  3 38  1  0
  4 39  1  0
  4 40  1  0
  5 41  1  1
  8 42  1  0
  8 43  1  0
  8 44  1  0
  9 45  1  0
  9 46  1  0
  9 47  1  0
 10 48  1  6
 11 49  1  0
 11 50  1  0
 12 51  1  0
 12 52  1  0
 14 53  1  0
 14 54  1  0
 14 55  1  0
 15 56  1  1
 16 57  1  0
 16 58  1  0
 17 59  1  0
 19 60  1  6
 20 61  1  0
 20 62  1  0
 21 63  1  0
 21 64  1  0
 22 65  1  6
 23 66  1  0
 25 67  1  0
 25 68  1  0
 25 69  1  0
 26 70  1  0
 26 71  1  0
 26 72  1  0
 28 73  1  0
 28 74  1  0
 28 75  1  0
 29 76  1  0
 29 77  1  0
 30 78  1  0
 30 79  1  0
 32 80  1  0
 32 81  1  0
 32 82  1  0
M  END
>  <meeko>  (4) 
{"is_sidechain": [false], "intermolecular_energy": 2.731, "internal_energy": -0.839}

$$$$
EPH_relaxed_0001_pdb2pqr_Repair_252_r2_0001_out
     RDKit          3D

 82 86  0  0  0  0  0  0  0  0999 V2000
    0.2300   15.1470   -6.6090 C   0  0  0  0  0  0  0  0  0  0  0  0
    1.6290   14.6060   -6.3000 C   0  0  2  0  0  0  0  0  0  0  0  0
    2.5080   14.5130   -7.5630 C   0  0  0  0  0  0  0  0  0  0  0  0
    2.5890   15.8220   -8.3540 C   0  0  0  0  0  0  0  0  0  0  0  0
    2.5390   15.5800   -9.8320 C   0  0  2  0  0  0  0  0  0  0  0  0
    1.9680   16.6510  -10.5950 O   0  0  0  0  0  0  0  0  0  0  0  0
    1.2470   15.4090  -10.6090 C   0  0  0  0  0  0  0  0  0  0  0  0
   -0.0860   15.4710   -9.9300 C   0  0  0  0  0  0  0  0  0  0  0  0
    1.2920   14.7000  -11.9270 C   0  0  0  0  0  0  0  0  0  0  0  0
    1.5210   13.2370   -5.6390 C   0  0  1  0  0  0  0  0  0  0  0  0
    2.8330   12.4150   -5.7500 C   0  0  0  0  0  0  0  0  0  0  0  0
    2.9580   11.5920   -4.4420 C   0  0  0  0  0  0  0  0  0  0  0  0
    1.5670   11.7080   -3.7740 C   0  0  1  0  0  0  0  0  0  0  0  0
    0.6820   10.6500   -4.5040 C   0  0  0  0  0  0  0  0  0  0  0  0
    1.5280   11.5220   -2.2220 C   0  0  2  0  0  0  0  0  0  0  0  0
    1.9740   10.1380   -1.7200 C   0  0  0  0  0  0  0  0  0  0  0  0
    0.8850    9.1260   -1.5870 C   0  0  0  0  0  0  0  0  0  0  0  0
   -0.4350    9.3930   -1.5850 C   0  0  0  0  0  0  0  0  0  0  0  0
   -0.9460   10.8390   -1.6270 C   0  0  1  0  0  0  0  0  0  0  0  0
   -2.0600   11.0260   -0.5640 C   0  0  0  0  0  0  0  0  0  0  0  0
   -3.1840   10.0050   -0.7090 C   0  0  0  0  0  0  0  0  0  0  0  0
   -2.6450    8.5810   -0.6040 C   0  0  2  0  0  0  0  0  0  0  0  0
   -2.1680    8.3660    0.7280 O   0  0  0  0  0  0  0  0  0  0  0  0
   -1.5090    8.2790   -1.6210 C   0  0  0  0  0  0  0  0  0  0  0  0
   -2.0960    8.2150   -3.0530 C   0  0  0  0  0  0  0  0  0  0  0  0
   -0.9590    6.8600   -1.3140 C   0  0  0  0  0  0  0  0  0  0  0  0
    0.1680   11.9700   -1.5490 C   0  0  1  0  0  0  0  0  0  0  0  0
    0.4940   12.2950   -0.0590 C   0  0  0  0  0  0  0  0  0  0  0  0
   -0.4020   13.2970   -2.1780 C   0  0  0  0  0  0  0  0  0  0  0  0
   -0.2260   13.4760   -3.6980 C   0  0  0  0  0  0  0  0  0  0  0  0
    1.2210   13.2020   -4.1190 C   0  0  2  0  0  0  0  0  0  0  0  0
    2.1330   14.2660   -3.4180 C   0  0  0  0  0  0  0  0  0  0  0  0
   -0.3001   15.3520   -5.6672 H   0  0  0  0  0  0  0  0  0  0  0  0
    0.3166   16.0765   -7.1909 H   0  0  0  0  0  0  0  0  0  0  0  0
   -0.3313   14.4011   -7.1909 H   0  0  0  0  0  0  0  0  0  0  0  0
    2.1139   15.3146   -5.6124 H   0  0  0  0  0  0  0  0  0  0  0  0
    3.5257   14.2281   -7.2577 H   0  0  0  0  0  0  0  0  0  0  0  0
    2.0437   13.7661   -8.2237 H   0  0  0  0  0  0  0  0  0  0  0  0
    1.7424   16.4638   -8.0689 H   0  0  0  0  0  0  0  0  0  0  0  0
    3.5478   16.3067   -8.1180 H   0  0  0  0  0  0  0  0  0  0  0  0
    3.4588   14.9782   -9.7881 H   0  0  0  0  0  0  0  0  0  0  0  0
    0.0574   15.4643   -8.8394 H   0  0  0  0  0  0  0  0  0  0  0  0
   -0.6056   16.3943  -10.2259 H   0  0  0  0  0  0  0  0  0  0  0  0
   -0.6891   14.5999  -10.2259 H   0  0  0  0  0  0  0  0  0  0  0  0
    1.3608   13.6153  -11.7577 H   0  0  0  0  0  0  0  0  0  0  0  0
    0.3778   14.9250  -12.4958 H   0  0  0  0  0  0  0  0  0  0  0  0
    2.1704   15.0388  -12.4958 H   0  0  0  0  0  0  0  0  0  0  0  0
    0.6679   12.8284   -6.2005 H   0  0  0  0  0  0  0  0  0  0  0  0
    2.7855   11.7413   -6.6182 H   0  0  0  0  0  0  0  0  0  0  0  0
    3.7022   13.0754   -5.8854 H   0  0  0  0  0  0  0  0  0  0  0  0
    3.1952   10.5414   -4.6653 H   0  0  0  0  0  0  0  0  0  0  0  0
    3.7651   11.9611   -3.7922 H   0  0  0  0  0  0  0  0  0  0  0  0
    0.1628   10.0293   -3.7589 H   0  0  0  0  0  0  0  0  0  0  0  0
   -0.0592   11.1637   -5.1338 H   0  0  0  0  0  0  0  0  0  0  0  0
    1.3186   10.0112   -5.1338 H   0  0  0  0  0  0  0  0  0  0  0  0
    2.3000   12.2272   -1.8806 H   0  0  0  0  0  0  0  0  0  0  0  0
    2.7193    9.7442   -2.4267 H   0  0  0  0  0  0  0  0  0  0  0  0
    2.3685   10.2953   -0.7053 H   0  0  0  0  0  0  0  0  0  0  0  0
    1.1860    8.0732   -1.4817 H   0  0  0  0  0  0  0  0  0  0  0  0
   -1.3635   10.9849   -2.6342 H   0  0  0  0  0  0  0  0  0  0  0  0
   -1.6144   10.9203    0.4361 H   0  0  0  0  0  0  0  0  0  0  0  0
   -2.4959   12.0254   -0.7093 H   0  0  0  0  0  0  0  0  0  0  0  0
   -3.9244   10.1692    0.0878 H   0  0  0  0  0  0  0  0  0  0  0  0
   -3.6483   10.1324   -1.6980 H   0  0  0  0  0  0  0  0  0  0  0  0
   -3.4717    7.8967   -0.8455 H   0  0  0  0  0  0  0  0  0  0  0  0
   -1.4650    9.0160    0.8970 H   0  0  0  0  0  0  0  0  0  0  0  0
   -3.1881    8.0959   -2.9966 H   0  0  0  0  0  0  0  0  0  0  0  0
   -1.8557    9.1447   -3.5897 H   0  0  0  0  0  0  0  0  0  0  0  0
   -1.6610    7.3590   -3.5897 H   0  0  0  0  0  0  0  0  0  0  0  0
   -0.9032    6.7161   -0.2249 H   0  0  0  0  0  0  0  0  0  0  0  0
   -1.6295    6.1047   -1.7498 H   0  0  0  0  0  0  0  0  0  0  0  0
    0.0454    6.7538   -1.7498 H   0  0  0  0  0  0  0  0  0  0  0  0
   -0.1311   11.6718    0.5975 H   0  0  0  0  0  0  0  0  0  0  0  0
    1.5556   12.0851    0.1383 H   0  0  0  0  0  0  0  0  0  0  0  0
    0.2874   13.3573    0.1383 H   0  0  0  0  0  0  0  0  0  0  0  0
   -1.4799   13.3319   -1.9613 H   0  0  0  0  0  0  0  0  0  0  0  0
    0.1859   14.1075   -1.7225 H   0  0  0  0  0  0  0  0  0  0  0  0
   -0.8921   12.7750   -4.2223 H   0  0  0  0  0  0  0  0  0  0  0  0
   -0.4765   14.5146   -3.9599 H   0  0  0  0  0  0  0  0  0  0  0  0
    2.0445   14.1627   -2.3264 H   0  0  0  0  0  0  0  0  0  0  0  0
    3.1793   14.1066   -3.7177 H   0  0  0  0  0  0  0  0  0  0  0  0
    1.8155   15.2756   -3.7177 H   0  0  0  0  0  0  0  0  0  0  0  0
  1  2  1  0
  2  3  1  0
  3  4  1  0
  4  5  1  0
  5  6  1  0
  6  7  1  0
  7  8  1  0
  7  9  1  0
  2 10  1  0
 10 11  1  0
 11 12  1  0
 12 13  1  0
 13 14  1  6
 13 15  1  0
 15 16  1  0
 16 17  1  0
 17 18  2  0
 18 19  1  0
 19 20  1  0
 20 21  1  0
 21 22  1  0
 22 23  1  0
 22 24  1  0
 24 25  1  0
 24 26  1  0
 19 27  1  0
 27 28  1  1
 27 29  1  0
 29 30  1  0
 30 31  1  0
 31 32  1  1
  7  5  1  0
 31 10  1  0
 31 13  1  0
 27 15  1  0
 24 18  1  0
  1 33  1  0
  1 34  1  0
  1 35  1  0
  2 36  1  1
  3 37  1  0
  3 38  1  0
  4 39  1  0
  4 40  1  0
  5 41  1  6
  8 42  1  0
  8 43  1  0
  8 44  1  0
  9 45  1  0
  9 46  1  0
  9 47  1  0
 10 48  1  6
 11 49  1  0
 11 50  1  0
 12 51  1  0
 12 52  1  0
 14 53  1  0
 14 54  1  0
 14 55  1  0
 15 56  1  1
 16 57  1  0
 16 58  1  0
 17 59  1  0
 19 60  1  6
 20 61  1  0
 20 62  1  0
 21 63  1  0
 21 64  1  0
 22 65  1  6
 23 66  1  0
 25 67  1  0
 25 68  1  0
 25 69  1  0
 26 70  1  0
 26 71  1  0
 26 72  1  0
 28 73  1  0
 28 74  1  0
 28 75  1  0
 29 76  1  0
 29 77  1  0
 30 78  1  0
 30 79  1  0
 32 80  1  0
 32 81  1  0
 32 82  1  0
M  END
>  <meeko>  (5) 
{"is_sidechain": [false], "intermolecular_energy": 2.731, "internal_energy": -0.839}

$$$$
EPH_relaxed_0001_pdb2pqr_Repair_252_r2_0001_out
     RDKit          3D

 82 86  0  0  0  0  0  0  0  0999 V2000
  -15.1760    8.9990    0.6920 C   0  0  0  0  0  0  0  0  0  0  0  0
  -14.2970    9.1930   -0.5470 C   0  0  2  0  0  0  0  0  0  0  0  0
  -14.6620    8.2100   -1.6770 C   0  0  0  0  0  0  0  0  0  0  0  0
  -14.7170    8.8590   -3.0630 C   0  0  0  0  0  0  0  0  0  0  0  0
  -15.2870   10.2440   -3.0050 C   0  0  2  0  0  0  0  0  0  0  0  0
  -14.9330   11.0840   -4.1120 O   0  0  0  0  0  0  0  0  0  0  0  0
  -14.4410   11.4900   -2.8240 C   0  0  0  0  0  0  0  0  0  0  0  0
  -12.9520   11.4100   -2.6890 C   0  0  0  0  0  0  0  0  0  0  0  0
  -15.0940   12.7270   -2.2920 C   0  0  0  0  0  0  0  0  0  0  0  0
  -12.8280    9.0340   -0.1720 C   0  0  1  0  0  0  0  0  0  0  0  0
  -12.6030    9.0060    1.3630 C   0  0  0  0  0  0  0  0  0  0  0  0
  -11.4290    8.0280    1.6250 C   0  0  0  0  0  0  0  0  0  0  0  0
  -10.8060    7.7840    0.2310 C   0  0  1  0  0  0  0  0  0  0  0  0
   -9.8860    9.0190   -0.0190 C   0  0  0  0  0  0  0  0  0  0  0  0
  -10.0300    6.4390    0.0470 C   0  0  2  0  0  0  0  0  0  0  0  0
   -8.7940    6.2710    0.9480 C   0  0  0  0  0  0  0  0  0  0  0  0
   -7.5100    6.7660    0.3690 C   0  0  0  0  0  0  0  0  0  0  0  0
   -7.2990    7.0620   -0.9270 C   0  0  0  0  0  0  0  0  0  0  0  0
   -8.3870    6.8120   -1.9790 C   0  0  1  0  0  0  0  0  0  0  0  0
   -7.7630    6.1080   -3.2120 C   0  0  0  0  0  0  0  0  0  0  0  0
   -6.5680    6.8690   -3.7780 C   0  0  0  0  0  0  0  0  0  0  0  0
   -5.4830    7.0470   -2.7190 C   0  0  2  0  0  0  0  0  0  0  0  0
   -4.9400    5.7630   -2.3960 O   0  0  0  0  0  0  0  0  0  0  0  0
   -5.9980    7.7370   -1.4250 C   0  0  0  0  0  0  0  0  0  0  0  0
   -6.3050    9.2270   -1.7170 C   0  0  0  0  0  0  0  0  0  0  0  0
   -4.8430    7.7270   -0.3870 C   0  0  0  0  0  0  0  0  0  0  0  0
   -9.7000    6.0820   -1.4590 C   0  0  1  0  0  0  0  0  0  0  0  0
   -9.5080    4.5360   -1.5180 C   0  0  0  0  0  0  0  0  0  0  0  0
  -10.8940    6.4180   -2.4290 C   0  0  0  0  0  0  0  0  0  0  0  0
  -11.6970    7.6970   -2.1240 C   0  0  0  0  0  0  0  0  0  0  0  0
  -12.1080    7.7480   -0.6490 C   0  0  2  0  0  0  0  0  0  0  0  0
  -13.0530    6.5290   -0.3740 C   0  0  0  0  0  0  0  0  0  0  0  0
  -14.5671    9.1334    1.5982 H   0  0  0  0  0  0  0  0  0  0  0  0
  -15.9897    9.7392    0.6839 H   0  0  0  0  0  0  0  0  0  0  0  0
  -15.6025    7.9851    0.6839 H   0  0  0  0  0  0  0  0  0  0  0  0
  -14.4761   10.2106   -0.9242 H   0  0  0  0  0  0  0  0  0  0  0  0
  -13.9079    7.4094   -1.6980 H   0  0  0  0  0  0  0  0  0  0  0  0
  -15.6711    7.8301   -1.4594 H   0  0  0  0  0  0  0  0  0  0  0  0
  -13.6977    8.9100   -3.4733 H   0  0  0  0  0  0  0  0  0  0  0  0
  -15.3695    8.2464   -3.7025 H   0  0  0  0  0  0  0  0  0  0  0  0
  -16.1831    9.8786   -2.4821 H   0  0  0  0  0  0  0  0  0  0  0  0
  -12.6807   11.3954   -1.6231 H   0  0  0  0  0  0  0  0  0  0  0  0
  -12.5888   10.4910   -3.1724 H   0  0  0  0  0  0  0  0  0  0  0  0
  -12.4925   12.2848   -3.1724 H   0  0  0  0  0  0  0  0  0  0  0  0
  -15.0819   12.7040   -1.1923 H   0  0  0  0  0  0  0  0  0  0  0  0
  -14.5458   13.6124   -2.6463 H   0  0  0  0  0  0  0  0  0  0  0  0
  -16.1343   12.7738   -2.6463 H   0  0  0  0  0  0  0  0  0  0  0  0
  -12.4102    9.9122   -0.6860 H   0  0  0  0  0  0  0  0  0  0  0  0
  -12.3464   10.0119    1.7267 H   0  0  0  0  0  0  0  0  0  0  0  0
  -13.5125    8.6815    1.8897 H   0  0  0  0  0  0  0  0  0  0  0  0
  -10.6923    8.4792    2.3060 H   0  0  0  0  0  0  0  0  0  0  0  0
  -11.7623    7.0946    2.1021 H   0  0  0  0  0  0  0  0  0  0  0  0
   -9.5705    9.4425    0.9459 H   0  0  0  0  0  0  0  0  0  0  0  0
   -8.9992    8.7061   -0.5896 H   0  0  0  0  0  0  0  0  0  0  0  0
  -10.4397    9.7792   -0.5896 H   0  0  0  0  0  0  0  0  0  0  0  0
  -10.7599    5.6951    0.3988 H   0  0  0  0  0  0  0  0  0  0  0  0
   -8.9785    6.8192    1.8836 H   0  0  0  0  0  0  0  0  0  0  0  0
   -8.6660    5.1877    1.0897 H   0  0  0  0  0  0  0  0  0  0  0  0
   -6.6648    6.9002    1.0601 H   0  0  0  0  0  0  0  0  0  0  0  0
   -8.7649    7.8041   -2.2672 H   0  0  0  0  0  0  0  0  0  0  0  0
   -7.4314    5.1025   -2.9135 H   0  0  0  0  0  0  0  0  0  0  0  0
   -8.5329    6.0644   -3.9965 H   0  0  0  0  0  0  0  0  0  0  0  0
   -6.1530    6.3070   -4.6276 H   0  0  0  0  0  0  0  0  0  0  0  0
   -6.9073    7.8634   -4.1035 H   0  0  0  0  0  0  0  0  0  0  0  0
   -4.7133    7.7090   -3.1424 H   0  0  0  0  0  0  0  0  0  0  0  0
   -5.4900    5.0920   -2.8340 H   0  0  0  0  0  0  0  0  0  0  0  0
   -6.4171    9.7712   -0.7676 H   0  0  0  0  0  0  0  0  0  0  0  0
   -5.4783    9.6652   -2.2954 H   0  0  0  0  0  0  0  0  0  0  0  0
   -7.2376    9.3027   -2.2954 H   0  0  0  0  0  0  0  0  0  0  0  0
   -5.2635    7.7306    0.6295 H   0  0  0  0  0  0  0  0  0  0  0  0
   -4.2315    6.8235   -0.5276 H   0  0  0  0  0  0  0  0  0  0  0  0
   -4.2159    8.6197   -0.5276 H   0  0  0  0  0  0  0  0  0  0  0  0
   -9.4580    4.1334   -0.4955 H   0  0  0  0  0  0  0  0  0  0  0  0
  -10.3566    4.0812   -2.0501 H   0  0  0  0  0  0  0  0  0  0  0  0
   -8.5740    4.3026   -2.0501 H   0  0  0  0  0  0  0  0  0  0  0  0
  -10.4807    6.5184   -3.4434 H   0  0  0  0  0  0  0  0  0  0  0  0
  -11.6091    5.5918   -2.3027 H   0  0  0  0  0  0  0  0  0  0  0  0
  -11.0763    8.5752   -2.3551 H   0  0  0  0  0  0  0  0  0  0  0  0
  -12.6071    7.6953   -2.7418 H   0  0  0  0  0  0  0  0  0  0  0  0
  -13.1626    6.3876    0.7113 H   0  0  0  0  0  0  0  0  0  0  0  0
  -14.0398    6.7221   -0.8201 H   0  0  0  0  0  0  0  0  0  0  0  0
  -12.6201    5.6215   -0.8201 H   0  0  0  0  0  0  0  0  0  0  0  0
  1  2  1  0
  2  3  1  0
  3  4  1  0
  4  5  1  0
  5  6  1  0
  6  7  1  0
  7  8  1  0
  7  9  1  0
  2 10  1  0
 10 11  1  0
 11 12  1  0
 12 13  1  0
 13 14  1  6
 13 15  1  0
 15 16  1  0
 16 17  1  0
 17 18  2  0
 18 19  1  0
 19 20  1  0
 20 21  1  0
 21 22  1  0
 22 23  1  0
 22 24  1  0
 24 25  1  0
 24 26  1  0
 19 27  1  0
 27 28  1  1
 27 29  1  0
 29 30  1  0
 30 31  1  0
 31 32  1  1
  7  5  1  0
 31 10  1  0
 31 13  1  0
 27 15  1  0
 24 18  1  0
  1 33  1  0
  1 34  1  0
  1 35  1  0
  2 36  1  6
  3 37  1  0
  3 38  1  0
  4 39  1  0
  4 40  1  0
  5 41  1  1
  8 42  1  0
  8 43  1  0
  8 44  1  0
  9 45  1  0
  9 46  1  0
  9 47  1  0
 10 48  1  6
 11 49  1  0
 11 50  1  0
 12 51  1  0
 12 52  1  0
 14 53  1  0
 14 54  1  0
 14 55  1  0
 15 56  1  1
 16 57  1  0
 16 58  1  0
 17 59  1  0
 19 60  1  6
 20 61  1  0
 20 62  1  0
 21 63  1  0
 21 64  1  0
 22 65  1  6
 23 66  1  0
 25 67  1  0
 25 68  1  0
 25 69  1  0
 26 70  1  0
 26 71  1  0
 26 72  1  0
 28 73  1  0
 28 74  1  0
 28 75  1  0
 29 76  1  0
 29 77  1  0
 30 78  1  0
 30 79  1  0
 32 80  1  0
 32 81  1  0
 32 82  1  0
M  END
>  <meeko>  (6) 
{"is_sidechain": [false], "intermolecular_energy": 2.731, "internal_energy": -0.839}

$$$$
EPH_relaxed_0001_pdb2pqr_Repair_252_r2_0001_out
     RDKit          3D

 82 86  0  0  0  0  0  0  0  0999 V2000
    1.5740   14.0850   -2.6830 C   0  0  0  0  0  0  0  0  0  0  0  0
    1.5510   13.4170   -4.0600 C   0  0  2  0  0  0  0  0  0  0  0  0
    0.7600   14.2440   -5.0930 C   0  0  0  0  0  0  0  0  0  0  0  0
    1.3780   14.2330   -6.4940 C   0  0  0  0  0  0  0  0  0  0  0  0
    1.0250   15.4690   -7.2660 C   0  0  2  0  0  0  0  0  0  0  0  0
    0.3740   15.2260   -8.5200 O   0  0  0  0  0  0  0  0  0  0  0  0
    1.6700   15.8430   -8.5870 C   0  0  0  0  0  0  0  0  0  0  0  0
    2.7220   14.9820   -9.2130 C   0  0  0  0  0  0  0  0  0  0  0  0
    1.6340   17.2750   -9.0200 C   0  0  0  0  0  0  0  0  0  0  0  0
    0.9590   12.0170   -3.9500 C   0  0  1  0  0  0  0  0  0  0  0  0
    2.0160   10.9020   -4.1720 C   0  0  0  0  0  0  0  0  0  0  0  0
    1.6290    9.7270   -3.2380 C   0  0  0  0  0  0  0  0  0  0  0  0
    0.1960   10.0620   -2.7620 C   0  0  1  0  0  0  0  0  0  0  0  0
   -0.7320    9.6040   -3.9310 C   0  0  0  0  0  0  0  0  0  0  0  0
   -0.2420    9.4370   -1.3980 C   0  0  2  0  0  0  0  0  0  0  0  0
   -0.2810    7.8990   -1.3670 C   0  0  0  0  0  0  0  0  0  0  0  0
   -1.5880    7.2860   -1.7480 C   0  0  0  0  0  0  0  0  0  0  0  0
   -2.7640    7.9360   -1.8240 C   0  0  0  0  0  0  0  0  0  0  0  0
   -2.8770    9.4110   -1.4160 C   0  0  1  0  0  0  0  0  0  0  0  0
   -4.1230    9.6040   -0.5130 C   0  0  0  0  0  0  0  0  0  0  0  0
   -5.4010    9.0780   -1.1590 C   0  0  0  0  0  0  0  0  0  0  0  0
   -5.2710    7.5950   -1.4970 C   0  0  2  0  0  0  0  0  0  0  0  0
   -5.1810    6.8510   -0.2790 O   0  0  0  0  0  0  0  0  0  0  0  0
   -4.0430    7.2770   -2.3960 C   0  0  0  0  0  0  0  0  0  0  0  0
   -4.2830    7.8350   -3.8210 C   0  0  0  0  0  0  0  0  0  0  0  0
   -3.9470    5.7350   -2.5450 C   0  0  0  0  0  0  0  0  0  0  0  0
   -1.5660   10.0600   -0.7950 C   0  0  1  0  0  0  0  0  0  0  0  0
   -1.5210    9.8010    0.7420 C   0  0  0  0  0  0  0  0  0  0  0  0
   -1.6290   11.6230   -0.9800 C   0  0  0  0  0  0  0  0  0  0  0  0
   -1.0710   12.1890   -2.2990 C   0  0  0  0  0  0  0  0  0  0  0  0
    0.3200   11.6200   -2.5960 C   0  0  2  0  0  0  0  0  0  0  0  0
    1.2810   12.0830   -1.4480 C   0  0  0  0  0  0  0  0  0  0  0  0
    1.5474   13.3126   -1.9003 H   0  0  0  0  0  0  0  0  0  0  0  0
    2.4932   14.6803   -2.5796 H   0  0  0  0  0  0  0  0  0  0  0  0
    0.6979   14.7421   -2.5796 H   0  0  0  0  0  0  0  0  0  0  0  0
    2.5906   13.3534   -4.4138 H   0  0  0  0  0  0  0  0  0  0  0  0
   -0.2585   13.8340   -5.1595 H   0  0  0  0  0  0  0  0  0  0  0  0
    0.7706   15.2875   -4.7453 H   0  0  0  0  0  0  0  0  0  0  0  0
    2.4723   14.1716   -6.4004 H   0  0  0  0  0  0  0  0  0  0  0  0
    0.9793   13.3638   -7.0376 H   0  0  0  0  0  0  0  0  0  0  0  0
    0.8688   16.0341   -6.3353 H   0  0  0  0  0  0  0  0  0  0  0  0
    3.3154   14.4963   -8.4244 H   0  0  0  0  0  0  0  0  0  0  0  0
    2.2430   14.2134   -9.8374 H   0  0  0  0  0  0  0  0  0  0  0  0
    3.3807   15.6035   -9.8374 H   0  0  0  0  0  0  0  0  0  0  0  0
    1.6176   17.9259   -8.1334 H   0  0  0  0  0  0  0  0  0  0  0  0
    2.5268   17.4985   -9.6225 H   0  0  0  0  0  0  0  0  0  0  0  0
    0.7311   17.4533   -9.6225 H   0  0  0  0  0  0  0  0  0  0  0  0
    0.1838   12.0830   -4.7277 H   0  0  0  0  0  0  0  0  0  0  0  0
    2.0037   10.5718   -5.2212 H   0  0  0  0  0  0  0  0  0  0  0  0
    3.0290   11.2676   -3.9480 H   0  0  0  0  0  0  0  0  0  0  0  0
    1.6429    8.7739   -3.7870 H   0  0  0  0  0  0  0  0  0  0  0  0
    2.3310    9.6127   -2.3989 H   0  0  0  0  0  0  0  0  0  0  0  0
   -1.6463    9.1528   -3.5181 H   0  0  0  0  0  0  0  0  0  0  0  0
   -0.9993   10.4737   -4.5493 H   0  0  0  0  0  0  0  0  0  0  0  0
   -0.2043    8.8629   -4.5493 H   0  0  0  0  0  0  0  0  0  0  0  0
    0.5819    9.7287   -0.7301 H   0  0  0  0  0  0  0  0  0  0  0  0
    0.4851    7.5256   -2.0625 H   0  0  0  0  0  0  0  0  0  0  0  0
   -0.1038    7.6113   -0.3202 H   0  0  0  0  0  0  0  0  0  0  0  0
   -1.5899    6.2122   -1.9868 H   0  0  0  0  0  0  0  0  0  0  0  0
   -3.0028    9.9772   -2.3507 H   0  0  0  0  0  0  0  0  0  0  0  0
   -3.9594    9.0671    0.4331 H   0  0  0  0  0  0  0  0  0  0  0  0
   -4.2521   10.6840   -0.3487 H   0  0  0  0  0  0  0  0  0  0  0  0
   -6.2402    9.2160   -0.4613 H   0  0  0  0  0  0  0  0  0  0  0  0
   -5.5791    9.6360   -2.0901 H   0  0  0  0  0  0  0  0  0  0  0  0
   -6.1635    7.3082   -2.0724 H   0  0  0  0  0  0  0  0  0  0  0  0
   -5.5250    5.9580   -0.4530 H   0  0  0  0  0  0  0  0  0  0  0  0
   -4.7168    8.8435   -3.7516 H   0  0  0  0  0  0  0  0  0  0  0  0
   -3.3263    7.8837   -4.3616 H   0  0  0  0  0  0  0  0  0  0  0  0
   -4.9764    7.1740   -4.3616 H   0  0  0  0  0  0  0  0  0  0  0  0
   -3.9181    5.2714   -1.5479 H   0  0  0  0  0  0  0  0  0  0  0  0
   -4.8238    5.3646   -3.0963 H   0  0  0  0  0  0  0  0  0  0  0  0
   -3.0310    5.4762   -3.0963 H   0  0  0  0  0  0  0  0  0  0  0  0
   -1.6854   10.7473    1.2783 H   0  0  0  0  0  0  0  0  0  0  0  0
   -2.3078    9.0828    1.0160 H   0  0  0  0  0  0  0  0  0  0  0  0
   -0.5380    9.3903    1.0160 H   0  0  0  0  0  0  0  0  0  0  0  0
   -2.6845   11.9243   -0.9087 H   0  0  0  0  0  0  0  0  0  0  0  0
   -0.9786   12.0325   -0.1930 H   0  0  0  0  0  0  0  0  0  0  0  0
   -1.7516   11.9227   -3.1211 H   0  0  0  0  0  0  0  0  0  0  0  0
   -0.9896   13.2819   -2.2046 H   0  0  0  0  0  0  0  0  0  0  0  0
    0.8214   11.8616   -0.4735 H   0  0  0  0  0  0  0  0  0  0  0  0
    2.2379   11.5471   -1.5324 H   0  0  0  0  0  0  0  0  0  0  0  0
    1.4582   13.1653   -1.5324 H   0  0  0  0  0  0  0  0  0  0  0  0
  1  2  1  0
  2  3  1  0
  3  4  1  0
  4  5  1  0
  5  6  1  0
  6  7  1  0
  7  8  1  0
  7  9  1  0
  2 10  1  0
 10 11  1  0
 11 12  1  0
 12 13  1  0
 13 14  1  6
 13 15  1  0
 15 16  1  0
 16 17  1  0
 17 18  2  0
 18 19  1  0
 19 20  1  0
 20 21  1  0
 21 22  1  0
 22 23  1  0
 22 24  1  0
 24 25  1  0
 24 26  1  0
 19 27  1  0
 27 28  1  1
 27 29  1  0
 29 30  1  0
 30 31  1  0
 31 32  1  1
  7  5  1  0
 31 10  1  0
 31 13  1  0
 27 15  1  0
 24 18  1  0
  1 33  1  0
  1 34  1  0
  1 35  1  0
  2 36  1  6
  3 37  1  0
  3 38  1  0
  4 39  1  0
  4 40  1  0
  5 41  1  1
  8 42  1  0
  8 43  1  0
  8 44  1  0
  9 45  1  0
  9 46  1  0
  9 47  1  0
 10 48  1  6
 11 49  1  0
 11 50  1  0
 12 51  1  0
 12 52  1  0
 14 53  1  0
 14 54  1  0
 14 55  1  0
 15 56  1  1
 16 57  1  0
 16 58  1  0
 17 59  1  0
 19 60  1  6
 20 61  1  0
 20 62  1  0
 21 63  1  0
 21 64  1  0
 22 65  1  6
 23 66  1  0
 25 67  1  0
 25 68  1  0
 25 69  1  0
 26 70  1  0
 26 71  1  0
 26 72  1  0
 28 73  1  0
 28 74  1  0
 28 75  1  0
 29 76  1  0
 29 77  1  0
 30 78  1  0
 30 79  1  0
 32 80  1  0
 32 81  1  0
 32 82  1  0
M  END
>  <meeko>  (7) 
{"is_sidechain": [false], "intermolecular_energy": 2.731, "internal_energy": -0.839}

$$$$
EPH_relaxed_0001_pdb2pqr_Repair_252_r2_0001_out
     RDKit          3D

 82 86  0  0  0  0  0  0  0  0999 V2000
   -4.7490    6.2710    1.1420 C   0  0  0  0  0  0  0  0  0  0  0  0
   -4.9740    7.1340   -0.1030 C   0  0  2  0  0  0  0  0  0  0  0  0
   -5.8890    6.4410   -1.1330 C   0  0  0  0  0  0  0  0  0  0  0  0
   -7.1830    7.2080   -1.4200 C   0  0  0  0  0  0  0  0  0  0  0  0
   -8.1970    7.0100   -0.3340 C   0  0  2  0  0  0  0  0  0  0  0  0
   -9.0900    5.9090   -0.5420 O   0  0  0  0  0  0  0  0  0  0  0  0
   -9.6870    7.2160   -0.5330 C   0  0  0  0  0  0  0  0  0  0  0  0
  -10.2460    7.6380   -1.8550 C   0  0  0  0  0  0  0  0  0  0  0  0
  -10.5390    7.4820    0.6680 C   0  0  0  0  0  0  0  0  0  0  0  0
   -3.6350    7.4790   -0.7450 C   0  0  1  0  0  0  0  0  0  0  0  0
   -3.5140    6.9480   -2.1980 C   0  0  0  0  0  0  0  0  0  0  0  0
   -2.6850    7.9920   -2.9880 C   0  0  0  0  0  0  0  0  0  0  0  0
   -2.0790    8.9120   -1.9030 C   0  0  1  0  0  0  0  0  0  0  0  0
   -0.8320    8.1390   -1.3710 C   0  0  0  0  0  0  0  0  0  0  0  0
   -1.7090   10.3630   -2.3540 C   0  0  2  0  0  0  0  0  0  0  0  0
   -0.6260   10.4510   -3.4440 C   0  0  0  0  0  0  0  0  0  0  0  0
    0.7760   10.5510   -2.9420 C   0  0  0  0  0  0  0  0  0  0  0  0
    1.1360   10.8550   -1.6810 C   0  0  0  0  0  0  0  0  0  0  0  0
    0.0830   11.2330   -0.6310 C   0  0  1  0  0  0  0  0  0  0  0  0
    0.5490   12.4970    0.1380 C   0  0  0  0  0  0  0  0  0  0  0  0
    1.9420   12.3340    0.7400 C   0  0  0  0  0  0  0  0  0  0  0  0
    2.9700   12.0170   -0.3420 C   0  0  2  0  0  0  0  0  0  0  0  0
    3.1060   13.1560   -1.1980 O   0  0  0  0  0  0  0  0  0  0  0  0
    2.6020   10.7670   -1.1900 C   0  0  0  0  0  0  0  0  0  0  0  0
    2.7500    9.4900   -0.3260 C   0  0  0  0  0  0  0  0  0  0  0  0
    3.6450   10.6410   -2.3330 C   0  0  0  0  0  0  0  0  0  0  0  0
   -1.4100   11.3570   -1.1600 C   0  0  1  0  0  0  0  0  0  0  0  0
   -1.6640   12.7960   -1.7050 C   0  0  0  0  0  0  0  0  0  0  0  0
   -2.4020   11.1580    0.0470 C   0  0  0  0  0  0  0  0  0  0  0  0
   -2.8230    9.7110    0.3680 C   0  0  0  0  0  0  0  0  0  0  0  0
   -3.2850    8.9810   -0.8970 C   0  0  2  0  0  0  0  0  0  0  0  0
   -4.5530    9.7240   -1.4420 C   0  0  0  0  0  0  0  0  0  0  0  0
   -4.9078    6.8802    2.0440 H   0  0  0  0  0  0  0  0  0  0  0  0
   -5.4579    5.4299    1.1381 H   0  0  0  0  0  0  0  0  0  0  0  0
   -3.7197    5.8831    1.1381 H   0  0  0  0  0  0  0  0  0  0  0  0
   -5.4801    8.0556    0.2204 H   0  0  0  0  0  0  0  0  0  0  0  0
   -5.3323    6.3338   -2.0756 H   0  0  0  0  0  0  0  0  0  0  0  0
   -6.1786    5.4702   -0.7044 H   0  0  0  0  0  0  0  0  0  0  0  0
   -6.9515    8.2803   -1.5004 H   0  0  0  0  0  0  0  0  0  0  0  0
   -7.6076    6.8250   -2.3597 H   0  0  0  0  0  0  0  0  0  0  0  0
   -7.4945    7.3886    0.4230 H   0  0  0  0  0  0  0  0  0  0  0  0
  -11.1144    8.2936   -1.6935 H   0  0  0  0  0  0  0  0  0  0  0  0
   -9.4762    8.1822   -2.4218 H   0  0  0  0  0  0  0  0  0  0  0  0
  -10.5584    6.7485   -2.4218 H   0  0  0  0  0  0  0  0  0  0  0  0
   -9.9532    7.2991    1.5809 H   0  0  0  0  0  0  0  0  0  0  0  0
  -10.8774    8.5285    0.6530 H   0  0  0  0  0  0  0  0  0  0  0  0
  -11.4127    6.8139    0.6530 H   0  0  0  0  0  0  0  0  0  0  0  0
   -2.9562    7.0056   -0.0203 H   0  0  0  0  0  0  0  0  0  0  0  0
   -3.0019    5.9745   -2.2041 H   0  0  0  0  0  0  0  0  0  0  0  0
   -4.5065    6.8072   -2.6509 H   0  0  0  0  0  0  0  0  0  0  0  0
   -1.8902    7.4989   -3.5670 H   0  0  0  0  0  0  0  0  0  0  0  0
   -3.2975    8.5490   -3.7122 H   0  0  0  0  0  0  0  0  0  0  0  0
   -0.8395    8.1437   -0.2710 H   0  0  0  0  0  0  0  0  0  0  0  0
   -0.8620    7.1009   -1.7335 H   0  0  0  0  0  0  0  0  0  0  0  0
    0.0844    8.6276   -1.7335 H   0  0  0  0  0  0  0  0  0  0  0  0
   -2.6397   10.7068   -2.8290 H   0  0  0  0  0  0  0  0  0  0  0  0
   -0.6996    9.5495   -4.0700 H   0  0  0  0  0  0  0  0  0  0  0  0
   -0.8206   11.3846   -3.9922 H   0  0  0  0  0  0  0  0  0  0  0  0
    1.5838   10.3601   -3.6638 H   0  0  0  0  0  0  0  0  0  0  0  0
    0.0209   10.3782    0.0585 H   0  0  0  0  0  0  0  0  0  0  0  0
    0.5630   13.3485   -0.5583 H   0  0  0  0  0  0  0  0  0  0  0  0
   -0.1557   12.6634    0.9660 H   0  0  0  0  0  0  0  0  0  0  0  0
    2.2275   13.2686    1.2451 H   0  0  0  0  0  0  0  0  0  0  0  0
    1.9191   11.5005    1.4575 H   0  0  0  0  0  0  0  0  0  0  0  0
    3.9190   11.7848    0.1635 H   0  0  0  0  0  0  0  0  0  0  0  0
    2.9690   13.9500   -0.6540 H   0  0  0  0  0  0  0  0  0  0  0  0
    2.7184    9.7624    0.7393 H   0  0  0  0  0  0  0  0  0  0  0  0
    1.9262    8.7970   -0.5518 H   0  0  0  0  0  0  0  0  0  0  0  0
    3.7105    9.0038   -0.5518 H   0  0  0  0  0  0  0  0  0  0  0  0
    4.6494   10.5197   -1.9011 H   0  0  0  0  0  0  0  0  0  0  0  0
    3.4046    9.7654   -2.9539 H   0  0  0  0  0  0  0  0  0  0  0  0
    3.6200   11.5487   -2.9539 H   0  0  0  0  0  0  0  0  0  0  0  0
   -1.7867   13.4912   -0.8614 H   0  0  0  0  0  0  0  0  0  0  0  0
   -0.8077   13.1120   -2.3190 H   0  0  0  0  0  0  0  0  0  0  0  0
   -2.5767   12.7998   -2.3190 H   0  0  0  0  0  0  0  0  0  0  0  0
   -1.9205   11.5717    0.9453 H   0  0  0  0  0  0  0  0  0  0  0  0
   -3.3290   11.6676   -0.2548 H   0  0  0  0  0  0  0  0  0  0  0  0
   -1.9657    9.1743    0.8004 H   0  0  0  0  0  0  0  0  0  0  0  0
   -3.6594    9.7392    1.0819 H   0  0  0  0  0  0  0  0  0  0  0  0
   -5.1607   10.0801   -0.5971 H   0  0  0  0  0  0  0  0  0  0  0  0
   -4.2400   10.5816   -2.0557 H   0  0  0  0  0  0  0  0  0  0  0  0
   -5.1481    9.0317   -2.0557 H   0  0  0  0  0  0  0  0  0  0  0  0
  1  2  1  0
  2  3  1  0
  3  4  1  0
  4  5  1  0
  5  6  1  0
  6  7  1  0
  7  8  1  0
  7  9  1  0
  2 10  1  0
 10 11  1  0
 11 12  1  0
 12 13  1  0
 13 14  1  1
 13 15  1  0
 15 16  1  0
 16 17  1  0
 17 18  2  0
 18 19  1  0
 19 20  1  0
 20 21  1  0
 21 22  1  0
 22 23  1  0
 22 24  1  0
 24 25  1  0
 24 26  1  0
 19 27  1  0
 27 28  1  6
 27 29  1  0
 29 30  1  0
 30 31  1  0
 31 32  1  6
  7  5  1  0
 31 10  1  0
 31 13  1  0
 27 15  1  0
 24 18  1  0
  1 33  1  0
  1 34  1  0
  1 35  1  0
  2 36  1  1
  3 37  1  0
  3 38  1  0
  4 39  1  0
  4 40  1  0
  5 41  1  1
  8 42  1  0
  8 43  1  0
  8 44  1  0
  9 45  1  0
  9 46  1  0
  9 47  1  0
 10 48  1  1
 11 49  1  0
 11 50  1  0
 12 51  1  0
 12 52  1  0
 14 53  1  0
 14 54  1  0
 14 55  1  0
 15 56  1  6
 16 57  1  0
 16 58  1  0
 17 59  1  0
 19 60  1  1
 20 61  1  0
 20 62  1  0
 21 63  1  0
 21 64  1  0
 22 65  1  1
 23 66  1  0
 25 67  1  0
 25 68  1  0
 25 69  1  0
 26 70  1  0
 26 71  1  0
 26 72  1  0
 28 73  1  0
 28 74  1  0
 28 75  1  0
 29 76  1  0
 29 77  1  0
 30 78  1  0
 30 79  1  0
 32 80  1  0
 32 81  1  0
 32 82  1  0
M  END
>  <meeko>  (8) 
{"is_sidechain": [false], "intermolecular_energy": 2.731, "internal_energy": -0.839}

$$$$
EPH_relaxed_0001_pdb2pqr_Repair_252_r2_0001_out
     RDKit          3D

 82 86  0  0  0  0  0  0  0  0999 V2000
  -13.3240    5.7310    0.5260 C   0  0  0  0  0  0  0  0  0  0  0  0
  -13.5150    6.9580   -0.3690 C   0  0  2  0  0  0  0  0  0  0  0  0
  -14.8390    6.9000   -1.1580 C   0  0  0  0  0  0  0  0  0  0  0  0
  -15.1590    8.1900   -1.9190 C   0  0  0  0  0  0  0  0  0  0  0  0
  -14.4370    9.3690   -1.3410 C   0  0  2  0  0  0  0  0  0  0  0  0
  -15.2870   10.4420   -0.9160 O   0  0  0  0  0  0  0  0  0  0  0  0
  -14.3960   10.7330   -2.0040 C   0  0  0  0  0  0  0  0  0  0  0  0
  -15.0880   10.9880   -3.3060 C   0  0  0  0  0  0  0  0  0  0  0  0
  -13.2870   11.6720   -1.6420 C   0  0  0  0  0  0  0  0  0  0  0  0
  -12.3410    7.0880   -1.3320 C   0  0  1  0  0  0  0  0  0  0  0  0
  -12.5190    8.2560   -2.3380 C   0  0  0  0  0  0  0  0  0  0  0  0
  -11.1080    8.8460   -2.5920 C   0  0  0  0  0  0  0  0  0  0  0  0
  -10.1350    7.8030   -1.9940 C   0  0  1  0  0  0  0  0  0  0  0  0
  -10.0080    6.6990   -3.0900 C   0  0  0  0  0  0  0  0  0  0  0  0
   -8.7350    8.3380   -1.5500 C   0  0  2  0  0  0  0  0  0  0  0  0
   -7.8710    8.9230   -2.6810 C   0  0  0  0  0  0  0  0  0  0  0  0
   -6.9690    7.9480   -3.3630 C   0  0  0  0  0  0  0  0  0  0  0  0
   -6.6450    6.7260   -2.9010 C   0  0  0  0  0  0  0  0  0  0  0  0
   -7.1260    6.2520   -1.5230 C   0  0  1  0  0  0  0  0  0  0  0  0
   -5.9420    5.6120   -0.7530 C   0  0  0  0  0  0  0  0  0  0  0  0
   -5.2590    4.5020   -1.5470 C   0  0  0  0  0  0  0  0  0  0  0  0
   -4.7430    5.0260   -2.8840 C   0  0  2  0  0  0  0  0  0  0  0  0
   -3.6870    5.9590   -2.6370 O   0  0  0  0  0  0  0  0  0  0  0  0
   -5.8470    5.7020   -3.7450 C   0  0  0  0  0  0  0  0  0  0  0  0
   -6.8340    4.6270   -4.2640 C   0  0  0  0  0  0  0  0  0  0  0  0
   -5.1680    6.3110   -5.0010 C   0  0  0  0  0  0  0  0  0  0  0  0
   -7.9090    7.3280   -0.6540 C   0  0  1  0  0  0  0  0  0  0  0  0
   -6.8990    8.1850    0.1680 C   0  0  0  0  0  0  0  0  0  0  0  0
   -8.8150    6.5810    0.3950 C   0  0  0  0  0  0  0  0  0  0  0  0
  -10.2300    6.1840   -0.0660 C   0  0  0  0  0  0  0  0  0  0  0  0
  -10.9460    7.3700   -0.7190 C   0  0  2  0  0  0  0  0  0  0  0  0
  -11.1080    8.4880    0.3660 C   0  0  0  0  0  0  0  0  0  0  0  0
  -13.3715    6.0363    1.5817 H   0  0  0  0  0  0  0  0  0  0  0  0
  -14.1191    4.9993    0.3197 H   0  0  0  0  0  0  0  0  0  0  0  0
  -12.3442    5.2756    0.3197 H   0  0  0  0  0  0  0  0  0  0  0  0
  -13.5580    7.8411    0.2855 H   0  0  0  0  0  0  0  0  0  0  0  0
  -14.7752    6.0756   -1.8834 H   0  0  0  0  0  0  0  0  0  0  0  0
  -15.6446    6.7515   -0.4238 H   0  0  0  0  0  0  0  0  0  0  0  0
  -14.8578    8.0678   -2.9699 H   0  0  0  0  0  0  0  0  0  0  0  0
  -16.2400    8.3766   -1.8375 H   0  0  0  0  0  0  0  0  0  0  0  0
  -13.6446    8.7180   -0.9431 H   0  0  0  0  0  0  0  0  0  0  0  0
  -16.1043   11.3625   -3.1139 H   0  0  0  0  0  0  0  0  0  0  0  0
  -14.5237   11.7372   -3.8806 H   0  0  0  0  0  0  0  0  0  0  0  0
  -15.1448   10.0517   -3.8806 H   0  0  0  0  0  0  0  0  0  0  0  0
  -13.2068   11.7399   -0.5470 H   0  0  0  0  0  0  0  0  0  0  0  0
  -12.3394   11.2975   -2.0565 H   0  0  0  0  0  0  0  0  0  0  0  0
  -13.5002   12.6684   -2.0565 H   0  0  0  0  0  0  0  0  0  0  0  0
  -12.3589    6.0837   -1.7803 H   0  0  0  0  0  0  0  0  0  0  0  0
  -12.9488    7.8830   -3.2794 H   0  0  0  0  0  0  0  0  0  0  0  0
  -13.2011    9.0210   -1.9386 H   0  0  0  0  0  0  0  0  0  0  0  0
  -10.9280    8.9717   -3.6699 H   0  0  0  0  0  0  0  0  0  0  0  0
  -10.9839    9.8403   -2.1381 H   0  0  0  0  0  0  0  0  0  0  0  0
   -9.8949    5.7162   -2.6091 H   0  0  0  0  0  0  0  0  0  0  0  0
  -10.9120    6.6987   -3.7167 H   0  0  0  0  0  0  0  0  0  0  0  0
   -9.1275    6.9040   -3.7167 H   0  0  0  0  0  0  0  0  0  0  0  0
   -9.0014    9.1899   -0.9071 H   0  0  0  0  0  0  0  0  0  0  0  0
   -8.5454    9.3495   -3.4382 H   0  0  0  0  0  0  0  0  0  0  0  0
   -7.2133    9.6672   -2.2081 H   0  0  0  0  0  0  0  0  0  0  0  0
   -6.5321    8.2544   -4.3249 H   0  0  0  0  0  0  0  0  0  0  0  0
   -7.8992    5.4936   -1.7154 H   0  0  0  0  0  0  0  0  0  0  0  0
   -5.2011    6.3944   -0.5319 H   0  0  0  0  0  0  0  0  0  0  0  0
   -6.3453    5.1645    0.1674 H   0  0  0  0  0  0  0  0  0  0  0  0
   -4.4130    4.1101   -0.9633 H   0  0  0  0  0  0  0  0  0  0  0  0
   -5.9935    3.7066   -1.7415 H   0  0  0  0  0  0  0  0  0  0  0  0
   -4.3823    4.1610   -3.4599 H   0  0  0  0  0  0  0  0  0  0  0  0
   -3.0710    5.5470   -2.0080 H   0  0  0  0  0  0  0  0  0  0  0  0
   -7.3027    4.1166   -3.4097 H   0  0  0  0  0  0  0  0  0  0  0  0
   -7.6117    5.1079   -4.8754 H   0  0  0  0  0  0  0  0  0  0  0  0
   -6.2886    3.8931   -4.8754 H   0  0  0  0  0  0  0  0  0  0  0  0
   -4.3829    7.0152   -4.6883 H   0  0  0  0  0  0  0  0  0  0  0  0
   -4.7203    5.5061   -5.6024 H   0  0  0  0  0  0  0  0  0  0  0  0
   -5.9196    6.8433   -5.6024 H   0  0  0  0  0  0  0  0  0  0  0  0
   -7.0784    8.0328    1.2425 H   0  0  0  0  0  0  0  0  0  0  0  0
   -5.8719    7.8786   -0.0793 H   0  0  0  0  0  0  0  0  0  0  0  0
   -7.0340    9.2483   -0.0793 H   0  0  0  0  0  0  0  0  0  0  0  0
   -8.2911    5.6602    0.6910 H   0  0  0  0  0  0  0  0  0  0  0  0
   -8.9703    7.3054    1.2081 H   0  0  0  0  0  0  0  0  0  0  0  0
  -10.1542    5.3636   -0.7949 H   0  0  0  0  0  0  0  0  0  0  0  0
  -10.8091    5.8652    0.8132 H   0  0  0  0  0  0  0  0  0  0  0  0
  -11.0429    8.0387    1.3680 H   0  0  0  0  0  0  0  0  0  0  0  0
  -10.3086    9.2340    0.2460 H   0  0  0  0  0  0  0  0  0  0  0  0
  -12.0863    8.9764    0.2460 H   0  0  0  0  0  0  0  0  0  0  0  0
  1  2  1  0
  2  3  1  0
  3  4  1  0
  4  5  1  0
  5  6  1  0
  6  7  1  0
  7  8  1  0
  7  9  1  0
  2 10  1  0
 10 11  1  0
 11 12  1  0
 12 13  1  0
 13 14  1  6
 13 15  1  0
 15 16  1  0
 16 17  1  0
 17 18  2  0
 18 19  1  0
 19 20  1  0
 20 21  1  0
 21 22  1  0
 22 23  1  0
 22 24  1  0
 24 25  1  0
 24 26  1  0
 19 27  1  0
 27 28  1  1
 27 29  1  0
 29 30  1  0
 30 31  1  0
 31 32  1  1
  7  5  1  0
 31 10  1  0
 31 13  1  0
 27 15  1  0
 24 18  1  0
  1 33  1  0
  1 34  1  0
  1 35  1  0
  2 36  1  1
  3 37  1  0
  3 38  1  0
  4 39  1  0
  4 40  1  0
  5 41  1  1
  8 42  1  0
  8 43  1  0
  8 44  1  0
  9 45  1  0
  9 46  1  0
  9 47  1  0
 10 48  1  6
 11 49  1  0
 11 50  1  0
 12 51  1  0
 12 52  1  0
 14 53  1  0
 14 54  1  0
 14 55  1  0
 15 56  1  1
 16 57  1  0
 16 58  1  0
 17 59  1  0
 19 60  1  6
 20 61  1  0
 20 62  1  0
 21 63  1  0
 21 64  1  0
 22 65  1  6
 23 66  1  0
 25 67  1  0
 25 68  1  0
 25 69  1  0
 26 70  1  0
 26 71  1  0
 26 72  1  0
 28 73  1  0
 28 74  1  0
 28 75  1  0
 29 76  1  0
 29 77  1  0
 30 78  1  0
 30 79  1  0
 32 80  1  0
 32 81  1  0
 32 82  1  0
M  END
>  <meeko>  (9) 
{"is_sidechain": [false], "intermolecular_energy": 2.731, "internal_energy": -0.839}

$$$$
EPH_relaxed_0001_pdb2pqr_Repair_252_r2_0001_out
     RDKit          3D

 82 86  0  0  0  0  0  0  0  0999 V2000
   -1.3150   10.4590    1.5070 C   0  0  0  0  0  0  0  0  0  0  0  0
   -2.0360   10.0830    0.2090 C   0  0  2  0  0  0  0  0  0  0  0  0
   -2.9220    8.8330    0.3790 C   0  0  0  0  0  0  0  0  0  0  0  0
   -4.2640    8.9260   -0.3530 C   0  0  0  0  0  0  0  0  0  0  0  0
   -4.7430    7.5800   -0.8070 C   0  0  2  0  0  0  0  0  0  0  0  0
   -4.8810    7.4420   -2.2270 O   0  0  0  0  0  0  0  0  0  0  0  0
   -6.0930    7.3490   -1.4600 C   0  0  0  0  0  0  0  0  0  0  0  0
   -7.0500    8.4750   -1.6940 C   0  0  0  0  0  0  0  0  0  0  0  0
   -6.6790    5.9720   -1.4230 C   0  0  0  0  0  0  0  0  0  0  0  0
   -1.0190    9.8540   -0.9030 C   0  0  1  0  0  0  0  0  0  0  0  0
   -1.6090    9.0570   -2.0970 C   0  0  0  0  0  0  0  0  0  0  0  0
   -0.9420    9.6150   -3.3800 C   0  0  0  0  0  0  0  0  0  0  0  0
    0.2390   10.4710   -2.8650 C   0  0  1  0  0  0  0  0  0  0  0  0
    1.3780    9.4450   -2.5670 C   0  0  0  0  0  0  0  0  0  0  0  0
    0.7270   11.6160   -3.8110 C   0  0  2  0  0  0  0  0  0  0  0  0
    1.2800   11.1490   -5.1690 C   0  0  0  0  0  0  0  0  0  0  0  0
    2.7480   10.8790   -5.2010 C   0  0  0  0  0  0  0  0  0  0  0  0
    3.6370   11.2740   -4.2700 C   0  0  0  0  0  0  0  0  0  0  0  0
    3.2030   12.1570   -3.0920 C   0  0  1  0  0  0  0  0  0  0  0  0
    4.2160   13.3190   -2.9160 C   0  0  0  0  0  0  0  0  0  0  0  0
    5.6530   12.8270   -2.7790 C   0  0  0  0  0  0  0  0  0  0  0  0
    6.0660   12.0030   -3.9960 C   0  0  2  0  0  0  0  0  0  0  0  0
    6.1140   12.8610   -5.1390 O   0  0  0  0  0  0  0  0  0  0  0  0
    5.1130   10.8080   -4.2780 C   0  0  0  0  0  0  0  0  0  0  0  0
    5.2890    9.7310   -3.1790 C   0  0  0  0  0  0  0  0  0  0  0  0
    5.5600   10.1450   -5.6100 C   0  0  0  0  0  0  0  0  0  0  0  0
    1.6960   12.6590   -3.1200 C   0  0  1  0  0  0  0  0  0  0  0  0
    1.5900   13.9790   -3.9440 C   0  0  0  0  0  0  0  0  0  0  0  0
    1.2450   13.0140   -1.6540 C   0  0  0  0  0  0  0  0  0  0  0  0
    0.6610   11.8650   -0.8100 C   0  0  0  0  0  0  0  0  0  0  0  0
   -0.4190   11.1070   -1.5880 C   0  0  2  0  0  0  0  0  0  0  0  0
   -1.5880   12.1080   -1.8820 C   0  0  0  0  0  0  0  0  0  0  0  0
   -1.9217   10.1426    2.3683 H   0  0  0  0  0  0  0  0  0  0  0  0
   -0.3375    9.9558    1.5424 H   0  0  0  0  0  0  0  0  0  0  0  0
   -1.1681   11.5486    1.5424 H   0  0  0  0  0  0  0  0  0  0  0  0
   -2.6959   10.9215   -0.0583 H   0  0  0  0  0  0  0  0  0  0  0  0
   -2.3734    7.9628   -0.0106 H   0  0  0  0  0  0  0  0  0  0  0  0
   -3.1465    8.7414    1.4519 H   0  0  0  0  0  0  0  0  0  0  0  0
   -5.0118    9.3595    0.3274 H   0  0  0  0  0  0  0  0  0  0  0  0
   -4.1261    9.5585   -1.2423 H   0  0  0  0  0  0  0  0  0  0  0  0
   -4.2390    7.0890    0.0385 H   0  0  0  0  0  0  0  0  0  0  0  0
   -7.3896    8.8745   -0.7270 H   0  0  0  0  0  0  0  0  0  0  0  0
   -6.5477    9.2708   -2.2635 H   0  0  0  0  0  0  0  0  0  0  0  0
   -7.9164    8.1075   -2.2635 H   0  0  0  0  0  0  0  0  0  0  0  0
   -6.8125    5.6583   -0.3772 H   0  0  0  0  0  0  0  0  0  0  0  0
   -7.6540    5.9746   -1.9323 H   0  0  0  0  0  0  0  0  0  0  0  0
   -6.0011    5.2712   -1.9323 H   0  0  0  0  0  0  0  0  0  0  0  0
   -0.2391    9.3274   -0.3335 H   0  0  0  0  0  0  0  0  0  0  0  0
   -1.3820    7.9863   -1.9870 H   0  0  0  0  0  0  0  0  0  0  0  0
   -2.7028    9.1644   -2.1417 H   0  0  0  0  0  0  0  0  0  0  0  0
   -0.5786    8.7950   -4.0168 H   0  0  0  0  0  0  0  0  0  0  0  0
   -1.6432   10.1984   -3.9948 H   0  0  0  0  0  0  0  0  0  0  0  0
    1.4984    9.3366   -1.4790 H   0  0  0  0  0  0  0  0  0  0  0  0
    1.1178    8.4706   -3.0060 H   0  0  0  0  0  0  0  0  0  0  0  0
    2.3201    9.8052   -3.0060 H   0  0  0  0  0  0  0  0  0  0  0  0
   -0.2078   12.1500   -4.0368 H   0  0  0  0  0  0  0  0  0  0  0  0
    0.7577   10.2220   -5.4480 H   0  0  0  0  0  0  0  0  0  0  0  0
    1.1080   11.9795   -5.8695 H   0  0  0  0  0  0  0  0  0  0  0  0
    3.1363   10.3090   -6.0579 H   0  0  0  0  0  0  0  0  0  0  0  0
    3.2201   11.5091   -2.2032 H   0  0  0  0  0  0  0  0  0  0  0  0
    4.1515   13.9789   -3.7937 H   0  0  0  0  0  0  0  0  0  0  0  0
    3.9557   13.8511   -1.9891 H   0  0  0  0  0  0  0  0  0  0  0  0
    6.3233   13.6944   -2.6872 H   0  0  0  0  0  0  0  0  0  0  0  0
    5.7225   12.1908   -1.8843 H   0  0  0  0  0  0  0  0  0  0  0  0
    7.0550   11.5715   -3.7824 H   0  0  0  0  0  0  0  0  0  0  0  0
    7.0110   12.8090   -5.5090 H   0  0  0  0  0  0  0  0  0  0  0  0
    5.2120   10.2023   -2.1881 H   0  0  0  0  0  0  0  0  0  0  0  0
    4.5036    8.9680   -3.2842 H   0  0  0  0  0  0  0  0  0  0  0  0
    6.2764    9.2577   -3.2842 H   0  0  0  0  0  0  0  0  0  0  0  0
    6.1626    9.2513   -5.3906 H   0  0  0  0  0  0  0  0  0  0  0  0
    4.6723    9.8551   -6.1913 H   0  0  0  0  0  0  0  0  0  0  0  0
    6.1617   10.8592   -6.1913 H   0  0  0  0  0  0  0  0  0  0  0  0
    1.5212   14.8355   -3.2572 H   0  0  0  0  0  0  0  0  0  0  0  0
    2.4823   14.0881   -4.5780 H   0  0  0  0  0  0  0  0  0  0  0  0
    0.6917   13.9444   -4.5780 H   0  0  0  0  0  0  0  0  0  0  0  0
    2.1240   13.4052   -1.1208 H   0  0  0  0  0  0  0  0  0  0  0  0
    0.4205   13.7325   -1.7723 H   0  0  0  0  0  0  0  0  0  0  0  0
    1.4689   11.1676   -0.5436 H   0  0  0  0  0  0  0  0  0  0  0  0
    0.2061   12.2916    0.0961 H   0  0  0  0  0  0  0  0  0  0  0  0
   -2.0094   12.4688   -0.9321 H   0  0  0  0  0  0  0  0  0  0  0  0
   -1.2035   12.9612   -2.4601 H   0  0  0  0  0  0  0  0  0  0  0  0
   -2.3718   11.5968   -2.4601 H   0  0  0  0  0  0  0  0  0  0  0  0
  1  2  1  0
  2  3  1  0
  3  4  1  0
  4  5  1  0
  5  6  1  0
  6  7  1  0
  7  8  1  0
  7  9  1  0
  2 10  1  0
 10 11  1  0
 11 12  1  0
 12 13  1  0
 13 14  1  1
 13 15  1  0
 15 16  1  0
 16 17  1  0
 17 18  2  0
 18 19  1  0
 19 20  1  0
 20 21  1  0
 21 22  1  0
 22 23  1  0
 22 24  1  0
 24 25  1  0
 24 26  1  0
 19 27  1  0
 27 28  1  6
 27 29  1  0
 29 30  1  0
 30 31  1  0
 31 32  1  6
  7  5  1  0
 31 10  1  0
 31 13  1  0
 27 15  1  0
 24 18  1  0
  1 33  1  0
  1 34  1  0
  1 35  1  0
  2 36  1  6
  3 37  1  0
  3 38  1  0
  4 39  1  0
  4 40  1  0
  5 41  1  1
  8 42  1  0
  8 43  1  0
  8 44  1  0
  9 45  1  0
  9 46  1  0
  9 47  1  0
 10 48  1  1
 11 49  1  0
 11 50  1  0
 12 51  1  0
 12 52  1  0
 14 53  1  0
 14 54  1  0
 14 55  1  0
 15 56  1  6
 16 57  1  0
 16 58  1  0
 17 59  1  0
 19 60  1  1
 20 61  1  0
 20 62  1  0
 21 63  1  0
 21 64  1  0
 22 65  1  1
 23 66  1  0
 25 67  1  0
 25 68  1  0
 25 69  1  0
 26 70  1  0
 26 71  1  0
 26 72  1  0
 28 73  1  0
 28 74  1  0
 28 75  1  0
 29 76  1  0
 29 77  1  0
 30 78  1  0
 30 79  1  0
 32 80  1  0
 32 81  1  0
 32 82  1  0
M  END
>  <meeko>  (10) 
{"is_sidechain": [false], "intermolecular_energy": 2.731, "internal_energy": -0.839}

$$$$
EPH_relaxed_0001_pdb2pqr_Repair_252_r2_0001_out
     RDKit          3D

 82 86  0  0  0  0  0  0  0  0999 V2000
  -11.3850    8.8310   -2.7230 C   0  0  0  0  0  0  0  0  0  0  0  0
  -11.0540    7.6140   -1.8550 C   0  0  2  0  0  0  0  0  0  0  0  0
  -12.1590    7.3200   -0.8210 C   0  0  0  0  0  0  0  0  0  0  0  0
  -13.5450    7.8120   -1.2460 C   0  0  0  0  0  0  0  0  0  0  0  0
  -13.7560    9.2520   -0.8860 C   0  0  2  0  0  0  0  0  0  0  0  0
  -15.1140    9.6010   -0.5870 O   0  0  0  0  0  0  0  0  0  0  0  0
  -14.5410   10.2230   -1.7490 C   0  0  0  0  0  0  0  0  0  0  0  0
  -15.1640    9.7920   -3.0390 C   0  0  0  0  0  0  0  0  0  0  0  0
  -14.2890   11.6890   -1.5850 C   0  0  0  0  0  0  0  0  0  0  0  0
   -9.7210    7.8280   -1.1460 C   0  0  1  0  0  0  0  0  0  0  0  0
   -9.8010    7.5350    0.3760 C   0  0  0  0  0  0  0  0  0  0  0  0
   -8.4350    6.9250    0.7860 C   0  0  0  0  0  0  0  0  0  0  0  0
   -7.5100    7.1920   -0.4250 C   0  0  1  0  0  0  0  0  0  0  0  0
   -7.0430    8.6710   -0.2540 C   0  0  0  0  0  0  0  0  0  0  0  0
   -6.2980    6.2190   -0.5950 C   0  0  2  0  0  0  0  0  0  0  0  0
   -5.2780    6.2400    0.5570 C   0  0  0  0  0  0  0  0  0  0  0  0
   -4.1580    7.2140    0.4000 C   0  0  0  0  0  0  0  0  0  0  0  0
   -3.8160    7.8360   -0.7440 C   0  0  0  0  0  0  0  0  0  0  0  0
   -4.5270    7.5050   -2.0630 C   0  0  1  0  0  0  0  0  0  0  0  0
   -3.4730    7.3100   -3.1840 C   0  0  0  0  0  0  0  0  0  0  0  0
   -2.5290    8.5020   -3.3130 C   0  0  0  0  0  0  0  0  0  0  0  0
   -1.7980    8.7630   -1.9990 C   0  0  2  0  0  0  0  0  0  0  0  0
   -0.9180    7.6660   -1.7350 O   0  0  0  0  0  0  0  0  0  0  0  0
   -2.7580    8.9650   -0.7930 C   0  0  0  0  0  0  0  0  0  0  0  0
   -3.4970   10.3180   -0.9380 C   0  0  0  0  0  0  0  0  0  0  0  0
   -1.8940    9.0780    0.4920 C   0  0  0  0  0  0  0  0  0  0  0  0
   -5.5810    6.3170   -2.0030 C   0  0  1  0  0  0  0  0  0  0  0  0
   -4.8600    4.9540   -2.2310 C   0  0  0  0  0  0  0  0  0  0  0  0
   -6.6070    6.4800   -3.1860 C   0  0  0  0  0  0  0  0  0  0  0  0
   -7.8450    7.3570   -2.9160 C   0  0  0  0  0  0  0  0  0  0  0  0
   -8.5240    6.9570   -1.6030 C   0  0  2  0  0  0  0  0  0  0  0  0
   -9.0250    5.4800   -1.7530 C   0  0  0  0  0  0  0  0  0  0  0  0
  -11.6186    9.6898   -2.0766 H   0  0  0  0  0  0  0  0  0  0  0  0
  -10.5205    9.0745   -3.3580 H   0  0  0  0  0  0  0  0  0  0  0  0
  -12.2538    8.6031   -3.3580 H   0  0  0  0  0  0  0  0  0  0  0  0
  -10.9851    6.7416   -2.5214 H   0  0  0  0  0  0  0  0  0  0  0  0
  -12.2090    6.2322   -0.6657 H   0  0  0  0  0  0  0  0  0  0  0  0
  -11.8926    7.8628    0.0979 H   0  0  0  0  0  0  0  0  0  0  0  0
  -13.6451    7.6984   -2.3355 H   0  0  0  0  0  0  0  0  0  0  0  0
  -14.2995    7.2118   -0.7165 H   0  0  0  0  0  0  0  0  0  0  0  0
  -12.7556    9.3104   -0.4324 H   0  0  0  0  0  0  0  0  0  0  0  0
  -16.0521    9.1776   -2.8300 H   0  0  0  0  0  0  0  0  0  0  0  0
  -15.4600   10.6794   -3.6178 H   0  0  0  0  0  0  0  0  0  0  0  0
  -14.4380    9.2021   -3.6178 H   0  0  0  0  0  0  0  0  0  0  0  0
  -14.2465   11.9362   -0.5140 H   0  0  0  0  0  0  0  0  0  0  0  0
  -13.3325   11.9520   -2.0602 H   0  0  0  0  0  0  0  0  0  0  0  0
  -15.1028   12.2564   -2.0602 H   0  0  0  0  0  0  0  0  0  0  0  0
   -9.5401    8.8812   -1.4068 H   0  0  0  0  0  0  0  0  0  0  0  0
   -9.9822    8.4666    0.9322 H   0  0  0  0  0  0  0  0  0  0  0  0
  -10.6264    6.8441    0.6026 H   0  0  0  0  0  0  0  0  0  0  0  0
   -8.0449    7.4176    1.6888 H   0  0  0  0  0  0  0  0  0  0  0  0
   -8.5110    5.8540    1.0251 H   0  0  0  0  0  0  0  0  0  0  0  0
   -6.9675    8.9102    0.8170 H   0  0  0  0  0  0  0  0  0  0  0  0
   -6.0597    8.8023   -0.7292 H   0  0  0  0  0  0  0  0  0  0  0  0
   -7.7726    9.3432   -0.7292 H   0  0  0  0  0  0  0  0  0  0  0  0
   -6.7800    5.2313   -0.5496 H   0  0  0  0  0  0  0  0  0  0  0  0
   -5.8168    6.4882    1.4834 H   0  0  0  0  0  0  0  0  0  0  0  0
   -4.8140    5.2427    0.5705 H   0  0  0  0  0  0  0  0  0  0  0  0
   -3.5612    7.4431    1.2952 H   0  0  0  0  0  0  0  0  0  0  0  0
   -5.1609    8.3739   -2.2936 H   0  0  0  0  0  0  0  0  0  0  0  0
   -2.8788    6.4125   -2.9572 H   0  0  0  0  0  0  0  0  0  0  0  0
   -4.0135    7.2074   -4.1365 H   0  0  0  0  0  0  0  0  0  0  0  0
   -1.7902    8.2926   -4.1006 H   0  0  0  0  0  0  0  0  0  0  0  0
   -3.1212    9.3931   -3.5685 H   0  0  0  0  0  0  0  0  0  0  0  0
   -1.2379    9.7026   -2.1145 H   0  0  0  0  0  0  0  0  0  0  0  0
   -0.7870    7.1860   -2.5700 H   0  0  0  0  0  0  0  0  0  0  0  0
   -3.7185   10.7236    0.0602 H   0  0  0  0  0  0  0  0  0  0  0  0
   -2.8605   11.0263   -1.4886 H   0  0  0  0  0  0  0  0  0  0  0  0
   -4.4369   10.1652   -1.4886 H   0  0  0  0  0  0  0  0  0  0  0  0
   -2.5411    8.9934    1.3775 H   0  0  0  0  0  0  0  0  0  0  0  0
   -1.1479    8.2698    0.5045 H   0  0  0  0  0  0  0  0  0  0  0  0
   -1.3809   10.0509    0.5045 H   0  0  0  0  0  0  0  0  0  0  0  0
   -4.6195    4.4993   -1.2587 H   0  0  0  0  0  0  0  0  0  0  0  0
   -5.5198    4.2805   -2.7976 H   0  0  0  0  0  0  0  0  0  0  0  0
   -3.9319    5.1204   -2.7976 H   0  0  0  0  0  0  0  0  0  0  0  0
   -6.0665    6.9201   -4.0370 H   0  0  0  0  0  0  0  0  0  0  0  0
   -7.0034    5.4696   -3.3646 H   0  0  0  0  0  0  0  0  0  0  0  0
   -7.5334    8.4101   -2.8537 H   0  0  0  0  0  0  0  0  0  0  0  0
   -8.5613    7.2155   -3.7387 H   0  0  0  0  0  0  0  0  0  0  0  0
   -9.1741    5.0403   -0.7558 H   0  0  0  0  0  0  0  0  0  0  0  0
   -9.9768    5.4699   -2.3043 H   0  0  0  0  0  0  0  0  0  0  0  0
   -8.2757    4.8929   -2.3043 H   0  0  0  0  0  0  0  0  0  0  0  0
  1  2  1  0
  2  3  1  0
  3  4  1  0
  4  5  1  0
  5  6  1  0
  6  7  1  0
  7  8  1  0
  7  9  1  0
  2 10  1  0
 10 11  1  0
 11 12  1  0
 12 13  1  0
 13 14  1  1
 13 15  1  0
 15 16  1  0
 16 17  1  0
 17 18  2  0
 18 19  1  0
 19 20  1  0
 20 21  1  0
 21 22  1  0
 22 23  1  0
 22 24  1  0
 24 25  1  0
 24 26  1  0
 19 27  1  0
 27 28  1  6
 27 29  1  0
 29 30  1  0
 30 31  1  0
 31 32  1  6
  7  5  1  0
 31 10  1  0
 31 13  1  0
 27 15  1  0
 24 18  1  0
  1 33  1  0
  1 34  1  0
  1 35  1  0
  2 36  1  6
  3 37  1  0
  3 38  1  0
  4 39  1  0
  4 40  1  0
  5 41  1  1
  8 42  1  0
  8 43  1  0
  8 44  1  0
  9 45  1  0
  9 46  1  0
  9 47  1  0
 10 48  1  1
 11 49  1  0
 11 50  1  0
 12 51  1  0
 12 52  1  0
 14 53  1  0
 14 54  1  0
 14 55  1  0
 15 56  1  6
 16 57  1  0
 16 58  1  0
 17 59  1  0
 19 60  1  6
 20 61  1  0
 20 62  1  0
 21 63  1  0
 21 64  1  0
 22 65  1  6
 23 66  1  0
 25 67  1  0
 25 68  1  0
 25 69  1  0
 26 70  1  0
 26 71  1  0
 26 72  1  0
 28 73  1  0
 28 74  1  0
 28 75  1  0
 29 76  1  0
 29 77  1  0
 30 78  1  0
 30 79  1  0
 32 80  1  0
 32 81  1  0
 32 82  1  0
M  END
>  <meeko>  (11) 
{"is_sidechain": [false], "intermolecular_energy": 2.731, "internal_energy": -0.839}

$$$$
EPH_relaxed_0001_pdb2pqr_Repair_252_r2_0001_out
     RDKit          3D

 82 86  0  0  0  0  0  0  0  0999 V2000
    1.2340   13.4720   -4.7430 C   0  0  0  0  0  0  0  0  0  0  0  0
    1.4540   12.8910   -3.3440 C   0  0  2  0  0  0  0  0  0  0  0  0
    2.9510   12.7810   -2.9890 C   0  0  0  0  0  0  0  0  0  0  0  0
    3.7150   11.7730   -3.8510 C   0  0  0  0  0  0  0  0  0  0  0  0
    5.1370   11.6240   -3.4010 C   0  0  2  0  0  0  0  0  0  0  0  0
    6.0830   12.4120   -4.1360 O   0  0  0  0  0  0  0  0  0  0  0  0
    6.2210   10.9860   -4.2500 C   0  0  0  0  0  0  0  0  0  0  0  0
    5.9290   10.4540   -5.6180 C   0  0  0  0  0  0  0  0  0  0  0  0
    7.4370   10.4420   -3.5670 C   0  0  0  0  0  0  0  0  0  0  0  0
    0.7930   11.5220   -3.2400 C   0  0  1  0  0  0  0  0  0  0  0  0
    1.8230   10.3640   -3.1660 C   0  0  0  0  0  0  0  0  0  0  0  0
    1.2160    9.2830   -2.2350 C   0  0  0  0  0  0  0  0  0  0  0  0
   -0.2660    9.6960   -2.0720 C   0  0  1  0  0  0  0  0  0  0  0  0
   -0.9730    9.1660   -3.3590 C   0  0  0  0  0  0  0  0  0  0  0  0
   -0.9830    9.2020   -0.7740 C   0  0  2  0  0  0  0  0  0  0  0  0
   -1.0920    7.6740   -0.6300 C   0  0  0  0  0  0  0  0  0  0  0  0
   -2.3280    7.0660   -1.2070 C   0  0  0  0  0  0  0  0  0  0  0  0
   -3.4390    7.7390   -1.5600 C   0  0  0  0  0  0  0  0  0  0  0  0
   -3.5640    9.2460   -1.2990 C   0  0  1  0  0  0  0  0  0  0  0  0
   -4.9500    9.5490   -0.6720 C   0  0  0  0  0  0  0  0  0  0  0  0
   -6.1030    9.0040   -1.5090 C   0  0  0  0  0  0  0  0  0  0  0  0
   -5.9740    7.4950   -1.6980 C   0  0  2  0  0  0  0  0  0  0  0  0
   -6.1500    6.8550   -0.4300 O   0  0  0  0  0  0  0  0  0  0  0  0
   -4.6130    7.0680   -2.3150 C   0  0  0  0  0  0  0  0  0  0  0  0
   -4.5530    7.5090   -3.7980 C   0  0  0  0  0  0  0  0  0  0  0  0
   -4.5570    5.5170   -2.3200 C   0  0  0  0  0  0  0  0  0  0  0  0
   -2.3690    9.9110   -0.4890 C   0  0  1  0  0  0  0  0  0  0  0  0
   -2.6280    9.7820    1.0430 C   0  0  0  0  0  0  0  0  0  0  0  0
   -2.3290   11.4520   -0.8050 C   0  0  0  0  0  0  0  0  0  0  0  0
   -1.5060   11.8890   -2.0320 C   0  0  0  0  0  0  0  0  0  0  0  0
   -0.1100   11.2590   -2.0080 C   0  0  2  0  0  0  0  0  0  0  0  0
    0.6340   11.7920   -0.7370 C   0  0  0  0  0  0  0  0  0  0  0  0
    0.8457   14.4976   -4.6572 H   0  0  0  0  0  0  0  0  0  0  0  0
    2.1891   13.4860   -5.2886 H   0  0  0  0  0  0  0  0  0  0  0  0
    0.5092   12.8499   -5.2886 H   0  0  0  0  0  0  0  0  0  0  0  0
    0.9936   13.5824   -2.6229 H   0  0  0  0  0  0  0  0  0  0  0  0
    3.4127   13.7707   -3.1203 H   0  0  0  0  0  0  0  0  0  0  0  0
    3.0098   12.4252   -1.9498 H   0  0  0  0  0  0  0  0  0  0  0  0
    3.2154   10.7953   -3.7835 H   0  0  0  0  0  0  0  0  0  0  0  0
    3.7202   12.1423   -4.8871 H   0  0  0  0  0  0  0  0  0  0  0  0
    4.8154   11.4512   -2.3634 H   0  0  0  0  0  0  0  0  0  0  0  0
    5.4013    9.4926   -5.5326 H   0  0  0  0  0  0  0  0  0  0  0  0
    5.2982   11.1713   -6.1634 H   0  0  0  0  0  0  0  0  0  0  0  0
    6.8729   10.3070   -6.1634 H   0  0  0  0  0  0  0  0  0  0  0  0
    7.3029   10.5020   -2.4769 H   0  0  0  0  0  0  0  0  0  0  0  0
    7.5840    9.3923   -3.8611 H   0  0  0  0  0  0  0  0  0  0  0  0
    8.3176   11.0320   -3.8611 H   0  0  0  0  0  0  0  0  0  0  0  0
    0.1839   11.5428   -4.1557 H   0  0  0  0  0  0  0  0  0  0  0  0
    1.9958    9.9463   -4.1688 H   0  0  0  0  0  0  0  0  0  0  0  0
    2.7896   10.7198   -2.7798 H   0  0  0  0  0  0  0  0  0  0  0  0
    1.2932    8.2867   -2.6948 H   0  0  0  0  0  0  0  0  0  0  0  0
    1.7404    9.2212   -1.2700 H   0  0  0  0  0  0  0  0  0  0  0  0
   -1.8232    8.5287   -3.0743 H   0  0  0  0  0  0  0  0  0  0  0  0
   -1.3357   10.0166   -3.9548 H   0  0  0  0  0  0  0  0  0  0  0  0
   -0.2583    8.5793   -3.9548 H   0  0  0  0  0  0  0  0  0  0  0  0
   -0.2905    9.5272    0.0164 H   0  0  0  0  0  0  0  0  0  0  0  0
   -0.2242    7.2223   -1.1329 H   0  0  0  0  0  0  0  0  0  0  0  0
   -1.1290    7.4718    0.4506 H   0  0  0  0  0  0  0  0  0  0  0  0
   -2.3307    5.9762   -1.3561 H   0  0  0  0  0  0  0  0  0  0  0  0
   -3.4843    9.7329   -2.2822 H   0  0  0  0  0  0  0  0  0  0  0  0
   -4.9926    9.0911    0.3273 H   0  0  0  0  0  0  0  0  0  0  0  0
   -5.0617   10.6422   -0.6218 H   0  0  0  0  0  0  0  0  0  0  0  0
   -7.0529    9.2231   -0.9993 H   0  0  0  0  0  0  0  0  0  0  0  0
   -6.0772    9.4852   -2.4978 H   0  0  0  0  0  0  0  0  0  0  0  0
   -6.7518    7.1845   -2.4112 H   0  0  0  0  0  0  0  0  0  0  0  0
   -5.6360    7.3570    0.2260 H   0  0  0  0  0  0  0  0  0  0  0  0
   -4.4049    8.5977   -3.8511 H   0  0  0  0  0  0  0  0  0  0  0  0
   -3.7158    7.0002   -4.2982 H   0  0  0  0  0  0  0  0  0  0  0  0
   -5.4957    7.2424   -4.2982 H   0  0  0  0  0  0  0  0  0  0  0  0
   -4.5436    5.1472   -1.2841 H   0  0  0  0  0  0  0  0  0  0  0  0
   -5.4414    5.1198   -2.8397 H   0  0  0  0  0  0  0  0  0  0  0  0
   -3.6463    5.1846   -2.8397 H   0  0  0  0  0  0  0  0  0  0  0  0
   -1.7767   10.2060    1.5958 H   0  0  0  0  0  0  0  0  0  0  0  0
   -3.5454   10.3284    1.3071 H   0  0  0  0  0  0  0  0  0  0  0  0
   -2.7446    8.7205    1.3071 H   0  0  0  0  0  0  0  0  0  0  0  0
   -3.3650   11.7861   -0.9632 H   0  0  0  0  0  0  0  0  0  0  0  0
   -1.8234   11.9095    0.0582 H   0  0  0  0  0  0  0  0  0  0  0  0
   -2.0281   11.5723   -2.9469 H   0  0  0  0  0  0  0  0  0  0  0  0
   -1.3975   12.9834   -2.0101 H   0  0  0  0  0  0  0  0  0  0  0  0
    0.1240   11.4266    0.1666 H   0  0  0  0  0  0  0  0  0  0  0  0
    1.6733   11.4317   -0.7425 H   0  0  0  0  0  0  0  0  0  0  0  0
    0.6272   12.8920   -0.7425 H   0  0  0  0  0  0  0  0  0  0  0  0
  1  2  1  0
  2  3  1  0
  3  4  1  0
  4  5  1  0
  5  6  1  0
  6  7  1  0
  7  8  1  0
  7  9  1  0
  2 10  1  0
 10 11  1  0
 11 12  1  0
 12 13  1  0
 13 14  1  6
 13 15  1  0
 15 16  1  0
 16 17  1  0
 17 18  2  0
 18 19  1  0
 19 20  1  0
 20 21  1  0
 21 22  1  0
 22 23  1  0
 22 24  1  0
 24 25  1  0
 24 26  1  0
 19 27  1  0
 27 28  1  1
 27 29  1  0
 29 30  1  0
 30 31  1  0
 31 32  1  1
  7  5  1  0
 31 10  1  0
 31 13  1  0
 27 15  1  0
 24 18  1  0
  1 33  1  0
  1 34  1  0
  1 35  1  0
  2 36  1  1
  3 37  1  0
  3 38  1  0
  4 39  1  0
  4 40  1  0
  5 41  1  1
  8 42  1  0
  8 43  1  0
  8 44  1  0
  9 45  1  0
  9 46  1  0
  9 47  1  0
 10 48  1  6
 11 49  1  0
 11 50  1  0
 12 51  1  0
 12 52  1  0
 14 53  1  0
 14 54  1  0
 14 55  1  0
 15 56  1  1
 16 57  1  0
 16 58  1  0
 17 59  1  0
 19 60  1  6
 20 61  1  0
 20 62  1  0
 21 63  1  0
 21 64  1  0
 22 65  1  6
 23 66  1  0
 25 67  1  0
 25 68  1  0
 25 69  1  0
 26 70  1  0
 26 71  1  0
 26 72  1  0
 28 73  1  0
 28 74  1  0
 28 75  1  0
 29 76  1  0
 29 77  1  0
 30 78  1  0
 30 79  1  0
 32 80  1  0
 32 81  1  0
 32 82  1  0
M  END
>  <meeko>  (12) 
{"is_sidechain": [false], "intermolecular_energy": 2.731, "internal_energy": -0.839}

$$$$
EPH_relaxed_0001_pdb2pqr_Repair_252_r2_0001_out
     RDKit          3D

 82 86  0  0  0  0  0  0  0  0999 V2000
    3.0420   12.1880   -5.5970 C   0  0  0  0  0  0  0  0  0  0  0  0
    1.6560   12.8400   -5.5750 C   0  0  2  0  0  0  0  0  0  0  0  0
    1.7360   14.3780   -5.6630 C   0  0  0  0  0  0  0  0  0  0  0  0
    0.9450   14.9690   -6.8320 C   0  0  0  0  0  0  0  0  0  0  0  0
    1.7440   14.9650   -8.1000 C   0  0  2  0  0  0  0  0  0  0  0  0
    2.4670   16.1760   -8.3570 O   0  0  0  0  0  0  0  0  0  0  0  0
    1.4270   15.8490   -9.2920 C   0  0  0  0  0  0  0  0  0  0  0  0
    0.2710   16.7990   -9.2730 C   0  0  0  0  0  0  0  0  0  0  0  0
    1.9340   15.4420  -10.6400 C   0  0  0  0  0  0  0  0  0  0  0  0
    0.9090   12.4290   -4.3120 C   0  0  1  0  0  0  0  0  0  0  0  0
   -0.1630   11.3390   -4.5810 C   0  0  0  0  0  0  0  0  0  0  0  0
   -0.1930   10.4230   -3.3310 C   0  0  0  0  0  0  0  0  0  0  0  0
    0.6110   11.1970   -2.2610 C   0  0  1  0  0  0  0  0  0  0  0  0
   -0.3970   12.2370   -1.6770 C   0  0  0  0  0  0  0  0  0  0  0  0
    1.2690   10.3360   -1.1330 C   0  0  2  0  0  0  0  0  0  0  0  0
    0.2810    9.5590   -0.2460 C   0  0  0  0  0  0  0  0  0  0  0  0
   -0.1900   10.2840    0.9710 C   0  0  0  0  0  0  0  0  0  0  0  0
    0.3760   11.3900    1.4900 C   0  0  0  0  0  0  0  0  0  0  0  0
    1.6670   11.9670    0.8970 C   0  0  1  0  0  0  0  0  0  0  0  0
    2.6600   12.2990    2.0420 C   0  0  0  0  0  0  0  0  0  0  0  0
    2.0480   13.2090    3.1020 C   0  0  0  0  0  0  0  0  0  0  0  0
    0.7990   12.5760    3.7090 C   0  0  2  0  0  0  0  0  0  0  0  0
    1.1850   11.4130    4.4490 O   0  0  0  0  0  0  0  0  0  0  0  0
   -0.2700   12.1890    2.6490 C   0  0  0  0  0  0  0  0  0  0  0  0
   -0.9060   13.4730    2.0600 C   0  0  0  0  0  0  0  0  0  0  0  0
   -1.4140   11.4340    3.3770 C   0  0  0  0  0  0  0  0  0  0  0  0
    2.3380   11.1140   -0.2640 C   0  0  1  0  0  0  0  0  0  0  0  0
    3.2850   10.0360    0.3460 C   0  0  0  0  0  0  0  0  0  0  0  0
    3.2460   12.0590   -1.1380 C   0  0  0  0  0  0  0  0  0  0  0  0
    2.5630   12.7900   -2.3100 C   0  0  0  0  0  0  0  0  0  0  0  0
    1.7430   11.8150   -3.1600 C   0  0  2  0  0  0  0  0  0  0  0  0
    2.7320   10.7690   -3.7780 C   0  0  0  0  0  0  0  0  0  0  0  0
    3.3872   12.0256   -4.5653 H   0  0  0  0  0  0  0  0  0  0  0  0
    2.9847   11.2224   -6.1208 H   0  0  0  0  0  0  0  0  0  0  0  0
    3.7493   12.8478   -6.1208 H   0  0  0  0  0  0  0  0  0  0  0  0
    1.1098   12.4867   -6.4620 H   0  0  0  0  0  0  0  0  0  0  0  0
    1.3408   14.8004   -4.7274 H   0  0  0  0  0  0  0  0  0  0  0  0
    2.7927   14.6362   -5.8266 H   0  0  0  0  0  0  0  0  0  0  0  0
    0.0332   14.3725   -6.9833 H   0  0  0  0  0  0  0  0  0  0  0  0
    0.6973   16.0121   -6.5860 H   0  0  0  0  0  0  0  0  0  0  0  0
    1.9238   13.8835   -8.0102 H   0  0  0  0  0  0  0  0  0  0  0  0
   -0.0021   17.0234   -8.2313 H   0  0  0  0  0  0  0  0  0  0  0  0
    0.5529   17.7299   -9.7868 H   0  0  0  0  0  0  0  0  0  0  0  0
   -0.5876   16.3421   -9.7868 H   0  0  0  0  0  0  0  0  0  0  0  0
    2.7867   14.7575  -10.5197 H   0  0  0  0  0  0  0  0  0  0  0  0
    1.1317   14.9343  -11.1955 H   0  0  0  0  0  0  0  0  0  0  0  0
    2.2562   16.3351  -11.1955 H   0  0  0  0  0  0  0  0  0  0  0  0
    0.5099   13.4076   -4.0069 H   0  0  0  0  0  0  0  0  0  0  0  0
   -1.1476   11.8054   -4.7326 H   0  0  0  0  0  0  0  0  0  0  0  0
    0.0779   10.7632   -5.4868 H   0  0  0  0  0  0  0  0  0  0  0  0
   -1.2274   10.2578   -2.9954 H   0  0  0  0  0  0  0  0  0  0  0  0
    0.2308    9.4281   -3.5326 H   0  0  0  0  0  0  0  0  0  0  0  0
   -0.3637   12.2027   -0.5780 H   0  0  0  0  0  0  0  0  0  0  0  0
   -0.1237   13.2455   -2.0208 H   0  0  0  0  0  0  0  0  0  0  0  0
   -1.4136   11.9954   -2.0208 H   0  0  0  0  0  0  0  0  0  0  0  0
    1.8179    9.5747   -1.7066 H   0  0  0  0  0  0  0  0  0  0  0  0
   -0.6001    9.3105   -0.8558 H   0  0  0  0  0  0  0  0  0  0  0  0
    0.8281    8.6769    0.1181 H   0  0  0  0  0  0  0  0  0  0  0  0
   -1.0737    9.8808    1.4871 H   0  0  0  0  0  0  0  0  0  0  0  0
    1.3758   12.8910    0.3760 H   0  0  0  0  0  0  0  0  0  0  0  0
    2.9721   11.3595    2.5215 H   0  0  0  0  0  0  0  0  0  0  0  0
    3.5147   12.8309    1.5987 H   0  0  0  0  0  0  0  0  0  0  0  0
    2.7871   13.3821    3.8981 H   0  0  0  0  0  0  0  0  0  0  0  0
    1.7644   14.1598    2.6272 H   0  0  0  0  0  0  0  0  0  0  0  0
    0.3336   13.3278    4.3633 H   0  0  0  0  0  0  0  0  0  0  0  0
    1.3570   11.6900    5.3650 H   0  0  0  0  0  0  0  0  0  0  0  0
   -1.2315   14.1302    2.8798 H   0  0  0  0  0  0  0  0  0  0  0  0
   -0.1642   13.9989    1.4410 H   0  0  0  0  0  0  0  0  0  0  0  0
   -1.7738   13.2016    1.4410 H   0  0  0  0  0  0  0  0  0  0  0  0
   -1.2783   11.5236    4.4649 H   0  0  0  0  0  0  0  0  0  0  0  0
   -2.3820   11.8713    3.0910 H   0  0  0  0  0  0  0  0  0  0  0  0
   -1.3926   10.3720    3.0910 H   0  0  0  0  0  0  0  0  0  0  0  0
    3.2399   10.0873    1.4439 H   0  0  0  0  0  0  0  0  0  0  0  0
    2.9668    9.0373    0.0122 H   0  0  0  0  0  0  0  0  0  0  0  0
    4.3164   10.2228    0.0122 H   0  0  0  0  0  0  0  0  0  0  0  0
    3.6698   12.8238   -0.4705 H   0  0  0  0  0  0  0  0  0  0  0  0
    3.9866   11.3939   -1.6062 H   0  0  0  0  0  0  0  0  0  0  0  0
    1.8958   13.5675   -1.9095 H   0  0  0  0  0  0  0  0  0  0  0  0
    3.3410   13.2401   -2.9442 H   0  0  0  0  0  0  0  0  0  0  0  0
    3.2446   10.2269   -2.9697 H   0  0  0  0  0  0  0  0  0  0  0  0
    2.1703   10.0558   -4.3991 H   0  0  0  0  0  0  0  0  0  0  0  0
    3.4756   11.2899   -4.3991 H   0  0  0  0  0  0  0  0  0  0  0  0
  1  2  1  0
  2  3  1  0
  3  4  1  0
  4  5  1  0
  5  6  1  0
  6  7  1  0
  7  8  1  0
  7  9  1  0
  2 10  1  0
 10 11  1  0
 11 12  1  0
 12 13  1  0
 13 14  1  1
 13 15  1  0
 15 16  1  0
 16 17  1  0
 17 18  2  0
 18 19  1  0
 19 20  1  0
 20 21  1  0
 21 22  1  0
 22 23  1  0
 22 24  1  0
 24 25  1  0
 24 26  1  0
 19 27  1  0
 27 28  1  1
 27 29  1  0
 29 30  1  0
 30 31  1  0
 31 32  1  6
  7  5  1  0
 31 10  1  0
 31 13  1  0
 27 15  1  0
 24 18  1  0
  1 33  1  0
  1 34  1  0
  1 35  1  0
  2 36  1  6
  3 37  1  0
  3 38  1  0
  4 39  1  0
  4 40  1  0
  5 41  1  6
  8 42  1  0
  8 43  1  0
  8 44  1  0
  9 45  1  0
  9 46  1  0
  9 47  1  0
 10 48  1  1
 11 49  1  0
 11 50  1  0
 12 51  1  0
 12 52  1  0
 14 53  1  0
 14 54  1  0
 14 55  1  0
 15 56  1  6
 16 57  1  0
 16 58  1  0
 17 59  1  0
 19 60  1  6
 20 61  1  0
 20 62  1  0
 21 63  1  0
 21 64  1  0
 22 65  1  1
 23 66  1  0
 25 67  1  0
 25 68  1  0
 25 69  1  0
 26 70  1  0
 26 71  1  0
 26 72  1  0
 28 73  1  0
 28 74  1  0
 28 75  1  0
 29 76  1  0
 29 77  1  0
 30 78  1  0
 30 79  1  0
 32 80  1  0
 32 81  1  0
 32 82  1  0
M  END
>  <meeko>  (13) 
{"is_sidechain": [false], "intermolecular_energy": 2.731, "internal_energy": -0.839}

$$$$
EPH_relaxed_0001_pdb2pqr_Repair_252_r2_0001_out
     RDKit          3D

 82 86  0  0  0  0  0  0  0  0999 V2000
  -13.5920    9.6760    0.3660 C   0  0  0  0  0  0  0  0  0  0  0  0
  -13.0310    8.7520   -0.7190 C   0  0  2  0  0  0  0  0  0  0  0  0
  -13.9320    7.5240   -0.9580 C   0  0  0  0  0  0  0  0  0  0  0  0
  -15.1690    7.8240   -1.8100 C   0  0  0  0  0  0  0  0  0  0  0  0
  -14.9800    7.3930   -3.2330 C   0  0  2  0  0  0  0  0  0  0  0  0
  -13.7660    7.8500   -3.8410 O   0  0  0  0  0  0  0  0  0  0  0  0
  -14.9870    8.3540   -4.4060 C   0  0  0  0  0  0  0  0  0  0  0  0
  -15.1870    9.8240   -4.2100 C   0  0  0  0  0  0  0  0  0  0  0  0
  -15.2870    7.8160   -5.7710 C   0  0  0  0  0  0  0  0  0  0  0  0
  -11.6250    8.3010   -0.3410 C   0  0  1  0  0  0  0  0  0  0  0  0
  -11.6050    7.4140    0.9330 C   0  0  0  0  0  0  0  0  0  0  0  0
  -10.4790    6.3670    0.7310 C   0  0  0  0  0  0  0  0  0  0  0  0
   -9.6780    6.8850   -0.4870 C   0  0  1  0  0  0  0  0  0  0  0  0
   -8.7290    7.9790    0.0950 C   0  0  0  0  0  0  0  0  0  0  0  0
   -8.8890    5.8110   -1.3030 C   0  0  2  0  0  0  0  0  0  0  0  0
   -7.7840    5.0790   -0.5220 C   0  0  0  0  0  0  0  0  0  0  0  0
   -6.4330    5.7120   -0.5840 C   0  0  0  0  0  0  0  0  0  0  0  0
   -6.0520    6.6560   -1.4640 C   0  0  0  0  0  0  0  0  0  0  0  0
   -6.9920    7.1120   -2.5870 C   0  0  1  0  0  0  0  0  0  0  0  0
   -6.2130    7.1600   -3.9270 C   0  0  0  0  0  0  0  0  0  0  0  0
   -4.9510    8.0130   -3.8410 C   0  0  0  0  0  0  0  0  0  0  0  0
   -4.0150    7.4940   -2.7520 C   0  0  2  0  0  0  0  0  0  0  0  0
   -3.5240    6.2080   -3.1420 O   0  0  0  0  0  0  0  0  0  0  0  0
   -4.6940    7.3930   -1.3580 C   0  0  0  0  0  0  0  0  0  0  0  0
   -4.9540    8.8150   -0.8010 C   0  0  0  0  0  0  0  0  0  0  0  0
   -3.6860    6.7240   -0.3840 C   0  0  0  0  0  0  0  0  0  0  0  0
   -8.3640    6.3200   -2.7070 C   0  0  1  0  0  0  0  0  0  0  0  0
   -8.1710    5.0530   -3.5960 C   0  0  0  0  0  0  0  0  0  0  0  0
   -9.4180    7.2250   -3.4470 C   0  0  0  0  0  0  0  0  0  0  0  0
  -10.2510    8.1810   -2.5710 C   0  0  0  0  0  0  0  0  0  0  0  0
  -10.8530    7.4410   -1.3720 C   0  0  2  0  0  0  0  0  0  0  0  0
  -11.8300    6.3480   -1.9260 C   0  0  0  0  0  0  0  0  0  0  0  0
  -13.3450    9.2692    1.3577 H   0  0  0  0  0  0  0  0  0  0  0  0
  -13.1492   10.6773    0.2598 H   0  0  0  0  0  0  0  0  0  0  0  0
  -14.6847    9.7451    0.2598 H   0  0  0  0  0  0  0  0  0  0  0  0
  -12.9979    9.3248   -1.6575 H   0  0  0  0  0  0  0  0  0  0  0  0
  -13.3379    6.7515   -1.4683 H   0  0  0  0  0  0  0  0  0  0  0  0
  -14.2928    7.1936    0.0272 H   0  0  0  0  0  0  0  0  0  0  0  0
  -16.0317    7.2884   -1.3869 H   0  0  0  0  0  0  0  0  0  0  0  0
  -15.3365    8.9111   -1.8004 H   0  0  0  0  0  0  0  0  0  0  0  0
  -15.5223    6.4546   -3.0450 H   0  0  0  0  0  0  0  0  0  0  0  0
  -15.2177   10.0496   -3.1338 H   0  0  0  0  0  0  0  0  0  0  0  0
  -14.3552   10.3726   -4.6761 H   0  0  0  0  0  0  0  0  0  0  0  0
  -16.1351   10.1304   -4.6761 H   0  0  0  0  0  0  0  0  0  0  0  0
  -15.8208    6.8587   -5.6786 H   0  0  0  0  0  0  0  0  0  0  0  0
  -15.9147    8.5345   -6.3185 H   0  0  0  0  0  0  0  0  0  0  0  0
  -14.3458    7.6597   -6.3185 H   0  0  0  0  0  0  0  0  0  0  0  0
  -11.1396    9.2819   -0.2311 H   0  0  0  0  0  0  0  0  0  0  0  0
  -11.3952    8.0297    1.8201 H   0  0  0  0  0  0  0  0  0  0  0  0
  -12.5773    6.9236    1.0884 H   0  0  0  0  0  0  0  0  0  0  0  0
   -9.8369    6.3104    1.6224 H   0  0  0  0  0  0  0  0  0  0  0  0
  -10.8757    5.3539    0.5690 H   0  0  0  0  0  0  0  0  0  0  0  0
   -8.7595    7.9439    1.1940 H   0  0  0  0  0  0  0  0  0  0  0  0
   -7.7009    7.7935   -0.2494 H   0  0  0  0  0  0  0  0  0  0  0  0
   -9.0578    8.9706   -0.2494 H   0  0  0  0  0  0  0  0  0  0  0  0
   -9.6619    5.0550   -1.5057 H   0  0  0  0  0  0  0  0  0  0  0  0
   -8.0888    5.0310    0.5338 H   0  0  0  0  0  0  0  0  0  0  0  0
   -7.6795    4.0917   -0.9956 H   0  0  0  0  0  0  0  0  0  0  0  0
   -5.6863    5.3785    0.1517 H   0  0  0  0  0  0  0  0  0  0  0  0
   -7.3249    8.1239   -2.3125 H   0  0  0  0  0  0  0  0  0  0  0  0
   -5.9272    6.1349   -4.2054 H   0  0  0  0  0  0  0  0  0  0  0  0
   -6.8727    7.6156   -4.6801 H   0  0  0  0  0  0  0  0  0  0  0  0
   -4.4292    7.9825   -4.8089 H   0  0  0  0  0  0  0  0  0  0  0  0
   -5.2407    9.0447   -3.5927 H   0  0  0  0  0  0  0  0  0  0  0  0
   -3.1940    8.2188   -2.6490 H   0  0  0  0  0  0  0  0  0  0  0  0
   -2.9830    6.3290   -3.9410 H   0  0  0  0  0  0  0  0  0  0  0  0
   -4.9485    8.7848    0.2986 H   0  0  0  0  0  0  0  0  0  0  0  0
   -4.1656    9.4965   -1.1530 H   0  0  0  0  0  0  0  0  0  0  0  0
   -5.9326    9.1734   -1.1530 H   0  0  0  0  0  0  0  0  0  0  0  0
   -3.9899    6.9257    0.6538 H   0  0  0  0  0  0  0  0  0  0  0  0
   -3.6737    5.6379   -0.5580 H   0  0  0  0  0  0  0  0  0  0  0  0
   -2.6804    7.1346   -0.5580 H   0  0  0  0  0  0  0  0  0  0  0  0
   -8.0366    4.1708   -2.9528 H   0  0  0  0  0  0  0  0  0  0  0  0
   -9.0580    4.9121   -4.2311 H   0  0  0  0  0  0  0  0  0  0  0  0
   -7.2822    5.1826   -4.2311 H   0  0  0  0  0  0  0  0  0  0  0  0
   -8.8738    7.8364   -4.1819 H   0  0  0  0  0  0  0  0  0  0  0  0
  -10.1463    6.5232   -3.8795 H   0  0  0  0  0  0  0  0  0  0  0  0
   -9.6028    8.9911   -2.2055 H   0  0  0  0  0  0  0  0  0  0  0  0
  -11.0714    8.5894   -3.1794 H   0  0  0  0  0  0  0  0  0  0  0  0
  -12.3029    5.8189   -1.0855 H   0  0  0  0  0  0  0  0  0  0  0  0
  -12.6060    6.8275   -2.5407 H   0  0  0  0  0  0  0  0  0  0  0  0
  -11.2668    5.6304   -2.5407 H   0  0  0  0  0  0  0  0  0  0  0  0
  1  2  1  0
  2  3  1  0
  3  4  1  0
  4  5  1  0
  5  6  1  0
  6  7  1  0
  7  8  1  0
  7  9  1  0
  2 10  1  0
 10 11  1  0
 11 12  1  0
 12 13  1  0
 13 14  1  1
 13 15  1  0
 15 16  1  0
 16 17  1  0
 17 18  2  0
 18 19  1  0
 19 20  1  0
 20 21  1  0
 21 22  1  0
 22 23  1  0
 22 24  1  0
 24 25  1  0
 24 26  1  0
 19 27  1  0
 27 28  1  6
 27 29  1  0
 29 30  1  0
 30 31  1  0
 31 32  1  6
  7  5  1  0
 31 10  1  0
 31 13  1  0
 27 15  1  0
 24 18  1  0
  1 33  1  0
  1 34  1  0
  1 35  1  0
  2 36  1  6
  3 37  1  0
  3 38  1  0
  4 39  1  0
  4 40  1  0
  5 41  1  6
  8 42  1  0
  8 43  1  0
  8 44  1  0
  9 45  1  0
  9 46  1  0
  9 47  1  0
 10 48  1  1
 11 49  1  0
 11 50  1  0
 12 51  1  0
 12 52  1  0
 14 53  1  0
 14 54  1  0
 14 55  1  0
 15 56  1  6
 16 57  1  0
 16 58  1  0
 17 59  1  0
 19 60  1  1
 20 61  1  0
 20 62  1  0
 21 63  1  0
 21 64  1  0
 22 65  1  1
 23 66  1  0
 25 67  1  0
 25 68  1  0
 25 69  1  0
 26 70  1  0
 26 71  1  0
 26 72  1  0
 28 73  1  0
 28 74  1  0
 28 75  1  0
 29 76  1  0
 29 77  1  0
 30 78  1  0
 30 79  1  0
 32 80  1  0
 32 81  1  0
 32 82  1  0
M  END
>  <meeko>  (14) 
{"is_sidechain": [false], "intermolecular_energy": 2.731, "internal_energy": -0.839}

$$$$
EPH_relaxed_0001_pdb2pqr_Repair_252_r2_0001_out
     RDKit          3D

 82 86  0  0  0  0  0  0  0  0999 V2000
   -1.0020   12.1590   -1.7000 C   0  0  0  0  0  0  0  0  0  0  0  0
   -0.7800   10.6980   -1.3010 C   0  0  2  0  0  0  0  0  0  0  0  0
    0.6450   10.2130   -1.6380 C   0  0  0  0  0  0  0  0  0  0  0  0
    1.7280   11.2640   -1.3810 C   0  0  0  0  0  0  0  0  0  0  0  0
    2.8250   11.1900   -2.4000 C   0  0  2  0  0  0  0  0  0  0  0  0
    3.4480   12.4450   -2.7010 O   0  0  0  0  0  0  0  0  0  0  0  0
    2.7300   11.8190   -3.7780 C   0  0  0  0  0  0  0  0  0  0  0  0
    1.5090   12.5680   -4.2110 C   0  0  0  0  0  0  0  0  0  0  0  0
    3.6140   11.2940   -4.8660 C   0  0  0  0  0  0  0  0  0  0  0  0
   -1.8090    9.8090   -1.9900 C   0  0  1  0  0  0  0  0  0  0  0  0
   -1.1700    8.8530   -3.0320 C   0  0  0  0  0  0  0  0  0  0  0  0
   -1.9830    7.5340   -2.9870 C   0  0  0  0  0  0  0  0  0  0  0  0
   -3.2510    7.8850   -2.1740 C   0  0  1  0  0  0  0  0  0  0  0  0
   -4.2020    8.5840   -3.1950 C   0  0  0  0  0  0  0  0  0  0  0  0
   -3.9580    6.6940   -1.4480 C   0  0  2  0  0  0  0  0  0  0  0  0
   -4.5060    5.5970   -2.3770 C   0  0  0  0  0  0  0  0  0  0  0  0
   -5.9160    5.7900   -2.8300 C   0  0  0  0  0  0  0  0  0  0  0  0
   -6.8020    6.6440   -2.2850 C   0  0  0  0  0  0  0  0  0  0  0  0
   -6.4450    7.4590   -1.0350 C   0  0  1  0  0  0  0  0  0  0  0  0
   -7.6110    7.3800   -0.0150 C   0  0  0  0  0  0  0  0  0  0  0  0
   -8.9470    7.7970   -0.6210 C   0  0  0  0  0  0  0  0  0  0  0  0
   -9.2960    6.9270   -1.8250 C   0  0  2  0  0  0  0  0  0  0  0  0
   -9.5350    5.5900   -1.3740 O   0  0  0  0  0  0  0  0  0  0  0  0
   -8.1890    6.9200   -2.9160 C   0  0  0  0  0  0  0  0  0  0  0  0
   -8.1390    8.3010   -3.6160 C   0  0  0  0  0  0  0  0  0  0  0  0
   -8.6010    5.8960   -4.0080 C   0  0  0  0  0  0  0  0  0  0  0  0
   -5.0350    7.1360   -0.3760 C   0  0  1  0  0  0  0  0  0  0  0  0
   -5.1760    5.9510    0.6280 C   0  0  0  0  0  0  0  0  0  0  0  0
   -4.5650    8.3790    0.4680 C   0  0  0  0  0  0  0  0  0  0  0  0
   -3.7670    9.4650   -0.2800 C   0  0  0  0  0  0  0  0  0  0  0  0
   -2.6290    8.8450   -1.0960 C   0  0  2  0  0  0  0  0  0  0  0  0
   -1.6430    8.1530   -0.0930 C   0  0  0  0  0  0  0  0  0  0  0  0
   -1.0958   12.7762   -0.7943 H   0  0  0  0  0  0  0  0  0  0  0  0
   -0.1469   12.5103   -2.2962 H   0  0  0  0  0  0  0  0  0  0  0  0
   -1.9228   12.2404   -2.2962 H   0  0  0  0  0  0  0  0  0  0  0  0
   -0.9016   10.6313   -0.2098 H   0  0  0  0  0  0  0  0  0  0  0  0
    0.8658    9.3286   -1.0223 H   0  0  0  0  0  0  0  0  0  0  0  0
    0.6627    9.9888   -2.7148 H   0  0  0  0  0  0  0  0  0  0  0  0
    1.2711   12.2638   -1.4209 H   0  0  0  0  0  0  0  0  0  0  0  0
    2.1660   11.0701   -0.3908 H   0  0  0  0  0  0  0  0  0  0  0  0
    3.0970   10.1770   -2.0686 H   0  0  0  0  0  0  0  0  0  0  0  0
    0.9540   12.9084   -3.3244 H   0  0  0  0  0  0  0  0  0  0  0  0
    1.8073   13.4386   -4.8135 H   0  0  0  0  0  0  0  0  0  0  0  0
    0.8681   11.9075   -4.8135 H   0  0  0  0  0  0  0  0  0  0  0  0
    4.4786   10.7805   -4.4202 H   0  0  0  0  0  0  0  0  0  0  0  0
    3.0479   10.5856   -5.4887 H   0  0  0  0  0  0  0  0  0  0  0  0
    3.9651   12.1301   -5.4887 H   0  0  0  0  0  0  0  0  0  0  0  0
   -2.4674   10.5825   -2.4121 H   0  0  0  0  0  0  0  0  0  0  0  0
   -1.2242    9.2972   -4.0368 H   0  0  0  0  0  0  0  0  0  0  0  0
   -0.1096    8.6712   -2.8029 H   0  0  0  0  0  0  0  0  0  0  0  0
   -2.2509    7.2081   -4.0029 H   0  0  0  0  0  0  0  0  0  0  0  0
   -1.4135    6.7081   -2.5359 H   0  0  0  0  0  0  0  0  0  0  0  0
   -4.9722    9.1501   -2.6505 H   0  0  0  0  0  0  0  0  0  0  0  0
   -3.6202    9.2710   -3.8271 H   0  0  0  0  0  0  0  0  0  0  0  0
   -4.6840    7.8236   -3.8271 H   0  0  0  0  0  0  0  0  0  0  0  0
   -3.1291    6.2292   -0.8940 H   0  0  0  0  0  0  0  0  0  0  0  0
   -3.8648    5.5562   -3.2698 H   0  0  0  0  0  0  0  0  0  0  0  0
   -4.5003    4.6683   -1.7875 H   0  0  0  0  0  0  0  0  0  0  0  0
   -6.2593    5.1830   -3.6807 H   0  0  0  0  0  0  0  0  0  0  0  0
   -6.3164    8.4971   -1.3753 H   0  0  0  0  0  0  0  0  0  0  0  0
   -7.6951    6.3440    0.3450 H   0  0  0  0  0  0  0  0  0  0  0  0
   -7.3846    8.0765    0.8057 H   0  0  0  0  0  0  0  0  0  0  0  0
   -9.7352    7.6924    0.1391 H   0  0  0  0  0  0  0  0  0  0  0  0
   -8.8698    8.8424   -0.9543 H   0  0  0  0  0  0  0  0  0  0  0  0
  -10.1951    7.3552   -2.2923 H   0  0  0  0  0  0  0  0  0  0  0  0
  -10.4950    5.4840   -1.2650 H   0  0  0  0  0  0  0  0  0  0  0  0
   -8.1102    9.0962   -2.8565 H   0  0  0  0  0  0  0  0  0  0  0  0
   -7.2381    8.3612   -4.2443 H   0  0  0  0  0  0  0  0  0  0  0  0
   -9.0332    8.4262   -4.2443 H   0  0  0  0  0  0  0  0  0  0  0  0
   -8.9705    4.9775   -3.5286 H   0  0  0  0  0  0  0  0  0  0  0  0
   -9.3954    6.3278   -4.6345 H   0  0  0  0  0  0  0  0  0  0  0  0
   -7.7289    5.6573   -4.6345 H   0  0  0  0  0  0  0  0  0  0  0  0
   -5.1303    6.3354    1.6576 H   0  0  0  0  0  0  0  0  0  0  0  0
   -6.1404    5.4470    0.4673 H   0  0  0  0  0  0  0  0  0  0  0  0
   -4.3567    5.2348    0.4673 H   0  0  0  0  0  0  0  0  0  0  0  0
   -5.4634    8.8555    0.8873 H   0  0  0  0  0  0  0  0  0  0  0  0
   -3.8676    7.9726    1.2153 H   0  0  0  0  0  0  0  0  0  0  0  0
   -4.4434   10.0053   -0.9586 H   0  0  0  0  0  0  0  0  0  0  0  0
   -3.3331   10.1536    0.4600 H   0  0  0  0  0  0  0  0  0  0  0  0
   -1.9555    8.3723    0.9386 H   0  0  0  0  0  0  0  0  0  0  0  0
   -1.6567    7.0654   -0.2569 H   0  0  0  0  0  0  0  0  0  0  0  0
   -0.6248    8.5357   -0.2569 H   0  0  0  0  0  0  0  0  0  0  0  0
  1  2  1  0
  2  3  1  0
  3  4  1  0
  4  5  1  0
  5  6  1  0
  6  7  1  0
  7  8  1  0
  7  9  1  0
  2 10  1  0
 10 11  1  0
 11 12  1  0
 12 13  1  0
 13 14  1  6
 13 15  1  0
 15 16  1  0
 16 17  1  0
 17 18  2  0
 18 19  1  0
 19 20  1  0
 20 21  1  0
 21 22  1  0
 22 23  1  0
 22 24  1  0
 24 25  1  0
 24 26  1  0
 19 27  1  0
 27 28  1  1
 27 29  1  0
 29 30  1  0
 30 31  1  0
 31 32  1  1
  7  5  1  0
 31 10  1  0
 31 13  1  0
 27 15  1  0
 24 18  1  0
  1 33  1  0
  1 34  1  0
  1 35  1  0
  2 36  1  1
  3 37  1  0
  3 38  1  0
  4 39  1  0
  4 40  1  0
  5 41  1  6
  8 42  1  0
  8 43  1  0
  8 44  1  0
  9 45  1  0
  9 46  1  0
  9 47  1  0
 10 48  1  6
 11 49  1  0
 11 50  1  0
 12 51  1  0
 12 52  1  0
 14 53  1  0
 14 54  1  0
 14 55  1  0
 15 56  1  1
 16 57  1  0
 16 58  1  0
 17 59  1  0
 19 60  1  6
 20 61  1  0
 20 62  1  0
 21 63  1  0
 21 64  1  0
 22 65  1  6
 23 66  1  0
 25 67  1  0
 25 68  1  0
 25 69  1  0
 26 70  1  0
 26 71  1  0
 26 72  1  0
 28 73  1  0
 28 74  1  0
 28 75  1  0
 29 76  1  0
 29 77  1  0
 30 78  1  0
 30 79  1  0
 32 80  1  0
 32 81  1  0
 32 82  1  0
M  END
>  <meeko>  (15) 
{"is_sidechain": [false], "intermolecular_energy": 2.731, "internal_energy": -0.839}

$$$$
