EPH_relaxed_0001_pdb2pqr_Repair_270_r2_0001_out
     RDKit          3D

 82 86  0  0  0  0  0  0  0  0999 V2000
   -1.5950    8.5620   -1.8130 C   0  0  0  0  0  0  0  0  0  0  0  0
   -2.0010    9.1470   -0.4580 C   0  0  2  0  0  0  0  0  0  0  0  0
   -3.4880    9.5540   -0.4220 C   0  0  0  0  0  0  0  0  0  0  0  0
   -4.4470    8.3690   -0.2790 C   0  0  0  0  0  0  0  0  0  0  0  0
   -5.0840    8.0100   -1.5870 C   0  0  2  0  0  0  0  0  0  0  0  0
   -6.3390    8.6560   -1.8390 O   0  0  0  0  0  0  0  0  0  0  0  0
   -6.3780    7.2260   -1.7000 C   0  0  0  0  0  0  0  0  0  0  0  0
   -7.1120    6.7520   -0.4850 C   0  0  0  0  0  0  0  0  0  0  0  0
   -6.6680    6.5040   -2.9790 C   0  0  0  0  0  0  0  0  0  0  0  0
   -1.1240   10.3500   -0.1280 C   0  0  1  0  0  0  0  0  0  0  0  0
   -0.0440   10.0270    0.9390 C   0  0  0  0  0  0  0  0  0  0  0  0
    1.2120   10.8570    0.5700 C   0  0  0  0  0  0  0  0  0  0  0  0
    0.7120   11.8710   -0.4860 C   0  0  1  0  0  0  0  0  0  0  0  0
    0.0440   13.0140    0.3390 C   0  0  0  0  0  0  0  0  0  0  0  0
    1.7890   12.4260   -1.4740 C   0  0  2  0  0  0  0  0  0  0  0  0
    2.9240   13.2310   -0.8180 C   0  0  0  0  0  0  0  0  0  0  0  0
    2.6810   14.6990   -0.7010 C   0  0  0  0  0  0  0  0  0  0  0  0
    1.7280   15.3880   -1.3560 C   0  0  0  0  0  0  0  0  0  0  0  0
    0.8340   14.7010   -2.3970 C   0  0  1  0  0  0  0  0  0  0  0  0
    0.7510   15.5830   -3.6710 C   0  0  0  0  0  0  0  0  0  0  0  0
    0.3030   17.0100   -3.3660 C   0  0  0  0  0  0  0  0  0  0  0  0
    1.2490   17.6780   -2.3730 C   0  0  2  0  0  0  0  0  0  0  0  0
    2.5240   17.8540   -2.9970 O   0  0  0  0  0  0  0  0  0  0  0  0
    1.4200   16.8750   -1.0530 C   0  0  0  0  0  0  0  0  0  0  0  0
    0.1090   16.9410   -0.2300 C   0  0  0  0  0  0  0  0  0  0  0  0
    2.5050   17.5840   -0.1990 C   0  0  0  0  0  0  0  0  0  0  0  0
    1.1900   13.1880   -2.7250 C   0  0  1  0  0  0  0  0  0  0  0  0
    2.2730   13.1260   -3.8450 C   0  0  0  0  0  0  0  0  0  0  0  0
   -0.0880   12.4730   -3.3050 C   0  0  0  0  0  0  0  0  0  0  0  0
   -1.0530   11.8410   -2.2840 C   0  0  0  0  0  0  0  0  0  0  0  0
   -0.2950   10.9640   -1.2830 C   0  0  2  0  0  0  0  0  0  0  0  0
    0.3700    9.7910   -2.0820 C   0  0  0  0  0  0  0  0  0  0  0  0
   -0.9743    7.6677   -1.6551 H   0  0  0  0  0  0  0  0  0  0  0  0
   -2.4973    8.2869   -2.3788 H   0  0  0  0  0  0  0  0  0  0  0  0
   -1.0216    9.3111   -2.3788 H   0  0  0  0  0  0  0  0  0  0  0  0
   -1.8559    8.3614    0.2981 H   0  0  0  0  0  0  0  0  0  0  0  0
   -3.6423   10.2306    0.4314 H   0  0  0  0  0  0  0  0  0  0  0  0
   -3.7130   10.0353   -1.3852 H   0  0  0  0  0  0  0  0  0  0  0  0
   -3.8861    7.4997    0.0948 H   0  0  0  0  0  0  0  0  0  0  0  0
   -5.2438    8.6558    0.4230 H   0  0  0  0  0  0  0  0  0  0  0  0
   -4.0986    7.8789   -2.0579 H   0  0  0  0  0  0  0  0  0  0  0  0
   -6.5845    7.0926    0.4182 H   0  0  0  0  0  0  0  0  0  0  0  0
   -8.1327    7.1620   -0.4901 H   0  0  0  0  0  0  0  0  0  0  0  0
   -7.1583    5.6530   -0.4901 H   0  0  0  0  0  0  0  0  0  0  0  0
   -7.0693    5.5050   -2.7533 H   0  0  0  0  0  0  0  0  0  0  0  0
   -7.4073    7.0730   -3.5618 H   0  0  0  0  0  0  0  0  0  0  0  0
   -5.7405    6.4035   -3.5618 H   0  0  0  0  0  0  0  0  0  0  0  0
   -1.8992   11.0597    0.1967 H   0  0  0  0  0  0  0  0  0  0  0  0
   -0.4038   10.3090    1.9395 H   0  0  0  0  0  0  0  0  0  0  0  0
    0.1847    8.9512    0.9561 H   0  0  0  0  0  0  0  0  0  0  0  0
    1.6060   11.3794    1.4542 H   0  0  0  0  0  0  0  0  0  0  0  0
    2.0311   10.2285    0.1904 H   0  0  0  0  0  0  0  0  0  0  0  0
    0.1637   12.8091    1.4131 H   0  0  0  0  0  0  0  0  0  0  0  0
    0.5240   13.9726    0.0928 H   0  0  0  0  0  0  0  0  0  0  0  0
   -1.0268   13.0663    0.0928 H   0  0  0  0  0  0  0  0  0  0  0  0
    2.2561   11.5053   -1.8536 H   0  0  0  0  0  0  0  0  0  0  0  0
    3.0827   12.8313    0.1944 H   0  0  0  0  0  0  0  0  0  0  0  0
    3.7966   13.1193   -1.4784 H   0  0  0  0  0  0  0  0  0  0  0  0
    3.3357   15.2655   -0.0225 H   0  0  0  0  0  0  0  0  0  0  0  0
   -0.1611   14.6169   -1.9358 H   0  0  0  0  0  0  0  0  0  0  0  0
    1.7449   15.6182   -4.1410 H   0  0  0  0  0  0  0  0  0  0  0  0
    0.0027   15.1337   -4.3404 H   0  0  0  0  0  0  0  0  0  0  0  0
    0.2922   17.5913   -4.2998 H   0  0  0  0  0  0  0  0  0  0  0  0
   -0.7033   16.9750   -2.9231 H   0  0  0  0  0  0  0  0  0  0  0  0
    0.8053   18.6457   -2.0960 H   0  0  0  0  0  0  0  0  0  0  0  0
    2.9840   18.5730   -2.5300 H   0  0  0  0  0  0  0  0  0  0  0  0
    0.3489   16.9289    0.8434 H   0  0  0  0  0  0  0  0  0  0  0  0
   -0.4312   17.8675   -0.4746 H   0  0  0  0  0  0  0  0  0  0  0  0
   -0.5215   16.0735   -0.4746 H   0  0  0  0  0  0  0  0  0  0  0  0
    2.2836   17.4394    0.8687 H   0  0  0  0  0  0  0  0  0  0  0  0
    3.4914   17.1557   -0.4303 H   0  0  0  0  0  0  0  0  0  0  0  0
    2.5088   18.6594   -0.4303 H   0  0  0  0  0  0  0  0  0  0  0  0
    3.2714   13.0688   -3.3869 H   0  0  0  0  0  0  0  0  0  0  0  0
    2.1045   12.2360   -4.4691 H   0  0  0  0  0  0  0  0  0  0  0  0
    2.2071   14.0294   -4.4691 H   0  0  0  0  0  0  0  0  0  0  0  0
   -0.6547   13.2196   -3.8808 H   0  0  0  0  0  0  0  0  0  0  0  0
    0.2973   11.6300   -3.8973 H   0  0  0  0  0  0  0  0  0  0  0  0
   -1.5744   12.6414   -1.7385 H   0  0  0  0  0  0  0  0  0  0  0  0
   -1.7740   11.2115   -2.8261 H   0  0  0  0  0  0  0  0  0  0  0  0
    0.7863    9.0567   -1.3767 H   0  0  0  0  0  0  0  0  0  0  0  0
   -0.3861    9.3036   -2.7150 H   0  0  0  0  0  0  0  0  0  0  0  0
    1.1765   10.1895   -2.7150 H   0  0  0  0  0  0  0  0  0  0  0  0
  1  2  1  0
  2  3  1  0
  3  4  1  0
  4  5  1  0
  5  6  1  0
  6  7  1  0
  7  8  1  0
  7  9  1  0
  2 10  1  0
 10 11  1  0
 11 12  1  0
 12 13  1  0
 13 14  1  1
 13 15  1  0
 15 16  1  0
 16 17  1  0
 17 18  2  0
 18 19  1  0
 19 20  1  0
 20 21  1  0
 21 22  1  0
 22 23  1  0
 22 24  1  0
 24 25  1  0
 24 26  1  0
 19 27  1  0
 27 28  1  6
 27 29  1  0
 29 30  1  0
 30 31  1  0
 31 32  1  6
  7  5  1  0
 31 10  1  0
 31 13  1  0
 27 15  1  0
 24 18  1  0
  1 33  1  0
  1 34  1  0
  1 35  1  0
  2 36  1  1
  3 37  1  0
  3 38  1  0
  4 39  1  0
  4 40  1  0
  5 41  1  6
  8 42  1  0
  8 43  1  0
  8 44  1  0
  9 45  1  0
  9 46  1  0
  9 47  1  0
 10 48  1  1
 11 49  1  0
 11 50  1  0
 12 51  1  0
 12 52  1  0
 14 53  1  0
 14 54  1  0
 14 55  1  0
 15 56  1  6
 16 57  1  0
 16 58  1  0
 17 59  1  0
 19 60  1  1
 20 61  1  0
 20 62  1  0
 21 63  1  0
 21 64  1  0
 22 65  1  1
 23 66  1  0
 25 67  1  0
 25 68  1  0
 25 69  1  0
 26 70  1  0
 26 71  1  0
 26 72  1  0
 28 73  1  0
 28 74  1  0
 28 75  1  0
 29 76  1  0
 29 77  1  0
 30 78  1  0
 30 79  1  0
 32 80  1  0
 32 81  1  0
 32 82  1  0
M  END
>  <meeko>  (1) 
{"is_sidechain": [false], "intermolecular_energy": 2.731, "internal_energy": -0.839}

$$$$
EPH_relaxed_0001_pdb2pqr_Repair_270_r2_0001_out
     RDKit          3D

 82 86  0  0  0  0  0  0  0  0999 V2000
    4.1980   17.5780   -0.6640 C   0  0  0  0  0  0  0  0  0  0  0  0
    2.8340   18.1400   -0.2570 C   0  0  2  0  0  0  0  0  0  0  0  0
    2.8770   18.8250    1.1240 C   0  0  0  0  0  0  0  0  0  0  0  0
    4.2150   18.6640    1.8500 C   0  0  0  0  0  0  0  0  0  0  0  0
    4.1590   19.2110    3.2440 C   0  0  2  0  0  0  0  0  0  0  0  0
    5.1590   20.1940    3.5420 O   0  0  0  0  0  0  0  0  0  0  0  0
    5.2370   18.9660    4.2830 C   0  0  0  0  0  0  0  0  0  0  0  0
    6.4480   18.1430    3.9710 C   0  0  0  0  0  0  0  0  0  0  0  0
    4.8830   19.1110    5.7300 C   0  0  0  0  0  0  0  0  0  0  0  0
    1.7930   17.0270   -0.2530 C   0  0  1  0  0  0  0  0  0  0  0  0
    0.3650   17.5430   -0.5760 C   0  0  0  0  0  0  0  0  0  0  0  0
   -0.3420   16.4250   -1.3850 C   0  0  0  0  0  0  0  0  0  0  0  0
    0.5690   15.1860   -1.2160 C   0  0  1  0  0  0  0  0  0  0  0  0
    0.1870   14.5940    0.1760 C   0  0  0  0  0  0  0  0  0  0  0  0
    0.4830   14.1070   -2.3450 C   0  0  2  0  0  0  0  0  0  0  0  0
   -0.8910   13.4350   -2.5030 C   0  0  0  0  0  0  0  0  0  0  0  0
   -1.0920   12.1970   -1.6920 C   0  0  0  0  0  0  0  0  0  0  0  0
   -0.1180   11.4880   -1.0930 C   0  0  0  0  0  0  0  0  0  0  0  0
    1.3580   11.8610   -1.2810 C   0  0  1  0  0  0  0  0  0  0  0  0
    2.1800   10.5830   -1.5910 C   0  0  0  0  0  0  0  0  0  0  0  0
    1.9840    9.4930   -0.5410 C   0  0  0  0  0  0  0  0  0  0  0  0
    0.5110    9.1080   -0.4240 C   0  0  2  0  0  0  0  0  0  0  0  0
    0.1010    8.4780   -1.6420 O   0  0  0  0  0  0  0  0  0  0  0  0
   -0.4170   10.3180   -0.1230 C   0  0  0  0  0  0  0  0  0  0  0  0
   -0.1750   10.8120    1.3240 C   0  0  0  0  0  0  0  0  0  0  0  0
   -1.8850    9.8170   -0.1710 C   0  0  0  0  0  0  0  0  0  0  0  0
    1.6490   13.0380   -2.3090 C   0  0  1  0  0  0  0  0  0  0  0  0
    1.7720   12.4640   -3.7540 C   0  0  0  0  0  0  0  0  0  0  0  0
    3.0440   13.6850   -1.9680 C   0  0  0  0  0  0  0  0  0  0  0  0
    3.0460   14.8260   -0.9340 C   0  0  0  0  0  0  0  0  0  0  0  0
    1.9810   15.8740   -1.2710 C   0  0  2  0  0  0  0  0  0  0  0  0
    2.3510   16.5030   -2.6570 C   0  0  0  0  0  0  0  0  0  0  0  0
    4.7798   17.3383    0.2382 H   0  0  0  0  0  0  0  0  0  0  0  0
    4.0551   16.6655   -1.2614 H   0  0  0  0  0  0  0  0  0  0  0  0
    4.7395   18.3263   -1.2614 H   0  0  0  0  0  0  0  0  0  0  0  0
    2.5575   18.9052   -0.9973 H   0  0  0  0  0  0  0  0  0  0  0  0
    2.6845   19.8991    0.9849 H   0  0  0  0  0  0  0  0  0  0  0  0
    2.1126   18.3386    1.7477 H   0  0  0  0  0  0  0  0  0  0  0  0
    4.4688   17.5947    1.8967 H   0  0  0  0  0  0  0  0  0  0  0  0
    4.9778   19.2264    1.2915 H   0  0  0  0  0  0  0  0  0  0  0  0
    3.0660   19.0906    3.2724 H   0  0  0  0  0  0  0  0  0  0  0  0
    6.9234   17.8199    4.9089 H   0  0  0  0  0  0  0  0  0  0  0  0
    6.1504   17.2593    3.3874 H   0  0  0  0  0  0  0  0  0  0  0  0
    7.1601   18.7450    3.3874 H   0  0  0  0  0  0  0  0  0  0  0  0
    5.7241   18.7665    6.3496 H   0  0  0  0  0  0  0  0  0  0  0  0
    4.6728   20.1677    5.9520 H   0  0  0  0  0  0  0  0  0  0  0  0
    3.9919   18.5054    5.9520 H   0  0  0  0  0  0  0  0  0  0  0  0
    1.9294   16.6507    0.7716 H   0  0  0  0  0  0  0  0  0  0  0  0
   -0.1854   17.7426    0.3553 H   0  0  0  0  0  0  0  0  0  0  0  0
    0.4041   18.4810   -1.1493 H   0  0  0  0  0  0  0  0  0  0  0  0
   -1.3454   16.2275   -0.9797 H   0  0  0  0  0  0  0  0  0  0  0  0
   -0.4822   16.6990   -2.4411 H   0  0  0  0  0  0  0  0  0  0  0  0
    0.5989   15.2324    0.9715 H   0  0  0  0  0  0  0  0  0  0  0  0
   -0.9083   14.5531    0.2690 H   0  0  0  0  0  0  0  0  0  0  0  0
    0.6010   13.5791    0.2690 H   0  0  0  0  0  0  0  0  0  0  0  0
    0.6273   14.7069   -3.2557 H   0  0  0  0  0  0  0  0  0  0  0  0
   -1.6614   14.1630   -2.2089 H   0  0  0  0  0  0  0  0  0  0  0  0
   -0.9586   13.1237   -3.5559 H   0  0  0  0  0  0  0  0  0  0  0  0
   -2.1238   11.8342   -1.5745 H   0  0  0  0  0  0  0  0  0  0  0  0
    1.6871   12.2928   -0.3243 H   0  0  0  0  0  0  0  0  0  0  0  0
    1.8664   10.1906   -2.5696 H   0  0  0  0  0  0  0  0  0  0  0  0
    3.2442   10.8614   -1.5891 H   0  0  0  0  0  0  0  0  0  0  0  0
    2.5664    8.6057   -0.8299 H   0  0  0  0  0  0  0  0  0  0  0  0
    2.3255    9.8765    0.4318 H   0  0  0  0  0  0  0  0  0  0  0  0
    0.4166    8.4211    0.4299 H   0  0  0  0  0  0  0  0  0  0  0  0
   -0.6900    8.9450   -1.9630 H   0  0  0  0  0  0  0  0  0  0  0  0
   -0.5441   10.0584    2.0353 H   0  0  0  0  0  0  0  0  0  0  0  0
    0.9021   10.9692    1.4825 H   0  0  0  0  0  0  0  0  0  0  0  0
   -0.7110   11.7594    1.4825 H   0  0  0  0  0  0  0  0  0  0  0  0
   -2.2622    9.6883    0.8543 H   0  0  0  0  0  0  0  0  0  0  0  0
   -2.5068   10.5538   -0.7006 H   0  0  0  0  0  0  0  0  0  0  0  0
   -1.9266    8.8538   -0.7006 H   0  0  0  0  0  0  0  0  0  0  0  0
    2.0022   11.3896   -3.7034 H   0  0  0  0  0  0  0  0  0  0  0  0
    0.8220   12.6106   -4.2889 H   0  0  0  0  0  0  0  0  0  0  0  0
    2.5785   12.9870   -4.2889 H   0  0  0  0  0  0  0  0  0  0  0  0
    3.6961   12.8867   -1.5839 H   0  0  0  0  0  0  0  0  0  0  0  0
    3.3843   14.1466   -2.9067 H   0  0  0  0  0  0  0  0  0  0  0  0
    2.8377   14.4089    0.0623 H   0  0  0  0  0  0  0  0  0  0  0  0
    4.0329   15.3116   -0.9498 H   0  0  0  0  0  0  0  0  0  0  0  0
    2.9029   17.4412   -2.4983 H   0  0  0  0  0  0  0  0  0  0  0  0
    2.9791   15.7994   -3.2230 H   0  0  0  0  0  0  0  0  0  0  0  0
    1.4308   16.7101   -3.2230 H   0  0  0  0  0  0  0  0  0  0  0  0
  1  2  1  0
  2  3  1  0
  3  4  1  0
  4  5  1  0
  5  6  1  0
  6  7  1  0
  7  8  1  0
  7  9  1  0
  2 10  1  0
 10 11  1  0
 11 12  1  0
 12 13  1  0
 13 14  1  1
 13 15  1  0
 15 16  1  0
 16 17  1  0
 17 18  2  0
 18 19  1  0
 19 20  1  0
 20 21  1  0
 21 22  1  0
 22 23  1  0
 22 24  1  0
 24 25  1  0
 24 26  1  0
 19 27  1  0
 27 28  1  6
 27 29  1  0
 29 30  1  0
 30 31  1  0
 31 32  1  6
  7  5  1  0
 31 10  1  0
 31 13  1  0
 27 15  1  0
 24 18  1  0
  1 33  1  0
  1 34  1  0
  1 35  1  0
  2 36  1  6
  3 37  1  0
  3 38  1  0
  4 39  1  0
  4 40  1  0
  5 41  1  1
  8 42  1  0
  8 43  1  0
  8 44  1  0
  9 45  1  0
  9 46  1  0
  9 47  1  0
 10 48  1  1
 11 49  1  0
 11 50  1  0
 12 51  1  0
 12 52  1  0
 14 53  1  0
 14 54  1  0
 14 55  1  0
 15 56  1  6
 16 57  1  0
 16 58  1  0
 17 59  1  0
 19 60  1  1
 20 61  1  0
 20 62  1  0
 21 63  1  0
 21 64  1  0
 22 65  1  1
 23 66  1  0
 25 67  1  0
 25 68  1  0
 25 69  1  0
 26 70  1  0
 26 71  1  0
 26 72  1  0
 28 73  1  0
 28 74  1  0
 28 75  1  0
 29 76  1  0
 29 77  1  0
 30 78  1  0
 30 79  1  0
 32 80  1  0
 32 81  1  0
 32 82  1  0
M  END
>  <meeko>  (2) 
{"is_sidechain": [false], "intermolecular_energy": 2.731, "internal_energy": -0.839}

$$$$
EPH_relaxed_0001_pdb2pqr_Repair_270_r2_0001_out
     RDKit          3D

 82 86  0  0  0  0  0  0  0  0999 V2000
    0.4070   18.4900   -0.1160 C   0  0  0  0  0  0  0  0  0  0  0  0
    1.4800   17.4100   -0.2790 C   0  0  2  0  0  0  0  0  0  0  0  0
    2.7290   17.9390   -1.0120 C   0  0  0  0  0  0  0  0  0  0  0  0
    3.9560   18.0890   -0.1090 C   0  0  0  0  0  0  0  0  0  0  0  0
    3.5810   18.5700    1.2600 C   0  0  2  0  0  0  0  0  0  0  0  0
    3.7880   19.9710    1.4800 O   0  0  0  0  0  0  0  0  0  0  0  0
    4.5890   19.0800    2.2730 C   0  0  0  0  0  0  0  0  0  0  0  0
    6.0510   19.1340    1.9590 C   0  0  0  0  0  0  0  0  0  0  0  0
    4.2170   19.0640    3.7230 C   0  0  0  0  0  0  0  0  0  0  0  0
    0.9050   16.2140   -1.0270 C   0  0  1  0  0  0  0  0  0  0  0  0
    0.7430   16.4810   -2.5470 C   0  0  0  0  0  0  0  0  0  0  0  0
    1.0330   15.1410   -3.2710 C   0  0  0  0  0  0  0  0  0  0  0  0
    1.0240   14.0800   -2.1450 C   0  0  1  0  0  0  0  0  0  0  0  0
   -0.4850   13.7670   -1.9010 C   0  0  0  0  0  0  0  0  0  0  0  0
    1.8480   12.7790   -2.4160 C   0  0  2  0  0  0  0  0  0  0  0  0
    1.3640   11.9360   -3.6090 C   0  0  0  0  0  0  0  0  0  0  0  0
    0.3500   10.8910   -3.2810 C   0  0  0  0  0  0  0  0  0  0  0  0
    0.0570   10.4450   -2.0450 C   0  0  0  0  0  0  0  0  0  0  0  0
    0.8470   10.9330   -0.8240 C   0  0  1  0  0  0  0  0  0  0  0  0
    1.2340    9.7200    0.0610 C   0  0  0  0  0  0  0  0  0  0  0  0
    0.0270    8.8700    0.4480 C   0  0  0  0  0  0  0  0  0  0  0  0
   -0.6980    8.3550   -0.7920 C   0  0  2  0  0  0  0  0  0  0  0  0
    0.1560    7.4330   -1.4760 O   0  0  0  0  0  0  0  0  0  0  0  0
   -1.1280    9.4880   -1.7650 C   0  0  0  0  0  0  0  0  0  0  0  0
   -2.2770   10.3100   -1.1310 C   0  0  0  0  0  0  0  0  0  0  0  0
   -1.7200    8.8250   -3.0380 C   0  0  0  0  0  0  0  0  0  0  0  0
    2.0830   11.8830   -1.1330 C   0  0  1  0  0  0  0  0  0  0  0  0
    3.3550   11.0250   -1.4160 C   0  0  0  0  0  0  0  0  0  0  0  0
    2.4040   12.7420    0.1470 C   0  0  0  0  0  0  0  0  0  0  0  0
    1.6450   14.0740    0.2970 C   0  0  0  0  0  0  0  0  0  0  0  0
    1.7180   14.8960   -0.9940 C   0  0  2  0  0  0  0  0  0  0  0  0
    3.2240   15.2450   -1.2540 C   0  0  0  0  0  0  0  0  0  0  0  0
    0.2279   18.6703    0.9542 H   0  0  0  0  0  0  0  0  0  0  0  0
    0.7483   19.4208   -0.5926 H   0  0  0  0  0  0  0  0  0  0  0  0
   -0.5260   18.1548   -0.5926 H   0  0  0  0  0  0  0  0  0  0  0  0
    1.7943   17.1013    0.7289 H   0  0  0  0  0  0  0  0  0  0  0  0
    2.9783   17.2387   -1.8228 H   0  0  0  0  0  0  0  0  0  0  0  0
    2.4807   18.9433   -1.3858 H   0  0  0  0  0  0  0  0  0  0  0  0
    4.4544   17.1125   -0.0197 H   0  0  0  0  0  0  0  0  0  0  0  0
    4.6266   18.8337   -0.5625 H   0  0  0  0  0  0  0  0  0  0  0  0
    2.7801   17.8192    1.3298 H   0  0  0  0  0  0  0  0  0  0  0  0
    6.6267   19.1553    2.8961 H   0  0  0  0  0  0  0  0  0  0  0  0
    6.3337   18.2457    1.3751 H   0  0  0  0  0  0  0  0  0  0  0  0
    6.2674   20.0408    1.3751 H   0  0  0  0  0  0  0  0  0  0  0  0
    5.1295   19.1032    4.3361 H   0  0  0  0  0  0  0  0  0  0  0  0
    3.5855   19.9358    3.9492 H   0  0  0  0  0  0  0  0  0  0  0  0
    3.6627   18.1412    3.9492 H   0  0  0  0  0  0  0  0  0  0  0  0
   -0.0380   16.0884   -0.4748 H   0  0  0  0  0  0  0  0  0  0  0  0
   -0.2819   16.8154   -2.7656 H   0  0  0  0  0  0  0  0  0  0  0  0
    1.4320   17.2691   -2.8848 H   0  0  0  0  0  0  0  0  0  0  0  0
    0.2522   14.9245   -4.0150 H   0  0  0  0  0  0  0  0  0  0  0  0
    1.9867   15.1603   -3.8187 H   0  0  0  0  0  0  0  0  0  0  0  0
   -0.6808   13.7264   -0.8193 H   0  0  0  0  0  0  0  0  0  0  0  0
   -1.1014   14.5564   -2.3558 H   0  0  0  0  0  0  0  0  0  0  0  0
   -0.7366   12.7976   -2.3558 H   0  0  0  0  0  0  0  0  0  0  0  0
    2.8294   13.1783   -2.7118 H   0  0  0  0  0  0  0  0  0  0  0  0
    0.9218   12.6181   -4.3501 H   0  0  0  0  0  0  0  0  0  0  0  0
    2.2482   11.3967   -3.9794 H   0  0  0  0  0  0  0  0  0  0  0  0
   -0.2052   10.4475   -4.1207 H   0  0  0  0  0  0  0  0  0  0  0  0
    0.1692   11.5980   -0.2688 H   0  0  0  0  0  0  0  0  0  0  0  0
    1.9451    9.0908   -0.4944 H   0  0  0  0  0  0  0  0  0  0  0  0
    1.6784   10.1110    0.9881 H   0  0  0  0  0  0  0  0  0  0  0  0
    0.3677    8.0130    1.0476 H   0  0  0  0  0  0  0  0  0  0  0  0
   -0.6695    9.4931    1.0282 H   0  0  0  0  0  0  0  0  0  0  0  0
   -1.6224    7.8643   -0.4532 H   0  0  0  0  0  0  0  0  0  0  0  0
    0.9490    7.9190   -1.7580 H   0  0  0  0  0  0  0  0  0  0  0  0
   -2.2037   10.2576   -0.0347 H   0  0  0  0  0  0  0  0  0  0  0  0
   -2.1992   11.3586   -1.4540 H   0  0  0  0  0  0  0  0  0  0  0  0
   -3.2443    9.8977   -1.4540 H   0  0  0  0  0  0  0  0  0  0  0  0
   -2.4262    8.0342   -2.7449 H   0  0  0  0  0  0  0  0  0  0  0  0
   -2.2466    9.5838   -3.6355 H   0  0  0  0  0  0  0  0  0  0  0  0
   -0.9067    8.3874   -3.6355 H   0  0  0  0  0  0  0  0  0  0  0  0
    3.8099   10.7182   -0.4626 H   0  0  0  0  0  0  0  0  0  0  0  0
    3.0737   10.1314   -1.9925 H   0  0  0  0  0  0  0  0  0  0  0  0
    4.0782   11.6205   -1.9925 H   0  0  0  0  0  0  0  0  0  0  0  0
    2.1723   12.1257    1.0282 H   0  0  0  0  0  0  0  0  0  0  0  0
    3.4627   13.0233    0.0472 H   0  0  0  0  0  0  0  0  0  0  0  0
    0.5909   13.8631    0.5300 H   0  0  0  0  0  0  0  0  0  0  0  0
    2.1105   14.6532    1.1080 H   0  0  0  0  0  0  0  0  0  0  0  0
    3.7438   15.3655   -0.2921 H   0  0  0  0  0  0  0  0  0  0  0  0
    3.6952   14.4323   -1.8262 H   0  0  0  0  0  0  0  0  0  0  0  0
    3.2897   16.1822   -1.8262 H   0  0  0  0  0  0  0  0  0  0  0  0
  1  2  1  0
  2  3  1  0
  3  4  1  0
  4  5  1  0
  5  6  1  0
  6  7  1  0
  7  8  1  0
  7  9  1  0
  2 10  1  0
 10 11  1  0
 11 12  1  0
 12 13  1  0
 13 14  1  1
 13 15  1  0
 15 16  1  0
 16 17  1  0
 17 18  2  0
 18 19  1  0
 19 20  1  0
 20 21  1  0
 21 22  1  0
 22 23  1  0
 22 24  1  0
 24 25  1  0
 24 26  1  0
 19 27  1  0
 27 28  1  6
 27 29  1  0
 29 30  1  0
 30 31  1  0
 31 32  1  6
  7  5  1  0
 31 10  1  0
 31 13  1  0
 27 15  1  0
 24 18  1  0
  1 33  1  0
  1 34  1  0
  1 35  1  0
  2 36  1  1
  3 37  1  0
  3 38  1  0
  4 39  1  0
  4 40  1  0
  5 41  1  1
  8 42  1  0
  8 43  1  0
  8 44  1  0
  9 45  1  0
  9 46  1  0
  9 47  1  0
 10 48  1  1
 11 49  1  0
 11 50  1  0
 12 51  1  0
 12 52  1  0
 14 53  1  0
 14 54  1  0
 14 55  1  0
 15 56  1  6
 16 57  1  0
 16 58  1  0
 17 59  1  0
 19 60  1  1
 20 61  1  0
 20 62  1  0
 21 63  1  0
 21 64  1  0
 22 65  1  1
 23 66  1  0
 25 67  1  0
 25 68  1  0
 25 69  1  0
 26 70  1  0
 26 71  1  0
 26 72  1  0
 28 73  1  0
 28 74  1  0
 28 75  1  0
 29 76  1  0
 29 77  1  0
 30 78  1  0
 30 79  1  0
 32 80  1  0
 32 81  1  0
 32 82  1  0
M  END
>  <meeko>  (3) 
{"is_sidechain": [false], "intermolecular_energy": 2.731, "internal_energy": -0.839}

$$$$
EPH_relaxed_0001_pdb2pqr_Repair_270_r2_0001_out
     RDKit          3D

 82 86  0  0  0  0  0  0  0  0999 V2000
    2.3150   18.0960   -2.7490 C   0  0  0  0  0  0  0  0  0  0  0  0
    1.0550   17.6870   -1.9810 C   0  0  2  0  0  0  0  0  0  0  0  0
    1.2680   17.7250   -0.4540 C   0  0  0  0  0  0  0  0  0  0  0  0
    0.9470   19.0820    0.1790 C   0  0  0  0  0  0  0  0  0  0  0  0
   -0.5010   19.1920    0.5490 C   0  0  2  0  0  0  0  0  0  0  0  0
   -1.3600   18.2520   -0.1090 O   0  0  0  0  0  0  0  0  0  0  0  0
   -1.5810   19.6380   -0.4190 C   0  0  0  0  0  0  0  0  0  0  0  0
   -1.2580   20.0040   -1.8330 C   0  0  0  0  0  0  0  0  0  0  0  0
   -2.8590   20.1840    0.1370 C   0  0  0  0  0  0  0  0  0  0  0  0
    0.6140   16.2930   -2.4100 C   0  0  1  0  0  0  0  0  0  0  0  0
    0.6990   16.0860   -3.9460 C   0  0  0  0  0  0  0  0  0  0  0  0
    1.1080   14.6090   -4.1770 C   0  0  0  0  0  0  0  0  0  0  0  0
    0.9220   13.9330   -2.7980 C   0  0  1  0  0  0  0  0  0  0  0  0
   -0.6050   13.6270   -2.7050 C   0  0  0  0  0  0  0  0  0  0  0  0
    1.7840   12.6560   -2.5320 C   0  0  2  0  0  0  0  0  0  0  0  0
    1.5040   11.4720   -3.4740 C   0  0  0  0  0  0  0  0  0  0  0  0
    0.4540   10.5190   -3.0050 C   0  0  0  0  0  0  0  0  0  0  0  0
   -0.0330   10.4470   -1.7520 C   0  0  0  0  0  0  0  0  0  0  0  0
    0.5470   11.3180   -0.6300 C   0  0  1  0  0  0  0  0  0  0  0  0
    0.7900   10.4460    0.6290 C   0  0  0  0  0  0  0  0  0  0  0  0
   -0.4590    9.6870    1.0660 C   0  0  0  0  0  0  0  0  0  0  0  0
   -0.9710    8.7880   -0.0560 C   0  0  2  0  0  0  0  0  0  0  0  0
   -0.0140    7.7500   -0.2890 O   0  0  0  0  0  0  0  0  0  0  0  0
   -1.2430    9.5550   -1.3800 C   0  0  0  0  0  0  0  0  0  0  0  0
   -2.4830   10.4670   -1.2080 C   0  0  0  0  0  0  0  0  0  0  0  0
   -1.6180    8.5130   -2.4680 C   0  0  0  0  0  0  0  0  0  0  0  0
    1.8130   12.1960   -1.0180 C   0  0  1  0  0  0  0  0  0  0  0  0
    3.1170   11.3620   -0.8310 C   0  0  0  0  0  0  0  0  0  0  0  0
    1.9180   13.4140   -0.0260 C   0  0  0  0  0  0  0  0  0  0  0  0
    1.1390   14.6880   -0.4040 C   0  0  0  0  0  0  0  0  0  0  0  0
    1.4170   15.0900   -1.8560 C   0  0  2  0  0  0  0  0  0  0  0  0
    2.9430   15.4260   -1.9750 C   0  0  0  0  0  0  0  0  0  0  0  0
    3.1115   18.3545   -2.0357 H   0  0  0  0  0  0  0  0  0  0  0  0
    2.6466   17.2594   -3.3815 H   0  0  0  0  0  0  0  0  0  0  0  0
    2.0920   18.9679   -3.3815 H   0  0  0  0  0  0  0  0  0  0  0  0
    0.2685   18.4168   -2.2235 H   0  0  0  0  0  0  0  0  0  0  0  0
    0.6193   16.9651    0.0061 H   0  0  0  0  0  0  0  0  0  0  0  0
    2.3356   17.5307   -0.2735 H   0  0  0  0  0  0  0  0  0  0  0  0
    1.5571   19.2057    1.0859 H   0  0  0  0  0  0  0  0  0  0  0  0
    1.1733   19.8665   -0.5581 H   0  0  0  0  0  0  0  0  0  0  0  0
   -0.2402   19.5213    1.5656 H   0  0  0  0  0  0  0  0  0  0  0  0
   -0.5302   20.8287   -1.8412 H   0  0  0  0  0  0  0  0  0  0  0  0
   -0.8298   19.1319   -2.3488 H   0  0  0  0  0  0  0  0  0  0  0  0
   -2.1766   20.3205   -2.3488 H   0  0  0  0  0  0  0  0  0  0  0  0
   -2.8178   20.1664    1.2361 H   0  0  0  0  0  0  0  0  0  0  0  0
   -2.9963   21.2193   -0.2082 H   0  0  0  0  0  0  0  0  0  0  0  0
   -3.7020   19.5675   -0.2082 H   0  0  0  0  0  0  0  0  0  0  0  0
   -0.4051   16.2873   -1.9961 H   0  0  0  0  0  0  0  0  0  0  0  0
   -0.2785   16.2852   -4.4096 H   0  0  0  0  0  0  0  0  0  0  0  0
    1.4301   16.7731   -4.3969 H   0  0  0  0  0  0  0  0  0  0  0  0
    0.4586   14.1394   -4.9305 H   0  0  0  0  0  0  0  0  0  0  0  0
    2.1376   14.5148   -4.5525 H   0  0  0  0  0  0  0  0  0  0  0  0
   -0.9033   13.5672   -1.6479 H   0  0  0  0  0  0  0  0  0  0  0  0
   -1.1707   14.4296   -3.2008 H   0  0  0  0  0  0  0  0  0  0  0  0
   -0.8177   12.6684   -3.2008 H   0  0  0  0  0  0  0  0  0  0  0  0
    2.7986   13.0014   -2.7794 H   0  0  0  0  0  0  0  0  0  0  0  0
    1.1851   11.8782   -4.4452 H   0  0  0  0  0  0  0  0  0  0  0  0
    2.4390   10.8947   -3.5239 H   0  0  0  0  0  0  0  0  0  0  0  0
    0.0440    9.8168   -3.7458 H   0  0  0  0  0  0  0  0  0  0  0  0
   -0.2144   12.0819   -0.4136 H   0  0  0  0  0  0  0  0  0  0  0  0
    1.5844    9.7186    0.4059 H   0  0  0  0  0  0  0  0  0  0  0  0
    1.0758   11.1191    1.4508 H   0  0  0  0  0  0  0  0  0  0  0  0
   -0.2157    9.0670    1.9415 H   0  0  0  0  0  0  0  0  0  0  0  0
   -1.2432   10.4163    1.3173 H   0  0  0  0  0  0  0  0  0  0  0  0
   -1.9361    8.3723    0.2694 H   0  0  0  0  0  0  0  0  0  0  0  0
   -0.0230    7.5500   -1.2400 H   0  0  0  0  0  0  0  0  0  0  0  0
   -2.6838   10.6147   -0.1366 H   0  0  0  0  0  0  0  0  0  0  0  0
   -2.2908   11.4405   -1.6826 H   0  0  0  0  0  0  0  0  0  0  0  0
   -3.3551    9.9935   -1.6826 H   0  0  0  0  0  0  0  0  0  0  0  0
   -1.9527    7.5830   -1.9852 H   0  0  0  0  0  0  0  0  0  0  0  0
   -2.4286    8.9130   -3.0949 H   0  0  0  0  0  0  0  0  0  0  0  0
   -0.7384    8.3047   -3.0949 H   0  0  0  0  0  0  0  0  0  0  0  0
    3.3189   11.2329    0.2426 H   0  0  0  0  0  0  0  0  0  0  0  0
    2.9921   10.3757   -1.3018 H   0  0  0  0  0  0  0  0  0  0  0  0
    3.9600   11.8890   -1.3018 H   0  0  0  0  0  0  0  0  0  0  0  0
    1.5494   13.0773    0.9542 H   0  0  0  0  0  0  0  0  0  0  0  0
    2.9776   13.7090   -0.0442 H   0  0  0  0  0  0  0  0  0  0  0  0
    0.0619   14.5006   -0.2824 H   0  0  0  0  0  0  0  0  0  0  0  0
    1.4642   15.5065    0.2550 H   0  0  0  0  0  0  0  0  0  0  0  0
    3.3770   15.5216   -0.9687 H   0  0  0  0  0  0  0  0  0  0  0  0
    3.4547   14.6190   -2.5199 H   0  0  0  0  0  0  0  0  0  0  0  0
    3.0685   16.3733   -2.5199 H   0  0  0  0  0  0  0  0  0  0  0  0
  1  2  1  0
  2  3  1  0
  3  4  1  0
  4  5  1  0
  5  6  1  0
  6  7  1  0
  7  8  1  0
  7  9  1  0
  2 10  1  0
 10 11  1  0
 11 12  1  0
 12 13  1  0
 13 14  1  1
 13 15  1  0
 15 16  1  0
 16 17  1  0
 17 18  2  0
 18 19  1  0
 19 20  1  0
 20 21  1  0
 21 22  1  0
 22 23  1  0
 22 24  1  0
 24 25  1  0
 24 26  1  0
 19 27  1  0
 27 28  1  6
 27 29  1  0
 29 30  1  0
 30 31  1  0
 31 32  1  1
  7  5  1  0
 31 10  1  0
 31 13  1  0
 27 15  1  0
 24 18  1  0
  1 33  1  0
  1 34  1  0
  1 35  1  0
  2 36  1  1
  3 37  1  0
  3 38  1  0
  4 39  1  0
  4 40  1  0
  5 41  1  1
  8 42  1  0
  8 43  1  0
  8 44  1  0
  9 45  1  0
  9 46  1  0
  9 47  1  0
 10 48  1  1
 11 49  1  0
 11 50  1  0
 12 51  1  0
 12 52  1  0
 14 53  1  0
 14 54  1  0
 14 55  1  0
 15 56  1  6
 16 57  1  0
 16 58  1  0
 17 59  1  0
 19 60  1  1
 20 61  1  0
 20 62  1  0
 21 63  1  0
 21 64  1  0
 22 65  1  1
 23 66  1  0
 25 67  1  0
 25 68  1  0
 25 69  1  0
 26 70  1  0
 26 71  1  0
 26 72  1  0
 28 73  1  0
 28 74  1  0
 28 75  1  0
 29 76  1  0
 29 77  1  0
 30 78  1  0
 30 79  1  0
 32 80  1  0
 32 81  1  0
 32 82  1  0
M  END
>  <meeko>  (4) 
{"is_sidechain": [false], "intermolecular_energy": 2.731, "internal_energy": -0.839}

$$$$
EPH_relaxed_0001_pdb2pqr_Repair_270_r2_0001_out
     RDKit          3D

 82 86  0  0  0  0  0  0  0  0999 V2000
    3.8400   17.4070    0.7760 C   0  0  0  0  0  0  0  0  0  0  0  0
    2.8840   17.7680   -0.3650 C   0  0  2  0  0  0  0  0  0  0  0  0
    2.2530   19.1620   -0.1750 C   0  0  0  0  0  0  0  0  0  0  0  0
    1.1750   19.2070    0.9100 C   0  0  0  0  0  0  0  0  0  0  0  0
   -0.0390   19.9600    0.4550 C   0  0  2  0  0  0  0  0  0  0  0  0
   -1.0160   20.1940    1.4770 O   0  0  0  0  0  0  0  0  0  0  0  0
   -1.4260   19.3500    0.3890 C   0  0  0  0  0  0  0  0  0  0  0  0
   -1.6720   17.9270    0.7820 C   0  0  0  0  0  0  0  0  0  0  0  0
   -2.4420   19.9790   -0.5120 C   0  0  0  0  0  0  0  0  0  0  0  0
    1.7900   16.7120   -0.4790 C   0  0  1  0  0  0  0  0  0  0  0  0
    0.4940   17.2630   -1.1320 C   0  0  0  0  0  0  0  0  0  0  0  0
   -0.1120   16.1080   -1.9690 C   0  0  0  0  0  0  0  0  0  0  0  0
    0.6600   14.8480   -1.5110 C   0  0  1  0  0  0  0  0  0  0  0  0
   -0.0310   14.4150   -0.1800 C   0  0  0  0  0  0  0  0  0  0  0  0
    0.7290   13.6690   -2.5360 C   0  0  2  0  0  0  0  0  0  0  0  0
   -0.6290   13.0530   -2.9140 C   0  0  0  0  0  0  0  0  0  0  0  0
   -1.0710   11.9120   -2.0580 C   0  0  0  0  0  0  0  0  0  0  0  0
   -0.2870   11.2190   -1.2120 C   0  0  0  0  0  0  0  0  0  0  0  0
    1.2190   11.4990   -1.1250 C   0  0  1  0  0  0  0  0  0  0  0  0
    1.9970   10.1570   -1.1480 C   0  0  0  0  0  0  0  0  0  0  0  0
    1.5210    9.1860   -0.0710 C   0  0  0  0  0  0  0  0  0  0  0  0
    0.0320    8.8870   -0.2260 C   0  0  2  0  0  0  0  0  0  0  0  0
   -0.1680    8.1620   -1.4430 O   0  0  0  0  0  0  0  0  0  0  0  0
   -0.8530   10.1650   -0.2280 C   0  0  0  0  0  0  0  0  0  0  0  0
   -0.8720   10.7870    1.1910 C   0  0  0  0  0  0  0  0  0  0  0  0
   -2.3130    9.7350   -0.5320 C   0  0  0  0  0  0  0  0  0  0  0  0
    1.7890   12.5530   -2.1690 C   0  0  1  0  0  0  0  0  0  0  0  0
    2.1590   11.8340   -3.5030 C   0  0  0  0  0  0  0  0  0  0  0  0
    3.1280   13.1600   -1.6060 C   0  0  0  0  0  0  0  0  0  0  0  0
    3.0010   14.3970   -0.6960 C   0  0  0  0  0  0  0  0  0  0  0  0
    2.0990   15.4570   -1.3330 C   0  0  2  0  0  0  0  0  0  0  0  0
    2.7800   15.9280   -2.6630 C   0  0  0  0  0  0  0  0  0  0  0  0
    3.3461   17.5935    1.7410 H   0  0  0  0  0  0  0  0  0  0  0  0
    4.1129   16.3439    0.7032 H   0  0  0  0  0  0  0  0  0  0  0  0
    4.7475   18.0244    0.7032 H   0  0  0  0  0  0  0  0  0  0  0  0
    3.4724   17.7963   -1.2939 H   0  0  0  0  0  0  0  0  0  0  0  0
    3.0499   19.8696    0.0977 H   0  0  0  0  0  0  0  0  0  0  0  0
    1.7643   19.4256   -1.1246 H   0  0  0  0  0  0  0  0  0  0  0  0
    0.8816   18.1777    1.1639 H   0  0  0  0  0  0  0  0  0  0  0  0
    1.5917   19.7257    1.7860 H   0  0  0  0  0  0  0  0  0  0  0  0
    0.5559   20.5206   -0.2811 H   0  0  0  0  0  0  0  0  0  0  0  0
   -1.6859   17.8467    1.8790 H   0  0  0  0  0  0  0  0  0  0  0  0
   -2.6405   17.5972    0.3779 H   0  0  0  0  0  0  0  0  0  0  0  0
   -0.8704   17.2912    0.3779 H   0  0  0  0  0  0  0  0  0  0  0  0
   -3.2218   20.4618    0.0953 H   0  0  0  0  0  0  0  0  0  0  0  0
   -1.9527   20.7324   -1.1468 H   0  0  0  0  0  0  0  0  0  0  0  0
   -2.8983   19.2051   -1.1468 H   0  0  0  0  0  0  0  0  0  0  0  0
    1.6931   16.4317    0.5803 H   0  0  0  0  0  0  0  0  0  0  0  0
   -0.2164   17.5803   -0.3544 H   0  0  0  0  0  0  0  0  0  0  0  0
    0.7113   18.1366   -1.7642 H   0  0  0  0  0  0  0  0  0  0  0  0
   -1.1871   16.0012   -1.7624 H   0  0  0  0  0  0  0  0  0  0  0  0
   -0.0197   16.2837   -3.0510 H   0  0  0  0  0  0  0  0  0  0  0  0
    0.5560   14.7829    0.6744 H   0  0  0  0  0  0  0  0  0  0  0  0
   -1.0449   14.8396   -0.1382 H   0  0  0  0  0  0  0  0  0  0  0  0
   -0.0911   13.3174   -0.1382 H   0  0  0  0  0  0  0  0  0  0  0  0
    1.0935   14.1679   -3.4461 H   0  0  0  0  0  0  0  0  0  0  0  0
   -1.3913   13.8433   -2.8475 H   0  0  0  0  0  0  0  0  0  0  0  0
   -0.5066   12.6440   -3.9278 H   0  0  0  0  0  0  0  0  0  0  0  0
   -2.1274   11.6126   -2.1247 H   0  0  0  0  0  0  0  0  0  0  0  0
    1.3794   12.0068   -0.1625 H   0  0  0  0  0  0  0  0  0  0  0  0
    1.8594    9.6865   -2.1327 H   0  0  0  0  0  0  0  0  0  0  0  0
    3.0557   10.3814   -0.9509 H   0  0  0  0  0  0  0  0  0  0  0  0
    2.0876    8.2471   -0.1568 H   0  0  0  0  0  0  0  0  0  0  0  0
    1.6862    9.6460    0.9145 H   0  0  0  0  0  0  0  0  0  0  0  0
   -0.2775    8.2927    0.6464 H   0  0  0  0  0  0  0  0  0  0  0  0
    0.6670    7.7140   -1.6600 H   0  0  0  0  0  0  0  0  0  0  0  0
   -0.8475    9.9849    1.9433 H   0  0  0  0  0  0  0  0  0  0  0  0
    0.0067   11.4363    1.3185 H   0  0  0  0  0  0  0  0  0  0  0  0
   -1.7887   11.3814    1.3185 H   0  0  0  0  0  0  0  0  0  0  0  0
   -2.8528    9.5760    0.4132 H   0  0  0  0  0  0  0  0  0  0  0  0
   -2.8142   10.5237   -1.1123 H   0  0  0  0  0  0  0  0  0  0  0  0
   -2.3067    8.8006   -1.1123 H   0  0  0  0  0  0  0  0  0  0  0  0
    2.6518   10.8764   -3.2790 H   0  0  0  0  0  0  0  0  0  0  0  0
    1.2445   11.6483   -4.0854 H   0  0  0  0  0  0  0  0  0  0  0  0
    2.8417   12.4703   -4.0854 H   0  0  0  0  0  0  0  0  0  0  0  0
    3.6335   12.3722   -1.0282 H   0  0  0  0  0  0  0  0  0  0  0  0
    3.6805   13.5089   -2.4909 H   0  0  0  0  0  0  0  0  0  0  0  0
    2.5703   14.0910    0.2688 H   0  0  0  0  0  0  0  0  0  0  0  0
    4.0019   14.8298   -0.5516 H   0  0  0  0  0  0  0  0  0  0  0  0
    3.6635   16.5390   -2.4262 H   0  0  0  0  0  0  0  0  0  0  0  0
    3.0882   15.0491   -3.2483 H   0  0  0  0  0  0  0  0  0  0  0  0
    2.0664   16.5265   -3.2483 H   0  0  0  0  0  0  0  0  0  0  0  0
  1  2  1  0
  2  3  1  0
  3  4  1  0
  4  5  1  0
  5  6  1  0
  6  7  1  0
  7  8  1  0
  7  9  1  0
  2 10  1  0
 10 11  1  0
 11 12  1  0
 12 13  1  0
 13 14  1  1
 13 15  1  0
 15 16  1  0
 16 17  1  0
 17 18  2  0
 18 19  1  0
 19 20  1  0
 20 21  1  0
 21 22  1  0
 22 23  1  0
 22 24  1  0
 24 25  1  0
 24 26  1  0
 19 27  1  0
 27 28  1  6
 27 29  1  0
 29 30  1  0
 30 31  1  0
 31 32  1  6
  7  5  1  0
 31 10  1  0
 31 13  1  0
 27 15  1  0
 24 18  1  0
  1 33  1  0
  1 34  1  0
  1 35  1  0
  2 36  1  6
  3 37  1  0
  3 38  1  0
  4 39  1  0
  4 40  1  0
  5 41  1  6
  8 42  1  0
  8 43  1  0
  8 44  1  0
  9 45  1  0
  9 46  1  0
  9 47  1  0
 10 48  1  1
 11 49  1  0
 11 50  1  0
 12 51  1  0
 12 52  1  0
 14 53  1  0
 14 54  1  0
 14 55  1  0
 15 56  1  6
 16 57  1  0
 16 58  1  0
 17 59  1  0
 19 60  1  1
 20 61  1  0
 20 62  1  0
 21 63  1  0
 21 64  1  0
 22 65  1  1
 23 66  1  0
 25 67  1  0
 25 68  1  0
 25 69  1  0
 26 70  1  0
 26 71  1  0
 26 72  1  0
 28 73  1  0
 28 74  1  0
 28 75  1  0
 29 76  1  0
 29 77  1  0
 30 78  1  0
 30 79  1  0
 32 80  1  0
 32 81  1  0
 32 82  1  0
M  END
>  <meeko>  (5) 
{"is_sidechain": [false], "intermolecular_energy": 2.731, "internal_energy": -0.839}

$$$$
EPH_relaxed_0001_pdb2pqr_Repair_270_r2_0001_out
     RDKit          3D

 82 86  0  0  0  0  0  0  0  0999 V2000
   -5.1760    5.7910   -1.5480 C   0  0  0  0  0  0  0  0  0  0  0  0
   -5.4320    7.2920   -1.7070 C   0  0  2  0  0  0  0  0  0  0  0  0
   -5.1940    8.0640   -0.3940 C   0  0  0  0  0  0  0  0  0  0  0  0
   -4.1570    9.1830   -0.5180 C   0  0  0  0  0  0  0  0  0  0  0  0
   -2.7940    8.6440   -0.8290 C   0  0  2  0  0  0  0  0  0  0  0  0
   -1.7930    8.9400    0.1540 O   0  0  0  0  0  0  0  0  0  0  0  0
   -1.5980    9.5230   -1.1450 C   0  0  0  0  0  0  0  0  0  0  0  0
   -1.7100   11.0150   -1.1660 C   0  0  0  0  0  0  0  0  0  0  0  0
   -0.4540    8.9280   -1.9060 C   0  0  0  0  0  0  0  0  0  0  0  0
   -6.8560    7.5270   -2.1990 C   0  0  1  0  0  0  0  0  0  0  0  0
   -7.1400    6.8330   -3.5580 C   0  0  0  0  0  0  0  0  0  0  0  0
   -8.6190    6.3680   -3.5220 C   0  0  0  0  0  0  0  0  0  0  0  0
   -9.2260    7.0930   -2.2980 C   0  0  1  0  0  0  0  0  0  0  0  0
   -9.5580    8.5310   -2.8080 C   0  0  0  0  0  0  0  0  0  0  0  0
  -10.4690    6.4130   -1.6380 C   0  0  2  0  0  0  0  0  0  0  0  0
  -11.7060    6.2940   -2.5460 C   0  0  0  0  0  0  0  0  0  0  0  0
  -12.6550    7.4450   -2.4830 C   0  0  0  0  0  0  0  0  0  0  0  0
  -12.6720    8.3940   -1.5290 C   0  0  0  0  0  0  0  0  0  0  0  0
  -11.7320    8.3120   -0.3200 C   0  0  1  0  0  0  0  0  0  0  0  0
  -12.5320    8.5960    0.9790 C   0  0  0  0  0  0  0  0  0  0  0  0
  -13.2930    9.9170    0.9200 C   0  0  0  0  0  0  0  0  0  0  0  0
  -14.2590    9.9370   -0.2610 C   0  0  2  0  0  0  0  0  0  0  0  0
  -15.2870    8.9690   -0.0330 O   0  0  0  0  0  0  0  0  0  0  0  0
  -13.5680    9.6540   -1.6240 C   0  0  0  0  0  0  0  0  0  0  0  0
  -12.6740   10.8570   -2.0150 C   0  0  0  0  0  0  0  0  0  0  0  0
  -14.6730    9.5630   -2.7110 C   0  0  0  0  0  0  0  0  0  0  0  0
  -10.8480    6.9950   -0.2170 C   0  0  1  0  0  0  0  0  0  0  0  0
  -11.6440    5.8770    0.5240 C   0  0  0  0  0  0  0  0  0  0  0  0
   -9.5790    7.2950    0.6650 C   0  0  0  0  0  0  0  0  0  0  0  0
   -8.3430    7.8540   -0.0640 C   0  0  0  0  0  0  0  0  0  0  0  0
   -8.0110    7.0160   -1.3030 C   0  0  2  0  0  0  0  0  0  0  0  0
   -7.6510    5.5700   -0.8200 C   0  0  0  0  0  0  0  0  0  0  0  0
   -5.1328    5.5377   -0.4784 H   0  0  0  0  0  0  0  0  0  0  0  0
   -5.9910    5.2274   -2.0257 H   0  0  0  0  0  0  0  0  0  0  0  0
   -4.2203    5.5294   -2.0257 H   0  0  0  0  0  0  0  0  0  0  0  0
   -4.7146    7.6734   -2.4485 H   0  0  0  0  0  0  0  0  0  0  0  0
   -6.1481    8.5085   -0.0745 H   0  0  0  0  0  0  0  0  0  0  0  0
   -4.8020    7.3418    0.3373 H   0  0  0  0  0  0  0  0  0  0  0  0
   -4.4633    9.8649   -1.3250 H   0  0  0  0  0  0  0  0  0  0  0  0
   -4.1052    9.7106    0.4458 H   0  0  0  0  0  0  0  0  0  0  0  0
   -3.2303    7.7773   -1.3472 H   0  0  0  0  0  0  0  0  0  0  0  0
   -1.7385   11.3951   -0.1342 H   0  0  0  0  0  0  0  0  0  0  0  0
   -0.8413   11.4406   -1.6896 H   0  0  0  0  0  0  0  0  0  0  0  0
   -2.6325   11.3061   -1.6896 H   0  0  0  0  0  0  0  0  0  0  0  0
    0.2938    8.5391   -1.1992 H   0  0  0  0  0  0  0  0  0  0  0  0
   -0.8221    8.1071   -2.5389 H   0  0  0  0  0  0  0  0  0  0  0  0
    0.0068    9.7007   -2.5389 H   0  0  0  0  0  0  0  0  0  0  0  0
   -6.8620    8.6266   -2.2294 H   0  0  0  0  0  0  0  0  0  0  0  0
   -6.9857    7.5418   -4.3849 H   0  0  0  0  0  0  0  0  0  0  0  0
   -6.4618    5.9815   -3.7162 H   0  0  0  0  0  0  0  0  0  0  0  0
   -9.1408    6.6609   -4.4450 H   0  0  0  0  0  0  0  0  0  0  0  0
   -8.7108    5.2744   -3.4470 H   0  0  0  0  0  0  0  0  0  0  0  0
   -9.7122    9.1987   -1.9475 H   0  0  0  0  0  0  0  0  0  0  0  0
   -8.7227    8.9057   -3.4179 H   0  0  0  0  0  0  0  0  0  0  0  0
  -10.4730    8.5016   -3.4179 H   0  0  0  0  0  0  0  0  0  0  0  0
  -10.1170    5.3834   -1.4766 H   0  0  0  0  0  0  0  0  0  0  0  0
  -11.3574    6.1971   -3.5848 H   0  0  0  0  0  0  0  0  0  0  0  0
  -12.2652    5.4178   -2.1861 H   0  0  0  0  0  0  0  0  0  0  0  0
  -13.4041    7.5240   -3.2847 H   0  0  0  0  0  0  0  0  0  0  0  0
  -10.9747    9.0955   -0.4703 H   0  0  0  0  0  0  0  0  0  0  0  0
  -13.2532    7.7801    1.1345 H   0  0  0  0  0  0  0  0  0  0  0  0
  -11.8113    8.6624    1.8074 H   0  0  0  0  0  0  0  0  0  0  0  0
  -13.8617   10.0469    1.8526 H   0  0  0  0  0  0  0  0  0  0  0  0
  -12.5680   10.7348    0.7948 H   0  0  0  0  0  0  0  0  0  0  0  0
  -14.6770   10.9524   -0.3266 H   0  0  0  0  0  0  0  0  0  0  0  0
  -15.9850    9.1180   -0.6930 H   0  0  0  0  0  0  0  0  0  0  0  0
  -12.3062   11.3519   -1.1040 H   0  0  0  0  0  0  0  0  0  0  0  0
  -11.8196   10.5010   -2.6093 H   0  0  0  0  0  0  0  0  0  0  0  0
  -13.2613   11.5724   -2.6093 H   0  0  0  0  0  0  0  0  0  0  0  0
  -15.6575    9.4819   -2.2271 H   0  0  0  0  0  0  0  0  0  0  0  0
  -14.6459   10.4664   -3.3380 H   0  0  0  0  0  0  0  0  0  0  0  0
  -14.4984    8.6762   -3.3380 H   0  0  0  0  0  0  0  0  0  0  0  0
  -11.5454    6.0155    1.6108 H   0  0  0  0  0  0  0  0  0  0  0  0
  -12.7057    5.9344    0.2419 H   0  0  0  0  0  0  0  0  0  0  0  0
  -11.2424    4.8926    0.2419 H   0  0  0  0  0  0  0  0  0  0  0  0
   -9.8723    8.0270    1.4320 H   0  0  0  0  0  0  0  0  0  0  0  0
   -9.2637    6.3170    1.0577 H   0  0  0  0  0  0  0  0  0  0  0  0
   -8.5460    8.8897   -0.3740 H   0  0  0  0  0  0  0  0  0  0  0  0
   -7.4849    7.8188    0.6233 H   0  0  0  0  0  0  0  0  0  0  0  0
   -7.6440    5.5418    0.2796 H   0  0  0  0  0  0  0  0  0  0  0  0
   -8.3996    4.8594   -1.2002 H   0  0  0  0  0  0  0  0  0  0  0  0
   -6.6566    5.2934   -1.2002 H   0  0  0  0  0  0  0  0  0  0  0  0
  1  2  1  0
  2  3  1  0
  3  4  1  0
  4  5  1  0
  5  6  1  0
  6  7  1  0
  7  8  1  0
  7  9  1  0
  2 10  1  0
 10 11  1  0
 11 12  1  0
 12 13  1  0
 13 14  1  6
 13 15  1  0
 15 16  1  0
 16 17  1  0
 17 18  2  0
 18 19  1  0
 19 20  1  0
 20 21  1  0
 21 22  1  0
 22 23  1  0
 22 24  1  0
 24 25  1  0
 24 26  1  0
 19 27  1  0
 27 28  1  1
 27 29  1  0
 29 30  1  0
 30 31  1  0
 31 32  1  1
  7  5  1  0
 31 10  1  0
 31 13  1  0
 27 15  1  0
 24 18  1  0
  1 33  1  0
  1 34  1  0
  1 35  1  0
  2 36  1  6
  3 37  1  0
  3 38  1  0
  4 39  1  0
  4 40  1  0
  5 41  1  6
  8 42  1  0
  8 43  1  0
  8 44  1  0
  9 45  1  0
  9 46  1  0
  9 47  1  0
 10 48  1  6
 11 49  1  0
 11 50  1  0
 12 51  1  0
 12 52  1  0
 14 53  1  0
 14 54  1  0
 14 55  1  0
 15 56  1  1
 16 57  1  0
 16 58  1  0
 17 59  1  0
 19 60  1  6
 20 61  1  0
 20 62  1  0
 21 63  1  0
 21 64  1  0
 22 65  1  6
 23 66  1  0
 25 67  1  0
 25 68  1  0
 25 69  1  0
 26 70  1  0
 26 71  1  0
 26 72  1  0
 28 73  1  0
 28 74  1  0
 28 75  1  0
 29 76  1  0
 29 77  1  0
 30 78  1  0
 30 79  1  0
 32 80  1  0
 32 81  1  0
 32 82  1  0
M  END
>  <meeko>  (6) 
{"is_sidechain": [false], "intermolecular_energy": 2.731, "internal_energy": -0.839}

$$$$
EPH_relaxed_0001_pdb2pqr_Repair_270_r2_0001_out
     RDKit          3D

 82 86  0  0  0  0  0  0  0  0999 V2000
    0.4350    8.8310   -2.3810 C   0  0  0  0  0  0  0  0  0  0  0  0
    1.1830    9.9750   -3.0700 C   0  0  2  0  0  0  0  0  0  0  0  0
    2.6820    9.9900   -2.7100 C   0  0  0  0  0  0  0  0  0  0  0  0
    3.5730   10.5840   -3.8040 C   0  0  0  0  0  0  0  0  0  0  0  0
    4.9700   10.8180   -3.3150 C   0  0  2  0  0  0  0  0  0  0  0  0
    5.5690   12.0360   -3.7750 O   0  0  0  0  0  0  0  0  0  0  0  0
    6.1850   10.8180   -4.2230 C   0  0  0  0  0  0  0  0  0  0  0  0
    6.0590   10.5780   -5.6950 C   0  0  0  0  0  0  0  0  0  0  0  0
    7.5310   10.5660   -3.6180 C   0  0  0  0  0  0  0  0  0  0  0  0
    0.5450   11.3100   -2.7010 C   0  0  1  0  0  0  0  0  0  0  0  0
   -0.8310   11.1410   -2.0050 C   0  0  0  0  0  0  0  0  0  0  0  0
   -0.9460   12.2800   -0.9590 C   0  0  0  0  0  0  0  0  0  0  0  0
    0.2050   13.2510   -1.3120 C   0  0  1  0  0  0  0  0  0  0  0  0
   -0.3440   14.1110   -2.4930 C   0  0  0  0  0  0  0  0  0  0  0  0
    0.7370   14.1460   -0.1460 C   0  0  2  0  0  0  0  0  0  0  0  0
   -0.2920   15.1230    0.4490 C   0  0  0  0  0  0  0  0  0  0  0  0
   -0.3350   16.4710   -0.1910 C   0  0  0  0  0  0  0  0  0  0  0  0
    0.6070   16.9800   -1.0070 C   0  0  0  0  0  0  0  0  0  0  0  0
    1.9070   16.2140   -1.2820 C   0  0  1  0  0  0  0  0  0  0  0  0
    3.1140   17.1800   -1.1520 C   0  0  0  0  0  0  0  0  0  0  0  0
    2.9700   18.4190   -2.0300 C   0  0  0  0  0  0  0  0  0  0  0  0
    1.6950   19.1850   -1.6860 C   0  0  2  0  0  0  0  0  0  0  0  0
    1.8220   19.7230   -0.3660 O   0  0  0  0  0  0  0  0  0  0  0  0
    0.4130   18.3120   -1.7730 C   0  0  0  0  0  0  0  0  0  0  0  0
    0.1100   17.9790   -3.2550 C   0  0  0  0  0  0  0  0  0  0  0  0
   -0.7820   19.1640   -1.2670 C   0  0  0  0  0  0  0  0  0  0  0  0
    2.1090   14.8710   -0.4580 C   0  0  1  0  0  0  0  0  0  0  0  0
    2.7700   15.1850    0.9190 C   0  0  0  0  0  0  0  0  0  0  0  0
    3.1150   13.9390   -1.2310 C   0  0  0  0  0  0  0  0  0  0  0  0
    2.5140   12.9920   -2.2880 C   0  0  0  0  0  0  0  0  0  0  0  0
    1.3210   12.2200   -1.7160 C   0  0  2  0  0  0  0  0  0  0  0  0
    1.8470   11.3290   -0.5400 C   0  0  0  0  0  0  0  0  0  0  0  0
    0.5113    8.9477   -1.2899 H   0  0  0  0  0  0  0  0  0  0  0  0
   -0.6236    8.8531   -2.6790 H   0  0  0  0  0  0  0  0  0  0  0  0
    0.8798    7.8701   -2.6790 H   0  0  0  0  0  0  0  0  0  0  0  0
    1.1065    9.8134   -4.1554 H   0  0  0  0  0  0  0  0  0  0  0  0
    2.8131   10.5854   -1.7944 H   0  0  0  0  0  0  0  0  0  0  0  0
    2.9909    8.9425   -2.5781 H   0  0  0  0  0  0  0  0  0  0  0  0
    3.6051    9.8875   -4.6548 H   0  0  0  0  0  0  0  0  0  0  0  0
    3.1478   11.5532   -4.1037 H   0  0  0  0  0  0  0  0  0  0  0  0
    4.7532   10.2934   -2.3728 H   0  0  0  0  0  0  0  0  0  0  0  0
    5.5540    9.6162   -5.8678 H   0  0  0  0  0  0  0  0  0  0  0  0
    5.4700   11.3882   -6.1495 H   0  0  0  0  0  0  0  0  0  0  0  0
    7.0604   10.5532   -6.1495 H   0  0  0  0  0  0  0  0  0  0  0  0
    7.4487   10.5814   -2.5212 H   0  0  0  0  0  0  0  0  0  0  0  0
    7.9014    9.5829   -3.9441 H   0  0  0  0  0  0  0  0  0  0  0  0
    8.2319   11.3485   -3.9441 H   0  0  0  0  0  0  0  0  0  0  0  0
    0.5070   11.7787   -3.6954 H   0  0  0  0  0  0  0  0  0  0  0  0
   -1.6418   11.2220   -2.7440 H   0  0  0  0  0  0  0  0  0  0  0  0
   -0.9125   10.1545   -1.5253 H   0  0  0  0  0  0  0  0  0  0  0  0
   -1.9195   12.7856   -1.0408 H   0  0  0  0  0  0  0  0  0  0  0  0
   -0.8755   11.9071    0.0735 H   0  0  0  0  0  0  0  0  0  0  0  0
   -0.8953   14.9745   -2.0925 H   0  0  0  0  0  0  0  0  0  0  0  0
    0.4952   14.4656   -3.1095 H   0  0  0  0  0  0  0  0  0  0  0  0
   -1.0189   13.4990   -3.1095 H   0  0  0  0  0  0  0  0  0  0  0  0
    0.9390   13.4073    0.6436 H   0  0  0  0  0  0  0  0  0  0  0  0
   -1.2888   14.6682    0.3511 H   0  0  0  0  0  0  0  0  0  0  0  0
    0.0150   15.2907    1.4919 H   0  0  0  0  0  0  0  0  0  0  0  0
   -1.2106   17.1018    0.0222 H   0  0  0  0  0  0  0  0  0  0  0  0
    1.8308   15.8479   -2.3165 H   0  0  0  0  0  0  0  0  0  0  0  0
    3.1984   17.4994   -0.1028 H   0  0  0  0  0  0  0  0  0  0  0  0
    4.0119   16.6384   -1.4843 H   0  0  0  0  0  0  0  0  0  0  0  0
    3.8384   19.0755   -1.8718 H   0  0  0  0  0  0  0  0  0  0  0  0
    2.9158   18.1004   -3.0815 H   0  0  0  0  0  0  0  0  0  0  0  0
    1.5802   19.9853   -2.4319 H   0  0  0  0  0  0  0  0  0  0  0  0
    0.9250   19.8780   -0.0240 H   0  0  0  0  0  0  0  0  0  0  0  0
   -0.6296   17.1662   -3.3044 H   0  0  0  0  0  0  0  0  0  0  0  0
   -0.2921   18.8716   -3.7566 H   0  0  0  0  0  0  0  0  0  0  0  0
    1.0365   17.6627   -3.7566 H   0  0  0  0  0  0  0  0  0  0  0  0
   -0.7890   19.1690   -0.1670 H   0  0  0  0  0  0  0  0  0  0  0  0
   -0.6805   20.1947   -1.6377 H   0  0  0  0  0  0  0  0  0  0  0  0
   -1.7233   18.7321   -1.6377 H   0  0  0  0  0  0  0  0  0  0  0  0
    2.0982   14.8659    1.7295 H   0  0  0  0  0  0  0  0  0  0  0  0
    3.7244   14.6440    0.9994 H   0  0  0  0  0  0  0  0  0  0  0  0
    2.9537   16.2666    0.9994 H   0  0  0  0  0  0  0  0  0  0  0  0
    3.8439   14.5864   -1.7405 H   0  0  0  0  0  0  0  0  0  0  0  0
    3.5428   13.2780   -0.4628 H   0  0  0  0  0  0  0  0  0  0  0  0
    2.1788   13.5838   -3.1525 H   0  0  0  0  0  0  0  0  0  0  0  0
    3.2862   12.2701   -2.5923 H   0  0  0  0  0  0  0  0  0  0  0  0
    1.5743   11.7909    0.4203 H   0  0  0  0  0  0  0  0  0  0  0  0
    1.3946   10.3286   -0.6072 H   0  0  0  0  0  0  0  0  0  0  0  0
    2.9415   11.2418   -0.6072 H   0  0  0  0  0  0  0  0  0  0  0  0
  1  2  1  0
  2  3  1  0
  3  4  1  0
  4  5  1  0
  5  6  1  0
  6  7  1  0
  7  8  1  0
  7  9  1  0
  2 10  1  0
 10 11  1  0
 11 12  1  0
 12 13  1  0
 13 14  1  6
 13 15  1  0
 15 16  1  0
 16 17  1  0
 17 18  2  0
 18 19  1  0
 19 20  1  0
 20 21  1  0
 21 22  1  0
 22 23  1  0
 22 24  1  0
 24 25  1  0
 24 26  1  0
 19 27  1  0
 27 28  1  1
 27 29  1  0
 29 30  1  0
 30 31  1  0
 31 32  1  1
  7  5  1  0
 31 10  1  0
 31 13  1  0
 27 15  1  0
 24 18  1  0
  1 33  1  0
  1 34  1  0
  1 35  1  0
  2 36  1  6
  3 37  1  0
  3 38  1  0
  4 39  1  0
  4 40  1  0
  5 41  1  1
  8 42  1  0
  8 43  1  0
  8 44  1  0
  9 45  1  0
  9 46  1  0
  9 47  1  0
 10 48  1  6
 11 49  1  0
 11 50  1  0
 12 51  1  0
 12 52  1  0
 14 53  1  0
 14 54  1  0
 14 55  1  0
 15 56  1  1
 16 57  1  0
 16 58  1  0
 17 59  1  0
 19 60  1  6
 20 61  1  0
 20 62  1  0
 21 63  1  0
 21 64  1  0
 22 65  1  6
 23 66  1  0
 25 67  1  0
 25 68  1  0
 25 69  1  0
 26 70  1  0
 26 71  1  0
 26 72  1  0
 28 73  1  0
 28 74  1  0
 28 75  1  0
 29 76  1  0
 29 77  1  0
 30 78  1  0
 30 79  1  0
 32 80  1  0
 32 81  1  0
 32 82  1  0
M  END
>  <meeko>  (7) 
{"is_sidechain": [false], "intermolecular_energy": 2.731, "internal_energy": -0.839}

$$$$
EPH_relaxed_0001_pdb2pqr_Repair_270_r2_0001_out
     RDKit          3D

 82 86  0  0  0  0  0  0  0  0999 V2000
   -4.9970    8.6660   -0.5140 C   0  0  0  0  0  0  0  0  0  0  0  0
   -5.3230    7.5510   -1.5110 C   0  0  2  0  0  0  0  0  0  0  0  0
   -4.3210    7.5070   -2.6820 C   0  0  0  0  0  0  0  0  0  0  0  0
   -2.8990    7.1280   -2.2600 C   0  0  0  0  0  0  0  0  0  0  0  0
   -1.8990    8.1560   -2.6970 C   0  0  2  0  0  0  0  0  0  0  0  0
   -0.5750    7.9600   -2.1830 O   0  0  0  0  0  0  0  0  0  0  0  0
   -1.2530    9.1500   -1.7500 C   0  0  0  0  0  0  0  0  0  0  0  0
   -1.5840    9.1650   -0.2900 C   0  0  0  0  0  0  0  0  0  0  0  0
   -0.6800   10.4110   -2.3180 C   0  0  0  0  0  0  0  0  0  0  0  0
   -6.7400    7.7300   -2.0450 C   0  0  1  0  0  0  0  0  0  0  0  0
   -6.9530    7.0370   -3.4170 C   0  0  0  0  0  0  0  0  0  0  0  0
   -8.4120    6.5100   -3.4300 C   0  0  0  0  0  0  0  0  0  0  0  0
   -9.0850    7.1980   -2.2200 C   0  0  1  0  0  0  0  0  0  0  0  0
   -9.4630    8.6240   -2.7280 C   0  0  0  0  0  0  0  0  0  0  0  0
  -10.3180    6.4600   -1.6040 C   0  0  2  0  0  0  0  0  0  0  0  0
  -11.5210    6.2980   -2.5490 C   0  0  0  0  0  0  0  0  0  0  0  0
  -12.5190    7.4070   -2.5070 C   0  0  0  0  0  0  0  0  0  0  0  0
  -12.6050    8.3460   -1.5470 C   0  0  0  0  0  0  0  0  0  0  0  0
  -11.7000    8.2920   -0.3100 C   0  0  1  0  0  0  0  0  0  0  0  0
  -12.5500    8.5310    0.9660 C   0  0  0  0  0  0  0  0  0  0  0  0
  -13.3640    9.8190    0.8940 C   0  0  0  0  0  0  0  0  0  0  0  0
  -14.2940    9.8100   -0.3170 C   0  0  2  0  0  0  0  0  0  0  0  0
  -15.2870    8.7960   -0.1270 O   0  0  0  0  0  0  0  0  0  0  0  0
  -13.5500    9.5680   -1.6600 C   0  0  0  0  0  0  0  0  0  0  0  0
  -12.6970   10.8110   -2.0130 C   0  0  0  0  0  0  0  0  0  0  0  0
  -14.6170    9.4400   -2.7800 C   0  0  0  0  0  0  0  0  0  0  0  0
  -10.7650    7.0120   -0.1900 C   0  0  1  0  0  0  0  0  0  0  0  0
  -11.5350    5.8560    0.5180 C   0  0  0  0  0  0  0  0  0  0  0  0
   -9.5370    7.3580    0.7330 C   0  0  0  0  0  0  0  0  0  0  0  0
   -8.3030    7.9750    0.0460 C   0  0  0  0  0  0  0  0  0  0  0  0
   -7.9000    7.1630   -1.1880 C   0  0  2  0  0  0  0  0  0  0  0  0
   -7.4930    5.7290   -0.7050 C   0  0  0  0  0  0  0  0  0  0  0  0
   -5.1085    8.2848    0.5118 H   0  0  0  0  0  0  0  0  0  0  0  0
   -3.9621    9.0052   -0.6687 H   0  0  0  0  0  0  0  0  0  0  0  0
   -5.6862    9.5093   -0.6687 H   0  0  0  0  0  0  0  0  0  0  0  0
   -5.2452    6.5940   -0.9742 H   0  0  0  0  0  0  0  0  0  0  0  0
   -4.6750    6.7667   -3.4146 H   0  0  0  0  0  0  0  0  0  0  0  0
   -4.2722    8.5224   -3.1022 H   0  0  0  0  0  0  0  0  0  0  0  0
   -2.8639    7.0396   -1.1641 H   0  0  0  0  0  0  0  0  0  0  0  0
   -2.6415    6.1727   -2.7407 H   0  0  0  0  0  0  0  0  0  0  0  0
   -2.4148    8.2825   -3.6603 H   0  0  0  0  0  0  0  0  0  0  0  0
   -0.6547    9.1229    0.2971 H   0  0  0  0  0  0  0  0  0  0  0  0
   -2.1296   10.0888   -0.0472 H   0  0  0  0  0  0  0  0  0  0  0  0
   -2.2109    8.2943   -0.0472 H   0  0  0  0  0  0  0  0  0  0  0  0
   -0.3769   11.0781   -1.4976 H   0  0  0  0  0  0  0  0  0  0  0  0
    0.1966   10.1692   -2.9369 H   0  0  0  0  0  0  0  0  0  0  0  0
   -1.4387   10.9123   -2.9369 H   0  0  0  0  0  0  0  0  0  0  0  0
   -6.7914    8.8286   -2.0675 H   0  0  0  0  0  0  0  0  0  0  0  0
   -6.8037    7.7590   -4.2334 H   0  0  0  0  0  0  0  0  0  0  0  0
   -6.2351    6.2161   -3.5607 H   0  0  0  0  0  0  0  0  0  0  0  0
   -8.9175    6.7891   -4.3662 H   0  0  0  0  0  0  0  0  0  0  0  0
   -8.4602    5.4129   -3.3665 H   0  0  0  0  0  0  0  0  0  0  0  0
   -9.6383    9.2855   -1.8668 H   0  0  0  0  0  0  0  0  0  0  0  0
   -8.6404    9.0261   -3.3377 H   0  0  0  0  0  0  0  0  0  0  0  0
  -10.3767    8.5658   -3.3377 H   0  0  0  0  0  0  0  0  0  0  0  0
   -9.9267    5.4449   -1.4413 H   0  0  0  0  0  0  0  0  0  0  0  0
  -11.1378    6.2245   -3.5775 H   0  0  0  0  0  0  0  0  0  0  0  0
  -12.0536    5.3966   -2.2116 H   0  0  0  0  0  0  0  0  0  0  0  0
  -13.2460    7.4614   -3.3308 H   0  0  0  0  0  0  0  0  0  0  0  0
  -10.9720    9.1077   -0.4308 H   0  0  0  0  0  0  0  0  0  0  0  0
  -13.2404    7.6842    1.0934 H   0  0  0  0  0  0  0  0  0  0  0  0
  -11.8579    8.6206    1.8162 H   0  0  0  0  0  0  0  0  0  0  0  0
  -13.9660    9.9160    1.8095 H   0  0  0  0  0  0  0  0  0  0  0  0
  -12.6706   10.6675    0.7978 H   0  0  0  0  0  0  0  0  0  0  0  0
  -14.7523   10.8074   -0.3887 H   0  0  0  0  0  0  0  0  0  0  0  0
  -15.5810    8.5050   -1.0070 H   0  0  0  0  0  0  0  0  0  0  0  0
  -12.3612   11.3003   -1.0868 H   0  0  0  0  0  0  0  0  0  0  0  0
  -11.8213   10.4997   -2.6015 H   0  0  0  0  0  0  0  0  0  0  0  0
  -13.3024   11.5161   -2.6015 H   0  0  0  0  0  0  0  0  0  0  0  0
  -15.6121    9.3206   -2.3265 H   0  0  0  0  0  0  0  0  0  0  0  0
  -14.6045   10.3461   -3.4036 H   0  0  0  0  0  0  0  0  0  0  0  0
  -14.3906    8.5626   -3.4036 H   0  0  0  0  0  0  0  0  0  0  0  0
  -11.4550    5.9761    1.6085 H   0  0  0  0  0  0  0  0  0  0  0  0
  -12.5941    5.8860    0.2225 H   0  0  0  0  0  0  0  0  0  0  0  0
  -11.0991    4.8902    0.2225 H   0  0  0  0  0  0  0  0  0  0  0  0
   -9.8843    8.0706    1.4956 H   0  0  0  0  0  0  0  0  0  0  0  0
   -9.1927    6.3909    1.1283 H   0  0  0  0  0  0  0  0  0  0  0  0
   -8.5395    9.0042   -0.2619 H   0  0  0  0  0  0  0  0  0  0  0  0
   -7.4651    7.9694    0.7587 H   0  0  0  0  0  0  0  0  0  0  0  0
   -7.4850    5.7010    0.3946 H   0  0  0  0  0  0  0  0  0  0  0  0
   -8.2181    4.9944   -1.0853 H   0  0  0  0  0  0  0  0  0  0  0  0
   -6.4901    5.4849   -1.0853 H   0  0  0  0  0  0  0  0  0  0  0  0
  1  2  1  0
  2  3  1  0
  3  4  1  0
  4  5  1  0
  5  6  1  0
  6  7  1  0
  7  8  1  0
  7  9  1  0
  2 10  1  0
 10 11  1  0
 11 12  1  0
 12 13  1  0
 13 14  1  6
 13 15  1  0
 15 16  1  0
 16 17  1  0
 17 18  2  0
 18 19  1  0
 19 20  1  0
 20 21  1  0
 21 22  1  0
 22 23  1  0
 22 24  1  0
 24 25  1  0
 24 26  1  0
 19 27  1  0
 27 28  1  1
 27 29  1  0
 29 30  1  0
 30 31  1  0
 31 32  1  1
  7  5  1  0
 31 10  1  0
 31 13  1  0
 27 15  1  0
 24 18  1  0
  1 33  1  0
  1 34  1  0
  1 35  1  0
  2 36  1  1
  3 37  1  0
  3 38  1  0
  4 39  1  0
  4 40  1  0
  5 41  1  6
  8 42  1  0
  8 43  1  0
  8 44  1  0
  9 45  1  0
  9 46  1  0
  9 47  1  0
 10 48  1  6
 11 49  1  0
 11 50  1  0
 12 51  1  0
 12 52  1  0
 14 53  1  0
 14 54  1  0
 14 55  1  0
 15 56  1  1
 16 57  1  0
 16 58  1  0
 17 59  1  0
 19 60  1  6
 20 61  1  0
 20 62  1  0
 21 63  1  0
 21 64  1  0
 22 65  1  6
 23 66  1  0
 25 67  1  0
 25 68  1  0
 25 69  1  0
 26 70  1  0
 26 71  1  0
 26 72  1  0
 28 73  1  0
 28 74  1  0
 28 75  1  0
 29 76  1  0
 29 77  1  0
 30 78  1  0
 30 79  1  0
 32 80  1  0
 32 81  1  0
 32 82  1  0
M  END
>  <meeko>  (8) 
{"is_sidechain": [false], "intermolecular_energy": 2.731, "internal_energy": -0.839}

$$$$
EPH_relaxed_0001_pdb2pqr_Repair_270_r2_0001_out
     RDKit          3D

 82 86  0  0  0  0  0  0  0  0999 V2000
    2.8830   19.1620   -0.6860 C   0  0  0  0  0  0  0  0  0  0  0  0
    2.8430   18.2090   -1.8840 C   0  0  2  0  0  0  0  0  0  0  0  0
    1.5430   18.3550   -2.6990 C   0  0  0  0  0  0  0  0  0  0  0  0
    0.6850   19.5530   -2.2810 C   0  0  0  0  0  0  0  0  0  0  0  0
   -0.6430   19.1210   -1.7370 C   0  0  2  0  0  0  0  0  0  0  0  0
   -1.5520   20.1930   -1.4570 O   0  0  0  0  0  0  0  0  0  0  0  0
   -1.1080   19.4260   -0.3260 C   0  0  0  0  0  0  0  0  0  0  0  0
   -0.2490   20.1940    0.6300 C   0  0  0  0  0  0  0  0  0  0  0  0
   -2.1760   18.5680    0.2770 C   0  0  0  0  0  0  0  0  0  0  0  0
    3.0000   16.7700   -1.4080 C   0  0  1  0  0  0  0  0  0  0  0  0
    3.6860   16.6710   -0.0190 C   0  0  0  0  0  0  0  0  0  0  0  0
    3.0390   15.4690    0.7160 C   0  0  0  0  0  0  0  0  0  0  0  0
    2.2500   14.7190   -0.3830 C   0  0  1  0  0  0  0  0  0  0  0  0
    3.3170   13.8540   -1.1240 C   0  0  0  0  0  0  0  0  0  0  0  0
    1.0410   13.8550    0.1020 C   0  0  2  0  0  0  0  0  0  0  0  0
    1.4060   12.6910    1.0400 C   0  0  0  0  0  0  0  0  0  0  0  0
    1.7000   11.3940    0.3610 C   0  0  0  0  0  0  0  0  0  0  0  0
    1.3980   11.0930   -0.9160 C   0  0  0  0  0  0  0  0  0  0  0  0
    0.6060   12.0740   -1.7900 C   0  0  1  0  0  0  0  0  0  0  0  0
   -0.5190   11.3100   -2.5360 C   0  0  0  0  0  0  0  0  0  0  0  0
    0.0090   10.1180   -3.3280 C   0  0  0  0  0  0  0  0  0  0  0  0
    0.7390    9.1370   -2.4150 C   0  0  2  0  0  0  0  0  0  0  0  0
   -0.2080    8.5500   -1.5180 O   0  0  0  0  0  0  0  0  0  0  0  0
    1.8900    9.7960   -1.6040 C   0  0  0  0  0  0  0  0  0  0  0  0
    3.0550   10.1620   -2.5560 C   0  0  0  0  0  0  0  0  0  0  0  0
    2.4500    8.7320   -0.6210 C   0  0  0  0  0  0  0  0  0  0  0  0
    0.0750   13.3810   -1.0580 C   0  0  1  0  0  0  0  0  0  0  0  0
   -1.3080   13.0970   -0.3980 C   0  0  0  0  0  0  0  0  0  0  0  0
   -0.1680   14.5080   -2.1310 C   0  0  0  0  0  0  0  0  0  0  0  0
    1.0340   15.4060   -2.4810 C   0  0  0  0  0  0  0  0  0  0  0  0
    1.7070   15.9400   -1.2120 C   0  0  2  0  0  0  0  0  0  0  0  0
    0.6640   16.8330   -0.4570 C   0  0  0  0  0  0  0  0  0  0  0  0
    2.8586   18.5796    0.2468 H   0  0  0  0  0  0  0  0  0  0  0  0
    3.8069   19.7578   -0.7221 H   0  0  0  0  0  0  0  0  0  0  0  0
    2.0122   19.8332   -0.7221 H   0  0  0  0  0  0  0  0  0  0  0  0
    3.6796   18.4752   -2.5468 H   0  0  0  0  0  0  0  0  0  0  0  0
    1.8095   18.4721   -3.7598 H   0  0  0  0  0  0  0  0  0  0  0  0
    0.9444   17.4509   -2.5138 H   0  0  0  0  0  0  0  0  0  0  0  0
    1.2199   20.1214   -1.5059 H   0  0  0  0  0  0  0  0  0  0  0  0
    0.5053   20.1734   -3.1714 H   0  0  0  0  0  0  0  0  0  0  0  0
   -0.6016   18.1853   -2.3138 H   0  0  0  0  0  0  0  0  0  0  0  0
   -0.5323   19.9407    1.6623 H   0  0  0  0  0  0  0  0  0  0  0  0
    0.8068   19.9332    0.4651 H   0  0  0  0  0  0  0  0  0  0  0  0
   -0.3904   21.2723    0.4651 H   0  0  0  0  0  0  0  0  0  0  0  0
   -2.1119   18.6195    1.3739 H   0  0  0  0  0  0  0  0  0  0  0  0
   -3.1630   18.9272   -0.0499 H   0  0  0  0  0  0  0  0  0  0  0  0
   -2.0380   17.5268   -0.0499 H   0  0  0  0  0  0  0  0  0  0  0  0
    3.5857   16.3628   -2.2454 H   0  0  0  0  0  0  0  0  0  0  0  0
    4.7662   16.5031   -0.1413 H   0  0  0  0  0  0  0  0  0  0  0  0
    3.5539   17.6010    0.5534 H   0  0  0  0  0  0  0  0  0  0  0  0
    3.8117   14.8186    1.1518 H   0  0  0  0  0  0  0  0  0  0  0  0
    2.3948   15.7869    1.5490 H   0  0  0  0  0  0  0  0  0  0  0  0
    3.9502   13.3407   -0.3853 H   0  0  0  0  0  0  0  0  0  0  0  0
    2.8108   13.1081   -1.7545 H   0  0  0  0  0  0  0  0  0  0  0  0
    3.9420   14.5035   -1.7545 H   0  0  0  0  0  0  0  0  0  0  0  0
    0.4736   14.5687    0.7173 H   0  0  0  0  0  0  0  0  0  0  0  0
    2.2972   12.9838    1.6144 H   0  0  0  0  0  0  0  0  0  0  0  0
    0.5184   12.5134    1.6650 H   0  0  0  0  0  0  0  0  0  0  0  0
    2.2063   10.6186    0.9546 H   0  0  0  0  0  0  0  0  0  0  0  0
    1.3239   12.4833   -2.5160 H   0  0  0  0  0  0  0  0  0  0  0  0
   -1.2486   10.9471   -1.7971 H   0  0  0  0  0  0  0  0  0  0  0  0
   -0.9794   12.0081   -3.2506 H   0  0  0  0  0  0  0  0  0  0  0  0
   -0.8356    9.6024   -3.8085 H   0  0  0  0  0  0  0  0  0  0  0  0
    0.7166   10.4855   -4.0858 H   0  0  0  0  0  0  0  0  0  0  0  0
    1.2044    8.3734   -3.0555 H   0  0  0  0  0  0  0  0  0  0  0  0
    0.2290    8.4460   -0.6560 H   0  0  0  0  0  0  0  0  0  0  0  0
    3.9392   10.4398   -1.9635 H   0  0  0  0  0  0  0  0  0  0  0  0
    3.2959    9.2963   -3.1904 H   0  0  0  0  0  0  0  0  0  0  0  0
    2.7575   11.0100   -3.1904 H   0  0  0  0  0  0  0  0  0  0  0  0
    2.2765    9.0617    0.4140 H   0  0  0  0  0  0  0  0  0  0  0  0
    1.9403    7.7720   -0.7904 H   0  0  0  0  0  0  0  0  0  0  0  0
    3.5299    8.6087   -0.7904 H   0  0  0  0  0  0  0  0  0  0  0  0
   -1.2032   13.1185    0.6968 H   0  0  0  0  0  0  0  0  0  0  0  0
   -2.0291   13.8658   -0.7125 H   0  0  0  0  0  0  0  0  0  0  0  0
   -1.6678   12.1062   -0.7125 H   0  0  0  0  0  0  0  0  0  0  0  0
   -0.4985   14.0182   -3.0588 H   0  0  0  0  0  0  0  0  0  0  0  0
   -0.9082   15.1829   -1.6764 H   0  0  0  0  0  0  0  0  0  0  0  0
    1.7654   14.8201   -3.0570 H   0  0  0  0  0  0  0  0  0  0  0  0
    0.6734   16.2601   -3.0730 H   0  0  0  0  0  0  0  0  0  0  0  0
    0.7995   16.7170    0.6284 H   0  0  0  0  0  0  0  0  0  0  0  0
    0.8143   17.8867   -0.7347 H   0  0  0  0  0  0  0  0  0  0  0  0
   -0.3540   16.5222   -0.7347 H   0  0  0  0  0  0  0  0  0  0  0  0
  1  2  1  0
  2  3  1  0
  3  4  1  0
  4  5  1  0
  5  6  1  0
  6  7  1  0
  7  8  1  0
  7  9  1  0
  2 10  1  0
 10 11  1  0
 11 12  1  0
 12 13  1  0
 13 14  1  6
 13 15  1  0
 15 16  1  0
 16 17  1  0
 17 18  2  0
 18 19  1  0
 19 20  1  0
 20 21  1  0
 21 22  1  0
 22 23  1  0
 22 24  1  0
 24 25  1  0
 24 26  1  0
 19 27  1  0
 27 28  1  1
 27 29  1  0
 29 30  1  0
 30 31  1  0
 31 32  1  1
  7  5  1  0
 31 10  1  0
 31 13  1  0
 27 15  1  0
 24 18  1  0
  1 33  1  0
  1 34  1  0
  1 35  1  0
  2 36  1  6
  3 37  1  0
  3 38  1  0
  4 39  1  0
  4 40  1  0
  5 41  1  6
  8 42  1  0
  8 43  1  0
  8 44  1  0
  9 45  1  0
  9 46  1  0
  9 47  1  0
 10 48  1  6
 11 49  1  0
 11 50  1  0
 12 51  1  0
 12 52  1  0
 14 53  1  0
 14 54  1  0
 14 55  1  0
 15 56  1  1
 16 57  1  0
 16 58  1  0
 17 59  1  0
 19 60  1  6
 20 61  1  0
 20 62  1  0
 21 63  1  0
 21 64  1  0
 22 65  1  6
 23 66  1  0
 25 67  1  0
 25 68  1  0
 25 69  1  0
 26 70  1  0
 26 71  1  0
 26 72  1  0
 28 73  1  0
 28 74  1  0
 28 75  1  0
 29 76  1  0
 29 77  1  0
 30 78  1  0
 30 79  1  0
 32 80  1  0
 32 81  1  0
 32 82  1  0
M  END
>  <meeko>  (9) 
{"is_sidechain": [false], "intermolecular_energy": 2.731, "internal_energy": -0.839}

$$$$
EPH_relaxed_0001_pdb2pqr_Repair_270_r2_0001_out
     RDKit          3D

 82 86  0  0  0  0  0  0  0  0999 V2000
    1.2200   19.5790   -1.8890 C   0  0  0  0  0  0  0  0  0  0  0  0
    1.4210   19.2410   -0.4090 C   0  0  2  0  0  0  0  0  0  0  0  0
    2.8740   19.4770    0.0490 C   0  0  0  0  0  0  0  0  0  0  0  0
    2.9920   19.9830    1.4890 C   0  0  0  0  0  0  0  0  0  0  0  0
    4.3470   19.7070    2.0650 C   0  0  2  0  0  0  0  0  0  0  0  0
    4.4670   18.4470    2.7380 O   0  0  0  0  0  0  0  0  0  0  0  0
    4.6210   19.6190    3.5550 C   0  0  0  0  0  0  0  0  0  0  0  0
    3.5300   19.8070    4.5610 C   0  0  0  0  0  0  0  0  0  0  0  0
    6.0210   19.8360    4.0390 C   0  0  0  0  0  0  0  0  0  0  0  0
    1.0220   17.7930   -0.1480 C   0  0  1  0  0  0  0  0  0  0  0  0
   -0.3760   17.6690    0.5140 C   0  0  0  0  0  0  0  0  0  0  0  0
   -1.0260   16.3790   -0.0510 C   0  0  0  0  0  0  0  0  0  0  0  0
    0.1340   15.6350   -0.7540 C   0  0  1  0  0  0  0  0  0  0  0  0
    0.8930   14.8990    0.3940 C   0  0  0  0  0  0  0  0  0  0  0  0
   -0.2710   14.6520   -1.9010 C   0  0  2  0  0  0  0  0  0  0  0  0
   -1.1510   13.4670   -1.4640 C   0  0  0  0  0  0  0  0  0  0  0  0
   -0.4090   12.2390   -1.0540 C   0  0  0  0  0  0  0  0  0  0  0  0
    0.8900   11.9900   -1.3030 C   0  0  0  0  0  0  0  0  0  0  0  0
    1.7280   12.9540   -2.1510 C   0  0  1  0  0  0  0  0  0  0  0  0
    2.5450   12.1490   -3.1960 C   0  0  0  0  0  0  0  0  0  0  0  0
    3.3880   11.0500   -2.5580 C   0  0  0  0  0  0  0  0  0  0  0  0
    2.5130   10.0780   -1.7710 C   0  0  2  0  0  0  0  0  0  0  0  0
    1.6740    9.3670   -2.6880 O   0  0  0  0  0  0  0  0  0  0  0  0
    1.6360   10.7760   -0.6950 C   0  0  0  0  0  0  0  0  0  0  0  0
    2.5350   11.2870    0.4580 C   0  0  0  0  0  0  0  0  0  0  0  0
    0.7000    9.7050   -0.0730 C   0  0  0  0  0  0  0  0  0  0  0  0
    0.9390   14.1720   -2.8000 C   0  0  1  0  0  0  0  0  0  0  0  0
    0.3320   13.7420   -4.1710 C   0  0  0  0  0  0  0  0  0  0  0  0
    1.9530   15.3360   -3.1090 C   0  0  0  0  0  0  0  0  0  0  0  0
    2.2210   16.3440   -1.9750 C   0  0  0  0  0  0  0  0  0  0  0  0
    0.9070   16.8540   -1.3750 C   0  0  2  0  0  0  0  0  0  0  0  0
    0.1310   17.6180   -2.5020 C   0  0  0  0  0  0  0  0  0  0  0  0
    0.6596   20.5214   -1.9770 H   0  0  0  0  0  0  0  0  0  0  0  0
    2.2000   19.6882   -2.3765 H   0  0  0  0  0  0  0  0  0  0  0  0
    0.6561   18.7701   -2.3765 H   0  0  0  0  0  0  0  0  0  0  0  0
    0.7774   19.9157    0.1745 H   0  0  0  0  0  0  0  0  0  0  0  0
    3.4218   18.5265   -0.0308 H   0  0  0  0  0  0  0  0  0  0  0  0
    3.2925   20.2592   -0.6014 H   0  0  0  0  0  0  0  0  0  0  0  0
    2.8141   21.0685    1.5009 H   0  0  0  0  0  0  0  0  0  0  0  0
    2.2459   19.4540    2.1001 H   0  0  0  0  0  0  0  0  0  0  0  0
    4.8313   20.2764    1.2580 H   0  0  0  0  0  0  0  0  0  0  0  0
    3.9499   19.7346    5.5751 H   0  0  0  0  0  0  0  0  0  0  0  0
    3.0714   20.7974    4.4238 H   0  0  0  0  0  0  0  0  0  0  0  0
    2.7664   19.0272    4.4238 H   0  0  0  0  0  0  0  0  0  0  0  0
    6.0326   19.8378    5.1389 H   0  0  0  0  0  0  0  0  0  0  0  0
    6.6671   19.0273    3.6668 H   0  0  0  0  0  0  0  0  0  0  0  0
    6.3920   20.8024    3.6668 H   0  0  0  0  0  0  0  0  0  0  0  0
    1.8651   17.4812    0.4861 H   0  0  0  0  0  0  0  0  0  0  0  0
   -0.2724   17.5937    1.6065 H   0  0  0  0  0  0  0  0  0  0  0  0
   -0.9957   18.5514    0.2963 H   0  0  0  0  0  0  0  0  0  0  0  0
   -1.4445   15.7668    0.7615 H   0  0  0  0  0  0  0  0  0  0  0  0
   -1.8588   16.5964   -0.7360 H   0  0  0  0  0  0  0  0  0  0  0  0
    0.5237   15.2572    1.3663 H   0  0  0  0  0  0  0  0  0  0  0  0
    0.7199   13.8158    0.3124 H   0  0  0  0  0  0  0  0  0  0  0  0
    1.9704   15.1053    0.3124 H   0  0  0  0  0  0  0  0  0  0  0  0
   -0.9111   15.2815   -2.5366 H   0  0  0  0  0  0  0  0  0  0  0  0
   -1.7633   13.7948   -0.6110 H   0  0  0  0  0  0  0  0  0  0  0  0
   -1.7418   13.1846   -2.3478 H   0  0  0  0  0  0  0  0  0  0  0  0
   -0.9715   11.4721   -0.5013 H   0  0  0  0  0  0  0  0  0  0  0  0
    2.4110   13.4585   -1.4517 H   0  0  0  0  0  0  0  0  0  0  0  0
    1.8470   11.6882   -3.9104 H   0  0  0  0  0  0  0  0  0  0  0  0
    3.2311   12.8492   -3.6950 H   0  0  0  0  0  0  0  0  0  0  0  0
    3.9179   10.4982   -3.3484 H   0  0  0  0  0  0  0  0  0  0  0  0
    4.1055   11.5152   -1.8661 H   0  0  0  0  0  0  0  0  0  0  0  0
    3.1839    9.3927   -1.2322 H   0  0  0  0  0  0  0  0  0  0  0  0
    1.9420    8.4330   -2.6680 H   0  0  0  0  0  0  0  0  0  0  0  0
    2.0766   11.0265    1.4234 H   0  0  0  0  0  0  0  0  0  0  0  0
    3.5273   10.8179    0.3847 H   0  0  0  0  0  0  0  0  0  0  0  0
    2.6396   12.3796    0.3847 H   0  0  0  0  0  0  0  0  0  0  0  0
    0.7524    9.7649    1.0241 H   0  0  0  0  0  0  0  0  0  0  0  0
   -0.3341    9.8866   -0.4012 H   0  0  0  0  0  0  0  0  0  0  0  0
    1.0185    8.7046   -0.4012 H   0  0  0  0  0  0  0  0  0  0  0  0
   -0.5545   13.1140   -3.9987 H   0  0  0  0  0  0  0  0  0  0  0  0
    0.0420   14.6373   -4.7406 H   0  0  0  0  0  0  0  0  0  0  0  0
    1.0804   13.1715   -4.7406 H   0  0  0  0  0  0  0  0  0  0  0  0
    2.9149   14.8761   -3.3795 H   0  0  0  0  0  0  0  0  0  0  0  0
    1.4809   15.9234   -3.9103 H   0  0  0  0  0  0  0  0  0  0  0  0
    2.8095   15.8514   -1.1869 H   0  0  0  0  0  0  0  0  0  0  0  0
    2.7739   17.2001   -2.3891 H   0  0  0  0  0  0  0  0  0  0  0  0
   -0.5820   18.3200   -2.0450 H   0  0  0  0  0  0  0  0  0  0  0  0
    0.8453   18.1751   -3.1260 H   0  0  0  0  0  0  0  0  0  0  0  0
   -0.4149   16.8951   -3.1260 H   0  0  0  0  0  0  0  0  0  0  0  0
  1  2  1  0
  2  3  1  0
  3  4  1  0
  4  5  1  0
  5  6  1  0
  6  7  1  0
  7  8  1  0
  7  9  1  0
  2 10  1  0
 10 11  1  0
 11 12  1  0
 12 13  1  0
 13 14  1  1
 13 15  1  0
 15 16  1  0
 16 17  1  0
 17 18  2  0
 18 19  1  0
 19 20  1  0
 20 21  1  0
 21 22  1  0
 22 23  1  0
 22 24  1  0
 24 25  1  0
 24 26  1  0
 19 27  1  0
 27 28  1  6
 27 29  1  0
 29 30  1  0
 30 31  1  0
 31 32  1  6
  7  5  1  0
 31 10  1  0
 31 13  1  0
 27 15  1  0
 24 18  1  0
  1 33  1  0
  1 34  1  0
  1 35  1  0
  2 36  1  1
  3 37  1  0
  3 38  1  0
  4 39  1  0
  4 40  1  0
  5 41  1  6
  8 42  1  0
  8 43  1  0
  8 44  1  0
  9 45  1  0
  9 46  1  0
  9 47  1  0
 10 48  1  1
 11 49  1  0
 11 50  1  0
 12 51  1  0
 12 52  1  0
 14 53  1  0
 14 54  1  0
 14 55  1  0
 15 56  1  6
 16 57  1  0
 16 58  1  0
 17 59  1  0
 19 60  1  1
 20 61  1  0
 20 62  1  0
 21 63  1  0
 21 64  1  0
 22 65  1  1
 23 66  1  0
 25 67  1  0
 25 68  1  0
 25 69  1  0
 26 70  1  0
 26 71  1  0
 26 72  1  0
 28 73  1  0
 28 74  1  0
 28 75  1  0
 29 76  1  0
 29 77  1  0
 30 78  1  0
 30 79  1  0
 32 80  1  0
 32 81  1  0
 32 82  1  0
M  END
>  <meeko>  (10) 
{"is_sidechain": [false], "intermolecular_energy": 2.731, "internal_energy": -0.839}

$$$$
EPH_relaxed_0001_pdb2pqr_Repair_270_r2_0001_out
     RDKit          3D

 82 86  0  0  0  0  0  0  0  0999 V2000
    0.2740   17.8010   -2.5740 C   0  0  0  0  0  0  0  0  0  0  0  0
    0.0630   16.9590   -1.3130 C   0  0  2  0  0  0  0  0  0  0  0  0
    0.0830   17.8160   -0.0320 C   0  0  0  0  0  0  0  0  0  0  0  0
    0.8000   19.1580   -0.2000 C   0  0  0  0  0  0  0  0  0  0  0  0
    1.8780   19.3430    0.8240 C   0  0  2  0  0  0  0  0  0  0  0  0
    2.9560   20.1930    0.4120 O   0  0  0  0  0  0  0  0  0  0  0  0
    3.2920   18.8170    0.6540 C   0  0  0  0  0  0  0  0  0  0  0  0
    3.7030   18.0650   -0.5720 C   0  0  0  0  0  0  0  0  0  0  0  0
    4.1290   18.6070    1.8780 C   0  0  0  0  0  0  0  0  0  0  0  0
    1.1300   15.8730   -1.2300 C   0  0  1  0  0  0  0  0  0  0  0  0
    1.3420   15.3540    0.2170 C   0  0  0  0  0  0  0  0  0  0  0  0
    1.6660   13.8420    0.1070 C   0  0  0  0  0  0  0  0  0  0  0  0
    1.9570   13.6140   -1.3950 C   0  0  1  0  0  0  0  0  0  0  0  0
    3.4350   14.0740   -1.5920 C   0  0  0  0  0  0  0  0  0  0  0  0
    1.7270   12.1630   -1.9310 C   0  0  2  0  0  0  0  0  0  0  0  0
    2.6230   11.0840   -1.2970 C   0  0  0  0  0  0  0  0  0  0  0  0
    3.9170   10.8380   -1.9990 C   0  0  0  0  0  0  0  0  0  0  0  0
    4.2220   11.2460   -3.2450 C   0  0  0  0  0  0  0  0  0  0  0  0
    3.1780   11.9510   -4.1200 C   0  0  1  0  0  0  0  0  0  0  0  0
    3.1890   11.3320   -5.5420 C   0  0  0  0  0  0  0  0  0  0  0  0
    4.5790   11.3390   -6.1720 C   0  0  0  0  0  0  0  0  0  0  0  0
    5.5760   10.5780   -5.3010 C   0  0  2  0  0  0  0  0  0  0  0  0
    5.2190    9.1930   -5.2940 O   0  0  0  0  0  0  0  0  0  0  0  0
    5.6440   11.1080   -3.8420 C   0  0  0  0  0  0  0  0  0  0  0  0
    6.3160   12.5040   -3.8250 C   0  0  0  0  0  0  0  0  0  0  0  0
    6.5790   10.1670   -3.0350 C   0  0  0  0  0  0  0  0  0  0  0  0
    1.7140   12.0490   -3.5090 C   0  0  1  0  0  0  0  0  0  0  0  0
    0.9050   10.7620   -3.8560 C   0  0  0  0  0  0  0  0  0  0  0  0
    0.9520   13.2480   -4.1890 C   0  0  0  0  0  0  0  0  0  0  0  0
    1.1230   14.6360   -3.5420 C   0  0  0  0  0  0  0  0  0  0  0  0
    0.8830   14.5700   -2.0310 C   0  0  2  0  0  0  0  0  0  0  0  0
   -0.6040   14.1310   -1.8020 C   0  0  0  0  0  0  0  0  0  0  0  0
    0.5322   18.8313   -2.2880 H   0  0  0  0  0  0  0  0  0  0  0  0
    1.0919   17.3700   -3.1701 H   0  0  0  0  0  0  0  0  0  0  0  0
   -0.6505   17.8067   -3.1701 H   0  0  0  0  0  0  0  0  0  0  0  0
   -0.9331   16.4979   -1.3854 H   0  0  0  0  0  0  0  0  0  0  0  0
   -0.9562   18.0130    0.2702 H   0  0  0  0  0  0  0  0  0  0  0  0
    0.6402   17.2468    0.7266 H   0  0  0  0  0  0  0  0  0  0  0  0
    1.2503   19.1984   -1.2028 H   0  0  0  0  0  0  0  0  0  0  0  0
    0.0599   19.9609   -0.0673 H   0  0  0  0  0  0  0  0  0  0  0  0
    1.1492   19.2499    1.6427 H   0  0  0  0  0  0  0  0  0  0  0  0
    4.2114   17.1348   -0.2784 H   0  0  0  0  0  0  0  0  0  0  0  0
    2.8118   17.8229   -1.1696 H   0  0  0  0  0  0  0  0  0  0  0  0
    4.3880   18.6843   -1.1696 H   0  0  0  0  0  0  0  0  0  0  0  0
    3.5118   18.7619    2.7753 H   0  0  0  0  0  0  0  0  0  0  0  0
    4.5264   17.5813    1.8789 H   0  0  0  0  0  0  0  0  0  0  0  0
    4.9636   19.3236    1.8789 H   0  0  0  0  0  0  0  0  0  0  0  0
    1.9836   16.4202   -1.6565 H   0  0  0  0  0  0  0  0  0  0  0  0
    2.1788   15.8871    0.6918 H   0  0  0  0  0  0  0  0  0  0  0  0
    0.4457   15.5221    0.8321 H   0  0  0  0  0  0  0  0  0  0  0  0
    2.5461   13.5881    0.7160 H   0  0  0  0  0  0  0  0  0  0  0  0
    0.8426   13.2111    0.4730 H   0  0  0  0  0  0  0  0  0  0  0  0
    3.9073   14.2210   -0.6095 H   0  0  0  0  0  0  0  0  0  0  0  0
    3.9867   13.3051   -2.1527 H   0  0  0  0  0  0  0  0  0  0  0  0
    3.4529   15.0202   -2.1527 H   0  0  0  0  0  0  0  0  0  0  0  0
    0.7054   11.9437   -1.5871 H   0  0  0  0  0  0  0  0  0  0  0  0
    2.8489   11.3925   -0.2656 H   0  0  0  0  0  0  0  0  0  0  0  0
    2.0578   10.1424   -1.3609 H   0  0  0  0  0  0  0  0  0  0  0  0
    4.6873   10.2752   -1.4514 H   0  0  0  0  0  0  0  0  0  0  0  0
    3.4867   13.0056   -4.1703 H   0  0  0  0  0  0  0  0  0  0  0  0
    2.8366   10.2920   -5.4767 H   0  0  0  0  0  0  0  0  0  0  0  0
    2.5311   11.9430   -6.1775 H   0  0  0  0  0  0  0  0  0  0  0  0
    4.5281   10.8620   -7.1619 H   0  0  0  0  0  0  0  0  0  0  0  0
    4.9175   12.3815   -6.2647 H   0  0  0  0  0  0  0  0  0  0  0  0
    6.5753   10.7280   -5.7356 H   0  0  0  0  0  0  0  0  0  0  0  0
    4.4280    9.0960   -4.7370 H   0  0  0  0  0  0  0  0  0  0  0  0
    6.4701   12.8241   -2.7839 H   0  0  0  0  0  0  0  0  0  0  0  0
    7.2868   12.4499   -4.3395 H   0  0  0  0  0  0  0  0  0  0  0  0
    5.6682   13.2290   -4.3395 H   0  0  0  0  0  0  0  0  0  0  0  0
    6.4199   10.3271   -1.9584 H   0  0  0  0  0  0  0  0  0  0  0  0
    6.3526    9.1206   -3.2874 H   0  0  0  0  0  0  0  0  0  0  0  0
    7.6269   10.3867   -3.2874 H   0  0  0  0  0  0  0  0  0  0  0  0
    0.5919   10.2640   -2.9265 H   0  0  0  0  0  0  0  0  0  0  0  0
    0.0158   11.0350   -4.4431 H   0  0  0  0  0  0  0  0  0  0  0  0
    1.5366   10.0791   -4.4431 H   0  0  0  0  0  0  0  0  0  0  0  0
    1.3045   13.3197   -5.2285 H   0  0  0  0  0  0  0  0  0  0  0  0
   -0.1162   13.0092   -4.0800 H   0  0  0  0  0  0  0  0  0  0  0  0
    2.1454   14.9964   -3.7285 H   0  0  0  0  0  0  0  0  0  0  0  0
    0.3860   15.3223   -3.9845 H   0  0  0  0  0  0  0  0  0  0  0  0
   -0.8066   14.0712   -0.7225 H   0  0  0  0  0  0  0  0  0  0  0  0
   -1.2789   14.8682   -2.2614 H   0  0  0  0  0  0  0  0  0  0  0  0
   -0.7703   13.1455   -2.2614 H   0  0  0  0  0  0  0  0  0  0  0  0
  1  2  1  0
  2  3  1  0
  3  4  1  0
  4  5  1  0
  5  6  1  0
  6  7  1  0
  7  8  1  0
  7  9  1  0
  2 10  1  0
 10 11  1  0
 11 12  1  0
 12 13  1  0
 13 14  1  1
 13 15  1  0
 15 16  1  0
 16 17  1  0
 17 18  2  0
 18 19  1  0
 19 20  1  0
 20 21  1  0
 21 22  1  0
 22 23  1  0
 22 24  1  0
 24 25  1  0
 24 26  1  0
 19 27  1  0
 27 28  1  1
 27 29  1  0
 29 30  1  0
 30 31  1  0
 31 32  1  6
  7  5  1  0
 31 10  1  0
 31 13  1  0
 27 15  1  0
 24 18  1  0
  1 33  1  0
  1 34  1  0
  1 35  1  0
  2 36  1  6
  3 37  1  0
  3 38  1  0
  4 39  1  0
  4 40  1  0
  5 41  1  1
  8 42  1  0
  8 43  1  0
  8 44  1  0
  9 45  1  0
  9 46  1  0
  9 47  1  0
 10 48  1  6
 11 49  1  0
 11 50  1  0
 12 51  1  0
 12 52  1  0
 14 53  1  0
 14 54  1  0
 14 55  1  0
 15 56  1  1
 16 57  1  0
 16 58  1  0
 17 59  1  0
 19 60  1  6
 20 61  1  0
 20 62  1  0
 21 63  1  0
 21 64  1  0
 22 65  1  6
 23 66  1  0
 25 67  1  0
 25 68  1  0
 25 69  1  0
 26 70  1  0
 26 71  1  0
 26 72  1  0
 28 73  1  0
 28 74  1  0
 28 75  1  0
 29 76  1  0
 29 77  1  0
 30 78  1  0
 30 79  1  0
 32 80  1  0
 32 81  1  0
 32 82  1  0
M  END
>  <meeko>  (11) 
{"is_sidechain": [false], "intermolecular_energy": 2.731, "internal_energy": -0.839}

$$$$
EPH_relaxed_0001_pdb2pqr_Repair_270_r2_0001_out
     RDKit          3D

 82 86  0  0  0  0  0  0  0  0999 V2000
   -0.9520   16.3930   -5.9080 C   0  0  0  0  0  0  0  0  0  0  0  0
    0.1600   15.7020   -6.7030 C   0  0  2  0  0  0  0  0  0  0  0  0
   -0.2230   15.5010   -8.1830 C   0  0  0  0  0  0  0  0  0  0  0  0
    0.4310   16.5110   -9.1310 C   0  0  0  0  0  0  0  0  0  0  0  0
    1.8390   16.1250   -9.4670 C   0  0  2  0  0  0  0  0  0  0  0  0
    2.3380   16.6840  -10.6890 O   0  0  0  0  0  0  0  0  0  0  0  0
    2.2070   15.2540  -10.6540 C   0  0  0  0  0  0  0  0  0  0  0  0
    1.1620   14.7160  -11.5800 C   0  0  0  0  0  0  0  0  0  0  0  0
    3.5160   14.5290  -10.6310 C   0  0  0  0  0  0  0  0  0  0  0  0
    0.4980   14.3600   -6.0660 C   0  0  1  0  0  0  0  0  0  0  0  0
    1.7270   13.6780   -6.7240 C   0  0  0  0  0  0  0  0  0  0  0  0
    2.4820   12.9310   -5.5950 C   0  0  0  0  0  0  0  0  0  0  0  0
    1.4970   12.9280   -4.4030 C   0  0  1  0  0  0  0  0  0  0  0  0
    0.5160   11.7500   -4.6970 C   0  0  0  0  0  0  0  0  0  0  0  0
    2.1340   12.8060   -2.9800 C   0  0  2  0  0  0  0  0  0  0  0  0
    2.9060   11.5000   -2.7200 C   0  0  0  0  0  0  0  0  0  0  0  0
    2.0960   10.3850   -2.1450 C   0  0  0  0  0  0  0  0  0  0  0  0
    0.8780   10.5100   -1.5860 C   0  0  0  0  0  0  0  0  0  0  0  0
    0.2340   11.8900   -1.4010 C   0  0  1  0  0  0  0  0  0  0  0  0
   -0.3450   12.0030    0.0330 C   0  0  0  0  0  0  0  0  0  0  0  0
   -1.3010   10.8630    0.3700 C   0  0  0  0  0  0  0  0  0  0  0  0
   -0.6080    9.5110    0.2310 C   0  0  2  0  0  0  0  0  0  0  0  0
    0.4050    9.4060    1.2360 O   0  0  0  0  0  0  0  0  0  0  0  0
    0.0230    9.2870   -1.1720 C   0  0  0  0  0  0  0  0  0  0  0  0
   -1.0980    9.0990   -2.2230 C   0  0  0  0  0  0  0  0  0  0  0  0
    0.8110    7.9500   -1.1330 C   0  0  0  0  0  0  0  0  0  0  0  0
    1.1400   13.1360   -1.7940 C   0  0  1  0  0  0  0  0  0  0  0  0
    2.0200   13.5580   -0.5780 C   0  0  0  0  0  0  0  0  0  0  0  0
    0.2100   14.3650   -2.1170 C   0  0  0  0  0  0  0  0  0  0  0  0
   -0.2900   14.4960   -3.5680 C   0  0  0  0  0  0  0  0  0  0  0  0
    0.8680   14.3600   -4.5610 C   0  0  2  0  0  0  0  0  0  0  0  0
    1.8610   15.5440   -4.3040 C   0  0  0  0  0  0  0  0  0  0  0  0
   -0.7610   16.2743   -4.8312 H   0  0  0  0  0  0  0  0  0  0  0  0
   -0.9728   17.4633   -6.1609 H   0  0  0  0  0  0  0  0  0  0  0  0
   -1.9208   15.9376   -6.1609 H   0  0  0  0  0  0  0  0  0  0  0  0
    1.0422   16.3586   -6.6764 H   0  0  0  0  0  0  0  0  0  0  0  0
    0.0847   14.4896   -8.4871 H   0  0  0  0  0  0  0  0  0  0  0  0
   -1.3106   15.6487   -8.2565 H   0  0  0  0  0  0  0  0  0  0  0  0
   -0.1564   16.5601  -10.0598 H   0  0  0  0  0  0  0  0  0  0  0  0
    0.4546   17.4885   -8.6271 H   0  0  0  0  0  0  0  0  0  0  0  0
    2.1031   16.0693   -8.4006 H   0  0  0  0  0  0  0  0  0  0  0  0
    0.3353   14.2904  -10.9923 H   0  0  0  0  0  0  0  0  0  0  0  0
    0.7801   15.5296  -12.2142 H   0  0  0  0  0  0  0  0  0  0  0  0
    1.6023   13.9325  -12.2142 H   0  0  0  0  0  0  0  0  0  0  0  0
    3.8228   14.3591   -9.5884 H   0  0  0  0  0  0  0  0  0  0  0  0
    3.4085   13.5618  -11.1438 H   0  0  0  0  0  0  0  0  0  0  0  0
    4.2788   15.1332  -11.1438 H   0  0  0  0  0  0  0  0  0  0  0  0
   -0.4582   13.8381   -6.2185 H   0  0  0  0  0  0  0  0  0  0  0  0
    1.3974   12.9658   -7.4948 H   0  0  0  0  0  0  0  0  0  0  0  0
    2.3774   14.4203   -7.2099 H   0  0  0  0  0  0  0  0  0  0  0  0
    2.7222   11.9026   -5.9029 H   0  0  0  0  0  0  0  0  0  0  0  0
    3.4391   13.4117   -5.3442 H   0  0  0  0  0  0  0  0  0  0  0  0
    0.1606   11.3232   -3.7475 H   0  0  0  0  0  0  0  0  0  0  0  0
   -0.3421   12.1231   -5.2753 H   0  0  0  0  0  0  0  0  0  0  0  0
    1.0382   10.9736   -5.2753 H   0  0  0  0  0  0  0  0  0  0  0  0
    2.8917   13.6033   -2.9921 H   0  0  0  0  0  0  0  0  0  0  0  0
    3.3259   11.1569   -3.6771 H   0  0  0  0  0  0  0  0  0  0  0  0
    3.6695   11.7423   -1.9661 H   0  0  0  0  0  0  0  0  0  0  0  0
    2.5318    9.3757   -2.1814 H   0  0  0  0  0  0  0  0  0  0  0  0
   -0.5809   11.9469   -2.1376 H   0  0  0  0  0  0  0  0  0  0  0  0
    0.4878   11.9887    0.7515 H   0  0  0  0  0  0  0  0  0  0  0  0
   -0.9134   12.9430    0.0902 H   0  0  0  0  0  0  0  0  0  0  0  0
   -1.6528   10.9824    1.4054 H   0  0  0  0  0  0  0  0  0  0  0  0
   -2.1484   10.8968   -0.3306 H   0  0  0  0  0  0  0  0  0  0  0  0
   -1.3753    8.7331    0.3578 H   0  0  0  0  0  0  0  0  0  0  0  0
    0.5170    8.4630    1.4440 H   0  0  0  0  0  0  0  0  0  0  0  0
   -2.0579    8.9380   -1.7105 H   0  0  0  0  0  0  0  0  0  0  0  0
   -1.1649    9.9985   -2.8527 H   0  0  0  0  0  0  0  0  0  0  0  0
   -0.8678    8.2269   -2.8527 H   0  0  0  0  0  0  0  0  0  0  0  0
    0.9839    7.6567   -0.0870 H   0  0  0  0  0  0  0  0  0  0  0  0
    0.2300    7.1670   -1.6422 H   0  0  0  0  0  0  0  0  0  0  0  0
    1.7775    8.0790   -1.6422 H   0  0  0  0  0  0  0  0  0  0  0  0
    1.4977   13.3075    0.3571 H   0  0  0  0  0  0  0  0  0  0  0  0
    2.9799   13.0223   -0.6166 H   0  0  0  0  0  0  0  0  0  0  0  0
    2.2032   14.6419   -0.6166 H   0  0  0  0  0  0  0  0  0  0  0  0
   -0.6737   14.2937   -1.4658 H   0  0  0  0  0  0  0  0  0  0  0  0
    0.8373   15.2526   -1.9478 H   0  0  0  0  0  0  0  0  0  0  0  0
   -1.0291   13.7059   -3.7667 H   0  0  0  0  0  0  0  0  0  0  0  0
   -0.7452   15.4894   -3.6939 H   0  0  0  0  0  0  0  0  0  0  0  0
    1.9841   15.6908   -3.2208 H   0  0  0  0  0  0  0  0  0  0  0  0
    2.8363   15.3092   -4.7554 H   0  0  0  0  0  0  0  0  0  0  0  0
    1.4599   16.4635   -4.7554 H   0  0  0  0  0  0  0  0  0  0  0  0
  1  2  1  0
  2  3  1  0
  3  4  1  0
  4  5  1  0
  5  6  1  0
  6  7  1  0
  7  8  1  0
  7  9  1  0
  2 10  1  0
 10 11  1  0
 11 12  1  0
 12 13  1  0
 13 14  1  6
 13 15  1  0
 15 16  1  0
 16 17  1  0
 17 18  2  0
 18 19  1  0
 19 20  1  0
 20 21  1  0
 21 22  1  0
 22 23  1  0
 22 24  1  0
 24 25  1  0
 24 26  1  0
 19 27  1  0
 27 28  1  1
 27 29  1  0
 29 30  1  0
 30 31  1  0
 31 32  1  6
  7  5  1  0
 31 10  1  0
 31 13  1  0
 27 15  1  0
 24 18  1  0
  1 33  1  0
  1 34  1  0
  1 35  1  0
  2 36  1  6
  3 37  1  0
  3 38  1  0
  4 39  1  0
  4 40  1  0
  5 41  1  1
  8 42  1  0
  8 43  1  0
  8 44  1  0
  9 45  1  0
  9 46  1  0
  9 47  1  0
 10 48  1  1
 11 49  1  0
 11 50  1  0
 12 51  1  0
 12 52  1  0
 14 53  1  0
 14 54  1  0
 14 55  1  0
 15 56  1  6
 16 57  1  0
 16 58  1  0
 17 59  1  0
 19 60  1  6
 20 61  1  0
 20 62  1  0
 21 63  1  0
 21 64  1  0
 22 65  1  1
 23 66  1  0
 25 67  1  0
 25 68  1  0
 25 69  1  0
 26 70  1  0
 26 71  1  0
 26 72  1  0
 28 73  1  0
 28 74  1  0
 28 75  1  0
 29 76  1  0
 29 77  1  0
 30 78  1  0
 30 79  1  0
 32 80  1  0
 32 81  1  0
 32 82  1  0
M  END
>  <meeko>  (12) 
{"is_sidechain": [false], "intermolecular_energy": 2.731, "internal_energy": -0.839}

$$$$
EPH_relaxed_0001_pdb2pqr_Repair_270_r2_0001_out
     RDKit          3D

 82 86  0  0  0  0  0  0  0  0999 V2000
   -4.0510    7.3750   -3.5340 C   0  0  0  0  0  0  0  0  0  0  0  0
   -3.7210    7.2950   -2.0410 C   0  0  2  0  0  0  0  0  0  0  0  0
   -4.9410    6.8710   -1.1990 C   0  0  0  0  0  0  0  0  0  0  0  0
   -6.1840    6.5510   -2.0330 C   0  0  0  0  0  0  0  0  0  0  0  0
   -7.3910    6.3380   -1.1710 C   0  0  2  0  0  0  0  0  0  0  0  0
   -8.4500    5.6000   -1.7950 O   0  0  0  0  0  0  0  0  0  0  0  0
   -8.7430    6.9650   -1.4540 C   0  0  0  0  0  0  0  0  0  0  0  0
   -8.9580    7.8550   -2.6380 C   0  0  0  0  0  0  0  0  0  0  0  0
   -9.7160    7.1090   -0.3250 C   0  0  0  0  0  0  0  0  0  0  0  0
   -3.1930    8.6390   -1.5530 C   0  0  1  0  0  0  0  0  0  0  0  0
   -3.8420    9.0870   -0.2160 C   0  0  0  0  0  0  0  0  0  0  0  0
   -2.7460    9.8370    0.5840 C   0  0  0  0  0  0  0  0  0  0  0  0
   -1.6160   10.0870   -0.4420 C   0  0  1  0  0  0  0  0  0  0  0  0
   -2.0720   11.3470   -1.2430 C   0  0  0  0  0  0  0  0  0  0  0  0
   -0.1780   10.2650    0.1440 C   0  0  2  0  0  0  0  0  0  0  0  0
    0.0030   11.4790    1.0720 C   0  0  0  0  0  0  0  0  0  0  0  0
    0.4260   12.7410    0.3960 C   0  0  0  0  0  0  0  0  0  0  0  0
    0.9260   12.8310   -0.8500 C   0  0  0  0  0  0  0  0  0  0  0  0
    1.2020   11.5710   -1.6810 C   0  0  1  0  0  0  0  0  0  0  0  0
    2.6060   11.6770   -2.3310 C   0  0  0  0  0  0  0  0  0  0  0  0
    2.7820   12.9590   -3.1390 C   0  0  0  0  0  0  0  0  0  0  0  0
    2.5570   14.1900   -2.2650 C   0  0  2  0  0  0  0  0  0  0  0  0
    3.6040   14.2610   -1.2910 O   0  0  0  0  0  0  0  0  0  0  0  0
    1.1770   14.1900   -1.5500 C   0  0  0  0  0  0  0  0  0  0  0  0
    0.0520   14.4160   -2.5890 C   0  0  0  0  0  0  0  0  0  0  0  0
    1.1360   15.4110   -0.5920 C   0  0  0  0  0  0  0  0  0  0  0  0
    0.9770   10.1860   -0.9360 C   0  0  1  0  0  0  0  0  0  0  0  0
    2.2730    9.7760   -0.1730 C   0  0  0  0  0  0  0  0  0  0  0  0
    0.7180    9.0620   -2.0070 C   0  0  0  0  0  0  0  0  0  0  0  0
   -0.7410    8.8540   -2.4580 C   0  0  0  0  0  0  0  0  0  0  0  0
   -1.6770    8.7400   -1.2510 C   0  0  2  0  0  0  0  0  0  0  0  0
   -1.2560    7.4680   -0.4380 C   0  0  0  0  0  0  0  0  0  0  0  0
   -5.1128    7.6324   -3.6615 H   0  0  0  0  0  0  0  0  0  0  0  0
   -3.4270    8.1479   -4.0065 H   0  0  0  0  0  0  0  0  0  0  0  0
   -3.8502    6.4022   -4.0065 H   0  0  0  0  0  0  0  0  0  0  0  0
   -2.9476    6.5232   -1.9136 H   0  0  0  0  0  0  0  0  0  0  0  0
   -4.6699    5.9746   -0.6220 H   0  0  0  0  0  0  0  0  0  0  0  0
   -5.1980    7.7241   -0.5539 H   0  0  0  0  0  0  0  0  0  0  0  0
   -6.3789    7.3892   -2.7182 H   0  0  0  0  0  0  0  0  0  0  0  0
   -5.9928    5.6221   -2.5903 H   0  0  0  0  0  0  0  0  0  0  0  0
   -6.7673    6.3072   -0.2654 H   0  0  0  0  0  0  0  0  0  0  0  0
   -9.2033    8.8705   -2.2936 H   0  0  0  0  0  0  0  0  0  0  0  0
   -8.0413    7.8852   -3.2453 H   0  0  0  0  0  0  0  0  0  0  0  0
   -9.7874    7.4634   -3.2453 H   0  0  0  0  0  0  0  0  0  0  0  0
   -9.1807    7.0298    0.6327 H   0  0  0  0  0  0  0  0  0  0  0  0
  -10.2095    8.0900   -0.3892 H   0  0  0  0  0  0  0  0  0  0  0  0
  -10.4725    6.3130   -0.3892 H   0  0  0  0  0  0  0  0  0  0  0  0
   -3.4460    9.2629   -2.4229 H   0  0  0  0  0  0  0  0  0  0  0  0
   -4.6921    9.7566   -0.4133 H   0  0  0  0  0  0  0  0  0  0  0  0
   -4.2209    8.2222    0.3484 H   0  0  0  0  0  0  0  0  0  0  0  0
   -3.1336   10.7895    0.9745 H   0  0  0  0  0  0  0  0  0  0  0  0
   -2.3987    9.2623    1.4552 H   0  0  0  0  0  0  0  0  0  0  0  0
   -2.3602   12.1433   -0.5410 H   0  0  0  0  0  0  0  0  0  0  0  0
   -1.2440   11.6984   -1.8762 H   0  0  0  0  0  0  0  0  0  0  0  0
   -2.9331   11.0871   -1.8762 H   0  0  0  0  0  0  0  0  0  0  0  0
   -0.0747    9.3789    0.7875 H   0  0  0  0  0  0  0  0  0  0  0  0
   -0.9567   11.6682    1.5752 H   0  0  0  0  0  0  0  0  0  0  0  0
    0.8180   11.2156    1.7622 H   0  0  0  0  0  0  0  0  0  0  0  0
    0.3200   13.6766    0.9647 H   0  0  0  0  0  0  0  0  0  0  0  0
    0.4294   11.5475   -2.4636 H   0  0  0  0  0  0  0  0  0  0  0  0
    3.3653   11.6547   -1.5354 H   0  0  0  0  0  0  0  0  0  0  0  0
    2.7185   10.8288   -3.0224 H   0  0  0  0  0  0  0  0  0  0  0  0
    3.8027   12.9895   -3.5479 H   0  0  0  0  0  0  0  0  0  0  0  0
    2.0414   12.9658   -3.9523 H   0  0  0  0  0  0  0  0  0  0  0  0
    2.5677   15.0699   -2.9250 H   0  0  0  0  0  0  0  0  0  0  0  0
    4.0700   15.1040   -1.4210 H   0  0  0  0  0  0  0  0  0  0  0  0
   -0.8969   14.6066   -2.0663 H   0  0  0  0  0  0  0  0  0  0  0  0
    0.3036   15.2815   -3.2195 H   0  0  0  0  0  0  0  0  0  0  0  0
   -0.0501   13.5204   -3.2195 H   0  0  0  0  0  0  0  0  0  0  0  0
    1.1478   15.0598    0.4504 H   0  0  0  0  0  0  0  0  0  0  0  0
    2.0132   16.0493   -0.7738 H   0  0  0  0  0  0  0  0  0  0  0  0
    0.2179   15.9890   -0.7738 H   0  0  0  0  0  0  0  0  0  0  0  0
    2.0939    9.8327    0.9108 H   0  0  0  0  0  0  0  0  0  0  0  0
    2.5489    8.7467   -0.4457 H   0  0  0  0  0  0  0  0  0  0  0  0
    3.0907   10.4593   -0.4457 H   0  0  0  0  0  0  0  0  0  0  0  0
    1.3100    9.3107   -2.9001 H   0  0  0  0  0  0  0  0  0  0  0  0
    1.0027    8.1219   -1.5119 H   0  0  0  0  0  0  0  0  0  0  0  0
   -1.0523    9.7097   -3.0752 H   0  0  0  0  0  0  0  0  0  0  0  0
   -0.7995    7.9203   -3.0366 H   0  0  0  0  0  0  0  0  0  0  0  0
   -1.3265    7.6812    0.6388 H   0  0  0  0  0  0  0  0  0  0  0  0
   -1.9256    6.6328   -0.6911 H   0  0  0  0  0  0  0  0  0  0  0  0
   -0.2203    7.1972   -0.6911 H   0  0  0  0  0  0  0  0  0  0  0  0
  1  2  1  0
  2  3  1  0
  3  4  1  0
  4  5  1  0
  5  6  1  0
  6  7  1  0
  7  8  1  0
  7  9  1  0
  2 10  1  0
 10 11  1  0
 11 12  1  0
 12 13  1  0
 13 14  1  6
 13 15  1  0
 15 16  1  0
 16 17  1  0
 17 18  2  0
 18 19  1  0
 19 20  1  0
 20 21  1  0
 21 22  1  0
 22 23  1  0
 22 24  1  0
 24 25  1  0
 24 26  1  0
 19 27  1  0
 27 28  1  1
 27 29  1  0
 29 30  1  0
 30 31  1  0
 31 32  1  1
  7  5  1  0
 31 10  1  0
 31 13  1  0
 27 15  1  0
 24 18  1  0
  1 33  1  0
  1 34  1  0
  1 35  1  0
  2 36  1  6
  3 37  1  0
  3 38  1  0
  4 39  1  0
  4 40  1  0
  5 41  1  1
  8 42  1  0
  8 43  1  0
  8 44  1  0
  9 45  1  0
  9 46  1  0
  9 47  1  0
 10 48  1  6
 11 49  1  0
 11 50  1  0
 12 51  1  0
 12 52  1  0
 14 53  1  0
 14 54  1  0
 14 55  1  0
 15 56  1  1
 16 57  1  0
 16 58  1  0
 17 59  1  0
 19 60  1  6
 20 61  1  0
 20 62  1  0
 21 63  1  0
 21 64  1  0
 22 65  1  6
 23 66  1  0
 25 67  1  0
 25 68  1  0
 25 69  1  0
 26 70  1  0
 26 71  1  0
 26 72  1  0
 28 73  1  0
 28 74  1  0
 28 75  1  0
 29 76  1  0
 29 77  1  0
 30 78  1  0
 30 79  1  0
 32 80  1  0
 32 81  1  0
 32 82  1  0
M  END
>  <meeko>  (13) 
{"is_sidechain": [false], "intermolecular_energy": 2.731, "internal_energy": -0.839}

$$$$
EPH_relaxed_0001_pdb2pqr_Repair_270_r2_0001_out
     RDKit          3D

 82 86  0  0  0  0  0  0  0  0999 V2000
   -0.0350    9.2310   -1.9400 C   0  0  0  0  0  0  0  0  0  0  0  0
    0.9640   10.2350   -2.5230 C   0  0  2  0  0  0  0  0  0  0  0  0
    2.3670    9.6210   -2.7030 C   0  0  0  0  0  0  0  0  0  0  0  0
    3.2520   10.3880   -3.6880 C   0  0  0  0  0  0  0  0  0  0  0  0
    4.6630   10.5000   -3.1940 C   0  0  2  0  0  0  0  0  0  0  0  0
    5.2530   11.7960   -3.3580 O   0  0  0  0  0  0  0  0  0  0  0  0
    5.8540   10.7270   -4.1070 C   0  0  0  0  0  0  0  0  0  0  0  0
    5.6880   10.8530   -5.5890 C   0  0  0  0  0  0  0  0  0  0  0  0
    7.2140   10.3380   -3.6180 C   0  0  0  0  0  0  0  0  0  0  0  0
    1.0460   11.4660   -1.6280 C   0  0  1  0  0  0  0  0  0  0  0  0
    2.1440   11.3420   -0.5390 C   0  0  0  0  0  0  0  0  0  0  0  0
    2.7350   12.7600   -0.3340 C   0  0  0  0  0  0  0  0  0  0  0  0
    1.7450   13.7030   -1.0580 C   0  0  1  0  0  0  0  0  0  0  0  0
    0.5740   13.9080   -0.0470 C   0  0  0  0  0  0  0  0  0  0  0  0
    2.3260   15.0680   -1.5520 C   0  0  2  0  0  0  0  0  0  0  0  0
    2.8470   15.9960   -0.4410 C   0  0  0  0  0  0  0  0  0  0  0  0
    1.8420   16.9470    0.1190 C   0  0  0  0  0  0  0  0  0  0  0  0
    0.6560   17.2520   -0.4420 C   0  0  0  0  0  0  0  0  0  0  0  0
    0.2660   16.6900   -1.8150 C   0  0  1  0  0  0  0  0  0  0  0  0
   -0.3070   17.8290   -2.6970 C   0  0  0  0  0  0  0  0  0  0  0  0
   -1.4580   18.5700   -2.0220 C   0  0  0  0  0  0  0  0  0  0  0  0
   -1.0150   19.1640   -0.6870 C   0  0  2  0  0  0  0  0  0  0  0  0
   -0.0540   20.1940   -0.9370 O   0  0  0  0  0  0  0  0  0  0  0  0
   -0.4100   18.1100    0.2820 C   0  0  0  0  0  0  0  0  0  0  0  0
   -1.5290   17.1680    0.7900 C   0  0  0  0  0  0  0  0  0  0  0  0
    0.1250   18.8610    1.5310 C   0  0  0  0  0  0  0  0  0  0  0  0
    1.3860   15.8450   -2.5610 C   0  0  1  0  0  0  0  0  0  0  0  0
    2.3080   16.7940   -3.3860 C   0  0  0  0  0  0  0  0  0  0  0  0
    0.6970   14.8820   -3.6000 C   0  0  0  0  0  0  0  0  0  0  0  0
    0.2530   13.5020   -3.0790 C   0  0  0  0  0  0  0  0  0  0  0  0
    1.3850   12.8170   -2.3060 C   0  0  2  0  0  0  0  0  0  0  0  0
    2.5690   12.5780   -3.3040 C   0  0  0  0  0  0  0  0  0  0  0  0
    0.0043    9.2705   -0.8414 H   0  0  0  0  0  0  0  0  0  0  0  0
   -1.0500    9.4842   -2.2799 H   0  0  0  0  0  0  0  0  0  0  0  0
    0.2233    8.2172   -2.2799 H   0  0  0  0  0  0  0  0  0  0  0  0
    0.5992   10.5232   -3.5199 H   0  0  0  0  0  0  0  0  0  0  0  0
    2.8682    9.6070   -1.7239 H   0  0  0  0  0  0  0  0  0  0  0  0
    2.2257    8.6115   -3.1164 H   0  0  0  0  0  0  0  0  0  0  0  0
    3.2529    9.8594   -4.6527 H   0  0  0  0  0  0  0  0  0  0  0  0
    2.8446   11.4041   -3.7958 H   0  0  0  0  0  0  0  0  0  0  0  0
    4.4701    9.7598   -2.4035 H   0  0  0  0  0  0  0  0  0  0  0  0
    4.8293   11.5048   -5.8077 H   0  0  0  0  0  0  0  0  0  0  0  0
    6.5994   11.2888   -6.0243 H   0  0  0  0  0  0  0  0  0  0  0  0
    5.5133    9.8580   -6.0243 H   0  0  0  0  0  0  0  0  0  0  0  0
    7.2214   10.3359   -2.5180 H   0  0  0  0  0  0  0  0  0  0  0  0
    7.4631    9.3326   -3.9883 H   0  0  0  0  0  0  0  0  0  0  0  0
    7.9571   11.0596   -3.9883 H   0  0  0  0  0  0  0  0  0  0  0  0
    0.0145   11.4843   -1.2463 H   0  0  0  0  0  0  0  0  0  0  0  0
    1.7054   10.9753    0.4007 H   0  0  0  0  0  0  0  0  0  0  0  0
    2.9245   10.6300   -0.8454 H   0  0  0  0  0  0  0  0  0  0  0  0
    2.7930   13.0056    0.7367 H   0  0  0  0  0  0  0  0  0  0  0  0
    3.7583   12.8468   -0.7282 H   0  0  0  0  0  0  0  0  0  0  0  0
    0.9607   13.8403    0.9806 H   0  0  0  0  0  0  0  0  0  0  0  0
    0.1228   14.8988   -0.2045 H   0  0  0  0  0  0  0  0  0  0  0  0
   -0.1869   13.1294   -0.2045 H   0  0  0  0  0  0  0  0  0  0  0  0
    3.2144   14.7546   -2.1198 H   0  0  0  0  0  0  0  0  0  0  0  0
    3.2152   15.3667    0.3826 H   0  0  0  0  0  0  0  0  0  0  0  0
    3.6280   16.6167   -0.9044 H   0  0  0  0  0  0  0  0  0  0  0  0
    2.0909   17.4404    1.0701 H   0  0  0  0  0  0  0  0  0  0  0  0
   -0.5134   15.9373   -1.6255 H   0  0  0  0  0  0  0  0  0  0  0  0
    0.4976   18.5478   -2.9111 H   0  0  0  0  0  0  0  0  0  0  0  0
   -0.6985   17.3729   -3.6182 H   0  0  0  0  0  0  0  0  0  0  0  0
   -1.8000   19.3813   -2.6814 H   0  0  0  0  0  0  0  0  0  0  0  0
   -2.2742   17.8565   -1.8357 H   0  0  0  0  0  0  0  0  0  0  0  0
   -1.9108   19.5675   -0.1923 H   0  0  0  0  0  0  0  0  0  0  0  0
    0.2310   20.5460   -0.0770 H   0  0  0  0  0  0  0  0  0  0  0  0
   -1.5337   17.1641    1.8900 H   0  0  0  0  0  0  0  0  0  0  0  0
   -2.5025   17.5225    0.4205 H   0  0  0  0  0  0  0  0  0  0  0  0
   -1.3457   16.1483    0.4205 H   0  0  0  0  0  0  0  0  0  0  0  0
   -0.2327   18.3588    2.4419 H   0  0  0  0  0  0  0  0  0  0  0  0
    1.2249   18.8570    1.5180 H   0  0  0  0  0  0  0  0  0  0  0  0
   -0.2381   19.8993    1.5180 H   0  0  0  0  0  0  0  0  0  0  0  0
    2.9072   17.4107   -2.7000 H   0  0  0  0  0  0  0  0  0  0  0  0
    2.9778   16.1945   -4.0200 H   0  0  0  0  0  0  0  0  0  0  0  0
    1.6894   17.4462   -4.0200 H   0  0  0  0  0  0  0  0  0  0  0  0
   -0.1958   15.3945   -3.9876 H   0  0  0  0  0  0  0  0  0  0  0  0
    1.4702   14.6703   -4.3532 H   0  0  0  0  0  0  0  0  0  0  0  0
   -0.6119   13.6306   -2.4116 H   0  0  0  0  0  0  0  0  0  0  0  0
   -0.0150   12.8719   -3.9399 H   0  0  0  0  0  0  0  0  0  0  0  0
    3.4936   12.3914   -2.7380 H   0  0  0  0  0  0  0  0  0  0  0  0
    2.3446   11.7070   -3.9373 H   0  0  0  0  0  0  0  0  0  0  0  0
    2.7000   13.4678   -3.9373 H   0  0  0  0  0  0  0  0  0  0  0  0
  1  2  1  0
  2  3  1  0
  3  4  1  0
  4  5  1  0
  5  6  1  0
  6  7  1  0
  7  8  1  0
  7  9  1  0
  2 10  1  0
 10 11  1  0
 11 12  1  0
 12 13  1  0
 13 14  1  1
 13 15  1  0
 15 16  1  0
 16 17  1  0
 17 18  2  0
 18 19  1  0
 19 20  1  0
 20 21  1  0
 21 22  1  0
 22 23  1  0
 22 24  1  0
 24 25  1  0
 24 26  1  0
 19 27  1  0
 27 28  1  6
 27 29  1  0
 29 30  1  0
 30 31  1  0
 31 32  1  6
  7  5  1  0
 31 10  1  0
 31 13  1  0
 27 15  1  0
 24 18  1  0
  1 33  1  0
  1 34  1  0
  1 35  1  0
  2 36  1  6
  3 37  1  0
  3 38  1  0
  4 39  1  0
  4 40  1  0
  5 41  1  1
  8 42  1  0
  8 43  1  0
  8 44  1  0
  9 45  1  0
  9 46  1  0
  9 47  1  0
 10 48  1  1
 11 49  1  0
 11 50  1  0
 12 51  1  0
 12 52  1  0
 14 53  1  0
 14 54  1  0
 14 55  1  0
 15 56  1  6
 16 57  1  0
 16 58  1  0
 17 59  1  0
 19 60  1  1
 20 61  1  0
 20 62  1  0
 21 63  1  0
 21 64  1  0
 22 65  1  1
 23 66  1  0
 25 67  1  0
 25 68  1  0
 25 69  1  0
 26 70  1  0
 26 71  1  0
 26 72  1  0
 28 73  1  0
 28 74  1  0
 28 75  1  0
 29 76  1  0
 29 77  1  0
 30 78  1  0
 30 79  1  0
 32 80  1  0
 32 81  1  0
 32 82  1  0
M  END
>  <meeko>  (14) 
{"is_sidechain": [false], "intermolecular_energy": 2.731, "internal_energy": -0.839}

$$$$
EPH_relaxed_0001_pdb2pqr_Repair_270_r2_0001_out
     RDKit          3D

 82 86  0  0  0  0  0  0  0  0999 V2000
   -2.1050    7.8060   -2.1390 C   0  0  0  0  0  0  0  0  0  0  0  0
   -2.3440    8.5140   -0.8030 C   0  0  2  0  0  0  0  0  0  0  0  0
   -3.8360    8.5350   -0.4160 C   0  0  0  0  0  0  0  0  0  0  0  0
   -4.6540    7.4090   -1.0550 C   0  0  0  0  0  0  0  0  0  0  0  0
   -6.1130    7.7490   -1.1150 C   0  0  2  0  0  0  0  0  0  0  0  0
   -6.9940    6.6590   -0.8130 O   0  0  0  0  0  0  0  0  0  0  0  0
   -7.0630    7.1770   -2.1510 C   0  0  0  0  0  0  0  0  0  0  0  0
   -6.5900    6.2200   -3.2000 C   0  0  0  0  0  0  0  0  0  0  0  0
   -8.3290    7.9180   -2.4460 C   0  0  0  0  0  0  0  0  0  0  0  0
   -1.8020    9.9370   -0.8640 C   0  0  1  0  0  0  0  0  0  0  0  0
   -1.3840   10.4780    0.5290 C   0  0  0  0  0  0  0  0  0  0  0  0
   -0.1490   11.3880    0.3030 C   0  0  0  0  0  0  0  0  0  0  0  0
   -0.1000   11.6060   -1.2270 C   0  0  1  0  0  0  0  0  0  0  0  0
   -1.1400   12.7360   -1.5040 C   0  0  0  0  0  0  0  0  0  0  0  0
    1.3000   11.9500   -1.8320 C   0  0  2  0  0  0  0  0  0  0  0  0
    1.9210   13.2670   -1.3330 C   0  0  0  0  0  0  0  0  0  0  0  0
    1.5870   14.4760   -2.1420 C   0  0  0  0  0  0  0  0  0  0  0  0
    1.0580   14.4670   -3.3790 C   0  0  0  0  0  0  0  0  0  0  0  0
    0.8330   13.1490   -4.1300 C   0  0  1  0  0  0  0  0  0  0  0  0
    1.3560   13.2850   -5.5850 C   0  0  0  0  0  0  0  0  0  0  0  0
    0.7530   14.4820   -6.3130 C   0  0  0  0  0  0  0  0  0  0  0  0
    1.0480   15.7810   -5.5670 C   0  0  2  0  0  0  0  0  0  0  0  0
    2.4560   16.0320   -5.6180 O   0  0  0  0  0  0  0  0  0  0  0  0
    0.5740   15.7570   -4.0870 C   0  0  0  0  0  0  0  0  0  0  0  0
   -0.9730   15.7890   -4.0350 C   0  0  0  0  0  0  0  0  0  0  0  0
    1.0580   17.0680   -3.4100 C   0  0  0  0  0  0  0  0  0  0  0  0
    1.3710   11.8390   -3.4090 C   0  0  1  0  0  0  0  0  0  0  0  0
    2.8690   11.6080   -3.7720 C   0  0  0  0  0  0  0  0  0  0  0  0
    0.5840   10.5900   -3.9560 C   0  0  0  0  0  0  0  0  0  0  0  0
   -0.7320   10.2300   -3.2410 C   0  0  0  0  0  0  0  0  0  0  0  0
   -0.5350   10.1790   -1.7230 C   0  0  2  0  0  0  0  0  0  0  0  0
    0.4900    9.0360   -1.4120 C   0  0  0  0  0  0  0  0  0  0  0  0
   -1.7583    6.7788   -1.9528 H   0  0  0  0  0  0  0  0  0  0  0  0
   -3.0435    7.7779   -2.7121 H   0  0  0  0  0  0  0  0  0  0  0  0
   -1.3415    8.3525   -2.7121 H   0  0  0  0  0  0  0  0  0  0  0  0
   -1.8095    7.9458   -0.0275 H   0  0  0  0  0  0  0  0  0  0  0  0
   -3.9124    8.4422    0.6774 H   0  0  0  0  0  0  0  0  0  0  0  0
   -4.2508    9.4839   -0.7869 H   0  0  0  0  0  0  0  0  0  0  0  0
   -4.2858    7.2366   -2.0771 H   0  0  0  0  0  0  0  0  0  0  0  0
   -4.5372    6.5068   -0.4366 H   0  0  0  0  0  0  0  0  0  0  0  0
   -5.9109    8.7798   -0.7885 H   0  0  0  0  0  0  0  0  0  0  0  0
   -6.1520    5.3339   -2.7173 H   0  0  0  0  0  0  0  0  0  0  0  0
   -7.4403    5.9134   -3.8269 H   0  0  0  0  0  0  0  0  0  0  0  0
   -5.8300    6.7093   -3.8269 H   0  0  0  0  0  0  0  0  0  0  0  0
   -8.8157    8.2029   -1.5016 H   0  0  0  0  0  0  0  0  0  0  0  0
   -8.0973    8.8231   -3.0267 H   0  0  0  0  0  0  0  0  0  0  0  0
   -9.0047    7.2728   -3.0267 H   0  0  0  0  0  0  0  0  0  0  0  0
   -2.6665   10.4441   -1.3173 H   0  0  0  0  0  0  0  0  0  0  0  0
   -2.2064   11.0587    0.9723 H   0  0  0  0  0  0  0  0  0  0  0  0
   -1.1468    9.6539    1.2179 H   0  0  0  0  0  0  0  0  0  0  0  0
   -0.2718   12.3467    0.8281 H   0  0  0  0  0  0  0  0  0  0  0  0
    0.7771   10.9381    0.6902 H   0  0  0  0  0  0  0  0  0  0  0  0
   -1.5090   13.1370   -0.5485 H   0  0  0  0  0  0  0  0  0  0  0  0
   -0.6612   13.5420   -2.0794 H   0  0  0  0  0  0  0  0  0  0  0  0
   -1.9829   12.3256   -2.0794 H   0  0  0  0  0  0  0  0  0  0  0  0
    1.9344   11.1477   -1.4271 H   0  0  0  0  0  0  0  0  0  0  0  0
    1.5716   13.4392   -0.3043 H   0  0  0  0  0  0  0  0  0  0  0  0
    3.0106   13.1391   -1.4126 H   0  0  0  0  0  0  0  0  0  0  0  0
    1.7906   15.4573   -1.6885 H   0  0  0  0  0  0  0  0  0  0  0  0
   -0.2549   12.9866   -4.1379 H   0  0  0  0  0  0  0  0  0  0  0  0
    2.4493   13.4031   -5.5573 H   0  0  0  0  0  0  0  0  0  0  0  0
    1.0610   12.3776   -6.1324 H   0  0  0  0  0  0  0  0  0  0  0  0
    1.1826   14.5421   -7.3239 H   0  0  0  0  0  0  0  0  0  0  0  0
   -0.3375   14.3476   -6.3653 H   0  0  0  0  0  0  0  0  0  0  0  0
    0.4837   16.5837   -6.0642 H   0  0  0  0  0  0  0  0  0  0  0  0
    2.9100   15.2200   -5.3330 H   0  0  0  0  0  0  0  0  0  0  0  0
   -1.3046   15.7959   -2.9862 H   0  0  0  0  0  0  0  0  0  0  0  0
   -1.3382   16.6949   -4.5409 H   0  0  0  0  0  0  0  0  0  0  0  0
   -1.3754   14.8990   -4.5409 H   0  0  0  0  0  0  0  0  0  0  0  0
    1.0157   16.9534   -2.3168 H   0  0  0  0  0  0  0  0  0  0  0  0
    2.0931   17.2786   -3.7168 H   0  0  0  0  0  0  0  0  0  0  0  0
    0.4080   17.9007   -3.7168 H   0  0  0  0  0  0  0  0  0  0  0  0
    3.4601   11.5168   -2.8488 H   0  0  0  0  0  0  0  0  0  0  0  0
    2.9652   10.6844   -4.3617 H   0  0  0  0  0  0  0  0  0  0  0  0
    3.2389   12.4597   -4.3617 H   0  0  0  0  0  0  0  0  0  0  0  0
    0.3465   10.7830   -5.0126 H   0  0  0  0  0  0  0  0  0  0  0  0
    1.2498    9.7318   -3.7822 H   0  0  0  0  0  0  0  0  0  0  0  0
   -1.4909   10.9896   -3.4801 H   0  0  0  0  0  0  0  0  0  0  0  0
   -1.0584    9.2378   -3.5858 H   0  0  0  0  0  0  0  0  0  0  0  0
    0.5925    8.9217   -0.3228 H   0  0  0  0  0  0  0  0  0  0  0  0
    0.1300    8.0922   -1.8474 H   0  0  0  0  0  0  0  0  0  0  0  0
    1.4673    9.2914   -1.8474 H   0  0  0  0  0  0  0  0  0  0  0  0
  1  2  1  0
  2  3  1  0
  3  4  1  0
  4  5  1  0
  5  6  1  0
  6  7  1  0
  7  8  1  0
  7  9  1  0
  2 10  1  0
 10 11  1  0
 11 12  1  0
 12 13  1  0
 13 14  1  1
 13 15  1  0
 15 16  1  0
 16 17  1  0
 17 18  2  0
 18 19  1  0
 19 20  1  0
 20 21  1  0
 21 22  1  0
 22 23  1  0
 22 24  1  0
 24 25  1  0
 24 26  1  0
 19 27  1  0
 27 28  1  1
 27 29  1  0
 29 30  1  0
 30 31  1  0
 31 32  1  6
  7  5  1  0
 31 10  1  0
 31 13  1  0
 27 15  1  0
 24 18  1  0
  1 33  1  0
  1 34  1  0
  1 35  1  0
  2 36  1  1
  3 37  1  0
  3 38  1  0
  4 39  1  0
  4 40  1  0
  5 41  1  1
  8 42  1  0
  8 43  1  0
  8 44  1  0
  9 45  1  0
  9 46  1  0
  9 47  1  0
 10 48  1  6
 11 49  1  0
 11 50  1  0
 12 51  1  0
 12 52  1  0
 14 53  1  0
 14 54  1  0
 14 55  1  0
 15 56  1  1
 16 57  1  0
 16 58  1  0
 17 59  1  0
 19 60  1  6
 20 61  1  0
 20 62  1  0
 21 63  1  0
 21 64  1  0
 22 65  1  6
 23 66  1  0
 25 67  1  0
 25 68  1  0
 25 69  1  0
 26 70  1  0
 26 71  1  0
 26 72  1  0
 28 73  1  0
 28 74  1  0
 28 75  1  0
 29 76  1  0
 29 77  1  0
 30 78  1  0
 30 79  1  0
 32 80  1  0
 32 81  1  0
 32 82  1  0
M  END
>  <meeko>  (15) 
{"is_sidechain": [false], "intermolecular_energy": 2.731, "internal_energy": -0.839}

$$$$
EPH_relaxed_0001_pdb2pqr_Repair_270_r2_0001_out
     RDKit          3D

 82 86  0  0  0  0  0  0  0  0999 V2000
    2.1820   10.5160   -3.7770 C   0  0  0  0  0  0  0  0  0  0  0  0
    1.3120   10.2530   -2.5440 C   0  0  2  0  0  0  0  0  0  0  0  0
   -0.1260    9.8490   -2.9240 C   0  0  0  0  0  0  0  0  0  0  0  0
   -0.6560    8.6460   -2.1400 C   0  0  0  0  0  0  0  0  0  0  0  0
   -2.0120    8.9150   -1.5620 C   0  0  2  0  0  0  0  0  0  0  0  0
   -2.3610   10.3020   -1.4730 O   0  0  0  0  0  0  0  0  0  0  0  0
   -2.2320    9.6000   -0.2260 C   0  0  0  0  0  0  0  0  0  0  0  0
   -1.0810   10.0590    0.6140 C   0  0  0  0  0  0  0  0  0  0  0  0
   -3.5330    9.3860    0.4830 C   0  0  0  0  0  0  0  0  0  0  0  0
    1.2880   11.4880   -1.6510 C   0  0  1  0  0  0  0  0  0  0  0  0
    2.2850   11.3870   -0.4660 C   0  0  0  0  0  0  0  0  0  0  0  0
    2.8270   12.8180   -0.2150 C   0  0  0  0  0  0  0  0  0  0  0  0
    1.8890   13.7390   -1.0300 C   0  0  1  0  0  0  0  0  0  0  0  0
    0.6270   13.9230   -0.1310 C   0  0  0  0  0  0  0  0  0  0  0  0
    2.4870   15.1130   -1.4750 C   0  0  2  0  0  0  0  0  0  0  0  0
    2.8860   16.0540   -0.3250 C   0  0  0  0  0  0  0  0  0  0  0  0
    1.8160   16.9870    0.1370 C   0  0  0  0  0  0  0  0  0  0  0  0
    0.6810   17.2680   -0.5310 C   0  0  0  0  0  0  0  0  0  0  0  0
    0.4290   16.6940   -1.9320 C   0  0  1  0  0  0  0  0  0  0  0  0
   -0.0830   17.8200   -2.8680 C   0  0  0  0  0  0  0  0  0  0  0  0
   -1.3050   18.5400   -2.3030 C   0  0  0  0  0  0  0  0  0  0  0  0
   -0.9970   19.1460   -0.9360 C   0  0  2  0  0  0  0  0  0  0  0  0
   -0.0380   20.1940   -1.1020 O   0  0  0  0  0  0  0  0  0  0  0  0
   -0.4630   18.1070    0.0890 C   0  0  0  0  0  0  0  0  0  0  0  0
   -1.6060   17.1440    0.4970 C   0  0  0  0  0  0  0  0  0  0  0  0
   -0.0600   18.8720    1.3780 C   0  0  0  0  0  0  0  0  0  0  0  0
    1.6290   15.8690   -2.5690 C   0  0  1  0  0  0  0  0  0  0  0  0
    2.6030   16.8350   -3.3110 C   0  0  0  0  0  0  0  0  0  0  0  0
    1.0560   14.8910   -3.6620 C   0  0  0  0  0  0  0  0  0  0  0  0
    0.5930   13.5030   -3.1780 C   0  0  0  0  0  0  0  0  0  0  0  0
    1.6620   12.8430   -2.3020 C   0  0  2  0  0  0  0  0  0  0  0  0
    2.9370   12.6250   -3.1860 C   0  0  0  0  0  0  0  0  0  0  0  0
    3.1893   10.8205   -3.4568 H   0  0  0  0  0  0  0  0  0  0  0  0
    2.2506    9.5985   -4.3798 H   0  0  0  0  0  0  0  0  0  0  0  0
    1.7308   11.3179   -4.3798 H   0  0  0  0  0  0  0  0  0  0  0  0
    1.7585    9.4089   -1.9980 H   0  0  0  0  0  0  0  0  0  0  0  0
   -0.7889   10.7061   -2.7344 H   0  0  0  0  0  0  0  0  0  0  0  0
   -0.1079    9.5581   -3.9847 H   0  0  0  0  0  0  0  0  0  0  0  0
   -0.7219    7.7808   -2.8161 H   0  0  0  0  0  0  0  0  0  0  0  0
    0.0371    8.4455   -1.3097 H   0  0  0  0  0  0  0  0  0  0  0  0
   -2.4027    7.9770   -1.9833 H   0  0  0  0  0  0  0  0  0  0  0  0
   -1.3396    9.9559    1.6782 H   0  0  0  0  0  0  0  0  0  0  0  0
   -0.1961    9.4449    0.3905 H   0  0  0  0  0  0  0  0  0  0  0  0
   -0.8615   11.1135    0.3905 H   0  0  0  0  0  0  0  0  0  0  0  0
   -3.3670    9.4133    1.5701 H   0  0  0  0  0  0  0  0  0  0  0  0
   -4.2398   10.1800    0.2000 H   0  0  0  0  0  0  0  0  0  0  0  0
   -3.9482    8.4075    0.2000 H   0  0  0  0  0  0  0  0  0  0  0  0
    0.2259   11.4887   -1.3647 H   0  0  0  0  0  0  0  0  0  0  0  0
    1.7701   11.0140    0.4316 H   0  0  0  0  0  0  0  0  0  0  0  0
    3.1035   10.6892   -0.6965 H   0  0  0  0  0  0  0  0  0  0  0  0
    2.7827   13.0678    0.8553 H   0  0  0  0  0  0  0  0  0  0  0  0
    3.8799   12.9239   -0.5154 H   0  0  0  0  0  0  0  0  0  0  0  0
    0.9217   13.8800    0.9279 H   0  0  0  0  0  0  0  0  0  0  0  0
    0.1644   14.8981   -0.3436 H   0  0  0  0  0  0  0  0  0  0  0  0
   -0.0948   13.1206   -0.3436 H   0  0  0  0  0  0  0  0  0  0  0  0
    3.4294   14.8151   -1.9578 H   0  0  0  0  0  0  0  0  0  0  0  0
    3.1893   15.4341    0.5316 H   0  0  0  0  0  0  0  0  0  0  0  0
    3.6939   16.6887   -0.7180 H   0  0  0  0  0  0  0  0  0  0  0  0
    1.9676   17.4872    1.1049 H   0  0  0  0  0  0  0  0  0  0  0  0
   -0.3495   15.9264   -1.8112 H   0  0  0  0  0  0  0  0  0  0  0  0
    0.7239   18.5538   -3.0110 H   0  0  0  0  0  0  0  0  0  0  0  0
   -0.3799   17.3544   -3.8194 H   0  0  0  0  0  0  0  0  0  0  0  0
   -1.6015   19.3427   -2.9942 H   0  0  0  0  0  0  0  0  0  0  0  0
   -2.1205   17.8108   -2.1883 H   0  0  0  0  0  0  0  0  0  0  0  0
   -1.9418   19.5330   -0.5267 H   0  0  0  0  0  0  0  0  0  0  0  0
   -0.5190   20.9910   -1.3830 H   0  0  0  0  0  0  0  0  0  0  0  0
   -1.6676   17.0921    1.5940 H   0  0  0  0  0  0  0  0  0  0  0  0
   -2.5596   17.5150    0.0933 H   0  0  0  0  0  0  0  0  0  0  0  0
   -1.4023   16.1412    0.0933 H   0  0  0  0  0  0  0  0  0  0  0  0
   -0.3662   18.2907    2.2602 H   0  0  0  0  0  0  0  0  0  0  0  0
    1.0305   19.0151    1.3936 H   0  0  0  0  0  0  0  0  0  0  0  0
   -0.5587   19.8523    1.3936 H   0  0  0  0  0  0  0  0  0  0  0  0
    3.1823   17.4096   -2.5732 H   0  0  0  0  0  0  0  0  0  0  0  0
    3.2893   16.2507   -3.9415 H   0  0  0  0  0  0  0  0  0  0  0  0
    2.0244   17.5261   -3.9415 H   0  0  0  0  0  0  0  0  0  0  0  0
    0.1923   15.3852   -4.1309 H   0  0  0  0  0  0  0  0  0  0  0  0
    1.8983   14.6929   -4.3412 H   0  0  0  0  0  0  0  0  0  0  0  0
   -0.3319   13.6159   -2.5934 H   0  0  0  0  0  0  0  0  0  0  0  0
    0.4175   12.8656   -4.0572 H   0  0  0  0  0  0  0  0  0  0  0  0
    3.8122   12.4754   -2.5366 H   0  0  0  0  0  0  0  0  0  0  0  0
    2.7956   11.7380   -3.8210 H   0  0  0  0  0  0  0  0  0  0  0  0
    3.0984   13.5086   -3.8210 H   0  0  0  0  0  0  0  0  0  0  0  0
  1  2  1  0
  2  3  1  0
  3  4  1  0
  4  5  1  0
  5  6  1  0
  6  7  1  0
  7  8  1  0
  7  9  1  0
  2 10  1  0
 10 11  1  0
 11 12  1  0
 12 13  1  0
 13 14  1  1
 13 15  1  0
 15 16  1  0
 16 17  1  0
 17 18  2  0
 18 19  1  0
 19 20  1  0
 20 21  1  0
 21 22  1  0
 22 23  1  0
 22 24  1  0
 24 25  1  0
 24 26  1  0
 19 27  1  0
 27 28  1  6
 27 29  1  0
 29 30  1  0
 30 31  1  0
 31 32  1  6
  7  5  1  0
 31 10  1  0
 31 13  1  0
 27 15  1  0
 24 18  1  0
  1 33  1  0
  1 34  1  0
  1 35  1  0
  2 36  1  1
  3 37  1  0
  3 38  1  0
  4 39  1  0
  4 40  1  0
  5 41  1  6
  8 42  1  0
  8 43  1  0
  8 44  1  0
  9 45  1  0
  9 46  1  0
  9 47  1  0
 10 48  1  1
 11 49  1  0
 11 50  1  0
 12 51  1  0
 12 52  1  0
 14 53  1  0
 14 54  1  0
 14 55  1  0
 15 56  1  6
 16 57  1  0
 16 58  1  0
 17 59  1  0
 19 60  1  1
 20 61  1  0
 20 62  1  0
 21 63  1  0
 21 64  1  0
 22 65  1  1
 23 66  1  0
 25 67  1  0
 25 68  1  0
 25 69  1  0
 26 70  1  0
 26 71  1  0
 26 72  1  0
 28 73  1  0
 28 74  1  0
 28 75  1  0
 29 76  1  0
 29 77  1  0
 30 78  1  0
 30 79  1  0
 32 80  1  0
 32 81  1  0
 32 82  1  0
M  END
>  <meeko>  (16) 
{"is_sidechain": [false], "intermolecular_energy": 2.731, "internal_energy": -0.839}

$$$$
EPH_relaxed_0001_pdb2pqr_Repair_270_r2_0001_out
     RDKit          3D

 82 86  0  0  0  0  0  0  0  0999 V2000
    2.8720   11.4190   -5.4480 C   0  0  0  0  0  0  0  0  0  0  0  0
    1.9160   11.1030   -4.2940 C   0  0  2  0  0  0  0  0  0  0  0  0
    0.8060   10.1190   -4.7120 C   0  0  0  0  0  0  0  0  0  0  0  0
   -0.2780    9.9250   -3.6470 C   0  0  0  0  0  0  0  0  0  0  0  0
    0.2080    9.0780   -2.5100 C   0  0  2  0  0  0  0  0  0  0  0  0
   -0.6850    8.0260   -2.1230 O   0  0  0  0  0  0  0  0  0  0  0  0
   -0.4530    9.0520   -1.1450 C   0  0  0  0  0  0  0  0  0  0  0  0
   -1.6560    9.8900   -0.8440 C   0  0  0  0  0  0  0  0  0  0  0  0
    0.3510    8.5930    0.0310 C   0  0  0  0  0  0  0  0  0  0  0  0
    1.2970   12.3920   -3.7650 C   0  0  1  0  0  0  0  0  0  0  0  0
   -0.2430   12.2930   -3.6050 C   0  0  0  0  0  0  0  0  0  0  0  0
   -0.6190   13.1370   -2.3590 C   0  0  0  0  0  0  0  0  0  0  0  0
    0.6560   13.9540   -2.0440 C   0  0  1  0  0  0  0  0  0  0  0  0
    0.6120   15.1620   -3.0310 C   0  0  0  0  0  0  0  0  0  0  0  0
    0.8250   14.4250   -0.5620 C   0  0  2  0  0  0  0  0  0  0  0  0
   -0.2650   15.3840   -0.0540 C   0  0  0  0  0  0  0  0  0  0  0  0
    0.0190   16.8360   -0.2530 C   0  0  0  0  0  0  0  0  0  0  0  0
    1.2200   17.3640   -0.5550 C   0  0  0  0  0  0  0  0  0  0  0  0
    2.4720   16.4810   -0.6300 C   0  0  1  0  0  0  0  0  0  0  0  0
    3.6330   17.1620    0.1400 C   0  0  0  0  0  0  0  0  0  0  0  0
    3.8950   18.5880   -0.3380 C   0  0  0  0  0  0  0  0  0  0  0  0
    2.6430   19.4500   -0.1930 C   0  0  2  0  0  0  0  0  0  0  0  0
    2.3530   19.6110    1.1990 O   0  0  0  0  0  0  0  0  0  0  0  0
    1.4040   18.8580   -0.9200 C   0  0  0  0  0  0  0  0  0  0  0  0
    1.6000   18.9620   -2.4530 C   0  0  0  0  0  0  0  0  0  0  0  0
    0.1790   19.7480   -0.5780 C   0  0  0  0  0  0  0  0  0  0  0  0
    2.2730   14.9600   -0.2140 C   0  0  1  0  0  0  0  0  0  0  0  0
    2.4470   14.8030    1.3280 C   0  0  0  0  0  0  0  0  0  0  0  0
    3.4070   14.0930   -0.8790 C   0  0  0  0  0  0  0  0  0  0  0  0
    3.1310   13.5570   -2.2960 C   0  0  0  0  0  0  0  0  0  0  0  0
    1.7580   12.8820   -2.3690 C   0  0  2  0  0  0  0  0  0  0  0  0
    1.7790   11.6490   -1.4020 C   0  0  0  0  0  0  0  0  0  0  0  0
    3.8429   11.7399   -5.0425 H   0  0  0  0  0  0  0  0  0  0  0  0
    3.0118   10.5193   -6.0652 H   0  0  0  0  0  0  0  0  0  0  0  0
    2.4480   12.2248   -6.0652 H   0  0  0  0  0  0  0  0  0  0  0  0
    2.5039   10.6190   -3.5002 H   0  0  0  0  0  0  0  0  0  0  0  0
    0.3296   10.5011   -5.6269 H   0  0  0  0  0  0  0  0  0  0  0  0
    1.2847    9.1406   -4.8654 H   0  0  0  0  0  0  0  0  0  0  0  0
   -0.5747   10.9097   -3.2567 H   0  0  0  0  0  0  0  0  0  0  0  0
   -1.1317    9.4134   -4.1155 H   0  0  0  0  0  0  0  0  0  0  0  0
    1.2537    9.2187   -2.8210 H   0  0  0  0  0  0  0  0  0  0  0  0
   -1.7796    9.9761    0.2456 H   0  0  0  0  0  0  0  0  0  0  0  0
   -1.5229   10.8919   -1.2782 H   0  0  0  0  0  0  0  0  0  0  0  0
   -2.5497    9.4179   -1.2782 H   0  0  0  0  0  0  0  0  0  0  0  0
   -0.1597    8.8846    0.9606 H   0  0  0  0  0  0  0  0  0  0  0  0
    0.4565    7.4986   -0.0016 H   0  0  0  0  0  0  0  0  0  0  0  0
    1.3471    9.0585   -0.0016 H   0  0  0  0  0  0  0  0  0  0  0  0
    1.6386   13.0926   -4.5412 H   0  0  0  0  0  0  0  0  0  0  0  0
   -0.7432   12.6938   -4.4990 H   0  0  0  0  0  0  0  0  0  0  0  0
   -0.5609   11.2469   -3.4839 H   0  0  0  0  0  0  0  0  0  0  0  0
   -1.4635   13.8054   -2.5828 H   0  0  0  0  0  0  0  0  0  0  0  0
   -0.9349   12.5119   -1.5108 H   0  0  0  0  0  0  0  0  0  0  0  0
    0.5778   16.1013   -2.4596 H   0  0  0  0  0  0  0  0  0  0  0  0
    1.5111   15.1508   -3.6646 H   0  0  0  0  0  0  0  0  0  0  0  0
   -0.2840   15.0854   -3.6646 H   0  0  0  0  0  0  0  0  0  0  0  0
    0.6857   13.4900    0.0004 H   0  0  0  0  0  0  0  0  0  0  0  0
   -1.2003   15.1453   -0.5815 H   0  0  0  0  0  0  0  0  0  0  0  0
   -0.3211   15.2315    1.0339 H   0  0  0  0  0  0  0  0  0  0  0  0
   -0.8245   17.5336   -0.1436 H   0  0  0  0  0  0  0  0  0  0  0  0
    2.7268   16.4045   -1.6973 H   0  0  0  0  0  0  0  0  0  0  0  0
    3.3783   17.1898    1.2097 H   0  0  0  0  0  0  0  0  0  0  0  0
    4.5451   16.5752   -0.0437 H   0  0  0  0  0  0  0  0  0  0  0  0
    4.7055   19.0261    0.2630 H   0  0  0  0  0  0  0  0  0  0  0  0
    4.1786   18.5560   -1.4003 H   0  0  0  0  0  0  0  0  0  0  0  0
    2.8525   20.4189   -0.6698 H   0  0  0  0  0  0  0  0  0  0  0  0
    3.1920   19.5400    1.6840 H   0  0  0  0  0  0  0  0  0  0  0  0
    2.5531   19.4677   -2.6673 H   0  0  0  0  0  0  0  0  0  0  0  0
    1.6140   17.9527   -2.8902 H   0  0  0  0  0  0  0  0  0  0  0  0
    0.7721   19.5394   -2.8902 H   0  0  0  0  0  0  0  0  0  0  0  0
    0.0745   19.8239    0.5144 H   0  0  0  0  0  0  0  0  0  0  0  0
    0.3251   20.7520   -1.0030 H   0  0  0  0  0  0  0  0  0  0  0  0
   -0.7307   19.2988   -1.0030 H   0  0  0  0  0  0  0  0  0  0  0  0
    1.7267   15.4530    1.8463 H   0  0  0  0  0  0  0  0  0  0  0  0
    2.2669   13.7558    1.6126 H   0  0  0  0  0  0  0  0  0  0  0  0
    3.4702   15.0895    1.6126 H   0  0  0  0  0  0  0  0  0  0  0  0
    4.3141   14.7133   -0.9288 H   0  0  0  0  0  0  0  0  0  0  0  0
    3.4942   13.1983   -0.2450 H   0  0  0  0  0  0  0  0  0  0  0  0
    3.1588   14.3941   -3.0091 H   0  0  0  0  0  0  0  0  0  0  0  0
    3.9015   12.8127   -2.5457 H   0  0  0  0  0  0  0  0  0  0  0  0
    1.7730   12.0004   -0.3596 H   0  0  0  0  0  0  0  0  0  0  0  0
    0.8913   11.0253   -1.5838 H   0  0  0  0  0  0  0  0  0  0  0  0
    2.6874   11.0559   -1.5838 H   0  0  0  0  0  0  0  0  0  0  0  0
  1  2  1  0
  2  3  1  0
  3  4  1  0
  4  5  1  0
  5  6  1  0
  6  7  1  0
  7  8  1  0
  7  9  1  0
  2 10  1  0
 10 11  1  0
 11 12  1  0
 12 13  1  0
 13 14  1  6
 13 15  1  0
 15 16  1  0
 16 17  1  0
 17 18  2  0
 18 19  1  0
 19 20  1  0
 20 21  1  0
 21 22  1  0
 22 23  1  0
 22 24  1  0
 24 25  1  0
 24 26  1  0
 19 27  1  0
 27 28  1  1
 27 29  1  0
 29 30  1  0
 30 31  1  0
 31 32  1  1
  7  5  1  0
 31 10  1  0
 31 13  1  0
 27 15  1  0
 24 18  1  0
  1 33  1  0
  1 34  1  0
  1 35  1  0
  2 36  1  1
  3 37  1  0
  3 38  1  0
  4 39  1  0
  4 40  1  0
  5 41  1  1
  8 42  1  0
  8 43  1  0
  8 44  1  0
  9 45  1  0
  9 46  1  0
  9 47  1  0
 10 48  1  6
 11 49  1  0
 11 50  1  0
 12 51  1  0
 12 52  1  0
 14 53  1  0
 14 54  1  0
 14 55  1  0
 15 56  1  1
 16 57  1  0
 16 58  1  0
 17 59  1  0
 19 60  1  6
 20 61  1  0
 20 62  1  0
 21 63  1  0
 21 64  1  0
 22 65  1  6
 23 66  1  0
 25 67  1  0
 25 68  1  0
 25 69  1  0
 26 70  1  0
 26 71  1  0
 26 72  1  0
 28 73  1  0
 28 74  1  0
 28 75  1  0
 29 76  1  0
 29 77  1  0
 30 78  1  0
 30 79  1  0
 32 80  1  0
 32 81  1  0
 32 82  1  0
M  END
>  <meeko>  (17) 
{"is_sidechain": [false], "intermolecular_energy": 2.731, "internal_energy": -0.839}

$$$$
EPH_relaxed_0001_pdb2pqr_Repair_270_r2_0001_out
     RDKit          3D

 82 86  0  0  0  0  0  0  0  0999 V2000
   -2.1430    9.6720   -0.2510 C   0  0  0  0  0  0  0  0  0  0  0  0
   -1.6320   10.5870   -1.3670 C   0  0  2  0  0  0  0  0  0  0  0  0
   -0.6950    9.8450   -2.3420 C   0  0  0  0  0  0  0  0  0  0  0  0
    0.6880    9.5450   -1.7580 C   0  0  0  0  0  0  0  0  0  0  0  0
    1.7860   10.0240   -2.6590 C   0  0  2  0  0  0  0  0  0  0  0  0
    2.9290    9.1610   -2.7220 O   0  0  0  0  0  0  0  0  0  0  0  0
    3.1490   10.4630   -2.1560 C   0  0  0  0  0  0  0  0  0  0  0  0
    3.4860   10.4450   -0.6980 C   0  0  0  0  0  0  0  0  0  0  0  0
    3.9740   11.3650   -3.0200 C   0  0  0  0  0  0  0  0  0  0  0  0
   -0.9120   11.7880   -0.7660 C   0  0  1  0  0  0  0  0  0  0  0  0
    0.2430   11.3780    0.1860 C   0  0  0  0  0  0  0  0  0  0  0  0
    1.3600   12.4400    0.0180 C   0  0  0  0  0  0  0  0  0  0  0  0
    0.6870   13.5930   -0.7630 C   0  0  1  0  0  0  0  0  0  0  0  0
   -0.0960   14.4050    0.3160 C   0  0  0  0  0  0  0  0  0  0  0  0
    1.6400   14.5100   -1.5970 C   0  0  2  0  0  0  0  0  0  0  0  0
    2.6810   15.2890   -0.7750 C   0  0  0  0  0  0  0  0  0  0  0  0
    2.2470   16.6390   -0.3100 C   0  0  0  0  0  0  0  0  0  0  0  0
    1.1850   17.3230   -0.7760 C   0  0  0  0  0  0  0  0  0  0  0  0
    0.3510   16.7820   -1.9440 C   0  0  1  0  0  0  0  0  0  0  0  0
    0.1000   17.9180   -2.9700 C   0  0  0  0  0  0  0  0  0  0  0  0
   -0.5240   19.1550   -2.3310 C   0  0  0  0  0  0  0  0  0  0  0  0
    0.3620   19.6970   -1.2130 C   0  0  2  0  0  0  0  0  0  0  0  0
    1.5760   20.1920   -1.7860 O   0  0  0  0  0  0  0  0  0  0  0  0
    0.6920   18.6380   -0.1240 C   0  0  0  0  0  0  0  0  0  0  0  0
   -0.5820   18.3250    0.6990 C   0  0  0  0  0  0  0  0  0  0  0  0
    1.7050   19.2720    0.8670 C   0  0  0  0  0  0  0  0  0  0  0  0
    0.8940   15.4530   -2.6270 C   0  0  1  0  0  0  0  0  0  0  0  0
    1.9300   15.8090   -3.7360 C   0  0  0  0  0  0  0  0  0  0  0  0
   -0.2990   14.7230   -3.3510 C   0  0  0  0  0  0  0  0  0  0  0  0
   -1.1280   13.7390   -2.5040 C   0  0  0  0  0  0  0  0  0  0  0  0
   -0.2190   12.7670   -1.7470 C   0  0  2  0  0  0  0  0  0  0  0  0
    0.5650   11.9200   -2.8070 C   0  0  0  0  0  0  0  0  0  0  0  0
   -1.8968   10.1129    0.7262 H   0  0  0  0  0  0  0  0  0  0  0  0
   -3.2338    9.5608   -0.3387 H   0  0  0  0  0  0  0  0  0  0  0  0
   -1.6655    8.6849   -0.3387 H   0  0  0  0  0  0  0  0  0  0  0  0
   -2.5057   10.9272   -1.9422 H   0  0  0  0  0  0  0  0  0  0  0  0
   -1.1683    8.8921   -2.6211 H   0  0  0  0  0  0  0  0  0  0  0  0
   -0.5420   10.5068   -3.2072 H   0  0  0  0  0  0  0  0  0  0  0  0
    0.7807   10.0484   -0.7843 H   0  0  0  0  0  0  0  0  0  0  0  0
    0.7850    8.4547   -1.6489 H   0  0  0  0  0  0  0  0  0  0  0  0
    1.0580   10.5021   -3.3309 H   0  0  0  0  0  0  0  0  0  0  0  0
    2.5596   10.4945   -0.1069 H   0  0  0  0  0  0  0  0  0  0  0  0
    4.0251    9.5168   -0.4577 H   0  0  0  0  0  0  0  0  0  0  0  0
    4.1209   11.3105   -0.4577 H   0  0  0  0  0  0  0  0  0  0  0  0
    4.5801   12.0276   -2.3847 H   0  0  0  0  0  0  0  0  0  0  0  0
    4.6368   10.7589   -3.6551 H   0  0  0  0  0  0  0  0  0  0  0  0
    3.3113   11.9713   -3.6551 H   0  0  0  0  0  0  0  0  0  0  0  0
   -1.7622   12.2853   -0.2763 H   0  0  0  0  0  0  0  0  0  0  0  0
   -0.1117   11.3628    1.2271 H   0  0  0  0  0  0  0  0  0  0  0  0
    0.6155   10.3716   -0.0558 H   0  0  0  0  0  0  0  0  0  0  0  0
    1.7139   12.7900    0.9989 H   0  0  0  0  0  0  0  0  0  0  0  0
    2.2410   12.0399   -0.5052 H   0  0  0  0  0  0  0  0  0  0  0  0
    0.2177   14.0797    1.3189 H   0  0  0  0  0  0  0  0  0  0  0  0
    0.1178   15.4772    0.1947 H   0  0  0  0  0  0  0  0  0  0  0  0
   -1.1752   14.2303    0.1947 H   0  0  0  0  0  0  0  0  0  0  0  0
    2.2122   13.7797   -2.1880 H   0  0  0  0  0  0  0  0  0  0  0  0
    2.9319   14.6886    0.1119 H   0  0  0  0  0  0  0  0  0  0  0  0
    3.5341   15.4593   -1.4482 H   0  0  0  0  0  0  0  0  0  0  0  0
    2.8454   17.1156    0.4804 H   0  0  0  0  0  0  0  0  0  0  0  0
   -0.6043   16.4531   -1.5089 H   0  0  0  0  0  0  0  0  0  0  0  0
    1.0609   18.2021   -3.4239 H   0  0  0  0  0  0  0  0  0  0  0  0
   -0.6064   17.5383   -3.7229 H   0  0  0  0  0  0  0  0  0  0  0  0
   -0.6502   19.9322   -3.0992 H   0  0  0  0  0  0  0  0  0  0  0  0
   -1.4980   18.8756   -1.9029 H   0  0  0  0  0  0  0  0  0  0  0  0
   -0.1965   20.5001   -0.7099 H   0  0  0  0  0  0  0  0  0  0  0  0
    1.5560   21.1630   -1.7250 H   0  0  0  0  0  0  0  0  0  0  0  0
   -0.3484   18.3824    1.7724 H   0  0  0  0  0  0  0  0  0  0  0  0
   -1.3655   19.0574    0.4546 H   0  0  0  0  0  0  0  0  0  0  0  0
   -0.9370   17.3129    0.4546 H   0  0  0  0  0  0  0  0  0  0  0  0
    1.3831   19.0705    1.8994 H   0  0  0  0  0  0  0  0  0  0  0  0
    2.7013   18.8360    0.7019 H   0  0  0  0  0  0  0  0  0  0  0  0
    1.7483   20.3587    0.7019 H   0  0  0  0  0  0  0  0  0  0  0  0
    2.8715   16.1325   -3.2680 H   0  0  0  0  0  0  0  0  0  0  0  0
    2.1167   14.9235   -4.3613 H   0  0  0  0  0  0  0  0  0  0  0  0
    1.5329   16.6222   -4.3613 H   0  0  0  0  0  0  0  0  0  0  0  0
   -0.9839   15.4973   -3.7270 H   0  0  0  0  0  0  0  0  0  0  0  0
    0.1718   14.1059   -4.1305 H   0  0  0  0  0  0  0  0  0  0  0  0
   -1.7304   14.3067   -1.7795 H   0  0  0  0  0  0  0  0  0  0  0  0
   -1.7787   13.1599   -3.1757 H   0  0  0  0  0  0  0  0  0  0  0  0
    1.2250   11.2070   -2.2912 H   0  0  0  0  0  0  0  0  0  0  0  0
   -0.1489   11.3691   -3.4369 H   0  0  0  0  0  0  0  0  0  0  0  0
    1.1693   12.5893   -3.4369 H   0  0  0  0  0  0  0  0  0  0  0  0
  1  2  1  0
  2  3  1  0
  3  4  1  0
  4  5  1  0
  5  6  1  0
  6  7  1  0
  7  8  1  0
  7  9  1  0
  2 10  1  0
 10 11  1  0
 11 12  1  0
 12 13  1  0
 13 14  1  1
 13 15  1  0
 15 16  1  0
 16 17  1  0
 17 18  2  0
 18 19  1  0
 19 20  1  0
 20 21  1  0
 21 22  1  0
 22 23  1  0
 22 24  1  0
 24 25  1  0
 24 26  1  0
 19 27  1  0
 27 28  1  6
 27 29  1  0
 29 30  1  0
 30 31  1  0
 31 32  1  6
  7  5  1  0
 31 10  1  0
 31 13  1  0
 27 15  1  0
 24 18  1  0
  1 33  1  0
  1 34  1  0
  1 35  1  0
  2 36  1  6
  3 37  1  0
  3 38  1  0
  4 39  1  0
  4 40  1  0
  5 41  1  6
  8 42  1  0
  8 43  1  0
  8 44  1  0
  9 45  1  0
  9 46  1  0
  9 47  1  0
 10 48  1  1
 11 49  1  0
 11 50  1  0
 12 51  1  0
 12 52  1  0
 14 53  1  0
 14 54  1  0
 14 55  1  0
 15 56  1  6
 16 57  1  0
 16 58  1  0
 17 59  1  0
 19 60  1  1
 20 61  1  0
 20 62  1  0
 21 63  1  0
 21 64  1  0
 22 65  1  1
 23 66  1  0
 25 67  1  0
 25 68  1  0
 25 69  1  0
 26 70  1  0
 26 71  1  0
 26 72  1  0
 28 73  1  0
 28 74  1  0
 28 75  1  0
 29 76  1  0
 29 77  1  0
 30 78  1  0
 30 79  1  0
 32 80  1  0
 32 81  1  0
 32 82  1  0
M  END
>  <meeko>  (18) 
{"is_sidechain": [false], "intermolecular_energy": 2.731, "internal_energy": -0.839}

$$$$
EPH_relaxed_0001_pdb2pqr_Repair_270_r2_0001_out
     RDKit          3D

 82 86  0  0  0  0  0  0  0  0999 V2000
    0.9820   14.9650   -2.6950 C   0  0  0  0  0  0  0  0  0  0  0  0
    1.2130   14.2940   -4.0520 C   0  0  2  0  0  0  0  0  0  0  0  0
    0.4740   15.0200   -5.1930 C   0  0  0  0  0  0  0  0  0  0  0  0
    0.9340   14.5990   -6.5910 C   0  0  0  0  0  0  0  0  0  0  0  0
    0.7350   15.6940   -7.5940 C   0  0  2  0  0  0  0  0  0  0  0  0
    0.3970   15.2450   -8.9130 O   0  0  0  0  0  0  0  0  0  0  0  0
    1.6570   15.9220   -8.7780 C   0  0  0  0  0  0  0  0  0  0  0  0
    2.8470   15.0480   -9.0200 C   0  0  0  0  0  0  0  0  0  0  0  0
    1.6830   17.2780   -9.4130 C   0  0  0  0  0  0  0  0  0  0  0  0
    0.7740   12.8350   -3.9910 C   0  0  1  0  0  0  0  0  0  0  0  0
    1.9080   11.8530   -4.3860 C   0  0  0  0  0  0  0  0  0  0  0  0
    1.7280   10.5870   -3.5090 C   0  0  0  0  0  0  0  0  0  0  0  0
    0.3210   10.7410   -2.8860 C   0  0  1  0  0  0  0  0  0  0  0  0
   -0.6640   10.2640   -3.9990 C   0  0  0  0  0  0  0  0  0  0  0  0
    0.0770    9.9880   -1.5370 C   0  0  2  0  0  0  0  0  0  0  0  0
    0.1910    8.4560   -1.6150 C   0  0  0  0  0  0  0  0  0  0  0  0
   -1.0800    7.7360   -1.9220 C   0  0  0  0  0  0  0  0  0  0  0  0
   -2.3150    8.2640   -1.8480 C   0  0  0  0  0  0  0  0  0  0  0  0
   -2.5320    9.6900   -1.3260 C   0  0  1  0  0  0  0  0  0  0  0  0
   -3.7010    9.6960   -0.3050 C   0  0  0  0  0  0  0  0  0  0  0  0
   -4.9770    9.0820   -0.8730 C   0  0  0  0  0  0  0  0  0  0  0  0
   -4.7350    7.6450   -1.3280 C   0  0  2  0  0  0  0  0  0  0  0  0
   -4.4570    6.8380   -0.1790 O   0  0  0  0  0  0  0  0  0  0  0  0
   -3.5730    7.5130   -2.3520 C   0  0  0  0  0  0  0  0  0  0  0  0
   -3.9990    8.1320   -3.7060 C   0  0  0  0  0  0  0  0  0  0  0  0
   -3.3410    6.0020   -2.6190 C   0  0  0  0  0  0  0  0  0  0  0  0
   -1.2390   10.4320   -0.7770 C   0  0  1  0  0  0  0  0  0  0  0  0
   -1.0230   10.0820    0.7270 C   0  0  0  0  0  0  0  0  0  0  0  0
   -1.4710   11.9880   -0.8420 C   0  0  0  0  0  0  0  0  0  0  0  0
   -1.0990   12.6920   -2.1610 C   0  0  0  0  0  0  0  0  0  0  0  0
    0.3070   12.2900   -2.6180 C   0  0  2  0  0  0  0  0  0  0  0  0
    1.3220   12.7760   -1.5290 C   0  0  0  0  0  0  0  0  0  0  0  0
    1.2258   14.2567   -1.8895 H   0  0  0  0  0  0  0  0  0  0  0  0
    1.6263   15.8525   -2.6104 H   0  0  0  0  0  0  0  0  0  0  0  0
   -0.0721   15.2678   -2.6104 H   0  0  0  0  0  0  0  0  0  0  0  0
    2.2898   14.3498   -4.2698 H   0  0  0  0  0  0  0  0  0  0  0  0
   -0.6010   14.8055   -5.1020 H   0  0  0  0  0  0  0  0  0  0  0  0
    0.6987   16.0919   -5.0902 H   0  0  0  0  0  0  0  0  0  0  0  0
    2.0027   14.3415   -6.5519 H   0  0  0  0  0  0  0  0  0  0  0  0
    0.3308   13.7340   -6.9040 H   0  0  0  0  0  0  0  0  0  0  0  0
    0.3534   16.3700   -6.8146 H   0  0  0  0  0  0  0  0  0  0  0  0
    3.2738   14.7345   -8.0559 H   0  0  0  0  0  0  0  0  0  0  0  0
    2.5394   14.1596   -9.5910 H   0  0  0  0  0  0  0  0  0  0  0  0
    3.6027   15.6073   -9.5910 H   0  0  0  0  0  0  0  0  0  0  0  0
    1.6978   18.0497   -8.6292 H   0  0  0  0  0  0  0  0  0  0  0  0
    2.5831   17.3730  -10.0381 H   0  0  0  0  0  0  0  0  0  0  0  0
    0.7872   17.4074  -10.0381 H   0  0  0  0  0  0  0  0  0  0  0  0
   -0.0743   12.8681   -4.6905 H   0  0  0  0  0  0  0  0  0  0  0  0
    1.8280   11.5906   -5.4512 H   0  0  0  0  0  0  0  0  0  0  0  0
    2.8972   12.3069   -4.2267 H   0  0  0  0  0  0  0  0  0  0  0  0
    1.7826    9.6771   -4.1247 H   0  0  0  0  0  0  0  0  0  0  0  0
    2.5143   10.4931   -2.7455 H   0  0  0  0  0  0  0  0  0  0  0  0
   -1.5609    9.8297   -3.5333 H   0  0  0  0  0  0  0  0  0  0  0  0
   -0.9541   11.1215   -4.6240 H   0  0  0  0  0  0  0  0  0  0  0  0
   -0.1712    9.5048   -4.6240 H   0  0  0  0  0  0  0  0  0  0  0  0
    0.9280   10.3194   -0.9238 H   0  0  0  0  0  0  0  0  0  0  0  0
    0.9197    8.2092   -2.4012 H   0  0  0  0  0  0  0  0  0  0  0  0
    0.4946    8.1224   -0.6117 H   0  0  0  0  0  0  0  0  0  0  0  0
   -0.9999    6.6846   -2.2353 H   0  0  0  0  0  0  0  0  0  0  0  0
   -2.7996   10.2970   -2.2035 H   0  0  0  0  0  0  0  0  0  0  0  0
   -3.3974    9.1207    0.5820 H   0  0  0  0  0  0  0  0  0  0  0  0
   -3.9185   10.7443   -0.0526 H   0  0  0  0  0  0  0  0  0  0  0  0
   -5.7559    9.0874   -0.0962 H   0  0  0  0  0  0  0  0  0  0  0  0
   -5.2963    9.6764   -1.7417 H   0  0  0  0  0  0  0  0  0  0  0  0
   -5.6460    7.3047   -1.8421 H   0  0  0  0  0  0  0  0  0  0  0  0
   -3.7360    7.2650    0.3130 H   0  0  0  0  0  0  0  0  0  0  0  0
   -4.6140    9.0256   -3.5234 H   0  0  0  0  0  0  0  0  0  0  0  0
   -3.1030    8.4142   -4.2782 H   0  0  0  0  0  0  0  0  0  0  0  0
   -4.5827    7.3959   -4.2782 H   0  0  0  0  0  0  0  0  0  0  0  0
   -3.2591    5.4686   -1.6605 H   0  0  0  0  0  0  0  0  0  0  0  0
   -4.1875    5.5969   -3.1929 H   0  0  0  0  0  0  0  0  0  0  0  0
   -2.4120    5.8695   -3.1929 H   0  0  0  0  0  0  0  0  0  0  0  0
   -1.4976   10.8510    1.3542 H   0  0  0  0  0  0  0  0  0  0  0  0
   -1.4738    9.1024    0.9439 H   0  0  0  0  0  0  0  0  0  0  0  0
    0.0548   10.0457    0.9439 H   0  0  0  0  0  0  0  0  0  0  0  0
   -2.5392   12.1731   -0.6559 H   0  0  0  0  0  0  0  0  0  0  0  0
   -0.7912   12.4118   -0.0882 H   0  0  0  0  0  0  0  0  0  0  0  0
   -1.8248   12.4087   -2.9375 H   0  0  0  0  0  0  0  0  0  0  0  0
   -1.1173   13.7794   -1.9961 H   0  0  0  0  0  0  0  0  0  0  0  0
    0.9092   12.5783   -0.5287 H   0  0  0  0  0  0  0  0  0  0  0  0
    2.2728   12.2355   -1.6467 H   0  0  0  0  0  0  0  0  0  0  0  0
    1.4970   13.8556   -1.6467 H   0  0  0  0  0  0  0  0  0  0  0  0
  1  2  1  0
  2  3  1  0
  3  4  1  0
  4  5  1  0
  5  6  1  0
  6  7  1  0
  7  8  1  0
  7  9  1  0
  2 10  1  0
 10 11  1  0
 11 12  1  0
 12 13  1  0
 13 14  1  6
 13 15  1  0
 15 16  1  0
 16 17  1  0
 17 18  2  0
 18 19  1  0
 19 20  1  0
 20 21  1  0
 21 22  1  0
 22 23  1  0
 22 24  1  0
 24 25  1  0
 24 26  1  0
 19 27  1  0
 27 28  1  1
 27 29  1  0
 29 30  1  0
 30 31  1  0
 31 32  1  1
  7  5  1  0
 31 10  1  0
 31 13  1  0
 27 15  1  0
 24 18  1  0
  1 33  1  0
  1 34  1  0
  1 35  1  0
  2 36  1  6
  3 37  1  0
  3 38  1  0
  4 39  1  0
  4 40  1  0
  5 41  1  1
  8 42  1  0
  8 43  1  0
  8 44  1  0
  9 45  1  0
  9 46  1  0
  9 47  1  0
 10 48  1  6
 11 49  1  0
 11 50  1  0
 12 51  1  0
 12 52  1  0
 14 53  1  0
 14 54  1  0
 14 55  1  0
 15 56  1  1
 16 57  1  0
 16 58  1  0
 17 59  1  0
 19 60  1  6
 20 61  1  0
 20 62  1  0
 21 63  1  0
 21 64  1  0
 22 65  1  6
 23 66  1  0
 25 67  1  0
 25 68  1  0
 25 69  1  0
 26 70  1  0
 26 71  1  0
 26 72  1  0
 28 73  1  0
 28 74  1  0
 28 75  1  0
 29 76  1  0
 29 77  1  0
 30 78  1  0
 30 79  1  0
 32 80  1  0
 32 81  1  0
 32 82  1  0
M  END
>  <meeko>  (19) 
{"is_sidechain": [false], "intermolecular_energy": 2.731, "internal_energy": -0.839}

$$$$
