EPH_relaxed_0001_pdb2pqr_Repair_184_r2_0001_out
     RDKit          3D

 82 86  0  0  0  0  0  0  0  0999 V2000
   -1.0370    7.9310   -1.3040 C   0  0  0  0  0  0  0  0  0  0  0  0
   -1.1300    9.0360   -0.2480 C   0  0  2  0  0  0  0  0  0  0  0  0
   -2.4600    9.8110   -0.3340 C   0  0  0  0  0  0  0  0  0  0  0  0
   -3.6940    8.9510   -0.0460 C   0  0  0  0  0  0  0  0  0  0  0  0
   -4.4620    8.6470   -1.2970 C   0  0  2  0  0  0  0  0  0  0  0  0
   -5.8770    8.8500   -1.1940 O   0  0  0  0  0  0  0  0  0  0  0  0
   -5.4450    7.4980   -1.4170 C   0  0  0  0  0  0  0  0  0  0  0  0
   -5.7130    6.5770   -0.2680 C   0  0  0  0  0  0  0  0  0  0  0  0
   -5.7740    6.9770   -2.7810 C   0  0  0  0  0  0  0  0  0  0  0  0
    0.0430    9.9980   -0.3980 C   0  0  1  0  0  0  0  0  0  0  0  0
    1.4030    9.2630   -0.5430 C   0  0  0  0  0  0  0  0  0  0  0  0
    2.2690   10.1130   -1.5070 C   0  0  0  0  0  0  0  0  0  0  0  0
    1.5190   11.4610   -1.6210 C   0  0  1  0  0  0  0  0  0  0  0  0
    1.9320   12.2590   -0.3450 C   0  0  0  0  0  0  0  0  0  0  0  0
    1.7730   12.2850   -2.9250 C   0  0  2  0  0  0  0  0  0  0  0  0
    3.2260   12.7470   -3.1320 C   0  0  0  0  0  0  0  0  0  0  0  0
    3.5590   14.0830   -2.5570 C   0  0  0  0  0  0  0  0  0  0  0  0
    2.6660   15.0050   -2.1520 C   0  0  0  0  0  0  0  0  0  0  0  0
    1.1610   14.7810   -2.3460 C   0  0  1  0  0  0  0  0  0  0  0  0
    0.5170   16.0660   -2.9310 C   0  0  0  0  0  0  0  0  0  0  0  0
    0.8200   17.3050   -2.0940 C   0  0  0  0  0  0  0  0  0  0  0  0
    2.3250   17.5270   -1.9730 C   0  0  2  0  0  0  0  0  0  0  0  0
    2.8470   17.8580   -3.2640 O   0  0  0  0  0  0  0  0  0  0  0  0
    3.0820   16.2950   -1.4040 C   0  0  0  0  0  0  0  0  0  0  0  0
    2.7370   16.1200    0.0960 C   0  0  0  0  0  0  0  0  0  0  0  0
    4.6040   16.5990   -1.4660 C   0  0  0  0  0  0  0  0  0  0  0  0
    0.7520   13.4730   -3.1500 C   0  0  1  0  0  0  0  0  0  0  0  0
    0.7450   13.7700   -4.6810 C   0  0  0  0  0  0  0  0  0  0  0  0
   -0.7230   13.0740   -2.7690 C   0  0  0  0  0  0  0  0  0  0  0  0
   -0.9000   12.1610   -1.5410 C   0  0  0  0  0  0  0  0  0  0  0  0
    0.0330   10.9480   -1.6210 C   0  0  2  0  0  0  0  0  0  0  0  0
   -0.3740   10.1140   -2.8830 C   0  0  0  0  0  0  0  0  0  0  0  0
   -0.9547    6.9537   -0.8058 H   0  0  0  0  0  0  0  0  0  0  0  0
   -1.9397    7.9474   -1.9324 H   0  0  0  0  0  0  0  0  0  0  0  0
   -0.1497    8.0981   -1.9324 H   0  0  0  0  0  0  0  0  0  0  0  0
   -1.0920    8.5535    0.7398 H   0  0  0  0  0  0  0  0  0  0  0  0
   -2.4310   10.6325    0.3970 H   0  0  0  0  0  0  0  0  0  0  0  0
   -2.5548   10.1726   -1.3686 H   0  0  0  0  0  0  0  0  0  0  0  0
   -3.3701    8.0049    0.4123 H   0  0  0  0  0  0  0  0  0  0  0  0
   -4.3526    9.5126    0.6328 H   0  0  0  0  0  0  0  0  0  0  0  0
   -3.6128    8.9593   -1.9225 H   0  0  0  0  0  0  0  0  0  0  0  0
   -5.5562    7.1158    0.6781 H   0  0  0  0  0  0  0  0  0  0  0  0
   -6.7522    6.2201   -0.3188 H   0  0  0  0  0  0  0  0  0  0  0  0
   -5.0275    5.7182   -0.3188 H   0  0  0  0  0  0  0  0  0  0  0  0
   -6.3592    6.0502   -2.6882 H   0  0  0  0  0  0  0  0  0  0  0  0
   -6.3617    7.7285   -3.3286 H   0  0  0  0  0  0  0  0  0  0  0  0
   -4.8429    6.7694   -3.3286 H   0  0  0  0  0  0  0  0  0  0  0  0
   -0.0751   10.5781    0.5291 H   0  0  0  0  0  0  0  0  0  0  0  0
    1.8959    9.1812    0.4370 H   0  0  0  0  0  0  0  0  0  0  0  0
    1.2621    8.2440   -0.9326 H   0  0  0  0  0  0  0  0  0  0  0  0
    3.2769   10.2634   -1.0929 H   0  0  0  0  0  0  0  0  0  0  0  0
    2.4036    9.6270   -2.4846 H   0  0  0  0  0  0  0  0  0  0  0  0
    1.6393   11.6934    0.5519 H   0  0  0  0  0  0  0  0  0  0  0  0
    3.0216   12.4102   -0.3438 H   0  0  0  0  0  0  0  0  0  0  0  0
    1.4263   13.2358   -0.3438 H   0  0  0  0  0  0  0  0  0  0  0  0
    1.5795   11.5434   -3.7141 H   0  0  0  0  0  0  0  0  0  0  0  0
    3.8888   12.0023   -2.6671 H   0  0  0  0  0  0  0  0  0  0  0  0
    3.3629   12.8415   -4.2194 H   0  0  0  0  0  0  0  0  0  0  0  0
    4.6247   14.3358   -2.4555 H   0  0  0  0  0  0  0  0  0  0  0  0
    0.7523   14.5813   -1.3445 H   0  0  0  0  0  0  0  0  0  0  0  0
    0.9056   16.2237   -3.9479 H   0  0  0  0  0  0  0  0  0  0  0  0
   -0.5736   15.9223   -2.9323 H   0  0  0  0  0  0  0  0  0  0  0  0
    0.3639   18.1837   -2.5735 H   0  0  0  0  0  0  0  0  0  0  0  0
    0.4047   17.1579   -1.0861 H   0  0  0  0  0  0  0  0  0  0  0  0
    2.4811   18.3485   -1.2583 H   0  0  0  0  0  0  0  0  0  0  0  0
    2.1010   17.8760   -3.8870 H   0  0  0  0  0  0  0  0  0  0  0  0
    3.5509   16.5329    0.7100 H   0  0  0  0  0  0  0  0  0  0  0  0
    1.8012   16.6524    0.3216 H   0  0  0  0  0  0  0  0  0  0  0  0
    2.6138   15.0504    0.3216 H   0  0  0  0  0  0  0  0  0  0  0  0
    5.0039   16.6789   -0.4444 H   0  0  0  0  0  0  0  0  0  0  0  0
    5.1189   15.7860   -1.9988 H   0  0  0  0  0  0  0  0  0  0  0  0
    4.7671   17.5475   -1.9988 H   0  0  0  0  0  0  0  0  0  0  0  0
    0.7194   14.8576   -4.8434 H   0  0  0  0  0  0  0  0  0  0  0  0
    1.6532   13.3521   -5.1397 H   0  0  0  0  0  0  0  0  0  0  0  0
   -0.1425   13.3098   -5.1397 H   0  0  0  0  0  0  0  0  0  0  0  0
   -1.2798   14.0029   -2.5762 H   0  0  0  0  0  0  0  0  0  0  0  0
   -1.0912   12.4845   -3.6216 H   0  0  0  0  0  0  0  0  0  0  0  0
   -0.6689   12.7334   -0.6306 H   0  0  0  0  0  0  0  0  0  0  0  0
   -1.9398   11.8030   -1.5168 H   0  0  0  0  0  0  0  0  0  0  0  0
   -0.8357    9.1679   -2.5640 H   0  0  0  0  0  0  0  0  0  0  0  0
   -1.0932   10.6881   -3.4856 H   0  0  0  0  0  0  0  0  0  0  0  0
    0.5211    9.9003   -3.4856 H   0  0  0  0  0  0  0  0  0  0  0  0
  1  2  1  0
  2  3  1  0
  3  4  1  0
  4  5  1  0
  5  6  1  0
  6  7  1  0
  7  8  1  0
  7  9  1  0
  2 10  1  0
 10 11  1  0
 11 12  1  0
 12 13  1  0
 13 14  1  1
 13 15  1  0
 15 16  1  0
 16 17  1  0
 17 18  2  0
 18 19  1  0
 19 20  1  0
 20 21  1  0
 21 22  1  0
 22 23  1  0
 22 24  1  0
 24 25  1  0
 24 26  1  0
 19 27  1  0
 27 28  1  6
 27 29  1  0
 29 30  1  0
 30 31  1  0
 31 32  1  6
  7  5  1  0
 31 10  1  0
 31 13  1  0
 27 15  1  0
 24 18  1  0
  1 33  1  0
  1 34  1  0
  1 35  1  0
  2 36  1  1
  3 37  1  0
  3 38  1  0
  4 39  1  0
  4 40  1  0
  5 41  1  6
  8 42  1  0
  8 43  1  0
  8 44  1  0
  9 45  1  0
  9 46  1  0
  9 47  1  0
 10 48  1  1
 11 49  1  0
 11 50  1  0
 12 51  1  0
 12 52  1  0
 14 53  1  0
 14 54  1  0
 14 55  1  0
 15 56  1  6
 16 57  1  0
 16 58  1  0
 17 59  1  0
 19 60  1  1
 20 61  1  0
 20 62  1  0
 21 63  1  0
 21 64  1  0
 22 65  1  1
 23 66  1  0
 25 67  1  0
 25 68  1  0
 25 69  1  0
 26 70  1  0
 26 71  1  0
 26 72  1  0
 28 73  1  0
 28 74  1  0
 28 75  1  0
 29 76  1  0
 29 77  1  0
 30 78  1  0
 30 79  1  0
 32 80  1  0
 32 81  1  0
 32 82  1  0
M  END
>  <meeko>  (1) 
{"is_sidechain": [false], "intermolecular_energy": 2.731, "internal_energy": -0.839}

$$$$
EPH_relaxed_0001_pdb2pqr_Repair_184_r2_0001_out
     RDKit          3D

 82 86  0  0  0  0  0  0  0  0999 V2000
    2.3500   18.1150   -2.2500 C   0  0  0  0  0  0  0  0  0  0  0  0
    1.7740   17.3200   -1.0750 C   0  0  2  0  0  0  0  0  0  0  0  0
    2.8660   16.8790   -0.0810 C   0  0  0  0  0  0  0  0  0  0  0  0
    3.8920   17.9720    0.2310 C   0  0  0  0  0  0  0  0  0  0  0  0
    3.5900   18.6630    1.5260 C   0  0  2  0  0  0  0  0  0  0  0  0
    3.9480   20.0500    1.5630 O   0  0  0  0  0  0  0  0  0  0  0  0
    4.6610   19.1880    2.4640 C   0  0  0  0  0  0  0  0  0  0  0  0
    6.1160   19.0440    2.1450 C   0  0  0  0  0  0  0  0  0  0  0  0
    4.3100   19.3990    3.9040 C   0  0  0  0  0  0  0  0  0  0  0  0
    1.0190   16.1010   -1.5930 C   0  0  1  0  0  0  0  0  0  0  0  0
    0.5150   16.2850   -3.0500 C   0  0  0  0  0  0  0  0  0  0  0  0
    0.6050   14.8960   -3.7330 C   0  0  0  0  0  0  0  0  0  0  0  0
    0.8370   13.9040   -2.5700 C   0  0  1  0  0  0  0  0  0  0  0  0
   -0.5810   13.6550   -1.9660 C   0  0  0  0  0  0  0  0  0  0  0  0
    1.5510   12.5620   -2.9370 C   0  0  2  0  0  0  0  0  0  0  0  0
    0.7890   11.6680   -3.9310 C   0  0  0  0  0  0  0  0  0  0  0  0
   -0.1420   10.6780   -3.3140 C   0  0  0  0  0  0  0  0  0  0  0  0
   -0.1500   10.3140   -2.0170 C   0  0  0  0  0  0  0  0  0  0  0  0
    0.9100   10.8460   -1.0440 C   0  0  1  0  0  0  0  0  0  0  0  0
    1.4680    9.6740   -0.1950 C   0  0  0  0  0  0  0  0  0  0  0  0
    0.3680    8.8890    0.5130 C   0  0  0  0  0  0  0  0  0  0  0  0
   -0.6340    8.3270   -0.4930 C   0  0  2  0  0  0  0  0  0  0  0  0
    0.0220    7.3380   -1.2940 O   0  0  0  0  0  0  0  0  0  0  0  0
   -1.2560    9.4150   -1.4120 C   0  0  0  0  0  0  0  0  0  0  0  0
   -2.2110   10.3100   -0.5850 C   0  0  0  0  0  0  0  0  0  0  0  0
   -2.1380    8.6990   -2.4700 C   0  0  0  0  0  0  0  0  0  0  0  0
    2.0590   11.7350   -1.6880 C   0  0  1  0  0  0  0  0  0  0  0  0
    3.2150   10.8210   -2.2000 C   0  0  0  0  0  0  0  0  0  0  0  0
    2.6830   12.6560   -0.5740 C   0  0  0  0  0  0  0  0  0  0  0  0
    2.0040   14.0190   -0.3400 C   0  0  0  0  0  0  0  0  0  0  0  0
    1.7930   14.7610   -1.6630 C   0  0  2  0  0  0  0  0  0  0  0  0
    3.2040   15.0450   -2.2830 C   0  0  0  0  0  0  0  0  0  0  0  0
    2.9549   18.9499   -1.8664 H   0  0  0  0  0  0  0  0  0  0  0  0
    2.9818   17.4562   -2.8639 H   0  0  0  0  0  0  0  0  0  0  0  0
    1.5272   18.5101   -2.8639 H   0  0  0  0  0  0  0  0  0  0  0  0
    1.0835   17.9835   -0.5337 H   0  0  0  0  0  0  0  0  0  0  0  0
    2.3796   16.5806    0.8594 H   0  0  0  0  0  0  0  0  0  0  0  0
    3.4134   16.0492   -0.5520 H   0  0  0  0  0  0  0  0  0  0  0  0
    4.8907   17.5155    0.2951 H   0  0  0  0  0  0  0  0  0  0  0  0
    3.8512   18.7202   -0.5743 H   0  0  0  0  0  0  0  0  0  0  0  0
    2.7147   18.0179    1.6925 H   0  0  0  0  0  0  0  0  0  0  0  0
    6.6925   18.9869    3.0801 H   0  0  0  0  0  0  0  0  0  0  0  0
    6.2740   18.1258    1.5602 H   0  0  0  0  0  0  0  0  0  0  0  0
    6.4510   19.9134    1.5602 H   0  0  0  0  0  0  0  0  0  0  0  0
    5.0790   18.9367    4.5404 H   0  0  0  0  0  0  0  0  0  0  0  0
    4.2593   20.4774    4.1148 H   0  0  0  0  0  0  0  0  0  0  0  0
    3.3338   18.9379    4.1148 H   0  0  0  0  0  0  0  0  0  0  0  0
    0.2270   16.0383   -0.8322 H   0  0  0  0  0  0  0  0  0  0  0  0
   -0.5262   16.6398   -3.0487 H   0  0  0  0  0  0  0  0  0  0  0  0
    1.1216   17.0292   -3.5868 H   0  0  0  0  0  0  0  0  0  0  0  0
   -0.3306   14.6621   -4.2622 H   0  0  0  0  0  0  0  0  0  0  0  0
    1.4065   14.8520   -4.4851 H   0  0  0  0  0  0  0  0  0  0  0  0
   -0.5188   13.6659   -0.8678 H   0  0  0  0  0  0  0  0  0  0  0  0
   -1.2669   14.4464   -2.3023 H   0  0  0  0  0  0  0  0  0  0  0  0
   -0.9563   12.6772   -2.3023 H   0  0  0  0  0  0  0  0  0  0  0  0
    2.4457   12.9105   -3.4738 H   0  0  0  0  0  0  0  0  0  0  0  0
    0.2011   12.3205   -4.5933 H   0  0  0  0  0  0  0  0  0  0  0  0
    1.5537   11.0789   -4.4584 H   0  0  0  0  0  0  0  0  0  0  0  0
   -0.8844   10.2057   -3.9741 H   0  0  0  0  0  0  0  0  0  0  0  0
    0.3913   11.5647   -0.3925 H   0  0  0  0  0  0  0  0  0  0  0  0
    2.0190    8.9900   -0.8572 H   0  0  0  0  0  0  0  0  0  0  0  0
    2.1221   10.1035    0.5781 H   0  0  0  0  0  0  0  0  0  0  0  0
    0.8218    8.0575    1.0722 H   0  0  0  0  0  0  0  0  0  0  0  0
   -0.1633    9.5672    1.1969 H   0  0  0  0  0  0  0  0  0  0  0  0
   -1.4646    7.8881    0.0792 H   0  0  0  0  0  0  0  0  0  0  0  0
   -0.5400    6.5450   -1.3010 H   0  0  0  0  0  0  0  0  0  0  0  0
   -2.0330   10.1431    0.4876 H   0  0  0  0  0  0  0  0  0  0  0  0
   -2.0251   11.3667   -0.8275 H   0  0  0  0  0  0  0  0  0  0  0  0
   -3.2534   10.0560   -0.8275 H   0  0  0  0  0  0  0  0  0  0  0  0
   -2.8951    8.0844   -1.9610 H   0  0  0  0  0  0  0  0  0  0  0  0
   -2.6380    9.4499   -3.0994 H   0  0  0  0  0  0  0  0  0  0  0  0
   -1.5059    8.0553   -3.0994 H   0  0  0  0  0  0  0  0  0  0  0  0
    3.7537   10.3951   -1.3407 H   0  0  0  0  0  0  0  0  0  0  0  0
    2.7962   10.0072   -2.8102 H   0  0  0  0  0  0  0  0  0  0  0  0
    3.9102   11.4163   -2.8102 H   0  0  0  0  0  0  0  0  0  0  0  0
    2.6497   12.1002    0.3747 H   0  0  0  0  0  0  0  0  0  0  0  0
    3.6951   12.8959   -0.9319 H   0  0  0  0  0  0  0  0  0  0  0  0
    1.0282   13.8569    0.1412 H   0  0  0  0  0  0  0  0  0  0  0  0
    2.6546   14.6288    0.3041 H   0  0  0  0  0  0  0  0  0  0  0  0
    3.9364   15.1924   -1.4756 H   0  0  0  0  0  0  0  0  0  0  0  0
    3.5102   14.1905   -2.9043 H   0  0  0  0  0  0  0  0  0  0  0  0
    3.1558   15.9515   -2.9043 H   0  0  0  0  0  0  0  0  0  0  0  0
  1  2  1  0
  2  3  1  0
  3  4  1  0
  4  5  1  0
  5  6  1  0
  6  7  1  0
  7  8  1  0
  7  9  1  0
  2 10  1  0
 10 11  1  0
 11 12  1  0
 12 13  1  0
 13 14  1  1
 13 15  1  0
 15 16  1  0
 16 17  1  0
 17 18  2  0
 18 19  1  0
 19 20  1  0
 20 21  1  0
 21 22  1  0
 22 23  1  0
 22 24  1  0
 24 25  1  0
 24 26  1  0
 19 27  1  0
 27 28  1  6
 27 29  1  0
 29 30  1  0
 30 31  1  0
 31 32  1  6
  7  5  1  0
 31 10  1  0
 31 13  1  0
 27 15  1  0
 24 18  1  0
  1 33  1  0
  1 34  1  0
  1 35  1  0
  2 36  1  1
  3 37  1  0
  3 38  1  0
  4 39  1  0
  4 40  1  0
  5 41  1  1
  8 42  1  0
  8 43  1  0
  8 44  1  0
  9 45  1  0
  9 46  1  0
  9 47  1  0
 10 48  1  1
 11 49  1  0
 11 50  1  0
 12 51  1  0
 12 52  1  0
 14 53  1  0
 14 54  1  0
 14 55  1  0
 15 56  1  6
 16 57  1  0
 16 58  1  0
 17 59  1  0
 19 60  1  1
 20 61  1  0
 20 62  1  0
 21 63  1  0
 21 64  1  0
 22 65  1  1
 23 66  1  0
 25 67  1  0
 25 68  1  0
 25 69  1  0
 26 70  1  0
 26 71  1  0
 26 72  1  0
 28 73  1  0
 28 74  1  0
 28 75  1  0
 29 76  1  0
 29 77  1  0
 30 78  1  0
 30 79  1  0
 32 80  1  0
 32 81  1  0
 32 82  1  0
M  END
>  <meeko>  (2) 
{"is_sidechain": [false], "intermolecular_energy": 2.731, "internal_energy": -0.839}

$$$$
EPH_relaxed_0001_pdb2pqr_Repair_184_r2_0001_out
     RDKit          3D

 82 86  0  0  0  0  0  0  0  0999 V2000
    2.2320   17.1280   -0.0530 C   0  0  0  0  0  0  0  0  0  0  0  0
    1.8210   17.2460   -1.5230 C   0  0  2  0  0  0  0  0  0  0  0  0
    0.9890   18.5160   -1.7920 C   0  0  0  0  0  0  0  0  0  0  0  0
    1.0570   19.5480   -0.6630 C   0  0  0  0  0  0  0  0  0  0  0  0
   -0.2790   20.1750   -0.4040 C   0  0  2  0  0  0  0  0  0  0  0  0
   -0.6740   20.1940    0.9740 O   0  0  0  0  0  0  0  0  0  0  0  0
   -1.4850   19.4000    0.0930 C   0  0  0  0  0  0  0  0  0  0  0  0
   -1.4120   17.9290    0.3600 C   0  0  0  0  0  0  0  0  0  0  0  0
   -2.8490   19.9680   -0.1460 C   0  0  0  0  0  0  0  0  0  0  0  0
    1.0350   16.0100   -1.9440 C   0  0  1  0  0  0  0  0  0  0  0  0
    0.4650   16.1260   -3.3820 C   0  0  0  0  0  0  0  0  0  0  0  0
    0.5150   14.7040   -3.9990 C   0  0  0  0  0  0  0  0  0  0  0  0
    0.7950   13.7680   -2.8000 C   0  0  1  0  0  0  0  0  0  0  0  0
   -0.5940   13.5610   -2.1190 C   0  0  0  0  0  0  0  0  0  0  0  0
    1.4840   12.4050   -3.1330 C   0  0  2  0  0  0  0  0  0  0  0  0
    0.6710   11.4690   -4.0450 C   0  0  0  0  0  0  0  0  0  0  0  0
   -0.2350   10.5170   -3.3360 C   0  0  0  0  0  0  0  0  0  0  0  0
   -0.1840   10.2190   -2.0240 C   0  0  0  0  0  0  0  0  0  0  0  0
    0.9230   10.7900   -1.1290 C   0  0  1  0  0  0  0  0  0  0  0  0
    1.5130    9.6570   -0.2490 C   0  0  0  0  0  0  0  0  0  0  0  0
    0.4430    8.9160    0.5470 C   0  0  0  0  0  0  0  0  0  0  0  0
   -0.6080    8.3130   -0.3820 C   0  0  2  0  0  0  0  0  0  0  0  0
    0.0040    7.2810   -1.1620 O   0  0  0  0  0  0  0  0  0  0  0  0
   -1.2660    9.3590   -1.3240 C   0  0  0  0  0  0  0  0  0  0  0  0
   -2.1770   10.3020   -0.4990 C   0  0  0  0  0  0  0  0  0  0  0  0
   -2.2010    8.5990   -2.3030 C   0  0  0  0  0  0  0  0  0  0  0  0
    2.0460   11.6360   -1.8690 C   0  0  1  0  0  0  0  0  0  0  0  0
    3.1700   10.6890   -2.3880 C   0  0  0  0  0  0  0  0  0  0  0  0
    2.7260   12.6060   -0.8320 C   0  0  0  0  0  0  0  0  0  0  0  0
    2.0670   13.9850   -0.6350 C   0  0  0  0  0  0  0  0  0  0  0  0
    1.7980   14.6620   -1.9820 C   0  0  2  0  0  0  0  0  0  0  0  0
    3.1800   14.9040   -2.6800 C   0  0  0  0  0  0  0  0  0  0  0  0
    1.3733   17.3745    0.5887 H   0  0  0  0  0  0  0  0  0  0  0  0
    2.5612   16.0991    0.1542 H   0  0  0  0  0  0  0  0  0  0  0  0
    3.0569   17.8256    0.1542 H   0  0  0  0  0  0  0  0  0  0  0  0
    2.7422   17.3214   -2.1195 H   0  0  0  0  0  0  0  0  0  0  0  0
    1.3610   18.9857   -2.7145 H   0  0  0  0  0  0  0  0  0  0  0  0
   -0.0613   18.2001   -1.8754 H   0  0  0  0  0  0  0  0  0  0  0  0
    1.4009   19.0496    0.2553 H   0  0  0  0  0  0  0  0  0  0  0  0
    1.7555   20.3420   -0.9659 H   0  0  0  0  0  0  0  0  0  0  0  0
   -0.1438   20.8676   -1.2478 H   0  0  0  0  0  0  0  0  0  0  0  0
   -1.4033   17.7534    1.4459 H   0  0  0  0  0  0  0  0  0  0  0  0
   -2.2866   17.4318   -0.0848 H   0  0  0  0  0  0  0  0  0  0  0  0
   -0.4925   17.5208   -0.0848 H   0  0  0  0  0  0  0  0  0  0  0  0
   -3.3360   20.1708    0.8192 H   0  0  0  0  0  0  0  0  0  0  0  0
   -2.7614   20.9044   -0.7164 H   0  0  0  0  0  0  0  0  0  0  0  0
   -3.4520   19.2462   -0.7164 H   0  0  0  0  0  0  0  0  0  0  0  0
    0.2780   15.9914   -1.1461 H   0  0  0  0  0  0  0  0  0  0  0  0
   -0.5730   16.4888   -3.3499 H   0  0  0  0  0  0  0  0  0  0  0  0
    1.0501   16.8380   -3.9826 H   0  0  0  0  0  0  0  0  0  0  0  0
   -0.4455   14.4521   -4.4723 H   0  0  0  0  0  0  0  0  0  0  0  0
    1.2806   14.6166   -4.7840 H   0  0  0  0  0  0  0  0  0  0  0  0
   -0.4727   13.5791   -1.0259 H   0  0  0  0  0  0  0  0  0  0  0  0
   -1.2765   14.3674   -2.4256 H   0  0  0  0  0  0  0  0  0  0  0  0
   -1.0117   12.5907   -2.4256 H   0  0  0  0  0  0  0  0  0  0  0  0
    2.3545   12.7199   -3.7273 H   0  0  0  0  0  0  0  0  0  0  0  0
    0.0556   12.0926   -4.7101 H   0  0  0  0  0  0  0  0  0  0  0  0
    1.4066   10.8492   -4.5785 H   0  0  0  0  0  0  0  0  0  0  0  0
   -1.0094   10.0170   -3.9363 H   0  0  0  0  0  0  0  0  0  0  0  0
    0.4394   11.5446   -0.4912 H   0  0  0  0  0  0  0  0  0  0  0  0
    2.0292    8.9369   -0.9009 H   0  0  0  0  0  0  0  0  0  0  0  0
    2.2040   10.1195    0.4711 H   0  0  0  0  0  0  0  0  0  0  0  0
    0.9180    8.1095    1.1249 H   0  0  0  0  0  0  0  0  0  0  0  0
   -0.0522    9.6311    1.2203 H   0  0  0  0  0  0  0  0  0  0  0  0
   -1.4134    7.9095    0.2493 H   0  0  0  0  0  0  0  0  0  0  0  0
   -0.6880    6.8780   -1.7130 H   0  0  0  0  0  0  0  0  0  0  0  0
   -2.0089   10.1280    0.5741 H   0  0  0  0  0  0  0  0  0  0  0  0
   -1.9386   11.3478   -0.7426 H   0  0  0  0  0  0  0  0  0  0  0  0
   -3.2305   10.0998   -0.7426 H   0  0  0  0  0  0  0  0  0  0  0  0
   -2.9293    8.0070   -1.7293 H   0  0  0  0  0  0  0  0  0  0  0  0
   -2.7346    9.3227   -2.9367 H   0  0  0  0  0  0  0  0  0  0  0  0
   -1.6016    7.9288   -2.9367 H   0  0  0  0  0  0  0  0  0  0  0  0
    3.6985   10.2437   -1.5322 H   0  0  0  0  0  0  0  0  0  0  0  0
    2.7237    9.8906   -2.9990 H   0  0  0  0  0  0  0  0  0  0  0  0
    3.8811   11.2643   -2.9990 H   0  0  0  0  0  0  0  0  0  0  0  0
    2.7331   12.0981    0.1437 H   0  0  0  0  0  0  0  0  0  0  0  0
    3.7218   12.8196   -1.2477 H   0  0  0  0  0  0  0  0  0  0  0  0
    1.1142   13.8554   -0.1009 H   0  0  0  0  0  0  0  0  0  0  0  0
    2.7512   14.6206   -0.0537 H   0  0  0  0  0  0  0  0  0  0  0  0
    3.9584   15.0403   -1.9148 H   0  0  0  0  0  0  0  0  0  0  0  0
    3.4308   14.0361   -3.3076 H   0  0  0  0  0  0  0  0  0  0  0  0
    3.1209   15.8055   -3.3076 H   0  0  0  0  0  0  0  0  0  0  0  0
  1  2  1  0
  2  3  1  0
  3  4  1  0
  4  5  1  0
  5  6  1  0
  6  7  1  0
  7  8  1  0
  7  9  1  0
  2 10  1  0
 10 11  1  0
 11 12  1  0
 12 13  1  0
 13 14  1  1
 13 15  1  0
 15 16  1  0
 16 17  1  0
 17 18  2  0
 18 19  1  0
 19 20  1  0
 20 21  1  0
 21 22  1  0
 22 23  1  0
 22 24  1  0
 24 25  1  0
 24 26  1  0
 19 27  1  0
 27 28  1  6
 27 29  1  0
 29 30  1  0
 30 31  1  0
 31 32  1  6
  7  5  1  0
 31 10  1  0
 31 13  1  0
 27 15  1  0
 24 18  1  0
  1 33  1  0
  1 34  1  0
  1 35  1  0
  2 36  1  6
  3 37  1  0
  3 38  1  0
  4 39  1  0
  4 40  1  0
  5 41  1  6
  8 42  1  0
  8 43  1  0
  8 44  1  0
  9 45  1  0
  9 46  1  0
  9 47  1  0
 10 48  1  1
 11 49  1  0
 11 50  1  0
 12 51  1  0
 12 52  1  0
 14 53  1  0
 14 54  1  0
 14 55  1  0
 15 56  1  6
 16 57  1  0
 16 58  1  0
 17 59  1  0
 19 60  1  1
 20 61  1  0
 20 62  1  0
 21 63  1  0
 21 64  1  0
 22 65  1  1
 23 66  1  0
 25 67  1  0
 25 68  1  0
 25 69  1  0
 26 70  1  0
 26 71  1  0
 26 72  1  0
 28 73  1  0
 28 74  1  0
 28 75  1  0
 29 76  1  0
 29 77  1  0
 30 78  1  0
 30 79  1  0
 32 80  1  0
 32 81  1  0
 32 82  1  0
M  END
>  <meeko>  (3) 
{"is_sidechain": [false], "intermolecular_energy": 2.731, "internal_energy": -0.839}

$$$$
EPH_relaxed_0001_pdb2pqr_Repair_184_r2_0001_out
     RDKit          3D

 82 86  0  0  0  0  0  0  0  0999 V2000
   -0.9870    9.0610   -2.0820 C   0  0  0  0  0  0  0  0  0  0  0  0
   -1.3820    9.3240   -0.6260 C   0  0  2  0  0  0  0  0  0  0  0  0
   -2.9120    9.3240   -0.4310 C   0  0  0  0  0  0  0  0  0  0  0  0
   -3.6290    8.2010   -1.1850 C   0  0  0  0  0  0  0  0  0  0  0  0
   -5.0810    8.1290   -0.8220 C   0  0  2  0  0  0  0  0  0  0  0  0
   -5.5480    6.8170   -0.4790 O   0  0  0  0  0  0  0  0  0  0  0  0
   -6.1180    7.4040   -1.6600 C   0  0  0  0  0  0  0  0  0  0  0  0
   -5.7450    6.7030   -2.9290 C   0  0  0  0  0  0  0  0  0  0  0  0
   -7.5570    7.7880   -1.5080 C   0  0  0  0  0  0  0  0  0  0  0  0
   -0.7980   10.6520   -0.1610 C   0  0  1  0  0  0  0  0  0  0  0  0
    0.0650   10.5080    1.1210 C   0  0  0  0  0  0  0  0  0  0  0  0
    1.2240   11.5310    0.9970 C   0  0  0  0  0  0  0  0  0  0  0  0
    0.8100   12.4500   -0.1760 C   0  0  1  0  0  0  0  0  0  0  0  0
   -0.1920   13.4710    0.4490 C   0  0  0  0  0  0  0  0  0  0  0  0
    1.9720   13.1710   -0.9320 C   0  0  2  0  0  0  0  0  0  0  0  0
    2.7990   14.1490   -0.0790 C   0  0  0  0  0  0  0  0  0  0  0  0
    2.3070   15.5580   -0.0680 C   0  0  0  0  0  0  0  0  0  0  0  0
    1.4210   16.0850   -0.9340 C   0  0  0  0  0  0  0  0  0  0  0  0
    0.8920   15.2620   -2.1160 C   0  0  1  0  0  0  0  0  0  0  0  0
    0.9450   16.1180   -3.4080 C   0  0  0  0  0  0  0  0  0  0  0  0
    0.2230   17.4530   -3.2560 C   0  0  0  0  0  0  0  0  0  0  0  0
    0.8160   18.2670   -2.1090 C   0  0  2  0  0  0  0  0  0  0  0  0
    2.1520   18.6460   -2.4550 O   0  0  0  0  0  0  0  0  0  0  0  0
    0.8240   17.5020   -0.7550 C   0  0  0  0  0  0  0  0  0  0  0  0
   -0.6260   17.3570   -0.2310 C   0  0  0  0  0  0  0  0  0  0  0  0
    1.5760   18.3780    0.2830 C   0  0  0  0  0  0  0  0  0  0  0  0
    1.5430   13.8250   -2.3080 C   0  0  1  0  0  0  0  0  0  0  0  0
    2.8370   13.9390   -3.1700 C   0  0  0  0  0  0  0  0  0  0  0  0
    0.5480   12.9140   -3.1190 C   0  0  0  0  0  0  0  0  0  0  0  0
   -0.5010   12.1340   -2.3040 C   0  0  0  0  0  0  0  0  0  0  0  0
    0.1530   11.3910   -1.1350 C   0  0  2  0  0  0  0  0  0  0  0  0
    1.1500   10.3420   -1.7340 C   0  0  0  0  0  0  0  0  0  0  0  0
   -0.0717    8.4516   -2.1092 H   0  0  0  0  0  0  0  0  0  0  0  0
   -1.8006    8.5237   -2.5913 H   0  0  0  0  0  0  0  0  0  0  0  0
   -0.8050   10.0189   -2.5913 H   0  0  0  0  0  0  0  0  0  0  0  0
   -0.9713    8.5043   -0.0181 H   0  0  0  0  0  0  0  0  0  0  0  0
   -3.1252    9.2127    0.6424 H   0  0  0  0  0  0  0  0  0  0  0  0
   -3.2876   10.2746   -0.8374 H   0  0  0  0  0  0  0  0  0  0  0  0
   -3.5404    8.3843   -2.2660 H   0  0  0  0  0  0  0  0  0  0  0  0
   -3.1583    7.2464   -0.9072 H   0  0  0  0  0  0  0  0  0  0  0  0
   -5.0509    9.1453   -0.4022 H   0  0  0  0  0  0  0  0  0  0  0  0
   -5.2407    5.7552   -2.6897 H   0  0  0  0  0  0  0  0  0  0  0  0
   -6.6530    6.4975   -3.5149 H   0  0  0  0  0  0  0  0  0  0  0  0
   -5.0672    7.3413   -3.5149 H   0  0  0  0  0  0  0  0  0  0  0  0
   -7.8077    7.8549   -0.4390 H   0  0  0  0  0  0  0  0  0  0  0  0
   -7.7287    8.7634   -1.9866 H   0  0  0  0  0  0  0  0  0  0  0  0
   -8.1919    7.0278   -1.9866 H   0  0  0  0  0  0  0  0  0  0  0  0
   -1.7268   11.2274   -0.0334 H   0  0  0  0  0  0  0  0  0  0  0  0
   -0.5409   10.7282    2.0123 H   0  0  0  0  0  0  0  0  0  0  0  0
    0.4517    9.4834    1.2239 H   0  0  0  0  0  0  0  0  0  0  0  0
    1.3309   12.1110    1.9255 H   0  0  0  0  0  0  0  0  0  0  0  0
    2.1941   11.0429    0.8219 H   0  0  0  0  0  0  0  0  0  0  0  0
   -0.1365   13.4145    1.5461 H   0  0  0  0  0  0  0  0  0  0  0  0
    0.0683   14.4881    0.1206 H   0  0  0  0  0  0  0  0  0  0  0  0
   -1.2138   13.2299    0.1206 H   0  0  0  0  0  0  0  0  0  0  0  0
    2.6491   12.3378   -1.1714 H   0  0  0  0  0  0  0  0  0  0  0  0
    2.7983   13.7806    0.9575 H   0  0  0  0  0  0  0  0  0  0  0  0
    3.7996   14.1795   -0.5348 H   0  0  0  0  0  0  0  0  0  0  0  0
    2.7020   16.2227    0.7144 H   0  0  0  0  0  0  0  0  0  0  0  0
   -0.1527   15.0180   -1.8728 H   0  0  0  0  0  0  0  0  0  0  0  0
    1.9981   16.3133   -3.6584 H   0  0  0  0  0  0  0  0  0  0  0  0
    0.4374   15.5529   -4.2036 H   0  0  0  0  0  0  0  0  0  0  0  0
    0.3215   18.0239   -4.1911 H   0  0  0  0  0  0  0  0  0  0  0  0
   -0.8364   17.2558   -3.0352 H   0  0  0  0  0  0  0  0  0  0  0  0
    0.1766   19.1507   -1.9665 H   0  0  0  0  0  0  0  0  0  0  0  0
    2.4870   17.9940   -3.0940 H   0  0  0  0  0  0  0  0  0  0  0  0
   -0.6201   17.3576    0.8690 H   0  0  0  0  0  0  0  0  0  0  0  0
   -1.2333   18.1989   -0.5949 H   0  0  0  0  0  0  0  0  0  0  0  0
   -1.0545   16.4115   -0.5949 H   0  0  0  0  0  0  0  0  0  0  0  0
    1.3020   18.0588    1.2994 H   0  0  0  0  0  0  0  0  0  0  0  0
    2.6609   18.2629    0.1425 H   0  0  0  0  0  0  0  0  0  0  0  0
    1.2979   19.4330    0.1425 H   0  0  0  0  0  0  0  0  0  0  0  0
    3.7126   14.0161   -2.5086 H   0  0  0  0  0  0  0  0  0  0  0  0
    2.9346   13.0460   -3.8048 H   0  0  0  0  0  0  0  0  0  0  0  0
    2.7769   14.8353   -3.8048 H   0  0  0  0  0  0  0  0  0  0  0  0
    0.0070   13.5597   -3.8264 H   0  0  0  0  0  0  0  0  0  0  0  0
    1.1791   12.1443   -3.5873 H   0  0  0  0  0  0  0  0  0  0  0  0
   -1.2471   12.8394   -1.9095 H   0  0  0  0  0  0  0  0  0  0  0  0
   -0.9796   11.3959   -2.9644 H   0  0  0  0  0  0  0  0  0  0  0  0
    1.6566    9.8089   -0.9160 H   0  0  0  0  0  0  0  0  0  0  0  0
    0.5958    9.6214   -2.3534 H   0  0  0  0  0  0  0  0  0  0  0  0
    1.8978   10.8589   -2.3534 H   0  0  0  0  0  0  0  0  0  0  0  0
  1  2  1  0
  2  3  1  0
  3  4  1  0
  4  5  1  0
  5  6  1  0
  6  7  1  0
  7  8  1  0
  7  9  1  0
  2 10  1  0
 10 11  1  0
 11 12  1  0
 12 13  1  0
 13 14  1  1
 13 15  1  0
 15 16  1  0
 16 17  1  0
 17 18  2  0
 18 19  1  0
 19 20  1  0
 20 21  1  0
 21 22  1  0
 22 23  1  0
 22 24  1  0
 24 25  1  0
 24 26  1  0
 19 27  1  0
 27 28  1  6
 27 29  1  0
 29 30  1  0
 30 31  1  0
 31 32  1  6
  7  5  1  0
 31 10  1  0
 31 13  1  0
 27 15  1  0
 24 18  1  0
  1 33  1  0
  1 34  1  0
  1 35  1  0
  2 36  1  1
  3 37  1  0
  3 38  1  0
  4 39  1  0
  4 40  1  0
  5 41  1  1
  8 42  1  0
  8 43  1  0
  8 44  1  0
  9 45  1  0
  9 46  1  0
  9 47  1  0
 10 48  1  1
 11 49  1  0
 11 50  1  0
 12 51  1  0
 12 52  1  0
 14 53  1  0
 14 54  1  0
 14 55  1  0
 15 56  1  6
 16 57  1  0
 16 58  1  0
 17 59  1  0
 19 60  1  1
 20 61  1  0
 20 62  1  0
 21 63  1  0
 21 64  1  0
 22 65  1  1
 23 66  1  0
 25 67  1  0
 25 68  1  0
 25 69  1  0
 26 70  1  0
 26 71  1  0
 26 72  1  0
 28 73  1  0
 28 74  1  0
 28 75  1  0
 29 76  1  0
 29 77  1  0
 30 78  1  0
 30 79  1  0
 32 80  1  0
 32 81  1  0
 32 82  1  0
M  END
>  <meeko>  (4) 
{"is_sidechain": [false], "intermolecular_energy": 2.731, "internal_energy": -0.839}

$$$$
EPH_relaxed_0001_pdb2pqr_Repair_184_r2_0001_out
     RDKit          3D

 82 86  0  0  0  0  0  0  0  0999 V2000
    4.1400   17.3960    0.4380 C   0  0  0  0  0  0  0  0  0  0  0  0
    3.8820   16.5310   -0.7980 C   0  0  2  0  0  0  0  0  0  0  0  0
    3.7010   17.3800   -2.0730 C   0  0  0  0  0  0  0  0  0  0  0  0
    3.1570   18.7850   -1.8040 C   0  0  0  0  0  0  0  0  0  0  0  0
    1.6840   18.8700   -2.0660 C   0  0  2  0  0  0  0  0  0  0  0  0
    1.1940   20.1940   -2.3150 O   0  0  0  0  0  0  0  0  0  0  0  0
    0.7050   19.5500   -1.1270 C   0  0  0  0  0  0  0  0  0  0  0  0
    1.1620   20.1920    0.1450 C   0  0  0  0  0  0  0  0  0  0  0  0
   -0.7400   19.1680   -1.2010 C   0  0  0  0  0  0  0  0  0  0  0  0
    2.6520   15.6590   -0.5740 C   0  0  1  0  0  0  0  0  0  0  0  0
    1.3670   16.4910   -0.3220 C   0  0  0  0  0  0  0  0  0  0  0  0
    0.1940   15.7110   -0.9690 C   0  0  0  0  0  0  0  0  0  0  0  0
    0.7790   14.3120   -1.2770 C   0  0  1  0  0  0  0  0  0  0  0  0
    0.7090   13.5420    0.0790 C   0  0  0  0  0  0  0  0  0  0  0  0
    0.0900   13.5140   -2.4310 C   0  0  2  0  0  0  0  0  0  0  0  0
   -1.3880   13.1610   -2.1880 C   0  0  0  0  0  0  0  0  0  0  0  0
   -1.6290   11.8490   -1.5160 C   0  0  0  0  0  0  0  0  0  0  0  0
   -0.7230   10.8630   -1.3780 C   0  0  0  0  0  0  0  0  0  0  0  0
    0.6680   10.9770   -2.0150 C   0  0  1  0  0  0  0  0  0  0  0  0
    1.0160    9.6510   -2.7410 C   0  0  0  0  0  0  0  0  0  0  0  0
    0.8890    8.4340   -1.8300 C   0  0  0  0  0  0  0  0  0  0  0  0
   -0.5240    8.3220   -1.2630 C   0  0  2  0  0  0  0  0  0  0  0  0
   -1.4290    8.0350   -2.3340 O   0  0  0  0  0  0  0  0  0  0  0  0
   -0.9880    9.6040   -0.5160 C   0  0  0  0  0  0  0  0  0  0  0  0
   -0.2000    9.7480    0.8090 C   0  0  0  0  0  0  0  0  0  0  0  0
   -2.4760    9.4130   -0.1180 C   0  0  0  0  0  0  0  0  0  0  0  0
    0.9100   12.2550   -2.9280 C   0  0  1  0  0  0  0  0  0  0  0  0
    0.4390   11.9640   -4.3860 C   0  0  0  0  0  0  0  0  0  0  0  0
    2.4560   12.5430   -3.0100 C   0  0  0  0  0  0  0  0  0  0  0  0
    3.0560   13.4370   -1.9080 C   0  0  0  0  0  0  0  0  0  0  0  0
    2.2300   14.7140   -1.7280 C   0  0  2  0  0  0  0  0  0  0  0  0
    2.3000   15.5220   -3.0690 C   0  0  0  0  0  0  0  0  0  0  0  0
    3.9624   16.8006    1.3458 H   0  0  0  0  0  0  0  0  0  0  0  0
    5.1822   17.7478    0.4283 H   0  0  0  0  0  0  0  0  0  0  0  0
    3.4608   18.2612    0.4283 H   0  0  0  0  0  0  0  0  0  0  0  0
    4.7667   15.8947   -0.9478 H   0  0  0  0  0  0  0  0  0  0  0  0
    4.6784   17.4750   -2.5687 H   0  0  0  0  0  0  0  0  0  0  0  0
    2.9605   16.8632   -2.7011 H   0  0  0  0  0  0  0  0  0  0  0  0
    3.3474   19.0454   -0.7524 H   0  0  0  0  0  0  0  0  0  0  0  0
    3.6664   19.4850   -2.4826 H   0  0  0  0  0  0  0  0  0  0  0  0
    1.6870   17.8750   -2.5351 H   0  0  0  0  0  0  0  0  0  0  0  0
    0.7627   19.6311    1.0029 H   0  0  0  0  0  0  0  0  0  0  0  0
    2.2613   20.1876    0.1836 H   0  0  0  0  0  0  0  0  0  0  0  0
    0.7979   21.2293    0.1836 H   0  0  0  0  0  0  0  0  0  0  0  0
   -1.1436   19.0613   -0.1833 H   0  0  0  0  0  0  0  0  0  0  0  0
   -1.2988   19.9493   -1.7370 H   0  0  0  0  0  0  0  0  0  0  0  0
   -0.8397   18.2126   -1.7370 H   0  0  0  0  0  0  0  0  0  0  0  0
    2.9990   15.0696    0.2875 H   0  0  0  0  0  0  0  0  0  0  0  0
    1.1956   16.6050    0.7586 H   0  0  0  0  0  0  0  0  0  0  0  0
    1.4577   17.4981   -0.7551 H   0  0  0  0  0  0  0  0  0  0  0  0
   -0.6525   15.6329   -0.2709 H   0  0  0  0  0  0  0  0  0  0  0  0
   -0.1920   16.2096   -1.8703 H   0  0  0  0  0  0  0  0  0  0  0  0
    0.7741   14.2584    0.9112 H   0  0  0  0  0  0  0  0  0  0  0  0
   -0.2427   12.9938    0.1407 H   0  0  0  0  0  0  0  0  0  0  0  0
    1.5462   12.8312    0.1407 H   0  0  0  0  0  0  0  0  0  0  0  0
    0.0921   14.2424   -3.2553 H   0  0  0  0  0  0  0  0  0  0  0  0
   -1.8270   13.9502   -1.5599 H   0  0  0  0  0  0  0  0  0  0  0  0
   -1.8494   13.0821   -3.1834 H   0  0  0  0  0  0  0  0  0  0  0  0
   -2.6315   11.6737   -1.0986 H   0  0  0  0  0  0  0  0  0  0  0  0
    1.3699   11.1424   -1.1843 H   0  0  0  0  0  0  0  0  0  0  0  0
    0.3323    9.5260   -3.5936 H   0  0  0  0  0  0  0  0  0  0  0  0
    2.0642    9.7149   -3.0683 H   0  0  0  0  0  0  0  0  0  0  0  0
    1.1181    7.5264   -2.4077 H   0  0  0  0  0  0  0  0  0  0  0  0
    1.5950    8.5461   -0.9939 H   0  0  0  0  0  0  0  0  0  0  0  0
   -0.5179    7.5111   -0.5198 H   0  0  0  0  0  0  0  0  0  0  0  0
   -1.7780    8.8820   -2.6600 H   0  0  0  0  0  0  0  0  0  0  0  0
   -0.8864    9.6226    1.6593 H   0  0  0  0  0  0  0  0  0  0  0  0
    0.5846    8.9784    0.8545 H   0  0  0  0  0  0  0  0  0  0  0  0
    0.2617   10.7454    0.8545 H   0  0  0  0  0  0  0  0  0  0  0  0
   -2.5637    9.4017    0.9784 H   0  0  0  0  0  0  0  0  0  0  0  0
   -3.0738   10.2418   -0.5252 H   0  0  0  0  0  0  0  0  0  0  0  0
   -2.8451    8.4601   -0.5252 H   0  0  0  0  0  0  0  0  0  0  0  0
   -0.4965   11.3860   -4.3606 H   0  0  0  0  0  0  0  0  0  0  0  0
    0.2686   12.9145   -4.9129 H   0  0  0  0  0  0  0  0  0  0  0  0
    1.2127   11.3863   -4.9129 H   0  0  0  0  0  0  0  0  0  0  0  0
    2.9771   11.5750   -2.9735 H   0  0  0  0  0  0  0  0  0  0  0  0
    2.5944   13.1065   -3.9445 H   0  0  0  0  0  0  0  0  0  0  0  0
    3.0684   12.8798   -0.9596 H   0  0  0  0  0  0  0  0  0  0  0  0
    4.0777   13.7187   -2.2024 H   0  0  0  0  0  0  0  0  0  0  0  0
    2.3930   16.5951   -2.8460 H   0  0  0  0  0  0  0  0  0  0  0  0
    3.1729   15.1915   -3.6511 H   0  0  0  0  0  0  0  0  0  0  0  0
    1.3833   15.3465   -3.6511 H   0  0  0  0  0  0  0  0  0  0  0  0
  1  2  1  0
  2  3  1  0
  3  4  1  0
  4  5  1  0
  5  6  1  0
  6  7  1  0
  7  8  1  0
  7  9  1  0
  2 10  1  0
 10 11  1  0
 11 12  1  0
 12 13  1  0
 13 14  1  1
 13 15  1  0
 15 16  1  0
 16 17  1  0
 17 18  2  0
 18 19  1  0
 19 20  1  0
 20 21  1  0
 21 22  1  0
 22 23  1  0
 22 24  1  0
 24 25  1  0
 24 26  1  0
 19 27  1  0
 27 28  1  6
 27 29  1  0
 29 30  1  0
 30 31  1  0
 31 32  1  6
  7  5  1  0
 31 10  1  0
 31 13  1  0
 27 15  1  0
 24 18  1  0
  1 33  1  0
  1 34  1  0
  1 35  1  0
  2 36  1  6
  3 37  1  0
  3 38  1  0
  4 39  1  0
  4 40  1  0
  5 41  1  6
  8 42  1  0
  8 43  1  0
  8 44  1  0
  9 45  1  0
  9 46  1  0
  9 47  1  0
 10 48  1  1
 11 49  1  0
 11 50  1  0
 12 51  1  0
 12 52  1  0
 14 53  1  0
 14 54  1  0
 14 55  1  0
 15 56  1  6
 16 57  1  0
 16 58  1  0
 17 59  1  0
 19 60  1  1
 20 61  1  0
 20 62  1  0
 21 63  1  0
 21 64  1  0
 22 65  1  1
 23 66  1  0
 25 67  1  0
 25 68  1  0
 25 69  1  0
 26 70  1  0
 26 71  1  0
 26 72  1  0
 28 73  1  0
 28 74  1  0
 28 75  1  0
 29 76  1  0
 29 77  1  0
 30 78  1  0
 30 79  1  0
 32 80  1  0
 32 81  1  0
 32 82  1  0
M  END
>  <meeko>  (5) 
{"is_sidechain": [false], "intermolecular_energy": 2.731, "internal_energy": -0.839}

$$$$
EPH_relaxed_0001_pdb2pqr_Repair_184_r2_0001_out
     RDKit          3D

 82 86  0  0  0  0  0  0  0  0999 V2000
    2.2060   19.3480   -0.4090 C   0  0  0  0  0  0  0  0  0  0  0  0
    2.9020   17.9870   -0.4960 C   0  0  2  0  0  0  0  0  0  0  0  0
    3.7400   17.8450   -1.7830 C   0  0  0  0  0  0  0  0  0  0  0  0
    5.1540   17.3090   -1.5400 C   0  0  0  0  0  0  0  0  0  0  0  0
    6.0840   17.6760   -2.6560 C   0  0  2  0  0  0  0  0  0  0  0  0
    5.5070   17.6010   -3.9660 O   0  0  0  0  0  0  0  0  0  0  0  0
    6.5790   16.6840   -3.6930 C   0  0  0  0  0  0  0  0  0  0  0  0
    6.1590   15.2480   -3.6620 C   0  0  0  0  0  0  0  0  0  0  0  0
    7.8420   16.9950   -4.4350 C   0  0  0  0  0  0  0  0  0  0  0  0
    1.8690   16.8690   -0.4210 C   0  0  1  0  0  0  0  0  0  0  0  0
    0.4150   17.3880   -0.5810 C   0  0  0  0  0  0  0  0  0  0  0  0
   -0.3700   16.2930   -1.3470 C   0  0  0  0  0  0  0  0  0  0  0  0
    0.5550   15.0540   -1.3120 C   0  0  1  0  0  0  0  0  0  0  0  0
    0.3180   14.4170    0.0930 C   0  0  0  0  0  0  0  0  0  0  0  0
    0.3560   14.0100   -2.4590 C   0  0  2  0  0  0  0  0  0  0  0  0
   -1.0270   13.3370   -2.4970 C   0  0  0  0  0  0  0  0  0  0  0  0
   -1.1420   12.0740   -1.7090 C   0  0  0  0  0  0  0  0  0  0  0  0
   -0.1110   11.3510   -1.2350 C   0  0  0  0  0  0  0  0  0  0  0  0
    1.3380   11.7360   -1.5610 C   0  0  1  0  0  0  0  0  0  0  0  0
    2.1260   10.4720   -1.9930 C   0  0  0  0  0  0  0  0  0  0  0  0
    2.0390    9.3490   -0.9640 C   0  0  0  0  0  0  0  0  0  0  0  0
    0.5870    8.9540   -0.7090 C   0  0  2  0  0  0  0  0  0  0  0  0
    0.0550    8.3600   -1.8980 O   0  0  0  0  0  0  0  0  0  0  0  0
   -0.3070   10.1500   -0.2770 C   0  0  0  0  0  0  0  0  0  0  0  0
    0.0810   10.5990    1.1530 C   0  0  0  0  0  0  0  0  0  0  0  0
   -1.7720    9.6440   -0.1910 C   0  0  0  0  0  0  0  0  0  0  0  0
    1.5210   12.9460   -2.5760 C   0  0  1  0  0  0  0  0  0  0  0  0
    1.4960   12.4180   -4.0430 C   0  0  0  0  0  0  0  0  0  0  0  0
    2.9420   13.5880   -2.3600 C   0  0  0  0  0  0  0  0  0  0  0  0
    3.0490   14.6970   -1.2950 C   0  0  0  0  0  0  0  0  0  0  0  0
    1.9530   15.7490   -1.4890 C   0  0  2  0  0  0  0  0  0  0  0  0
    2.1790   16.4230   -2.8850 C   0  0  0  0  0  0  0  0  0  0  0  0
    2.0662   19.6215    0.6473 H   0  0  0  0  0  0  0  0  0  0  0  0
    2.8256   20.1091   -0.9059 H   0  0  0  0  0  0  0  0  0  0  0  0
    1.2263   19.2912   -0.9059 H   0  0  0  0  0  0  0  0  0  0  0  0
    3.5921   17.9129    0.3574 H   0  0  0  0  0  0  0  0  0  0  0  0
    3.2188   17.1547   -2.4626 H   0  0  0  0  0  0  0  0  0  0  0  0
    3.8469   18.8530   -2.2103 H   0  0  0  0  0  0  0  0  0  0  0  0
    5.5394   17.7323   -0.6007 H   0  0  0  0  0  0  0  0  0  0  0  0
    5.1004   16.2117   -1.4845 H   0  0  0  0  0  0  0  0  0  0  0  0
    6.6112   18.3949   -2.0116 H   0  0  0  0  0  0  0  0  0  0  0  0
    6.0621   14.9168   -2.6175 H   0  0  0  0  0  0  0  0  0  0  0  0
    5.1910   15.1380   -4.1728 H   0  0  0  0  0  0  0  0  0  0  0  0
    6.9151   14.6337   -4.1728 H   0  0  0  0  0  0  0  0  0  0  0  0
    8.6502   17.1940   -3.7159 H   0  0  0  0  0  0  0  0  0  0  0  0
    8.1165   16.1376   -5.0671 H   0  0  0  0  0  0  0  0  0  0  0  0
    7.6870   17.8818   -5.0671 H   0  0  0  0  0  0  0  0  0  0  0  0
    2.1106   16.4615    0.5718 H   0  0  0  0  0  0  0  0  0  0  0  0
   -0.0376   17.5570    0.4072 H   0  0  0  0  0  0  0  0  0  0  0  0
    0.3947   18.3428   -1.1269 H   0  0  0  0  0  0  0  0  0  0  0  0
   -1.3258   16.0784   -0.8466 H   0  0  0  0  0  0  0  0  0  0  0  0
   -0.6190   16.5991   -2.3738 H   0  0  0  0  0  0  0  0  0  0  0  0
    0.5879   15.1423    0.8747 H   0  0  0  0  0  0  0  0  0  0  0  0
   -0.7422   14.1430    0.1973 H   0  0  0  0  0  0  0  0  0  0  0  0
    0.9413   13.5167    0.1973 H   0  0  0  0  0  0  0  0  0  0  0  0
    0.4061   14.6382   -3.3606 H   0  0  0  0  0  0  0  0  0  0  0  0
   -1.7642   14.0521   -2.1030 H   0  0  0  0  0  0  0  0  0  0  0  0
   -1.2019   13.0585   -3.5467 H   0  0  0  0  0  0  0  0  0  0  0  0
   -2.1558   11.7030   -1.4980 H   0  0  0  0  0  0  0  0  0  0  0  0
    1.7626   12.1390   -0.6297 H   0  0  0  0  0  0  0  0  0  0  0  0
    1.7153   10.1091   -2.9467 H   0  0  0  0  0  0  0  0  0  0  0  0
    3.1845   10.7551   -2.0900 H   0  0  0  0  0  0  0  0  0  0  0  0
    2.5896    8.4737   -1.3390 H   0  0  0  0  0  0  0  0  0  0  0  0
    2.4774    9.7036   -0.0195 H   0  0  0  0  0  0  0  0  0  0  0  0
    0.5816    8.2405    0.1282 H   0  0  0  0  0  0  0  0  0  0  0  0
    0.6140    7.5970   -2.1210 H   0  0  0  0  0  0  0  0  0  0  0  0
   -0.4534    9.9806    1.8892 H   0  0  0  0  0  0  0  0  0  0  0  0
    1.1656   10.4805    1.2929 H   0  0  0  0  0  0  0  0  0  0  0  0
   -0.1935   11.6550    1.2929 H   0  0  0  0  0  0  0  0  0  0  0  0
   -2.0637    9.5432    0.8648 H   0  0  0  0  0  0  0  0  0  0  0  0
   -2.4384   10.3640   -0.6884 H   0  0  0  0  0  0  0  0  0  0  0  0
   -1.8520    8.6662   -0.6884 H   0  0  0  0  0  0  0  0  0  0  0  0
    1.4440   11.3193   -4.0364 H   0  0  0  0  0  0  0  0  0  0  0  0
    0.6161   12.8236   -4.5637 H   0  0  0  0  0  0  0  0  0  0  0  0
    2.4103   12.7387   -4.5637 H   0  0  0  0  0  0  0  0  0  0  0  0
    3.6312   12.7810   -2.0705 H   0  0  0  0  0  0  0  0  0  0  0  0
    3.1833   14.0805   -3.3136 H   0  0  0  0  0  0  0  0  0  0  0  0
    2.9447   14.2483   -0.2961 H   0  0  0  0  0  0  0  0  0  0  0  0
    4.0285   15.1874   -1.3956 H   0  0  0  0  0  0  0  0  0  0  0  0
    2.5257   17.4570   -2.7411 H   0  0  0  0  0  0  0  0  0  0  0  0
    2.9365   15.8571   -3.4470 H   0  0  0  0  0  0  0  0  0  0  0  0
    1.2334   16.4282   -3.4470 H   0  0  0  0  0  0  0  0  0  0  0  0
  1  2  1  0
  2  3  1  0
  3  4  1  0
  4  5  1  0
  5  6  1  0
  6  7  1  0
  7  8  1  0
  7  9  1  0
  2 10  1  0
 10 11  1  0
 11 12  1  0
 12 13  1  0
 13 14  1  1
 13 15  1  0
 15 16  1  0
 16 17  1  0
 17 18  2  0
 18 19  1  0
 19 20  1  0
 20 21  1  0
 21 22  1  0
 22 23  1  0
 22 24  1  0
 24 25  1  0
 24 26  1  0
 19 27  1  0
 27 28  1  6
 27 29  1  0
 29 30  1  0
 30 31  1  0
 31 32  1  6
  7  5  1  0
 31 10  1  0
 31 13  1  0
 27 15  1  0
 24 18  1  0
  1 33  1  0
  1 34  1  0
  1 35  1  0
  2 36  1  1
  3 37  1  0
  3 38  1  0
  4 39  1  0
  4 40  1  0
  5 41  1  1
  8 42  1  0
  8 43  1  0
  8 44  1  0
  9 45  1  0
  9 46  1  0
  9 47  1  0
 10 48  1  1
 11 49  1  0
 11 50  1  0
 12 51  1  0
 12 52  1  0
 14 53  1  0
 14 54  1  0
 14 55  1  0
 15 56  1  6
 16 57  1  0
 16 58  1  0
 17 59  1  0
 19 60  1  1
 20 61  1  0
 20 62  1  0
 21 63  1  0
 21 64  1  0
 22 65  1  1
 23 66  1  0
 25 67  1  0
 25 68  1  0
 25 69  1  0
 26 70  1  0
 26 71  1  0
 26 72  1  0
 28 73  1  0
 28 74  1  0
 28 75  1  0
 29 76  1  0
 29 77  1  0
 30 78  1  0
 30 79  1  0
 32 80  1  0
 32 81  1  0
 32 82  1  0
M  END
>  <meeko>  (6) 
{"is_sidechain": [false], "intermolecular_energy": 2.731, "internal_energy": -0.839}

$$$$
EPH_relaxed_0001_pdb2pqr_Repair_184_r2_0001_out
     RDKit          3D

 82 86  0  0  0  0  0  0  0  0999 V2000
    0.3600   17.8540   -0.3470 C   0  0  0  0  0  0  0  0  0  0  0  0
    1.3230   17.0790   -1.2510 C   0  0  2  0  0  0  0  0  0  0  0  0
    1.8180   17.9300   -2.4370 C   0  0  0  0  0  0  0  0  0  0  0  0
    3.3190   18.2290   -2.3960 C   0  0  0  0  0  0  0  0  0  0  0  0
    4.1330   16.9720   -2.3220 C   0  0  2  0  0  0  0  0  0  0  0  0
    5.2970   17.0620   -1.4900 O   0  0  0  0  0  0  0  0  0  0  0  0
    5.5340   16.8480   -2.8910 C   0  0  0  0  0  0  0  0  0  0  0  0
    6.2020   17.9980   -3.5780 C   0  0  0  0  0  0  0  0  0  0  0  0
    6.0570   15.4830   -3.2130 C   0  0  0  0  0  0  0  0  0  0  0  0
    0.6480   15.8120   -1.7640 C   0  0  1  0  0  0  0  0  0  0  0  0
    0.2180   15.9250   -3.2510 C   0  0  0  0  0  0  0  0  0  0  0  0
    0.4030   14.5190   -3.8780 C   0  0  0  0  0  0  0  0  0  0  0  0
    0.6100   13.5770   -2.6690 C   0  0  1  0  0  0  0  0  0  0  0  0
   -0.8270   13.2880   -2.1340 C   0  0  0  0  0  0  0  0  0  0  0  0
    1.3980   12.2560   -2.9490 C   0  0  2  0  0  0  0  0  0  0  0  0
    0.7290   11.2970   -3.9490 C   0  0  0  0  0  0  0  0  0  0  0  0
   -0.1930   10.2890   -3.3470 C   0  0  0  0  0  0  0  0  0  0  0  0
   -0.2570    9.9690   -2.0410 C   0  0  0  0  0  0  0  0  0  0  0  0
    0.7250   10.5790   -1.0320 C   0  0  1  0  0  0  0  0  0  0  0  0
    1.2820    9.4610   -0.1120 C   0  0  0  0  0  0  0  0  0  0  0  0
    0.1780    8.6540    0.5630 C   0  0  0  0  0  0  0  0  0  0  0  0
   -0.7430    8.0160   -0.4740 C   0  0  2  0  0  0  0  0  0  0  0  0
   -0.0040    7.0300   -1.2020 O   0  0  0  0  0  0  0  0  0  0  0  0
   -1.3570    9.0450   -1.4640 C   0  0  0  0  0  0  0  0  0  0  0  0
   -2.3930    9.9250   -0.7220 C   0  0  0  0  0  0  0  0  0  0  0  0
   -2.1500    8.2560   -2.5410 C   0  0  0  0  0  0  0  0  0  0  0  0
    1.8710   11.4940   -1.6450 C   0  0  1  0  0  0  0  0  0  0  0  0
    3.0890   10.6130   -2.0610 C   0  0  0  0  0  0  0  0  0  0  0  0
    2.3930   12.4780   -0.5330 C   0  0  0  0  0  0  0  0  0  0  0  0
    1.6470   13.8180   -0.3850 C   0  0  0  0  0  0  0  0  0  0  0  0
    1.4790   14.5050   -1.7440 C   0  0  2  0  0  0  0  0  0  0  0  0
    2.9090   14.8280   -2.2970 C   0  0  0  0  0  0  0  0  0  0  0  0
    0.6064   17.6557    0.7066 H   0  0  0  0  0  0  0  0  0  0  0  0
    0.4541   18.9312   -0.5491 H   0  0  0  0  0  0  0  0  0  0  0  0
   -0.6721   17.5318   -0.5491 H   0  0  0  0  0  0  0  0  0  0  0  0
    2.2027   16.8128   -0.6466 H   0  0  0  0  0  0  0  0  0  0  0  0
    1.5971   17.3888   -3.3688 H   0  0  0  0  0  0  0  0  0  0  0  0
    1.2960   18.8965   -2.3790 H   0  0  0  0  0  0  0  0  0  0  0  0
    3.5975   18.7810   -3.3058 H   0  0  0  0  0  0  0  0  0  0  0  0
    3.5255   18.8248   -1.4947 H   0  0  0  0  0  0  0  0  0  0  0  0
    3.2316   16.3526   -2.4399 H   0  0  0  0  0  0  0  0  0  0  0  0
    6.6047   18.6913   -2.8249 H   0  0  0  0  0  0  0  0  0  0  0  0
    7.0227   17.6228   -4.2070 H   0  0  0  0  0  0  0  0  0  0  0  0
    5.4695   18.5250   -4.2070 H   0  0  0  0  0  0  0  0  0  0  0  0
    6.2649   14.9403   -2.2791 H   0  0  0  0  0  0  0  0  0  0  0  0
    5.3065   14.9314   -3.7983 H   0  0  0  0  0  0  0  0  0  0  0  0
    6.9839   15.5741   -3.7983 H   0  0  0  0  0  0  0  0  0  0  0  0
   -0.1815   15.7410   -1.0450 H   0  0  0  0  0  0  0  0  0  0  0  0
   -0.8355   16.2342   -3.3183 H   0  0  0  0  0  0  0  0  0  0  0  0
    0.8219   16.6764   -3.7808 H   0  0  0  0  0  0  0  0  0  0  0  0
   -0.4911   14.2276   -4.4487 H   0  0  0  0  0  0  0  0  0  0  0  0
    1.2466   14.4843   -4.5831 H   0  0  0  0  0  0  0  0  0  0  0  0
   -0.8161   13.2902   -1.0341 H   0  0  0  0  0  0  0  0  0  0  0  0
   -1.5161   14.0655   -2.4954 H   0  0  0  0  0  0  0  0  0  0  0  0
   -1.1619   12.3045   -2.4954 H   0  0  0  0  0  0  0  0  0  0  0  0
    2.3055   12.6245   -3.4497 H   0  0  0  0  0  0  0  0  0  0  0  0
    0.1518   11.9008   -4.6648 H   0  0  0  0  0  0  0  0  0  0  0  0
    1.5450   10.7238   -4.4133 H   0  0  0  0  0  0  0  0  0  0  0  0
   -0.8781    9.7632   -4.0283 H   0  0  0  0  0  0  0  0  0  0  0  0
    0.1425   11.2971   -0.4361 H   0  0  0  0  0  0  0  0  0  0  0  0
    1.8966    8.7793   -0.7182 H   0  0  0  0  0  0  0  0  0  0  0  0
    1.8735    9.9442    0.6796 H   0  0  0  0  0  0  0  0  0  0  0  0
    0.6339    7.8621    1.1753 H   0  0  0  0  0  0  0  0  0  0  0  0
   -0.4177    9.3316    1.1922 H   0  0  0  0  0  0  0  0  0  0  0  0
   -1.5853    7.5615    0.0681 H   0  0  0  0  0  0  0  0  0  0  0  0
   -0.0220    6.2070   -0.6850 H   0  0  0  0  0  0  0  0  0  0  0  0
   -2.2596    9.8117    0.3640 H   0  0  0  0  0  0  0  0  0  0  0  0
   -2.2462   10.9787   -1.0015 H   0  0  0  0  0  0  0  0  0  0  0  0
   -3.4091    9.6097   -1.0015 H   0  0  0  0  0  0  0  0  0  0  0  0
   -2.8471    7.5624   -2.0482 H   0  0  0  0  0  0  0  0  0  0  0  0
   -2.7158    8.9600   -3.1689 H   0  0  0  0  0  0  0  0  0  0  0  0
   -1.4488    7.6867   -3.1689 H   0  0  0  0  0  0  0  0  0  0  0  0
    3.5995   10.2438   -1.1593 H   0  0  0  0  0  0  0  0  0  0  0  0
    2.7369    9.7592   -2.6586 H   0  0  0  0  0  0  0  0  0  0  0  0
    3.7897   11.2147   -2.6586 H   0  0  0  0  0  0  0  0  0  0  0  0
    2.3296   11.9535    0.4318 H   0  0  0  0  0  0  0  0  0  0  0  0
    3.4126   12.7491   -0.8443 H   0  0  0  0  0  0  0  0  0  0  0  0
    0.6537   13.6308    0.0489 H   0  0  0  0  0  0  0  0  0  0  0  0
    2.2356   14.4766    0.2706 H   0  0  0  0  0  0  0  0  0  0  0  0
    3.6007   14.9842   -1.4561 H   0  0  0  0  0  0  0  0  0  0  0  0
    3.2630   13.9872   -2.9116 H   0  0  0  0  0  0  0  0  0  0  0  0
    2.8672   15.7393   -2.9116 H   0  0  0  0  0  0  0  0  0  0  0  0
  1  2  1  0
  2  3  1  0
  3  4  1  0
  4  5  1  0
  5  6  1  0
  6  7  1  0
  7  8  1  0
  7  9  1  0
  2 10  1  0
 10 11  1  0
 11 12  1  0
 12 13  1  0
 13 14  1  1
 13 15  1  0
 15 16  1  0
 16 17  1  0
 17 18  2  0
 18 19  1  0
 19 20  1  0
 20 21  1  0
 21 22  1  0
 22 23  1  0
 22 24  1  0
 24 25  1  0
 24 26  1  0
 19 27  1  0
 27 28  1  6
 27 29  1  0
 29 30  1  0
 30 31  1  0
 31 32  1  6
  7  5  1  0
 31 10  1  0
 31 13  1  0
 27 15  1  0
 24 18  1  0
  1 33  1  0
  1 34  1  0
  1 35  1  0
  2 36  1  1
  3 37  1  0
  3 38  1  0
  4 39  1  0
  4 40  1  0
  5 41  1  1
  8 42  1  0
  8 43  1  0
  8 44  1  0
  9 45  1  0
  9 46  1  0
  9 47  1  0
 10 48  1  1
 11 49  1  0
 11 50  1  0
 12 51  1  0
 12 52  1  0
 14 53  1  0
 14 54  1  0
 14 55  1  0
 15 56  1  6
 16 57  1  0
 16 58  1  0
 17 59  1  0
 19 60  1  1
 20 61  1  0
 20 62  1  0
 21 63  1  0
 21 64  1  0
 22 65  1  1
 23 66  1  0
 25 67  1  0
 25 68  1  0
 25 69  1  0
 26 70  1  0
 26 71  1  0
 26 72  1  0
 28 73  1  0
 28 74  1  0
 28 75  1  0
 29 76  1  0
 29 77  1  0
 30 78  1  0
 30 79  1  0
 32 80  1  0
 32 81  1  0
 32 82  1  0
M  END
>  <meeko>  (7) 
{"is_sidechain": [false], "intermolecular_energy": 2.731, "internal_energy": -0.839}

$$$$
EPH_relaxed_0001_pdb2pqr_Repair_184_r2_0001_out
     RDKit          3D

 82 86  0  0  0  0  0  0  0  0999 V2000
    3.5090   17.9470   -1.5240 C   0  0  0  0  0  0  0  0  0  0  0  0
    2.4310   17.4800   -2.5060 C   0  0  2  0  0  0  0  0  0  0  0  0
    1.0240   17.9610   -2.0970 C   0  0  0  0  0  0  0  0  0  0  0  0
    1.0120   18.8210   -0.8300 C   0  0  0  0  0  0  0  0  0  0  0  0
   -0.2120   19.6830   -0.7580 C   0  0  2  0  0  0  0  0  0  0  0  0
   -0.5090   20.1920    0.5490 O   0  0  0  0  0  0  0  0  0  0  0  0
   -1.4720   19.2850   -0.0120 C   0  0  0  0  0  0  0  0  0  0  0  0
   -1.5720   17.9790    0.7110 C   0  0  0  0  0  0  0  0  0  0  0  0
   -2.7640   19.9380   -0.3920 C   0  0  0  0  0  0  0  0  0  0  0  0
    2.4510   15.9600   -2.6150 C   0  0  1  0  0  0  0  0  0  0  0  0
    3.8760   15.3970   -2.8640 C   0  0  0  0  0  0  0  0  0  0  0  0
    3.9600   14.0440   -2.1130 C   0  0  0  0  0  0  0  0  0  0  0  0
    2.4960   13.7140   -1.7390 C   0  0  1  0  0  0  0  0  0  0  0  0
    1.8790   13.1000   -3.0350 C   0  0  0  0  0  0  0  0  0  0  0  0
    2.2930   12.7770   -0.5030 C   0  0  2  0  0  0  0  0  0  0  0  0
    2.8780   11.3620   -0.6550 C   0  0  0  0  0  0  0  0  0  0  0  0
    1.9460   10.3440   -1.2250 C   0  0  0  0  0  0  0  0  0  0  0  0
    0.6110   10.4810   -1.3360 C   0  0  0  0  0  0  0  0  0  0  0  0
   -0.1040   11.7160   -0.7730 C   0  0  1  0  0  0  0  0  0  0  0  0
   -1.3570   11.2700    0.0250 C   0  0  0  0  0  0  0  0  0  0  0  0
   -2.2870   10.3810   -0.7950 C   0  0  0  0  0  0  0  0  0  0  0  0
   -1.5550    9.1350   -1.2880 C   0  0  2  0  0  0  0  0  0  0  0  0
   -1.2210    8.3200   -0.1610 O   0  0  0  0  0  0  0  0  0  0  0  0
   -0.2690    9.4610   -2.0980 C   0  0  0  0  0  0  0  0  0  0  0  0
   -0.6570   10.0780   -3.4650 C   0  0  0  0  0  0  0  0  0  0  0  0
    0.4470    8.1200   -2.4150 C   0  0  0  0  0  0  0  0  0  0  0  0
    0.8070   12.7340    0.0400 C   0  0  1  0  0  0  0  0  0  0  0  0
    0.8930   12.2950    1.5340 C   0  0  0  0  0  0  0  0  0  0  0  0
    0.1260   14.1530    0.0320 C   0  0  0  0  0  0  0  0  0  0  0  0
    0.4600   15.0780   -1.1540 C   0  0  0  0  0  0  0  0  0  0  0  0
    1.9730   15.1520   -1.3820 C   0  0  2  0  0  0  0  0  0  0  0  0
    2.6180   15.7870   -0.1030 C   0  0  0  0  0  0  0  0  0  0  0  0
    3.1568   17.7944   -0.4931 H   0  0  0  0  0  0  0  0  0  0  0  0
    4.4293   17.3669   -1.6867 H   0  0  0  0  0  0  0  0  0  0  0  0
    3.7153   19.0152   -1.6867 H   0  0  0  0  0  0  0  0  0  0  0  0
    2.6599   17.9261   -3.4851 H   0  0  0  0  0  0  0  0  0  0  0  0
    0.6059   18.5543   -2.9235 H   0  0  0  0  0  0  0  0  0  0  0  0
    0.4270   17.0626   -1.8816 H   0  0  0  0  0  0  0  0  0  0  0  0
    1.0355   18.1607    0.0495 H   0  0  0  0  0  0  0  0  0  0  0  0
    1.8939   19.4781   -0.8526 H   0  0  0  0  0  0  0  0  0  0  0  0
   -0.0451   20.0476   -1.7823 H   0  0  0  0  0  0  0  0  0  0  0  0
   -1.5582   18.1586    1.7961 H   0  0  0  0  0  0  0  0  0  0  0  0
   -2.5112   17.4776    0.4342 H   0  0  0  0  0  0  0  0  0  0  0  0
   -0.7201   17.3405    0.4342 H   0  0  0  0  0  0  0  0  0  0  0  0
   -3.3155   20.2167    0.5180 H   0  0  0  0  0  0  0  0  0  0  0  0
   -2.5579   20.8402   -0.9866 H   0  0  0  0  0  0  0  0  0  0  0  0
   -3.3682   19.2370   -0.9866 H   0  0  0  0  0  0  0  0  0  0  0  0
    1.7468   15.8263   -3.4494 H   0  0  0  0  0  0  0  0  0  0  0  0
    4.0397   15.2433   -3.9408 H   0  0  0  0  0  0  0  0  0  0  0  0
    4.6452   16.0964   -2.5047 H   0  0  0  0  0  0  0  0  0  0  0  0
    4.3797   13.2635   -2.7647 H   0  0  0  0  0  0  0  0  0  0  0  0
    4.6144   14.0967   -1.2304 H   0  0  0  0  0  0  0  0  0  0  0  0
    1.1238   12.3485   -2.7611 H   0  0  0  0  0  0  0  0  0  0  0  0
    1.4057   13.8961   -3.6285 H   0  0  0  0  0  0  0  0  0  0  0  0
    2.6727   12.6228   -3.6285 H   0  0  0  0  0  0  0  0  0  0  0  0
    2.9007   13.2697    0.2703 H   0  0  0  0  0  0  0  0  0  0  0  0
    3.7558   11.4263   -1.3148 H   0  0  0  0  0  0  0  0  0  0  0  0
    3.1160   11.0203    0.3631 H   0  0  0  0  0  0  0  0  0  0  0  0
    2.3872    9.4027   -1.5846 H   0  0  0  0  0  0  0  0  0  0  0  0
   -0.4098   12.3139   -1.6442 H   0  0  0  0  0  0  0  0  0  0  0  0
   -1.0286   10.7116    0.9140 H   0  0  0  0  0  0  0  0  0  0  0  0
   -1.9175   12.1756    0.3000 H   0  0  0  0  0  0  0  0  0  0  0  0
   -3.1376   10.0747   -0.1683 H   0  0  0  0  0  0  0  0  0  0  0  0
   -2.6384   10.9506   -1.6679 H   0  0  0  0  0  0  0  0  0  0  0  0
   -2.2315    8.6044   -1.9742 H   0  0  0  0  0  0  0  0  0  0  0  0
   -1.5900    8.7470    0.6310 H   0  0  0  0  0  0  0  0  0  0  0  0
   -1.2360   10.9987   -3.3006 H   0  0  0  0  0  0  0  0  0  0  0  0
    0.2551   10.3148   -4.0325 H   0  0  0  0  0  0  0  0  0  0  0  0
   -1.2656    9.3586   -4.0325 H   0  0  0  0  0  0  0  0  0  0  0  0
    0.7158    7.6166   -1.4746 H   0  0  0  0  0  0  0  0  0  0  0  0
   -0.2261    7.4737   -2.9975 H   0  0  0  0  0  0  0  0  0  0  0  0
    1.3585    8.3198   -2.9975 H   0  0  0  0  0  0  0  0  0  0  0  0
    0.7222   13.1668    2.1827 H   0  0  0  0  0  0  0  0  0  0  0  0
    0.1273   11.5316    1.7365 H   0  0  0  0  0  0  0  0  0  0  0  0
    1.8901   11.8770    1.7365 H   0  0  0  0  0  0  0  0  0  0  0  0
   -0.9632   13.9993    0.0375 H   0  0  0  0  0  0  0  0  0  0  0  0
    0.5238   14.6678    0.9190 H   0  0  0  0  0  0  0  0  0  0  0  0
   -0.0221   14.6871   -2.0622 H   0  0  0  0  0  0  0  0  0  0  0  0
    0.0897   16.0884   -0.9261 H   0  0  0  0  0  0  0  0  0  0  0  0
    2.1657   15.3417    0.7954 H   0  0  0  0  0  0  0  0  0  0  0  0
    3.7007   15.5925   -0.1032 H   0  0  0  0  0  0  0  0  0  0  0  0
    2.4405   16.8726   -0.1032 H   0  0  0  0  0  0  0  0  0  0  0  0
  1  2  1  0
  2  3  1  0
  3  4  1  0
  4  5  1  0
  5  6  1  0
  6  7  1  0
  7  8  1  0
  7  9  1  0
  2 10  1  0
 10 11  1  0
 11 12  1  0
 12 13  1  0
 13 14  1  6
 13 15  1  0
 15 16  1  0
 16 17  1  0
 17 18  2  0
 18 19  1  0
 19 20  1  0
 20 21  1  0
 21 22  1  0
 22 23  1  0
 22 24  1  0
 24 25  1  0
 24 26  1  0
 19 27  1  0
 27 28  1  1
 27 29  1  0
 29 30  1  0
 30 31  1  0
 31 32  1  1
  7  5  1  0
 31 10  1  0
 31 13  1  0
 27 15  1  0
 24 18  1  0
  1 33  1  0
  1 34  1  0
  1 35  1  0
  2 36  1  6
  3 37  1  0
  3 38  1  0
  4 39  1  0
  4 40  1  0
  5 41  1  6
  8 42  1  0
  8 43  1  0
  8 44  1  0
  9 45  1  0
  9 46  1  0
  9 47  1  0
 10 48  1  6
 11 49  1  0
 11 50  1  0
 12 51  1  0
 12 52  1  0
 14 53  1  0
 14 54  1  0
 14 55  1  0
 15 56  1  1
 16 57  1  0
 16 58  1  0
 17 59  1  0
 19 60  1  6
 20 61  1  0
 20 62  1  0
 21 63  1  0
 21 64  1  0
 22 65  1  6
 23 66  1  0
 25 67  1  0
 25 68  1  0
 25 69  1  0
 26 70  1  0
 26 71  1  0
 26 72  1  0
 28 73  1  0
 28 74  1  0
 28 75  1  0
 29 76  1  0
 29 77  1  0
 30 78  1  0
 30 79  1  0
 32 80  1  0
 32 81  1  0
 32 82  1  0
M  END
>  <meeko>  (8) 
{"is_sidechain": [false], "intermolecular_energy": 2.731, "internal_energy": -0.839}

$$$$
EPH_relaxed_0001_pdb2pqr_Repair_184_r2_0001_out
     RDKit          3D

 82 86  0  0  0  0  0  0  0  0999 V2000
   -3.2650    7.4620   -3.0690 C   0  0  0  0  0  0  0  0  0  0  0  0
   -3.2930    7.6860   -1.5550 C   0  0  2  0  0  0  0  0  0  0  0  0
   -4.7210    7.5930   -0.9800 C   0  0  0  0  0  0  0  0  0  0  0  0
   -5.7600    7.1010   -1.9910 C   0  0  0  0  0  0  0  0  0  0  0  0
   -7.1590    7.3430   -1.5100 C   0  0  2  0  0  0  0  0  0  0  0  0
   -7.8610    6.1650   -1.0940 O   0  0  0  0  0  0  0  0  0  0  0  0
   -8.3930    6.8470   -2.2410 C   0  0  0  0  0  0  0  0  0  0  0  0
   -8.2850    6.0700   -3.5150 C   0  0  0  0  0  0  0  0  0  0  0  0
   -9.7000    7.5300   -1.9840 C   0  0  0  0  0  0  0  0  0  0  0  0
   -2.6830    9.0410   -1.2180 C   0  0  1  0  0  0  0  0  0  0  0  0
   -3.1600    9.5870    0.1540 C   0  0  0  0  0  0  0  0  0  0  0  0
   -1.9620   10.3540    0.7710 C   0  0  0  0  0  0  0  0  0  0  0  0
   -0.9570   10.5090   -0.3930 C   0  0  1  0  0  0  0  0  0  0  0  0
   -1.4780   11.7300   -1.2140 C   0  0  0  0  0  0  0  0  0  0  0  0
    0.5440   10.6820    0.0080 C   0  0  2  0  0  0  0  0  0  0  0  0
    0.8590   11.9450    0.8300 C   0  0  0  0  0  0  0  0  0  0  0  0
    1.2250   13.1510    0.0310 C   0  0  0  0  0  0  0  0  0  0  0  0
    1.5760   13.1510   -1.2690 C   0  0  0  0  0  0  0  0  0  0  0  0
    1.7250   11.8360   -2.0450 C   0  0  1  0  0  0  0  0  0  0  0  0
    3.0450   11.8630   -2.8600 C   0  0  0  0  0  0  0  0  0  0  0  0
    3.1500   13.0880   -3.7620 C   0  0  0  0  0  0  0  0  0  0  0  0
    3.0560   14.3760   -2.9480 C   0  0  2  0  0  0  0  0  0  0  0  0
    4.2110   14.4770   -2.1090 O   0  0  0  0  0  0  0  0  0  0  0  0
    1.7700   14.4580   -2.0780 C   0  0  0  0  0  0  0  0  0  0  0  0
    0.5350   14.6520   -2.9920 C   0  0  0  0  0  0  0  0  0  0  0  0
    1.8670   15.7350   -1.2010 C   0  0  0  0  0  0  0  0  0  0  0  0
    1.5610   10.5060   -1.1920 C   0  0  1  0  0  0  0  0  0  0  0  0
    2.9300   10.1070   -0.5600 C   0  0  0  0  0  0  0  0  0  0  0  0
    1.1540    9.3260   -2.1520 C   0  0  0  0  0  0  0  0  0  0  0  0
   -0.3510    9.1320   -2.4150 C   0  0  0  0  0  0  0  0  0  0  0  0
   -1.1400    9.1180   -1.1020 C   0  0  2  0  0  0  0  0  0  0  0  0
   -0.6530    7.8860   -0.2650 C   0  0  0  0  0  0  0  0  0  0  0  0
   -3.1311    6.3905   -3.2787 H   0  0  0  0  0  0  0  0  0  0  0  0
   -4.2131    7.8059   -3.5081 H   0  0  0  0  0  0  0  0  0  0  0  0
   -2.4307    8.0287   -3.5081 H   0  0  0  0  0  0  0  0  0  0  0  0
   -2.6979    6.8853   -1.0916 H   0  0  0  0  0  0  0  0  0  0  0  0
   -4.7080    6.8967   -0.1285 H   0  0  0  0  0  0  0  0  0  0  0  0
   -5.0160    8.6108   -0.6850 H   0  0  0  0  0  0  0  0  0  0  0  0
   -5.6126    7.6341   -2.9418 H   0  0  0  0  0  0  0  0  0  0  0  0
   -5.6249    6.0172   -2.1219 H   0  0  0  0  0  0  0  0  0  0  0  0
   -6.8794    8.3338   -1.1226 H   0  0  0  0  0  0  0  0  0  0  0  0
   -8.1370    5.0049   -3.2834 H   0  0  0  0  0  0  0  0  0  0  0  0
   -9.2089    6.1933   -4.0991 H   0  0  0  0  0  0  0  0  0  0  0  0
   -7.4297    6.4406   -4.0991 H   0  0  0  0  0  0  0  0  0  0  0  0
   -9.8623    7.6148   -0.8994 H   0  0  0  0  0  0  0  0  0  0  0  0
   -9.6831    8.5345   -2.4319 H   0  0  0  0  0  0  0  0  0  0  0  0
  -10.5150    6.9425   -2.4319 H   0  0  0  0  0  0  0  0  0  0  0  0
   -3.0238    9.6177   -2.0905 H   0  0  0  0  0  0  0  0  0  0  0  0
   -4.0139   10.2665    0.0152 H   0  0  0  0  0  0  0  0  0  0  0  0
   -3.4868    8.7689    0.8127 H   0  0  0  0  0  0  0  0  0  0  0  0
   -2.2812   11.3391    1.1422 H   0  0  0  0  0  0  0  0  0  0  0  0
   -1.5259    9.8244    1.6309 H   0  0  0  0  0  0  0  0  0  0  0  0
   -1.8145   12.5186   -0.5248 H   0  0  0  0  0  0  0  0  0  0  0  0
   -0.6673   12.1185   -1.8479 H   0  0  0  0  0  0  0  0  0  0  0  0
   -2.3194   11.4135   -1.8479 H   0  0  0  0  0  0  0  0  0  0  0  0
    0.7042    9.8335    0.6895 H   0  0  0  0  0  0  0  0  0  0  0  0
   -0.0302   12.1912    1.4290 H   0  0  0  0  0  0  0  0  0  0  0  0
    1.7444   11.7010    1.4354 H   0  0  0  0  0  0  0  0  0  0  0  0
    1.2065   14.1220    0.5476 H   0  0  0  0  0  0  0  0  0  0  0  0
    0.8651   11.7867   -2.7292 H   0  0  0  0  0  0  0  0  0  0  0  0
    3.8924   11.8678   -2.1587 H   0  0  0  0  0  0  0  0  0  0  0  0
    3.0580   10.9716   -3.5044 H   0  0  0  0  0  0  0  0  0  0  0  0
    4.1153   13.0651   -4.2890 H   0  0  0  0  0  0  0  0  0  0  0  0
    2.3179   13.0662   -4.4811 H   0  0  0  0  0  0  0  0  0  0  0  0
    3.0078   15.2132   -3.6599 H   0  0  0  0  0  0  0  0  0  0  0  0
    3.9020   14.5870   -1.1940 H   0  0  0  0  0  0  0  0  0  0  0  0
   -0.3621   14.7929   -2.3712 H   0  0  0  0  0  0  0  0  0  0  0  0
    0.6843   15.5377   -3.6270 H   0  0  0  0  0  0  0  0  0  0  0  0
    0.4056   13.7632   -3.6270 H   0  0  0  0  0  0  0  0  0  0  0  0
    1.8455   15.4524   -0.1381 H   0  0  0  0  0  0  0  0  0  0  0  0
    2.8077   16.2608   -1.4217 H   0  0  0  0  0  0  0  0  0  0  0  0
    1.0165   16.3968   -1.4217 H   0  0  0  0  0  0  0  0  0  0  0  0
    2.8484   10.1308    0.5367 H   0  0  0  0  0  0  0  0  0  0  0  0
    3.2022    9.0921   -0.8855 H   0  0  0  0  0  0  0  0  0  0  0  0
    3.7049   10.8167   -0.8855 H   0  0  0  0  0  0  0  0  0  0  0  0
    1.6412    9.5033   -3.1222 H   0  0  0  0  0  0  0  0  0  0  0  0
    1.4761    8.4102   -1.6347 H   0  0  0  0  0  0  0  0  0  0  0  0
   -0.7154    9.9568   -3.0450 H   0  0  0  0  0  0  0  0  0  0  0  0
   -0.4968    8.1667   -2.9220 H   0  0  0  0  0  0  0  0  0  0  0  0
   -0.7427    8.1129    0.8076 H   0  0  0  0  0  0  0  0  0  0  0  0
   -1.2725    7.0100   -0.5075 H   0  0  0  0  0  0  0  0  0  0  0  0
    0.3980    7.6703   -0.5075 H   0  0  0  0  0  0  0  0  0  0  0  0
  1  2  1  0
  2  3  1  0
  3  4  1  0
  4  5  1  0
  5  6  1  0
  6  7  1  0
  7  8  1  0
  7  9  1  0
  2 10  1  0
 10 11  1  0
 11 12  1  0
 12 13  1  0
 13 14  1  6
 13 15  1  0
 15 16  1  0
 16 17  1  0
 17 18  2  0
 18 19  1  0
 19 20  1  0
 20 21  1  0
 21 22  1  0
 22 23  1  0
 22 24  1  0
 24 25  1  0
 24 26  1  0
 19 27  1  0
 27 28  1  1
 27 29  1  0
 29 30  1  0
 30 31  1  0
 31 32  1  1
  7  5  1  0
 31 10  1  0
 31 13  1  0
 27 15  1  0
 24 18  1  0
  1 33  1  0
  1 34  1  0
  1 35  1  0
  2 36  1  1
  3 37  1  0
  3 38  1  0
  4 39  1  0
  4 40  1  0
  5 41  1  1
  8 42  1  0
  8 43  1  0
  8 44  1  0
  9 45  1  0
  9 46  1  0
  9 47  1  0
 10 48  1  6
 11 49  1  0
 11 50  1  0
 12 51  1  0
 12 52  1  0
 14 53  1  0
 14 54  1  0
 14 55  1  0
 15 56  1  1
 16 57  1  0
 16 58  1  0
 17 59  1  0
 19 60  1  6
 20 61  1  0
 20 62  1  0
 21 63  1  0
 21 64  1  0
 22 65  1  6
 23 66  1  0
 25 67  1  0
 25 68  1  0
 25 69  1  0
 26 70  1  0
 26 71  1  0
 26 72  1  0
 28 73  1  0
 28 74  1  0
 28 75  1  0
 29 76  1  0
 29 77  1  0
 30 78  1  0
 30 79  1  0
 32 80  1  0
 32 81  1  0
 32 82  1  0
M  END
>  <meeko>  (9) 
{"is_sidechain": [false], "intermolecular_energy": 2.731, "internal_energy": -0.839}

$$$$
EPH_relaxed_0001_pdb2pqr_Repair_184_r2_0001_out
     RDKit          3D

 82 86  0  0  0  0  0  0  0  0999 V2000
    1.0710    8.6730   -0.4480 C   0  0  0  0  0  0  0  0  0  0  0  0
   -0.0220    9.4450   -1.1920 C   0  0  2  0  0  0  0  0  0  0  0  0
   -0.7620    8.5630   -2.2170 C   0  0  0  0  0  0  0  0  0  0  0  0
   -2.2520    8.3850   -1.9130 C   0  0  0  0  0  0  0  0  0  0  0  0
   -2.8310    7.2100   -2.6420 C   0  0  2  0  0  0  0  0  0  0  0  0
   -3.8800    7.5350   -3.5630 O   0  0  0  0  0  0  0  0  0  0  0  0
   -4.2520    6.7170   -2.4410 C   0  0  0  0  0  0  0  0  0  0  0  0
   -5.1820    7.3890   -1.4810 C   0  0  0  0  0  0  0  0  0  0  0  0
   -4.5770    5.3030   -2.8080 C   0  0  0  0  0  0  0  0  0  0  0  0
    0.5820   10.6580   -1.8900 C   0  0  1  0  0  0  0  0  0  0  0  0
    0.1590   10.7630   -3.3790 C   0  0  0  0  0  0  0  0  0  0  0  0
    0.0280   12.2740   -3.7020 C   0  0  0  0  0  0  0  0  0  0  0  0
    0.6940   12.9880   -2.5030 C   0  0  1  0  0  0  0  0  0  0  0  0
    2.2250   12.9290   -2.8010 C   0  0  0  0  0  0  0  0  0  0  0  0
    0.2170   14.4490   -2.2180 C   0  0  2  0  0  0  0  0  0  0  0  0
    0.4960   15.4590   -3.3450 C   0  0  0  0  0  0  0  0  0  0  0  0
    1.8070   16.1680   -3.2560 C   0  0  0  0  0  0  0  0  0  0  0  0
    2.5980   16.2160   -2.1680 C   0  0  0  0  0  0  0  0  0  0  0  0
    2.1480   15.5950   -0.8390 C   0  0  1  0  0  0  0  0  0  0  0  0
    2.4200   16.5920    0.3170 C   0  0  0  0  0  0  0  0  0  0  0  0
    3.8710   17.0640    0.3550 C   0  0  0  0  0  0  0  0  0  0  0  0
    4.2620   17.7280   -0.9630 C   0  0  2  0  0  0  0  0  0  0  0  0
    3.5190   18.9420   -1.1050 O   0  0  0  0  0  0  0  0  0  0  0  0
    4.0230   16.8200   -2.2020 C   0  0  0  0  0  0  0  0  0  0  0  0
    5.0440   15.6560   -2.1990 C   0  0  0  0  0  0  0  0  0  0  0  0
    4.3250   17.6590   -3.4730 C   0  0  0  0  0  0  0  0  0  0  0  0
    0.6690   15.0150   -0.8100 C   0  0  1  0  0  0  0  0  0  0  0  0
   -0.3390   16.1470   -0.4420 C   0  0  0  0  0  0  0  0  0  0  0  0
    0.5610   13.9360    0.3310 C   0  0  0  0  0  0  0  0  0  0  0  0
    0.9320   12.4890   -0.0450 C   0  0  0  0  0  0  0  0  0  0  0  0
    0.2180   12.0560   -1.3290 C   0  0  2  0  0  0  0  0  0  0  0  0
   -1.3240   12.0840   -1.0530 C   0  0  0  0  0  0  0  0  0  0  0  0
    0.9211    8.7789    0.6366 H   0  0  0  0  0  0  0  0  0  0  0  0
    1.0204    7.6091   -0.7230 H   0  0  0  0  0  0  0  0  0  0  0  0
    2.0567    9.0764   -0.7230 H   0  0  0  0  0  0  0  0  0  0  0  0
   -0.7602    9.7738   -0.4457 H   0  0  0  0  0  0  0  0  0  0  0  0
   -0.6630    9.0264   -3.2097 H   0  0  0  0  0  0  0  0  0  0  0  0
   -0.3031    7.5643   -2.1727 H   0  0  0  0  0  0  0  0  0  0  0  0
   -2.3790    8.2311   -0.8313 H   0  0  0  0  0  0  0  0  0  0  0  0
   -2.7803    9.2899   -2.2476 H   0  0  0  0  0  0  0  0  0  0  0  0
   -1.8611    6.6913   -2.6240 H   0  0  0  0  0  0  0  0  0  0  0  0
   -4.8705    7.1639   -0.4503 H   0  0  0  0  0  0  0  0  0  0  0  0
   -5.1536    8.4766   -1.6434 H   0  0  0  0  0  0  0  0  0  0  0  0
   -6.2057    7.0206   -1.6434 H   0  0  0  0  0  0  0  0  0  0  0  0
   -4.7136    4.7087   -1.8925 H   0  0  0  0  0  0  0  0  0  0  0  0
   -5.5035    5.2817   -3.4006 H   0  0  0  0  0  0  0  0  0  0  0  0
   -3.7528    4.8793   -3.4006 H   0  0  0  0  0  0  0  0  0  0  0  0
    1.6499   10.4524   -1.7248 H   0  0  0  0  0  0  0  0  0  0  0  0
    0.9229   10.3029   -4.0230 H   0  0  0  0  0  0  0  0  0  0  0  0
   -0.7907   10.2374   -3.5576 H   0  0  0  0  0  0  0  0  0  0  0  0
    0.5510   12.5177   -4.6385 H   0  0  0  0  0  0  0  0  0  0  0  0
   -1.0188   12.5816   -3.8418 H   0  0  0  0  0  0  0  0  0  0  0  0
    2.7825   12.9075   -1.8530 H   0  0  0  0  0  0  0  0  0  0  0  0
    2.4511   12.0215   -3.3800 H   0  0  0  0  0  0  0  0  0  0  0  0
    2.5203   13.8164   -3.3800 H   0  0  0  0  0  0  0  0  0  0  0  0
   -0.8767   14.3369   -2.1819 H   0  0  0  0  0  0  0  0  0  0  0  0
    0.4669   14.9172   -4.3019 H   0  0  0  0  0  0  0  0  0  0  0  0
   -0.2770   16.2364   -3.2552 H   0  0  0  0  0  0  0  0  0  0  0  0
    2.1560   16.6958   -4.1558 H   0  0  0  0  0  0  0  0  0  0  0  0
    2.7599   14.6910   -0.7035 H   0  0  0  0  0  0  0  0  0  0  0  0
    1.7677   17.4682    0.1875 H   0  0  0  0  0  0  0  0  0  0  0  0
    2.2144   16.0698    1.2630 H   0  0  0  0  0  0  0  0  0  0  0  0
    3.9928   17.7887    1.1735 H   0  0  0  0  0  0  0  0  0  0  0  0
    4.5207   16.1910    0.5153 H   0  0  0  0  0  0  0  0  0  0  0  0
    5.3433   17.9261   -0.9246 H   0  0  0  0  0  0  0  0  0  0  0  0
    2.8560   18.8010   -1.8020 H   0  0  0  0  0  0  0  0  0  0  0  0
    5.2845   15.3819   -1.1612 H   0  0  0  0  0  0  0  0  0  0  0  0
    4.6112   14.7873   -2.7168 H   0  0  0  0  0  0  0  0  0  0  0  0
    5.9617   15.9718   -2.7168 H   0  0  0  0  0  0  0  0  0  0  0  0
    4.6839   18.6560   -3.1775 H   0  0  0  0  0  0  0  0  0  0  0  0
    5.0976   17.1536   -4.0710 H   0  0  0  0  0  0  0  0  0  0  0  0
    3.4075   17.7619   -4.0710 H   0  0  0  0  0  0  0  0  0  0  0  0
   -0.4132   16.2304    0.6523 H   0  0  0  0  0  0  0  0  0  0  0  0
    0.0134   17.1018   -0.8594 H   0  0  0  0  0  0  0  0  0  0  0  0
   -1.3281   15.9072   -0.8594 H   0  0  0  0  0  0  0  0  0  0  0  0
    1.2268   14.2486    1.1489 H   0  0  0  0  0  0  0  0  0  0  0  0
   -0.5065   13.9007    0.5941 H   0  0  0  0  0  0  0  0  0  0  0  0
    2.0193   12.4246   -0.1987 H   0  0  0  0  0  0  0  0  0  0  0  0
    0.6186   11.8229    0.7723 H   0  0  0  0  0  0  0  0  0  0  0  0
   -1.5022   12.0872    0.0325 H   0  0  0  0  0  0  0  0  0  0  0  0
   -1.7599   12.9902   -1.4988 H   0  0  0  0  0  0  0  0  0  0  0  0
   -1.7925   11.1942   -1.4988 H   0  0  0  0  0  0  0  0  0  0  0  0
  1  2  1  0
  2  3  1  0
  3  4  1  0
  4  5  1  0
  5  6  1  0
  6  7  1  0
  7  8  1  0
  7  9  1  0
  2 10  1  0
 10 11  1  0
 11 12  1  0
 12 13  1  0
 13 14  1  6
 13 15  1  0
 15 16  1  0
 16 17  1  0
 17 18  2  0
 18 19  1  0
 19 20  1  0
 20 21  1  0
 21 22  1  0
 22 23  1  0
 22 24  1  0
 24 25  1  0
 24 26  1  0
 19 27  1  0
 27 28  1  1
 27 29  1  0
 29 30  1  0
 30 31  1  0
 31 32  1  1
  7  5  1  0
 31 10  1  0
 31 13  1  0
 27 15  1  0
 24 18  1  0
  1 33  1  0
  1 34  1  0
  1 35  1  0
  2 36  1  1
  3 37  1  0
  3 38  1  0
  4 39  1  0
  4 40  1  0
  5 41  1  6
  8 42  1  0
  8 43  1  0
  8 44  1  0
  9 45  1  0
  9 46  1  0
  9 47  1  0
 10 48  1  6
 11 49  1  0
 11 50  1  0
 12 51  1  0
 12 52  1  0
 14 53  1  0
 14 54  1  0
 14 55  1  0
 15 56  1  1
 16 57  1  0
 16 58  1  0
 17 59  1  0
 19 60  1  1
 20 61  1  0
 20 62  1  0
 21 63  1  0
 21 64  1  0
 22 65  1  1
 23 66  1  0
 25 67  1  0
 25 68  1  0
 25 69  1  0
 26 70  1  0
 26 71  1  0
 26 72  1  0
 28 73  1  0
 28 74  1  0
 28 75  1  0
 29 76  1  0
 29 77  1  0
 30 78  1  0
 30 79  1  0
 32 80  1  0
 32 81  1  0
 32 82  1  0
M  END
>  <meeko>  (10) 
{"is_sidechain": [false], "intermolecular_energy": 2.731, "internal_energy": -0.839}

$$$$
EPH_relaxed_0001_pdb2pqr_Repair_184_r2_0001_out
     RDKit          3D

 82 86  0  0  0  0  0  0  0  0999 V2000
    0.0900   10.3190   -3.5650 C   0  0  0  0  0  0  0  0  0  0  0  0
    1.1140   10.1530   -2.4390 C   0  0  2  0  0  0  0  0  0  0  0  0
    0.8390    8.9000   -1.5840 C   0  0  0  0  0  0  0  0  0  0  0  0
    0.0870    9.1950   -0.2840 C   0  0  0  0  0  0  0  0  0  0  0  0
   -1.3410    8.7430   -0.3540 C   0  0  2  0  0  0  0  0  0  0  0  0
   -1.9380    8.8470   -1.6530 O   0  0  0  0  0  0  0  0  0  0  0  0
   -2.5020    9.6810   -0.6270 C   0  0  0  0  0  0  0  0  0  0  0  0
   -2.2880   11.1450   -0.8470 C   0  0  0  0  0  0  0  0  0  0  0  0
   -3.8740    9.2640   -0.1980 C   0  0  0  0  0  0  0  0  0  0  0  0
    1.1220   11.3950   -1.5560 C   0  0  1  0  0  0  0  0  0  0  0  0
    1.9840   11.2130   -0.2780 C   0  0  0  0  0  0  0  0  0  0  0  0
    2.6340   12.5880    0.0220 C   0  0  0  0  0  0  0  0  0  0  0  0
    1.8740   13.5850   -0.8840 C   0  0  1  0  0  0  0  0  0  0  0  0
    0.5530   13.9000   -0.1130 C   0  0  0  0  0  0  0  0  0  0  0  0
    2.6410   14.8910   -1.2710 C   0  0  2  0  0  0  0  0  0  0  0  0
    3.0150   15.8030   -0.0890 C   0  0  0  0  0  0  0  0  0  0  0  0
    2.0000   16.8390    0.2620 C   0  0  0  0  0  0  0  0  0  0  0  0
    0.9680   17.2190   -0.5140 C   0  0  0  0  0  0  0  0  0  0  0  0
    0.8000   16.6560   -1.9310 C   0  0  1  0  0  0  0  0  0  0  0  0
    0.4930   17.8150   -2.9160 C   0  0  0  0  0  0  0  0  0  0  0  0
   -0.7030   18.6540   -2.4760 C   0  0  0  0  0  0  0  0  0  0  0  0
   -0.4730   19.2440   -1.0870 C   0  0  2  0  0  0  0  0  0  0  0  0
    0.5940   20.1940   -1.1600 O   0  0  0  0  0  0  0  0  0  0  0  0
   -0.1450   18.1710   -0.0120 C   0  0  0  0  0  0  0  0  0  0  0  0
   -1.4090   17.3270    0.2840 C   0  0  0  0  0  0  0  0  0  0  0  0
    0.2030   18.9090    1.3090 C   0  0  0  0  0  0  0  0  0  0  0  0
    1.9710   15.7130   -2.4460 C   0  0  1  0  0  0  0  0  0  0  0  0
    3.1020   16.5710   -3.0900 C   0  0  0  0  0  0  0  0  0  0  0  0
    1.4170   14.7800   -3.5870 C   0  0  0  0  0  0  0  0  0  0  0  0
    0.7770   13.4500   -3.1480 C   0  0  0  0  0  0  0  0  0  0  0  0
    1.6870   12.7000   -2.1690 C   0  0  2  0  0  0  0  0  0  0  0  0
    3.0150   12.3510   -2.9230 C   0  0  0  0  0  0  0  0  0  0  0  0
   -0.9081   10.4808   -3.1320 H   0  0  0  0  0  0  0  0  0  0  0  0
    0.3649   11.1843   -4.1860 H   0  0  0  0  0  0  0  0  0  0  0  0
    0.0775    9.4112   -4.1860 H   0  0  0  0  0  0  0  0  0  0  0  0
    2.1013   10.0232   -2.9064 H   0  0  0  0  0  0  0  0  0  0  0  0
    0.2387    8.1974   -2.1806 H   0  0  0  0  0  0  0  0  0  0  0  0
    1.8168    8.4824   -1.3020 H   0  0  0  0  0  0  0  0  0  0  0  0
    0.5867    8.6704    0.5437 H   0  0  0  0  0  0  0  0  0  0  0  0
    0.0945   10.2831   -0.1231 H   0  0  0  0  0  0  0  0  0  0  0  0
   -1.1677    7.9930    0.4318 H   0  0  0  0  0  0  0  0  0  0  0  0
   -2.2135   11.6548    0.1249 H   0  0  0  0  0  0  0  0  0  0  0  0
   -1.3579   11.2985   -1.4138 H   0  0  0  0  0  0  0  0  0  0  0  0
   -3.1353   11.5583   -1.4138 H   0  0  0  0  0  0  0  0  0  0  0  0
   -3.9257    9.2483    0.9007 H   0  0  0  0  0  0  0  0  0  0  0  0
   -4.6135    9.9780   -0.5897 H   0  0  0  0  0  0  0  0  0  0  0  0
   -4.0911    8.2593   -0.5897 H   0  0  0  0  0  0  0  0  0  0  0  0
    0.0419   11.5007   -1.3766 H   0  0  0  0  0  0  0  0  0  0  0  0
    1.3502   10.9015    0.5653 H   0  0  0  0  0  0  0  0  0  0  0  0
    2.7501   10.4375   -0.4252 H   0  0  0  0  0  0  0  0  0  0  0  0
    2.5089   12.8536    1.0821 H   0  0  0  0  0  0  0  0  0  0  0  0
    3.7166   12.5890   -0.1730 H   0  0  0  0  0  0  0  0  0  0  0  0
    0.7409   13.8552    0.9699 H   0  0  0  0  0  0  0  0  0  0  0  0
    0.2021   14.9070   -0.3829 H   0  0  0  0  0  0  0  0  0  0  0  0
   -0.2145   13.1597   -0.3829 H   0  0  0  0  0  0  0  0  0  0  0  0
    3.5928   14.4988   -1.6586 H   0  0  0  0  0  0  0  0  0  0  0  0
    3.1715   15.1671    0.7948 H   0  0  0  0  0  0  0  0  0  0  0  0
    3.9155   16.3523   -0.4011 H   0  0  0  0  0  0  0  0  0  0  0  0
    2.1041   17.3346    1.2385 H   0  0  0  0  0  0  0  0  0  0  0  0
   -0.0570   15.9680   -1.8846 H   0  0  0  0  0  0  0  0  0  0  0  0
    1.3767   18.4668   -2.9802 H   0  0  0  0  0  0  0  0  0  0  0  0
    0.2479   17.3690   -3.8912 H   0  0  0  0  0  0  0  0  0  0  0  0
   -0.8524   19.4730   -3.1950 H   0  0  0  0  0  0  0  0  0  0  0  0
   -1.5920   18.0072   -2.4403 H   0  0  0  0  0  0  0  0  0  0  0  0
   -1.4115   19.7246   -0.7738 H   0  0  0  0  0  0  0  0  0  0  0  0
    1.0720   20.0370   -1.9930 H   0  0  0  0  0  0  0  0  0  0  0  0
   -1.5434   17.2372    1.3721 H   0  0  0  0  0  0  0  0  0  0  0  0
   -2.2895   17.8190   -0.1549 H   0  0  0  0  0  0  0  0  0  0  0  0
   -1.2920   16.3252   -0.1549 H   0  0  0  0  0  0  0  0  0  0  0  0
   -0.0911   18.2852    2.1659 H   0  0  0  0  0  0  0  0  0  0  0  0
    1.2857   19.0993    1.3485 H   0  0  0  0  0  0  0  0  0  0  0  0
   -0.3390   19.8654    1.3485 H   0  0  0  0  0  0  0  0  0  0  0  0
    3.7094   17.0318   -2.2970 H   0  0  0  0  0  0  0  0  0  0  0  0
    3.7402   15.9278   -3.7137 H   0  0  0  0  0  0  0  0  0  0  0  0
    2.6545   17.3589   -3.7137 H   0  0  0  0  0  0  0  0  0  0  0  0
    0.6557   15.3485   -4.1412 H   0  0  0  0  0  0  0  0  0  0  0  0
    2.2995   14.4932   -4.1776 H   0  0  0  0  0  0  0  0  0  0  0  0
   -0.1852   13.6584   -2.6573 H   0  0  0  0  0  0  0  0  0  0  0  0
    0.6271   12.8221   -4.0387 H   0  0  0  0  0  0  0  0  0  0  0  0
    3.8086   12.1424   -2.1904 H   0  0  0  0  0  0  0  0  0  0  0  0
    2.8562   11.4641   -3.5540 H   0  0  0  0  0  0  0  0  0  0  0  0
    3.3127   13.2014   -3.5540 H   0  0  0  0  0  0  0  0  0  0  0  0
  1  2  1  0
  2  3  1  0
  3  4  1  0
  4  5  1  0
  5  6  1  0
  6  7  1  0
  7  8  1  0
  7  9  1  0
  2 10  1  0
 10 11  1  0
 11 12  1  0
 12 13  1  0
 13 14  1  1
 13 15  1  0
 15 16  1  0
 16 17  1  0
 17 18  2  0
 18 19  1  0
 19 20  1  0
 20 21  1  0
 21 22  1  0
 22 23  1  0
 22 24  1  0
 24 25  1  0
 24 26  1  0
 19 27  1  0
 27 28  1  6
 27 29  1  0
 29 30  1  0
 30 31  1  0
 31 32  1  6
  7  5  1  0
 31 10  1  0
 31 13  1  0
 27 15  1  0
 24 18  1  0
  1 33  1  0
  1 34  1  0
  1 35  1  0
  2 36  1  6
  3 37  1  0
  3 38  1  0
  4 39  1  0
  4 40  1  0
  5 41  1  1
  8 42  1  0
  8 43  1  0
  8 44  1  0
  9 45  1  0
  9 46  1  0
  9 47  1  0
 10 48  1  1
 11 49  1  0
 11 50  1  0
 12 51  1  0
 12 52  1  0
 14 53  1  0
 14 54  1  0
 14 55  1  0
 15 56  1  6
 16 57  1  0
 16 58  1  0
 17 59  1  0
 19 60  1  1
 20 61  1  0
 20 62  1  0
 21 63  1  0
 21 64  1  0
 22 65  1  1
 23 66  1  0
 25 67  1  0
 25 68  1  0
 25 69  1  0
 26 70  1  0
 26 71  1  0
 26 72  1  0
 28 73  1  0
 28 74  1  0
 28 75  1  0
 29 76  1  0
 29 77  1  0
 30 78  1  0
 30 79  1  0
 32 80  1  0
 32 81  1  0
 32 82  1  0
M  END
>  <meeko>  (11) 
{"is_sidechain": [false], "intermolecular_energy": 2.731, "internal_energy": -0.839}

$$$$
EPH_relaxed_0001_pdb2pqr_Repair_184_r2_0001_out
     RDKit          3D

 82 86  0  0  0  0  0  0  0  0999 V2000
    0.4580    9.1630   -2.7050 C   0  0  0  0  0  0  0  0  0  0  0  0
    1.2390   10.3550   -3.2670 C   0  0  2  0  0  0  0  0  0  0  0  0
    2.7210   10.3310   -2.8430 C   0  0  0  0  0  0  0  0  0  0  0  0
    3.6900   10.6930   -3.9720 C   0  0  0  0  0  0  0  0  0  0  0  0
    5.0920   10.8570   -3.4670 C   0  0  2  0  0  0  0  0  0  0  0  0
    5.7440   12.0610   -3.8920 O   0  0  0  0  0  0  0  0  0  0  0  0
    6.3130   10.8300   -4.3670 C   0  0  0  0  0  0  0  0  0  0  0  0
    6.1890   10.6330   -5.8450 C   0  0  0  0  0  0  0  0  0  0  0  0
    7.6420   10.5070   -3.7600 C   0  0  0  0  0  0  0  0  0  0  0  0
    0.5900   11.6590   -2.8180 C   0  0  1  0  0  0  0  0  0  0  0  0
   -0.6370   11.4300   -1.8960 C   0  0  0  0  0  0  0  0  0  0  0  0
   -0.6450   12.5880   -0.8650 C   0  0  0  0  0  0  0  0  0  0  0  0
    0.3670   13.6150   -1.4250 C   0  0  1  0  0  0  0  0  0  0  0  0
   -0.4260   14.4080   -2.5110 C   0  0  0  0  0  0  0  0  0  0  0  0
    1.0300   14.5720   -0.3810 C   0  0  2  0  0  0  0  0  0  0  0  0
    0.0560   15.5020    0.3620 C   0  0  0  0  0  0  0  0  0  0  0  0
   -0.1780   16.8280   -0.2850 C   0  0  0  0  0  0  0  0  0  0  0  0
    0.5800   17.3680   -1.2570 C   0  0  0  0  0  0  0  0  0  0  0  0
    1.8610   16.6730   -1.7360 C   0  0  1  0  0  0  0  0  0  0  0  0
    3.0100   17.7110   -1.8280 C   0  0  0  0  0  0  0  0  0  0  0  0
    2.6420   18.9150   -2.6900 C   0  0  0  0  0  0  0  0  0  0  0  0
    1.3980   19.6140   -2.1490 C   0  0  2  0  0  0  0  0  0  0  0  0
    1.7110   20.1940   -0.8790 O   0  0  0  0  0  0  0  0  0  0  0  0
    0.1760   18.6640   -2.0020 C   0  0  0  0  0  0  0  0  0  0  0  0
   -0.3500   18.2740   -3.4060 C   0  0  0  0  0  0  0  0  0  0  0  0
   -0.9670   19.4590   -1.3150 C   0  0  0  0  0  0  0  0  0  0  0  0
    2.2820   15.3670   -0.9340 C   0  0  1  0  0  0  0  0  0  0  0  0
    3.1440   15.7580    0.3050 C   0  0  0  0  0  0  0  0  0  0  0  0
    3.2000   14.4750   -1.8510 C   0  0  0  0  0  0  0  0  0  0  0  0
    2.4900   13.4660   -2.7740 C   0  0  0  0  0  0  0  0  0  0  0  0
    1.4610   12.6410   -1.9950 C   0  0  2  0  0  0  0  0  0  0  0  0
    2.2320   11.8150   -0.9100 C   0  0  0  0  0  0  0  0  0  0  0  0
    0.4796    9.1959   -1.6057 H   0  0  0  0  0  0  0  0  0  0  0  0
   -0.5845    9.2108   -3.0529 H   0  0  0  0  0  0  0  0  0  0  0  0
    0.9181    8.2263   -3.0529 H   0  0  0  0  0  0  0  0  0  0  0  0
    1.2089   10.2826   -4.3642 H   0  0  0  0  0  0  0  0  0  0  0  0
    2.8592   11.0506   -2.0226 H   0  0  0  0  0  0  0  0  0  0  0  0
    2.9519    9.2992   -2.5395 H   0  0  0  0  0  0  0  0  0  0  0  0
    3.6739    9.8924   -4.7262 H   0  0  0  0  0  0  0  0  0  0  0  0
    3.3677   11.6505   -4.4072 H   0  0  0  0  0  0  0  0  0  0  0  0
    4.8468   10.3183   -2.5398 H   0  0  0  0  0  0  0  0  0  0  0  0
    5.6129    9.7177   -6.0459 H   0  0  0  0  0  0  0  0  0  0  0  0
    5.6714   11.4967   -6.2879 H   0  0  0  0  0  0  0  0  0  0  0  0
    7.1916   10.5398   -6.2879 H   0  0  0  0  0  0  0  0  0  0  0  0
    7.5589   10.5272   -2.6633 H   0  0  0  0  0  0  0  0  0  0  0  0
    7.9600    9.5054   -4.0852 H   0  0  0  0  0  0  0  0  0  0  0  0
    8.3842   11.2509   -4.0852 H   0  0  0  0  0  0  0  0  0  0  0  0
    0.3567   12.0956   -3.8003 H   0  0  0  0  0  0  0  0  0  0  0  0
   -1.5637   11.4441   -2.4884 H   0  0  0  0  0  0  0  0  0  0  0  0
   -0.5757   10.4538   -1.3927 H   0  0  0  0  0  0  0  0  0  0  0  0
   -1.6480   13.0331   -0.7885 H   0  0  0  0  0  0  0  0  0  0  0  0
   -0.3783   12.2481    0.1466 H   0  0  0  0  0  0  0  0  0  0  0  0
   -1.1224   15.1044   -2.0210 H   0  0  0  0  0  0  0  0  0  0  0  0
    0.2779   14.9743   -3.1386 H   0  0  0  0  0  0  0  0  0  0  0  0
   -0.9923   13.7041   -3.1386 H   0  0  0  0  0  0  0  0  0  0  0  0
    1.4078   13.8697    0.3766 H   0  0  0  0  0  0  0  0  0  0  0  0
   -0.9126   14.9867    0.4412 H   0  0  0  0  0  0  0  0  0  0  0  0
    0.5217   15.7159    1.3353 H   0  0  0  0  0  0  0  0  0  0  0  0
   -1.0428   17.4123    0.0624 H   0  0  0  0  0  0  0  0  0  0  0  0
    1.6356   16.2760   -2.7368 H   0  0  0  0  0  0  0  0  0  0  0  0
    3.2493   18.0632   -0.8138 H   0  0  0  0  0  0  0  0  0  0  0  0
    3.8720   17.2147   -2.2976 H   0  0  0  0  0  0  0  0  0  0  0  0
    3.4816   19.6257   -2.6928 H   0  0  0  0  0  0  0  0  0  0  0  0
    2.4312   18.5642   -3.7110 H   0  0  0  0  0  0  0  0  0  0  0  0
    1.1098   20.3853   -2.8784 H   0  0  0  0  0  0  0  0  0  0  0  0
    2.3300   19.5960   -0.4260 H   0  0  0  0  0  0  0  0  0  0  0  0
   -1.2295   17.6219   -3.2999 H   0  0  0  0  0  0  0  0  0  0  0  0
   -0.6319   19.1831   -3.9575 H   0  0  0  0  0  0  0  0  0  0  0  0
    0.4379   17.7401   -3.9575 H   0  0  0  0  0  0  0  0  0  0  0  0
   -0.8602   19.3847   -0.2227 H   0  0  0  0  0  0  0  0  0  0  0  0
   -0.9125   20.5151   -1.6178 H   0  0  0  0  0  0  0  0  0  0  0  0
   -1.9382   19.0404   -1.6178 H   0  0  0  0  0  0  0  0  0  0  0  0
    2.5962   15.5095    1.2260 H   0  0  0  0  0  0  0  0  0  0  0  0
    4.0930   15.2022    0.2816 H   0  0  0  0  0  0  0  0  0  0  0  0
    3.3510   16.8381    0.2816 H   0  0  0  0  0  0  0  0  0  0  0  0
    3.7905   15.1501   -2.4879 H   0  0  0  0  0  0  0  0  0  0  0  0
    3.7919   13.8617   -1.1557 H   0  0  0  0  0  0  0  0  0  0  0  0
    1.9776   14.0133   -3.5790 H   0  0  0  0  0  0  0  0  0  0  0  0
    3.2436   12.7826   -3.1924 H   0  0  0  0  0  0  0  0  0  0  0  0
    1.9223   12.1468    0.0920 H   0  0  0  0  0  0  0  0  0  0  0  0
    2.0010   10.7463   -1.0301 H   0  0  0  0  0  0  0  0  0  0  0  0
    3.3141   11.9720   -1.0301 H   0  0  0  0  0  0  0  0  0  0  0  0
  1  2  1  0
  2  3  1  0
  3  4  1  0
  4  5  1  0
  5  6  1  0
  6  7  1  0
  7  8  1  0
  7  9  1  0
  2 10  1  0
 10 11  1  0
 11 12  1  0
 12 13  1  0
 13 14  1  6
 13 15  1  0
 15 16  1  0
 16 17  1  0
 17 18  2  0
 18 19  1  0
 19 20  1  0
 20 21  1  0
 21 22  1  0
 22 23  1  0
 22 24  1  0
 24 25  1  0
 24 26  1  0
 19 27  1  0
 27 28  1  1
 27 29  1  0
 29 30  1  0
 30 31  1  0
 31 32  1  1
  7  5  1  0
 31 10  1  0
 31 13  1  0
 27 15  1  0
 24 18  1  0
  1 33  1  0
  1 34  1  0
  1 35  1  0
  2 36  1  6
  3 37  1  0
  3 38  1  0
  4 39  1  0
  4 40  1  0
  5 41  1  1
  8 42  1  0
  8 43  1  0
  8 44  1  0
  9 45  1  0
  9 46  1  0
  9 47  1  0
 10 48  1  6
 11 49  1  0
 11 50  1  0
 12 51  1  0
 12 52  1  0
 14 53  1  0
 14 54  1  0
 14 55  1  0
 15 56  1  1
 16 57  1  0
 16 58  1  0
 17 59  1  0
 19 60  1  6
 20 61  1  0
 20 62  1  0
 21 63  1  0
 21 64  1  0
 22 65  1  6
 23 66  1  0
 25 67  1  0
 25 68  1  0
 25 69  1  0
 26 70  1  0
 26 71  1  0
 26 72  1  0
 28 73  1  0
 28 74  1  0
 28 75  1  0
 29 76  1  0
 29 77  1  0
 30 78  1  0
 30 79  1  0
 32 80  1  0
 32 81  1  0
 32 82  1  0
M  END
>  <meeko>  (12) 
{"is_sidechain": [false], "intermolecular_energy": 2.731, "internal_energy": -0.839}

$$$$
EPH_relaxed_0001_pdb2pqr_Repair_184_r2_0001_out
     RDKit          3D

 82 86  0  0  0  0  0  0  0  0999 V2000
    3.7170   17.8150   -2.6450 C   0  0  0  0  0  0  0  0  0  0  0  0
    2.3840   17.2410   -2.1560 C   0  0  2  0  0  0  0  0  0  0  0  0
    2.1190   17.5700   -0.6730 C   0  0  0  0  0  0  0  0  0  0  0  0
    2.4410   19.0190   -0.2970 C   0  0  0  0  0  0  0  0  0  0  0  0
    3.7020   19.1160    0.5060 C   0  0  2  0  0  0  0  0  0  0  0  0
    3.7430   18.2700    1.6620 O   0  0  0  0  0  0  0  0  0  0  0  0
    3.7570   19.6850    1.9120 C   0  0  0  0  0  0  0  0  0  0  0  0
    2.5270   20.1940    2.5960 C   0  0  0  0  0  0  0  0  0  0  0  0
    5.0670   20.1920    2.4280 C   0  0  0  0  0  0  0  0  0  0  0  0
    2.3610   15.7310   -2.3660 C   0  0  1  0  0  0  0  0  0  0  0  0
    3.7510   15.1600   -2.7520 C   0  0  0  0  0  0  0  0  0  0  0  0
    3.8550   13.7570   -2.1000 C   0  0  0  0  0  0  0  0  0  0  0  0
    2.4130   13.4300   -1.6460 C   0  0  1  0  0  0  0  0  0  0  0  0
    1.6940   12.9180   -2.9330 C   0  0  0  0  0  0  0  0  0  0  0  0
    2.2740   12.4160   -0.4650 C   0  0  2  0  0  0  0  0  0  0  0  0
    2.8130   11.0030   -0.7500 C   0  0  0  0  0  0  0  0  0  0  0  0
    1.8200   10.0450   -1.3200 C   0  0  0  0  0  0  0  0  0  0  0  0
    0.4850   10.2140   -1.3280 C   0  0  0  0  0  0  0  0  0  0  0  0
   -0.1600   11.4220   -0.6340 C   0  0  1  0  0  0  0  0  0  0  0  0
   -1.3650   10.9460    0.2190 C   0  0  0  0  0  0  0  0  0  0  0  0
   -2.3710   10.1330   -0.5910 C   0  0  0  0  0  0  0  0  0  0  0  0
   -1.7050    8.9100   -1.2170 C   0  0  2  0  0  0  0  0  0  0  0  0
   -1.3130    8.0140   -0.1720 O   0  0  0  0  0  0  0  0  0  0  0  0
   -0.4700    9.2640   -2.0920 C   0  0  0  0  0  0  0  0  0  0  0  0
   -0.9370    9.9800   -3.3840 C   0  0  0  0  0  0  0  0  0  0  0  0
    0.1910    7.9350   -2.5460 C   0  0  0  0  0  0  0  0  0  0  0  0
    0.8280   12.3640    0.1780 C   0  0  1  0  0  0  0  0  0  0  0  0
    1.0060   11.8230    1.6300 C   0  0  0  0  0  0  0  0  0  0  0  0
    0.1820   13.7930    0.3120 C   0  0  0  0  0  0  0  0  0  0  0  0
    0.4550   14.7900   -0.8300 C   0  0  0  0  0  0  0  0  0  0  0  0
    1.9500   14.8510   -1.1590 C   0  0  2  0  0  0  0  0  0  0  0  0
    2.6970   15.3850    0.1100 C   0  0  0  0  0  0  0  0  0  0  0  0
    4.3403   18.0834   -1.7793 H   0  0  0  0  0  0  0  0  0  0  0  0
    4.2393   17.0620   -3.2535 H   0  0  0  0  0  0  0  0  0  0  0  0
    3.5289   18.7119   -3.2535 H   0  0  0  0  0  0  0  0  0  0  0  0
    1.5842   17.7117   -2.7466 H   0  0  0  0  0  0  0  0  0  0  0  0
    1.0558   17.3842   -0.4606 H   0  0  0  0  0  0  0  0  0  0  0  0
    2.7844   16.9278   -0.0773 H   0  0  0  0  0  0  0  0  0  0  0  0
    2.5587   19.6086   -1.2182 H   0  0  0  0  0  0  0  0  0  0  0  0
    1.6136   19.4062    0.3158 H   0  0  0  0  0  0  0  0  0  0  0  0
    4.2896   19.3279   -0.3994 H   0  0  0  0  0  0  0  0  0  0  0  0
    2.6636   20.1375    3.6860 H   0  0  0  0  0  0  0  0  0  0  0  0
    2.3501   21.2392    2.3024 H   0  0  0  0  0  0  0  0  0  0  0  0
    1.6632   19.5794    2.3024 H   0  0  0  0  0  0  0  0  0  0  0  0
    5.0545   20.1872    3.5279 H   0  0  0  0  0  0  0  0  0  0  0  0
    5.8789   19.5432    2.0677 H   0  0  0  0  0  0  0  0  0  0  0  0
    5.2306   21.2184    2.0677 H   0  0  0  0  0  0  0  0  0  0  0  0
    1.5978   15.6668   -3.1556 H   0  0  0  0  0  0  0  0  0  0  0  0
    3.8359   15.0768   -3.8456 H   0  0  0  0  0  0  0  0  0  0  0  0
    4.5596   15.8189   -2.4025 H   0  0  0  0  0  0  0  0  0  0  0  0
    4.2100   13.0148   -2.8302 H   0  0  0  0  0  0  0  0  0  0  0  0
    4.5701   13.7373   -1.2644 H   0  0  0  0  0  0  0  0  0  0  0  0
    0.8284   12.3016   -2.6488 H   0  0  0  0  0  0  0  0  0  0  0  0
    1.3524   13.7774   -3.5287 H   0  0  0  0  0  0  0  0  0  0  0  0
    2.3944   12.3142   -3.5287 H   0  0  0  0  0  0  0  0  0  0  0  0
    2.9461   12.8444    0.2932 H   0  0  0  0  0  0  0  0  0  0  0  0
    3.6455   11.0942   -1.4632 H   0  0  0  0  0  0  0  0  0  0  0  0
    3.1112   10.5886    0.2244 H   0  0  0  0  0  0  0  0  0  0  0  0
    2.2131    9.1224   -1.7720 H   0  0  0  0  0  0  0  0  0  0  0  0
   -0.5109   12.0840   -1.4394 H   0  0  0  0  0  0  0  0  0  0  0  0
   -0.9890   10.3217    1.0429 H   0  0  0  0  0  0  0  0  0  0  0  0
   -1.8834   11.8412    0.5932 H   0  0  0  0  0  0  0  0  0  0  0  0
   -3.1831    9.8008    0.0724 H   0  0  0  0  0  0  0  0  0  0  0  0
   -2.7685   10.7677   -1.3967 H   0  0  0  0  0  0  0  0  0  0  0  0
   -2.4401    8.4417   -1.8881 H   0  0  0  0  0  0  0  0  0  0  0  0
   -1.5880    7.1190   -0.4340 H   0  0  0  0  0  0  0  0  0  0  0  0
   -1.5200   10.8739   -3.1175 H   0  0  0  0  0  0  0  0  0  0  0  0
   -0.0590   10.2779   -3.9759 H   0  0  0  0  0  0  0  0  0  0  0  0
   -1.5636    9.2966   -3.9759 H   0  0  0  0  0  0  0  0  0  0  0  0
    0.4822    7.3495   -1.6615 H   0  0  0  0  0  0  0  0  0  0  0  0
   -0.5246    7.3569   -3.1491 H   0  0  0  0  0  0  0  0  0  0  0  0
    1.0838    8.1568   -3.1491 H   0  0  0  0  0  0  0  0  0  0  0  0
    0.7461   12.6129    2.3500 H   0  0  0  0  0  0  0  0  0  0  0  0
    0.3456   10.9566    1.7820 H   0  0  0  0  0  0  0  0  0  0  0  0
    2.0519   11.5180    1.7820 H   0  0  0  0  0  0  0  0  0  0  0  0
   -0.9076   13.6599    0.3839 H   0  0  0  0  0  0  0  0  0  0  0  0
    0.6524   14.2386    1.2009 H   0  0  0  0  0  0  0  0  0  0  0  0
   -0.0979   14.4711   -1.7259 H   0  0  0  0  0  0  0  0  0  0  0  0
    0.1254   15.7893   -0.5095 H   0  0  0  0  0  0  0  0  0  0  0  0
    2.1883   15.0214    1.0150 H   0  0  0  0  0  0  0  0  0  0  0  0
    3.7359   15.0237    0.1031 H   0  0  0  0  0  0  0  0  0  0  0  0
    2.6913   16.4850    0.1031 H   0  0  0  0  0  0  0  0  0  0  0  0
  1  2  1  0
  2  3  1  0
  3  4  1  0
  4  5  1  0
  5  6  1  0
  6  7  1  0
  7  8  1  0
  7  9  1  0
  2 10  1  0
 10 11  1  0
 11 12  1  0
 12 13  1  0
 13 14  1  6
 13 15  1  0
 15 16  1  0
 16 17  1  0
 17 18  2  0
 18 19  1  0
 19 20  1  0
 20 21  1  0
 21 22  1  0
 22 23  1  0
 22 24  1  0
 24 25  1  0
 24 26  1  0
 19 27  1  0
 27 28  1  1
 27 29  1  0
 29 30  1  0
 30 31  1  0
 31 32  1  1
  7  5  1  0
 31 10  1  0
 31 13  1  0
 27 15  1  0
 24 18  1  0
  1 33  1  0
  1 34  1  0
  1 35  1  0
  2 36  1  6
  3 37  1  0
  3 38  1  0
  4 39  1  0
  4 40  1  0
  5 41  1  6
  8 42  1  0
  8 43  1  0
  8 44  1  0
  9 45  1  0
  9 46  1  0
  9 47  1  0
 10 48  1  6
 11 49  1  0
 11 50  1  0
 12 51  1  0
 12 52  1  0
 14 53  1  0
 14 54  1  0
 14 55  1  0
 15 56  1  1
 16 57  1  0
 16 58  1  0
 17 59  1  0
 19 60  1  6
 20 61  1  0
 20 62  1  0
 21 63  1  0
 21 64  1  0
 22 65  1  6
 23 66  1  0
 25 67  1  0
 25 68  1  0
 25 69  1  0
 26 70  1  0
 26 71  1  0
 26 72  1  0
 28 73  1  0
 28 74  1  0
 28 75  1  0
 29 76  1  0
 29 77  1  0
 30 78  1  0
 30 79  1  0
 32 80  1  0
 32 81  1  0
 32 82  1  0
M  END
>  <meeko>  (13) 
{"is_sidechain": [false], "intermolecular_energy": 2.731, "internal_energy": -0.839}

$$$$
EPH_relaxed_0001_pdb2pqr_Repair_184_r2_0001_out
     RDKit          3D

 82 86  0  0  0  0  0  0  0  0999 V2000
   -5.1370    5.8740   -1.8120 C   0  0  0  0  0  0  0  0  0  0  0  0
   -5.4540    7.3720   -1.8390 C   0  0  2  0  0  0  0  0  0  0  0  0
   -5.2380    8.0360   -0.4640 C   0  0  0  0  0  0  0  0  0  0  0  0
   -4.1960    9.1580   -0.4790 C   0  0  0  0  0  0  0  0  0  0  0  0
   -2.8290    8.6400   -0.8110 C   0  0  2  0  0  0  0  0  0  0  0  0
   -1.8140    8.9720    0.1460 O   0  0  0  0  0  0  0  0  0  0  0  0
   -1.6580    9.5380   -1.1660 C   0  0  0  0  0  0  0  0  0  0  0  0
   -1.8010   11.0270   -1.2070 C   0  0  0  0  0  0  0  0  0  0  0  0
   -0.5190    8.9550   -1.9420 C   0  0  0  0  0  0  0  0  0  0  0  0
   -6.8880    7.5920   -2.3040 C   0  0  1  0  0  0  0  0  0  0  0  0
   -7.1940    6.8860   -3.6520 C   0  0  0  0  0  0  0  0  0  0  0  0
   -8.6680    6.4100   -3.5830 C   0  0  0  0  0  0  0  0  0  0  0  0
   -9.2560    7.1380   -2.3520 C   0  0  1  0  0  0  0  0  0  0  0  0
   -9.6110    8.5690   -2.8650 C   0  0  0  0  0  0  0  0  0  0  0  0
  -10.4810    6.4520   -1.6630 C   0  0  2  0  0  0  0  0  0  0  0  0
  -11.7350    6.3170   -2.5440 C   0  0  0  0  0  0  0  0  0  0  0  0
  -12.6910    7.4610   -2.4710 C   0  0  0  0  0  0  0  0  0  0  0  0
  -12.6970    8.4160   -1.5230 C   0  0  0  0  0  0  0  0  0  0  0  0
  -11.7320    8.3500   -0.3320 C   0  0  1  0  0  0  0  0  0  0  0  0
  -12.5090    8.6370    0.9800 C   0  0  0  0  0  0  0  0  0  0  0  0
  -13.2810    9.9510    0.9270 C   0  0  0  0  0  0  0  0  0  0  0  0
  -14.2720    9.9560   -0.2350 C   0  0  2  0  0  0  0  0  0  0  0  0
  -15.2870    8.9800    0.0210 O   0  0  0  0  0  0  0  0  0  0  0  0
  -13.6050    9.6680   -1.6090 C   0  0  0  0  0  0  0  0  0  0  0  0
  -12.7300   10.8760   -2.0260 C   0  0  0  0  0  0  0  0  0  0  0  0
  -14.7310    9.5610   -2.6730 C   0  0  0  0  0  0  0  0  0  0  0  0
  -10.8360    7.0410   -0.2380 C   0  0  1  0  0  0  0  0  0  0  0  0
  -11.6080    5.9220    0.5260 C   0  0  0  0  0  0  0  0  0  0  0  0
   -9.5520    7.3580    0.6160 C   0  0  0  0  0  0  0  0  0  0  0  0
   -8.3350    7.9220   -0.1420 C   0  0  0  0  0  0  0  0  0  0  0  0
   -8.0220    7.0780   -1.3810 C   0  0  2  0  0  0  0  0  0  0  0  0
   -7.6400    5.6380   -0.8950 C   0  0  0  0  0  0  0  0  0  0  0  0
   -5.0649    5.5332   -0.7686 H   0  0  0  0  0  0  0  0  0  0  0  0
   -5.9379    5.3204   -2.3240 H   0  0  0  0  0  0  0  0  0  0  0  0
   -4.1805    5.6923   -2.3240 H   0  0  0  0  0  0  0  0  0  0  0  0
   -4.7574    7.8447   -2.5471 H   0  0  0  0  0  0  0  0  0  0  0  0
   -6.1968    8.4570   -0.1272 H   0  0  0  0  0  0  0  0  0  0  0  0
   -4.8608    7.2561    0.2138 H   0  0  0  0  0  0  0  0  0  0  0  0
   -4.4870    9.9048   -1.2324 H   0  0  0  0  0  0  0  0  0  0  0  0
   -4.1589    9.6053    0.5253 H   0  0  0  0  0  0  0  0  0  0  0  0
   -3.2580    7.7564   -1.3062 H   0  0  0  0  0  0  0  0  0  0  0  0
   -1.8388   11.4201   -0.1803 H   0  0  0  0  0  0  0  0  0  0  0  0
   -0.9406   11.4636   -1.7354 H   0  0  0  0  0  0  0  0  0  0  0  0
   -2.7287   11.2918   -1.7354 H   0  0  0  0  0  0  0  0  0  0  0  0
    0.2388    8.5671   -1.2454 H   0  0  0  0  0  0  0  0  0  0  0  0
   -0.8885    8.1352   -2.5755 H   0  0  0  0  0  0  0  0  0  0  0  0
   -0.0701    9.7342   -2.5755 H   0  0  0  0  0  0  0  0  0  0  0  0
   -6.9027    8.6912   -2.3421 H   0  0  0  0  0  0  0  0  0  0  0  0
   -7.0619    7.5900   -4.4869 H   0  0  0  0  0  0  0  0  0  0  0  0
   -6.5126    6.0385   -3.8177 H   0  0  0  0  0  0  0  0  0  0  0  0
   -9.2106    6.6928   -4.4971 H   0  0  0  0  0  0  0  0  0  0  0  0
   -8.7496    5.3162   -3.4990 H   0  0  0  0  0  0  0  0  0  0  0  0
   -9.7764    9.2359   -2.0060 H   0  0  0  0  0  0  0  0  0  0  0  0
   -8.7816    8.9560   -3.4752 H   0  0  0  0  0  0  0  0  0  0  0  0
  -10.5251    8.5235   -3.4752 H   0  0  0  0  0  0  0  0  0  0  0  0
  -10.1176    5.4261   -1.5033 H   0  0  0  0  0  0  0  0  0  0  0  0
  -11.4070    6.2142   -3.5889 H   0  0  0  0  0  0  0  0  0  0  0  0
  -12.2802    5.4399   -2.1654 H   0  0  0  0  0  0  0  0  0  0  0  0
  -13.4555    7.5292   -3.2590 H   0  0  0  0  0  0  0  0  0  0  0  0
  -10.9835    9.1380   -0.5019 H   0  0  0  0  0  0  0  0  0  0  0  0
  -13.2207    7.8167    1.1549 H   0  0  0  0  0  0  0  0  0  0  0  0
  -11.7729    8.7148    1.7937 H   0  0  0  0  0  0  0  0  0  0  0  0
  -13.8315   10.0832    1.8701 H   0  0  0  0  0  0  0  0  0  0  0  0
  -12.5648   10.7730    0.7809 H   0  0  0  0  0  0  0  0  0  0  0  0
  -14.7004   10.9671   -0.2997 H   0  0  0  0  0  0  0  0  0  0  0  0
  -16.1040    9.4580    0.2450 H   0  0  0  0  0  0  0  0  0  0  0  0
  -12.3591   11.3881   -1.1259 H   0  0  0  0  0  0  0  0  0  0  0  0
  -11.8774   10.5221   -2.6241 H   0  0  0  0  0  0  0  0  0  0  0  0
  -13.3321   11.5758   -2.6241 H   0  0  0  0  0  0  0  0  0  0  0  0
  -15.7043    9.4685   -2.1688 H   0  0  0  0  0  0  0  0  0  0  0  0
  -14.7281   10.4635   -3.3019 H   0  0  0  0  0  0  0  0  0  0  0  0
  -14.5582    8.6752   -3.3019 H   0  0  0  0  0  0  0  0  0  0  0  0
  -11.5010    6.0771    1.6097 H   0  0  0  0  0  0  0  0  0  0  0  0
  -12.6731    5.9598    0.2536 H   0  0  0  0  0  0  0  0  0  0  0  0
  -11.1945    4.9398    0.2536 H   0  0  0  0  0  0  0  0  0  0  0  0
   -9.8360    8.0932    1.3834 H   0  0  0  0  0  0  0  0  0  0  0  0
   -9.2207    6.3856    1.0092 H   0  0  0  0  0  0  0  0  0  0  0  0
   -8.5525    8.9539   -0.4550 H   0  0  0  0  0  0  0  0  0  0  0  0
   -7.4628    7.8987    0.5279 H   0  0  0  0  0  0  0  0  0  0  0  0
   -7.6331    5.6120    0.2047 H   0  0  0  0  0  0  0  0  0  0  0  0
   -8.3775    4.9153   -1.2743 H   0  0  0  0  0  0  0  0  0  0  0  0
   -6.6413    5.3759   -1.2743 H   0  0  0  0  0  0  0  0  0  0  0  0
  1  2  1  0
  2  3  1  0
  3  4  1  0
  4  5  1  0
  5  6  1  0
  6  7  1  0
  7  8  1  0
  7  9  1  0
  2 10  1  0
 10 11  1  0
 11 12  1  0
 12 13  1  0
 13 14  1  6
 13 15  1  0
 15 16  1  0
 16 17  1  0
 17 18  2  0
 18 19  1  0
 19 20  1  0
 20 21  1  0
 21 22  1  0
 22 23  1  0
 22 24  1  0
 24 25  1  0
 24 26  1  0
 19 27  1  0
 27 28  1  1
 27 29  1  0
 29 30  1  0
 30 31  1  0
 31 32  1  1
  7  5  1  0
 31 10  1  0
 31 13  1  0
 27 15  1  0
 24 18  1  0
  1 33  1  0
  1 34  1  0
  1 35  1  0
  2 36  1  6
  3 37  1  0
  3 38  1  0
  4 39  1  0
  4 40  1  0
  5 41  1  6
  8 42  1  0
  8 43  1  0
  8 44  1  0
  9 45  1  0
  9 46  1  0
  9 47  1  0
 10 48  1  6
 11 49  1  0
 11 50  1  0
 12 51  1  0
 12 52  1  0
 14 53  1  0
 14 54  1  0
 14 55  1  0
 15 56  1  1
 16 57  1  0
 16 58  1  0
 17 59  1  0
 19 60  1  6
 20 61  1  0
 20 62  1  0
 21 63  1  0
 21 64  1  0
 22 65  1  6
 23 66  1  0
 25 67  1  0
 25 68  1  0
 25 69  1  0
 26 70  1  0
 26 71  1  0
 26 72  1  0
 28 73  1  0
 28 74  1  0
 28 75  1  0
 29 76  1  0
 29 77  1  0
 30 78  1  0
 30 79  1  0
 32 80  1  0
 32 81  1  0
 32 82  1  0
M  END
>  <meeko>  (14) 
{"is_sidechain": [false], "intermolecular_energy": 2.731, "internal_energy": -0.839}

$$$$
EPH_relaxed_0001_pdb2pqr_Repair_184_r2_0001_out
     RDKit          3D

 82 86  0  0  0  0  0  0  0  0999 V2000
    0.7110   17.8290   -2.4150 C   0  0  0  0  0  0  0  0  0  0  0  0
    2.0160   17.1900   -1.9320 C   0  0  2  0  0  0  0  0  0  0  0  0
    3.2560   17.8480   -2.5700 C   0  0  0  0  0  0  0  0  0  0  0  0
    4.5840   17.3420   -2.0000 C   0  0  0  0  0  0  0  0  0  0  0  0
    5.7540   17.8410   -2.7920 C   0  0  2  0  0  0  0  0  0  0  0  0
    5.5830   17.7800   -4.2150 O   0  0  0  0  0  0  0  0  0  0  0  0
    6.6170   16.9480   -3.6640 C   0  0  0  0  0  0  0  0  0  0  0  0
    6.3460   15.4810   -3.7860 C   0  0  0  0  0  0  0  0  0  0  0  0
    8.0020   17.4020   -4.0030 C   0  0  0  0  0  0  0  0  0  0  0  0
    2.0060   15.6960   -2.2320 C   0  0  1  0  0  0  0  0  0  0  0  0
    3.3500   15.1970   -2.8280 C   0  0  0  0  0  0  0  0  0  0  0  0
    3.5740   13.7620   -2.2850 C   0  0  0  0  0  0  0  0  0  0  0  0
    2.2130   13.3590   -1.6720 C   0  0  1  0  0  0  0  0  0  0  0  0
    1.3470   12.8990   -2.8870 C   0  0  0  0  0  0  0  0  0  0  0  0
    2.2550   12.2720   -0.5490 C   0  0  2  0  0  0  0  0  0  0  0  0
    2.7900   10.8990   -0.9900 C   0  0  0  0  0  0  0  0  0  0  0  0
    1.7580    9.9420   -1.4880 C   0  0  0  0  0  0  0  0  0  0  0  0
    0.4290   10.0650   -1.3150 C   0  0  0  0  0  0  0  0  0  0  0  0
   -0.1530   11.2060   -0.4700 C   0  0  1  0  0  0  0  0  0  0  0  0
   -1.2250   10.6390    0.4980 C   0  0  0  0  0  0  0  0  0  0  0  0
   -2.3040    9.8410   -0.2270 C   0  0  0  0  0  0  0  0  0  0  0  0
   -1.6920    8.6810   -1.0080 C   0  0  2  0  0  0  0  0  0  0  0  0
   -1.1440    7.7390   -0.0810 O   0  0  0  0  0  0  0  0  0  0  0  0
   -0.5910    9.1300   -2.0100 C   0  0  0  0  0  0  0  0  0  0  0  0
   -1.2400    9.9040   -3.1840 C   0  0  0  0  0  0  0  0  0  0  0  0
    0.0410    7.8540   -2.6280 C   0  0  0  0  0  0  0  0  0  0  0  0
    0.9070   12.1320    0.2680 C   0  0  1  0  0  0  0  0  0  0  0  0
    1.2850   11.5130    1.6480 C   0  0  0  0  0  0  0  0  0  0  0  0
    0.2450   13.5280    0.5740 C   0  0  0  0  0  0  0  0  0  0  0  0
    0.3410   14.5990   -0.5290 C   0  0  0  0  0  0  0  0  0  0  0  0
    1.7780   14.7320   -1.0410 C   0  0  2  0  0  0  0  0  0  0  0  0
    2.6690   15.2150    0.1540 C   0  0  0  0  0  0  0  0  0  0  0  0
    0.1047   18.1259   -1.5465 H   0  0  0  0  0  0  0  0  0  0  0  0
    0.9404   18.7167   -3.0227 H   0  0  0  0  0  0  0  0  0  0  0  0
    0.1504   17.1034   -3.0227 H   0  0  0  0  0  0  0  0  0  0  0  0
    2.0801   17.3500   -0.8456 H   0  0  0  0  0  0  0  0  0  0  0  0
    3.2410   17.6421   -3.6505 H   0  0  0  0  0  0  0  0  0  0  0  0
    3.1996   18.9236   -2.3465 H   0  0  0  0  0  0  0  0  0  0  0  0
    4.6820   17.6908   -0.9614 H   0  0  0  0  0  0  0  0  0  0  0  0
    4.5811   16.2431   -2.0486 H   0  0  0  0  0  0  0  0  0  0  0  0
    6.0045   18.5699   -2.0072 H   0  0  0  0  0  0  0  0  0  0  0  0
    6.2643   15.0385   -2.7822 H   0  0  0  0  0  0  0  0  0  0  0  0
    5.4041   15.3263   -4.3327 H   0  0  0  0  0  0  0  0  0  0  0  0
    7.1705   15.0000   -4.3327 H   0  0  0  0  0  0  0  0  0  0  0  0
    8.5646   17.5864   -3.0759 H   0  0  0  0  0  0  0  0  0  0  0  0
    8.5095   16.6232   -4.5911 H   0  0  0  0  0  0  0  0  0  0  0  0
    7.9500   18.3301   -4.5911 H   0  0  0  0  0  0  0  0  0  0  0  0
    1.1488   15.6526   -2.9199 H   0  0  0  0  0  0  0  0  0  0  0  0
    3.2951   15.1822   -3.9265 H   0  0  0  0  0  0  0  0  0  0  0  0
    4.1794   15.8612   -2.5434 H   0  0  0  0  0  0  0  0  0  0  0  0
    3.8505   13.0773   -3.1003 H   0  0  0  0  0  0  0  0  0  0  0  0
    4.3915   13.7173   -1.5504 H   0  0  0  0  0  0  0  0  0  0  0  0
    0.4309   12.4124   -2.5210 H   0  0  0  0  0  0  0  0  0  0  0  0
    1.0787   13.7735   -3.4980 H   0  0  0  0  0  0  0  0  0  0  0  0
    1.9213   12.1871   -3.4980 H   0  0  0  0  0  0  0  0  0  0  0  0
    3.0074   12.6772    0.1436 H   0  0  0  0  0  0  0  0  0  0  0  0
    3.5199   11.0618   -1.7967 H   0  0  0  0  0  0  0  0  0  0  0  0
    3.2232   10.4380   -0.0901 H   0  0  0  0  0  0  0  0  0  0  0  0
    2.1140    9.0618   -2.0434 H   0  0  0  0  0  0  0  0  0  0  0  0
   -0.6229   11.9018   -1.1807 H   0  0  0  0  0  0  0  0  0  0  0  0
   -0.7293    9.9808    1.2267 H   0  0  0  0  0  0  0  0  0  0  0  0
   -1.7147   11.4919    0.9906 H   0  0  0  0  0  0  0  0  0  0  0  0
   -3.0147    9.4424    0.5119 H   0  0  0  0  0  0  0  0  0  0  0  0
   -2.8186   10.5080   -0.9344 H   0  0  0  0  0  0  0  0  0  0  0  0
   -2.4949    8.2270   -1.6073 H   0  0  0  0  0  0  0  0  0  0  0  0
   -1.8820    7.2180    0.2790 H   0  0  0  0  0  0  0  0  0  0  0  0
   -1.8988   10.6897   -2.7855 H   0  0  0  0  0  0  0  0  0  0  0  0
   -0.4529   10.3631   -3.8001 H   0  0  0  0  0  0  0  0  0  0  0  0
   -1.8293    9.2090   -3.8001 H   0  0  0  0  0  0  0  0  0  0  0  0
    0.3735    7.1826   -1.8226 H   0  0  0  0  0  0  0  0  0  0  0  0
   -0.7062    7.3390   -3.2497 H   0  0  0  0  0  0  0  0  0  0  0  0
    0.9035    8.1362   -3.2497 H   0  0  0  0  0  0  0  0  0  0  0  0
    0.8955   12.1509    2.4551 H   0  0  0  0  0  0  0  0  0  0  0  0
    0.8466   10.5076    1.7313 H   0  0  0  0  0  0  0  0  0  0  0  0
    2.3797   11.4438    1.7313 H   0  0  0  0  0  0  0  0  0  0  0  0
   -0.8220   13.3531    0.7761 H   0  0  0  0  0  0  0  0  0  0  0  0
    0.8139   13.9366    1.4222 H   0  0  0  0  0  0  0  0  0  0  0  0
   -0.3140   14.3137   -1.3654 H   0  0  0  0  0  0  0  0  0  0  0  0
    0.0283   15.5656   -0.1072 H   0  0  0  0  0  0  0  0  0  0  0  0
    2.1822   14.9511    1.1044 H   0  0  0  0  0  0  0  0  0  0  0  0
    3.6532   14.7269    0.0982 H   0  0  0  0  0  0  0  0  0  0  0  0
    2.7971   16.3061    0.0982 H   0  0  0  0  0  0  0  0  0  0  0  0
  1  2  1  0
  2  3  1  0
  3  4  1  0
  4  5  1  0
  5  6  1  0
  6  7  1  0
  7  8  1  0
  7  9  1  0
  2 10  1  0
 10 11  1  0
 11 12  1  0
 12 13  1  0
 13 14  1  6
 13 15  1  0
 15 16  1  0
 16 17  1  0
 17 18  2  0
 18 19  1  0
 19 20  1  0
 20 21  1  0
 21 22  1  0
 22 23  1  0
 22 24  1  0
 24 25  1  0
 24 26  1  0
 19 27  1  0
 27 28  1  1
 27 29  1  0
 29 30  1  0
 30 31  1  0
 31 32  1  1
  7  5  1  0
 31 10  1  0
 31 13  1  0
 27 15  1  0
 24 18  1  0
  1 33  1  0
  1 34  1  0
  1 35  1  0
  2 36  1  1
  3 37  1  0
  3 38  1  0
  4 39  1  0
  4 40  1  0
  5 41  1  1
  8 42  1  0
  8 43  1  0
  8 44  1  0
  9 45  1  0
  9 46  1  0
  9 47  1  0
 10 48  1  6
 11 49  1  0
 11 50  1  0
 12 51  1  0
 12 52  1  0
 14 53  1  0
 14 54  1  0
 14 55  1  0
 15 56  1  1
 16 57  1  0
 16 58  1  0
 17 59  1  0
 19 60  1  6
 20 61  1  0
 20 62  1  0
 21 63  1  0
 21 64  1  0
 22 65  1  6
 23 66  1  0
 25 67  1  0
 25 68  1  0
 25 69  1  0
 26 70  1  0
 26 71  1  0
 26 72  1  0
 28 73  1  0
 28 74  1  0
 28 75  1  0
 29 76  1  0
 29 77  1  0
 30 78  1  0
 30 79  1  0
 32 80  1  0
 32 81  1  0
 32 82  1  0
M  END
>  <meeko>  (15) 
{"is_sidechain": [false], "intermolecular_energy": 2.731, "internal_energy": -0.839}

$$$$
EPH_relaxed_0001_pdb2pqr_Repair_184_r2_0001_out
     RDKit          3D

 82 86  0  0  0  0  0  0  0  0999 V2000
   -0.7790   17.7010   -0.0290 C   0  0  0  0  0  0  0  0  0  0  0  0
    0.4680   17.5740   -0.9080 C   0  0  2  0  0  0  0  0  0  0  0  0
    0.5480   18.6910   -1.9670 C   0  0  0  0  0  0  0  0  0  0  0  0
    1.6250   19.7390   -1.6760 C   0  0  0  0  0  0  0  0  0  0  0  0
    2.1920   19.5830   -0.2970 C   0  0  2  0  0  0  0  0  0  0  0  0
    3.4740   20.1940   -0.1040 O   0  0  0  0  0  0  0  0  0  0  0  0
    3.4320   18.7630    0.0090 C   0  0  0  0  0  0  0  0  0  0  0  0
    4.1790   18.0440   -1.0700 C   0  0  0  0  0  0  0  0  0  0  0  0
    3.6310   18.2630    1.4060 C   0  0  0  0  0  0  0  0  0  0  0  0
    0.4870   16.2090   -1.5880 C   0  0  1  0  0  0  0  0  0  0  0  0
    1.3510   16.1960   -2.8770 C   0  0  0  0  0  0  0  0  0  0  0  0
    2.0110   14.7960   -2.9580 C   0  0  0  0  0  0  0  0  0  0  0  0
    1.2550   13.9470   -1.9100 C   0  0  1  0  0  0  0  0  0  0  0  0
   -0.0610   13.5060   -2.6240 C   0  0  0  0  0  0  0  0  0  0  0  0
    2.0310   12.7230   -1.3230 C   0  0  2  0  0  0  0  0  0  0  0  0
    2.4150   11.6410   -2.3470 C   0  0  0  0  0  0  0  0  0  0  0  0
    1.4080   10.5550   -2.5350 C   0  0  0  0  0  0  0  0  0  0  0  0
    0.3770   10.2930   -1.7110 C   0  0  0  0  0  0  0  0  0  0  0  0
    0.2010   11.0680   -0.3990 C   0  0  1  0  0  0  0  0  0  0  0  0
   -0.1020   10.0750    0.7530 C   0  0  0  0  0  0  0  0  0  0  0  0
   -1.2900    9.1680    0.4480 C   0  0  0  0  0  0  0  0  0  0  0  0
   -1.0520    8.3710   -0.8320 C   0  0  2  0  0  0  0  0  0  0  0  0
    0.0220    7.4520   -0.6100 O   0  0  0  0  0  0  0  0  0  0  0  0
   -0.7290    9.2660   -2.0610 C   0  0  0  0  0  0  0  0  0  0  0  0
   -1.9980   10.0450   -2.4860 C   0  0  0  0  0  0  0  0  0  0  0  0
   -0.3720    8.3340   -3.2500 C   0  0  0  0  0  0  0  0  0  0  0  0
    1.3640   12.0890   -0.0350 C   0  0  1  0  0  0  0  0  0  0  0  0
    2.4990   11.3490    0.7370 C   0  0  0  0  0  0  0  0  0  0  0  0
    0.7990   13.1830    0.9460 C   0  0  0  0  0  0  0  0  0  0  0  0
    0.1510   14.4250    0.3040 C   0  0  0  0  0  0  0  0  0  0  0  0
    1.0590   15.0190   -0.7770 C   0  0  2  0  0  0  0  0  0  0  0  0
    2.3820   15.4920   -0.0850 C   0  0  0  0  0  0  0  0  0  0  0  0
   -0.4853   17.6711    1.0306 H   0  0  0  0  0  0  0  0  0  0  0  0
   -1.2829   18.6551   -0.2430 H   0  0  0  0  0  0  0  0  0  0  0  0
   -1.4649   16.8681   -0.2430 H   0  0  0  0  0  0  0  0  0  0  0  0
    1.3463   17.6763   -0.2537 H   0  0  0  0  0  0  0  0  0  0  0  0
    0.7661   18.2303   -2.9418 H   0  0  0  0  0  0  0  0  0  0  0  0
   -0.4199   19.2135   -1.9568 H   0  0  0  0  0  0  0  0  0  0  0  0
    2.4370   19.6290   -2.4099 H   0  0  0  0  0  0  0  0  0  0  0  0
    1.1626   20.7346   -1.7461 H   0  0  0  0  0  0  0  0  0  0  0  0
    1.1843   19.5905    0.1441 H   0  0  0  0  0  0  0  0  0  0  0  0
    4.9008   17.3492   -0.6158 H   0  0  0  0  0  0  0  0  0  0  0  0
    3.4698   17.4800   -1.6937 H   0  0  0  0  0  0  0  0  0  0  0  0
    4.7155   18.7742   -1.6937 H   0  0  0  0  0  0  0  0  0  0  0  0
    3.3219   19.0397    2.1210 H   0  0  0  0  0  0  0  0  0  0  0  0
    3.0242   17.3588    1.5618 H   0  0  0  0  0  0  0  0  0  0  0  0
    4.6932   18.0231    1.5618 H   0  0  0  0  0  0  0  0  0  0  0  0
   -0.5917   16.0689   -1.7517 H   0  0  0  0  0  0  0  0  0  0  0  0
    0.7174   16.3678   -3.7596 H   0  0  0  0  0  0  0  0  0  0  0  0
    2.1113   16.9905   -2.8512 H   0  0  0  0  0  0  0  0  0  0  0  0
    1.8912   14.3679   -3.9642 H   0  0  0  0  0  0  0  0  0  0  0  0
    3.0929   14.8330   -2.7629 H   0  0  0  0  0  0  0  0  0  0  0  0
   -0.8200   13.2517   -1.8695 H   0  0  0  0  0  0  0  0  0  0  0  0
   -0.4306   14.3294   -3.2528 H   0  0  0  0  0  0  0  0  0  0  0  0
    0.1401   12.6262   -3.2528 H   0  0  0  0  0  0  0  0  0  0  0  0
    2.9789   13.1785   -1.0004 H   0  0  0  0  0  0  0  0  0  0  0  0
    2.5703   12.1325   -3.3188 H   0  0  0  0  0  0  0  0  0  0  0  0
    3.3179   11.1535   -1.9506 H   0  0  0  0  0  0  0  0  0  0  0  0
    1.5182    9.9146   -3.4225 H   0  0  0  0  0  0  0  0  0  0  0  0
   -0.6606   11.7343   -0.5532 H   0  0  0  0  0  0  0  0  0  0  0  0
    0.7862    9.4480    0.9205 H   0  0  0  0  0  0  0  0  0  0  0  0
   -0.3548   10.6667    1.6452 H   0  0  0  0  0  0  0  0  0  0  0  0
   -1.4344    8.4697    1.2855 H   0  0  0  0  0  0  0  0  0  0  0  0
   -2.1842    9.7939    0.3113 H   0  0  0  0  0  0  0  0  0  0  0  0
   -1.9862    7.8405   -1.0683 H   0  0  0  0  0  0  0  0  0  0  0  0
    0.3790    7.2020   -1.4790 H   0  0  0  0  0  0  0  0  0  0  0  0
   -2.5411   10.3784   -1.5894 H   0  0  0  0  0  0  0  0  0  0  0  0
   -1.7073   10.9204   -3.0853 H   0  0  0  0  0  0  0  0  0  0  0  0
   -2.6471    9.3896   -3.0853 H   0  0  0  0  0  0  0  0  0  0  0  0
   -0.0035    7.3721   -2.8641 H   0  0  0  0  0  0  0  0  0  0  0  0
   -1.2685    8.1635   -3.8642 H   0  0  0  0  0  0  0  0  0  0  0  0
    0.4090    8.8060   -3.8642 H   0  0  0  0  0  0  0  0  0  0  0  0
    2.3358   11.4554    1.8196 H   0  0  0  0  0  0  0  0  0  0  0  0
    2.4904   10.2824    0.4680 H   0  0  0  0  0  0  0  0  0  0  0  0
    3.4714   11.7872    0.4680 H   0  0  0  0  0  0  0  0  0  0  0  0
    0.0395   12.7014    1.5794 H   0  0  0  0  0  0  0  0  0  0  0  0
    1.6771   13.5645    1.4877 H   0  0  0  0  0  0  0  0  0  0  0  0
   -0.8083   14.1363   -0.1503 H   0  0  0  0  0  0  0  0  0  0  0  0
   -0.0063   15.1827    1.0858 H   0  0  0  0  0  0  0  0  0  0  0  0
    2.2603   15.4485    1.0074 H   0  0  0  0  0  0  0  0  0  0  0  0
    3.2098   14.8341   -0.3882 H   0  0  0  0  0  0  0  0  0  0  0  0
    2.6051   16.5256   -0.3882 H   0  0  0  0  0  0  0  0  0  0  0  0
  1  2  1  0
  2  3  1  0
  3  4  1  0
  4  5  1  0
  5  6  1  0
  6  7  1  0
  7  8  1  0
  7  9  1  0
  2 10  1  0
 10 11  1  0
 11 12  1  0
 12 13  1  0
 13 14  1  6
 13 15  1  0
 15 16  1  0
 16 17  1  0
 17 18  2  0
 18 19  1  0
 19 20  1  0
 20 21  1  0
 21 22  1  0
 22 23  1  0
 22 24  1  0
 24 25  1  0
 24 26  1  0
 19 27  1  0
 27 28  1  1
 27 29  1  0
 29 30  1  0
 30 31  1  0
 31 32  1  1
  7  5  1  0
 31 10  1  0
 31 13  1  0
 27 15  1  0
 24 18  1  0
  1 33  1  0
  1 34  1  0
  1 35  1  0
  2 36  1  1
  3 37  1  0
  3 38  1  0
  4 39  1  0
  4 40  1  0
  5 41  1  1
  8 42  1  0
  8 43  1  0
  8 44  1  0
  9 45  1  0
  9 46  1  0
  9 47  1  0
 10 48  1  6
 11 49  1  0
 11 50  1  0
 12 51  1  0
 12 52  1  0
 14 53  1  0
 14 54  1  0
 14 55  1  0
 15 56  1  1
 16 57  1  0
 16 58  1  0
 17 59  1  0
 19 60  1  6
 20 61  1  0
 20 62  1  0
 21 63  1  0
 21 64  1  0
 22 65  1  6
 23 66  1  0
 25 67  1  0
 25 68  1  0
 25 69  1  0
 26 70  1  0
 26 71  1  0
 26 72  1  0
 28 73  1  0
 28 74  1  0
 28 75  1  0
 29 76  1  0
 29 77  1  0
 30 78  1  0
 30 79  1  0
 32 80  1  0
 32 81  1  0
 32 82  1  0
M  END
>  <meeko>  (16) 
{"is_sidechain": [false], "intermolecular_energy": 2.731, "internal_energy": -0.839}

$$$$
EPH_relaxed_0001_pdb2pqr_Repair_184_r2_0001_out
     RDKit          3D

 82 86  0  0  0  0  0  0  0  0999 V2000
    4.5570   17.7010   -2.8590 C   0  0  0  0  0  0  0  0  0  0  0  0
    5.1910   16.4540   -2.2360 C   0  0  2  0  0  0  0  0  0  0  0  0
    5.8060   15.5230   -3.3000 C   0  0  0  0  0  0  0  0  0  0  0  0
    5.4310   14.0500   -3.1190 C   0  0  0  0  0  0  0  0  0  0  0  0
    6.0200   13.1910   -4.1960 C   0  0  2  0  0  0  0  0  0  0  0  0
    5.1020   12.8130   -5.2300 O   0  0  0  0  0  0  0  0  0  0  0  0
    5.6230   11.7440   -4.4240 C   0  0  0  0  0  0  0  0  0  0  0  0
    4.5980   11.0720   -3.5660 C   0  0  0  0  0  0  0  0  0  0  0  0
    6.5750   10.8480   -5.1540 C   0  0  0  0  0  0  0  0  0  0  0  0
    4.1520   15.6960   -1.4180 C   0  0  1  0  0  0  0  0  0  0  0  0
    3.5680   16.5470   -0.2580 C   0  0  0  0  0  0  0  0  0  0  0  0
    2.0810   16.1380   -0.1090 C   0  0  0  0  0  0  0  0  0  0  0  0
    1.9450   14.8470   -0.9490 C   0  0  1  0  0  0  0  0  0  0  0  0
    2.4810   13.7090   -0.0250 C   0  0  0  0  0  0  0  0  0  0  0  0
    0.5150   14.5230   -1.4930 C   0  0  2  0  0  0  0  0  0  0  0  0
   -0.5530   14.2770   -0.4130 C   0  0  0  0  0  0  0  0  0  0  0  0
   -0.7040   12.8580    0.0240 C   0  0  0  0  0  0  0  0  0  0  0  0
   -0.2180   11.7840   -0.6250 C   0  0  0  0  0  0  0  0  0  0  0  0
    0.4840   11.9340   -1.9810 C   0  0  1  0  0  0  0  0  0  0  0  0
   -0.0590   10.8670   -2.9670 C   0  0  0  0  0  0  0  0  0  0  0  0
    0.0440    9.4500   -2.4100 C   0  0  0  0  0  0  0  0  0  0  0  0
   -0.7140    9.3250   -1.0910 C   0  0  2  0  0  0  0  0  0  0  0  0
   -2.1130    9.4830   -1.3480 O   0  0  0  0  0  0  0  0  0  0  0  0
   -0.2590   10.3580   -0.0220 C   0  0  0  0  0  0  0  0  0  0  0  0
    1.1630    9.9990    0.4750 C   0  0  0  0  0  0  0  0  0  0  0  0
   -1.1980   10.2180    1.2070 C   0  0  0  0  0  0  0  0  0  0  0  0
    0.4830   13.3970   -2.6040 C   0  0  1  0  0  0  0  0  0  0  0  0
   -0.8200   13.6220   -3.4300 C   0  0  0  0  0  0  0  0  0  0  0  0
    1.6800   13.5240   -3.6190 C   0  0  0  0  0  0  0  0  0  0  0  0
    3.0390   13.9630   -3.0400 C   0  0  0  0  0  0  0  0  0  0  0  0
    2.8830   15.2060   -2.1580 C   0  0  2  0  0  0  0  0  0  0  0  0
    2.3660   16.3740   -3.0650 C   0  0  0  0  0  0  0  0  0  0  0  0
    4.2140   18.3757   -2.0608 H   0  0  0  0  0  0  0  0  0  0  0  0
    5.3014   18.2186   -3.4819 H   0  0  0  0  0  0  0  0  0  0  0  0
    3.7002   17.4045   -3.4819 H   0  0  0  0  0  0  0  0  0  0  0  0
    6.0073   16.7900   -1.5797 H   0  0  0  0  0  0  0  0  0  0  0  0
    5.4585   15.8507   -4.2909 H   0  0  0  0  0  0  0  0  0  0  0  0
    6.8988   15.5920   -3.1947 H   0  0  0  0  0  0  0  0  0  0  0  0
    5.8043   13.7045   -2.1436 H   0  0  0  0  0  0  0  0  0  0  0  0
    4.3356   13.9661   -3.1746 H   0  0  0  0  0  0  0  0  0  0  0  0
    6.9996   13.6779   -4.0805 H   0  0  0  0  0  0  0  0  0  0  0  0
    4.8442   11.2334   -2.5061 H   0  0  0  0  0  0  0  0  0  0  0  0
    3.6057   11.4954   -3.7805 H   0  0  0  0  0  0  0  0  0  0  0  0
    4.5905    9.9931   -3.7805 H   0  0  0  0  0  0  0  0  0  0  0  0
    7.1763   10.2821   -4.4273 H   0  0  0  0  0  0  0  0  0  0  0  0
    6.0085   10.1478   -5.7855 H   0  0  0  0  0  0  0  0  0  0  0  0
    7.2396   11.4559   -5.7855 H   0  0  0  0  0  0  0  0  0  0  0  0
    4.7591   14.8348   -1.1021 H   0  0  0  0  0  0  0  0  0  0  0  0
    4.1130   16.3407    0.6749 H   0  0  0  0  0  0  0  0  0  0  0  0
    3.6628   17.6222   -0.4701 H   0  0  0  0  0  0  0  0  0  0  0  0
    1.8358   15.9428    0.9454 H   0  0  0  0  0  0  0  0  0  0  0  0
    1.3952   16.9291   -0.4463 H   0  0  0  0  0  0  0  0  0  0  0  0
    2.3453   13.9971    1.0279 H   0  0  0  0  0  0  0  0  0  0  0  0
    1.9252   12.7812   -0.2258 H   0  0  0  0  0  0  0  0  0  0  0  0
    3.5503   13.5466   -0.2258 H   0  0  0  0  0  0  0  0  0  0  0  0
    0.2314   15.4648   -1.9856 H   0  0  0  0  0  0  0  0  0  0  0  0
   -0.2884   14.8779    0.4695 H   0  0  0  0  0  0  0  0  0  0  0  0
   -1.5145   14.5592   -0.8666 H   0  0  0  0  0  0  0  0  0  0  0  0
   -1.2596   12.6745    0.9555 H   0  0  0  0  0  0  0  0  0  0  0  0
    1.5528   11.7564   -1.7910 H   0  0  0  0  0  0  0  0  0  0  0  0
   -1.1159   11.0871   -3.1779 H   0  0  0  0  0  0  0  0  0  0  0  0
    0.5537   10.9127   -3.8794 H   0  0  0  0  0  0  0  0  0  0  0  0
   -0.3829    8.7451   -3.1386 H   0  0  0  0  0  0  0  0  0  0  0  0
    1.1044    9.2208   -2.2282 H   0  0  0  0  0  0  0  0  0  0  0  0
   -0.4952    8.3295   -0.6773 H   0  0  0  0  0  0  0  0  0  0  0  0
   -2.5730    8.7230   -0.9520 H   0  0  0  0  0  0  0  0  0  0  0  0
    1.1770    9.9955    1.5749 H   0  0  0  0  0  0  0  0  0  0  0  0
    1.4412    9.0024    0.1016 H   0  0  0  0  0  0  0  0  0  0  0  0
    1.8809   10.7441    0.1016 H   0  0  0  0  0  0  0  0  0  0  0  0
   -0.6079   10.3060    2.1312 H   0  0  0  0  0  0  0  0  0  0  0  0
   -1.9580   11.0128    1.1802 H   0  0  0  0  0  0  0  0  0  0  0  0
   -1.6931    9.2361    1.1802 H   0  0  0  0  0  0  0  0  0  0  0  0
   -1.6679   13.7684   -2.7447 H   0  0  0  0  0  0  0  0  0  0  0  0
   -0.7029   14.5132   -4.0641 H   0  0  0  0  0  0  0  0  0  0  0  0
   -1.0086   12.7431   -4.0641 H   0  0  0  0  0  0  0  0  0  0  0  0
    1.8216   12.5406   -4.0912 H   0  0  0  0  0  0  0  0  0  0  0  0
    1.3877   14.3292   -4.3091 H   0  0  0  0  0  0  0  0  0  0  0  0
    3.4547   13.1430   -2.4360 H   0  0  0  0  0  0  0  0  0  0  0  0
    3.7135   14.2069   -3.8740 H   0  0  0  0  0  0  0  0  0  0  0  0
    2.0020   17.1964   -2.4317 H   0  0  0  0  0  0  0  0  0  0  0  0
    3.1878   16.7364   -3.7001 H   0  0  0  0  0  0  0  0  0  0  0  0
    1.5452   16.0093   -3.7001 H   0  0  0  0  0  0  0  0  0  0  0  0
  1  2  1  0
  2  3  1  0
  3  4  1  0
  4  5  1  0
  5  6  1  0
  6  7  1  0
  7  8  1  0
  7  9  1  0
  2 10  1  0
 10 11  1  0
 11 12  1  0
 12 13  1  0
 13 14  1  1
 13 15  1  0
 15 16  1  0
 16 17  1  0
 17 18  2  0
 18 19  1  0
 19 20  1  0
 20 21  1  0
 21 22  1  0
 22 23  1  0
 22 24  1  0
 24 25  1  0
 24 26  1  0
 19 27  1  0
 27 28  1  6
 27 29  1  0
 29 30  1  0
 30 31  1  0
 31 32  1  6
  7  5  1  0
 31 10  1  0
 31 13  1  0
 27 15  1  0
 24 18  1  0
  1 33  1  0
  1 34  1  0
  1 35  1  0
  2 36  1  1
  3 37  1  0
  3 38  1  0
  4 39  1  0
  4 40  1  0
  5 41  1  6
  8 42  1  0
  8 43  1  0
  8 44  1  0
  9 45  1  0
  9 46  1  0
  9 47  1  0
 10 48  1  1
 11 49  1  0
 11 50  1  0
 12 51  1  0
 12 52  1  0
 14 53  1  0
 14 54  1  0
 14 55  1  0
 15 56  1  6
 16 57  1  0
 16 58  1  0
 17 59  1  0
 19 60  1  1
 20 61  1  0
 20 62  1  0
 21 63  1  0
 21 64  1  0
 22 65  1  1
 23 66  1  0
 25 67  1  0
 25 68  1  0
 25 69  1  0
 26 70  1  0
 26 71  1  0
 26 72  1  0
 28 73  1  0
 28 74  1  0
 28 75  1  0
 29 76  1  0
 29 77  1  0
 30 78  1  0
 30 79  1  0
 32 80  1  0
 32 81  1  0
 32 82  1  0
M  END
>  <meeko>  (17) 
{"is_sidechain": [false], "intermolecular_energy": 2.731, "internal_energy": -0.839}

$$$$
EPH_relaxed_0001_pdb2pqr_Repair_184_r2_0001_out
     RDKit          3D

 82 86  0  0  0  0  0  0  0  0999 V2000
   -0.9490    8.1500   -2.0090 C   0  0  0  0  0  0  0  0  0  0  0  0
   -0.6480    8.8590   -0.6850 C   0  0  2  0  0  0  0  0  0  0  0  0
   -1.8850    9.5850   -0.1200 C   0  0  0  0  0  0  0  0  0  0  0  0
   -1.5880   10.4300    1.1210 C   0  0  0  0  0  0  0  0  0  0  0  0
   -0.1770   10.9350    1.1240 C   0  0  2  0  0  0  0  0  0  0  0  0
    0.6270   10.4600    2.2120 O   0  0  0  0  0  0  0  0  0  0  0  0
    0.3730   11.8740    2.1820 C   0  0  0  0  0  0  0  0  0  0  0  0
   -0.4790   12.3630    3.3110 C   0  0  0  0  0  0  0  0  0  0  0  0
    1.5800   12.6950    1.8520 C   0  0  0  0  0  0  0  0  0  0  0  0
    0.4960    9.8480   -0.8750 C   0  0  1  0  0  0  0  0  0  0  0  0
    1.8230    9.1560   -1.2860 C   0  0  0  0  0  0  0  0  0  0  0  0
    2.5530   10.1270   -2.2500 C   0  0  0  0  0  0  0  0  0  0  0  0
    1.7960   11.4670   -2.1010 C   0  0  1  0  0  0  0  0  0  0  0  0
    2.3770   12.1150   -0.8060 C   0  0  0  0  0  0  0  0  0  0  0  0
    1.8740   12.4430   -3.3200 C   0  0  2  0  0  0  0  0  0  0  0  0
    3.2860   12.9470   -3.6630 C   0  0  0  0  0  0  0  0  0  0  0  0
    3.6950   14.2120   -2.9830 C   0  0  0  0  0  0  0  0  0  0  0  0
    2.8650   15.0660   -2.3560 C   0  0  0  0  0  0  0  0  0  0  0  0
    1.3470   14.8440   -2.3720 C   0  0  1  0  0  0  0  0  0  0  0  0
    0.6330   16.1790   -2.7090 C   0  0  0  0  0  0  0  0  0  0  0  0
    1.0470   17.3150   -1.7790 C   0  0  0  0  0  0  0  0  0  0  0  0
    2.5550   17.5440   -1.8340 C   0  0  2  0  0  0  0  0  0  0  0  0
    2.8990   18.0330   -3.1340 O   0  0  0  0  0  0  0  0  0  0  0  0
    3.3800   16.2650   -1.5210 C   0  0  0  0  0  0  0  0  0  0  0  0
    3.2400   15.9080   -0.0210 C   0  0  0  0  0  0  0  0  0  0  0  0
    4.8800   16.5960   -1.7500 C   0  0  0  0  0  0  0  0  0  0  0  0
    0.8330   13.6340   -3.2640 C   0  0  1  0  0  0  0  0  0  0  0  0
    0.6210   14.1090   -4.7340 C   0  0  0  0  0  0  0  0  0  0  0  0
   -0.5780   13.1720   -2.7400 C   0  0  0  0  0  0  0  0  0  0  0  0
   -0.5900   12.1170   -1.6170 C   0  0  0  0  0  0  0  0  0  0  0  0
    0.3220   10.9360   -1.9640 C   0  0  2  0  0  0  0  0  0  0  0  0
   -0.2510   10.2510   -3.2510 C   0  0  0  0  0  0  0  0  0  0  0  0
   -1.3714    7.1551   -1.8044 H   0  0  0  0  0  0  0  0  0  0  0  0
   -1.6726    8.7438   -2.5867 H   0  0  0  0  0  0  0  0  0  0  0  0
   -0.0192    8.0419   -2.5867 H   0  0  0  0  0  0  0  0  0  0  0  0
   -0.3569    8.0890    0.0446 H   0  0  0  0  0  0  0  0  0  0  0  0
   -2.2874   10.2457   -0.9020 H   0  0  0  0  0  0  0  0  0  0  0  0
   -2.6030    8.8088    0.1835 H   0  0  0  0  0  0  0  0  0  0  0  0
   -2.2742   11.2896    1.1394 H   0  0  0  0  0  0  0  0  0  0  0  0
   -1.7266    9.7954    2.0087 H   0  0  0  0  0  0  0  0  0  0  0  0
   -0.1631   10.9725    0.0247 H   0  0  0  0  0  0  0  0  0  0  0  0
   -0.0092   12.0934    4.2684 H   0  0  0  0  0  0  0  0  0  0  0  0
   -0.5799   13.4565    3.2472 H   0  0  0  0  0  0  0  0  0  0  0  0
   -1.4741   11.8986    3.2472 H   0  0  0  0  0  0  0  0  0  0  0  0
    2.0648   13.0248    2.7827 H   0  0  0  0  0  0  0  0  0  0  0  0
    2.2863   12.0892    1.2654 H   0  0  0  0  0  0  0  0  0  0  0  0
    1.2760   13.5745    1.2654 H   0  0  0  0  0  0  0  0  0  0  0  0
    0.5053   10.3122    0.1222 H   0  0  0  0  0  0  0  0  0  0  0  0
    2.4430    8.9671   -0.3972 H   0  0  0  0  0  0  0  0  0  0  0  0
    1.6302    8.1878   -1.7713 H   0  0  0  0  0  0  0  0  0  0  0  0
    3.6077   10.2425   -1.9597 H   0  0  0  0  0  0  0  0  0  0  0  0
    2.5546    9.7619   -3.2876 H   0  0  0  0  0  0  0  0  0  0  0  0
    1.9389   11.6264    0.0768 H   0  0  0  0  0  0  0  0  0  0  0  0
    3.4696   11.9881   -0.7909 H   0  0  0  0  0  0  0  0  0  0  0  0
    2.1321   13.1873   -0.7909 H   0  0  0  0  0  0  0  0  0  0  0  0
    1.5757   11.7970   -4.1589 H   0  0  0  0  0  0  0  0  0  0  0  0
    4.0043   12.1627   -3.3821 H   0  0  0  0  0  0  0  0  0  0  0  0
    3.2758   13.1703   -4.7400 H   0  0  0  0  0  0  0  0  0  0  0  0
    4.7649   14.4674   -2.9956 H   0  0  0  0  0  0  0  0  0  0  0  0
    1.0752   14.5216   -1.3560 H   0  0  0  0  0  0  0  0  0  0  0  0
    0.8822   16.4610   -3.7426 H   0  0  0  0  0  0  0  0  0  0  0  0
   -0.4481   16.0207   -2.5819 H   0  0  0  0  0  0  0  0  0  0  0  0
    0.5316   18.2371   -2.0857 H   0  0  0  0  0  0  0  0  0  0  0  0
    0.7708   17.0437   -0.7494 H   0  0  0  0  0  0  0  0  0  0  0  0
    2.8068   18.2778   -1.0542 H   0  0  0  0  0  0  0  0  0  0  0  0
    2.0760   18.3050   -3.5740 H   0  0  0  0  0  0  0  0  0  0  0  0
    3.5737   16.7589    0.5911 H   0  0  0  0  0  0  0  0  0  0  0  0
    2.1873   15.6836    0.2058 H   0  0  0  0  0  0  0  0  0  0  0  0
    3.8596   15.0278    0.2058 H   0  0  0  0  0  0  0  0  0  0  0  0
    5.3835   16.7071   -0.7783 H   0  0  0  0  0  0  0  0  0  0  0  0
    5.3530   15.7806   -2.3169 H   0  0  0  0  0  0  0  0  0  0  0  0
    4.9659   17.5347   -2.3169 H   0  0  0  0  0  0  0  0  0  0  0  0
    0.1727   15.1135   -4.7337 H   0  0  0  0  0  0  0  0  0  0  0  0
    1.5905   14.1403   -5.2526 H   0  0  0  0  0  0  0  0  0  0  0  0
   -0.0498   13.4082   -5.2526 H   0  0  0  0  0  0  0  0  0  0  0  0
   -1.1021   14.0634   -2.3649 H   0  0  0  0  0  0  0  0  0  0  0  0
   -1.0587   12.6829   -3.6000 H   0  0  0  0  0  0  0  0  0  0  0  0
   -0.2384   12.5810   -0.6837 H   0  0  0  0  0  0  0  0  0  0  0  0
   -1.6177   11.7432   -1.4980 H   0  0  0  0  0  0  0  0  0  0  0  0
   -0.9318    9.4371   -2.9610 H   0  0  0  0  0  0  0  0  0  0  0  0
   -0.8007   10.9937   -3.8479 H   0  0  0  0  0  0  0  0  0  0  0  0
    0.5771    9.8412   -3.8479 H   0  0  0  0  0  0  0  0  0  0  0  0
  1  2  1  0
  2  3  1  0
  3  4  1  0
  4  5  1  0
  5  6  1  0
  6  7  1  0
  7  8  1  0
  7  9  1  0
  2 10  1  0
 10 11  1  0
 11 12  1  0
 12 13  1  0
 13 14  1  1
 13 15  1  0
 15 16  1  0
 16 17  1  0
 17 18  2  0
 18 19  1  0
 19 20  1  0
 20 21  1  0
 21 22  1  0
 22 23  1  0
 22 24  1  0
 24 25  1  0
 24 26  1  0
 19 27  1  0
 27 28  1  6
 27 29  1  0
 29 30  1  0
 30 31  1  0
 31 32  1  6
  7  5  1  0
 31 10  1  0
 31 13  1  0
 27 15  1  0
 24 18  1  0
  1 33  1  0
  1 34  1  0
  1 35  1  0
  2 36  1  1
  3 37  1  0
  3 38  1  0
  4 39  1  0
  4 40  1  0
  5 41  1  6
  8 42  1  0
  8 43  1  0
  8 44  1  0
  9 45  1  0
  9 46  1  0
  9 47  1  0
 10 48  1  1
 11 49  1  0
 11 50  1  0
 12 51  1  0
 12 52  1  0
 14 53  1  0
 14 54  1  0
 14 55  1  0
 15 56  1  6
 16 57  1  0
 16 58  1  0
 17 59  1  0
 19 60  1  1
 20 61  1  0
 20 62  1  0
 21 63  1  0
 21 64  1  0
 22 65  1  1
 23 66  1  0
 25 67  1  0
 25 68  1  0
 25 69  1  0
 26 70  1  0
 26 71  1  0
 26 72  1  0
 28 73  1  0
 28 74  1  0
 28 75  1  0
 29 76  1  0
 29 77  1  0
 30 78  1  0
 30 79  1  0
 32 80  1  0
 32 81  1  0
 32 82  1  0
M  END
>  <meeko>  (18) 
{"is_sidechain": [false], "intermolecular_energy": 2.731, "internal_energy": -0.839}

$$$$
