EPH_relaxed_0001_pdb2pqr_Repair_237_r2_0001_out
     RDKit          3D

 82 86  0  0  0  0  0  0  0  0999 V2000
   -1.5910    8.5730   -1.8130 C   0  0  0  0  0  0  0  0  0  0  0  0
   -1.9950    9.1540   -0.4550 C   0  0  2  0  0  0  0  0  0  0  0  0
   -3.4830    9.5560   -0.4150 C   0  0  0  0  0  0  0  0  0  0  0  0
   -4.4390    8.3660   -0.2880 C   0  0  0  0  0  0  0  0  0  0  0  0
   -5.0740    8.0230   -1.6020 C   0  0  2  0  0  0  0  0  0  0  0  0
   -6.3380    8.6560   -1.8390 O   0  0  0  0  0  0  0  0  0  0  0  0
   -6.3570    7.2230   -1.7270 C   0  0  0  0  0  0  0  0  0  0  0  0
   -7.0820    6.7170   -0.5200 C   0  0  0  0  0  0  0  0  0  0  0  0
   -6.6390    6.5220   -3.0190 C   0  0  0  0  0  0  0  0  0  0  0  0
   -1.1220   10.3580   -0.1230 C   0  0  1  0  0  0  0  0  0  0  0  0
   -0.0420   10.0370    0.9450 C   0  0  0  0  0  0  0  0  0  0  0  0
    1.2120   10.8700    0.5770 C   0  0  0  0  0  0  0  0  0  0  0  0
    0.7120   11.8830   -0.4790 C   0  0  1  0  0  0  0  0  0  0  0  0
    0.0400   13.0250    0.3460 C   0  0  0  0  0  0  0  0  0  0  0  0
    1.7890   12.4410   -1.4660 C   0  0  2  0  0  0  0  0  0  0  0  0
    2.9220   13.2470   -0.8080 C   0  0  0  0  0  0  0  0  0  0  0  0
    2.6750   14.7150   -0.6910 C   0  0  0  0  0  0  0  0  0  0  0  0
    1.7220   15.4030   -1.3470 C   0  0  0  0  0  0  0  0  0  0  0  0
    0.8310   14.7140   -2.3890 C   0  0  1  0  0  0  0  0  0  0  0  0
    0.7470   15.5960   -3.6630 C   0  0  0  0  0  0  0  0  0  0  0  0
    0.2950   17.0210   -3.3590 C   0  0  0  0  0  0  0  0  0  0  0  0
    1.2390   17.6920   -2.3640 C   0  0  2  0  0  0  0  0  0  0  0  0
    2.5150   17.8710   -2.9870 O   0  0  0  0  0  0  0  0  0  0  0  0
    1.4100   16.8890   -1.0440 C   0  0  0  0  0  0  0  0  0  0  0  0
    0.0990   16.9520   -0.2230 C   0  0  0  0  0  0  0  0  0  0  0  0
    2.4930   17.6000   -0.1890 C   0  0  0  0  0  0  0  0  0  0  0  0
    1.1900   13.2010   -2.7180 C   0  0  1  0  0  0  0  0  0  0  0  0
    2.2750   13.1420   -3.8360 C   0  0  0  0  0  0  0  0  0  0  0  0
   -0.0860   12.4850   -3.2980 C   0  0  0  0  0  0  0  0  0  0  0  0
   -1.0510   11.8490   -2.2790 C   0  0  0  0  0  0  0  0  0  0  0  0
   -0.2920   10.9740   -1.2770 C   0  0  2  0  0  0  0  0  0  0  0  0
    0.3770    9.8030   -2.0760 C   0  0  0  0  0  0  0  0  0  0  0  0
   -0.9692    7.6788   -1.6589 H   0  0  0  0  0  0  0  0  0  0  0  0
   -2.4942    8.2987   -2.3778 H   0  0  0  0  0  0  0  0  0  0  0  0
   -1.0194    9.3242   -2.3778 H   0  0  0  0  0  0  0  0  0  0  0  0
   -1.8446    8.3670    0.2987 H   0  0  0  0  0  0  0  0  0  0  0  0
   -3.6400   10.2211    0.4469 H   0  0  0  0  0  0  0  0  0  0  0  0
   -3.7087   10.0490   -1.3721 H   0  0  0  0  0  0  0  0  0  0  0  0
   -3.8759    7.4933    0.0745 H   0  0  0  0  0  0  0  0  0  0  0  0
   -5.2370    8.6407    0.4175 H   0  0  0  0  0  0  0  0  0  0  0  0
   -4.0880    7.9148   -2.0775 H   0  0  0  0  0  0  0  0  0  0  0  0
   -6.5736    7.0718    0.3886 H   0  0  0  0  0  0  0  0  0  0  0  0
   -8.1167    7.0901   -0.5306 H   0  0  0  0  0  0  0  0  0  0  0  0
   -7.0887    5.6171   -0.5306 H   0  0  0  0  0  0  0  0  0  0  0  0
   -7.0422    5.5197   -2.8120 H   0  0  0  0  0  0  0  0  0  0  0  0
   -7.3743    7.1007   -3.5973 H   0  0  0  0  0  0  0  0  0  0  0  0
   -5.7078    6.4303   -3.5973 H   0  0  0  0  0  0  0  0  0  0  0  0
   -1.8994   11.0654    0.2014 H   0  0  0  0  0  0  0  0  0  0  0  0
   -0.4032   10.3179    1.9453 H   0  0  0  0  0  0  0  0  0  0  0  0
    0.1892    8.9617    0.9622 H   0  0  0  0  0  0  0  0  0  0  0  0
    1.6040   11.3931    1.4617 H   0  0  0  0  0  0  0  0  0  0  0  0
    2.0324   10.2431    0.1977 H   0  0  0  0  0  0  0  0  0  0  0  0
    0.1601   12.8208    1.4202 H   0  0  0  0  0  0  0  0  0  0  0  0
    0.5172   13.9850    0.0996 H   0  0  0  0  0  0  0  0  0  0  0  0
   -1.0309   13.0740    0.0996 H   0  0  0  0  0  0  0  0  0  0  0  0
    2.2586   11.5217   -1.8461 H   0  0  0  0  0  0  0  0  0  0  0  0
    3.0801   12.8471    0.2045 H   0  0  0  0  0  0  0  0  0  0  0  0
    3.7963   13.1368   -1.4664 H   0  0  0  0  0  0  0  0  0  0  0  0
    3.3273   15.2824   -0.0109 H   0  0  0  0  0  0  0  0  0  0  0  0
   -0.1638   14.6274   -1.9277 H   0  0  0  0  0  0  0  0  0  0  0  0
    1.7413   15.6339   -4.1319 H   0  0  0  0  0  0  0  0  0  0  0  0
    0.0005   15.1446   -4.3331 H   0  0  0  0  0  0  0  0  0  0  0  0
    0.2839   17.6022   -4.2929 H   0  0  0  0  0  0  0  0  0  0  0  0
   -0.7118   16.9835   -2.9175 H   0  0  0  0  0  0  0  0  0  0  0  0
    0.7930   18.6587   -2.0873 H   0  0  0  0  0  0  0  0  0  0  0  0
    2.3610   18.0130   -3.9360 H   0  0  0  0  0  0  0  0  0  0  0  0
    0.3379   16.9405    0.8507 H   0  0  0  0  0  0  0  0  0  0  0  0
   -0.4431   17.8772   -0.4682 H   0  0  0  0  0  0  0  0  0  0  0  0
   -0.5293   16.0830   -0.4682 H   0  0  0  0  0  0  0  0  0  0  0  0
    2.2713   17.4544    0.8785 H   0  0  0  0  0  0  0  0  0  0  0  0
    3.4805   17.1739   -0.4198 H   0  0  0  0  0  0  0  0  0  0  0  0
    2.4947   18.6755   -0.4198 H   0  0  0  0  0  0  0  0  0  0  0  0
    3.2728   13.0877   -3.3761 H   0  0  0  0  0  0  0  0  0  0  0  0
    2.1101   12.2515   -4.4603 H   0  0  0  0  0  0  0  0  0  0  0  0
    2.2076   14.0451   -4.4603 H   0  0  0  0  0  0  0  0  0  0  0  0
   -0.6539   13.2316   -3.8726 H   0  0  0  0  0  0  0  0  0  0  0  0
    0.3015   11.6432   -3.8907 H   0  0  0  0  0  0  0  0  0  0  0  0
   -1.5761   12.6473   -1.7340 H   0  0  0  0  0  0  0  0  0  0  0  0
   -1.7688   11.2173   -2.8228 H   0  0  0  0  0  0  0  0  0  0  0  0
    0.7957    9.0701   -1.3706 H   0  0  0  0  0  0  0  0  0  0  0  0
   -0.3775    9.3131   -2.7090 H   0  0  0  0  0  0  0  0  0  0  0  0
    1.1822   10.2041   -2.7090 H   0  0  0  0  0  0  0  0  0  0  0  0
  1  2  1  0
  2  3  1  0
  3  4  1  0
  4  5  1  0
  5  6  1  0
  6  7  1  0
  7  8  1  0
  7  9  1  0
  2 10  1  0
 10 11  1  0
 11 12  1  0
 12 13  1  0
 13 14  1  1
 13 15  1  0
 15 16  1  0
 16 17  1  0
 17 18  2  0
 18 19  1  0
 19 20  1  0
 20 21  1  0
 21 22  1  0
 22 23  1  0
 22 24  1  0
 24 25  1  0
 24 26  1  0
 19 27  1  0
 27 28  1  6
 27 29  1  0
 29 30  1  0
 30 31  1  0
 31 32  1  6
  7  5  1  0
 31 10  1  0
 31 13  1  0
 27 15  1  0
 24 18  1  0
  1 33  1  0
  1 34  1  0
  1 35  1  0
  2 36  1  1
  3 37  1  0
  3 38  1  0
  4 39  1  0
  4 40  1  0
  5 41  1  6
  8 42  1  0
  8 43  1  0
  8 44  1  0
  9 45  1  0
  9 46  1  0
  9 47  1  0
 10 48  1  1
 11 49  1  0
 11 50  1  0
 12 51  1  0
 12 52  1  0
 14 53  1  0
 14 54  1  0
 14 55  1  0
 15 56  1  6
 16 57  1  0
 16 58  1  0
 17 59  1  0
 19 60  1  1
 20 61  1  0
 20 62  1  0
 21 63  1  0
 21 64  1  0
 22 65  1  1
 23 66  1  0
 25 67  1  0
 25 68  1  0
 25 69  1  0
 26 70  1  0
 26 71  1  0
 26 72  1  0
 28 73  1  0
 28 74  1  0
 28 75  1  0
 29 76  1  0
 29 77  1  0
 30 78  1  0
 30 79  1  0
 32 80  1  0
 32 81  1  0
 32 82  1  0
M  END
>  <meeko>  (1) 
{"is_sidechain": [false], "intermolecular_energy": 2.731, "internal_energy": -0.839}

$$$$
EPH_relaxed_0001_pdb2pqr_Repair_237_r2_0001_out
     RDKit          3D

 82 86  0  0  0  0  0  0  0  0999 V2000
    4.2250   17.5550   -0.6230 C   0  0  0  0  0  0  0  0  0  0  0  0
    2.8630   18.1200   -0.2070 C   0  0  2  0  0  0  0  0  0  0  0  0
    2.9150   18.8010    1.1750 C   0  0  0  0  0  0  0  0  0  0  0  0
    4.3050   18.7890    1.8160 C   0  0  0  0  0  0  0  0  0  0  0  0
    4.2750   19.3250    3.2150 C   0  0  2  0  0  0  0  0  0  0  0  0
    5.3660   20.1940    3.5470 O   0  0  0  0  0  0  0  0  0  0  0  0
    5.2970   18.9570    4.2750 C   0  0  0  0  0  0  0  0  0  0  0  0
    6.4210   18.0150    3.9800 C   0  0  0  0  0  0  0  0  0  0  0  0
    4.9270   19.1260    5.7150 C   0  0  0  0  0  0  0  0  0  0  0  0
    1.8190   17.0100   -0.2030 C   0  0  1  0  0  0  0  0  0  0  0  0
    0.3910   17.5310   -0.5150 C   0  0  0  0  0  0  0  0  0  0  0  0
   -0.3240   16.4190   -1.3240 C   0  0  0  0  0  0  0  0  0  0  0  0
    0.5840   15.1770   -1.1670 C   0  0  1  0  0  0  0  0  0  0  0  0
    0.2090   14.5790    0.2250 C   0  0  0  0  0  0  0  0  0  0  0  0
    0.4890   14.1040   -2.3010 C   0  0  2  0  0  0  0  0  0  0  0  0
   -0.8890   13.4360   -2.4530 C   0  0  0  0  0  0  0  0  0  0  0  0
   -1.0880   12.1950   -1.6470 C   0  0  0  0  0  0  0  0  0  0  0  0
   -0.1120   11.4810   -1.0570 C   0  0  0  0  0  0  0  0  0  0  0  0
    1.3640   11.8510   -1.2530 C   0  0  1  0  0  0  0  0  0  0  0  0
    2.1800   10.5710   -1.5730 C   0  0  0  0  0  0  0  0  0  0  0  0
    1.9870    9.4770   -0.5280 C   0  0  0  0  0  0  0  0  0  0  0  0
    0.5140    9.0950   -0.4040 C   0  0  2  0  0  0  0  0  0  0  0  0
    0.0950    8.4730   -1.6220 O   0  0  0  0  0  0  0  0  0  0  0  0
   -0.4080   10.3070   -0.0910 C   0  0  0  0  0  0  0  0  0  0  0  0
   -0.1560   10.7930    1.3570 C   0  0  0  0  0  0  0  0  0  0  0  0
   -1.8790    9.8100   -0.1320 C   0  0  0  0  0  0  0  0  0  0  0  0
    1.6520   13.0310   -2.2770 C   0  0  1  0  0  0  0  0  0  0  0  0
    1.7640   12.4640   -3.7250 C   0  0  0  0  0  0  0  0  0  0  0  0
    3.0510   13.6720   -1.9420 C   0  0  0  0  0  0  0  0  0  0  0  0
    3.0630   14.8090   -0.9020 C   0  0  0  0  0  0  0  0  0  0  0  0
    1.9980   15.8610   -1.2270 C   0  0  2  0  0  0  0  0  0  0  0  0
    2.3610   16.4960   -2.6130 C   0  0  0  0  0  0  0  0  0  0  0  0
    4.8111   17.3119    0.2756 H   0  0  0  0  0  0  0  0  0  0  0  0
    4.0768   16.6441   -1.2216 H   0  0  0  0  0  0  0  0  0  0  0  0
    4.7651   18.3033   -1.2216 H   0  0  0  0  0  0  0  0  0  0  0  0
    2.5844   18.8886   -0.9430 H   0  0  0  0  0  0  0  0  0  0  0  0
    2.5954   19.8471    1.0587 H   0  0  0  0  0  0  0  0  0  0  0  0
    2.2500   18.2299    1.8396 H   0  0  0  0  0  0  0  0  0  0  0  0
    4.6782   17.7545    1.8386 H   0  0  0  0  0  0  0  0  0  0  0  0
    4.9647   19.4332    1.2161 H   0  0  0  0  0  0  0  0  0  0  0  0
    3.1750   19.3205    3.2178 H   0  0  0  0  0  0  0  0  0  0  0  0
    6.8533   17.6527    4.9244 H   0  0  0  0  0  0  0  0  0  0  0  0
    6.0412   17.1614    3.3993 H   0  0  0  0  0  0  0  0  0  0  0  0
    7.1950   18.5382    3.3993 H   0  0  0  0  0  0  0  0  0  0  0  0
    5.7442   18.7528    6.3498 H   0  0  0  0  0  0  0  0  0  0  0  0
    4.7556   20.1917    5.9269 H   0  0  0  0  0  0  0  0  0  0  0  0
    4.0093   18.5578    5.9269 H   0  0  0  0  0  0  0  0  0  0  0  0
    1.9604   16.6286    0.8190 H   0  0  0  0  0  0  0  0  0  0  0  0
   -0.1531   17.7282    0.4205 H   0  0  0  0  0  0  0  0  0  0  0  0
    0.4294   18.4712   -1.0847 H   0  0  0  0  0  0  0  0  0  0  0  0
   -1.3252   16.2225   -0.9129 H   0  0  0  0  0  0  0  0  0  0  0  0
   -0.4701   16.6983   -2.3779 H   0  0  0  0  0  0  0  0  0  0  0  0
    0.6123   15.2221    1.0211 H   0  0  0  0  0  0  0  0  0  0  0  0
   -0.8857   14.5239    0.3175 H   0  0  0  0  0  0  0  0  0  0  0  0
    0.6361   13.5695    0.3175 H   0  0  0  0  0  0  0  0  0  0  0  0
    0.6304   14.7076   -3.2097 H   0  0  0  0  0  0  0  0  0  0  0  0
   -1.6553   14.1647   -2.1501 H   0  0  0  0  0  0  0  0  0  0  0  0
   -0.9645   13.1300   -3.5069 H   0  0  0  0  0  0  0  0  0  0  0  0
   -2.1199   11.8339   -1.5252 H   0  0  0  0  0  0  0  0  0  0  0  0
    1.7008   12.2787   -0.2971 H   0  0  0  0  0  0  0  0  0  0  0  0
    1.8595   10.1842   -2.5516 H   0  0  0  0  0  0  0  0  0  0  0  0
    3.2450   10.8462   -1.5750 H   0  0  0  0  0  0  0  0  0  0  0  0
    2.5653    8.5896   -0.8247 H   0  0  0  0  0  0  0  0  0  0  0  0
    2.3349    9.8551    0.4446 H   0  0  0  0  0  0  0  0  0  0  0  0
    0.4224    8.4033    0.4464 H   0  0  0  0  0  0  0  0  0  0  0  0
   -0.8480    8.2520   -1.5300 H   0  0  0  0  0  0  0  0  0  0  0  0
   -0.5429   10.0469    2.0667 H   0  0  0  0  0  0  0  0  0  0  0  0
    0.9243   10.9253    1.5166 H   0  0  0  0  0  0  0  0  0  0  0  0
   -0.6704   11.7521    1.5166 H   0  0  0  0  0  0  0  0  0  0  0  0
   -2.2522    9.6839    0.8951 H   0  0  0  0  0  0  0  0  0  0  0  0
   -2.5008   10.5479   -0.6600 H   0  0  0  0  0  0  0  0  0  0  0  0
   -1.9258    8.8462   -0.6600 H   0  0  0  0  0  0  0  0  0  0  0  0
    1.9770   11.3857   -3.6811 H   0  0  0  0  0  0  0  0  0  0  0  0
    0.8159   12.6291   -4.2578 H   0  0  0  0  0  0  0  0  0  0  0  0
    2.5781   12.9772   -4.2578 H   0  0  0  0  0  0  0  0  0  0  0  0
    3.7030   12.8699   -1.5658 H   0  0  0  0  0  0  0  0  0  0  0  0
    3.3869   14.1369   -2.8807 H   0  0  0  0  0  0  0  0  0  0  0  0
    2.8606   14.3879    0.0938 H   0  0  0  0  0  0  0  0  0  0  0  0
    4.0509   15.2923   -0.9223 H   0  0  0  0  0  0  0  0  0  0  0  0
    2.9011   17.4408   -2.4532 H   0  0  0  0  0  0  0  0  0  0  0  0
    2.9981   15.8007   -3.1793 H   0  0  0  0  0  0  0  0  0  0  0  0
    1.4386   16.6922   -3.1793 H   0  0  0  0  0  0  0  0  0  0  0  0
  1  2  1  0
  2  3  1  0
  3  4  1  0
  4  5  1  0
  5  6  1  0
  6  7  1  0
  7  8  1  0
  7  9  1  0
  2 10  1  0
 10 11  1  0
 11 12  1  0
 12 13  1  0
 13 14  1  1
 13 15  1  0
 15 16  1  0
 16 17  1  0
 17 18  2  0
 18 19  1  0
 19 20  1  0
 20 21  1  0
 21 22  1  0
 22 23  1  0
 22 24  1  0
 24 25  1  0
 24 26  1  0
 19 27  1  0
 27 28  1  6
 27 29  1  0
 29 30  1  0
 30 31  1  0
 31 32  1  6
  7  5  1  0
 31 10  1  0
 31 13  1  0
 27 15  1  0
 24 18  1  0
  1 33  1  0
  1 34  1  0
  1 35  1  0
  2 36  1  6
  3 37  1  0
  3 38  1  0
  4 39  1  0
  4 40  1  0
  5 41  1  1
  8 42  1  0
  8 43  1  0
  8 44  1  0
  9 45  1  0
  9 46  1  0
  9 47  1  0
 10 48  1  1
 11 49  1  0
 11 50  1  0
 12 51  1  0
 12 52  1  0
 14 53  1  0
 14 54  1  0
 14 55  1  0
 15 56  1  6
 16 57  1  0
 16 58  1  0
 17 59  1  0
 19 60  1  1
 20 61  1  0
 20 62  1  0
 21 63  1  0
 21 64  1  0
 22 65  1  1
 23 66  1  0
 25 67  1  0
 25 68  1  0
 25 69  1  0
 26 70  1  0
 26 71  1  0
 26 72  1  0
 28 73  1  0
 28 74  1  0
 28 75  1  0
 29 76  1  0
 29 77  1  0
 30 78  1  0
 30 79  1  0
 32 80  1  0
 32 81  1  0
 32 82  1  0
M  END
>  <meeko>  (2) 
{"is_sidechain": [false], "intermolecular_energy": 2.731, "internal_energy": -0.839}

$$$$
EPH_relaxed_0001_pdb2pqr_Repair_237_r2_0001_out
     RDKit          3D

 82 86  0  0  0  0  0  0  0  0999 V2000
    2.4960   18.0180   -2.6350 C   0  0  0  0  0  0  0  0  0  0  0  0
    1.1690   17.6790   -1.9510 C   0  0  2  0  0  0  0  0  0  0  0  0
    1.2740   17.7470   -0.4140 C   0  0  0  0  0  0  0  0  0  0  0  0
    0.9110   19.1170    0.1670 C   0  0  0  0  0  0  0  0  0  0  0  0
   -0.5500   19.2140    0.4860 C   0  0  2  0  0  0  0  0  0  0  0  0
   -1.3790   18.2730   -0.2090 O   0  0  0  0  0  0  0  0  0  0  0  0
   -1.5980   19.6590   -0.5170 C   0  0  0  0  0  0  0  0  0  0  0  0
   -1.2270   20.0380   -1.9160 C   0  0  0  0  0  0  0  0  0  0  0  0
   -2.8990   20.1930   -0.0030 C   0  0  0  0  0  0  0  0  0  0  0  0
    0.7030   16.2920   -2.3790 C   0  0  1  0  0  0  0  0  0  0  0  0
    0.7700   16.0880   -3.9160 C   0  0  0  0  0  0  0  0  0  0  0  0
    1.1550   14.6060   -4.1550 C   0  0  0  0  0  0  0  0  0  0  0  0
    0.9730   13.9290   -2.7760 C   0  0  1  0  0  0  0  0  0  0  0  0
   -0.5580   13.6450   -2.6680 C   0  0  0  0  0  0  0  0  0  0  0  0
    1.8180   12.6390   -2.5220 C   0  0  2  0  0  0  0  0  0  0  0  0
    1.5110   11.4610   -3.4630 C   0  0  0  0  0  0  0  0  0  0  0  0
    0.4530   10.5230   -2.9860 C   0  0  0  0  0  0  0  0  0  0  0  0
   -0.0230   10.4540   -1.7290 C   0  0  0  0  0  0  0  0  0  0  0  0
    0.5800   11.3140   -0.6110 C   0  0  1  0  0  0  0  0  0  0  0  0
    0.8230   10.4350    0.6440 C   0  0  0  0  0  0  0  0  0  0  0  0
   -0.4330    9.6940    1.0910 C   0  0  0  0  0  0  0  0  0  0  0  0
   -0.9700    8.8050   -0.0280 C   0  0  2  0  0  0  0  0  0  0  0  0
   -0.0300    7.7550   -0.2730 O   0  0  0  0  0  0  0  0  0  0  0  0
   -1.2430    9.5800   -1.3480 C   0  0  0  0  0  0  0  0  0  0  0  0
   -2.4680   10.5090   -1.1610 C   0  0  0  0  0  0  0  0  0  0  0  0
   -1.6440    8.5460   -2.4340 C   0  0  0  0  0  0  0  0  0  0  0  0
    1.8550   12.1750   -1.0090 C   0  0  1  0  0  0  0  0  0  0  0  0
    3.1480   11.3210   -0.8360 C   0  0  0  0  0  0  0  0  0  0  0  0
    1.9870   13.3880   -0.0140 C   0  0  0  0  0  0  0  0  0  0  0  0
    1.2240   14.6750   -0.3820 C   0  0  0  0  0  0  0  0  0  0  0  0
    1.4940   15.0760   -1.8350 C   0  0  2  0  0  0  0  0  0  0  0  0
    3.0230   15.3900   -1.9690 C   0  0  0  0  0  0  0  0  0  0  0  0
    3.2628   18.2139   -1.8710 H   0  0  0  0  0  0  0  0  0  0  0  0
    2.8117   17.1716   -3.2627 H   0  0  0  0  0  0  0  0  0  0  0  0
    2.3671   18.9120   -3.2627 H   0  0  0  0  0  0  0  0  0  0  0  0
    0.4326   18.4330   -2.2660 H   0  0  0  0  0  0  0  0  0  0  0  0
    0.5933   16.9965    0.0143 H   0  0  0  0  0  0  0  0  0  0  0  0
    2.3257   17.5557   -0.1544 H   0  0  0  0  0  0  0  0  0  0  0  0
    1.4887   19.2776    1.0892 H   0  0  0  0  0  0  0  0  0  0  0  0
    1.1493   19.8829   -0.5857 H   0  0  0  0  0  0  0  0  0  0  0  0
   -0.3277   19.5375    1.5136 H   0  0  0  0  0  0  0  0  0  0  0  0
   -0.4577   20.8239   -1.8912 H   0  0  0  0  0  0  0  0  0  0  0  0
   -0.8334   19.1561   -2.4427 H   0  0  0  0  0  0  0  0  0  0  0  0
   -2.1171   20.4127   -2.4427 H   0  0  0  0  0  0  0  0  0  0  0  0
   -2.8882   20.1886    1.0969 H   0  0  0  0  0  0  0  0  0  0  0  0
   -3.0412   21.2222   -0.3642 H   0  0  0  0  0  0  0  0  0  0  0  0
   -3.7233   19.5605   -0.3642 H   0  0  0  0  0  0  0  0  0  0  0  0
   -0.3122   16.2997   -1.9555 H   0  0  0  0  0  0  0  0  0  0  0  0
   -0.2089   16.3027   -4.3695 H   0  0  0  0  0  0  0  0  0  0  0  0
    1.5068   16.7655   -4.3722 H   0  0  0  0  0  0  0  0  0  0  0  0
    0.4913   14.1480   -4.9032 H   0  0  0  0  0  0  0  0  0  0  0  0
    2.1793   14.4979   -4.5412 H   0  0  0  0  0  0  0  0  0  0  0  0
   -0.8471   13.5914   -1.6080 H   0  0  0  0  0  0  0  0  0  0  0  0
   -1.1167   14.4548   -3.1599 H   0  0  0  0  0  0  0  0  0  0  0  0
   -0.7891   12.6887   -3.1599 H   0  0  0  0  0  0  0  0  0  0  0  0
    2.8349   12.9700   -2.7797 H   0  0  0  0  0  0  0  0  0  0  0  0
    1.1883   11.8738   -4.4302 H   0  0  0  0  0  0  0  0  0  0  0  0
    2.4369   10.8702   -3.5229 H   0  0  0  0  0  0  0  0  0  0  0  0
    0.0257    9.8288   -3.7246 H   0  0  0  0  0  0  0  0  0  0  0  0
   -0.1683   12.0882   -0.3858 H   0  0  0  0  0  0  0  0  0  0  0  0
    1.6042    9.6964    0.4113 H   0  0  0  0  0  0  0  0  0  0  0  0
    1.1275   11.1013    1.4646 H   0  0  0  0  0  0  0  0  0  0  0  0
   -0.1907    9.0684    1.9628 H   0  0  0  0  0  0  0  0  0  0  0  0
   -1.2035   10.4347    1.3510 H   0  0  0  0  0  0  0  0  0  0  0  0
   -1.9378    8.4024    0.3056 H   0  0  0  0  0  0  0  0  0  0  0  0
    0.5470    8.0400   -1.0020 H   0  0  0  0  0  0  0  0  0  0  0  0
   -2.6582   10.6533   -0.0872 H   0  0  0  0  0  0  0  0  0  0  0  0
   -2.2652   11.4824   -1.6315 H   0  0  0  0  0  0  0  0  0  0  0  0
   -3.3506   10.0511   -1.6315 H   0  0  0  0  0  0  0  0  0  0  0  0
   -2.0011    7.6252   -1.9495 H   0  0  0  0  0  0  0  0  0  0  0  0
   -2.4449    8.9647   -3.0610 H   0  0  0  0  0  0  0  0  0  0  0  0
   -0.7702    8.3153   -3.0610 H   0  0  0  0  0  0  0  0  0  0  0  0
    3.3560   11.1836    0.2354 H   0  0  0  0  0  0  0  0  0  0  0  0
    3.0051   10.3390   -1.3107 H   0  0  0  0  0  0  0  0  0  0  0  0
    3.9951   11.8379   -1.3107 H   0  0  0  0  0  0  0  0  0  0  0  0
    1.6216   13.0539    0.9683 H   0  0  0  0  0  0  0  0  0  0  0  0
    3.0508   13.6668   -0.0398 H   0  0  0  0  0  0  0  0  0  0  0  0
    0.1454   14.5039   -0.2505 H   0  0  0  0  0  0  0  0  0  0  0  0
    1.5682   15.4869    0.2756 H   0  0  0  0  0  0  0  0  0  0  0  0
    3.4677   15.4813   -0.9671 H   0  0  0  0  0  0  0  0  0  0  0  0
    3.5181   14.5748   -2.5170 H   0  0  0  0  0  0  0  0  0  0  0  0
    3.1567   16.3344   -2.5170 H   0  0  0  0  0  0  0  0  0  0  0  0
  1  2  1  0
  2  3  1  0
  3  4  1  0
  4  5  1  0
  5  6  1  0
  6  7  1  0
  7  8  1  0
  7  9  1  0
  2 10  1  0
 10 11  1  0
 11 12  1  0
 12 13  1  0
 13 14  1  1
 13 15  1  0
 15 16  1  0
 16 17  1  0
 17 18  2  0
 18 19  1  0
 19 20  1  0
 20 21  1  0
 21 22  1  0
 22 23  1  0
 22 24  1  0
 24 25  1  0
 24 26  1  0
 19 27  1  0
 27 28  1  6
 27 29  1  0
 29 30  1  0
 30 31  1  0
 31 32  1  1
  7  5  1  0
 31 10  1  0
 31 13  1  0
 27 15  1  0
 24 18  1  0
  1 33  1  0
  1 34  1  0
  1 35  1  0
  2 36  1  6
  3 37  1  0
  3 38  1  0
  4 39  1  0
  4 40  1  0
  5 41  1  1
  8 42  1  0
  8 43  1  0
  8 44  1  0
  9 45  1  0
  9 46  1  0
  9 47  1  0
 10 48  1  1
 11 49  1  0
 11 50  1  0
 12 51  1  0
 12 52  1  0
 14 53  1  0
 14 54  1  0
 14 55  1  0
 15 56  1  6
 16 57  1  0
 16 58  1  0
 17 59  1  0
 19 60  1  1
 20 61  1  0
 20 62  1  0
 21 63  1  0
 21 64  1  0
 22 65  1  1
 23 66  1  0
 25 67  1  0
 25 68  1  0
 25 69  1  0
 26 70  1  0
 26 71  1  0
 26 72  1  0
 28 73  1  0
 28 74  1  0
 28 75  1  0
 29 76  1  0
 29 77  1  0
 30 78  1  0
 30 79  1  0
 32 80  1  0
 32 81  1  0
 32 82  1  0
M  END
>  <meeko>  (3) 
{"is_sidechain": [false], "intermolecular_energy": 2.731, "internal_energy": -0.839}

$$$$
EPH_relaxed_0001_pdb2pqr_Repair_237_r2_0001_out
     RDKit          3D

 82 86  0  0  0  0  0  0  0  0999 V2000
    2.2070   18.0360   -2.6290 C   0  0  0  0  0  0  0  0  0  0  0  0
    0.6830   17.8860   -2.6420 C   0  0  2  0  0  0  0  0  0  0  0  0
    0.0420   18.3470   -1.3180 C   0  0  0  0  0  0  0  0  0  0  0  0
    0.8300   17.9280   -0.0740 C   0  0  0  0  0  0  0  0  0  0  0  0
    1.3570   19.1150    0.6740 C   0  0  2  0  0  0  0  0  0  0  0  0
    2.2650   19.9380   -0.0700 O   0  0  0  0  0  0  0  0  0  0  0  0
    2.8100   19.2710    1.0800 C   0  0  0  0  0  0  0  0  0  0  0  0
    3.8290   18.2250    0.7500 C   0  0  0  0  0  0  0  0  0  0  0  0
    3.1430   20.1940    2.2100 C   0  0  0  0  0  0  0  0  0  0  0  0
    0.3060   16.4370   -2.9270 C   0  0  1  0  0  0  0  0  0  0  0  0
    0.3430   16.0950   -4.4400 C   0  0  0  0  0  0  0  0  0  0  0  0
    0.8280   14.6270   -4.5560 C   0  0  0  0  0  0  0  0  0  0  0  0
    0.7340   14.0710   -3.1160 C   0  0  1  0  0  0  0  0  0  0  0  0
   -0.7680   13.6930   -2.9280 C   0  0  0  0  0  0  0  0  0  0  0  0
    1.6780   12.8720   -2.7760 C   0  0  2  0  0  0  0  0  0  0  0  0
    1.4290   11.5930   -3.5950 C   0  0  0  0  0  0  0  0  0  0  0  0
    0.4560   10.6320   -2.9970 C   0  0  0  0  0  0  0  0  0  0  0  0
    0.0230   10.6490   -1.7230 C   0  0  0  0  0  0  0  0  0  0  0  0
    0.5940   11.6490   -0.7090 C   0  0  1  0  0  0  0  0  0  0  0  0
    0.9360   10.9100    0.6110 C   0  0  0  0  0  0  0  0  0  0  0  0
   -0.2490   10.1280    1.1680 C   0  0  0  0  0  0  0  0  0  0  0  0
   -0.7520    9.1040    0.1540 C   0  0  2  0  0  0  0  0  0  0  0  0
    0.2540    8.1020   -0.0280 O   0  0  0  0  0  0  0  0  0  0  0  0
   -1.1190    9.7310   -1.2200 C   0  0  0  0  0  0  0  0  0  0  0  0
   -2.4020   10.5870   -1.0760 C   0  0  0  0  0  0  0  0  0  0  0  0
   -1.4760    8.5750   -2.1930 C   0  0  0  0  0  0  0  0  0  0  0  0
    1.7920   12.5550   -1.2290 C   0  0  1  0  0  0  0  0  0  0  0  0
    3.1480   11.8130   -1.0260 C   0  0  0  0  0  0  0  0  0  0  0  0
    1.8650   13.8620   -0.3540 C   0  0  0  0  0  0  0  0  0  0  0  0
    1.0000   15.0520   -0.8100 C   0  0  0  0  0  0  0  0  0  0  0  0
    1.1980   15.3340   -2.3030 C   0  0  2  0  0  0  0  0  0  0  0  0
    2.6960   15.7390   -2.5190 C   0  0  0  0  0  0  0  0  0  0  0  0
    2.5631   18.0711   -1.5888 H   0  0  0  0  0  0  0  0  0  0  0  0
    2.6642   17.1785   -3.1444 H   0  0  0  0  0  0  0  0  0  0  0  0
    2.4883   18.9662   -3.1444 H   0  0  0  0  0  0  0  0  0  0  0  0
    0.2937   18.5354   -3.4399 H   0  0  0  0  0  0  0  0  0  0  0  0
   -0.0295   19.4446   -1.3304 H   0  0  0  0  0  0  0  0  0  0  0  0
   -0.9436   17.8629   -1.2523 H   0  0  0  0  0  0  0  0  0  0  0  0
    0.1681   17.3531    0.5904 H   0  0  0  0  0  0  0  0  0  0  0  0
    1.6867   17.3197   -0.3995 H   0  0  0  0  0  0  0  0  0  0  0  0
    0.4189   19.2021    1.2418 H   0  0  0  0  0  0  0  0  0  0  0  0
    4.2381   17.8051    1.6808 H   0  0  0  0  0  0  0  0  0  0  0  0
    3.3555   17.4240    0.1634 H   0  0  0  0  0  0  0  0  0  0  0  0
    4.6421   18.6774    0.1634 H   0  0  0  0  0  0  0  0  0  0  0  0
    2.9588   19.6835    3.1668 H   0  0  0  0  0  0  0  0  0  0  0  0
    4.2023   20.4836    2.1469 H   0  0  0  0  0  0  0  0  0  0  0  0
    2.5126   21.0932    2.1469 H   0  0  0  0  0  0  0  0  0  0  0  0
   -0.6950   16.4151   -2.4714 H   0  0  0  0  0  0  0  0  0  0  0  0
   -0.6617   16.1974   -4.8760 H   0  0  0  0  0  0  0  0  0  0  0  0
    1.0149   16.7765   -4.9823 H   0  0  0  0  0  0  0  0  0  0  0  0
    0.1788   14.0560   -5.2360 H   0  0  0  0  0  0  0  0  0  0  0  0
    1.8463   14.5549   -4.9657 H   0  0  0  0  0  0  0  0  0  0  0  0
   -0.9998   13.6347   -1.8543 H   0  0  0  0  0  0  0  0  0  0  0  0
   -1.4008   14.4599   -3.3986 H   0  0  0  0  0  0  0  0  0  0  0  0
   -0.9624   12.7179   -3.3986 H   0  0  0  0  0  0  0  0  0  0  0  0
    2.6608   13.2466   -3.0983 H   0  0  0  0  0  0  0  0  0  0  0  0
    1.0487   11.8909   -4.5832 H   0  0  0  0  0  0  0  0  0  0  0  0
    2.3930   11.0647   -3.6347 H   0  0  0  0  0  0  0  0  0  0  0  0
    0.0594    9.8432   -3.6531 H   0  0  0  0  0  0  0  0  0  0  0  0
   -0.2016   12.3867   -0.5280 H   0  0  0  0  0  0  0  0  0  0  0  0
    1.7618   10.2092    0.4189 H   0  0  0  0  0  0  0  0  0  0  0  0
    1.2144   11.6697    1.3562 H   0  0  0  0  0  0  0  0  0  0  0  0
    0.0635    9.6045    2.0835 H   0  0  0  0  0  0  0  0  0  0  0  0
   -1.0635   10.8340    1.3876 H   0  0  0  0  0  0  0  0  0  0  0  0
   -1.6781    8.6686    0.5574 H   0  0  0  0  0  0  0  0  0  0  0  0
    1.0210    8.5280   -0.4460 H   0  0  0  0  0  0  0  0  0  0  0  0
   -2.6255   10.7361   -0.0093 H   0  0  0  0  0  0  0  0  0  0  0  0
   -2.2473   11.5635   -1.5582 H   0  0  0  0  0  0  0  0  0  0  0  0
   -3.2443   10.0693   -1.5582 H   0  0  0  0  0  0  0  0  0  0  0  0
   -1.7521    7.6810   -1.6146 H   0  0  0  0  0  0  0  0  0  0  0  0
   -2.3226    8.8775   -2.8269 H   0  0  0  0  0  0  0  0  0  0  0  0
   -0.6063    8.3475   -2.8269 H   0  0  0  0  0  0  0  0  0  0  0  0
    3.3485   11.7033    0.0500 H   0  0  0  0  0  0  0  0  0  0  0  0
    3.0950   10.8182   -1.4924 H   0  0  0  0  0  0  0  0  0  0  0  0
    3.9573   12.3940   -1.4924 H   0  0  0  0  0  0  0  0  0  0  0  0
    1.5541   13.5966    0.6672 H   0  0  0  0  0  0  0  0  0  0  0  0
    2.9044   14.2107   -0.4434 H   0  0  0  0  0  0  0  0  0  0  0  0
   -0.0590   14.8187   -0.6253 H   0  0  0  0  0  0  0  0  0  0  0  0
    1.3028   15.9437   -0.2416 H   0  0  0  0  0  0  0  0  0  0  0  0
    3.1846   15.8711   -1.5424 H   0  0  0  0  0  0  0  0  0  0  0  0
    3.2120   14.9481   -3.0831 H   0  0  0  0  0  0  0  0  0  0  0  0
    2.7432   16.6821   -3.0831 H   0  0  0  0  0  0  0  0  0  0  0  0
  1  2  1  0
  2  3  1  0
  3  4  1  0
  4  5  1  0
  5  6  1  0
  6  7  1  0
  7  8  1  0
  7  9  1  0
  2 10  1  0
 10 11  1  0
 11 12  1  0
 12 13  1  0
 13 14  1  1
 13 15  1  0
 15 16  1  0
 16 17  1  0
 17 18  2  0
 18 19  1  0
 19 20  1  0
 20 21  1  0
 21 22  1  0
 22 23  1  0
 22 24  1  0
 24 25  1  0
 24 26  1  0
 19 27  1  0
 27 28  1  6
 27 29  1  0
 29 30  1  0
 30 31  1  0
 31 32  1  1
  7  5  1  0
 31 10  1  0
 31 13  1  0
 27 15  1  0
 24 18  1  0
  1 33  1  0
  1 34  1  0
  1 35  1  0
  2 36  1  6
  3 37  1  0
  3 38  1  0
  4 39  1  0
  4 40  1  0
  5 41  1  1
  8 42  1  0
  8 43  1  0
  8 44  1  0
  9 45  1  0
  9 46  1  0
  9 47  1  0
 10 48  1  1
 11 49  1  0
 11 50  1  0
 12 51  1  0
 12 52  1  0
 14 53  1  0
 14 54  1  0
 14 55  1  0
 15 56  1  6
 16 57  1  0
 16 58  1  0
 17 59  1  0
 19 60  1  1
 20 61  1  0
 20 62  1  0
 21 63  1  0
 21 64  1  0
 22 65  1  1
 23 66  1  0
 25 67  1  0
 25 68  1  0
 25 69  1  0
 26 70  1  0
 26 71  1  0
 26 72  1  0
 28 73  1  0
 28 74  1  0
 28 75  1  0
 29 76  1  0
 29 77  1  0
 30 78  1  0
 30 79  1  0
 32 80  1  0
 32 81  1  0
 32 82  1  0
M  END
>  <meeko>  (4) 
{"is_sidechain": [false], "intermolecular_energy": 2.731, "internal_energy": -0.839}

$$$$
EPH_relaxed_0001_pdb2pqr_Repair_237_r2_0001_out
     RDKit          3D

 82 86  0  0  0  0  0  0  0  0999 V2000
    4.0970   17.7180    0.2640 C   0  0  0  0  0  0  0  0  0  0  0  0
    2.8160   18.3010   -0.3390 C   0  0  2  0  0  0  0  0  0  0  0  0
    2.2190   19.4210    0.5360 C   0  0  0  0  0  0  0  0  0  0  0  0
    0.8490   19.0780    1.1250 C   0  0  0  0  0  0  0  0  0  0  0  0
   -0.2480   19.8640    0.4740 C   0  0  2  0  0  0  0  0  0  0  0  0
   -1.3440   20.1930    1.3380 O   0  0  0  0  0  0  0  0  0  0  0  0
   -1.6440   19.3180    0.2390 C   0  0  0  0  0  0  0  0  0  0  0  0
   -2.0180   17.9290    0.6530 C   0  0  0  0  0  0  0  0  0  0  0  0
   -2.4910   19.9500   -0.8210 C   0  0  0  0  0  0  0  0  0  0  0  0
    1.7870   17.1940   -0.5420 C   0  0  1  0  0  0  0  0  0  0  0  0
    0.5780   17.6520   -1.3990 C   0  0  0  0  0  0  0  0  0  0  0  0
    0.1380   16.4280   -2.2420 C   0  0  0  0  0  0  0  0  0  0  0  0
    0.8820   15.2290   -1.6080 C   0  0  1  0  0  0  0  0  0  0  0  0
    0.0250   14.8390   -0.3630 C   0  0  0  0  0  0  0  0  0  0  0  0
    1.1370   14.0010   -2.5410 C   0  0  2  0  0  0  0  0  0  0  0  0
   -0.1310   13.3070   -3.0660 C   0  0  0  0  0  0  0  0  0  0  0  0
   -0.6490   12.1960   -2.2140 C   0  0  0  0  0  0  0  0  0  0  0  0
    0.0320   11.5830   -1.2280 C   0  0  0  0  0  0  0  0  0  0  0  0
    1.4990   11.9330   -0.9500 C   0  0  1  0  0  0  0  0  0  0  0  0
    2.3200   10.6270   -0.7840 C   0  0  0  0  0  0  0  0  0  0  0  0
    1.7320    9.6960    0.2720 C   0  0  0  0  0  0  0  0  0  0  0  0
    0.2910    9.3250   -0.0700 C   0  0  2  0  0  0  0  0  0  0  0  0
    0.2910    8.5270   -1.2580 O   0  0  0  0  0  0  0  0  0  0  0  0
   -0.6290   10.5610   -0.2710 C   0  0  0  0  0  0  0  0  0  0  0  0
   -0.8700   11.2570    1.0920 C   0  0  0  0  0  0  0  0  0  0  0  0
   -2.0150   10.0520   -0.7490 C   0  0  0  0  0  0  0  0  0  0  0  0
    2.1730   12.9530   -1.9650 C   0  0  1  0  0  0  0  0  0  0  0  0
    2.7530   12.1810   -3.1890 C   0  0  0  0  0  0  0  0  0  0  0  0
    3.3970   13.6480   -1.2580 C   0  0  0  0  0  0  0  0  0  0  0  0
    3.0990   14.9250   -0.4490 C   0  0  0  0  0  0  0  0  0  0  0  0
    2.2580   15.9090   -1.2680 C   0  0  2  0  0  0  0  0  0  0  0  0
    3.1040   16.3370   -2.5160 C   0  0  0  0  0  0  0  0  0  0  0  0
    4.0320   17.7476    1.3617 H   0  0  0  0  0  0  0  0  0  0  0  0
    4.2176   16.6763   -0.0682 H   0  0  0  0  0  0  0  0  0  0  0  0
    4.9617   18.3113   -0.0682 H   0  0  0  0  0  0  0  0  0  0  0  0
    3.0801   18.7464   -1.3095 H   0  0  0  0  0  0  0  0  0  0  0  0
    2.9133   19.6209    1.3654 H   0  0  0  0  0  0  0  0  0  0  0  0
    2.0788   20.2967   -0.1147 H   0  0  0  0  0  0  0  0  0  0  0  0
    0.6555   18.0054    0.9760 H   0  0  0  0  0  0  0  0  0  0  0  0
    0.8632   19.3316    2.1953 H   0  0  0  0  0  0  0  0  0  0  0  0
    0.4724   20.3595   -0.1934 H   0  0  0  0  0  0  0  0  0  0  0  0
   -2.0350   17.8657    1.7510 H   0  0  0  0  0  0  0  0  0  0  0  0
   -3.0142   17.6838    0.2561 H   0  0  0  0  0  0  0  0  0  0  0  0
   -1.2796   17.2168    0.2561 H   0  0  0  0  0  0  0  0  0  0  0  0
   -3.2871   20.5440   -0.3484 H   0  0  0  0  0  0  0  0  0  0  0  0
   -1.8671   20.6051   -1.4468 H   0  0  0  0  0  0  0  0  0  0  0  0
   -2.9413   19.1654   -1.4468 H   0  0  0  0  0  0  0  0  0  0  0  0
    1.5512   16.9672    0.5082 H   0  0  0  0  0  0  0  0  0  0  0  0
   -0.2458   17.9791   -0.7476 H   0  0  0  0  0  0  0  0  0  0  0  0
    0.8505   18.4993   -2.0454 H   0  0  0  0  0  0  0  0  0  0  0  0
   -0.9510   16.2856   -2.1806 H   0  0  0  0  0  0  0  0  0  0  0  0
    0.3760   16.5494   -3.3091 H   0  0  0  0  0  0  0  0  0  0  0  0
    0.5766   15.0900    0.5550 H   0  0  0  0  0  0  0  0  0  0  0  0
   -0.9248   15.3936   -0.3833 H   0  0  0  0  0  0  0  0  0  0  0  0
   -0.1807   13.7586   -0.3833 H   0  0  0  0  0  0  0  0  0  0  0  0
    1.6088   14.4660   -3.4192 H   0  0  0  0  0  0  0  0  0  0  0  0
   -0.9225   14.0659   -3.1532 H   0  0  0  0  0  0  0  0  0  0  0  0
    0.1481   12.8492   -4.0265 H   0  0  0  0  0  0  0  0  0  0  0  0
   -1.6745   11.8488   -2.4085 H   0  0  0  0  0  0  0  0  0  0  0  0
    1.5033   12.4992   -0.0069 H   0  0  0  0  0  0  0  0  0  0  0  0
    2.3400   10.0982   -1.7484 H   0  0  0  0  0  0  0  0  0  0  0  0
    3.3313   10.9082   -0.4551 H   0  0  0  0  0  0  0  0  0  0  0  0
    2.3379    8.7792    0.3214 H   0  0  0  0  0  0  0  0  0  0  0  0
    1.7405   10.2149    1.2419 H   0  0  0  0  0  0  0  0  0  0  0  0
   -0.1178    8.7662    0.7848 H   0  0  0  0  0  0  0  0  0  0  0  0
   -0.5690    8.6490   -1.6940 H   0  0  0  0  0  0  0  0  0  0  0  0
   -0.6285   10.5595    1.9076 H   0  0  0  0  0  0  0  0  0  0  0  0
   -0.2276   12.1467    1.1681 H   0  0  0  0  0  0  0  0  0  0  0  0
   -1.9250   11.5589    1.1681 H   0  0  0  0  0  0  0  0  0  0  0  0
   -2.6423    9.8216    0.1247 H   0  0  0  0  0  0  0  0  0  0  0  0
   -2.5022   10.8299   -1.3553 H   0  0  0  0  0  0  0  0  0  0  0  0
   -1.8829    9.1437   -1.3553 H   0  0  0  0  0  0  0  0  0  0  0  0
    3.3785   11.3485   -2.8345 H   0  0  0  0  0  0  0  0  0  0  0  0
    1.9268   11.7854   -3.7980 H   0  0  0  0  0  0  0  0  0  0  0  0
    3.3629   12.8644   -3.7980 H   0  0  0  0  0  0  0  0  0  0  0  0
    3.8440   12.9151   -0.5702 H   0  0  0  0  0  0  0  0  0  0  0  0
    4.0555   13.9733   -2.0769 H   0  0  0  0  0  0  0  0  0  0  0  0
    2.5476   14.6527    0.4631 H   0  0  0  0  0  0  0  0  0  0  0  0
    4.0532   15.4082   -0.1922 H   0  0  0  0  0  0  0  0  0  0  0  0
    4.0388   16.8099   -2.1806 H   0  0  0  0  0  0  0  0  0  0  0  0
    3.3389   15.4493   -3.1217 H   0  0  0  0  0  0  0  0  0  0  0  0
    2.5280   17.0522   -3.1217 H   0  0  0  0  0  0  0  0  0  0  0  0
  1  2  1  0
  2  3  1  0
  3  4  1  0
  4  5  1  0
  5  6  1  0
  6  7  1  0
  7  8  1  0
  7  9  1  0
  2 10  1  0
 10 11  1  0
 11 12  1  0
 12 13  1  0
 13 14  1  1
 13 15  1  0
 15 16  1  0
 16 17  1  0
 17 18  2  0
 18 19  1  0
 19 20  1  0
 20 21  1  0
 21 22  1  0
 22 23  1  0
 22 24  1  0
 24 25  1  0
 24 26  1  0
 19 27  1  0
 27 28  1  6
 27 29  1  0
 29 30  1  0
 30 31  1  0
 31 32  1  6
  7  5  1  0
 31 10  1  0
 31 13  1  0
 27 15  1  0
 24 18  1  0
  1 33  1  0
  1 34  1  0
  1 35  1  0
  2 36  1  6
  3 37  1  0
  3 38  1  0
  4 39  1  0
  4 40  1  0
  5 41  1  6
  8 42  1  0
  8 43  1  0
  8 44  1  0
  9 45  1  0
  9 46  1  0
  9 47  1  0
 10 48  1  1
 11 49  1  0
 11 50  1  0
 12 51  1  0
 12 52  1  0
 14 53  1  0
 14 54  1  0
 14 55  1  0
 15 56  1  6
 16 57  1  0
 16 58  1  0
 17 59  1  0
 19 60  1  1
 20 61  1  0
 20 62  1  0
 21 63  1  0
 21 64  1  0
 22 65  1  1
 23 66  1  0
 25 67  1  0
 25 68  1  0
 25 69  1  0
 26 70  1  0
 26 71  1  0
 26 72  1  0
 28 73  1  0
 28 74  1  0
 28 75  1  0
 29 76  1  0
 29 77  1  0
 30 78  1  0
 30 79  1  0
 32 80  1  0
 32 81  1  0
 32 82  1  0
M  END
>  <meeko>  (5) 
{"is_sidechain": [false], "intermolecular_energy": 2.731, "internal_energy": -0.839}

$$$$
EPH_relaxed_0001_pdb2pqr_Repair_237_r2_0001_out
     RDKit          3D

 82 86  0  0  0  0  0  0  0  0999 V2000
   -5.1120    5.9210   -1.8030 C   0  0  0  0  0  0  0  0  0  0  0  0
   -5.4410    7.4160   -1.8140 C   0  0  2  0  0  0  0  0  0  0  0  0
   -5.2330    8.0670   -0.4320 C   0  0  0  0  0  0  0  0  0  0  0  0
   -4.1500    9.1490   -0.4170 C   0  0  0  0  0  0  0  0  0  0  0  0
   -2.8270    8.6150   -0.8780 C   0  0  2  0  0  0  0  0  0  0  0  0
   -1.7420    8.8380    0.0330 O   0  0  0  0  0  0  0  0  0  0  0  0
   -1.6480    9.4990   -1.2400 C   0  0  0  0  0  0  0  0  0  0  0  0
   -1.7370   10.9910   -1.1580 C   0  0  0  0  0  0  0  0  0  0  0  0
   -0.5830    8.9420   -2.1320 C   0  0  0  0  0  0  0  0  0  0  0  0
   -6.8770    7.6290   -2.2790 C   0  0  1  0  0  0  0  0  0  0  0  0
   -7.1770    6.9290   -3.6310 C   0  0  0  0  0  0  0  0  0  0  0  0
   -8.6470    6.4430   -3.5660 C   0  0  0  0  0  0  0  0  0  0  0  0
   -9.2420    7.1600   -2.3320 C   0  0  1  0  0  0  0  0  0  0  0  0
   -9.6050    8.5920   -2.8370 C   0  0  0  0  0  0  0  0  0  0  0  0
  -10.4620    6.4620   -1.6480 C   0  0  2  0  0  0  0  0  0  0  0  0
  -11.7140    6.3240   -2.5310 C   0  0  0  0  0  0  0  0  0  0  0  0
  -12.6790    7.4610   -2.4520 C   0  0  0  0  0  0  0  0  0  0  0  0
  -12.6920    8.4110   -1.4990 C   0  0  0  0  0  0  0  0  0  0  0  0
  -11.7270    8.3440   -0.3080 C   0  0  1  0  0  0  0  0  0  0  0  0
  -12.5070    8.6180    1.0050 C   0  0  0  0  0  0  0  0  0  0  0  0
  -13.2880    9.9280    0.9590 C   0  0  0  0  0  0  0  0  0  0  0  0
  -14.2770    9.9320   -0.2030 C   0  0  2  0  0  0  0  0  0  0  0  0
  -15.2860    8.9490    0.0460 O   0  0  0  0  0  0  0  0  0  0  0  0
  -13.6080    9.6570   -1.5780 C   0  0  0  0  0  0  0  0  0  0  0  0
  -12.7400   10.8730   -1.9870 C   0  0  0  0  0  0  0  0  0  0  0  0
  -14.7320    9.5480   -2.6440 C   0  0  0  0  0  0  0  0  0  0  0  0
  -10.8230    7.0410   -0.2200 C   0  0  1  0  0  0  0  0  0  0  0  0
  -11.5880    5.9120    0.5370 C   0  0  0  0  0  0  0  0  0  0  0  0
   -9.5410    7.3610    0.6370 C   0  0  0  0  0  0  0  0  0  0  0  0
   -8.3280    7.9370   -0.1160 C   0  0  0  0  0  0  0  0  0  0  0  0
   -8.0070    7.1020   -1.3600 C   0  0  2  0  0  0  0  0  0  0  0  0
   -7.6160    5.6630   -0.8820 C   0  0  0  0  0  0  0  0  0  0  0  0
   -5.0348    5.5702   -0.7633 H   0  0  0  0  0  0  0  0  0  0  0  0
   -5.9096    5.3662   -2.3189 H   0  0  0  0  0  0  0  0  0  0  0  0
   -4.1552    5.7523   -2.3189 H   0  0  0  0  0  0  0  0  0  0  0  0
   -4.7469    7.9020   -2.5155 H   0  0  0  0  0  0  0  0  0  0  0  0
   -6.1832    8.5226   -0.1164 H   0  0  0  0  0  0  0  0  0  0  0  0
   -4.9012    7.2712    0.2511 H   0  0  0  0  0  0  0  0  0  0  0  0
   -4.4556    9.9687   -1.0838 H   0  0  0  0  0  0  0  0  0  0  0  0
   -4.0348    9.5049    0.6174 H   0  0  0  0  0  0  0  0  0  0  0  0
   -3.3193    7.7878   -1.4103 H   0  0  0  0  0  0  0  0  0  0  0  0
   -1.7554   11.2998   -0.1024 H   0  0  0  0  0  0  0  0  0  0  0  0
   -0.8639   11.4383   -1.6557 H   0  0  0  0  0  0  0  0  0  0  0  0
   -2.6570   11.3313   -1.6557 H   0  0  0  0  0  0  0  0  0  0  0  0
    0.2256    8.5191   -1.5177 H   0  0  0  0  0  0  0  0  0  0  0  0
   -1.0122    8.1529   -2.7669 H   0  0  0  0  0  0  0  0  0  0  0  0
   -0.1797    9.7446   -2.7669 H   0  0  0  0  0  0  0  0  0  0  0  0
   -6.8996    8.7283   -2.3110 H   0  0  0  0  0  0  0  0  0  0  0  0
   -7.0490    7.6387   -4.4616 H   0  0  0  0  0  0  0  0  0  0  0  0
   -6.4897    6.0871   -3.8011 H   0  0  0  0  0  0  0  0  0  0  0  0
   -9.1904    6.7269   -4.4793 H   0  0  0  0  0  0  0  0  0  0  0  0
   -8.7208    5.3483   -3.4876 H   0  0  0  0  0  0  0  0  0  0  0  0
   -9.7727    9.2535   -1.9743 H   0  0  0  0  0  0  0  0  0  0  0  0
   -8.7784    8.9864   -3.4463 H   0  0  0  0  0  0  0  0  0  0  0  0
  -10.5196    8.5450   -3.4463 H   0  0  0  0  0  0  0  0  0  0  0  0
  -10.0914    5.4380   -1.4931 H   0  0  0  0  0  0  0  0  0  0  0  0
  -11.3841    6.2302   -3.5762 H   0  0  0  0  0  0  0  0  0  0  0  0
  -12.2533    5.4408   -2.1582 H   0  0  0  0  0  0  0  0  0  0  0  0
  -13.4440    7.5276   -3.2396 H   0  0  0  0  0  0  0  0  0  0  0  0
  -10.9833    9.1374   -0.4738 H   0  0  0  0  0  0  0  0  0  0  0  0
  -13.2135    7.7920    1.1744 H   0  0  0  0  0  0  0  0  0  0  0  0
  -11.7722    8.6957    1.8199 H   0  0  0  0  0  0  0  0  0  0  0  0
  -13.8402   10.0513    1.9023 H   0  0  0  0  0  0  0  0  0  0  0  0
  -12.5775   10.7559    0.8185 H   0  0  0  0  0  0  0  0  0  0  0  0
  -14.7116   10.9408   -0.2618 H   0  0  0  0  0  0  0  0  0  0  0  0
  -15.0760    8.1680   -0.4940 H   0  0  0  0  0  0  0  0  0  0  0  0
  -12.3754   11.3837   -1.0835 H   0  0  0  0  0  0  0  0  0  0  0  0
  -11.8831   10.5276   -2.5840 H   0  0  0  0  0  0  0  0  0  0  0  0
  -13.3451   11.5712   -2.5840 H   0  0  0  0  0  0  0  0  0  0  0  0
  -15.7060    9.4536   -2.1415 H   0  0  0  0  0  0  0  0  0  0  0  0
  -14.7298   10.4506   -3.2728 H   0  0  0  0  0  0  0  0  0  0  0  0
  -14.5564    8.6627   -3.2728 H   0  0  0  0  0  0  0  0  0  0  0  0
  -11.4855    6.0633    1.6217 H   0  0  0  0  0  0  0  0  0  0  0  0
  -12.6525    5.9421    0.2616 H   0  0  0  0  0  0  0  0  0  0  0  0
  -11.1655    4.9344    0.2616 H   0  0  0  0  0  0  0  0  0  0  0  0
   -9.8301    8.0896    1.4088 H   0  0  0  0  0  0  0  0  0  0  0  0
   -9.2037    6.3882    1.0242 H   0  0  0  0  0  0  0  0  0  0  0  0
   -8.5524    8.9690   -0.4235 H   0  0  0  0  0  0  0  0  0  0  0  0
   -7.4565    7.9157    0.5549 H   0  0  0  0  0  0  0  0  0  0  0  0
   -7.6075    5.6316    0.2175 H   0  0  0  0  0  0  0  0  0  0  0  0
   -8.3497    4.9378   -1.2639 H   0  0  0  0  0  0  0  0  0  0  0  0
   -6.6162    5.4088   -1.2639 H   0  0  0  0  0  0  0  0  0  0  0  0
  1  2  1  0
  2  3  1  0
  3  4  1  0
  4  5  1  0
  5  6  1  0
  6  7  1  0
  7  8  1  0
  7  9  1  0
  2 10  1  0
 10 11  1  0
 11 12  1  0
 12 13  1  0
 13 14  1  6
 13 15  1  0
 15 16  1  0
 16 17  1  0
 17 18  2  0
 18 19  1  0
 19 20  1  0
 20 21  1  0
 21 22  1  0
 22 23  1  0
 22 24  1  0
 24 25  1  0
 24 26  1  0
 19 27  1  0
 27 28  1  1
 27 29  1  0
 29 30  1  0
 30 31  1  0
 31 32  1  1
  7  5  1  0
 31 10  1  0
 31 13  1  0
 27 15  1  0
 24 18  1  0
  1 33  1  0
  1 34  1  0
  1 35  1  0
  2 36  1  6
  3 37  1  0
  3 38  1  0
  4 39  1  0
  4 40  1  0
  5 41  1  6
  8 42  1  0
  8 43  1  0
  8 44  1  0
  9 45  1  0
  9 46  1  0
  9 47  1  0
 10 48  1  6
 11 49  1  0
 11 50  1  0
 12 51  1  0
 12 52  1  0
 14 53  1  0
 14 54  1  0
 14 55  1  0
 15 56  1  1
 16 57  1  0
 16 58  1  0
 17 59  1  0
 19 60  1  6
 20 61  1  0
 20 62  1  0
 21 63  1  0
 21 64  1  0
 22 65  1  6
 23 66  1  0
 25 67  1  0
 25 68  1  0
 25 69  1  0
 26 70  1  0
 26 71  1  0
 26 72  1  0
 28 73  1  0
 28 74  1  0
 28 75  1  0
 29 76  1  0
 29 77  1  0
 30 78  1  0
 30 79  1  0
 32 80  1  0
 32 81  1  0
 32 82  1  0
M  END
>  <meeko>  (6) 
{"is_sidechain": [false], "intermolecular_energy": 2.731, "internal_energy": -0.839}

$$$$
EPH_relaxed_0001_pdb2pqr_Repair_237_r2_0001_out
     RDKit          3D

 82 86  0  0  0  0  0  0  0  0999 V2000
    0.4340    8.8730   -2.4820 C   0  0  0  0  0  0  0  0  0  0  0  0
    1.1940   10.0290   -3.1380 C   0  0  2  0  0  0  0  0  0  0  0  0
    2.6870   10.0340   -2.7540 C   0  0  0  0  0  0  0  0  0  0  0  0
    3.6000   10.6080   -3.8420 C   0  0  0  0  0  0  0  0  0  0  0  0
    4.9950   10.8250   -3.3370 C   0  0  2  0  0  0  0  0  0  0  0  0
    5.6040   12.0480   -3.7700 O   0  0  0  0  0  0  0  0  0  0  0  0
    6.2170   10.8350   -4.2360 C   0  0  0  0  0  0  0  0  0  0  0  0
    6.1020   10.6230   -5.7130 C   0  0  0  0  0  0  0  0  0  0  0  0
    7.5570   10.5640   -3.6250 C   0  0  0  0  0  0  0  0  0  0  0  0
    0.5520   11.3570   -2.7540 C   0  0  1  0  0  0  0  0  0  0  0  0
   -0.8220   11.1770   -2.0570 C   0  0  0  0  0  0  0  0  0  0  0  0
   -0.9380   12.3040   -0.9990 C   0  0  0  0  0  0  0  0  0  0  0  0
    0.2080   13.2830   -1.3450 C   0  0  1  0  0  0  0  0  0  0  0  0
   -0.3470   14.1530   -2.5170 C   0  0  0  0  0  0  0  0  0  0  0  0
    0.7390   14.1680   -0.1710 C   0  0  2  0  0  0  0  0  0  0  0  0
   -0.2930   15.1360    0.4350 C   0  0  0  0  0  0  0  0  0  0  0  0
   -0.3420   16.4900   -0.1910 C   0  0  0  0  0  0  0  0  0  0  0  0
    0.5960   17.0100   -1.0040 C   0  0  0  0  0  0  0  0  0  0  0  0
    1.8990   16.2520   -1.2900 C   0  0  1  0  0  0  0  0  0  0  0  0
    3.1030   17.2210   -1.1520 C   0  0  0  0  0  0  0  0  0  0  0  0
    2.9520   18.4690   -2.0170 C   0  0  0  0  0  0  0  0  0  0  0  0
    1.6750   19.2260   -1.6630 C   0  0  2  0  0  0  0  0  0  0  0  0
    1.8020   19.7510   -0.3380 O   0  0  0  0  0  0  0  0  0  0  0  0
    0.3950   18.3490   -1.7570 C   0  0  0  0  0  0  0  0  0  0  0  0
    0.0900   18.0300   -3.2410 C   0  0  0  0  0  0  0  0  0  0  0  0
   -0.8010   19.1920   -1.2390 C   0  0  0  0  0  0  0  0  0  0  0  0
    2.1070   14.9010   -0.4790 C   0  0  1  0  0  0  0  0  0  0  0  0
    2.7700   15.2040    0.8990 C   0  0  0  0  0  0  0  0  0  0  0  0
    3.1150   13.9810   -1.2640 C   0  0  0  0  0  0  0  0  0  0  0  0
    2.5150   13.0430   -2.3280 C   0  0  0  0  0  0  0  0  0  0  0  0
    1.3270   12.2600   -1.7620 C   0  0  2  0  0  0  0  0  0  0  0  0
    1.8590   11.3590   -0.5960 C   0  0  0  0  0  0  0  0  0  0  0  0
    0.4961    8.9675   -1.3878 H   0  0  0  0  0  0  0  0  0  0  0  0
   -0.6205    8.9039   -2.7934 H   0  0  0  0  0  0  0  0  0  0  0  0
    0.8804    7.9171   -2.7934 H   0  0  0  0  0  0  0  0  0  0  0  0
    1.1343    9.8889   -4.2274 H   0  0  0  0  0  0  0  0  0  0  0  0
    2.8094   10.6385   -1.8432 H   0  0  0  0  0  0  0  0  0  0  0  0
    2.9843    8.9855   -2.6045 H   0  0  0  0  0  0  0  0  0  0  0  0
    3.6322    9.9054   -4.6877 H   0  0  0  0  0  0  0  0  0  0  0  0
    3.1926   11.5811   -4.1536 H   0  0  0  0  0  0  0  0  0  0  0  0
    4.7682   10.2844   -2.4062 H   0  0  0  0  0  0  0  0  0  0  0  0
    5.5858    9.6714   -5.9077 H   0  0  0  0  0  0  0  0  0  0  0  0
    5.5284   11.4492   -6.1584 H   0  0  0  0  0  0  0  0  0  0  0  0
    7.1073   10.5927   -6.1584 H   0  0  0  0  0  0  0  0  0  0  0  0
    7.4703   10.5815   -2.5286 H   0  0  0  0  0  0  0  0  0  0  0  0
    7.9145    9.5754   -3.9488 H   0  0  0  0  0  0  0  0  0  0  0  0
    8.2705   11.3360   -3.9488 H   0  0  0  0  0  0  0  0  0  0  0  0
    0.5099   11.8349   -3.7439 H   0  0  0  0  0  0  0  0  0  0  0  0
   -1.6345   11.2637   -2.7934 H   0  0  0  0  0  0  0  0  0  0  0  0
   -0.8998   10.1852   -1.5876 H   0  0  0  0  0  0  0  0  0  0  0  0
   -1.9137   12.8067   -1.0724 H   0  0  0  0  0  0  0  0  0  0  0  0
   -0.8629   11.9204    0.0292 H   0  0  0  0  0  0  0  0  0  0  0  0
   -0.8959   15.0135   -2.1068 H   0  0  0  0  0  0  0  0  0  0  0  0
    0.4892   14.5122   -3.1349 H   0  0  0  0  0  0  0  0  0  0  0  0
   -1.0252   13.5461   -3.1349 H   0  0  0  0  0  0  0  0  0  0  0  0
    0.9453   13.4226    0.6112 H   0  0  0  0  0  0  0  0  0  0  0  0
   -1.2883   14.6786    0.3338 H   0  0  0  0  0  0  0  0  0  0  0  0
    0.0152   15.2946    1.4790 H   0  0  0  0  0  0  0  0  0  0  0  0
   -1.2190   17.1158    0.0309 H   0  0  0  0  0  0  0  0  0  0  0  0
    1.8229   15.8971   -2.3284 H   0  0  0  0  0  0  0  0  0  0  0  0
    3.1884   17.5296   -0.0996 H   0  0  0  0  0  0  0  0  0  0  0  0
    4.0024   16.6864   -1.4914 H   0  0  0  0  0  0  0  0  0  0  0  0
    3.8179   19.1274   -1.8536 H   0  0  0  0  0  0  0  0  0  0  0  0
    2.8970   18.1610   -3.0716 H   0  0  0  0  0  0  0  0  0  0  0  0
    1.5561   20.0332   -2.4007 H   0  0  0  0  0  0  0  0  0  0  0  0
    2.7240   20.0390   -0.2230 H   0  0  0  0  0  0  0  0  0  0  0  0
   -0.6692   17.2360   -3.2968 H   0  0  0  0  0  0  0  0  0  0  0  0
   -0.2879   18.9344   -3.7403 H   0  0  0  0  0  0  0  0  0  0  0  0
    1.0104   17.6930   -3.7403 H   0  0  0  0  0  0  0  0  0  0  0  0
   -0.8006   19.1917   -0.1390 H   0  0  0  0  0  0  0  0  0  0  0  0
   -0.7075   20.2249   -1.6055 H   0  0  0  0  0  0  0  0  0  0  0  0
   -1.7424   18.7567   -1.6055 H   0  0  0  0  0  0  0  0  0  0  0  0
    2.0922   14.8942    1.7081 H   0  0  0  0  0  0  0  0  0  0  0  0
    3.7162   14.6489    0.9806 H   0  0  0  0  0  0  0  0  0  0  0  0
    2.9695   16.2827    0.9806 H   0  0  0  0  0  0  0  0  0  0  0  0
    3.8398   14.6365   -1.7690 H   0  0  0  0  0  0  0  0  0  0  0  0
    3.5480   13.3142   -0.5038 H   0  0  0  0  0  0  0  0  0  0  0  0
    2.1751   13.6424   -3.1854 H   0  0  0  0  0  0  0  0  0  0  0  0
    3.2894   12.3272   -2.6410 H   0  0  0  0  0  0  0  0  0  0  0  0
    1.5911   11.8128    0.3696 H   0  0  0  0  0  0  0  0  0  0  0  0
    1.4063   10.3591   -0.6694 H   0  0  0  0  0  0  0  0  0  0  0  0
    2.9531   11.2724   -0.6694 H   0  0  0  0  0  0  0  0  0  0  0  0
  1  2  1  0
  2  3  1  0
  3  4  1  0
  4  5  1  0
  5  6  1  0
  6  7  1  0
  7  8  1  0
  7  9  1  0
  2 10  1  0
 10 11  1  0
 11 12  1  0
 12 13  1  0
 13 14  1  6
 13 15  1  0
 15 16  1  0
 16 17  1  0
 17 18  2  0
 18 19  1  0
 19 20  1  0
 20 21  1  0
 21 22  1  0
 22 23  1  0
 22 24  1  0
 24 25  1  0
 24 26  1  0
 19 27  1  0
 27 28  1  1
 27 29  1  0
 29 30  1  0
 30 31  1  0
 31 32  1  1
  7  5  1  0
 31 10  1  0
 31 13  1  0
 27 15  1  0
 24 18  1  0
  1 33  1  0
  1 34  1  0
  1 35  1  0
  2 36  1  6
  3 37  1  0
  3 38  1  0
  4 39  1  0
  4 40  1  0
  5 41  1  1
  8 42  1  0
  8 43  1  0
  8 44  1  0
  9 45  1  0
  9 46  1  0
  9 47  1  0
 10 48  1  6
 11 49  1  0
 11 50  1  0
 12 51  1  0
 12 52  1  0
 14 53  1  0
 14 54  1  0
 14 55  1  0
 15 56  1  1
 16 57  1  0
 16 58  1  0
 17 59  1  0
 19 60  1  6
 20 61  1  0
 20 62  1  0
 21 63  1  0
 21 64  1  0
 22 65  1  6
 23 66  1  0
 25 67  1  0
 25 68  1  0
 25 69  1  0
 26 70  1  0
 26 71  1  0
 26 72  1  0
 28 73  1  0
 28 74  1  0
 28 75  1  0
 29 76  1  0
 29 77  1  0
 30 78  1  0
 30 79  1  0
 32 80  1  0
 32 81  1  0
 32 82  1  0
M  END
>  <meeko>  (7) 
{"is_sidechain": [false], "intermolecular_energy": 2.731, "internal_energy": -0.839}

$$$$
EPH_relaxed_0001_pdb2pqr_Repair_237_r2_0001_out
     RDKit          3D

 82 86  0  0  0  0  0  0  0  0999 V2000
   -0.1920   10.5800   -4.1150 C   0  0  0  0  0  0  0  0  0  0  0  0
    0.9790   10.3750   -3.1490 C   0  0  2  0  0  0  0  0  0  0  0  0
    0.8800    9.0360   -2.3930 C   0  0  0  0  0  0  0  0  0  0  0  0
   -0.5340    8.7060   -1.9070 C   0  0  0  0  0  0  0  0  0  0  0  0
   -0.7250    9.0720   -0.4660 C   0  0  2  0  0  0  0  0  0  0  0  0
   -2.0900    9.0840   -0.0270 O   0  0  0  0  0  0  0  0  0  0  0  0
   -1.4080   10.3480   -0.0110 C   0  0  0  0  0  0  0  0  0  0  0  0
   -1.9430   11.3410   -0.9960 C   0  0  0  0  0  0  0  0  0  0  0  0
   -1.1220   10.8610    1.3650 C   0  0  0  0  0  0  0  0  0  0  0  0
    1.0420   11.5300   -2.1570 C   0  0  1  0  0  0  0  0  0  0  0  0
    2.0940   11.3010   -1.0400 C   0  0  0  0  0  0  0  0  0  0  0  0
    2.6960   12.6890   -0.7000 C   0  0  0  0  0  0  0  0  0  0  0  0
    1.7480   13.7030   -1.3840 C   0  0  1  0  0  0  0  0  0  0  0  0
    0.5410   13.8470   -0.4050 C   0  0  0  0  0  0  0  0  0  0  0  0
    2.3670   15.0920   -1.7450 C   0  0  2  0  0  0  0  0  0  0  0  0
    2.8570   15.9210   -0.5440 C   0  0  0  0  0  0  0  0  0  0  0  0
    1.8430   16.8410    0.0510 C   0  0  0  0  0  0  0  0  0  0  0  0
    0.6860   17.2100   -0.5290 C   0  0  0  0  0  0  0  0  0  0  0  0
    0.3430   16.7650   -1.9570 C   0  0  1  0  0  0  0  0  0  0  0  0
   -0.1800   17.9800   -2.7670 C   0  0  0  0  0  0  0  0  0  0  0  0
   -1.3460   18.6840   -2.0790 C   0  0  0  0  0  0  0  0  0  0  0  0
   -0.9480   19.1630   -0.6850 C   0  0  2  0  0  0  0  0  0  0  0  0
    0.0360   20.1940   -0.8150 O   0  0  0  0  0  0  0  0  0  0  0  0
   -0.3970   18.0260    0.2200 C   0  0  0  0  0  0  0  0  0  0  0  0
   -1.5480   17.0650    0.6070 C   0  0  0  0  0  0  0  0  0  0  0  0
    0.0980   18.6670    1.5440 C   0  0  0  0  0  0  0  0  0  0  0  0
    1.4800   15.9630   -2.7240 C   0  0  1  0  0  0  0  0  0  0  0  0
    2.4460   16.9590   -3.4350 C   0  0  0  0  0  0  0  0  0  0  0  0
    0.8190   15.0970   -3.8620 C   0  0  0  0  0  0  0  0  0  0  0  0
    0.3360   13.6880   -3.4700 C   0  0  0  0  0  0  0  0  0  0  0  0
    1.4260   12.9250   -2.7120 C   0  0  2  0  0  0  0  0  0  0  0  0
    2.6460   12.7460   -3.6790 C   0  0  0  0  0  0  0  0  0  0  0  0
   -1.1165   10.7419   -3.5414 H   0  0  0  0  0  0  0  0  0  0  0  0
    0.0047   11.4574   -4.7487 H   0  0  0  0  0  0  0  0  0  0  0  0
   -0.3051    9.6880   -4.7487 H   0  0  0  0  0  0  0  0  0  0  0  0
    1.9014   10.3483   -3.7477 H   0  0  0  0  0  0  0  0  0  0  0  0
    1.2123    8.2319   -3.0661 H   0  0  0  0  0  0  0  0  0  0  0  0
    1.5146    9.1243   -1.4988 H   0  0  0  0  0  0  0  0  0  0  0  0
   -1.2597    9.2651   -2.5159 H   0  0  0  0  0  0  0  0  0  0  0  0
   -0.6868    7.6214   -2.0082 H   0  0  0  0  0  0  0  0  0  0  0  0
    0.2386    8.6145   -0.1974 H   0  0  0  0  0  0  0  0  0  0  0  0
   -2.3976   12.1847   -0.4560 H   0  0  0  0  0  0  0  0  0  0  0  0
   -1.1215   11.7099   -1.6278 H   0  0  0  0  0  0  0  0  0  0  0  0
   -2.7029   10.8579   -1.6278 H   0  0  0  0  0  0  0  0  0  0  0  0
   -1.5164   10.1536    2.1094 H   0  0  0  0  0  0  0  0  0  0  0  0
   -0.0352   10.9659    1.4987 H   0  0  0  0  0  0  0  0  0  0  0  0
   -1.6041   11.8406    1.4987 H   0  0  0  0  0  0  0  0  0  0  0  0
   -0.0035   11.5364   -1.8152 H   0  0  0  0  0  0  0  0  0  0  0  0
    1.6134   10.8684   -0.1501 H   0  0  0  0  0  0  0  0  0  0  0  0
    2.8761   10.6022   -1.3717 H   0  0  0  0  0  0  0  0  0  0  0  0
    2.7151   12.8481    0.3883 H   0  0  0  0  0  0  0  0  0  0  0  0
    3.7351   12.7896   -1.0466 H   0  0  0  0  0  0  0  0  0  0  0  0
    0.9034   13.8038    0.6327 H   0  0  0  0  0  0  0  0  0  0  0  0
    0.0409   14.8112   -0.5789 H   0  0  0  0  0  0  0  0  0  0  0  0
   -0.1719   13.0275   -0.5789 H   0  0  0  0  0  0  0  0  0  0  0  0
    3.2723   14.8080   -2.3016 H   0  0  0  0  0  0  0  0  0  0  0  0
    3.1843   15.2227    0.2404 H   0  0  0  0  0  0  0  0  0  0  0  0
    3.6641   16.5633   -0.9261 H   0  0  0  0  0  0  0  0  0  0  0  0
    2.0599   17.2521    1.0480 H   0  0  0  0  0  0  0  0  0  0  0  0
   -0.4535   16.0127   -1.8585 H   0  0  0  0  0  0  0  0  0  0  0  0
    0.6420   18.7001   -2.8928 H   0  0  0  0  0  0  0  0  0  0  0  0
   -0.5414   17.6047   -3.7358 H   0  0  0  0  0  0  0  0  0  0  0  0
   -1.6510   19.5506   -2.6840 H   0  0  0  0  0  0  0  0  0  0  0  0
   -2.1782   17.9713   -1.9812 H   0  0  0  0  0  0  0  0  0  0  0  0
   -1.8572   19.5410   -0.1945 H   0  0  0  0  0  0  0  0  0  0  0  0
   -0.0730   20.5950   -1.6940 H   0  0  0  0  0  0  0  0  0  0  0  0
   -1.6216   17.0036    1.7028 H   0  0  0  0  0  0  0  0  0  0  0  0
   -2.4956   17.4438    0.1965 H   0  0  0  0  0  0  0  0  0  0  0  0
   -1.3444   16.0650    0.1965 H   0  0  0  0  0  0  0  0  0  0  0  0
   -0.3258   18.1182    2.3980 H   0  0  0  0  0  0  0  0  0  0  0  0
    1.1962   18.6196    1.5862 H   0  0  0  0  0  0  0  0  0  0  0  0
   -0.2256   19.7175    1.5862 H   0  0  0  0  0  0  0  0  0  0  0  0
    3.0025   17.5327   -2.6792 H   0  0  0  0  0  0  0  0  0  0  0  0
    3.1533   16.3982   -4.0637 H   0  0  0  0  0  0  0  0  0  0  0  0
    1.8638   17.6488   -4.0637 H   0  0  0  0  0  0  0  0  0  0  0  0
   -0.0508   15.6535   -4.2411 H   0  0  0  0  0  0  0  0  0  0  0  0
    1.6181   14.9326   -4.5998 H   0  0  0  0  0  0  0  0  0  0  0  0
   -0.5527   13.7781   -2.8280 H   0  0  0  0  0  0  0  0  0  0  0  0
    0.0936   13.1327   -4.3881 H   0  0  0  0  0  0  0  0  0  0  0  0
    3.5647   12.6112   -3.0892 H   0  0  0  0  0  0  0  0  0  0  0  0
    2.4845   11.8619   -4.3133 H   0  0  0  0  0  0  0  0  0  0  0  0
    2.7452   13.6392   -4.3133 H   0  0  0  0  0  0  0  0  0  0  0  0
  1  2  1  0
  2  3  1  0
  3  4  1  0
  4  5  1  0
  5  6  1  0
  6  7  1  0
  7  8  1  0
  7  9  1  0
  2 10  1  0
 10 11  1  0
 11 12  1  0
 12 13  1  0
 13 14  1  1
 13 15  1  0
 15 16  1  0
 16 17  1  0
 17 18  2  0
 18 19  1  0
 19 20  1  0
 20 21  1  0
 21 22  1  0
 22 23  1  0
 22 24  1  0
 24 25  1  0
 24 26  1  0
 19 27  1  0
 27 28  1  6
 27 29  1  0
 29 30  1  0
 30 31  1  0
 31 32  1  6
  7  5  1  0
 31 10  1  0
 31 13  1  0
 27 15  1  0
 24 18  1  0
  1 33  1  0
  1 34  1  0
  1 35  1  0
  2 36  1  6
  3 37  1  0
  3 38  1  0
  4 39  1  0
  4 40  1  0
  5 41  1  1
  8 42  1  0
  8 43  1  0
  8 44  1  0
  9 45  1  0
  9 46  1  0
  9 47  1  0
 10 48  1  1
 11 49  1  0
 11 50  1  0
 12 51  1  0
 12 52  1  0
 14 53  1  0
 14 54  1  0
 14 55  1  0
 15 56  1  6
 16 57  1  0
 16 58  1  0
 17 59  1  0
 19 60  1  1
 20 61  1  0
 20 62  1  0
 21 63  1  0
 21 64  1  0
 22 65  1  1
 23 66  1  0
 25 67  1  0
 25 68  1  0
 25 69  1  0
 26 70  1  0
 26 71  1  0
 26 72  1  0
 28 73  1  0
 28 74  1  0
 28 75  1  0
 29 76  1  0
 29 77  1  0
 30 78  1  0
 30 79  1  0
 32 80  1  0
 32 81  1  0
 32 82  1  0
M  END
>  <meeko>  (8) 
{"is_sidechain": [false], "intermolecular_energy": 2.731, "internal_energy": -0.839}

$$$$
EPH_relaxed_0001_pdb2pqr_Repair_237_r2_0001_out
     RDKit          3D

 82 86  0  0  0  0  0  0  0  0999 V2000
   -0.9470   16.3880   -5.9040 C   0  0  0  0  0  0  0  0  0  0  0  0
    0.1690   15.7000   -6.6960 C   0  0  2  0  0  0  0  0  0  0  0  0
   -0.2080   15.5000   -8.1770 C   0  0  0  0  0  0  0  0  0  0  0  0
    0.4480   16.5120   -9.1210 C   0  0  0  0  0  0  0  0  0  0  0  0
    1.8520   16.1170   -9.4670 C   0  0  2  0  0  0  0  0  0  0  0  0
    2.3480   16.6780  -10.6890 O   0  0  0  0  0  0  0  0  0  0  0  0
    2.2070   15.2490  -10.6590 C   0  0  0  0  0  0  0  0  0  0  0  0
    1.1540   14.7210  -11.5820 C   0  0  0  0  0  0  0  0  0  0  0  0
    3.5120   14.5150  -10.6460 C   0  0  0  0  0  0  0  0  0  0  0  0
    0.5060   14.3570   -6.0580 C   0  0  1  0  0  0  0  0  0  0  0  0
    1.7340   13.6750   -6.7170 C   0  0  0  0  0  0  0  0  0  0  0  0
    2.4890   12.9270   -5.5880 C   0  0  0  0  0  0  0  0  0  0  0  0
    1.5040   12.9240   -4.3950 C   0  0  1  0  0  0  0  0  0  0  0  0
    0.5210   11.7480   -4.6890 C   0  0  0  0  0  0  0  0  0  0  0  0
    2.1410   12.8020   -2.9730 C   0  0  2  0  0  0  0  0  0  0  0  0
    2.9110   11.4950   -2.7130 C   0  0  0  0  0  0  0  0  0  0  0  0
    2.1010   10.3810   -2.1380 C   0  0  0  0  0  0  0  0  0  0  0  0
    0.8830   10.5070   -1.5790 C   0  0  0  0  0  0  0  0  0  0  0  0
    0.2410   11.8880   -1.3940 C   0  0  1  0  0  0  0  0  0  0  0  0
   -0.3380   12.0010    0.0410 C   0  0  0  0  0  0  0  0  0  0  0  0
   -1.2950   10.8620    0.3780 C   0  0  0  0  0  0  0  0  0  0  0  0
   -0.6030    9.5090    0.2390 C   0  0  2  0  0  0  0  0  0  0  0  0
    0.4090    9.4030    1.2440 O   0  0  0  0  0  0  0  0  0  0  0  0
    0.0280    9.2850   -1.1640 C   0  0  0  0  0  0  0  0  0  0  0  0
   -1.0940    9.0980   -2.2160 C   0  0  0  0  0  0  0  0  0  0  0  0
    0.8140    7.9460   -1.1260 C   0  0  0  0  0  0  0  0  0  0  0  0
    1.1470   13.1330   -1.7870 C   0  0  1  0  0  0  0  0  0  0  0  0
    2.0290   13.5540   -0.5710 C   0  0  0  0  0  0  0  0  0  0  0  0
    0.2190   14.3630   -2.1090 C   0  0  0  0  0  0  0  0  0  0  0  0
   -0.2810   14.4940   -3.5600 C   0  0  0  0  0  0  0  0  0  0  0  0
    0.8760   14.3570   -4.5540 C   0  0  2  0  0  0  0  0  0  0  0  0
    1.8710   15.5400   -4.2970 C   0  0  0  0  0  0  0  0  0  0  0  0
   -0.7577   16.2713   -4.8267 H   0  0  0  0  0  0  0  0  0  0  0  0
   -0.9711   17.4579   -6.1582 H   0  0  0  0  0  0  0  0  0  0  0  0
   -1.9137   15.9289   -6.1582 H   0  0  0  0  0  0  0  0  0  0  0  0
    1.0502   16.3578   -6.6663 H   0  0  0  0  0  0  0  0  0  0  0  0
    0.1025   14.4895   -8.4810 H   0  0  0  0  0  0  0  0  0  0  0  0
   -1.2955   15.6459   -8.2546 H   0  0  0  0  0  0  0  0  0  0  0  0
   -0.1438   16.5723  -10.0463 H   0  0  0  0  0  0  0  0  0  0  0  0
    0.4813   17.4859   -8.6107 H   0  0  0  0  0  0  0  0  0  0  0  0
    2.1216   16.0545   -8.4024 H   0  0  0  0  0  0  0  0  0  0  0  0
    0.3242   14.3049  -10.9918 H   0  0  0  0  0  0  0  0  0  0  0  0
    0.7793   15.5379  -12.2163 H   0  0  0  0  0  0  0  0  0  0  0  0
    1.5845   13.9321  -12.2163 H   0  0  0  0  0  0  0  0  0  0  0  0
    3.8237   14.3397   -9.6058 H   0  0  0  0  0  0  0  0  0  0  0  0
    3.3952   13.5502  -11.1613 H   0  0  0  0  0  0  0  0  0  0  0  0
    4.2758   15.1159  -11.1613 H   0  0  0  0  0  0  0  0  0  0  0  0
   -0.4506   13.8353   -6.2091 H   0  0  0  0  0  0  0  0  0  0  0  0
    1.4037   12.9633   -7.4880 H   0  0  0  0  0  0  0  0  0  0  0  0
    2.3845   14.4170   -7.2031 H   0  0  0  0  0  0  0  0  0  0  0  0
    2.7286   11.8986   -5.8963 H   0  0  0  0  0  0  0  0  0  0  0  0
    3.4463   13.4073   -5.3372 H   0  0  0  0  0  0  0  0  0  0  0  0
    0.1648   11.3218   -3.7395 H   0  0  0  0  0  0  0  0  0  0  0  0
   -0.3364   12.1227   -5.2673 H   0  0  0  0  0  0  0  0  0  0  0  0
    1.0418   10.9706   -5.2673 H   0  0  0  0  0  0  0  0  0  0  0  0
    2.8997   13.5984   -2.9851 H   0  0  0  0  0  0  0  0  0  0  0  0
    3.3302   11.1514   -3.6702 H   0  0  0  0  0  0  0  0  0  0  0  0
    3.6744   11.7367   -1.9588 H   0  0  0  0  0  0  0  0  0  0  0  0
    2.5363    9.3714   -2.1741 H   0  0  0  0  0  0  0  0  0  0  0  0
   -0.5734   11.9461   -2.1311 H   0  0  0  0  0  0  0  0  0  0  0  0
    0.4949   11.9857    0.7593 H   0  0  0  0  0  0  0  0  0  0  0  0
   -0.9056   12.9415    0.0985 H   0  0  0  0  0  0  0  0  0  0  0  0
   -1.6467   10.9818    1.4133 H   0  0  0  0  0  0  0  0  0  0  0  0
   -2.1424   10.8965   -0.3225 H   0  0  0  0  0  0  0  0  0  0  0  0
   -1.3708    8.7315    0.3654 H   0  0  0  0  0  0  0  0  0  0  0  0
    1.1580    8.9180    0.8580 H   0  0  0  0  0  0  0  0  0  0  0  0
   -2.0541    8.9380   -1.7036 H   0  0  0  0  0  0  0  0  0  0  0  0
   -1.1599    9.9976   -2.8457 H   0  0  0  0  0  0  0  0  0  0  0  0
   -0.8646    8.2257   -2.8457 H   0  0  0  0  0  0  0  0  0  0  0  0
    0.9867    7.6518   -0.0802 H   0  0  0  0  0  0  0  0  0  0  0  0
    0.2314    7.1643   -1.6354 H   0  0  0  0  0  0  0  0  0  0  0  0
    1.7805    8.0736   -1.6354 H   0  0  0  0  0  0  0  0  0  0  0  0
    1.5068   13.3047    0.3645 H   0  0  0  0  0  0  0  0  0  0  0  0
    2.9879   13.0165   -0.6100 H   0  0  0  0  0  0  0  0  0  0  0  0
    2.2142   14.6376   -0.6100 H   0  0  0  0  0  0  0  0  0  0  0  0
   -0.6645   14.2930   -1.4575 H   0  0  0  0  0  0  0  0  0  0  0  0
    0.8472   15.2500   -1.9396 H   0  0  0  0  0  0  0  0  0  0  0  0
   -1.0208   13.7044   -3.7582 H   0  0  0  0  0  0  0  0  0  0  0  0
   -0.7350   15.4880   -3.6857 H   0  0  0  0  0  0  0  0  0  0  0  0
    1.9943   15.6866   -3.2138 H   0  0  0  0  0  0  0  0  0  0  0  0
    2.8459   15.3038   -4.7484 H   0  0  0  0  0  0  0  0  0  0  0  0
    1.4712   16.4600   -4.7484 H   0  0  0  0  0  0  0  0  0  0  0  0
  1  2  1  0
  2  3  1  0
  3  4  1  0
  4  5  1  0
  5  6  1  0
  6  7  1  0
  7  8  1  0
  7  9  1  0
  2 10  1  0
 10 11  1  0
 11 12  1  0
 12 13  1  0
 13 14  1  6
 13 15  1  0
 15 16  1  0
 16 17  1  0
 17 18  2  0
 18 19  1  0
 19 20  1  0
 20 21  1  0
 21 22  1  0
 22 23  1  0
 22 24  1  0
 24 25  1  0
 24 26  1  0
 19 27  1  0
 27 28  1  1
 27 29  1  0
 29 30  1  0
 30 31  1  0
 31 32  1  6
  7  5  1  0
 31 10  1  0
 31 13  1  0
 27 15  1  0
 24 18  1  0
  1 33  1  0
  1 34  1  0
  1 35  1  0
  2 36  1  6
  3 37  1  0
  3 38  1  0
  4 39  1  0
  4 40  1  0
  5 41  1  1
  8 42  1  0
  8 43  1  0
  8 44  1  0
  9 45  1  0
  9 46  1  0
  9 47  1  0
 10 48  1  1
 11 49  1  0
 11 50  1  0
 12 51  1  0
 12 52  1  0
 14 53  1  0
 14 54  1  0
 14 55  1  0
 15 56  1  6
 16 57  1  0
 16 58  1  0
 17 59  1  0
 19 60  1  6
 20 61  1  0
 20 62  1  0
 21 63  1  0
 21 64  1  0
 22 65  1  1
 23 66  1  0
 25 67  1  0
 25 68  1  0
 25 69  1  0
 26 70  1  0
 26 71  1  0
 26 72  1  0
 28 73  1  0
 28 74  1  0
 28 75  1  0
 29 76  1  0
 29 77  1  0
 30 78  1  0
 30 79  1  0
 32 80  1  0
 32 81  1  0
 32 82  1  0
M  END
>  <meeko>  (9) 
{"is_sidechain": [false], "intermolecular_energy": 2.731, "internal_energy": -0.839}

$$$$
EPH_relaxed_0001_pdb2pqr_Repair_237_r2_0001_out
     RDKit          3D

 82 86  0  0  0  0  0  0  0  0999 V2000
   -3.7620    7.2250   -3.4590 C   0  0  0  0  0  0  0  0  0  0  0  0
   -3.7600    7.2960   -1.9300 C   0  0  2  0  0  0  0  0  0  0  0  0
   -5.1640    7.0660   -1.3360 C   0  0  0  0  0  0  0  0  0  0  0  0
   -6.2950    7.2000   -2.3600 C   0  0  0  0  0  0  0  0  0  0  0  0
   -7.6180    7.4350   -1.6970 C   0  0  2  0  0  0  0  0  0  0  0  0
   -8.2280    6.2610   -1.1440 O   0  0  0  0  0  0  0  0  0  0  0  0
   -8.9300    6.8890   -2.2290 C   0  0  0  0  0  0  0  0  0  0  0  0
   -8.9820    6.0640   -3.4770 C   0  0  0  0  0  0  0  0  0  0  0  0
  -10.2040    7.5570   -1.8170 C   0  0  0  0  0  0  0  0  0  0  0  0
   -3.2160    8.6440   -1.4730 C   0  0  1  0  0  0  0  0  0  0  0  0
   -3.8470    9.1220   -0.1380 C   0  0  0  0  0  0  0  0  0  0  0  0
   -2.7370    9.8790    0.6360 C   0  0  0  0  0  0  0  0  0  0  0  0
   -1.6160   10.1000   -0.4060 C   0  0  1  0  0  0  0  0  0  0  0  0
   -2.0700   11.3480   -1.2260 C   0  0  0  0  0  0  0  0  0  0  0  0
   -0.1700   10.2770    0.1610 C   0  0  2  0  0  0  0  0  0  0  0  0
    0.0300   11.5070    1.0650 C   0  0  0  0  0  0  0  0  0  0  0  0
    0.4560   12.7520    0.3610 C   0  0  0  0  0  0  0  0  0  0  0  0
    0.9440   12.8150   -0.8920 C   0  0  0  0  0  0  0  0  0  0  0  0
    1.2000   11.5380   -1.7020 C   0  0  1  0  0  0  0  0  0  0  0  0
    2.5990   11.6200   -2.3690 C   0  0  0  0  0  0  0  0  0  0  0  0
    2.7760   12.8850   -3.2030 C   0  0  0  0  0  0  0  0  0  0  0  0
    2.5710   14.1340   -2.3490 C   0  0  2  0  0  0  0  0  0  0  0  0
    3.6280   14.2150   -1.3880 O   0  0  0  0  0  0  0  0  0  0  0  0
    1.1980   14.1580   -1.6200 C   0  0  0  0  0  0  0  0  0  0  0  0
    0.0640   14.3750   -2.6520 C   0  0  0  0  0  0  0  0  0  0  0  0
    1.1770   15.3980   -0.6850 C   0  0  0  0  0  0  0  0  0  0  0  0
    0.9720   10.1690   -0.9290 C   0  0  1  0  0  0  0  0  0  0  0  0
    2.2730    9.7620   -0.1710 C   0  0  0  0  0  0  0  0  0  0  0  0
    0.6930    9.0270   -1.9760 C   0  0  0  0  0  0  0  0  0  0  0  0
   -0.7720    8.8220   -2.4070 C   0  0  0  0  0  0  0  0  0  0  0  0
   -1.6960    8.7380   -1.1880 C   0  0  2  0  0  0  0  0  0  0  0  0
   -1.2760    7.4790   -0.3560 C   0  0  0  0  0  0  0  0  0  0  0  0
   -3.7917    6.1724   -3.7771 H   0  0  0  0  0  0  0  0  0  0  0  0
   -4.6457    7.7511   -3.8493 H   0  0  0  0  0  0  0  0  0  0  0  0
   -2.8501    7.7005   -3.8493 H   0  0  0  0  0  0  0  0  0  0  0  0
   -3.1097    6.4886   -1.5624 H   0  0  0  0  0  0  0  0  0  0  0  0
   -5.1992    6.0523   -0.9103 H   0  0  0  0  0  0  0  0  0  0  0  0
   -5.3236    7.8458   -0.5767 H   0  0  0  0  0  0  0  0  0  0  0  0
   -6.0745    8.0473   -3.0259 H   0  0  0  0  0  0  0  0  0  0  0  0
   -6.3577    6.2593   -2.9266 H   0  0  0  0  0  0  0  0  0  0  0  0
   -7.3101    8.4451   -1.3888 H   0  0  0  0  0  0  0  0  0  0  0  0
   -9.0491    4.9990   -3.2100 H   0  0  0  0  0  0  0  0  0  0  0  0
   -9.8639    6.3499   -4.0690 H   0  0  0  0  0  0  0  0  0  0  0  0
   -8.0712    6.2369   -4.0690 H   0  0  0  0  0  0  0  0  0  0  0  0
  -10.2633    7.5881   -0.7190 H   0  0  0  0  0  0  0  0  0  0  0  0
  -10.2256    8.5824   -2.2145 H   0  0  0  0  0  0  0  0  0  0  0  0
  -11.0597    6.9916   -2.2145 H   0  0  0  0  0  0  0  0  0  0  0  0
   -3.4729    9.2534   -2.3520 H   0  0  0  0  0  0  0  0  0  0  0  0
   -4.6944    9.7940   -0.3388 H   0  0  0  0  0  0  0  0  0  0  0  0
   -4.2258    8.2708    0.4468 H   0  0  0  0  0  0  0  0  0  0  0  0
   -3.1133   10.8420    1.0117 H   0  0  0  0  0  0  0  0  0  0  0  0
   -2.3851    9.3187    1.5148 H   0  0  0  0  0  0  0  0  0  0  0  0
   -2.3629   12.1532   -0.5362 H   0  0  0  0  0  0  0  0  0  0  0  0
   -1.2395   11.6922   -1.8599 H   0  0  0  0  0  0  0  0  0  0  0  0
   -2.9276   11.0781   -1.8599 H   0  0  0  0  0  0  0  0  0  0  0  0
   -0.0660    9.4018    0.8192 H   0  0  0  0  0  0  0  0  0  0  0  0
   -0.9230   11.7134    1.5741 H   0  0  0  0  0  0  0  0  0  0  0  0
    0.8495   11.2500    1.7523 H   0  0  0  0  0  0  0  0  0  0  0  0
    0.3633   13.6989    0.9130 H   0  0  0  0  0  0  0  0  0  0  0  0
    0.4185   11.5067   -2.4755 H   0  0  0  0  0  0  0  0  0  0  0  0
    3.3666   11.6067   -1.5812 H   0  0  0  0  0  0  0  0  0  0  0  0
    2.6978   10.7578   -3.0449 H   0  0  0  0  0  0  0  0  0  0  0  0
    3.7921   12.8995   -3.6241 H   0  0  0  0  0  0  0  0  0  0  0  0
    2.0264   12.8829   -4.0080 H   0  0  0  0  0  0  0  0  0  0  0  0
    2.5828   15.0017   -3.0250 H   0  0  0  0  0  0  0  0  0  0  0  0
    4.4150   13.8000   -1.7810 H   0  0  0  0  0  0  0  0  0  0  0  0
   -0.8833   14.5563   -2.1231 H   0  0  0  0  0  0  0  0  0  0  0  0
    0.3037   15.2436   -3.2830 H   0  0  0  0  0  0  0  0  0  0  0  0
   -0.0339   13.4793   -3.2830 H   0  0  0  0  0  0  0  0  0  0  0  0
    1.1826   15.0665    0.3638 H   0  0  0  0  0  0  0  0  0  0  0  0
    2.0648   16.0181   -0.8783 H   0  0  0  0  0  0  0  0  0  0  0  0
    0.2687   15.9877   -0.8783 H   0  0  0  0  0  0  0  0  0  0  0  0
    2.0978    9.8168    0.9136 H   0  0  0  0  0  0  0  0  0  0  0  0
    2.5512    8.7339   -0.4460 H   0  0  0  0  0  0  0  0  0  0  0  0
    3.0875   10.4483   -0.4460 H   0  0  0  0  0  0  0  0  0  0  0  0
    1.2770    9.2544   -2.8800 H   0  0  0  0  0  0  0  0  0  0  0  0
    0.9762    8.0941   -1.4665 H   0  0  0  0  0  0  0  0  0  0  0  0
   -1.0835    9.6683   -3.0369 H   0  0  0  0  0  0  0  0  0  0  0  0
   -0.8438    7.8780   -2.9670 H   0  0  0  0  0  0  0  0  0  0  0  0
   -1.3520    7.7068    0.7175 H   0  0  0  0  0  0  0  0  0  0  0  0
   -1.9425    6.6388   -0.6006 H   0  0  0  0  0  0  0  0  0  0  0  0
   -0.2385    7.2072   -0.6006 H   0  0  0  0  0  0  0  0  0  0  0  0
  1  2  1  0
  2  3  1  0
  3  4  1  0
  4  5  1  0
  5  6  1  0
  6  7  1  0
  7  8  1  0
  7  9  1  0
  2 10  1  0
 10 11  1  0
 11 12  1  0
 12 13  1  0
 13 14  1  6
 13 15  1  0
 15 16  1  0
 16 17  1  0
 17 18  2  0
 18 19  1  0
 19 20  1  0
 20 21  1  0
 21 22  1  0
 22 23  1  0
 22 24  1  0
 24 25  1  0
 24 26  1  0
 19 27  1  0
 27 28  1  1
 27 29  1  0
 29 30  1  0
 30 31  1  0
 31 32  1  1
  7  5  1  0
 31 10  1  0
 31 13  1  0
 27 15  1  0
 24 18  1  0
  1 33  1  0
  1 34  1  0
  1 35  1  0
  2 36  1  1
  3 37  1  0
  3 38  1  0
  4 39  1  0
  4 40  1  0
  5 41  1  1
  8 42  1  0
  8 43  1  0
  8 44  1  0
  9 45  1  0
  9 46  1  0
  9 47  1  0
 10 48  1  6
 11 49  1  0
 11 50  1  0
 12 51  1  0
 12 52  1  0
 14 53  1  0
 14 54  1  0
 14 55  1  0
 15 56  1  1
 16 57  1  0
 16 58  1  0
 17 59  1  0
 19 60  1  6
 20 61  1  0
 20 62  1  0
 21 63  1  0
 21 64  1  0
 22 65  1  6
 23 66  1  0
 25 67  1  0
 25 68  1  0
 25 69  1  0
 26 70  1  0
 26 71  1  0
 26 72  1  0
 28 73  1  0
 28 74  1  0
 28 75  1  0
 29 76  1  0
 29 77  1  0
 30 78  1  0
 30 79  1  0
 32 80  1  0
 32 81  1  0
 32 82  1  0
M  END
>  <meeko>  (10) 
{"is_sidechain": [false], "intermolecular_energy": 2.731, "internal_energy": -0.839}

$$$$
EPH_relaxed_0001_pdb2pqr_Repair_237_r2_0001_out
     RDKit          3D

 82 86  0  0  0  0  0  0  0  0999 V2000
   -0.2840   15.1340   -7.6610 C   0  0  0  0  0  0  0  0  0  0  0  0
    1.0920   15.1060   -6.9890 C   0  0  2  0  0  0  0  0  0  0  0  0
    2.2400   15.1910   -8.0150 C   0  0  0  0  0  0  0  0  0  0  0  0
    2.2640   16.5020   -8.8050 C   0  0  0  0  0  0  0  0  0  0  0  0
    1.8660   16.2940  -10.2350 C   0  0  2  0  0  0  0  0  0  0  0  0
    1.1990   15.0530  -10.4970 O   0  0  0  0  0  0  0  0  0  0  0  0
    2.4770   15.2300  -11.1270 C   0  0  0  0  0  0  0  0  0  0  0  0
    3.5390   14.3040  -10.6220 C   0  0  0  0  0  0  0  0  0  0  0  0
    2.3980   15.4090  -12.6120 C   0  0  0  0  0  0  0  0  0  0  0  0
    1.2350   13.8410   -6.1510 C   0  0  1  0  0  0  0  0  0  0  0  0
    2.6650   13.2400   -6.2140 C   0  0  0  0  0  0  0  0  0  0  0  0
    2.9580   12.6360   -4.8170 C   0  0  0  0  0  0  0  0  0  0  0  0
    1.5840   12.6100   -4.1070 C   0  0  1  0  0  0  0  0  0  0  0  0
    0.8760   11.3300   -4.6510 C   0  0  0  0  0  0  0  0  0  0  0  0
    1.6140   12.6330   -2.5440 C   0  0  2  0  0  0  0  0  0  0  0  0
    2.3010   11.4230   -1.8870 C   0  0  0  0  0  0  0  0  0  0  0  0
    1.4030   10.2720   -1.5730 C   0  0  0  0  0  0  0  0  0  0  0  0
    0.0580   10.3150   -1.5450 C   0  0  0  0  0  0  0  0  0  0  0  0
   -0.6930   11.6370   -1.7520 C   0  0  1  0  0  0  0  0  0  0  0  0
   -1.7970   11.7790   -0.6720 C   0  0  0  0  0  0  0  0  0  0  0  0
   -2.7340   10.5760   -0.6310 C   0  0  0  0  0  0  0  0  0  0  0  0
   -1.9580    9.2890   -0.3660 C   0  0  2  0  0  0  0  0  0  0  0  0
   -1.4210    9.3400    0.9590 O   0  0  0  0  0  0  0  0  0  0  0  0
   -0.8110    9.0430   -1.3860 C   0  0  0  0  0  0  0  0  0  0  0  0
   -1.4120    8.6890   -2.7690 C   0  0  0  0  0  0  0  0  0  0  0  0
   -0.0200    7.7900   -0.9230 C   0  0  0  0  0  0  0  0  0  0  0  0
    0.2130   12.9370   -1.8740 C   0  0  1  0  0  0  0  0  0  0  0  0
    0.5140   13.5110   -0.4550 C   0  0  0  0  0  0  0  0  0  0  0  0
   -0.5890   14.0520   -2.6430 C   0  0  0  0  0  0  0  0  0  0  0  0
   -0.4820   14.0500   -4.1800 C   0  0  0  0  0  0  0  0  0  0  0  0
    0.9800   13.9640   -4.6280 C   0  0  2  0  0  0  0  0  0  0  0  0
    1.7140   15.2500   -4.1140 C   0  0  0  0  0  0  0  0  0  0  0  0
   -1.0684   15.1500   -6.8899 H   0  0  0  0  0  0  0  0  0  0  0  0
   -0.3677   16.0340   -8.2878 H   0  0  0  0  0  0  0  0  0  0  0  0
   -0.4042   14.2381   -8.2878 H   0  0  0  0  0  0  0  0  0  0  0  0
    1.1624   15.9915   -6.3402 H   0  0  0  0  0  0  0  0  0  0  0  0
    3.1944   15.0923   -7.4771 H   0  0  0  0  0  0  0  0  0  0  0  0
    2.0819   14.3807   -8.7419 H   0  0  0  0  0  0  0  0  0  0  0  0
    1.5641   17.2117   -8.3396 H   0  0  0  0  0  0  0  0  0  0  0  0
    3.2916   16.8941   -8.7883 H   0  0  0  0  0  0  0  0  0  0  0  0
    1.7126   17.3744  -10.3735 H   0  0  0  0  0  0  0  0  0  0  0  0
    3.5354   14.3071   -9.5220 H   0  0  0  0  0  0  0  0  0  0  0  0
    3.3408   13.2852  -10.9864 H   0  0  0  0  0  0  0  0  0  0  0  0
    4.5213   14.6391  -10.9864 H   0  0  0  0  0  0  0  0  0  0  0  0
    1.9635   16.3935  -12.8400 H   0  0  0  0  0  0  0  0  0  0  0  0
    3.4079   15.3451  -13.0433 H   0  0  0  0  0  0  0  0  0  0  0  0
    1.7646   14.6198  -13.0433 H   0  0  0  0  0  0  0  0  0  0  0  0
    0.4517   13.2237   -6.6152 H   0  0  0  0  0  0  0  0  0  0  0  0
    2.7126   12.4554   -6.9835 H   0  0  0  0  0  0  0  0  0  0  0  0
    3.4060   14.0100   -6.4747 H   0  0  0  0  0  0  0  0  0  0  0  0
    3.3655   11.6187   -4.9115 H   0  0  0  0  0  0  0  0  0  0  0  0
    3.7050   13.2193   -4.2587 H   0  0  0  0  0  0  0  0  0  0  0  0
    0.5347   10.7129   -3.8068 H   0  0  0  0  0  0  0  0  0  0  0  0
    0.0112   11.6222   -5.2648 H   0  0  0  0  0  0  0  0  0  0  0  0
    1.5831   10.7527   -5.2648 H   0  0  0  0  0  0  0  0  0  0  0  0
    2.2629   13.4957   -2.3324 H   0  0  0  0  0  0  0  0  0  0  0  0
    3.0855   11.0654   -2.5701 H   0  0  0  0  0  0  0  0  0  0  0  0
    2.6870   11.7800   -0.9208 H   0  0  0  0  0  0  0  0  0  0  0  0
    1.8809    9.3078   -1.3454 H   0  0  0  0  0  0  0  0  0  0  0  0
   -1.1526   11.5735   -2.7494 H   0  0  0  0  0  0  0  0  0  0  0  0
   -1.3163   11.8851    0.3117 H   0  0  0  0  0  0  0  0  0  0  0  0
   -2.4001   12.6633   -0.9256 H   0  0  0  0  0  0  0  0  0  0  0  0
   -3.4729   10.7224    0.1706 H   0  0  0  0  0  0  0  0  0  0  0  0
   -3.2362   10.4888   -1.6058 H   0  0  0  0  0  0  0  0  0  0  0  0
   -2.6613    8.4507   -0.4781 H   0  0  0  0  0  0  0  0  0  0  0  0
   -0.5050    9.6610    0.8930 H   0  0  0  0  0  0  0  0  0  0  0  0
   -2.3521    8.1352   -2.6294 H   0  0  0  0  0  0  0  0  0  0  0  0
   -1.6112    9.6141   -3.3299 H   0  0  0  0  0  0  0  0  0  0  0  0
   -0.6995    8.0663   -3.3299 H   0  0  0  0  0  0  0  0  0  0  0  0
    0.0017    7.7556    0.1762 H   0  0  0  0  0  0  0  0  0  0  0  0
   -0.5101    6.8838   -1.3086 H   0  0  0  0  0  0  0  0  0  0  0  0
    1.0089    7.8427   -1.3086 H   0  0  0  0  0  0  0  0  0  0  0  0
    0.1466   12.8105    0.3094 H   0  0  0  0  0  0  0  0  0  0  0  0
    1.5992   13.6465   -0.3369 H   0  0  0  0  0  0  0  0  0  0  0  0
    0.0084   14.4807   -0.3369 H   0  0  0  0  0  0  0  0  0  0  0  0
   -1.6516   13.9365   -2.3833 H   0  0  0  0  0  0  0  0  0  0  0  0
   -0.1371   15.0029   -2.3244 H   0  0  0  0  0  0  0  0  0  0  0  0
   -1.0317   13.1842   -4.5778 H   0  0  0  0  0  0  0  0  0  0  0  0
   -0.9113   14.9878   -4.5625 H   0  0  0  0  0  0  0  0  0  0  0  0
    1.7171   15.2555   -3.0140 H   0  0  0  0  0  0  0  0  0  0  0  0
    2.7500   15.2533   -4.4836 H   0  0  0  0  0  0  0  0  0  0  0  0
    1.1900   16.1437   -4.4836 H   0  0  0  0  0  0  0  0  0  0  0  0
  1  2  1  0
  2  3  1  0
  3  4  1  0
  4  5  1  0
  5  6  1  0
  6  7  1  0
  7  8  1  0
  7  9  1  0
  2 10  1  0
 10 11  1  0
 11 12  1  0
 12 13  1  0
 13 14  1  1
 13 15  1  0
 15 16  1  0
 16 17  1  0
 17 18  2  0
 18 19  1  0
 19 20  1  0
 20 21  1  0
 21 22  1  0
 22 23  1  0
 22 24  1  0
 24 25  1  0
 24 26  1  0
 19 27  1  0
 27 28  1  1
 27 29  1  0
 29 30  1  0
 30 31  1  0
 31 32  1  1
  7  5  1  0
 31 10  1  0
 31 13  1  0
 27 15  1  0
 24 18  1  0
  1 33  1  0
  1 34  1  0
  1 35  1  0
  2 36  1  1
  3 37  1  0
  3 38  1  0
  4 39  1  0
  4 40  1  0
  5 41  1  6
  8 42  1  0
  8 43  1  0
  8 44  1  0
  9 45  1  0
  9 46  1  0
  9 47  1  0
 10 48  1  6
 11 49  1  0
 11 50  1  0
 12 51  1  0
 12 52  1  0
 14 53  1  0
 14 54  1  0
 14 55  1  0
 15 56  1  6
 16 57  1  0
 16 58  1  0
 17 59  1  0
 19 60  1  6
 20 61  1  0
 20 62  1  0
 21 63  1  0
 21 64  1  0
 22 65  1  1
 23 66  1  0
 25 67  1  0
 25 68  1  0
 25 69  1  0
 26 70  1  0
 26 71  1  0
 26 72  1  0
 28 73  1  0
 28 74  1  0
 28 75  1  0
 29 76  1  0
 29 77  1  0
 30 78  1  0
 30 79  1  0
 32 80  1  0
 32 81  1  0
 32 82  1  0
M  END
>  <meeko>  (11) 
{"is_sidechain": [false], "intermolecular_energy": 2.731, "internal_energy": -0.839}

$$$$
EPH_relaxed_0001_pdb2pqr_Repair_237_r2_0001_out
     RDKit          3D

 82 86  0  0  0  0  0  0  0  0999 V2000
   -2.1810    7.8630   -2.1420 C   0  0  0  0  0  0  0  0  0  0  0  0
   -2.1880    8.4990   -0.7500 C   0  0  2  0  0  0  0  0  0  0  0  0
   -3.5960    8.5030   -0.1200 C   0  0  0  0  0  0  0  0  0  0  0  0
   -4.7300    8.5320   -1.1480 C   0  0  0  0  0  0  0  0  0  0  0  0
   -5.7930    7.5250   -0.8300 C   0  0  2  0  0  0  0  0  0  0  0  0
   -5.3700    6.1590   -0.9230 O   0  0  0  0  0  0  0  0  0  0  0  0
   -6.3800    6.5750   -1.8570 C   0  0  0  0  0  0  0  0  0  0  0  0
   -5.9230    6.5880   -3.2820 C   0  0  0  0  0  0  0  0  0  0  0  0
   -7.7280    5.9790   -1.5930 C   0  0  0  0  0  0  0  0  0  0  0  0
   -1.6480    9.9220   -0.8260 C   0  0  1  0  0  0  0  0  0  0  0  0
   -1.1730   10.4550    0.5520 C   0  0  0  0  0  0  0  0  0  0  0  0
    0.0530   11.3650    0.2820 C   0  0  0  0  0  0  0  0  0  0  0  0
    0.0400   11.5920   -1.2480 C   0  0  1  0  0  0  0  0  0  0  0  0
   -1.0100   12.7240   -1.4770 C   0  0  0  0  0  0  0  0  0  0  0  0
    1.4150   11.9380   -1.9070 C   0  0  2  0  0  0  0  0  0  0  0  0
    2.0570   13.2510   -1.4260 C   0  0  0  0  0  0  0  0  0  0  0  0
    1.6920   14.4650   -2.2150 C   0  0  0  0  0  0  0  0  0  0  0  0
    1.1130   14.4630   -3.4310 C   0  0  0  0  0  0  0  0  0  0  0  0
    0.8570   13.1490   -4.1790 C   0  0  1  0  0  0  0  0  0  0  0  0
    1.3210   13.2920   -5.6520 C   0  0  0  0  0  0  0  0  0  0  0  0
    0.6900   14.4930   -6.3500 C   0  0  0  0  0  0  0  0  0  0  0  0
    1.0170   15.7870   -5.6090 C   0  0  2  0  0  0  0  0  0  0  0  0
    2.4210   16.0380   -5.7150 O   0  0  0  0  0  0  0  0  0  0  0  0
    0.6030   15.7570   -4.1110 C   0  0  0  0  0  0  0  0  0  0  0  0
   -0.9410   15.7890   -3.9970 C   0  0  0  0  0  0  0  0  0  0  0  0
    1.1140   17.0640   -3.4480 C   0  0  0  0  0  0  0  0  0  0  0  0
    1.4220   11.8350   -3.4860 C   0  0  1  0  0  0  0  0  0  0  0  0
    2.9040   11.6050   -3.9110 C   0  0  0  0  0  0  0  0  0  0  0  0
    0.6120   10.5890   -4.0080 C   0  0  0  0  0  0  0  0  0  0  0  0
   -0.6750   10.2260   -3.2420 C   0  0  0  0  0  0  0  0  0  0  0  0
   -0.4160   10.1680   -1.7330 C   0  0  2  0  0  0  0  0  0  0  0  0
    0.6200    9.0220   -1.4690 C   0  0  0  0  0  0  0  0  0  0  0  0
   -2.1689    6.7674   -2.0445 H   0  0  0  0  0  0  0  0  0  0  0  0
   -3.0826    8.1724   -2.6910 H   0  0  0  0  0  0  0  0  0  0  0  0
   -1.2864    8.1921   -2.6910 H   0  0  0  0  0  0  0  0  0  0  0  0
   -1.5391    7.8889   -0.1045 H   0  0  0  0  0  0  0  0  0  0  0  0
   -3.7052    7.5955    0.4920 H   0  0  0  0  0  0  0  0  0  0  0  0
   -3.6789    9.4237    0.4761 H   0  0  0  0  0  0  0  0  0  0  0  0
   -5.1802    9.5356   -1.1538 H   0  0  0  0  0  0  0  0  0  0  0  0
   -4.3065    8.2839   -2.1324 H   0  0  0  0  0  0  0  0  0  0  0  0
   -6.2602    8.2113   -0.1084 H   0  0  0  0  0  0  0  0  0  0  0  0
   -4.8239    6.6193   -3.3143 H   0  0  0  0  0  0  0  0  0  0  0  0
   -6.2790    5.6794   -3.7896 H   0  0  0  0  0  0  0  0  0  0  0  0
   -6.3301    7.4749   -3.7896 H   0  0  0  0  0  0  0  0  0  0  0  0
   -7.8909    5.9070   -0.5075 H   0  0  0  0  0  0  0  0  0  0  0  0
   -8.5049    6.6175   -2.0388 H   0  0  0  0  0  0  0  0  0  0  0  0
   -7.7785    4.9746   -2.0388 H   0  0  0  0  0  0  0  0  0  0  0  0
   -2.5296   10.4315   -1.2421 H   0  0  0  0  0  0  0  0  0  0  0  0
   -1.9761   11.0340    1.0314 H   0  0  0  0  0  0  0  0  0  0  0  0
   -0.9089    9.6267    1.2259 H   0  0  0  0  0  0  0  0  0  0  0  0
   -0.0472   12.3207    0.8174 H   0  0  0  0  0  0  0  0  0  0  0  0
    0.9935   10.9121    0.6289 H   0  0  0  0  0  0  0  0  0  0  0  0
   -1.3601   13.1015   -0.5049 H   0  0  0  0  0  0  0  0  0  0  0  0
   -0.5464   13.5449   -2.0437 H   0  0  0  0  0  0  0  0  0  0  0  0
   -1.8634   12.3234   -2.0437 H   0  0  0  0  0  0  0  0  0  0  0  0
    2.0648   11.1332   -1.5326 H   0  0  0  0  0  0  0  0  0  0  0  0
    1.7492   13.4180   -0.3832 H   0  0  0  0  0  0  0  0  0  0  0  0
    3.1425   13.1225   -1.5493 H   0  0  0  0  0  0  0  0  0  0  0  0
    1.9148   15.4437   -1.7650 H   0  0  0  0  0  0  0  0  0  0  0  0
   -0.2305   12.9871   -4.1447 H   0  0  0  0  0  0  0  0  0  0  0  0
    2.4146   13.4096   -5.6674 H   0  0  0  0  0  0  0  0  0  0  0  0
    1.0036   12.3874   -6.1915 H   0  0  0  0  0  0  0  0  0  0  0  0
    1.0787   14.5579   -7.3770 H   0  0  0  0  0  0  0  0  0  0  0  0
   -0.4019   14.3600   -6.3603 H   0  0  0  0  0  0  0  0  0  0  0  0
    0.4335   16.5920   -6.0796 H   0  0  0  0  0  0  0  0  0  0  0  0
    2.6810   16.5830   -4.9540 H   0  0  0  0  0  0  0  0  0  0  0  0
   -1.2303   15.7950   -2.9357 H   0  0  0  0  0  0  0  0  0  0  0  0
   -1.3262   16.6953   -4.4871 H   0  0  0  0  0  0  0  0  0  0  0  0
   -1.3634   14.8994   -4.4871 H   0  0  0  0  0  0  0  0  0  0  0  0
    1.0734   16.9602   -2.3537 H   0  0  0  0  0  0  0  0  0  0  0  0
    2.1519   17.2520   -3.7602 H   0  0  0  0  0  0  0  0  0  0  0  0
    0.4789   17.9061   -3.7602 H   0  0  0  0  0  0  0  0  0  0  0  0
    3.5320   11.5075   -3.0132 H   0  0  0  0  0  0  0  0  0  0  0  0
    2.9752   10.6851   -4.5099 H   0  0  0  0  0  0  0  0  0  0  0  0
    3.2506   12.4601   -4.5099 H   0  0  0  0  0  0  0  0  0  0  0  0
    0.3323   10.7880   -5.0530 H   0  0  0  0  0  0  0  0  0  0  0  0
    1.2834    9.7293   -3.8661 H   0  0  0  0  0  0  0  0  0  0  0  0
   -1.4425   10.9870   -3.4466 H   0  0  0  0  0  0  0  0  0  0  0  0
   -1.0162    9.2357   -3.5781 H   0  0  0  0  0  0  0  0  0  0  0  0
    0.7452    8.8835   -0.3850 H   0  0  0  0  0  0  0  0  0  0  0  0
    0.2547    8.0868   -1.9184 H   0  0  0  0  0  0  0  0  0  0  0  0
    1.5872    9.2914   -1.9184 H   0  0  0  0  0  0  0  0  0  0  0  0
  1  2  1  0
  2  3  1  0
  3  4  1  0
  4  5  1  0
  5  6  1  0
  6  7  1  0
  7  8  1  0
  7  9  1  0
  2 10  1  0
 10 11  1  0
 11 12  1  0
 12 13  1  0
 13 14  1  1
 13 15  1  0
 15 16  1  0
 16 17  1  0
 17 18  2  0
 18 19  1  0
 19 20  1  0
 20 21  1  0
 21 22  1  0
 22 23  1  0
 22 24  1  0
 24 25  1  0
 24 26  1  0
 19 27  1  0
 27 28  1  6
 27 29  1  0
 29 30  1  0
 30 31  1  0
 31 32  1  6
  7  5  1  0
 31 10  1  0
 31 13  1  0
 27 15  1  0
 24 18  1  0
  1 33  1  0
  1 34  1  0
  1 35  1  0
  2 36  1  1
  3 37  1  0
  3 38  1  0
  4 39  1  0
  4 40  1  0
  5 41  1  1
  8 42  1  0
  8 43  1  0
  8 44  1  0
  9 45  1  0
  9 46  1  0
  9 47  1  0
 10 48  1  6
 11 49  1  0
 11 50  1  0
 12 51  1  0
 12 52  1  0
 14 53  1  0
 14 54  1  0
 14 55  1  0
 15 56  1  1
 16 57  1  0
 16 58  1  0
 17 59  1  0
 19 60  1  6
 20 61  1  0
 20 62  1  0
 21 63  1  0
 21 64  1  0
 22 65  1  6
 23 66  1  0
 25 67  1  0
 25 68  1  0
 25 69  1  0
 26 70  1  0
 26 71  1  0
 26 72  1  0
 28 73  1  0
 28 74  1  0
 28 75  1  0
 29 76  1  0
 29 77  1  0
 30 78  1  0
 30 79  1  0
 32 80  1  0
 32 81  1  0
 32 82  1  0
M  END
>  <meeko>  (12) 
{"is_sidechain": [false], "intermolecular_energy": 2.731, "internal_energy": -0.839}

$$$$
EPH_relaxed_0001_pdb2pqr_Repair_237_r2_0001_out
     RDKit          3D

 82 86  0  0  0  0  0  0  0  0999 V2000
   -0.7140    9.2440   -1.7450 C   0  0  0  0  0  0  0  0  0  0  0  0
    0.3370   10.1440   -2.4000 C   0  0  2  0  0  0  0  0  0  0  0  0
    1.6740    9.4090   -2.6220 C   0  0  0  0  0  0  0  0  0  0  0  0
    2.5670   10.0620   -3.6810 C   0  0  0  0  0  0  0  0  0  0  0  0
    3.9810   10.2020   -3.2030 C   0  0  2  0  0  0  0  0  0  0  0  0
    4.4310   11.5560   -3.0560 O   0  0  0  0  0  0  0  0  0  0  0  0
    5.1000   10.7700   -4.0560 C   0  0  0  0  0  0  0  0  0  0  0  0
    4.8540   11.2340   -5.4580 C   0  0  0  0  0  0  0  0  0  0  0  0
    6.5130   10.4240   -3.7050 C   0  0  0  0  0  0  0  0  0  0  0  0
    0.5620   11.3870   -1.5470 C   0  0  1  0  0  0  0  0  0  0  0  0
    1.6850   11.1930   -0.4930 C   0  0  0  0  0  0  0  0  0  0  0  0
    2.4070   12.5580   -0.3530 C   0  0  0  0  0  0  0  0  0  0  0  0
    1.4780   13.5660   -1.0710 C   0  0  1  0  0  0  0  0  0  0  0  0
    0.3690   13.9030   -0.0260 C   0  0  0  0  0  0  0  0  0  0  0  0
    2.1600   14.8590   -1.6260 C   0  0  2  0  0  0  0  0  0  0  0  0
    2.8030   15.7660   -0.5630 C   0  0  0  0  0  0  0  0  0  0  0  0
    1.9080   16.8190    0.0020 C   0  0  0  0  0  0  0  0  0  0  0  0
    0.7350   17.2140   -0.5260 C   0  0  0  0  0  0  0  0  0  0  0  0
    0.2460   16.6520   -1.8670 C   0  0  1  0  0  0  0  0  0  0  0  0
   -0.2560   17.8150   -2.7630 C   0  0  0  0  0  0  0  0  0  0  0  0
   -1.3100   18.6740   -2.0720 C   0  0  0  0  0  0  0  0  0  0  0  0
   -0.7670   19.2620   -0.7720 C   0  0  2  0  0  0  0  0  0  0  0  0
    0.2720   20.1940   -1.0870 O   0  0  0  0  0  0  0  0  0  0  0  0
   -0.2230   18.1850    0.2080 C   0  0  0  0  0  0  0  0  0  0  0  0
   -1.4020   17.3620    0.7830 C   0  0  0  0  0  0  0  0  0  0  0  0
    0.4230   18.9190    1.4140 C   0  0  0  0  0  0  0  0  0  0  0  0
    1.2570   15.6890   -2.6260 C   0  0  1  0  0  0  0  0  0  0  0  0
    2.2280   16.5290   -3.5110 C   0  0  0  0  0  0  0  0  0  0  0  0
    0.4470   14.7650   -3.6100 C   0  0  0  0  0  0  0  0  0  0  0  0
   -0.0990   13.4450   -3.0320 C   0  0  0  0  0  0  0  0  0  0  0  0
    0.9950   12.6830   -2.2780 C   0  0  2  0  0  0  0  0  0  0  0  0
    2.1150   12.3100   -3.3080 C   0  0  0  0  0  0  0  0  0  0  0  0
   -0.6287    9.3171   -0.6507 H   0  0  0  0  0  0  0  0  0  0  0  0
   -1.7184    9.5663   -2.0568 H   0  0  0  0  0  0  0  0  0  0  0  0
   -0.5501    8.2019   -2.0568 H   0  0  0  0  0  0  0  0  0  0  0  0
   -0.0476   10.4359   -3.3884 H   0  0  0  0  0  0  0  0  0  0  0  0
    2.2225    9.3904   -1.6687 H   0  0  0  0  0  0  0  0  0  0  0  0
    1.4297    8.3999   -2.9854 H   0  0  0  0  0  0  0  0  0  0  0  0
    2.5572    9.4403   -4.5884 H   0  0  0  0  0  0  0  0  0  0  0  0
    2.1737   11.0681   -3.8887 H   0  0  0  0  0  0  0  0  0  0  0  0
    3.8994    9.2762   -2.6146 H   0  0  0  0  0  0  0  0  0  0  0  0
    4.3388   12.2057   -5.4376 H   0  0  0  0  0  0  0  0  0  0  0  0
    5.8147   11.3393   -5.9833 H   0  0  0  0  0  0  0  0  0  0  0  0
    4.2277   10.4979   -5.9833 H   0  0  0  0  0  0  0  0  0  0  0  0
    6.6229   10.3971   -2.6108 H   0  0  0  0  0  0  0  0  0  0  0  0
    6.7637    9.4379   -4.1231 H   0  0  0  0  0  0  0  0  0  0  0  0
    7.1910   11.1827   -4.1231 H   0  0  0  0  0  0  0  0  0  0  0  0
   -0.4487   11.5101   -1.1306 H   0  0  0  0  0  0  0  0  0  0  0  0
    1.2510   10.8932    0.4723 H   0  0  0  0  0  0  0  0  0  0  0  0
    2.3867   10.4049   -0.8037 H   0  0  0  0  0  0  0  0  0  0  0  0
    2.5268   12.8271    0.7068 H   0  0  0  0  0  0  0  0  0  0  0  0
    3.4183   12.5414   -0.7854 H   0  0  0  0  0  0  0  0  0  0  0  0
    0.7729   13.7803    0.9898 H   0  0  0  0  0  0  0  0  0  0  0  0
    0.0373   14.9425   -0.1656 H   0  0  0  0  0  0  0  0  0  0  0  0
   -0.4849   13.2238   -0.1656 H   0  0  0  0  0  0  0  0  0  0  0  0
    2.9957   14.4513   -2.2138 H   0  0  0  0  0  0  0  0  0  0  0  0
    3.1441   15.1289    0.2663 H   0  0  0  0  0  0  0  0  0  0  0  0
    3.6187   16.3005   -1.0718 H   0  0  0  0  0  0  0  0  0  0  0  0
    2.2352   17.3138    0.9283 H   0  0  0  0  0  0  0  0  0  0  0  0
   -0.5893   15.9774   -1.6277 H   0  0  0  0  0  0  0  0  0  0  0  0
    0.6010   18.4524   -3.0261 H   0  0  0  0  0  0  0  0  0  0  0  0
   -0.7205   17.3714   -3.6560 H   0  0  0  0  0  0  0  0  0  0  0  0
   -1.6028   19.4944   -2.7437 H   0  0  0  0  0  0  0  0  0  0  0  0
   -2.1788   18.0420   -1.8359 H   0  0  0  0  0  0  0  0  0  0  0  0
   -1.6043   19.7579   -0.2592 H   0  0  0  0  0  0  0  0  0  0  0  0
    0.4700   20.6980   -0.2790 H   0  0  0  0  0  0  0  0  0  0  0  0
   -1.3654   17.3876    1.8821 H   0  0  0  0  0  0  0  0  0  0  0  0
   -2.3531   17.7934    0.4377 H   0  0  0  0  0  0  0  0  0  0  0  0
   -1.3250   16.3205    0.4377 H   0  0  0  0  0  0  0  0  0  0  0  0
    0.0433   18.4876    2.3520 H   0  0  0  0  0  0  0  0  0  0  0  0
    1.5159   18.8013    1.3722 H   0  0  0  0  0  0  0  0  0  0  0  0
    0.1675   19.9881    1.3722 H   0  0  0  0  0  0  0  0  0  0  0  0
    2.9014   17.1116   -2.8652 H   0  0  0  0  0  0  0  0  0  0  0  0
    2.8214   15.8547   -4.1460 H   0  0  0  0  0  0  0  0  0  0  0  0
    1.6461   17.2132   -4.1460 H   0  0  0  0  0  0  0  0  0  0  0  0
   -0.4103   15.3454   -3.9818 H   0  0  0  0  0  0  0  0  0  0  0  0
    1.1696   14.4639   -4.3828 H   0  0  0  0  0  0  0  0  0  0  0  0
   -0.9239   13.6692   -2.3397 H   0  0  0  0  0  0  0  0  0  0  0  0
   -0.4539   12.8182   -3.8633 H   0  0  0  0  0  0  0  0  0  0  0  0
    3.0240   12.0073   -2.7676 H   0  0  0  0  0  0  0  0  0  0  0  0
    1.7699   11.4783   -3.9398 H   0  0  0  0  0  0  0  0  0  0  0  0
    2.3375   13.1826   -3.9398 H   0  0  0  0  0  0  0  0  0  0  0  0
  1  2  1  0
  2  3  1  0
  3  4  1  0
  4  5  1  0
  5  6  1  0
  6  7  1  0
  7  8  1  0
  7  9  1  0
  2 10  1  0
 10 11  1  0
 11 12  1  0
 12 13  1  0
 13 14  1  1
 13 15  1  0
 15 16  1  0
 16 17  1  0
 17 18  2  0
 18 19  1  0
 19 20  1  0
 20 21  1  0
 21 22  1  0
 22 23  1  0
 22 24  1  0
 24 25  1  0
 24 26  1  0
 19 27  1  0
 27 28  1  6
 27 29  1  0
 29 30  1  0
 30 31  1  0
 31 32  1  6
  7  5  1  0
 31 10  1  0
 31 13  1  0
 27 15  1  0
 24 18  1  0
  1 33  1  0
  1 34  1  0
  1 35  1  0
  2 36  1  6
  3 37  1  0
  3 38  1  0
  4 39  1  0
  4 40  1  0
  5 41  1  1
  8 42  1  0
  8 43  1  0
  8 44  1  0
  9 45  1  0
  9 46  1  0
  9 47  1  0
 10 48  1  1
 11 49  1  0
 11 50  1  0
 12 51  1  0
 12 52  1  0
 14 53  1  0
 14 54  1  0
 14 55  1  0
 15 56  1  6
 16 57  1  0
 16 58  1  0
 17 59  1  0
 19 60  1  1
 20 61  1  0
 20 62  1  0
 21 63  1  0
 21 64  1  0
 22 65  1  1
 23 66  1  0
 25 67  1  0
 25 68  1  0
 25 69  1  0
 26 70  1  0
 26 71  1  0
 26 72  1  0
 28 73  1  0
 28 74  1  0
 28 75  1  0
 29 76  1  0
 29 77  1  0
 30 78  1  0
 30 79  1  0
 32 80  1  0
 32 81  1  0
 32 82  1  0
M  END
>  <meeko>  (13) 
{"is_sidechain": [false], "intermolecular_energy": 2.731, "internal_energy": -0.839}

$$$$
EPH_relaxed_0001_pdb2pqr_Repair_237_r2_0001_out
     RDKit          3D

 82 86  0  0  0  0  0  0  0  0999 V2000
    2.8850   11.3090   -5.2650 C   0  0  0  0  0  0  0  0  0  0  0  0
    1.8410   11.0210   -4.1820 C   0  0  2  0  0  0  0  0  0  0  0  0
    0.7230   10.0870   -4.6860 C   0  0  0  0  0  0  0  0  0  0  0  0
   -0.3650    9.8110   -3.6450 C   0  0  0  0  0  0  0  0  0  0  0  0
    0.1630    9.0160   -2.4890 C   0  0  2  0  0  0  0  0  0  0  0  0
   -0.7010    7.9640   -2.0410 O   0  0  0  0  0  0  0  0  0  0  0  0
   -0.4650    9.0300   -1.1080 C   0  0  0  0  0  0  0  0  0  0  0  0
   -1.6760    9.8570   -0.8090 C   0  0  0  0  0  0  0  0  0  0  0  0
    0.3760    8.6300    0.0640 C   0  0  0  0  0  0  0  0  0  0  0  0
    1.2400   12.3290   -3.6800 C   0  0  1  0  0  0  0  0  0  0  0  0
   -0.2990   12.2470   -3.4940 C   0  0  0  0  0  0  0  0  0  0  0  0
   -0.6490   13.1280   -2.2670 C   0  0  0  0  0  0  0  0  0  0  0  0
    0.6360   13.9430   -1.9930 C   0  0  1  0  0  0  0  0  0  0  0  0
    0.5870   15.1240   -3.0130 C   0  0  0  0  0  0  0  0  0  0  0  0
    0.8310   14.4540   -0.5280 C   0  0  2  0  0  0  0  0  0  0  0  0
   -0.2440   15.4350   -0.0300 C   0  0  0  0  0  0  0  0  0  0  0  0
    0.0480   16.8790   -0.2740 C   0  0  0  0  0  0  0  0  0  0  0  0
    1.2480   17.3880   -0.6080 C   0  0  0  0  0  0  0  0  0  0  0  0
    2.4920   16.4930   -0.6770 C   0  0  1  0  0  0  0  0  0  0  0  0
    3.6710   17.1860    0.0560 C   0  0  0  0  0  0  0  0  0  0  0  0
    3.9360   18.5960   -0.4640 C   0  0  0  0  0  0  0  0  0  0  0  0
    2.6930   19.4720   -0.3250 C   0  0  2  0  0  0  0  0  0  0  0  0
    2.4250   19.6730    1.0660 O   0  0  0  0  0  0  0  0  0  0  0  0
    1.4390   18.8700   -1.0170 C   0  0  0  0  0  0  0  0  0  0  0  0
    1.6130   18.9300   -2.5550 C   0  0  0  0  0  0  0  0  0  0  0  0
    0.2260   19.7790   -0.6810 C   0  0  0  0  0  0  0  0  0  0  0  0
    2.2890   14.9860   -0.2160 C   0  0  1  0  0  0  0  0  0  0  0  0
    2.4840   14.8700    1.3270 C   0  0  0  0  0  0  0  0  0  0  0  0
    3.4060   14.0920   -0.8730 C   0  0  0  0  0  0  0  0  0  0  0  0
    3.1040   13.5190   -2.2710 C   0  0  0  0  0  0  0  0  0  0  0  0
    1.7250   12.8530   -2.3050 C   0  0  2  0  0  0  0  0  0  0  0  0
    1.7510   11.6480   -1.3050 C   0  0  0  0  0  0  0  0  0  0  0  0
    3.8419   11.5730   -4.7909 H   0  0  0  0  0  0  0  0  0  0  0  0
    3.0203   10.4146   -5.8909 H   0  0  0  0  0  0  0  0  0  0  0  0
    2.5426   12.1462   -5.8909 H   0  0  0  0  0  0  0  0  0  0  0  0
    2.3538   10.5055   -3.3566 H   0  0  0  0  0  0  0  0  0  0  0  0
    0.2525   10.5516   -5.5651 H   0  0  0  0  0  0  0  0  0  0  0  0
    1.1935    9.1213   -4.9226 H   0  0  0  0  0  0  0  0  0  0  0  0
   -0.7520   10.7703   -3.2708 H   0  0  0  0  0  0  0  0  0  0  0  0
   -1.1616    9.2262   -4.1282 H   0  0  0  0  0  0  0  0  0  0  0  0
    1.1982    9.1631   -2.8306 H   0  0  0  0  0  0  0  0  0  0  0  0
   -1.8016    9.9428    0.2804 H   0  0  0  0  0  0  0  0  0  0  0  0
   -1.5517   10.8597   -1.2438 H   0  0  0  0  0  0  0  0  0  0  0  0
   -2.5648    9.3763   -1.2438 H   0  0  0  0  0  0  0  0  0  0  0  0
   -0.1513    8.8808    0.9963 H   0  0  0  0  0  0  0  0  0  0  0  0
    0.5629    7.5466    0.0285 H   0  0  0  0  0  0  0  0  0  0  0  0
    1.3344    9.1687    0.0285 H   0  0  0  0  0  0  0  0  0  0  0  0
    1.5754   13.0050   -4.4804 H   0  0  0  0  0  0  0  0  0  0  0  0
   -0.8097   12.6269   -4.3911 H   0  0  0  0  0  0  0  0  0  0  0  0
   -0.6232   11.2073   -3.3390 H   0  0  0  0  0  0  0  0  0  0  0  0
   -1.4915   13.7969   -2.4968 H   0  0  0  0  0  0  0  0  0  0  0  0
   -0.9564   12.5288   -1.3972 H   0  0  0  0  0  0  0  0  0  0  0  0
    0.5474   16.0783   -2.4674 H   0  0  0  0  0  0  0  0  0  0  0  0
    1.4869   15.1001   -3.6451 H   0  0  0  0  0  0  0  0  0  0  0  0
   -0.3078   15.0256   -3.6451 H   0  0  0  0  0  0  0  0  0  0  0  0
    0.6928   13.5361    0.0622 H   0  0  0  0  0  0  0  0  0  0  0  0
   -1.1892   15.1891   -0.5361 H   0  0  0  0  0  0  0  0  0  0  0  0
   -0.2845   15.3131    1.0625 H   0  0  0  0  0  0  0  0  0  0  0  0
   -0.7884   17.5862   -0.1721 H   0  0  0  0  0  0  0  0  0  0  0  0
    2.7287   16.3850   -1.7458 H   0  0  0  0  0  0  0  0  0  0  0  0
    3.4338   17.2446    1.1285 H   0  0  0  0  0  0  0  0  0  0  0  0
    4.5756   16.5874   -0.1266 H   0  0  0  0  0  0  0  0  0  0  0  0
    4.7583   19.0439    0.1132 H   0  0  0  0  0  0  0  0  0  0  0  0
    4.2034   18.5327   -1.5291 H   0  0  0  0  0  0  0  0  0  0  0  0
    2.9027   20.4257   -0.8314 H   0  0  0  0  0  0  0  0  0  0  0  0
    2.8210   20.5240    1.3220 H   0  0  0  0  0  0  0  0  0  0  0  0
    2.6277   19.2799   -2.7958 H   0  0  0  0  0  0  0  0  0  0  0  0
    1.4602   17.9273   -2.9807 H   0  0  0  0  0  0  0  0  0  0  0  0
    0.8747   19.6254   -2.9807 H   0  0  0  0  0  0  0  0  0  0  0  0
    0.1191   19.8591    0.4109 H   0  0  0  0  0  0  0  0  0  0  0  0
    0.3883   20.7797   -1.1079 H   0  0  0  0  0  0  0  0  0  0  0  0
   -0.6889   19.3422   -1.1079 H   0  0  0  0  0  0  0  0  0  0  0  0
    1.6480   15.3673    1.8406 H   0  0  0  0  0  0  0  0  0  0  0  0
    2.5116   13.8085    1.6143 H   0  0  0  0  0  0  0  0  0  0  0  0
    3.4299   15.3523    1.6143 H   0  0  0  0  0  0  0  0  0  0  0  0
    4.3170   14.7033   -0.9535 H   0  0  0  0  0  0  0  0  0  0  0  0
    3.4963   13.2147   -0.2156 H   0  0  0  0  0  0  0  0  0  0  0  0
    3.1272   14.3359   -3.0073 H   0  0  0  0  0  0  0  0  0  0  0  0
    3.8649   12.7619   -2.5113 H   0  0  0  0  0  0  0  0  0  0  0  0
    1.7428   12.0279   -0.2727 H   0  0  0  0  0  0  0  0  0  0  0  0
    0.8663   11.0155   -1.4699 H   0  0  0  0  0  0  0  0  0  0  0  0
    2.6622   11.0542   -1.4699 H   0  0  0  0  0  0  0  0  0  0  0  0
  1  2  1  0
  2  3  1  0
  3  4  1  0
  4  5  1  0
  5  6  1  0
  6  7  1  0
  7  8  1  0
  7  9  1  0
  2 10  1  0
 10 11  1  0
 11 12  1  0
 12 13  1  0
 13 14  1  6
 13 15  1  0
 15 16  1  0
 16 17  1  0
 17 18  2  0
 18 19  1  0
 19 20  1  0
 20 21  1  0
 21 22  1  0
 22 23  1  0
 22 24  1  0
 24 25  1  0
 24 26  1  0
 19 27  1  0
 27 28  1  1
 27 29  1  0
 29 30  1  0
 30 31  1  0
 31 32  1  1
  7  5  1  0
 31 10  1  0
 31 13  1  0
 27 15  1  0
 24 18  1  0
  1 33  1  0
  1 34  1  0
  1 35  1  0
  2 36  1  1
  3 37  1  0
  3 38  1  0
  4 39  1  0
  4 40  1  0
  5 41  1  1
  8 42  1  0
  8 43  1  0
  8 44  1  0
  9 45  1  0
  9 46  1  0
  9 47  1  0
 10 48  1  6
 11 49  1  0
 11 50  1  0
 12 51  1  0
 12 52  1  0
 14 53  1  0
 14 54  1  0
 14 55  1  0
 15 56  1  1
 16 57  1  0
 16 58  1  0
 17 59  1  0
 19 60  1  6
 20 61  1  0
 20 62  1  0
 21 63  1  0
 21 64  1  0
 22 65  1  6
 23 66  1  0
 25 67  1  0
 25 68  1  0
 25 69  1  0
 26 70  1  0
 26 71  1  0
 26 72  1  0
 28 73  1  0
 28 74  1  0
 28 75  1  0
 29 76  1  0
 29 77  1  0
 30 78  1  0
 30 79  1  0
 32 80  1  0
 32 81  1  0
 32 82  1  0
M  END
>  <meeko>  (14) 
{"is_sidechain": [false], "intermolecular_energy": 2.731, "internal_energy": -0.839}

$$$$
EPH_relaxed_0001_pdb2pqr_Repair_237_r2_0001_out
     RDKit          3D

 82 86  0  0  0  0  0  0  0  0999 V2000
    0.9700   14.9800   -2.6750 C   0  0  0  0  0  0  0  0  0  0  0  0
    1.2110   14.3050   -4.0280 C   0  0  2  0  0  0  0  0  0  0  0  0
    0.4770   15.0290   -5.1760 C   0  0  0  0  0  0  0  0  0  0  0  0
    0.9440   14.6020   -6.5700 C   0  0  0  0  0  0  0  0  0  0  0  0
    0.7740   15.7030   -7.5730 C   0  0  2  0  0  0  0  0  0  0  0  0
    0.4230   15.2630   -8.8910 O   0  0  0  0  0  0  0  0  0  0  0  0
    1.7010   15.9060   -8.7570 C   0  0  0  0  0  0  0  0  0  0  0  0
    2.8670   15.0000   -9.0000 C   0  0  0  0  0  0  0  0  0  0  0  0
    1.7630   17.2610   -9.3920 C   0  0  0  0  0  0  0  0  0  0  0  0
    0.7720   12.8470   -3.9680 C   0  0  1  0  0  0  0  0  0  0  0  0
    1.9080   11.8650   -4.3600 C   0  0  0  0  0  0  0  0  0  0  0  0
    1.7280   10.5990   -3.4830 C   0  0  0  0  0  0  0  0  0  0  0  0
    0.3190   10.7520   -2.8620 C   0  0  1  0  0  0  0  0  0  0  0  0
   -0.6640   10.2740   -3.9750 C   0  0  0  0  0  0  0  0  0  0  0  0
    0.0740   10.0010   -1.5130 C   0  0  2  0  0  0  0  0  0  0  0  0
    0.1900    8.4680   -1.5890 C   0  0  0  0  0  0  0  0  0  0  0  0
   -1.0810    7.7470   -1.8980 C   0  0  0  0  0  0  0  0  0  0  0  0
   -2.3170    8.2750   -1.8260 C   0  0  0  0  0  0  0  0  0  0  0  0
   -2.5360    9.7010   -1.3050 C   0  0  1  0  0  0  0  0  0  0  0  0
   -3.7050    9.7060   -0.2850 C   0  0  0  0  0  0  0  0  0  0  0  0
   -4.9800    9.0910   -0.8540 C   0  0  0  0  0  0  0  0  0  0  0  0
   -4.7370    7.6540   -1.3080 C   0  0  2  0  0  0  0  0  0  0  0  0
   -4.4600    6.8490   -0.1580 O   0  0  0  0  0  0  0  0  0  0  0  0
   -3.5730    7.5230   -2.3300 C   0  0  0  0  0  0  0  0  0  0  0  0
   -3.9980    8.1410   -3.6850 C   0  0  0  0  0  0  0  0  0  0  0  0
   -3.3400    6.0110   -2.5970 C   0  0  0  0  0  0  0  0  0  0  0  0
   -1.2430   10.4440   -0.7540 C   0  0  1  0  0  0  0  0  0  0  0  0
   -1.0290   10.0950    0.7500 C   0  0  0  0  0  0  0  0  0  0  0  0
   -1.4770   12.0000   -0.8210 C   0  0  0  0  0  0  0  0  0  0  0  0
   -1.1030   12.7030   -2.1390 C   0  0  0  0  0  0  0  0  0  0  0  0
    0.3040   12.3010   -2.5950 C   0  0  2  0  0  0  0  0  0  0  0  0
    1.3170   12.7900   -1.5050 C   0  0  0  0  0  0  0  0  0  0  0  0
    1.2204   14.2786   -1.8655 H   0  0  0  0  0  0  0  0  0  0  0  0
    1.6041   15.8752   -2.5937 H   0  0  0  0  0  0  0  0  0  0  0  0
   -0.0876   15.2712   -2.5937 H   0  0  0  0  0  0  0  0  0  0  0  0
    2.2895   14.3597   -4.2376 H   0  0  0  0  0  0  0  0  0  0  0  0
   -0.5987   14.8159   -5.0896 H   0  0  0  0  0  0  0  0  0  0  0  0
    0.7014   16.1012   -5.0758 H   0  0  0  0  0  0  0  0  0  0  0  0
    2.0076   14.3259   -6.5206 H   0  0  0  0  0  0  0  0  0  0  0  0
    0.3295   13.7479   -6.8909 H   0  0  0  0  0  0  0  0  0  0  0  0
    0.4115   16.3893   -6.7935 H   0  0  0  0  0  0  0  0  0  0  0  0
    3.2857   14.6747   -8.0362 H   0  0  0  0  0  0  0  0  0  0  0  0
    2.5351   14.1205   -9.5712 H   0  0  0  0  0  0  0  0  0  0  0  0
    3.6373   15.5389   -9.5712 H   0  0  0  0  0  0  0  0  0  0  0  0
    1.7983   18.0320   -8.6082 H   0  0  0  0  0  0  0  0  0  0  0  0
    2.6653   17.3321  -10.0171 H   0  0  0  0  0  0  0  0  0  0  0  0
    0.8709   17.4142  -10.0171 H   0  0  0  0  0  0  0  0  0  0  0  0
   -0.0753   12.8803   -4.6687 H   0  0  0  0  0  0  0  0  0  0  0  0
    1.8304   11.6019   -5.4253 H   0  0  0  0  0  0  0  0  0  0  0  0
    2.8964   12.3200   -4.1984 H   0  0  0  0  0  0  0  0  0  0  0  0
    1.7845    9.6890   -4.0984 H   0  0  0  0  0  0  0  0  0  0  0  0
    2.5132   10.5060   -2.7183 H   0  0  0  0  0  0  0  0  0  0  0  0
   -1.5605    9.8381   -3.5099 H   0  0  0  0  0  0  0  0  0  0  0  0
   -0.9551   11.1311   -4.5999 H   0  0  0  0  0  0  0  0  0  0  0  0
   -0.1696    9.5157   -4.5999 H   0  0  0  0  0  0  0  0  0  0  0  0
    0.9238   10.3350   -0.8996 H   0  0  0  0  0  0  0  0  0  0  0  0
    0.9205    8.2208   -2.3734 H   0  0  0  0  0  0  0  0  0  0  0  0
    0.4925    8.1354   -0.5851 H   0  0  0  0  0  0  0  0  0  0  0  0
   -1.0001    6.6955   -2.2109 H   0  0  0  0  0  0  0  0  0  0  0  0
   -2.8037   10.3075   -2.1828 H   0  0  0  0  0  0  0  0  0  0  0  0
   -3.4015    9.1308    0.6022 H   0  0  0  0  0  0  0  0  0  0  0  0
   -3.9235   10.7541   -0.0325 H   0  0  0  0  0  0  0  0  0  0  0  0
   -5.7597    9.0964   -0.0781 H   0  0  0  0  0  0  0  0  0  0  0  0
   -5.2985    9.6848   -1.7235 H   0  0  0  0  0  0  0  0  0  0  0  0
   -5.6466    7.3120   -1.8233 H   0  0  0  0  0  0  0  0  0  0  0  0
   -4.9490    6.0140   -0.2590 H   0  0  0  0  0  0  0  0  0  0  0  0
   -4.6128    9.0349   -3.5035 H   0  0  0  0  0  0  0  0  0  0  0  0
   -3.1015    8.4224   -4.2569 H   0  0  0  0  0  0  0  0  0  0  0  0
   -4.5816    7.4046   -4.2569 H   0  0  0  0  0  0  0  0  0  0  0  0
   -3.2578    5.4778   -1.6384 H   0  0  0  0  0  0  0  0  0  0  0  0
   -4.1862    5.6053   -3.1709 H   0  0  0  0  0  0  0  0  0  0  0  0
   -2.4109    5.8789   -3.1709 H   0  0  0  0  0  0  0  0  0  0  0  0
   -1.5018   10.8660    1.3762 H   0  0  0  0  0  0  0  0  0  0  0  0
   -1.4828    9.1169    0.9676 H   0  0  0  0  0  0  0  0  0  0  0  0
    0.0486   10.0559    0.9676 H   0  0  0  0  0  0  0  0  0  0  0  0
   -2.5459   12.1838   -0.6377 H   0  0  0  0  0  0  0  0  0  0  0  0
   -0.7995   12.4254   -0.0660 H   0  0  0  0  0  0  0  0  0  0  0  0
   -1.8279   12.4196   -2.9163 H   0  0  0  0  0  0  0  0  0  0  0  0
   -1.1209   13.7904   -1.9739 H   0  0  0  0  0  0  0  0  0  0  0  0
    0.9042   12.5907   -0.5051 H   0  0  0  0  0  0  0  0  0  0  0  0
    2.2696   12.2525   -1.6222 H   0  0  0  0  0  0  0  0  0  0  0  0
    1.4887   13.8702   -1.6222 H   0  0  0  0  0  0  0  0  0  0  0  0
  1  2  1  0
  2  3  1  0
  3  4  1  0
  4  5  1  0
  5  6  1  0
  6  7  1  0
  7  8  1  0
  7  9  1  0
  2 10  1  0
 10 11  1  0
 11 12  1  0
 12 13  1  0
 13 14  1  6
 13 15  1  0
 15 16  1  0
 16 17  1  0
 17 18  2  0
 18 19  1  0
 19 20  1  0
 20 21  1  0
 21 22  1  0
 22 23  1  0
 22 24  1  0
 24 25  1  0
 24 26  1  0
 19 27  1  0
 27 28  1  1
 27 29  1  0
 29 30  1  0
 30 31  1  0
 31 32  1  1
  7  5  1  0
 31 10  1  0
 31 13  1  0
 27 15  1  0
 24 18  1  0
  1 33  1  0
  1 34  1  0
  1 35  1  0
  2 36  1  6
  3 37  1  0
  3 38  1  0
  4 39  1  0
  4 40  1  0
  5 41  1  1
  8 42  1  0
  8 43  1  0
  8 44  1  0
  9 45  1  0
  9 46  1  0
  9 47  1  0
 10 48  1  6
 11 49  1  0
 11 50  1  0
 12 51  1  0
 12 52  1  0
 14 53  1  0
 14 54  1  0
 14 55  1  0
 15 56  1  1
 16 57  1  0
 16 58  1  0
 17 59  1  0
 19 60  1  6
 20 61  1  0
 20 62  1  0
 21 63  1  0
 21 64  1  0
 22 65  1  6
 23 66  1  0
 25 67  1  0
 25 68  1  0
 25 69  1  0
 26 70  1  0
 26 71  1  0
 26 72  1  0
 28 73  1  0
 28 74  1  0
 28 75  1  0
 29 76  1  0
 29 77  1  0
 30 78  1  0
 30 79  1  0
 32 80  1  0
 32 81  1  0
 32 82  1  0
M  END
>  <meeko>  (15) 
{"is_sidechain": [false], "intermolecular_energy": 2.731, "internal_energy": -0.839}

$$$$
EPH_relaxed_0001_pdb2pqr_Repair_237_r2_0001_out
     RDKit          3D

 82 86  0  0  0  0  0  0  0  0999 V2000
    0.0050    9.2970   -4.1670 C   0  0  0  0  0  0  0  0  0  0  0  0
    0.0850    9.4810   -2.6490 C   0  0  2  0  0  0  0  0  0  0  0  0
   -0.7750    8.4490   -1.8920 C   0  0  0  0  0  0  0  0  0  0  0  0
   -2.2720    8.5600   -2.1900 C   0  0  0  0  0  0  0  0  0  0  0  0
   -2.8210    7.2850   -2.7550 C   0  0  2  0  0  0  0  0  0  0  0  0
   -3.9140    7.4550   -3.6670 O   0  0  0  0  0  0  0  0  0  0  0  0
   -4.2110    6.7620   -2.4440 C   0  0  0  0  0  0  0  0  0  0  0  0
   -5.1380    7.5030   -1.5330 C   0  0  0  0  0  0  0  0  0  0  0  0
   -4.4840    5.3020   -2.6300 C   0  0  0  0  0  0  0  0  0  0  0  0
   -0.3450   10.8940   -2.2740 C   0  0  1  0  0  0  0  0  0  0  0  0
   -1.5500   10.9110   -1.2950 C   0  0  0  0  0  0  0  0  0  0  0  0
   -1.3420   12.1240   -0.3510 C   0  0  0  0  0  0  0  0  0  0  0  0
   -0.2180   12.9490   -1.0190 C   0  0  1  0  0  0  0  0  0  0  0  0
   -0.9340   13.7780   -2.1310 C   0  0  0  0  0  0  0  0  0  0  0  0
    0.6240   13.8640   -0.0700 C   0  0  2  0  0  0  0  0  0  0  0  0
   -0.1690   14.9760    0.6370 C   0  0  0  0  0  0  0  0  0  0  0  0
   -0.2360   16.2760   -0.0950 C   0  0  0  0  0  0  0  0  0  0  0  0
    0.5480   16.6320   -1.1290 C   0  0  0  0  0  0  0  0  0  0  0  0
    1.6910   15.7240   -1.6010 C   0  0  1  0  0  0  0  0  0  0  0  0
    2.9740   16.5710   -1.8080 C   0  0  0  0  0  0  0  0  0  0  0  0
    2.7480   17.7570   -2.7410 C   0  0  0  0  0  0  0  0  0  0  0  0
    1.6440   18.6670   -2.2080 C   0  0  2  0  0  0  0  0  0  0  0  0
    2.0950   19.2770   -0.9950 O   0  0  0  0  0  0  0  0  0  0  0  0
    0.3050   17.9210   -1.9520 C   0  0  0  0  0  0  0  0  0  0  0  0
   -0.3350   17.5210   -3.3040 C   0  0  0  0  0  0  0  0  0  0  0  0
   -0.6780   18.9210   -1.2850 C   0  0  0  0  0  0  0  0  0  0  0  0
    1.9520   14.4260   -0.7220 C   0  0  1  0  0  0  0  0  0  0  0  0
    2.9170   14.7650    0.4550 C   0  0  0  0  0  0  0  0  0  0  0  0
    2.6890   13.3480   -1.6030 C   0  0  0  0  0  0  0  0  0  0  0  0
    1.7990   12.3970   -2.4250 C   0  0  0  0  0  0  0  0  0  0  0  0
    0.6960   11.7870   -1.5540 C   0  0  2  0  0  0  0  0  0  0  0  0
    1.3870   10.9300   -0.4390 C   0  0  0  0  0  0  0  0  0  0  0  0
   -0.4241    8.3101   -4.3946 H   0  0  0  0  0  0  0  0  0  0  0  0
   -0.6328   10.0825   -4.5985 H   0  0  0  0  0  0  0  0  0  0  0  0
    1.0145    9.3663   -4.5985 H   0  0  0  0  0  0  0  0  0  0  0  0
    1.1314    9.3194   -2.3507 H   0  0  0  0  0  0  0  0  0  0  0  0
   -0.4381    7.4410   -2.1757 H   0  0  0  0  0  0  0  0  0  0  0  0
   -0.6451    8.6477   -0.8179 H   0  0  0  0  0  0  0  0  0  0  0  0
   -2.8048    8.7948   -1.2567 H   0  0  0  0  0  0  0  0  0  0  0  0
   -2.4149    9.3553   -2.9364 H   0  0  0  0  0  0  0  0  0  0  0  0
   -1.8285    6.8125   -2.7140 H   0  0  0  0  0  0  0  0  0  0  0  0
   -4.8719    7.2903   -0.4871 H   0  0  0  0  0  0  0  0  0  0  0  0
   -5.0510    8.5833   -1.7211 H   0  0  0  0  0  0  0  0  0  0  0  0
   -6.1726    7.1802   -1.7211 H   0  0  0  0  0  0  0  0  0  0  0  0
   -4.5746    4.8177   -1.6465 H   0  0  0  0  0  0  0  0  0  0  0  0
   -5.4219    5.1728   -3.1901 H   0  0  0  0  0  0  0  0  0  0  0  0
   -3.6562    4.8426   -3.1901 H   0  0  0  0  0  0  0  0  0  0  0  0
   -0.5553   11.2951   -3.2764 H   0  0  0  0  0  0  0  0  0  0  0  0
   -2.4907   11.0229   -1.8540 H   0  0  0  0  0  0  0  0  0  0  0  0
   -1.6091    9.9722   -0.7248 H   0  0  0  0  0  0  0  0  0  0  0  0
   -2.2648   12.7174   -0.2719 H   0  0  0  0  0  0  0  0  0  0  0  0
   -1.0821   11.8165    0.6727 H   0  0  0  0  0  0  0  0  0  0  0  0
   -1.5851   14.5319   -1.6644 H   0  0  0  0  0  0  0  0  0  0  0  0
   -0.1810   14.2802   -2.7561 H   0  0  0  0  0  0  0  0  0  0  0  0
   -1.5404   13.1061   -2.7561 H   0  0  0  0  0  0  0  0  0  0  0  0
    0.9285   13.1647    0.7226 H   0  0  0  0  0  0  0  0  0  0  0  0
   -1.1979   14.6170    0.7870 H   0  0  0  0  0  0  0  0  0  0  0  0
    0.3668   15.1824    1.5752 H   0  0  0  0  0  0  0  0  0  0  0  0
   -0.9899   17.0039    0.2393 H   0  0  0  0  0  0  0  0  0  0  0  0
    1.3655   15.2996   -2.5622 H   0  0  0  0  0  0  0  0  0  0  0  0
    3.3079   16.9498   -0.8308 H   0  0  0  0  0  0  0  0  0  0  0  0
    3.7317   15.9217   -2.2709 H   0  0  0  0  0  0  0  0  0  0  0  0
    3.6813   18.3333   -2.8234 H   0  0  0  0  0  0  0  0  0  0  0  0
    2.4436   17.3756   -3.7268 H   0  0  0  0  0  0  0  0  0  0  0  0
    1.4384   19.4231   -2.9801 H   0  0  0  0  0  0  0  0  0  0  0  0
    1.3900   19.1750   -0.3350 H   0  0  0  0  0  0  0  0  0  0  0  0
   -1.2545   16.9463   -3.1187 H   0  0  0  0  0  0  0  0  0  0  0  0
   -0.5786   18.4279   -3.8769 H   0  0  0  0  0  0  0  0  0  0  0  0
    0.3734   16.9046   -3.8769 H   0  0  0  0  0  0  0  0  0  0  0  0
   -0.5978   18.8394   -0.1910 H   0  0  0  0  0  0  0  0  0  0  0  0
   -0.4258   19.9456   -1.5958 H   0  0  0  0  0  0  0  0  0  0  0  0
   -1.7068   18.6864   -1.5958 H   0  0  0  0  0  0  0  0  0  0  0  0
    2.4053   14.5853    1.4120 H   0  0  0  0  0  0  0  0  0  0  0  0
    3.8109   14.1271    0.3916 H   0  0  0  0  0  0  0  0  0  0  0  0
    3.2155   15.8218    0.3916 H   0  0  0  0  0  0  0  0  0  0  0  0
    3.3426   13.8839   -2.3070 H   0  0  0  0  0  0  0  0  0  0  0  0
    3.2160   12.7014   -0.8859 H   0  0  0  0  0  0  0  0  0  0  0  0
    1.3365   12.9597   -3.2493 H   0  0  0  0  0  0  0  0  0  0  0  0
    2.4256   11.5828   -2.8181 H   0  0  0  0  0  0  0  0  0  0  0  0
    1.0855   11.3040    0.5506 H   0  0  0  0  0  0  0  0  0  0  0  0
    1.0811    9.8785   -0.5424 H   0  0  0  0  0  0  0  0  0  0  0  0
    2.4795   11.0060   -0.5424 H   0  0  0  0  0  0  0  0  0  0  0  0
  1  2  1  0
  2  3  1  0
  3  4  1  0
  4  5  1  0
  5  6  1  0
  6  7  1  0
  7  8  1  0
  7  9  1  0
  2 10  1  0
 10 11  1  0
 11 12  1  0
 12 13  1  0
 13 14  1  6
 13 15  1  0
 15 16  1  0
 16 17  1  0
 17 18  2  0
 18 19  1  0
 19 20  1  0
 20 21  1  0
 21 22  1  0
 22 23  1  0
 22 24  1  0
 24 25  1  0
 24 26  1  0
 19 27  1  0
 27 28  1  1
 27 29  1  0
 29 30  1  0
 30 31  1  0
 31 32  1  1
  7  5  1  0
 31 10  1  0
 31 13  1  0
 27 15  1  0
 24 18  1  0
  1 33  1  0
  1 34  1  0
  1 35  1  0
  2 36  1  1
  3 37  1  0
  3 38  1  0
  4 39  1  0
  4 40  1  0
  5 41  1  6
  8 42  1  0
  8 43  1  0
  8 44  1  0
  9 45  1  0
  9 46  1  0
  9 47  1  0
 10 48  1  6
 11 49  1  0
 11 50  1  0
 12 51  1  0
 12 52  1  0
 14 53  1  0
 14 54  1  0
 14 55  1  0
 15 56  1  1
 16 57  1  0
 16 58  1  0
 17 59  1  0
 19 60  1  6
 20 61  1  0
 20 62  1  0
 21 63  1  0
 21 64  1  0
 22 65  1  6
 23 66  1  0
 25 67  1  0
 25 68  1  0
 25 69  1  0
 26 70  1  0
 26 71  1  0
 26 72  1  0
 28 73  1  0
 28 74  1  0
 28 75  1  0
 29 76  1  0
 29 77  1  0
 30 78  1  0
 30 79  1  0
 32 80  1  0
 32 81  1  0
 32 82  1  0
M  END
>  <meeko>  (16) 
{"is_sidechain": [false], "intermolecular_energy": 2.731, "internal_energy": -0.839}

$$$$
EPH_relaxed_0001_pdb2pqr_Repair_237_r2_0001_out
     RDKit          3D

 82 86  0  0  0  0  0  0  0  0999 V2000
   -1.7370   14.8180    0.4750 C   0  0  0  0  0  0  0  0  0  0  0  0
   -0.3900   15.5180    0.2690 C   0  0  2  0  0  0  0  0  0  0  0  0
   -0.4360   16.5370   -0.8870 C   0  0  0  0  0  0  0  0  0  0  0  0
   -0.0330   17.9550   -0.4740 C   0  0  0  0  0  0  0  0  0  0  0  0
    1.3980   18.0190   -0.0340 C   0  0  2  0  0  0  0  0  0  0  0  0
    2.0660   19.2480   -0.3460 O   0  0  0  0  0  0  0  0  0  0  0  0
    2.5680   18.0710   -0.9990 C   0  0  0  0  0  0  0  0  0  0  0  0
    2.3590   18.0620   -2.4810 C   0  0  0  0  0  0  0  0  0  0  0  0
    3.9170   17.6400   -0.5130 C   0  0  0  0  0  0  0  0  0  0  0  0
    0.6990   14.4840    0.0090 C   0  0  1  0  0  0  0  0  0  0  0  0
    0.8220   13.4450    1.1550 C   0  0  0  0  0  0  0  0  0  0  0  0
    1.1960   12.0930    0.4940 C   0  0  0  0  0  0  0  0  0  0  0  0
    1.6000   12.4640   -0.9520 C   0  0  1  0  0  0  0  0  0  0  0  0
    3.0750   12.9630   -0.8410 C   0  0  0  0  0  0  0  0  0  0  0  0
    1.4520   11.3340   -2.0220 C   0  0  2  0  0  0  0  0  0  0  0  0
    2.3310   10.0940   -1.7880 C   0  0  0  0  0  0  0  0  0  0  0  0
    3.6780   10.1360   -2.4280 C   0  0  0  0  0  0  0  0  0  0  0  0
    4.0590   10.9950   -3.3920 C   0  0  0  0  0  0  0  0  0  0  0  0
    3.0600   11.9860   -4.0040 C   0  0  1  0  0  0  0  0  0  0  0  0
    3.1920   11.9650   -5.5500 C   0  0  0  0  0  0  0  0  0  0  0  0
    4.6220   12.2140   -6.0190 C   0  0  0  0  0  0  0  0  0  0  0  0
    5.5760   11.1750   -5.4350 C   0  0  2  0  0  0  0  0  0  0  0  0
    5.2590    9.8950   -5.9920 O   0  0  0  0  0  0  0  0  0  0  0  0
    5.5240   11.0980   -3.8840 C   0  0  0  0  0  0  0  0  0  0  0  0
    6.1520   12.3770   -3.2780 C   0  0  0  0  0  0  0  0  0  0  0  0
    6.4260    9.9170   -3.4340 C   0  0  0  0  0  0  0  0  0  0  0  0
    1.5540   11.8410   -3.5180 C   0  0  1  0  0  0  0  0  0  0  0  0
    0.8100   10.7890   -4.3960 C   0  0  0  0  0  0  0  0  0  0  0  0
    0.8090   13.2100   -3.7380 C   0  0  0  0  0  0  0  0  0  0  0  0
    0.8930   14.2390   -2.5950 C   0  0  0  0  0  0  0  0  0  0  0  0
    0.5470   13.5930   -1.2500 C   0  0  2  0  0  0  0  0  0  0  0  0
   -0.9380   13.1020   -1.3230 C   0  0  0  0  0  0  0  0  0  0  0  0
   -1.9357   14.7148    1.5520 H   0  0  0  0  0  0  0  0  0  0  0  0
   -2.5354   15.4153    0.0105 H   0  0  0  0  0  0  0  0  0  0  0  0
   -1.7071   13.8213    0.0105 H   0  0  0  0  0  0  0  0  0  0  0  0
   -0.1619   16.0741    1.1903 H   0  0  0  0  0  0  0  0  0  0  0  0
    0.2500   16.1972   -1.6769 H   0  0  0  0  0  0  0  0  0  0  0  0
   -1.4799   16.5867   -1.2303 H   0  0  0  0  0  0  0  0  0  0  0  0
   -0.1726   18.6293   -1.3318 H   0  0  0  0  0  0  0  0  0  0  0  0
   -0.6659   18.2581    0.3731 H   0  0  0  0  0  0  0  0  0  0  0  0
    1.1847   17.3770    0.8334 H   0  0  0  0  0  0  0  0  0  0  0  0
    1.2818   18.0156   -2.6991 H   0  0  0  0  0  0  0  0  0  0  0  0
    2.7821   18.9792   -2.9165 H   0  0  0  0  0  0  0  0  0  0  0  0
    2.8594   17.1846   -2.9165 H   0  0  0  0  0  0  0  0  0  0  0  0
    3.9267   17.6369    0.5870 H   0  0  0  0  0  0  0  0  0  0  0  0
    4.1344   16.6277   -0.8844 H   0  0  0  0  0  0  0  0  0  0  0  0
    4.6810   18.3388   -0.8844 H   0  0  0  0  0  0  0  0  0  0  0  0
    1.5651   15.1524   -0.1053 H   0  0  0  0  0  0  0  0  0  0  0  0
    1.6074   13.7514    1.8616 H   0  0  0  0  0  0  0  0  0  0  0  0
   -0.1201   13.3630    1.7169 H   0  0  0  0  0  0  0  0  0  0  0  0
    2.0371   11.6215    1.0233 H   0  0  0  0  0  0  0  0  0  0  0  0
    0.3666   11.3710    0.5231 H   0  0  0  0  0  0  0  0  0  0  0  0
    3.3516   13.0566    0.2195 H   0  0  0  0  0  0  0  0  0  0  0  0
    3.7442   12.2412   -1.3322 H   0  0  0  0  0  0  0  0  0  0  0  0
    3.1686   13.9428   -1.3322 H   0  0  0  0  0  0  0  0  0  0  0  0
    0.4159   10.9982   -1.8682 H   0  0  0  0  0  0  0  0  0  0  0  0
    2.4738    9.9787   -0.7034 H   0  0  0  0  0  0  0  0  0  0  0  0
    1.7990    9.2521   -2.2551 H   0  0  0  0  0  0  0  0  0  0  0  0
    4.4226    9.4034   -2.0832 H   0  0  0  0  0  0  0  0  0  0  0  0
    3.3396   12.9777   -3.6187 H   0  0  0  0  0  0  0  0  0  0  0  0
    2.8666   10.9809   -5.9182 H   0  0  0  0  0  0  0  0  0  0  0  0
    2.5641   12.7750   -5.9495 H   0  0  0  0  0  0  0  0  0  0  0  0
    4.6559   12.1570   -7.1170 H   0  0  0  0  0  0  0  0  0  0  0  0
    4.9356   13.2110   -5.6759 H   0  0  0  0  0  0  0  0  0  0  0  0
    6.5992   11.4811   -5.6985 H   0  0  0  0  0  0  0  0  0  0  0  0
    5.8470    9.2410   -5.5780 H   0  0  0  0  0  0  0  0  0  0  0  0
    6.1218   12.3155   -2.1801 H   0  0  0  0  0  0  0  0  0  0  0  0
    7.1964   12.4662   -3.6117 H   0  0  0  0  0  0  0  0  0  0  0  0
    5.5840   13.2579   -3.6117 H   0  0  0  0  0  0  0  0  0  0  0  0
    6.4566    9.8770   -2.3352 H   0  0  0  0  0  0  0  0  0  0  0  0
    6.0165    8.9735   -3.8240 H   0  0  0  0  0  0  0  0  0  0  0  0
    7.4440   10.0638   -3.8240 H   0  0  0  0  0  0  0  0  0  0  0  0
    0.2978   10.0648   -3.7454 H   0  0  0  0  0  0  0  0  0  0  0  0
    0.0703   11.2986   -5.0310 H   0  0  0  0  0  0  0  0  0  0  0  0
    1.5369   10.2614   -5.0310 H   0  0  0  0  0  0  0  0  0  0  0  0
    1.2326   13.6782   -4.6388 H   0  0  0  0  0  0  0  0  0  0  0  0
   -0.2569   12.9485   -3.8115 H   0  0  0  0  0  0  0  0  0  0  0  0
    1.9153   14.6423   -2.5482 H   0  0  0  0  0  0  0  0  0  0  0  0
    0.1704   15.0442   -2.7938 H   0  0  0  0  0  0  0  0  0  0  0  0
   -1.3317   12.9718   -0.3041 H   0  0  0  0  0  0  0  0  0  0  0  0
   -1.5448   13.8473   -1.8581 H   0  0  0  0  0  0  0  0  0  0  0  0
   -0.9809   12.1419   -1.8581 H   0  0  0  0  0  0  0  0  0  0  0  0
  1  2  1  0
  2  3  1  0
  3  4  1  0
  4  5  1  0
  5  6  1  0
  6  7  1  0
  7  8  1  0
  7  9  1  0
  2 10  1  0
 10 11  1  0
 11 12  1  0
 12 13  1  0
 13 14  1  1
 13 15  1  0
 15 16  1  0
 16 17  1  0
 17 18  2  0
 18 19  1  0
 19 20  1  0
 20 21  1  0
 21 22  1  0
 22 23  1  0
 22 24  1  0
 24 25  1  0
 24 26  1  0
 19 27  1  0
 27 28  1  6
 27 29  1  0
 29 30  1  0
 30 31  1  0
 31 32  1  6
  7  5  1  0
 31 10  1  0
 31 13  1  0
 27 15  1  0
 24 18  1  0
  1 33  1  0
  1 34  1  0
  1 35  1  0
  2 36  1  1
  3 37  1  0
  3 38  1  0
  4 39  1  0
  4 40  1  0
  5 41  1  1
  8 42  1  0
  8 43  1  0
  8 44  1  0
  9 45  1  0
  9 46  1  0
  9 47  1  0
 10 48  1  6
 11 49  1  0
 11 50  1  0
 12 51  1  0
 12 52  1  0
 14 53  1  0
 14 54  1  0
 14 55  1  0
 15 56  1  6
 16 57  1  0
 16 58  1  0
 17 59  1  0
 19 60  1  1
 20 61  1  0
 20 62  1  0
 21 63  1  0
 21 64  1  0
 22 65  1  1
 23 66  1  0
 25 67  1  0
 25 68  1  0
 25 69  1  0
 26 70  1  0
 26 71  1  0
 26 72  1  0
 28 73  1  0
 28 74  1  0
 28 75  1  0
 29 76  1  0
 29 77  1  0
 30 78  1  0
 30 79  1  0
 32 80  1  0
 32 81  1  0
 32 82  1  0
M  END
>  <meeko>  (17) 
{"is_sidechain": [false], "intermolecular_energy": 2.731, "internal_energy": -0.839}

$$$$
EPH_relaxed_0001_pdb2pqr_Repair_237_r2_0001_out
     RDKit          3D

 82 86  0  0  0  0  0  0  0  0999 V2000
    3.1210   14.8390   -7.5570 C   0  0  0  0  0  0  0  0  0  0  0  0
    1.5970   14.8710   -7.4090 C   0  0  2  0  0  0  0  0  0  0  0  0
    0.9740   16.1090   -8.0830 C   0  0  0  0  0  0  0  0  0  0  0  0
    1.8980   16.7900   -9.0960 C   0  0  0  0  0  0  0  0  0  0  0  0
    1.5730   16.3870  -10.5020 C   0  0  2  0  0  0  0  0  0  0  0  0
    0.9920   15.0820  -10.6320 O   0  0  0  0  0  0  0  0  0  0  0  0
    2.2830   15.2650  -11.2370 C   0  0  0  0  0  0  0  0  0  0  0  0
    3.3760   14.4770  -10.5870 C   0  0  0  0  0  0  0  0  0  0  0  0
    2.2530   15.2590  -12.7330 C   0  0  0  0  0  0  0  0  0  0  0  0
    1.2180   14.8350   -5.9330 C   0  0  1  0  0  0  0  0  0  0  0  0
   -0.0310   15.7000   -5.6160 C   0  0  0  0  0  0  0  0  0  0  0  0
   -0.8090   14.9660   -4.4930 C   0  0  0  0  0  0  0  0  0  0  0  0
    0.1740   13.8920   -3.9740 C   0  0  1  0  0  0  0  0  0  0  0  0
    1.1200   14.6540   -2.9940 C   0  0  0  0  0  0  0  0  0  0  0  0
   -0.4670   12.6360   -3.2990 C   0  0  2  0  0  0  0  0  0  0  0  0
   -1.2780   12.9240   -2.0230 C   0  0  0  0  0  0  0  0  0  0  0  0
   -0.5040   12.8660   -0.7480 C   0  0  0  0  0  0  0  0  0  0  0  0
    0.7170   12.3190   -0.5990 C   0  0  0  0  0  0  0  0  0  0  0  0
    1.4020   11.5930   -1.7640 C   0  0  1  0  0  0  0  0  0  0  0  0
    1.9830   10.2440   -1.2630 C   0  0  0  0  0  0  0  0  0  0  0  0
    2.9040   10.4150   -0.0590 C   0  0  0  0  0  0  0  0  0  0  0  0
    2.1700   11.0870    1.0980 C   0  0  2  0  0  0  0  0  0  0  0  0
    1.1540   10.2010    1.5770 O   0  0  0  0  0  0  0  0  0  0  0  0
    1.5340   12.4510    0.7100 C   0  0  0  0  0  0  0  0  0  0  0  0
    2.6500   13.5000    0.4820 C   0  0  0  0  0  0  0  0  0  0  0  0
    0.7060   12.9550    1.9230 C   0  0  0  0  0  0  0  0  0  0  0  0
    0.5360   11.4310   -3.0860 C   0  0  1  0  0  0  0  0  0  0  0  0
   -0.3330   10.1390   -2.9980 C   0  0  0  0  0  0  0  0  0  0  0  0
    1.5020   11.2330   -4.3130 C   0  0  0  0  0  0  0  0  0  0  0  0
    2.0070   12.5090   -5.0130 C   0  0  0  0  0  0  0  0  0  0  0  0
    0.8460   13.4580   -5.3280 C   0  0  2  0  0  0  0  0  0  0  0  0
   -0.1110   12.7270   -6.3300 C   0  0  0  0  0  0  0  0  0  0  0  0
    3.5861   14.8292   -6.5602 H   0  0  0  0  0  0  0  0  0  0  0  0
    3.4169   13.9344   -8.1086 H   0  0  0  0  0  0  0  0  0  0  0  0
    3.4546   15.7303   -8.1086 H   0  0  0  0  0  0  0  0  0  0  0  0
    1.1961   13.9820   -7.9179 H   0  0  0  0  0  0  0  0  0  0  0  0
    0.0577   15.7958   -8.6048 H   0  0  0  0  0  0  0  0  0  0  0  0
    0.7749   16.8417   -7.2870 H   0  0  0  0  0  0  0  0  0  0  0  0
    1.7866   17.8804   -9.0031 H   0  0  0  0  0  0  0  0  0  0  0  0
    2.9309   16.4791   -8.8806 H   0  0  0  0  0  0  0  0  0  0  0  0
    1.3614   17.4309  -10.7769 H   0  0  0  0  0  0  0  0  0  0  0  0
    3.2784   14.5474   -9.4936 H   0  0  0  0  0  0  0  0  0  0  0  0
    3.3014   13.4236  -10.8947 H   0  0  0  0  0  0  0  0  0  0  0  0
    4.3519   14.8807  -10.8947 H   0  0  0  0  0  0  0  0  0  0  0  0
    1.2289   15.0542  -13.0784 H   0  0  0  0  0  0  0  0  0  0  0  0
    2.5779   16.2399  -13.1102 H   0  0  0  0  0  0  0  0  0  0  0  0
    2.9302   14.4785  -13.1102 H   0  0  0  0  0  0  0  0  0  0  0  0
    2.1579   15.1983   -5.4920 H   0  0  0  0  0  0  0  0  0  0  0  0
    0.2769   16.6989   -5.2732 H   0  0  0  0  0  0  0  0  0  0  0  0
   -0.6579   15.8318   -6.5102 H   0  0  0  0  0  0  0  0  0  0  0  0
   -1.0805   15.6650   -3.6882 H   0  0  0  0  0  0  0  0  0  0  0  0
   -1.7507   14.5284   -4.8559 H   0  0  0  0  0  0  0  0  0  0  0  0
    0.8351   14.4245   -1.9566 H   0  0  0  0  0  0  0  0  0  0  0  0
    2.1592   14.3378   -3.1673 H   0  0  0  0  0  0  0  0  0  0  0  0
    1.0324   15.7367   -3.1673 H   0  0  0  0  0  0  0  0  0  0  0  0
   -1.1996   12.3116   -4.0527 H   0  0  0  0  0  0  0  0  0  0  0  0
   -1.7078   13.9325   -2.1140 H   0  0  0  0  0  0  0  0  0  0  0  0
   -2.0333   12.1271   -1.9566 H   0  0  0  0  0  0  0  0  0  0  0  0
   -0.9706   13.3074    0.1450 H   0  0  0  0  0  0  0  0  0  0  0  0
    2.2185   12.2517   -2.0948 H   0  0  0  0  0  0  0  0  0  0  0  0
    1.1495    9.5850   -0.9786 H   0  0  0  0  0  0  0  0  0  0  0  0
    2.5790    9.8128   -2.0808 H   0  0  0  0  0  0  0  0  0  0  0  0
    3.2592    9.4259    0.2659 H   0  0  0  0  0  0  0  0  0  0  0  0
    3.7522   11.0506   -0.3532 H   0  0  0  0  0  0  0  0  0  0  0  0
    2.9129   11.2988    1.8811 H   0  0  0  0  0  0  0  0  0  0  0  0
    0.6770    9.8550    0.8030 H   0  0  0  0  0  0  0  0  0  0  0  0
    3.0255   13.8530    1.4538 H   0  0  0  0  0  0  0  0  0  0  0  0
    3.4738   13.0417   -0.0849 H   0  0  0  0  0  0  0  0  0  0  0  0
    2.2435   14.3505   -0.0849 H   0  0  0  0  0  0  0  0  0  0  0  0
    1.2025   12.6528    2.8569 H   0  0  0  0  0  0  0  0  0  0  0  0
    0.6314   14.0518    1.8857 H   0  0  0  0  0  0  0  0  0  0  0  0
   -0.3025   12.5174    1.8857 H   0  0  0  0  0  0  0  0  0  0  0  0
   -0.5046    9.8838   -1.9419 H   0  0  0  0  0  0  0  0  0  0  0  0
   -1.2989   10.3122   -3.4950 H   0  0  0  0  0  0  0  0  0  0  0  0
    0.1916    9.3097   -3.4950 H   0  0  0  0  0  0  0  0  0  0  0  0
    2.3826   10.6781   -3.9570 H   0  0  0  0  0  0  0  0  0  0  0  0
    0.9012   10.7081   -5.0703 H   0  0  0  0  0  0  0  0  0  0  0  0
    2.7223   13.0221   -4.3534 H   0  0  0  0  0  0  0  0  0  0  0  0
    2.4917   12.2222   -5.9579 H   0  0  0  0  0  0  0  0  0  0  0  0
   -0.8621   12.1533   -5.7673 H   0  0  0  0  0  0  0  0  0  0  0  0
   -0.6166   13.4710   -6.9631 H   0  0  0  0  0  0  0  0  0  0  0  0
    0.4738   12.0435   -6.9631 H   0  0  0  0  0  0  0  0  0  0  0  0
  1  2  1  0
  2  3  1  0
  3  4  1  0
  4  5  1  0
  5  6  1  0
  6  7  1  0
  7  8  1  0
  7  9  1  0
  2 10  1  0
 10 11  1  0
 11 12  1  0
 12 13  1  0
 13 14  1  1
 13 15  1  0
 15 16  1  0
 16 17  1  0
 17 18  2  0
 18 19  1  0
 19 20  1  0
 20 21  1  0
 21 22  1  0
 22 23  1  0
 22 24  1  0
 24 25  1  0
 24 26  1  0
 19 27  1  0
 27 28  1  1
 27 29  1  0
 29 30  1  0
 30 31  1  0
 31 32  1  6
  7  5  1  0
 31 10  1  0
 31 13  1  0
 27 15  1  0
 24 18  1  0
  1 33  1  0
  1 34  1  0
  1 35  1  0
  2 36  1  6
  3 37  1  0
  3 38  1  0
  4 39  1  0
  4 40  1  0
  5 41  1  6
  8 42  1  0
  8 43  1  0
  8 44  1  0
  9 45  1  0
  9 46  1  0
  9 47  1  0
 10 48  1  1
 11 49  1  0
 11 50  1  0
 12 51  1  0
 12 52  1  0
 14 53  1  0
 14 54  1  0
 14 55  1  0
 15 56  1  6
 16 57  1  0
 16 58  1  0
 17 59  1  0
 19 60  1  6
 20 61  1  0
 20 62  1  0
 21 63  1  0
 21 64  1  0
 22 65  1  1
 23 66  1  0
 25 67  1  0
 25 68  1  0
 25 69  1  0
 26 70  1  0
 26 71  1  0
 26 72  1  0
 28 73  1  0
 28 74  1  0
 28 75  1  0
 29 76  1  0
 29 77  1  0
 30 78  1  0
 30 79  1  0
 32 80  1  0
 32 81  1  0
 32 82  1  0
M  END
>  <meeko>  (18) 
{"is_sidechain": [false], "intermolecular_energy": 2.731, "internal_energy": -0.839}

$$$$
EPH_relaxed_0001_pdb2pqr_Repair_237_r2_0001_out
     RDKit          3D

 82 86  0  0  0  0  0  0  0  0999 V2000
   -2.6540    7.7400   -0.2180 C   0  0  0  0  0  0  0  0  0  0  0  0
   -3.1760    9.1740   -0.0960 C   0  0  2  0  0  0  0  0  0  0  0  0
   -4.6790    9.2750   -0.4250 C   0  0  0  0  0  0  0  0  0  0  0  0
   -5.2480    8.0210   -1.0940 C   0  0  0  0  0  0  0  0  0  0  0  0
   -6.7390    8.0930   -1.2310 C   0  0  2  0  0  0  0  0  0  0  0  0
   -7.4360    6.9150   -0.8070 O   0  0  0  0  0  0  0  0  0  0  0  0
   -7.5320    7.2400   -2.2030 C   0  0  0  0  0  0  0  0  0  0  0  0
   -6.8590    6.2540   -3.1050 C   0  0  0  0  0  0  0  0  0  0  0  0
   -8.8910    7.7090   -2.6210 C   0  0  0  0  0  0  0  0  0  0  0  0
   -2.3790   10.0970   -1.0110 C   0  0  1  0  0  0  0  0  0  0  0  0
   -2.9890   11.5210   -1.1010 C   0  0  0  0  0  0  0  0  0  0  0  0
   -1.8020   12.5090   -1.2320 C   0  0  0  0  0  0  0  0  0  0  0  0
   -0.5810   11.6120   -1.5460 C   0  0  1  0  0  0  0  0  0  0  0  0
   -0.6770   11.3260   -3.0780 C   0  0  0  0  0  0  0  0  0  0  0  0
    0.8180   12.1870   -1.1530 C   0  0  2  0  0  0  0  0  0  0  0  0
    1.2190   13.4830   -1.8790 C   0  0  0  0  0  0  0  0  0  0  0  0
    1.9680   13.2920   -3.1560 C   0  0  0  0  0  0  0  0  0  0  0  0
    2.5540   12.1490   -3.5570 C   0  0  0  0  0  0  0  0  0  0  0  0
    2.5790   10.9150   -2.6440 C   0  0  1  0  0  0  0  0  0  0  0  0
    4.0080   10.3110   -2.6290 C   0  0  0  0  0  0  0  0  0  0  0  0
    4.5310   10.0110   -4.0310 C   0  0  0  0  0  0  0  0  0  0  0  0
    4.5460   11.2730   -4.8890 C   0  0  2  0  0  0  0  0  0  0  0  0
    5.5150   12.1810   -4.3570 O   0  0  0  0  0  0  0  0  0  0  0  0
    3.1610   11.9750   -4.9710 C   0  0  0  0  0  0  0  0  0  0  0  0
    2.1890   11.1130   -5.8140 C   0  0  0  0  0  0  0  0  0  0  0  0
    3.3460   13.3070   -5.7470 C   0  0  0  0  0  0  0  0  0  0  0  0
    1.9880   11.1220   -1.1830 C   0  0  1  0  0  0  0  0  0  0  0  0
    3.1010   11.6550   -0.2300 C   0  0  0  0  0  0  0  0  0  0  0  0
    1.5420    9.7260   -0.6070 C   0  0  0  0  0  0  0  0  0  0  0  0
    0.1070    9.2670   -0.9310 C   0  0  0  0  0  0  0  0  0  0  0  0
   -0.9040   10.3770   -0.6280 C   0  0  2  0  0  0  0  0  0  0  0  0
   -0.8460   10.6710    0.9100 C   0  0  0  0  0  0  0  0  0  0  0  0
   -2.5007    7.3189    0.7866 H   0  0  0  0  0  0  0  0  0  0  0  0
   -3.3871    7.1282   -0.7641 H   0  0  0  0  0  0  0  0  0  0  0  0
   -1.6991    7.7426   -0.7641 H   0  0  0  0  0  0  0  0  0  0  0  0
   -3.0459    9.4855    0.9509 H   0  0  0  0  0  0  0  0  0  0  0  0
   -5.2287    9.4486    0.5118 H   0  0  0  0  0  0  0  0  0  0  0  0
   -4.7967   10.1025   -1.1401 H   0  0  0  0  0  0  0  0  0  0  0  0
   -4.8028    7.9177   -2.0946 H   0  0  0  0  0  0  0  0  0  0  0  0
   -5.0034    7.1545   -0.4620 H   0  0  0  0  0  0  0  0  0  0  0  0
   -6.7280    9.1761   -1.0394 H   0  0  0  0  0  0  0  0  0  0  0  0
   -6.3416    5.4960   -2.4986 H   0  0  0  0  0  0  0  0  0  0  0  0
   -7.6121    5.7642   -3.7398 H   0  0  0  0  0  0  0  0  0  0  0  0
   -6.1285    6.7769   -3.7398 H   0  0  0  0  0  0  0  0  0  0  0  0
   -9.4975    7.9183   -1.7275 H   0  0  0  0  0  0  0  0  0  0  0  0
   -8.7940    8.6256   -3.2213 H   0  0  0  0  0  0  0  0  0  0  0  0
   -9.3800    6.9276   -3.2213 H   0  0  0  0  0  0  0  0  0  0  0  0
   -2.4216    9.5148   -1.9433 H   0  0  0  0  0  0  0  0  0  0  0  0
   -3.6442   11.5974   -1.9813 H   0  0  0  0  0  0  0  0  0  0  0  0
   -3.5951   11.7478   -0.2115 H   0  0  0  0  0  0  0  0  0  0  0  0
   -1.9796   13.2233   -2.0494 H   0  0  0  0  0  0  0  0  0  0  0  0
   -1.6560   13.1090   -0.3217 H   0  0  0  0  0  0  0  0  0  0  0  0
   -1.0233   10.2942   -3.2374 H   0  0  0  0  0  0  0  0  0  0  0  0
   -1.3891   12.0270   -3.5379 H   0  0  0  0  0  0  0  0  0  0  0  0
    0.3138   11.4554   -3.5379 H   0  0  0  0  0  0  0  0  0  0  0  0
    0.6694   12.4688   -0.1001 H   0  0  0  0  0  0  0  0  0  0  0  0
    0.3005   14.0447   -2.1043 H   0  0  0  0  0  0  0  0  0  0  0  0
    1.9037   14.0129   -1.2005 H   0  0  0  0  0  0  0  0  0  0  0  0
    2.0477   14.1601   -3.8268 H   0  0  0  0  0  0  0  0  0  0  0  0
    1.8744   10.1949   -3.0857 H   0  0  0  0  0  0  0  0  0  0  0  0
    4.6884   11.0268   -2.1445 H   0  0  0  0  0  0  0  0  0  0  0  0
    3.9627    9.3596   -2.0787 H   0  0  0  0  0  0  0  0  0  0  0  0
    5.5542    9.6143   -3.9563 H   0  0  0  0  0  0  0  0  0  0  0  0
    3.8660    9.2731   -4.5034 H   0  0  0  0  0  0  0  0  0  0  0  0
    4.8057   10.9713   -5.9145 H   0  0  0  0  0  0  0  0  0  0  0  0
    5.3770   12.2290   -3.3960 H   0  0  0  0  0  0  0  0  0  0  0  0
    1.5365   10.5344   -5.1436 H   0  0  0  0  0  0  0  0  0  0  0  0
    1.5741   11.7682   -6.4486 H   0  0  0  0  0  0  0  0  0  0  0  0
    2.7660   10.4242   -6.4486 H   0  0  0  0  0  0  0  0  0  0  0  0
    3.4610   14.1350   -5.0320 H   0  0  0  0  0  0  0  0  0  0  0  0
    4.2436   13.2413   -6.3794 H   0  0  0  0  0  0  0  0  0  0  0  0
    2.4644   13.4884   -6.3794 H   0  0  0  0  0  0  0  0  0  0  0  0
    2.7910   11.5066    0.8149 H   0  0  0  0  0  0  0  0  0  0  0  0
    4.0365   11.1072   -0.4163 H   0  0  0  0  0  0  0  0  0  0  0  0
    3.2607   12.7273   -0.4163 H   0  0  0  0  0  0  0  0  0  0  0  0
    2.2318    8.9666   -1.0037 H   0  0  0  0  0  0  0  0  0  0  0  0
    1.5663    9.8447    0.4863 H   0  0  0  0  0  0  0  0  0  0  0  0
    0.0450    9.0048   -1.9975 H   0  0  0  0  0  0  0  0  0  0  0  0
   -0.1321    8.3940   -0.3059 H   0  0  0  0  0  0  0  0  0  0  0  0
   -1.0295    9.7411    1.4682 H   0  0  0  0  0  0  0  0  0  0  0  0
    0.1472   11.0653    1.1707 H   0  0  0  0  0  0  0  0  0  0  0  0
   -1.6151   11.4130    1.1707 H   0  0  0  0  0  0  0  0  0  0  0  0
  1  2  1  0
  2  3  1  0
  3  4  1  0
  4  5  1  0
  5  6  1  0
  6  7  1  0
  7  8  1  0
  7  9  1  0
  2 10  1  0
 10 11  1  0
 11 12  1  0
 12 13  1  0
 13 14  1  6
 13 15  1  0
 15 16  1  0
 16 17  1  0
 17 18  2  0
 18 19  1  0
 19 20  1  0
 20 21  1  0
 21 22  1  0
 22 23  1  0
 22 24  1  0
 24 25  1  0
 24 26  1  0
 19 27  1  0
 27 28  1  1
 27 29  1  0
 29 30  1  0
 30 31  1  0
 31 32  1  1
  7  5  1  0
 31 10  1  0
 31 13  1  0
 27 15  1  0
 24 18  1  0
  1 33  1  0
  1 34  1  0
  1 35  1  0
  2 36  1  1
  3 37  1  0
  3 38  1  0
  4 39  1  0
  4 40  1  0
  5 41  1  1
  8 42  1  0
  8 43  1  0
  8 44  1  0
  9 45  1  0
  9 46  1  0
  9 47  1  0
 10 48  1  6
 11 49  1  0
 11 50  1  0
 12 51  1  0
 12 52  1  0
 14 53  1  0
 14 54  1  0
 14 55  1  0
 15 56  1  1
 16 57  1  0
 16 58  1  0
 17 59  1  0
 19 60  1  6
 20 61  1  0
 20 62  1  0
 21 63  1  0
 21 64  1  0
 22 65  1  6
 23 66  1  0
 25 67  1  0
 25 68  1  0
 25 69  1  0
 26 70  1  0
 26 71  1  0
 26 72  1  0
 28 73  1  0
 28 74  1  0
 28 75  1  0
 29 76  1  0
 29 77  1  0
 30 78  1  0
 30 79  1  0
 32 80  1  0
 32 81  1  0
 32 82  1  0
M  END
>  <meeko>  (19) 
{"is_sidechain": [false], "intermolecular_energy": 2.731, "internal_energy": -0.839}

$$$$
