EPH_relaxed_0001_pdb2pqr_Repair_42_r2_0001_out
     RDKit          3D

 82 86  0  0  0  0  0  0  0  0999 V2000
   -1.4620    8.5250   -1.8000 C   0  0  0  0  0  0  0  0  0  0  0  0
   -1.8850    9.1130   -0.4520 C   0  0  2  0  0  0  0  0  0  0  0  0
   -3.3790    9.4980   -0.4290 C   0  0  0  0  0  0  0  0  0  0  0  0
   -4.3240    8.2930   -0.4360 C   0  0  0  0  0  0  0  0  0  0  0  0
   -4.7890    7.9620   -1.8220 C   0  0  2  0  0  0  0  0  0  0  0  0
   -6.2110    8.0050   -2.0020 O   0  0  0  0  0  0  0  0  0  0  0  0
   -5.5900    6.7190   -2.1610 C   0  0  0  0  0  0  0  0  0  0  0  0
   -5.9710    5.7250   -1.1090 C   0  0  0  0  0  0  0  0  0  0  0  0
   -5.5800    6.2240   -3.5740 C   0  0  0  0  0  0  0  0  0  0  0  0
   -1.0290   10.3310   -0.1240 C   0  0  1  0  0  0  0  0  0  0  0  0
    0.0610   10.0270    0.9380 C   0  0  0  0  0  0  0  0  0  0  0  0
    1.3000   10.8810    0.5640 C   0  0  0  0  0  0  0  0  0  0  0  0
    0.7780   11.8860   -0.4890 C   0  0  1  0  0  0  0  0  0  0  0  0
    0.0920   13.0160    0.3410 C   0  0  0  0  0  0  0  0  0  0  0  0
    1.8400   12.4610   -1.4810 C   0  0  2  0  0  0  0  0  0  0  0  0
    2.9630   13.2860   -0.8280 C   0  0  0  0  0  0  0  0  0  0  0  0
    2.6930   14.7490   -0.7090 C   0  0  0  0  0  0  0  0  0  0  0  0
    1.7260   15.4220   -1.3600 C   0  0  0  0  0  0  0  0  0  0  0  0
    0.8410   14.7200   -2.3970 C   0  0  1  0  0  0  0  0  0  0  0  0
    0.7360   15.6010   -3.6700 C   0  0  0  0  0  0  0  0  0  0  0  0
    0.2630   17.0190   -3.3620 C   0  0  0  0  0  0  0  0  0  0  0  0
    1.2010   17.7040   -2.3720 C   0  0  2  0  0  0  0  0  0  0  0  0
    2.4700   17.9040   -3.0010 O   0  0  0  0  0  0  0  0  0  0  0  0
    1.3920   16.9020   -1.0540 C   0  0  0  0  0  0  0  0  0  0  0  0
    0.0840   16.9440   -0.2250 C   0  0  0  0  0  0  0  0  0  0  0  0
    2.4680   17.6310   -0.2030 C   0  0  0  0  0  0  0  0  0  0  0  0
    1.2220   13.2130   -2.7290 C   0  0  1  0  0  0  0  0  0  0  0  0
    2.3020   13.1720   -3.8530 C   0  0  0  0  0  0  0  0  0  0  0  0
   -0.0460   12.4760   -3.3030 C   0  0  0  0  0  0  0  0  0  0  0  0
   -0.9940   11.8250   -2.2790 C   0  0  0  0  0  0  0  0  0  0  0  0
   -0.2160   10.9610   -1.2820 C   0  0  2  0  0  0  0  0  0  0  0  0
    0.4670    9.8020   -2.0850 C   0  0  0  0  0  0  0  0  0  0  0  0
   -0.8272    7.6425   -1.6321 H   0  0  0  0  0  0  0  0  0  0  0  0
   -2.3565    8.2304   -2.3684 H   0  0  0  0  0  0  0  0  0  0  0  0
   -0.8983    9.2794   -2.3684 H   0  0  0  0  0  0  0  0  0  0  0  0
   -1.7324    8.3349    0.3104 H   0  0  0  0  0  0  0  0  0  0  0  0
   -3.5724   10.0860    0.4803 H   0  0  0  0  0  0  0  0  0  0  0  0
   -3.5786   10.0691   -1.3477 H   0  0  0  0  0  0  0  0  0  0  0  0
   -3.7953    7.4228   -0.0199 H   0  0  0  0  0  0  0  0  0  0  0  0
   -5.2061    8.5451    0.1709 H   0  0  0  0  0  0  0  0  0  0  0  0
   -3.8747    8.3918   -2.2572 H   0  0  0  0  0  0  0  0  0  0  0  0
   -5.8034    6.1622   -0.1136 H   0  0  0  0  0  0  0  0  0  0  0  0
   -7.0334    5.4626   -1.2201 H   0  0  0  0  0  0  0  0  0  0  0  0
   -5.3561    4.8197   -1.2201 H   0  0  0  0  0  0  0  0  0  0  0  0
   -5.5578    5.1242   -3.5771 H   0  0  0  0  0  0  0  0  0  0  0  0
   -6.4854    6.5739   -4.0915 H   0  0  0  0  0  0  0  0  0  0  0  0
   -4.6895    6.6102   -4.0915 H   0  0  0  0  0  0  0  0  0  0  0  0
   -1.8156   11.0259    0.2051 H   0  0  0  0  0  0  0  0  0  0  0  0
   -0.2997   10.3013    1.9403 H   0  0  0  0  0  0  0  0  0  0  0  0
    0.3097    8.9556    0.9534 H   0  0  0  0  0  0  0  0  0  0  0  0
    1.6877   11.4101    1.4470 H   0  0  0  0  0  0  0  0  0  0  0  0
    2.1287   10.2678    0.1804 H   0  0  0  0  0  0  0  0  0  0  0  0
    0.2170   12.8100    1.4143 H   0  0  0  0  0  0  0  0  0  0  0  0
    0.5555   13.9832    0.0968 H   0  0  0  0  0  0  0  0  0  0  0  0
   -0.9800   13.0511    0.0968 H   0  0  0  0  0  0  0  0  0  0  0  0
    2.3220   11.5496   -1.8643 H   0  0  0  0  0  0  0  0  0  0  0  0
    3.1327   12.8884    0.1835 H   0  0  0  0  0  0  0  0  0  0  0  0
    3.8355   13.1907   -1.4911 H   0  0  0  0  0  0  0  0  0  0  0  0
    3.3393   15.3265   -0.0316 H   0  0  0  0  0  0  0  0  0  0  0  0
   -0.1497   14.6176   -1.9302 H   0  0  0  0  0  0  0  0  0  0  0  0
    1.7270   15.6549   -4.1444 H   0  0  0  0  0  0  0  0  0  0  0  0
   -0.0068   15.1382   -4.3364 H   0  0  0  0  0  0  0  0  0  0  0  0
    0.2375   17.6007   -4.2953 H   0  0  0  0  0  0  0  0  0  0  0  0
   -0.7406   16.9650   -2.9149 H   0  0  0  0  0  0  0  0  0  0  0  0
    0.7412   18.6633   -2.0922 H   0  0  0  0  0  0  0  0  0  0  0  0
    2.4370   18.7570   -3.4660 H   0  0  0  0  0  0  0  0  0  0  0  0
    0.3291   16.9361    0.8473 H   0  0  0  0  0  0  0  0  0  0  0  0
   -0.4741   17.8605   -0.4668 H   0  0  0  0  0  0  0  0  0  0  0  0
   -0.5318   16.0652   -0.4668 H   0  0  0  0  0  0  0  0  0  0  0  0
    2.2516   17.4844    0.8655 H   0  0  0  0  0  0  0  0  0  0  0  0
    3.4609   17.2188   -0.4360 H   0  0  0  0  0  0  0  0  0  0  0  0
    2.4534   18.7059   -0.4360 H   0  0  0  0  0  0  0  0  0  0  0  0
    3.3030   13.1340   -3.3985 H   0  0  0  0  0  0  0  0  0  0  0  0
    2.1484   12.2790   -4.4767 H   0  0  0  0  0  0  0  0  0  0  0  0
    2.2165   14.0740   -4.4767 H   0  0  0  0  0  0  0  0  0  0  0  0
   -0.6291   13.2132   -3.8744 H   0  0  0  0  0  0  0  0  0  0  0  0
    0.3516   11.6409   -3.8984 H   0  0  0  0  0  0  0  0  0  0  0  0
   -1.5279   12.6149   -1.7303 H   0  0  0  0  0  0  0  0  0  0  0  0
   -1.7050   11.1825   -2.8190 H   0  0  0  0  0  0  0  0  0  0  0  0
    0.8967    9.0728   -1.3824 H   0  0  0  0  0  0  0  0  0  0  0  0
   -0.2819    9.3037   -2.7182 H   0  0  0  0  0  0  0  0  0  0  0  0
    1.2657   10.2157   -2.7182 H   0  0  0  0  0  0  0  0  0  0  0  0
  1  2  1  0
  2  3  1  0
  3  4  1  0
  4  5  1  0
  5  6  1  0
  6  7  1  0
  7  8  1  0
  7  9  1  0
  2 10  1  0
 10 11  1  0
 11 12  1  0
 12 13  1  0
 13 14  1  1
 13 15  1  0
 15 16  1  0
 16 17  1  0
 17 18  2  0
 18 19  1  0
 19 20  1  0
 20 21  1  0
 21 22  1  0
 22 23  1  0
 22 24  1  0
 24 25  1  0
 24 26  1  0
 19 27  1  0
 27 28  1  6
 27 29  1  0
 29 30  1  0
 30 31  1  0
 31 32  1  6
  7  5  1  0
 31 10  1  0
 31 13  1  0
 27 15  1  0
 24 18  1  0
  1 33  1  0
  1 34  1  0
  1 35  1  0
  2 36  1  1
  3 37  1  0
  3 38  1  0
  4 39  1  0
  4 40  1  0
  5 41  1  6
  8 42  1  0
  8 43  1  0
  8 44  1  0
  9 45  1  0
  9 46  1  0
  9 47  1  0
 10 48  1  1
 11 49  1  0
 11 50  1  0
 12 51  1  0
 12 52  1  0
 14 53  1  0
 14 54  1  0
 14 55  1  0
 15 56  1  6
 16 57  1  0
 16 58  1  0
 17 59  1  0
 19 60  1  1
 20 61  1  0
 20 62  1  0
 21 63  1  0
 21 64  1  0
 22 65  1  1
 23 66  1  0
 25 67  1  0
 25 68  1  0
 25 69  1  0
 26 70  1  0
 26 71  1  0
 26 72  1  0
 28 73  1  0
 28 74  1  0
 28 75  1  0
 29 76  1  0
 29 77  1  0
 30 78  1  0
 30 79  1  0
 32 80  1  0
 32 81  1  0
 32 82  1  0
M  END
>  <meeko>  (1) 
{"is_sidechain": [false], "intermolecular_energy": 2.731, "internal_energy": -0.839}

$$$$
EPH_relaxed_0001_pdb2pqr_Repair_42_r2_0001_out
     RDKit          3D

 82 86  0  0  0  0  0  0  0  0999 V2000
    2.1890   19.4850   -0.8010 C   0  0  0  0  0  0  0  0  0  0  0  0
    2.3570   18.3870    0.2530 C   0  0  2  0  0  0  0  0  0  0  0  0
    3.8060   17.8640    0.3220 C   0  0  0  0  0  0  0  0  0  0  0  0
    4.7280   18.7190    1.1950 C   0  0  0  0  0  0  0  0  0  0  0  0
    4.2060   18.8450    2.5940 C   0  0  2  0  0  0  0  0  0  0  0  0
    3.8900   20.1840    2.9970 O   0  0  0  0  0  0  0  0  0  0  0  0
    4.9610   19.5440    3.7100 C   0  0  0  0  0  0  0  0  0  0  0  0
    6.3030   20.1620    3.4740 C   0  0  0  0  0  0  0  0  0  0  0  0
    4.6220   19.2020    5.1270 C   0  0  0  0  0  0  0  0  0  0  0  0
    1.4010   17.2360   -0.0390 C   0  0  1  0  0  0  0  0  0  0  0  0
    0.1320   17.6930   -0.8060 C   0  0  0  0  0  0  0  0  0  0  0  0
   -0.2530   16.5370   -1.7640 C   0  0  0  0  0  0  0  0  0  0  0  0
    0.5960   15.3360   -1.2860 C   0  0  1  0  0  0  0  0  0  0  0  0
   -0.1850   14.7530   -0.0670 C   0  0  0  0  0  0  0  0  0  0  0  0
    0.9010   14.2360   -2.3550 C   0  0  2  0  0  0  0  0  0  0  0  0
   -0.3340   13.5110   -2.9160 C   0  0  0  0  0  0  0  0  0  0  0  0
   -0.7420   12.2800   -2.1760 C   0  0  0  0  0  0  0  0  0  0  0  0
    0.0160   11.6180   -1.2820 C   0  0  0  0  0  0  0  0  0  0  0  0
    1.4650   12.0420   -1.0100 C   0  0  1  0  0  0  0  0  0  0  0  0
    2.3800   10.7900   -1.0120 C   0  0  0  0  0  0  0  0  0  0  0  0
    1.8970    9.7110   -0.0470 C   0  0  0  0  0  0  0  0  0  0  0  0
    0.4740    9.2730   -0.3860 C   0  0  2  0  0  0  0  0  0  0  0  0
    0.4860    8.6090   -1.6530 O   0  0  0  0  0  0  0  0  0  0  0  0
   -0.5370   10.4530   -0.4230 C   0  0  0  0  0  0  0  0  0  0  0  0
   -0.7750   10.9800    1.0130 C   0  0  0  0  0  0  0  0  0  0  0  0
   -1.9010    9.8980   -0.9140 C   0  0  0  0  0  0  0  0  0  0  0  0
    2.0290   13.2110   -1.9270 C   0  0  1  0  0  0  0  0  0  0  0  0
    2.6150   12.6190   -3.2450 C   0  0  0  0  0  0  0  0  0  0  0  0
    3.2260   13.9140   -1.1850 C   0  0  0  0  0  0  0  0  0  0  0  0
    2.8700   15.0720   -0.2330 C   0  0  0  0  0  0  0  0  0  0  0  0
    1.9330   16.0740   -0.9150 C   0  0  2  0  0  0  0  0  0  0  0  0
    2.7000   16.6940   -2.1330 C   0  0  0  0  0  0  0  0  0  0  0  0
    2.0408   20.4536   -0.3011 H   0  0  0  0  0  0  0  0  0  0  0  0
    3.0906   19.5309   -1.4295 H   0  0  0  0  0  0  0  0  0  0  0  0
    1.3149   19.2593   -1.4295 H   0  0  0  0  0  0  0  0  0  0  0  0
    2.1192   18.8290    1.2318 H   0  0  0  0  0  0  0  0  0  0  0  0
    3.7877   16.8434    0.7320 H   0  0  0  0  0  0  0  0  0  0  0  0
    4.2091   17.8983   -0.7009 H   0  0  0  0  0  0  0  0  0  0  0  0
    5.7234   18.2518    1.2265 H   0  0  0  0  0  0  0  0  0  0  0  0
    4.7793   19.7263    0.7559 H   0  0  0  0  0  0  0  0  0  0  0  0
    3.7330   17.8538    2.5314 H   0  0  0  0  0  0  0  0  0  0  0  0
    6.7805   20.3819    4.4403 H   0  0  0  0  0  0  0  0  0  0  0  0
    6.9333   19.4634    2.9041 H   0  0  0  0  0  0  0  0  0  0  0  0
    6.1819   21.0950    2.9041 H   0  0  0  0  0  0  0  0  0  0  0  0
    5.2302   19.8156    5.8079 H   0  0  0  0  0  0  0  0  0  0  0  0
    3.5554   19.4018    5.3073 H   0  0  0  0  0  0  0  0  0  0  0  0
    4.8312   18.1372    5.3073 H   0  0  0  0  0  0  0  0  0  0  0  0
    1.2207   16.8820    0.9868 H   0  0  0  0  0  0  0  0  0  0  0  0
   -0.6880   17.8880   -0.0992 H   0  0  0  0  0  0  0  0  0  0  0  0
    0.3213   18.6217   -1.3643 H   0  0  0  0  0  0  0  0  0  0  0  0
   -1.3264   16.3093   -1.6864 H   0  0  0  0  0  0  0  0  0  0  0  0
   -0.0645   16.7882   -2.8182 H   0  0  0  0  0  0  0  0  0  0  0  0
    0.2806   15.1006    0.8670 H   0  0  0  0  0  0  0  0  0  0  0  0
   -1.2303   15.0935   -0.1044 H   0  0  0  0  0  0  0  0  0  0  0  0
   -0.1558   13.6540   -0.1044 H   0  0  0  0  0  0  0  0  0  0  0  0
    1.3060   14.8254   -3.1908 H   0  0  0  0  0  0  0  0  0  0  0  0
   -1.1791   14.2148   -2.8969 H   0  0  0  0  0  0  0  0  0  0  0  0
   -0.0588   13.1802   -3.9284 H   0  0  0  0  0  0  0  0  0  0  0  0
   -1.7467   11.8804   -2.3784 H   0  0  0  0  0  0  0  0  0  0  0  0
    1.4645   12.5023   -0.0110 H   0  0  0  0  0  0  0  0  0  0  0  0
    2.4011   10.3702   -2.0285 H   0  0  0  0  0  0  0  0  0  0  0  0
    3.3810   11.1073   -0.6844 H   0  0  0  0  0  0  0  0  0  0  0  0
    2.5671    8.8413   -0.1147 H   0  0  0  0  0  0  0  0  0  0  0  0
    1.9039   10.1234    0.9728 H   0  0  0  0  0  0  0  0  0  0  0  0
    0.1370    8.5965    0.4133 H   0  0  0  0  0  0  0  0  0  0  0  0
    0.2940    9.2740   -2.3360 H   0  0  0  0  0  0  0  0  0  0  0  0
   -0.4354   10.2281    1.7405 H   0  0  0  0  0  0  0  0  0  0  0  0
   -0.2108   11.9129    1.1594 H   0  0  0  0  0  0  0  0  0  0  0  0
   -1.8479   11.1735    1.1594 H   0  0  0  0  0  0  0  0  0  0  0  0
   -2.5270    9.6433   -0.0461 H   0  0  0  0  0  0  0  0  0  0  0  0
   -2.4098   10.6606   -1.5219 H   0  0  0  0  0  0  0  0  0  0  0  0
   -1.7328    8.9968   -1.5219 H   0  0  0  0  0  0  0  0  0  0  0  0
    3.3695   11.8567   -3.0009 H   0  0  0  0  0  0  0  0  0  0  0  0
    1.8061   12.1595   -3.8320 H   0  0  0  0  0  0  0  0  0  0  0  0
    3.0828   13.4231   -3.8320 H   0  0  0  0  0  0  0  0  0  0  0  0
    3.7482   13.1466   -0.5947 H   0  0  0  0  0  0  0  0  0  0  0  0
    3.8293   14.3724   -1.9824 H   0  0  0  0  0  0  0  0  0  0  0  0
    2.3728   14.6643    0.6595 H   0  0  0  0  0  0  0  0  0  0  0  0
    3.7971   15.5934    0.0473 H   0  0  0  0  0  0  0  0  0  0  0  0
    3.5063   17.3457   -1.7653 H   0  0  0  0  0  0  0  0  0  0  0  0
    3.1307   15.8872   -2.7443 H   0  0  0  0  0  0  0  0  0  0  0  0
    2.0014   17.2842   -2.7443 H   0  0  0  0  0  0  0  0  0  0  0  0
  1  2  1  0
  2  3  1  0
  3  4  1  0
  4  5  1  0
  5  6  1  0
  6  7  1  0
  7  8  1  0
  7  9  1  0
  2 10  1  0
 10 11  1  0
 11 12  1  0
 12 13  1  0
 13 14  1  1
 13 15  1  0
 15 16  1  0
 16 17  1  0
 17 18  2  0
 18 19  1  0
 19 20  1  0
 20 21  1  0
 21 22  1  0
 22 23  1  0
 22 24  1  0
 24 25  1  0
 24 26  1  0
 19 27  1  0
 27 28  1  6
 27 29  1  0
 29 30  1  0
 30 31  1  0
 31 32  1  6
  7  5  1  0
 31 10  1  0
 31 13  1  0
 27 15  1  0
 24 18  1  0
  1 33  1  0
  1 34  1  0
  1 35  1  0
  2 36  1  1
  3 37  1  0
  3 38  1  0
  4 39  1  0
  4 40  1  0
  5 41  1  1
  8 42  1  0
  8 43  1  0
  8 44  1  0
  9 45  1  0
  9 46  1  0
  9 47  1  0
 10 48  1  1
 11 49  1  0
 11 50  1  0
 12 51  1  0
 12 52  1  0
 14 53  1  0
 14 54  1  0
 14 55  1  0
 15 56  1  6
 16 57  1  0
 16 58  1  0
 17 59  1  0
 19 60  1  1
 20 61  1  0
 20 62  1  0
 21 63  1  0
 21 64  1  0
 22 65  1  1
 23 66  1  0
 25 67  1  0
 25 68  1  0
 25 69  1  0
 26 70  1  0
 26 71  1  0
 26 72  1  0
 28 73  1  0
 28 74  1  0
 28 75  1  0
 29 76  1  0
 29 77  1  0
 30 78  1  0
 30 79  1  0
 32 80  1  0
 32 81  1  0
 32 82  1  0
M  END
>  <meeko>  (2) 
{"is_sidechain": [false], "intermolecular_energy": 2.731, "internal_energy": -0.839}

$$$$
EPH_relaxed_0001_pdb2pqr_Repair_42_r2_0001_out
     RDKit          3D

 82 86  0  0  0  0  0  0  0  0999 V2000
    0.4120   18.4770   -0.0420 C   0  0  0  0  0  0  0  0  0  0  0  0
    1.4960   17.4140   -0.2410 C   0  0  2  0  0  0  0  0  0  0  0  0
    2.7240   17.9700   -0.9900 C   0  0  0  0  0  0  0  0  0  0  0  0
    3.9550   18.1600   -0.0990 C   0  0  0  0  0  0  0  0  0  0  0  0
    3.5790   18.6340    1.2720 C   0  0  2  0  0  0  0  0  0  0  0  0
    3.8150   20.0280    1.5090 O   0  0  0  0  0  0  0  0  0  0  0  0
    4.5900   19.1110    2.2980 C   0  0  0  0  0  0  0  0  0  0  0  0
    6.0550   19.1360    1.9970 C   0  0  0  0  0  0  0  0  0  0  0  0
    4.2060   19.0870    3.7450 C   0  0  0  0  0  0  0  0  0  0  0  0
    0.9220   16.2210   -0.9960 C   0  0  1  0  0  0  0  0  0  0  0  0
    0.7650   16.4940   -2.5150 C   0  0  0  0  0  0  0  0  0  0  0  0
    1.0560   15.1570   -3.2430 C   0  0  0  0  0  0  0  0  0  0  0  0
    1.0430   14.0920   -2.1210 C   0  0  1  0  0  0  0  0  0  0  0  0
   -0.4680   13.7790   -1.8830 C   0  0  0  0  0  0  0  0  0  0  0  0
    1.8660   12.7910   -2.3940 C   0  0  2  0  0  0  0  0  0  0  0  0
    1.3840   11.9530   -3.5920 C   0  0  0  0  0  0  0  0  0  0  0  0
    0.3680   10.9080   -3.2720 C   0  0  0  0  0  0  0  0  0  0  0  0
    0.0710   10.4570   -2.0390 C   0  0  0  0  0  0  0  0  0  0  0  0
    0.8570   10.9400   -0.8130 C   0  0  1  0  0  0  0  0  0  0  0  0
    1.2400    9.7230    0.0690 C   0  0  0  0  0  0  0  0  0  0  0  0
    0.0320    8.8720    0.4490 C   0  0  0  0  0  0  0  0  0  0  0  0
   -0.6900    8.3630   -0.7960 C   0  0  2  0  0  0  0  0  0  0  0  0
    0.1650    7.4430   -1.4810 O   0  0  0  0  0  0  0  0  0  0  0  0
   -1.1160    9.5010   -1.7660 C   0  0  0  0  0  0  0  0  0  0  0  0
   -2.2660   10.3220   -1.1320 C   0  0  0  0  0  0  0  0  0  0  0  0
   -1.7050    8.8440   -3.0430 C   0  0  0  0  0  0  0  0  0  0  0  0
    2.0960   11.8890   -1.1140 C   0  0  1  0  0  0  0  0  0  0  0  0
    3.3670   11.0310   -1.3970 C   0  0  0  0  0  0  0  0  0  0  0  0
    2.4130   12.7430    0.1700 C   0  0  0  0  0  0  0  0  0  0  0  0
    1.6550   14.0760    0.3230 C   0  0  0  0  0  0  0  0  0  0  0  0
    1.7340   14.9020   -0.9650 C   0  0  2  0  0  0  0  0  0  0  0  0
    3.2400   15.2510   -1.2180 C   0  0  0  0  0  0  0  0  0  0  0  0
    0.2487   18.6372    1.0339 H   0  0  0  0  0  0  0  0  0  0  0  0
    0.7331   19.4200   -0.5085 H   0  0  0  0  0  0  0  0  0  0  0  0
   -0.5245   18.1375   -0.5085 H   0  0  0  0  0  0  0  0  0  0  0  0
    1.8337   17.0953    0.7562 H   0  0  0  0  0  0  0  0  0  0  0  0
    2.9845   17.2699   -1.7974 H   0  0  0  0  0  0  0  0  0  0  0  0
    2.4457   18.9642   -1.3698 H   0  0  0  0  0  0  0  0  0  0  0  0
    4.4835   17.1992   -0.0116 H   0  0  0  0  0  0  0  0  0  0  0  0
    4.5984   18.9232   -0.5612 H   0  0  0  0  0  0  0  0  0  0  0  0
    2.7612   17.9004    1.3275 H   0  0  0  0  0  0  0  0  0  0  0  0
    6.6228   19.1457    2.9391 H   0  0  0  0  0  0  0  0  0  0  0  0
    6.3251   18.2423    1.4153 H   0  0  0  0  0  0  0  0  0  0  0  0
    6.2945   20.0384    1.4153 H   0  0  0  0  0  0  0  0  0  0  0  0
    5.1123   19.1436    4.3658 H   0  0  0  0  0  0  0  0  0  0  0  0
    3.5558   19.9463    3.9661 H   0  0  0  0  0  0  0  0  0  0  0  0
    3.6678   18.1535    3.9661 H   0  0  0  0  0  0  0  0  0  0  0  0
   -0.0232   16.0941   -0.4478 H   0  0  0  0  0  0  0  0  0  0  0  0
   -0.2589   16.8301   -2.7354 H   0  0  0  0  0  0  0  0  0  0  0  0
    1.4557   17.2828   -2.8476 H   0  0  0  0  0  0  0  0  0  0  0  0
    0.2772   14.9439   -3.9900 H   0  0  0  0  0  0  0  0  0  0  0  0
    2.0113   15.1777   -3.7880 H   0  0  0  0  0  0  0  0  0  0  0  0
   -0.6680   13.7376   -0.8021 H   0  0  0  0  0  0  0  0  0  0  0  0
   -1.0824   14.5689   -2.3396 H   0  0  0  0  0  0  0  0  0  0  0  0
   -0.7181   12.8100   -2.3396 H   0  0  0  0  0  0  0  0  0  0  0  0
    2.8489   13.1905   -2.6845 H   0  0  0  0  0  0  0  0  0  0  0  0
    0.9448   12.6387   -4.3316 H   0  0  0  0  0  0  0  0  0  0  0  0
    2.2687   11.4138   -3.9615 H   0  0  0  0  0  0  0  0  0  0  0  0
   -0.1852   10.4689   -4.1153 H   0  0  0  0  0  0  0  0  0  0  0  0
    0.1776   11.6038   -0.2583 H   0  0  0  0  0  0  0  0  0  0  0  0
    1.9526    9.0955   -0.4864 H   0  0  0  0  0  0  0  0  0  0  0  0
    1.6810   10.1106    0.9992 H   0  0  0  0  0  0  0  0  0  0  0  0
    0.3707    8.0121    1.0456 H   0  0  0  0  0  0  0  0  0  0  0  0
   -0.6657    9.4925    1.0305 H   0  0  0  0  0  0  0  0  0  0  0  0
   -1.6161    7.8721   -0.4622 H   0  0  0  0  0  0  0  0  0  0  0  0
    0.4770    7.8780   -2.2920 H   0  0  0  0  0  0  0  0  0  0  0  0
   -2.1927   10.2697   -0.0357 H   0  0  0  0  0  0  0  0  0  0  0  0
   -2.1892   11.3707   -1.4550 H   0  0  0  0  0  0  0  0  0  0  0  0
   -3.2329    9.9087   -1.4550 H   0  0  0  0  0  0  0  0  0  0  0  0
   -2.4137    8.0535   -2.7551 H   0  0  0  0  0  0  0  0  0  0  0  0
   -2.2281    9.6060   -3.6394 H   0  0  0  0  0  0  0  0  0  0  0  0
   -0.8906    8.4069   -3.6394 H   0  0  0  0  0  0  0  0  0  0  0  0
    3.8218   10.7240   -0.4437 H   0  0  0  0  0  0  0  0  0  0  0  0
    3.0853   10.1375   -1.9735 H   0  0  0  0  0  0  0  0  0  0  0  0
    4.0904   11.6263   -1.9735 H   0  0  0  0  0  0  0  0  0  0  0  0
    2.1774   12.1236    1.0480 H   0  0  0  0  0  0  0  0  0  0  0  0
    3.4723   13.0238    0.0744 H   0  0  0  0  0  0  0  0  0  0  0  0
    0.5998   13.8658    0.5517 H   0  0  0  0  0  0  0  0  0  0  0  0
    2.1180   14.6516    1.1381 H   0  0  0  0  0  0  0  0  0  0  0  0
    3.7557   15.3705   -0.2537 H   0  0  0  0  0  0  0  0  0  0  0  0
    3.7137   14.4388   -1.7890 H   0  0  0  0  0  0  0  0  0  0  0  0
    3.3082   16.1887   -1.7890 H   0  0  0  0  0  0  0  0  0  0  0  0
  1  2  1  0
  2  3  1  0
  3  4  1  0
  4  5  1  0
  5  6  1  0
  6  7  1  0
  7  8  1  0
  7  9  1  0
  2 10  1  0
 10 11  1  0
 11 12  1  0
 12 13  1  0
 13 14  1  1
 13 15  1  0
 15 16  1  0
 16 17  1  0
 17 18  2  0
 18 19  1  0
 19 20  1  0
 20 21  1  0
 21 22  1  0
 22 23  1  0
 22 24  1  0
 24 25  1  0
 24 26  1  0
 19 27  1  0
 27 28  1  6
 27 29  1  0
 29 30  1  0
 30 31  1  0
 31 32  1  6
  7  5  1  0
 31 10  1  0
 31 13  1  0
 27 15  1  0
 24 18  1  0
  1 33  1  0
  1 34  1  0
  1 35  1  0
  2 36  1  1
  3 37  1  0
  3 38  1  0
  4 39  1  0
  4 40  1  0
  5 41  1  1
  8 42  1  0
  8 43  1  0
  8 44  1  0
  9 45  1  0
  9 46  1  0
  9 47  1  0
 10 48  1  1
 11 49  1  0
 11 50  1  0
 12 51  1  0
 12 52  1  0
 14 53  1  0
 14 54  1  0
 14 55  1  0
 15 56  1  6
 16 57  1  0
 16 58  1  0
 17 59  1  0
 19 60  1  1
 20 61  1  0
 20 62  1  0
 21 63  1  0
 21 64  1  0
 22 65  1  1
 23 66  1  0
 25 67  1  0
 25 68  1  0
 25 69  1  0
 26 70  1  0
 26 71  1  0
 26 72  1  0
 28 73  1  0
 28 74  1  0
 28 75  1  0
 29 76  1  0
 29 77  1  0
 30 78  1  0
 30 79  1  0
 32 80  1  0
 32 81  1  0
 32 82  1  0
M  END
>  <meeko>  (3) 
{"is_sidechain": [false], "intermolecular_energy": 2.731, "internal_energy": -0.839}

$$$$
EPH_relaxed_0001_pdb2pqr_Repair_42_r2_0001_out
     RDKit          3D

 82 86  0  0  0  0  0  0  0  0999 V2000
    2.3110   18.0060   -2.6580 C   0  0  0  0  0  0  0  0  0  0  0  0
    1.0000   17.6280   -1.9620 C   0  0  2  0  0  0  0  0  0  0  0  0
    1.1210   17.6840   -0.4260 C   0  0  0  0  0  0  0  0  0  0  0  0
    0.8110   19.0620    0.1660 C   0  0  0  0  0  0  0  0  0  0  0  0
   -0.6230   19.1730    0.5890 C   0  0  2  0  0  0  0  0  0  0  0  0
   -1.5110   18.2510   -0.0570 O   0  0  0  0  0  0  0  0  0  0  0  0
   -1.7330   19.6440   -0.3320 C   0  0  0  0  0  0  0  0  0  0  0  0
   -1.4570   20.0350   -1.7500 C   0  0  0  0  0  0  0  0  0  0  0  0
   -2.9870   20.1870    0.2780 C   0  0  0  0  0  0  0  0  0  0  0  0
    0.5630   16.2360   -2.4000 C   0  0  1  0  0  0  0  0  0  0  0  0
    0.6280   16.0450   -3.9390 C   0  0  0  0  0  0  0  0  0  0  0  0
    1.0440   14.5730   -4.1900 C   0  0  0  0  0  0  0  0  0  0  0  0
    0.8820   13.8820   -2.8160 C   0  0  1  0  0  0  0  0  0  0  0  0
   -0.6420   13.5640   -2.7040 C   0  0  0  0  0  0  0  0  0  0  0  0
    1.7560   12.6080   -2.5750 C   0  0  2  0  0  0  0  0  0  0  0  0
    1.4700   11.4320   -3.5240 C   0  0  0  0  0  0  0  0  0  0  0  0
    0.4350   10.4670   -3.0500 C   0  0  0  0  0  0  0  0  0  0  0  0
   -0.0340   10.3790   -1.7920 C   0  0  0  0  0  0  0  0  0  0  0  0
    0.5550   11.2430   -0.6690 C   0  0  1  0  0  0  0  0  0  0  0  0
    0.8220   10.3600    0.5780 C   0  0  0  0  0  0  0  0  0  0  0  0
   -0.4160    9.5880    1.0240 C   0  0  0  0  0  0  0  0  0  0  0  0
   -0.9380    8.6960   -0.1000 C   0  0  2  0  0  0  0  0  0  0  0  0
    0.0240    7.6680   -0.3570 O   0  0  0  0  0  0  0  0  0  0  0  0
   -1.2330    9.4750   -1.4120 C   0  0  0  0  0  0  0  0  0  0  0  0
   -2.4770   10.3760   -1.2140 C   0  0  0  0  0  0  0  0  0  0  0  0
   -1.6170    8.4410   -2.5050 C   0  0  0  0  0  0  0  0  0  0  0  0
    1.8090   12.1340   -1.0660 C   0  0  1  0  0  0  0  0  0  0  0  0
    3.1210   11.3070   -0.9050 C   0  0  0  0  0  0  0  0  0  0  0  0
    1.9200   13.3420   -0.0630 C   0  0  0  0  0  0  0  0  0  0  0  0
    1.1270   14.6150   -0.4170 C   0  0  0  0  0  0  0  0  0  0  0  0
    1.3820   15.0330   -1.8690 C   0  0  2  0  0  0  0  0  0  0  0  0
    2.9030   15.3800   -2.0060 C   0  0  0  0  0  0  0  0  0  0  0  0
    3.0776   18.2270   -1.9008 H   0  0  0  0  0  0  0  0  0  0  0  0
    2.6473   17.1682   -3.2865 H   0  0  0  0  0  0  0  0  0  0  0  0
    2.1496   18.8942   -3.2865 H   0  0  0  0  0  0  0  0  0  0  0  0
    0.2415   18.3668   -2.2599 H   0  0  0  0  0  0  0  0  0  0  0  0
    0.4186   16.9551    0.0045 H   0  0  0  0  0  0  0  0  0  0  0  0
    2.1679   17.4554   -0.1774 H   0  0  0  0  0  0  0  0  0  0  0  0
    1.4551   19.2268    1.0423 H   0  0  0  0  0  0  0  0  0  0  0  0
    0.9998   19.8191   -0.6094 H   0  0  0  0  0  0  0  0  0  0  0  0
   -0.3248   19.4805    1.6022 H   0  0  0  0  0  0  0  0  0  0  0  0
   -0.8227   20.9336   -1.7658 H   0  0  0  0  0  0  0  0  0  0  0  0
   -0.9390   19.2115   -2.2632 H   0  0  0  0  0  0  0  0  0  0  0  0
   -2.4065   20.2474   -2.2632 H   0  0  0  0  0  0  0  0  0  0  0  0
   -2.9063   20.1521    1.3745 H   0  0  0  0  0  0  0  0  0  0  0  0
   -3.1313   21.2282   -0.0460 H   0  0  0  0  0  0  0  0  0  0  0  0
   -3.8451   19.5798   -0.0460 H   0  0  0  0  0  0  0  0  0  0  0  0
   -0.4506   16.2192   -1.9730 H   0  0  0  0  0  0  0  0  0  0  0  0
   -0.3571   16.2418   -4.3870 H   0  0  0  0  0  0  0  0  0  0  0  0
    1.3478   16.7417   -4.3933 H   0  0  0  0  0  0  0  0  0  0  0  0
    0.3875   14.1063   -4.9392 H   0  0  0  0  0  0  0  0  0  0  0  0
    2.0691   14.4900   -4.5803 H   0  0  0  0  0  0  0  0  0  0  0  0
   -0.9272   13.5045   -1.6433 H   0  0  0  0  0  0  0  0  0  0  0  0
   -1.2199   14.3609   -3.1949 H   0  0  0  0  0  0  0  0  0  0  0  0
   -0.8530   12.6025   -3.1949 H   0  0  0  0  0  0  0  0  0  0  0  0
    2.7650   12.9617   -2.8336 H   0  0  0  0  0  0  0  0  0  0  0  0
    1.1336   11.8458   -4.4861 H   0  0  0  0  0  0  0  0  0  0  0  0
    2.4082   10.8620   -3.5933 H   0  0  0  0  0  0  0  0  0  0  0  0
    0.0205    9.7686   -3.7919 H   0  0  0  0  0  0  0  0  0  0  0  0
   -0.2089   11.9988   -0.4338 H   0  0  0  0  0  0  0  0  0  0  0  0
    1.6183    9.6405    0.3367 H   0  0  0  0  0  0  0  0  0  0  0  0
    1.1150   11.0265    1.4026 H   0  0  0  0  0  0  0  0  0  0  0  0
   -0.1566    8.9611    1.8899 H   0  0  0  0  0  0  0  0  0  0  0  0
   -1.2015   10.3096    1.2927 H   0  0  0  0  0  0  0  0  0  0  0  0
   -1.8953    8.2696    0.2341 H   0  0  0  0  0  0  0  0  0  0  0  0
    0.2610    7.2670    0.4960 H   0  0  0  0  0  0  0  0  0  0  0  0
   -2.6641   10.5115   -0.1385 H   0  0  0  0  0  0  0  0  0  0  0  0
   -2.2984   11.3556   -1.6814 H   0  0  0  0  0  0  0  0  0  0  0  0
   -3.3521    9.9008   -1.6814 H   0  0  0  0  0  0  0  0  0  0  0  0
   -1.9618    7.5125   -2.0264 H   0  0  0  0  0  0  0  0  0  0  0  0
   -2.4226    8.8517   -3.1314 H   0  0  0  0  0  0  0  0  0  0  0  0
   -0.7386    8.2263   -3.1314 H   0  0  0  0  0  0  0  0  0  0  0  0
    3.3389   11.1696    0.1644 H   0  0  0  0  0  0  0  0  0  0  0  0
    2.9959   10.3242   -1.3829 H   0  0  0  0  0  0  0  0  0  0  0  0
    3.9538   11.8438   -1.3829 H   0  0  0  0  0  0  0  0  0  0  0  0
    1.5675   12.9927    0.9187 H   0  0  0  0  0  0  0  0  0  0  0  0
    2.9772   13.6442   -0.0928 H   0  0  0  0  0  0  0  0  0  0  0  0
    0.0530   14.4193   -0.2821 H   0  0  0  0  0  0  0  0  0  0  0  0
    1.4558   15.4291    0.2456 H   0  0  0  0  0  0  0  0  0  0  0  0
    3.3476   15.4814   -1.0050 H   0  0  0  0  0  0  0  0  0  0  0  0
    3.4147   14.5755   -2.5546 H   0  0  0  0  0  0  0  0  0  0  0  0
    3.0151   16.3268   -2.5546 H   0  0  0  0  0  0  0  0  0  0  0  0
  1  2  1  0
  2  3  1  0
  3  4  1  0
  4  5  1  0
  5  6  1  0
  6  7  1  0
  7  8  1  0
  7  9  1  0
  2 10  1  0
 10 11  1  0
 11 12  1  0
 12 13  1  0
 13 14  1  1
 13 15  1  0
 15 16  1  0
 16 17  1  0
 17 18  2  0
 18 19  1  0
 19 20  1  0
 20 21  1  0
 21 22  1  0
 22 23  1  0
 22 24  1  0
 24 25  1  0
 24 26  1  0
 19 27  1  0
 27 28  1  6
 27 29  1  0
 29 30  1  0
 30 31  1  0
 31 32  1  1
  7  5  1  0
 31 10  1  0
 31 13  1  0
 27 15  1  0
 24 18  1  0
  1 33  1  0
  1 34  1  0
  1 35  1  0
  2 36  1  6
  3 37  1  0
  3 38  1  0
  4 39  1  0
  4 40  1  0
  5 41  1  1
  8 42  1  0
  8 43  1  0
  8 44  1  0
  9 45  1  0
  9 46  1  0
  9 47  1  0
 10 48  1  1
 11 49  1  0
 11 50  1  0
 12 51  1  0
 12 52  1  0
 14 53  1  0
 14 54  1  0
 14 55  1  0
 15 56  1  6
 16 57  1  0
 16 58  1  0
 17 59  1  0
 19 60  1  1
 20 61  1  0
 20 62  1  0
 21 63  1  0
 21 64  1  0
 22 65  1  1
 23 66  1  0
 25 67  1  0
 25 68  1  0
 25 69  1  0
 26 70  1  0
 26 71  1  0
 26 72  1  0
 28 73  1  0
 28 74  1  0
 28 75  1  0
 29 76  1  0
 29 77  1  0
 30 78  1  0
 30 79  1  0
 32 80  1  0
 32 81  1  0
 32 82  1  0
M  END
>  <meeko>  (4) 
{"is_sidechain": [false], "intermolecular_energy": 2.731, "internal_energy": -0.839}

$$$$
EPH_relaxed_0001_pdb2pqr_Repair_42_r2_0001_out
     RDKit          3D

 82 86  0  0  0  0  0  0  0  0999 V2000
   -4.5750    6.2280   -2.4920 C   0  0  0  0  0  0  0  0  0  0  0  0
   -5.1360    7.6080   -2.1360 C   0  0  2  0  0  0  0  0  0  0  0  0
   -4.9680    7.9350   -0.6390 C   0  0  0  0  0  0  0  0  0  0  0  0
   -3.9520    9.0450   -0.3610 C   0  0  0  0  0  0  0  0  0  0  0  0
   -2.5890    8.6910   -0.8760 C   0  0  2  0  0  0  0  0  0  0  0  0
   -1.5080    9.0530   -0.0080 O   0  0  0  0  0  0  0  0  0  0  0  0
   -1.5530    9.7230   -1.2780 C   0  0  0  0  0  0  0  0  0  0  0  0
   -1.8340   11.1900   -1.1830 C   0  0  0  0  0  0  0  0  0  0  0  0
   -0.4590    9.3120   -2.2150 C   0  0  0  0  0  0  0  0  0  0  0  0
   -6.6080    7.6870   -2.5250 C   0  0  1  0  0  0  0  0  0  0  0  0
   -6.9160    6.9430   -3.8520 C   0  0  0  0  0  0  0  0  0  0  0  0
   -8.3320    6.3300   -3.7030 C   0  0  0  0  0  0  0  0  0  0  0  0
   -8.9210    7.0100   -2.4460 C   0  0  1  0  0  0  0  0  0  0  0  0
   -9.4370    8.3970   -2.9440 C   0  0  0  0  0  0  0  0  0  0  0  0
  -10.0370    6.2170   -1.6900 C   0  0  2  0  0  0  0  0  0  0  0  0
  -11.3170    5.9570   -2.5020 C   0  0  0  0  0  0  0  0  0  0  0  0
  -12.3730    7.0050   -2.3830 C   0  0  0  0  0  0  0  0  0  0  0  0
  -12.4200    7.9640   -1.4390 C   0  0  0  0  0  0  0  0  0  0  0  0
  -11.3910    8.0000   -0.3010 C   0  0  1  0  0  0  0  0  0  0  0  0
  -12.1210    8.2230    1.0490 C   0  0  0  0  0  0  0  0  0  0  0  0
  -13.0170    9.4580    1.0330 C   0  0  0  0  0  0  0  0  0  0  0  0
  -14.0630    9.3590   -0.0740 C   0  0  2  0  0  0  0  0  0  0  0  0
  -14.9660    8.2940    0.2390 O   0  0  0  0  0  0  0  0  0  0  0  0
  -13.4450    9.1230   -1.4810 C   0  0  0  0  0  0  0  0  0  0  0  0
  -12.7120   10.4050   -1.9480 C   0  0  0  0  0  0  0  0  0  0  0  0
  -14.6110    8.9010   -2.4830 C   0  0  0  0  0  0  0  0  0  0  0  0
  -10.3710    6.7830   -0.2500 C   0  0  1  0  0  0  0  0  0  0  0  0
  -10.9920    5.6020    0.5590 C   0  0  0  0  0  0  0  0  0  0  0  0
   -9.0800    7.2270    0.5340 C   0  0  0  0  0  0  0  0  0  0  0  0
   -7.9640    7.8970   -0.2900 C   0  0  0  0  0  0  0  0  0  0  0  0
   -7.6370    7.0760   -1.5410 C   0  0  2  0  0  0  0  0  0  0  0  0
   -7.0950    5.6830   -1.0710 C   0  0  0  0  0  0  0  0  0  0  0  0
   -4.3499    5.6743   -1.5685 H   0  0  0  0  0  0  0  0  0  0  0  0
   -5.3181    5.6710   -3.0816 H   0  0  0  0  0  0  0  0  0  0  0  0
   -3.6541    6.3475   -3.0816 H   0  0  0  0  0  0  0  0  0  0  0  0
   -4.5611    8.3550   -2.7030 H   0  0  0  0  0  0  0  0  0  0  0  0
   -5.9438    8.2500   -0.2409 H   0  0  0  0  0  0  0  0  0  0  0  0
   -4.5896    7.0242   -0.1520 H   0  0  0  0  0  0  0  0  0  0  0  0
   -4.2900    9.9690   -0.8529 H   0  0  0  0  0  0  0  0  0  0  0  0
   -3.8823    9.1811    0.7283 H   0  0  0  0  0  0  0  0  0  0  0  0
   -2.9888    7.8065   -1.3935 H   0  0  0  0  0  0  0  0  0  0  0  0
   -1.8905   11.4847   -0.1247 H   0  0  0  0  0  0  0  0  0  0  0  0
   -1.0269   11.7507   -1.6772 H   0  0  0  0  0  0  0  0  0  0  0  0
   -2.7911   11.4128   -1.6772 H   0  0  0  0  0  0  0  0  0  0  0  0
    0.4161    8.9832   -1.6352 H   0  0  0  0  0  0  0  0  0  0  0  0
   -0.8107    8.4847   -2.8489 H   0  0  0  0  0  0  0  0  0  0  0  0
   -0.1790   10.1662   -2.8489 H   0  0  0  0  0  0  0  0  0  0  0  0
   -6.7295    8.7795   -2.5667 H   0  0  0  0  0  0  0  0  0  0  0  0
   -6.8956    7.6488   -4.6955 H   0  0  0  0  0  0  0  0  0  0  0  0
   -6.1667    6.1625   -4.0502 H   0  0  0  0  0  0  0  0  0  0  0  0
   -8.9462    6.5516   -4.5882 H   0  0  0  0  0  0  0  0  0  0  0  0
   -8.3046    5.2343   -3.6103 H   0  0  0  0  0  0  0  0  0  0  0  0
   -9.6735    9.0327   -2.0780 H   0  0  0  0  0  0  0  0  0  0  0  0
   -8.6587    8.8809   -3.5524 H   0  0  0  0  0  0  0  0  0  0  0  0
  -10.3423    8.2545   -3.5524 H   0  0  0  0  0  0  0  0  0  0  0  0
   -9.5699    5.2316   -1.5460 H   0  0  0  0  0  0  0  0  0  0  0  0
  -11.0360    5.8768   -3.5625 H   0  0  0  0  0  0  0  0  0  0  0  0
  -11.7556    5.0358   -2.0908 H   0  0  0  0  0  0  0  0  0  0  0  0
  -13.1810    6.9929   -3.1294 H   0  0  0  0  0  0  0  0  0  0  0  0
  -10.7309    8.8538   -0.5140 H   0  0  0  0  0  0  0  0  0  0  0  0
  -12.7411    7.3403    1.2645 H   0  0  0  0  0  0  0  0  0  0  0  0
  -11.3536    8.3774    1.8219 H   0  0  0  0  0  0  0  0  0  0  0  0
  -13.5272    9.5451    2.0036 H   0  0  0  0  0  0  0  0  0  0  0  0
  -12.3912   10.3432    0.8465 H   0  0  0  0  0  0  0  0  0  0  0  0
  -14.5879   10.3246   -0.1194 H   0  0  0  0  0  0  0  0  0  0  0  0
  -15.7750    8.6910    0.6040 H   0  0  0  0  0  0  0  0  0  0  0  0
  -12.3833   10.9800   -1.0697 H   0  0  0  0  0  0  0  0  0  0  0  0
  -11.8364   10.1270   -2.5530 H   0  0  0  0  0  0  0  0  0  0  0  0
  -13.3958   11.0186   -2.5530 H   0  0  0  0  0  0  0  0  0  0  0  0
  -15.5434    8.7235   -1.9271 H   0  0  0  0  0  0  0  0  0  0  0  0
  -14.7256    9.7935   -3.1158 H   0  0  0  0  0  0  0  0  0  0  0  0
  -14.3897    8.0289   -3.1158 H   0  0  0  0  0  0  0  0  0  0  0  0
  -10.8877    5.8004    1.6359 H   0  0  0  0  0  0  0  0  0  0  0  0
  -12.0580    5.5045    0.3057 H   0  0  0  0  0  0  0  0  0  0  0  0
  -10.4681    4.6685    0.3057 H   0  0  0  0  0  0  0  0  0  0  0  0
   -9.3917    7.9385    1.3129 H   0  0  0  0  0  0  0  0  0  0  0  0
   -8.6378    6.2938    0.9130 H   0  0  0  0  0  0  0  0  0  0  0  0
   -8.2951    8.9007   -0.5949 H   0  0  0  0  0  0  0  0  0  0  0  0
   -7.0596    7.9621    0.3327 H   0  0  0  0  0  0  0  0  0  0  0  0
   -7.0810    5.6469    0.0283 H   0  0  0  0  0  0  0  0  0  0  0  0
   -7.7488    4.8864   -1.4557 H   0  0  0  0  0  0  0  0  0  0  0  0
   -6.0747    5.5377   -1.4557 H   0  0  0  0  0  0  0  0  0  0  0  0
  1  2  1  0
  2  3  1  0
  3  4  1  0
  4  5  1  0
  5  6  1  0
  6  7  1  0
  7  8  1  0
  7  9  1  0
  2 10  1  0
 10 11  1  0
 11 12  1  0
 12 13  1  0
 13 14  1  6
 13 15  1  0
 15 16  1  0
 16 17  1  0
 17 18  2  0
 18 19  1  0
 19 20  1  0
 20 21  1  0
 21 22  1  0
 22 23  1  0
 22 24  1  0
 24 25  1  0
 24 26  1  0
 19 27  1  0
 27 28  1  1
 27 29  1  0
 29 30  1  0
 30 31  1  0
 31 32  1  1
  7  5  1  0
 31 10  1  0
 31 13  1  0
 27 15  1  0
 24 18  1  0
  1 33  1  0
  1 34  1  0
  1 35  1  0
  2 36  1  6
  3 37  1  0
  3 38  1  0
  4 39  1  0
  4 40  1  0
  5 41  1  6
  8 42  1  0
  8 43  1  0
  8 44  1  0
  9 45  1  0
  9 46  1  0
  9 47  1  0
 10 48  1  6
 11 49  1  0
 11 50  1  0
 12 51  1  0
 12 52  1  0
 14 53  1  0
 14 54  1  0
 14 55  1  0
 15 56  1  1
 16 57  1  0
 16 58  1  0
 17 59  1  0
 19 60  1  6
 20 61  1  0
 20 62  1  0
 21 63  1  0
 21 64  1  0
 22 65  1  6
 23 66  1  0
 25 67  1  0
 25 68  1  0
 25 69  1  0
 26 70  1  0
 26 71  1  0
 26 72  1  0
 28 73  1  0
 28 74  1  0
 28 75  1  0
 29 76  1  0
 29 77  1  0
 30 78  1  0
 30 79  1  0
 32 80  1  0
 32 81  1  0
 32 82  1  0
M  END
>  <meeko>  (5) 
{"is_sidechain": [false], "intermolecular_energy": 2.731, "internal_energy": -0.839}

$$$$
EPH_relaxed_0001_pdb2pqr_Repair_42_r2_0001_out
     RDKit          3D

 82 86  0  0  0  0  0  0  0  0999 V2000
    3.7160   17.6420    0.6040 C   0  0  0  0  0  0  0  0  0  0  0  0
    2.8110   17.9390   -0.5940 C   0  0  2  0  0  0  0  0  0  0  0  0
    2.1440   19.3260   -0.4890 C   0  0  0  0  0  0  0  0  0  0  0  0
    1.2660   19.4940    0.7540 C   0  0  0  0  0  0  0  0  0  0  0  0
   -0.0620   20.1020    0.4170 C   0  0  2  0  0  0  0  0  0  0  0  0
   -0.9780   20.1860    1.5160 O   0  0  0  0  0  0  0  0  0  0  0  0
   -1.3650   19.3260    0.4330 C   0  0  0  0  0  0  0  0  0  0  0  0
   -1.4050   17.8740    0.7930 C   0  0  0  0  0  0  0  0  0  0  0  0
   -2.5180   19.8470   -0.3680 C   0  0  0  0  0  0  0  0  0  0  0  0
    1.7450   16.8570   -0.7210 C   0  0  1  0  0  0  0  0  0  0  0  0
    0.4960   17.3380   -1.5080 C   0  0  0  0  0  0  0  0  0  0  0  0
   -0.0250   16.1170   -2.3090 C   0  0  0  0  0  0  0  0  0  0  0  0
    0.7280   14.9060   -1.7080 C   0  0  1  0  0  0  0  0  0  0  0  0
   -0.0600   14.5490   -0.4090 C   0  0  0  0  0  0  0  0  0  0  0  0
    0.8940   13.6640   -2.6420 C   0  0  2  0  0  0  0  0  0  0  0  0
   -0.4210   12.9960   -3.0810 C   0  0  0  0  0  0  0  0  0  0  0  0
   -0.9120   11.9070   -2.1870 C   0  0  0  0  0  0  0  0  0  0  0  0
   -0.1870   11.2870   -1.2380 C   0  0  0  0  0  0  0  0  0  0  0  0
    1.3030   11.6020   -1.0540 C   0  0  1  0  0  0  0  0  0  0  0  0
    2.1000   10.2770   -0.9240 C   0  0  0  0  0  0  0  0  0  0  0  0
    1.5550    9.3710    0.1750 C   0  0  0  0  0  0  0  0  0  0  0  0
    0.0880    9.0330   -0.0740 C   0  0  2  0  0  0  0  0  0  0  0  0
   -0.0050    8.2250   -1.2510 O   0  0  0  0  0  0  0  0  0  0  0  0
   -0.8130   10.2900   -0.2310 C   0  0  0  0  0  0  0  0  0  0  0  0
   -0.9520   11.0040    1.1370 C   0  0  0  0  0  0  0  0  0  0  0  0
   -2.2380    9.8110   -0.6180 C   0  0  0  0  0  0  0  0  0  0  0  0
    1.9380   12.5950   -2.1190 C   0  0  1  0  0  0  0  0  0  0  0  0
    2.4220   11.7970   -3.3680 C   0  0  0  0  0  0  0  0  0  0  0  0
    3.2200   13.2660   -1.4970 C   0  0  0  0  0  0  0  0  0  0  0  0
    3.0040   14.5570   -0.6850 C   0  0  0  0  0  0  0  0  0  0  0  0
    2.1390   15.5550   -1.4610 C   0  0  2  0  0  0  0  0  0  0  0  0
    2.9150   15.9490   -2.7630 C   0  0  0  0  0  0  0  0  0  0  0  0
    3.1615   17.8240    1.5364 H   0  0  0  0  0  0  0  0  0  0  0  0
    4.0384   16.5909    0.5683 H   0  0  0  0  0  0  0  0  0  0  0  0
    4.5985   18.2977    0.5683 H   0  0  0  0  0  0  0  0  0  0  0  0
    3.4443   17.9446   -1.4934 H   0  0  0  0  0  0  0  0  0  0  0  0
    2.9346   20.0904   -0.4617 H   0  0  0  0  0  0  0  0  0  0  0  0
    1.4863   19.4336   -1.3642 H   0  0  0  0  0  0  0  0  0  0  0  0
    1.1006   18.5066    1.2097 H   0  0  0  0  0  0  0  0  0  0  0  0
    1.7846   20.1683    1.4514 H   0  0  0  0  0  0  0  0  0  0  0  0
    0.4010   20.7512   -0.3408 H   0  0  0  0  0  0  0  0  0  0  0  0
   -1.4079   17.7676    1.8878 H   0  0  0  0  0  0  0  0  0  0  0  0
   -2.3160   17.4183    0.3779 H   0  0  0  0  0  0  0  0  0  0  0  0
   -0.5204   17.3688    0.3779 H   0  0  0  0  0  0  0  0  0  0  0  0
   -3.3058   20.2030    0.3121 H   0  0  0  0  0  0  0  0  0  0  0  0
   -2.1777   20.6788   -1.0023 H   0  0  0  0  0  0  0  0  0  0  0  0
   -2.9174   19.0419   -1.0023 H   0  0  0  0  0  0  0  0  0  0  0  0
    1.5685   16.6457    0.3440 H   0  0  0  0  0  0  0  0  0  0  0  0
   -0.2778   17.6920   -0.8110 H   0  0  0  0  0  0  0  0  0  0  0  0
    0.7489   18.1721   -2.1791 H   0  0  0  0  0  0  0  0  0  0  0  0
   -1.1113   16.0022   -2.1792 H   0  0  0  0  0  0  0  0  0  0  0  0
    0.1493   16.2220   -3.3900 H   0  0  0  0  0  0  0  0  0  0  0  0
    0.5411   14.8213    0.4710 H   0  0  0  0  0  0  0  0  0  0  0  0
   -1.0089   15.1051   -0.3912 H   0  0  0  0  0  0  0  0  0  0  0  0
   -0.2676   13.4689   -0.3912 H   0  0  0  0  0  0  0  0  0  0  0  0
    1.3208   14.1097   -3.5526 H   0  0  0  0  0  0  0  0  0  0  0  0
   -1.1979   13.7733   -3.1281 H   0  0  0  0  0  0  0  0  0  0  0  0
   -0.2125   12.5222   -4.0516 H   0  0  0  0  0  0  0  0  0  0  0  0
   -1.9556   11.5834   -2.3146 H   0  0  0  0  0  0  0  0  0  0  0  0
    1.3797   12.1765   -0.1191 H   0  0  0  0  0  0  0  0  0  0  0  0
    2.0482    9.7391   -1.8821 H   0  0  0  0  0  0  0  0  0  0  0  0
    3.1360   10.5356   -0.6598 H   0  0  0  0  0  0  0  0  0  0  0  0
    2.1402    8.4398    0.1970 H   0  0  0  0  0  0  0  0  0  0  0  0
    1.6352    9.8987    1.1368 H   0  0  0  0  0  0  0  0  0  0  0  0
   -0.2803    8.4920    0.8101 H   0  0  0  0  0  0  0  0  0  0  0  0
    0.3010    7.3310   -1.0190 H   0  0  0  0  0  0  0  0  0  0  0  0
   -0.8099   10.2742    1.9476 H   0  0  0  0  0  0  0  0  0  0  0  0
   -0.1908   11.7940    1.2173 H   0  0  0  0  0  0  0  0  0  0  0  0
   -1.9540   11.4508    1.2173 H   0  0  0  0  0  0  0  0  0  0  0  0
   -2.8196    9.6155    0.2949 H   0  0  0  0  0  0  0  0  0  0  0  0
   -2.7382   10.5904   -1.2116 H   0  0  0  0  0  0  0  0  0  0  0  0
   -2.1659    8.8877   -1.2116 H   0  0  0  0  0  0  0  0  0  0  0  0
    2.9666   10.8990   -3.0409 H   0  0  0  0  0  0  0  0  0  0  0  0
    1.5525   11.4987   -3.9721 H   0  0  0  0  0  0  0  0  0  0  0  0
    3.0883   12.4303   -3.9721 H   0  0  0  0  0  0  0  0  0  0  0  0
    3.6913   12.5287   -0.8305 H   0  0  0  0  0  0  0  0  0  0  0  0
    3.8337   13.5674   -2.3587 H   0  0  0  0  0  0  0  0  0  0  0  0
    2.5031   14.3069    0.2619 H   0  0  0  0  0  0  0  0  0  0  0  0
    3.9840   15.0181   -0.4924 H   0  0  0  0  0  0  0  0  0  0  0  0
    3.8655   16.4316   -2.4915 H   0  0  0  0  0  0  0  0  0  0  0  0
    3.1189   15.0452   -3.3560 H   0  0  0  0  0  0  0  0  0  0  0  0
    2.3057   16.6469   -3.3560 H   0  0  0  0  0  0  0  0  0  0  0  0
  1  2  1  0
  2  3  1  0
  3  4  1  0
  4  5  1  0
  5  6  1  0
  6  7  1  0
  7  8  1  0
  7  9  1  0
  2 10  1  0
 10 11  1  0
 11 12  1  0
 12 13  1  0
 13 14  1  1
 13 15  1  0
 15 16  1  0
 16 17  1  0
 17 18  2  0
 18 19  1  0
 19 20  1  0
 20 21  1  0
 21 22  1  0
 22 23  1  0
 22 24  1  0
 24 25  1  0
 24 26  1  0
 19 27  1  0
 27 28  1  6
 27 29  1  0
 29 30  1  0
 30 31  1  0
 31 32  1  6
  7  5  1  0
 31 10  1  0
 31 13  1  0
 27 15  1  0
 24 18  1  0
  1 33  1  0
  1 34  1  0
  1 35  1  0
  2 36  1  6
  3 37  1  0
  3 38  1  0
  4 39  1  0
  4 40  1  0
  5 41  1  6
  8 42  1  0
  8 43  1  0
  8 44  1  0
  9 45  1  0
  9 46  1  0
  9 47  1  0
 10 48  1  1
 11 49  1  0
 11 50  1  0
 12 51  1  0
 12 52  1  0
 14 53  1  0
 14 54  1  0
 14 55  1  0
 15 56  1  6
 16 57  1  0
 16 58  1  0
 17 59  1  0
 19 60  1  1
 20 61  1  0
 20 62  1  0
 21 63  1  0
 21 64  1  0
 22 65  1  1
 23 66  1  0
 25 67  1  0
 25 68  1  0
 25 69  1  0
 26 70  1  0
 26 71  1  0
 26 72  1  0
 28 73  1  0
 28 74  1  0
 28 75  1  0
 29 76  1  0
 29 77  1  0
 30 78  1  0
 30 79  1  0
 32 80  1  0
 32 81  1  0
 32 82  1  0
M  END
>  <meeko>  (6) 
{"is_sidechain": [false], "intermolecular_energy": 2.731, "internal_energy": -0.839}

$$$$
EPH_relaxed_0001_pdb2pqr_Repair_42_r2_0001_out
     RDKit          3D

 82 86  0  0  0  0  0  0  0  0999 V2000
    0.4240    8.8670   -2.4990 C   0  0  0  0  0  0  0  0  0  0  0  0
    1.1840   10.0230   -3.1570 C   0  0  2  0  0  0  0  0  0  0  0  0
    2.6780   10.0270   -2.7780 C   0  0  0  0  0  0  0  0  0  0  0  0
    3.5870   10.6090   -3.8630 C   0  0  0  0  0  0  0  0  0  0  0  0
    4.9780   10.8410   -3.3560 C   0  0  2  0  0  0  0  0  0  0  0  0
    5.5870   12.0570   -3.8110 O   0  0  0  0  0  0  0  0  0  0  0  0
    6.2060   10.8350   -4.2470 C   0  0  0  0  0  0  0  0  0  0  0  0
    6.1000   10.5910   -5.7200 C   0  0  0  0  0  0  0  0  0  0  0  0
    7.5420   10.5810   -3.6230 C   0  0  0  0  0  0  0  0  0  0  0  0
    0.5450   11.3510   -2.7720 C   0  0  1  0  0  0  0  0  0  0  0  0
   -0.8310   11.1730   -2.0770 C   0  0  0  0  0  0  0  0  0  0  0  0
   -0.9460   12.2990   -1.0170 C   0  0  0  0  0  0  0  0  0  0  0  0
    0.2030   13.2760   -1.3600 C   0  0  1  0  0  0  0  0  0  0  0  0
   -0.3490   14.1490   -2.5310 C   0  0  0  0  0  0  0  0  0  0  0  0
    0.7340   14.1580   -0.1840 C   0  0  2  0  0  0  0  0  0  0  0  0
   -0.2960   15.1270    0.4230 C   0  0  0  0  0  0  0  0  0  0  0  0
   -0.3420   16.4820   -0.2010 C   0  0  0  0  0  0  0  0  0  0  0  0
    0.5990   17.0020   -1.0110 C   0  0  0  0  0  0  0  0  0  0  0  0
    1.9000   16.2410   -1.2970 C   0  0  1  0  0  0  0  0  0  0  0  0
    3.1060   17.2070   -1.1560 C   0  0  0  0  0  0  0  0  0  0  0  0
    2.9590   18.4570   -2.0190 C   0  0  0  0  0  0  0  0  0  0  0  0
    1.6830   19.2170   -1.6660 C   0  0  2  0  0  0  0  0  0  0  0  0
    1.8100   19.7390   -0.3390 O   0  0  0  0  0  0  0  0  0  0  0  0
    0.4020   18.3420   -1.7620 C   0  0  0  0  0  0  0  0  0  0  0  0
    0.0980   18.0270   -3.2480 C   0  0  0  0  0  0  0  0  0  0  0  0
   -0.7930   19.1870   -1.2440 C   0  0  0  0  0  0  0  0  0  0  0  0
    2.1040   14.8880   -0.4890 C   0  0  1  0  0  0  0  0  0  0  0  0
    2.7660   15.1880    0.8910 C   0  0  0  0  0  0  0  0  0  0  0  0
    3.1110   13.9670   -1.2740 C   0  0  0  0  0  0  0  0  0  0  0  0
    2.5110   13.0320   -2.3410 C   0  0  0  0  0  0  0  0  0  0  0  0
    1.3190   12.2510   -1.7770 C   0  0  2  0  0  0  0  0  0  0  0  0
    1.8480   11.3470   -0.6120 C   0  0  0  0  0  0  0  0  0  0  0  0
    0.4868    8.9625   -1.4050 H   0  0  0  0  0  0  0  0  0  0  0  0
   -0.6307    8.8976   -2.8098 H   0  0  0  0  0  0  0  0  0  0  0  0
    0.8702    7.9108   -2.8098 H   0  0  0  0  0  0  0  0  0  0  0  0
    1.1210    9.8824   -4.2462 H   0  0  0  0  0  0  0  0  0  0  0  0
    2.8025   10.6251   -1.8632 H   0  0  0  0  0  0  0  0  0  0  0  0
    2.9766    8.9776   -2.6377 H   0  0  0  0  0  0  0  0  0  0  0  0
    3.6284    9.9060   -4.7081 H   0  0  0  0  0  0  0  0  0  0  0  0
    3.1703   11.5778   -4.1757 H   0  0  0  0  0  0  0  0  0  0  0  0
    4.7466   10.3195   -2.4155 H   0  0  0  0  0  0  0  0  0  0  0  0
    5.6674    9.5952   -5.8965 H   0  0  0  0  0  0  0  0  0  0  0  0
    5.4536   11.3571   -6.1730 H   0  0  0  0  0  0  0  0  0  0  0  0
    7.1011   10.6414   -6.1730 H   0  0  0  0  0  0  0  0  0  0  0  0
    7.4445   10.5995   -2.5275 H   0  0  0  0  0  0  0  0  0  0  0  0
    7.9141    9.5960   -3.9414 H   0  0  0  0  0  0  0  0  0  0  0  0
    8.2496   11.3607   -3.9414 H   0  0  0  0  0  0  0  0  0  0  0  0
    0.5066   11.8301   -3.7615 H   0  0  0  0  0  0  0  0  0  0  0  0
   -1.6422   11.2627   -2.8144 H   0  0  0  0  0  0  0  0  0  0  0  0
   -0.9117   10.1807   -1.6093 H   0  0  0  0  0  0  0  0  0  0  0  0
   -1.9204   12.8041   -1.0910 H   0  0  0  0  0  0  0  0  0  0  0  0
   -0.8733   11.9137    0.0107 H   0  0  0  0  0  0  0  0  0  0  0  0
   -0.8943   15.0114   -2.1200 H   0  0  0  0  0  0  0  0  0  0  0  0
    0.4883   14.5053   -3.1490 H   0  0  0  0  0  0  0  0  0  0  0  0
   -1.0299   13.5453   -3.1490 H   0  0  0  0  0  0  0  0  0  0  0  0
    0.9369   13.4107    0.5973 H   0  0  0  0  0  0  0  0  0  0  0  0
   -1.2922   14.6718    0.3208 H   0  0  0  0  0  0  0  0  0  0  0  0
    0.0121   15.2834    1.4673 H   0  0  0  0  0  0  0  0  0  0  0  0
   -1.2188   17.1086    0.0196 H   0  0  0  0  0  0  0  0  0  0  0  0
    1.8238   15.8877   -2.3359 H   0  0  0  0  0  0  0  0  0  0  0  0
    3.1909   17.5136   -0.1030 H   0  0  0  0  0  0  0  0  0  0  0  0
    4.0045   16.6709   -1.4955 H   0  0  0  0  0  0  0  0  0  0  0  0
    3.8263   19.1130   -1.8531 H   0  0  0  0  0  0  0  0  0  0  0  0
    2.9046   18.1507   -3.0741 H   0  0  0  0  0  0  0  0  0  0  0  0
    1.5664   20.0258   -2.4024 H   0  0  0  0  0  0  0  0  0  0  0  0
    1.2430   20.5250   -0.2770 H   0  0  0  0  0  0  0  0  0  0  0  0
   -0.6648   17.2366   -3.3066 H   0  0  0  0  0  0  0  0  0  0  0  0
   -0.2748   18.9341   -3.7463 H   0  0  0  0  0  0  0  0  0  0  0  0
    1.0177   17.6867   -3.7463 H   0  0  0  0  0  0  0  0  0  0  0  0
   -0.7927   19.1868   -0.1440 H   0  0  0  0  0  0  0  0  0  0  0  0
   -0.6979   20.2198   -1.6105 H   0  0  0  0  0  0  0  0  0  0  0  0
   -1.7350   18.7531   -1.6105 H   0  0  0  0  0  0  0  0  0  0  0  0
    2.0858   14.8798    1.6987 H   0  0  0  0  0  0  0  0  0  0  0  0
    3.7102   14.6298    0.9738 H   0  0  0  0  0  0  0  0  0  0  0  0
    2.9688   16.2660    0.9738 H   0  0  0  0  0  0  0  0  0  0  0  0
    3.8382   14.6218   -1.7765 H   0  0  0  0  0  0  0  0  0  0  0  0
    3.5407   13.2977   -0.5141 H   0  0  0  0  0  0  0  0  0  0  0  0
    2.1742   13.6334   -3.1983 H   0  0  0  0  0  0  0  0  0  0  0  0
    3.2841   12.3149   -2.6542 H   0  0  0  0  0  0  0  0  0  0  0  0
    1.5823   11.8011    0.3540 H   0  0  0  0  0  0  0  0  0  0  0  0
    1.3914   10.3490   -0.6860 H   0  0  0  0  0  0  0  0  0  0  0  0
    2.9417   11.2562   -0.6860 H   0  0  0  0  0  0  0  0  0  0  0  0
  1  2  1  0
  2  3  1  0
  3  4  1  0
  4  5  1  0
  5  6  1  0
  6  7  1  0
  7  8  1  0
  7  9  1  0
  2 10  1  0
 10 11  1  0
 11 12  1  0
 12 13  1  0
 13 14  1  6
 13 15  1  0
 15 16  1  0
 16 17  1  0
 17 18  2  0
 18 19  1  0
 19 20  1  0
 20 21  1  0
 21 22  1  0
 22 23  1  0
 22 24  1  0
 24 25  1  0
 24 26  1  0
 19 27  1  0
 27 28  1  1
 27 29  1  0
 29 30  1  0
 30 31  1  0
 31 32  1  1
  7  5  1  0
 31 10  1  0
 31 13  1  0
 27 15  1  0
 24 18  1  0
  1 33  1  0
  1 34  1  0
  1 35  1  0
  2 36  1  6
  3 37  1  0
  3 38  1  0
  4 39  1  0
  4 40  1  0
  5 41  1  1
  8 42  1  0
  8 43  1  0
  8 44  1  0
  9 45  1  0
  9 46  1  0
  9 47  1  0
 10 48  1  6
 11 49  1  0
 11 50  1  0
 12 51  1  0
 12 52  1  0
 14 53  1  0
 14 54  1  0
 14 55  1  0
 15 56  1  1
 16 57  1  0
 16 58  1  0
 17 59  1  0
 19 60  1  6
 20 61  1  0
 20 62  1  0
 21 63  1  0
 21 64  1  0
 22 65  1  6
 23 66  1  0
 25 67  1  0
 25 68  1  0
 25 69  1  0
 26 70  1  0
 26 71  1  0
 26 72  1  0
 28 73  1  0
 28 74  1  0
 28 75  1  0
 29 76  1  0
 29 77  1  0
 30 78  1  0
 30 79  1  0
 32 80  1  0
 32 81  1  0
 32 82  1  0
M  END
>  <meeko>  (7) 
{"is_sidechain": [false], "intermolecular_energy": 2.731, "internal_energy": -0.839}

$$$$
EPH_relaxed_0001_pdb2pqr_Repair_42_r2_0001_out
     RDKit          3D

 82 86  0  0  0  0  0  0  0  0999 V2000
   -0.3700   10.5200   -4.0490 C   0  0  0  0  0  0  0  0  0  0  0  0
    0.8410   10.3370   -3.1300 C   0  0  2  0  0  0  0  0  0  0  0  0
    0.7910    9.0010   -2.3620 C   0  0  0  0  0  0  0  0  0  0  0  0
   -0.6070    8.6350   -1.8540 C   0  0  0  0  0  0  0  0  0  0  0  0
   -0.8040    9.0520   -0.4270 C   0  0  2  0  0  0  0  0  0  0  0  0
   -2.1730    9.1040   -0.0030 O   0  0  0  0  0  0  0  0  0  0  0  0
   -1.4660   10.3550   -0.0210 C   0  0  0  0  0  0  0  0  0  0  0  0
   -1.9720   11.3260   -1.0420 C   0  0  0  0  0  0  0  0  0  0  0  0
   -1.1830   10.9070    1.3420 C   0  0  0  0  0  0  0  0  0  0  0  0
    0.9280   11.4990   -2.1470 C   0  0  1  0  0  0  0  0  0  0  0  0
    1.9750   11.2590   -1.0280 C   0  0  0  0  0  0  0  0  0  0  0  0
    2.6050   12.6370   -0.7000 C   0  0  0  0  0  0  0  0  0  0  0  0
    1.6790   13.6630   -1.3940 C   0  0  1  0  0  0  0  0  0  0  0  0
    0.4740   13.8410   -0.4170 C   0  0  0  0  0  0  0  0  0  0  0  0
    2.3260   15.0370   -1.7670 C   0  0  2  0  0  0  0  0  0  0  0  0
    2.8320   15.8650   -0.5730 C   0  0  0  0  0  0  0  0  0  0  0  0
    1.8380   16.8120    0.0130 C   0  0  0  0  0  0  0  0  0  0  0  0
    0.6880   17.1990   -0.5700 C   0  0  0  0  0  0  0  0  0  0  0  0
    0.3360   16.7480   -1.9930 C   0  0  1  0  0  0  0  0  0  0  0  0
   -0.1610   17.9670   -2.8140 C   0  0  0  0  0  0  0  0  0  0  0  0
   -1.3120   18.7010   -2.1330 C   0  0  0  0  0  0  0  0  0  0  0  0
   -0.9050   19.1840   -0.7440 C   0  0  2  0  0  0  0  0  0  0  0  0
    0.1000   20.1930   -0.8830 O   0  0  0  0  0  0  0  0  0  0  0  0
   -0.3780   18.0440    0.1710 C   0  0  0  0  0  0  0  0  0  0  0  0
   -1.5490   17.1100    0.5670 C   0  0  0  0  0  0  0  0  0  0  0  0
    0.1300   18.6860    1.4900 C   0  0  0  0  0  0  0  0  0  0  0  0
    1.4560   15.9160   -2.7540 C   0  0  1  0  0  0  0  0  0  0  0  0
    2.4430   16.8860   -3.4730 C   0  0  0  0  0  0  0  0  0  0  0  0
    0.7790   15.0540   -3.8840 C   0  0  0  0  0  0  0  0  0  0  0  0
    0.2660   13.6590   -3.4800 C   0  0  0  0  0  0  0  0  0  0  0  0
    1.3410   12.8810   -2.7140 C   0  0  2  0  0  0  0  0  0  0  0  0
    2.5560   12.6680   -3.6800 C   0  0  0  0  0  0  0  0  0  0  0  0
   -1.2754   10.6568   -3.4395 H   0  0  0  0  0  0  0  0  0  0  0  0
   -0.2181   11.4054   -4.6838 H   0  0  0  0  0  0  0  0  0  0  0  0
   -0.4865    9.6293   -4.6838 H   0  0  0  0  0  0  0  0  0  0  0  0
    1.7385   10.3192   -3.7657 H   0  0  0  0  0  0  0  0  0  0  0  0
    1.1370    8.2013   -3.0334 H   0  0  0  0  0  0  0  0  0  0  0  0
    1.4351    9.1142   -1.4775 H   0  0  0  0  0  0  0  0  0  0  0  0
   -1.3575    9.1398   -2.4800 H   0  0  0  0  0  0  0  0  0  0  0  0
   -0.7179    7.5421   -1.9109 H   0  0  0  0  0  0  0  0  0  0  0  0
    0.1480    8.5855   -0.1336 H   0  0  0  0  0  0  0  0  0  0  0  0
   -2.4228   12.1910   -0.5336 H   0  0  0  0  0  0  0  0  0  0  0  0
   -1.1360   11.6653   -1.6713 H   0  0  0  0  0  0  0  0  0  0  0  0
   -2.7290   10.8351   -1.6713 H   0  0  0  0  0  0  0  0  0  0  0  0
   -1.5443   10.2022    2.1053 H   0  0  0  0  0  0  0  0  0  0  0  0
   -0.0992   11.0524    1.4609 H   0  0  0  0  0  0  0  0  0  0  0  0
   -1.6976   11.8719    1.4609 H   0  0  0  0  0  0  0  0  0  0  0  0
   -0.1171   11.5288   -1.8052 H   0  0  0  0  0  0  0  0  0  0  0  0
    1.4857   10.8441   -0.1344 H   0  0  0  0  0  0  0  0  0  0  0  0
    2.7428   10.5417   -1.3536 H   0  0  0  0  0  0  0  0  0  0  0  0
    2.6263   12.8057    0.3868 H   0  0  0  0  0  0  0  0  0  0  0  0
    3.6463   12.7132   -1.0461 H   0  0  0  0  0  0  0  0  0  0  0  0
    0.8330   13.7880    0.6214 H   0  0  0  0  0  0  0  0  0  0  0  0
    0.0013   14.8187   -0.5921 H   0  0  0  0  0  0  0  0  0  0  0  0
   -0.2612   13.0417   -0.5921 H   0  0  0  0  0  0  0  0  0  0  0  0
    3.2260   14.7320   -2.3211 H   0  0  0  0  0  0  0  0  0  0  0  0
    3.1430   15.1664    0.2177 H   0  0  0  0  0  0  0  0  0  0  0  0
    3.6531   16.4864   -0.9597 H   0  0  0  0  0  0  0  0  0  0  0  0
    2.0644   17.2290    1.0054 H   0  0  0  0  0  0  0  0  0  0  0  0
   -0.4753   16.0128   -1.8870 H   0  0  0  0  0  0  0  0  0  0  0  0
    0.6760   18.6685   -2.9454 H   0  0  0  0  0  0  0  0  0  0  0  0
   -0.5296   17.5911   -3.7798 H   0  0  0  0  0  0  0  0  0  0  0  0
   -1.5988   19.5682   -2.7460 H   0  0  0  0  0  0  0  0  0  0  0  0
   -2.1587   18.0065   -2.0291 H   0  0  0  0  0  0  0  0  0  0  0  0
   -1.8061   19.5853   -0.2572 H   0  0  0  0  0  0  0  0  0  0  0  0
    0.9500   19.7440   -1.0240 H   0  0  0  0  0  0  0  0  0  0  0  0
   -1.6189   17.0542    1.6634 H   0  0  0  0  0  0  0  0  0  0  0  0
   -2.4898   17.5085    0.1594 H   0  0  0  0  0  0  0  0  0  0  0  0
   -1.3697   16.1042    0.1594 H   0  0  0  0  0  0  0  0  0  0  0  0
   -0.2968   18.1466    2.3484 H   0  0  0  0  0  0  0  0  0  0  0  0
    1.2277   18.6258    1.5281 H   0  0  0  0  0  0  0  0  0  0  0  0
   -0.1809   19.7404    1.5281 H   0  0  0  0  0  0  0  0  0  0  0  0
    3.0161   17.4492   -2.7218 H   0  0  0  0  0  0  0  0  0  0  0  0
    3.1341   16.3059   -4.1022 H   0  0  0  0  0  0  0  0  0  0  0  0
    1.8750   17.5871   -4.1022 H   0  0  0  0  0  0  0  0  0  0  0  0
   -0.0784   15.6251   -4.2695 H   0  0  0  0  0  0  0  0  0  0  0  0
    1.5756   14.8660   -4.6189 H   0  0  0  0  0  0  0  0  0  0  0  0
   -0.6209   13.7732   -2.8394 H   0  0  0  0  0  0  0  0  0  0  0  0
    0.0118   13.1004   -4.3929 H   0  0  0  0  0  0  0  0  0  0  0  0
    3.4702   12.5077   -3.0896 H   0  0  0  0  0  0  0  0  0  0  0  0
    2.3703   11.7887   -4.3143 H   0  0  0  0  0  0  0  0  0  0  0  0
    2.6805   13.5580   -4.3143 H   0  0  0  0  0  0  0  0  0  0  0  0
  1  2  1  0
  2  3  1  0
  3  4  1  0
  4  5  1  0
  5  6  1  0
  6  7  1  0
  7  8  1  0
  7  9  1  0
  2 10  1  0
 10 11  1  0
 11 12  1  0
 12 13  1  0
 13 14  1  1
 13 15  1  0
 15 16  1  0
 16 17  1  0
 17 18  2  0
 18 19  1  0
 19 20  1  0
 20 21  1  0
 21 22  1  0
 22 23  1  0
 22 24  1  0
 24 25  1  0
 24 26  1  0
 19 27  1  0
 27 28  1  6
 27 29  1  0
 29 30  1  0
 30 31  1  0
 31 32  1  6
  7  5  1  0
 31 10  1  0
 31 13  1  0
 27 15  1  0
 24 18  1  0
  1 33  1  0
  1 34  1  0
  1 35  1  0
  2 36  1  6
  3 37  1  0
  3 38  1  0
  4 39  1  0
  4 40  1  0
  5 41  1  1
  8 42  1  0
  8 43  1  0
  8 44  1  0
  9 45  1  0
  9 46  1  0
  9 47  1  0
 10 48  1  1
 11 49  1  0
 11 50  1  0
 12 51  1  0
 12 52  1  0
 14 53  1  0
 14 54  1  0
 14 55  1  0
 15 56  1  6
 16 57  1  0
 16 58  1  0
 17 59  1  0
 19 60  1  1
 20 61  1  0
 20 62  1  0
 21 63  1  0
 21 64  1  0
 22 65  1  1
 23 66  1  0
 25 67  1  0
 25 68  1  0
 25 69  1  0
 26 70  1  0
 26 71  1  0
 26 72  1  0
 28 73  1  0
 28 74  1  0
 28 75  1  0
 29 76  1  0
 29 77  1  0
 30 78  1  0
 30 79  1  0
 32 80  1  0
 32 81  1  0
 32 82  1  0
M  END
>  <meeko>  (8) 
{"is_sidechain": [false], "intermolecular_energy": 2.731, "internal_energy": -0.839}

$$$$
EPH_relaxed_0001_pdb2pqr_Repair_42_r2_0001_out
     RDKit          3D

 82 86  0  0  0  0  0  0  0  0999 V2000
    0.2120   17.7570   -2.6040 C   0  0  0  0  0  0  0  0  0  0  0  0
   -0.0680   16.8880   -1.3750 C   0  0  2  0  0  0  0  0  0  0  0  0
   -0.1010   17.7150   -0.0740 C   0  0  0  0  0  0  0  0  0  0  0  0
    0.5300   19.1030   -0.2110 C   0  0  0  0  0  0  0  0  0  0  0  0
    1.6620   19.2950    0.7520 C   0  0  2  0  0  0  0  0  0  0  0  0
    2.6840   20.1940    0.3030 O   0  0  0  0  0  0  0  0  0  0  0  0
    3.0790   18.8250    0.4820 C   0  0  0  0  0  0  0  0  0  0  0  0
    3.4390   18.1240   -0.7910 C   0  0  0  0  0  0  0  0  0  0  0  0
    3.9950   18.6090    1.6460 C   0  0  0  0  0  0  0  0  0  0  0  0
    0.9820   15.7880   -1.2660 C   0  0  1  0  0  0  0  0  0  0  0  0
    1.0840   15.1990    0.1660 C   0  0  0  0  0  0  0  0  0  0  0  0
    1.4050   13.6900    0.0070 C   0  0  0  0  0  0  0  0  0  0  0  0
    1.8030   13.5310   -1.4790 C   0  0  1  0  0  0  0  0  0  0  0  0
    3.2950   13.9840   -1.5450 C   0  0  0  0  0  0  0  0  0  0  0  0
    1.6030   12.1090   -2.0990 C   0  0  2  0  0  0  0  0  0  0  0  0
    2.4430   10.9930   -1.4550 C   0  0  0  0  0  0  0  0  0  0  0  0
    3.7830   10.7660   -2.0710 C   0  0  0  0  0  0  0  0  0  0  0  0
    4.1810   11.2300   -3.2700 C   0  0  0  0  0  0  0  0  0  0  0  0
    3.2090   11.9870   -4.1840 C   0  0  1  0  0  0  0  0  0  0  0  0
    3.3210   11.4350   -5.6300 C   0  0  0  0  0  0  0  0  0  0  0  0
    4.7530   11.4580   -6.1550 C   0  0  0  0  0  0  0  0  0  0  0  0
    5.6780   10.6460   -5.2520 C   0  0  2  0  0  0  0  0  0  0  0  0
    5.3120    9.2660   -5.3380 O   0  0  0  0  0  0  0  0  0  0  0  0
    5.6430   11.1050   -3.7680 C   0  0  0  0  0  0  0  0  0  0  0  0
    6.3210   12.4910   -3.6350 C   0  0  0  0  0  0  0  0  0  0  0  0
    6.5090   10.1170   -2.9410 C   0  0  0  0  0  0  0  0  0  0  0  0
    1.7050   12.0710   -3.6780 C   0  0  1  0  0  0  0  0  0  0  0  0
    0.9150   10.8100   -4.1440 C   0  0  0  0  0  0  0  0  0  0  0  0
    1.0040   13.3090   -4.3530 C   0  0  0  0  0  0  0  0  0  0  0  0
    1.1370   14.6620   -3.6290 C   0  0  0  0  0  0  0  0  0  0  0  0
    0.7850   14.5270   -2.1450 C   0  0  2  0  0  0  0  0  0  0  0  0
   -0.7170   14.0940   -2.0460 C   0  0  0  0  0  0  0  0  0  0  0  0
    0.5344   18.7575   -2.2799 H   0  0  0  0  0  0  0  0  0  0  0  0
    1.0063   17.2935   -3.2076 H   0  0  0  0  0  0  0  0  0  0  0  0
   -0.7035   17.8444   -3.2076 H   0  0  0  0  0  0  0  0  0  0  0  0
   -1.0640   16.4400   -1.5068 H   0  0  0  0  0  0  0  0  0  0  0  0
   -1.1502   17.8392    0.2320 H   0  0  0  0  0  0  0  0  0  0  0  0
    0.4914   17.1647    0.6718 H   0  0  0  0  0  0  0  0  0  0  0  0
    0.9102   19.2221   -1.2363 H   0  0  0  0  0  0  0  0  0  0  0  0
   -0.2418   19.8541    0.0131 H   0  0  0  0  0  0  0  0  0  0  0  0
    0.9878   19.1519    1.6093 H   0  0  0  0  0  0  0  0  0  0  0  0
    3.9300   17.1679   -0.5569 H   0  0  0  0  0  0  0  0  0  0  0  0
    2.5268   17.9342   -1.3757 H   0  0  0  0  0  0  0  0  0  0  0  0
    4.1247   18.7548   -1.3757 H   0  0  0  0  0  0  0  0  0  0  0  0
    3.4344   18.7412    2.5832 H   0  0  0  0  0  0  0  0  0  0  0  0
    4.4057   17.5894    1.6051 H   0  0  0  0  0  0  0  0  0  0  0  0
    4.8180   19.3377    1.6051 H   0  0  0  0  0  0  0  0  0  0  0  0
    1.8687   16.3457   -1.6019 H   0  0  0  0  0  0  0  0  0  0  0  0
    1.8875   15.7003    0.7255 H   0  0  0  0  0  0  0  0  0  0  0  0
    0.1464   15.3470    0.7218 H   0  0  0  0  0  0  0  0  0  0  0  0
    2.2367   13.3983    0.6652 H   0  0  0  0  0  0  0  0  0  0  0  0
    0.5530   13.0508    0.2816 H   0  0  0  0  0  0  0  0  0  0  0  0
    3.6875   14.1032   -0.5243 H   0  0  0  0  0  0  0  0  0  0  0  0
    3.8855   13.2247   -2.0786 H   0  0  0  0  0  0  0  0  0  0  0  0
    3.3636   14.9435   -2.0786 H   0  0  0  0  0  0  0  0  0  0  0  0
    0.5579   11.8832   -1.8406 H   0  0  0  0  0  0  0  0  0  0  0  0
    2.5950   11.2502   -0.3964 H   0  0  0  0  0  0  0  0  0  0  0  0
    1.8776   10.0616   -1.6060 H   0  0  0  0  0  0  0  0  0  0  0  0
    4.5066   10.1690   -1.4966 H   0  0  0  0  0  0  0  0  0  0  0  0
    3.5272   13.0397   -4.1608 H   0  0  0  0  0  0  0  0  0  0  0  0
    2.9582   10.3966   -5.6402 H   0  0  0  0  0  0  0  0  0  0  0  0
    2.7156   12.0815   -6.2823 H   0  0  0  0  0  0  0  0  0  0  0  0
    4.7720   11.0299   -7.1681 H   0  0  0  0  0  0  0  0  0  0  0  0
    5.1043   12.5003   -6.1714 H   0  0  0  0  0  0  0  0  0  0  0  0
    6.7074   10.8061   -5.6052 H   0  0  0  0  0  0  0  0  0  0  0  0
    4.3410    9.2200   -5.3600 H   0  0  0  0  0  0  0  0  0  0  0  0
    6.4424   12.7391   -2.5703 H   0  0  0  0  0  0  0  0  0  0  0  0
    7.3079   12.4645   -4.1201 H   0  0  0  0  0  0  0  0  0  0  0  0
    5.6943   13.2538   -4.1201 H   0  0  0  0  0  0  0  0  0  0  0  0
    6.3494   10.2991   -1.8680 H   0  0  0  0  0  0  0  0  0  0  0  0
    6.2202    9.0839   -3.1845 H   0  0  0  0  0  0  0  0  0  0  0  0
    7.5710   10.2679   -3.1845 H   0  0  0  0  0  0  0  0  0  0  0  0
    0.5647   10.2508   -3.2639 H   0  0  0  0  0  0  0  0  0  0  0  0
    0.0504   11.1216   -4.7484 H   0  0  0  0  0  0  0  0  0  0  0  0
    1.5726   10.1680   -4.7484 H   0  0  0  0  0  0  0  0  0  0  0  0
    1.4326   13.4264   -5.3592 H   0  0  0  0  0  0  0  0  0  0  0  0
   -0.0710   13.0768   -4.3342 H   0  0  0  0  0  0  0  0  0  0  0  0
    2.1732   15.0194   -3.7219 H   0  0  0  0  0  0  0  0  0  0  0  0
    0.4400   15.3767   -4.0909 H   0  0  0  0  0  0  0  0  0  0  0  0
   -1.0056   14.0108   -0.9878 H   0  0  0  0  0  0  0  0  0  0  0  0
   -1.3489   14.8466   -2.5403 H   0  0  0  0  0  0  0  0  0  0  0  0
   -0.8513   13.1206   -2.5403 H   0  0  0  0  0  0  0  0  0  0  0  0
  1  2  1  0
  2  3  1  0
  3  4  1  0
  4  5  1  0
  5  6  1  0
  6  7  1  0
  7  8  1  0
  7  9  1  0
  2 10  1  0
 10 11  1  0
 11 12  1  0
 12 13  1  0
 13 14  1  1
 13 15  1  0
 15 16  1  0
 16 17  1  0
 17 18  2  0
 18 19  1  0
 19 20  1  0
 20 21  1  0
 21 22  1  0
 22 23  1  0
 22 24  1  0
 24 25  1  0
 24 26  1  0
 19 27  1  0
 27 28  1  6
 27 29  1  0
 29 30  1  0
 30 31  1  0
 31 32  1  6
  7  5  1  0
 31 10  1  0
 31 13  1  0
 27 15  1  0
 24 18  1  0
  1 33  1  0
  1 34  1  0
  1 35  1  0
  2 36  1  6
  3 37  1  0
  3 38  1  0
  4 39  1  0
  4 40  1  0
  5 41  1  1
  8 42  1  0
  8 43  1  0
  8 44  1  0
  9 45  1  0
  9 46  1  0
  9 47  1  0
 10 48  1  6
 11 49  1  0
 11 50  1  0
 12 51  1  0
 12 52  1  0
 14 53  1  0
 14 54  1  0
 14 55  1  0
 15 56  1  6
 16 57  1  0
 16 58  1  0
 17 59  1  0
 19 60  1  6
 20 61  1  0
 20 62  1  0
 21 63  1  0
 21 64  1  0
 22 65  1  6
 23 66  1  0
 25 67  1  0
 25 68  1  0
 25 69  1  0
 26 70  1  0
 26 71  1  0
 26 72  1  0
 28 73  1  0
 28 74  1  0
 28 75  1  0
 29 76  1  0
 29 77  1  0
 30 78  1  0
 30 79  1  0
 32 80  1  0
 32 81  1  0
 32 82  1  0
M  END
>  <meeko>  (9) 
{"is_sidechain": [false], "intermolecular_energy": 2.731, "internal_energy": -0.839}

$$$$
EPH_relaxed_0001_pdb2pqr_Repair_42_r2_0001_out
     RDKit          3D

 82 86  0  0  0  0  0  0  0  0999 V2000
    3.3850   18.4020   -2.5620 C   0  0  0  0  0  0  0  0  0  0  0  0
    2.1120   17.5780   -2.7720 C   0  0  2  0  0  0  0  0  0  0  0  0
    0.8450   18.3480   -2.3490 C   0  0  0  0  0  0  0  0  0  0  0  0
    0.9920   19.0920   -1.0190 C   0  0  0  0  0  0  0  0  0  0  0  0
   -0.2380   19.8810   -0.6850 C   0  0  2  0  0  0  0  0  0  0  0  0
   -0.3890   20.1940    0.7060 O   0  0  0  0  0  0  0  0  0  0  0  0
   -1.3870   19.3300    0.1390 C   0  0  0  0  0  0  0  0  0  0  0  0
   -1.3610   17.9340    0.6790 C   0  0  0  0  0  0  0  0  0  0  0  0
   -2.7340   19.9690    0.0060 C   0  0  0  0  0  0  0  0  0  0  0  0
    2.2070   16.2680   -1.9990 C   0  0  1  0  0  0  0  0  0  0  0  0
    2.5780   16.4800   -0.5070 C   0  0  0  0  0  0  0  0  0  0  0  0
    1.8250   15.3910    0.3000 C   0  0  0  0  0  0  0  0  0  0  0  0
    1.3180   14.3940   -0.7680 C   0  0  1  0  0  0  0  0  0  0  0  0
    2.5480   13.4870   -1.0860 C   0  0  0  0  0  0  0  0  0  0  0  0
    0.0610   13.5490   -0.3830 C   0  0  2  0  0  0  0  0  0  0  0  0
    0.2500   12.6090    0.8210 C   0  0  0  0  0  0  0  0  0  0  0  0
    0.7260   11.2340    0.4870 C   0  0  0  0  0  0  0  0  0  0  0  0
    0.7190   10.6800   -0.7390 C   0  0  0  0  0  0  0  0  0  0  0  0
    0.1050   11.4200   -1.9350 C   0  0  1  0  0  0  0  0  0  0  0  0
   -0.8060   10.4500   -2.7320 C   0  0  0  0  0  0  0  0  0  0  0  0
   -0.0810    9.1740   -3.1470 C   0  0  0  0  0  0  0  0  0  0  0  0
    0.4650    8.4360   -1.9270 C   0  0  2  0  0  0  0  0  0  0  0  0
   -0.6360    7.9580   -1.1470 O   0  0  0  0  0  0  0  0  0  0  0  0
    1.3890    9.3170   -1.0400 C   0  0  0  0  0  0  0  0  0  0  0  0
    2.7220    9.5840   -1.7830 C   0  0  0  0  0  0  0  0  0  0  0  0
    1.7560    8.4990    0.2270 C   0  0  0  0  0  0  0  0  0  0  0  0
   -0.6140   12.7980   -1.6020 C   0  0  1  0  0  0  0  0  0  0  0  0
   -2.0980   12.5400   -1.2000 C   0  0  0  0  0  0  0  0  0  0  0  0
   -0.6530   13.6840   -2.9030 C   0  0  0  0  0  0  0  0  0  0  0  0
    0.5670   14.5870   -3.1660 C   0  0  0  0  0  0  0  0  0  0  0  0
    0.9290   15.3960   -1.9160 C   0  0  2  0  0  0  0  0  0  0  0  0
   -0.2810   16.3350   -1.5860 C   0  0  0  0  0  0  0  0  0  0  0  0
    3.5705   18.5221   -1.4844 H   0  0  0  0  0  0  0  0  0  0  0  0
    4.2377   17.8840   -3.0253 H   0  0  0  0  0  0  0  0  0  0  0  0
    3.2616   19.3920   -3.0253 H   0  0  0  0  0  0  0  0  0  0  0  0
    2.0275   17.3693   -3.8487 H   0  0  0  0  0  0  0  0  0  0  0  0
    0.6068   19.0819   -3.1330 H   0  0  0  0  0  0  0  0  0  0  0  0
    0.0465   17.6035   -2.2142 H   0  0  0  0  0  0  0  0  0  0  0  0
    1.1734   18.3592   -0.2190 H   0  0  0  0  0  0  0  0  0  0  0  0
    1.8345   19.7934   -1.1103 H   0  0  0  0  0  0  0  0  0  0  0  0
   -0.2063   20.3884   -1.6605 H   0  0  0  0  0  0  0  0  0  0  0  0
   -1.3616   17.9661    1.7785 H   0  0  0  0  0  0  0  0  0  0  0  0
   -2.2491   17.3883    0.3276 H   0  0  0  0  0  0  0  0  0  0  0  0
   -0.4532   17.4218    0.3276 H   0  0  0  0  0  0  0  0  0  0  0  0
   -3.1472   20.1650    1.0064 H   0  0  0  0  0  0  0  0  0  0  0  0
   -2.6374   20.9173   -0.5431 H   0  0  0  0  0  0  0  0  0  0  0  0
   -3.4073   19.2943   -0.5431 H   0  0  0  0  0  0  0  0  0  0  0  0
    2.9733   15.7556   -2.5993 H   0  0  0  0  0  0  0  0  0  0  0  0
    3.6638   16.3720   -0.3676 H   0  0  0  0  0  0  0  0  0  0  0  0
    2.2958   17.4881   -0.1691 H   0  0  0  0  0  0  0  0  0  0  0  0
    2.5047   14.8914    1.0059 H   0  0  0  0  0  0  0  0  0  0  0  0
    1.0051   15.8102    0.9017 H   0  0  0  0  0  0  0  0  0  0  0  0
    3.0070   13.1486   -0.1454 H   0  0  0  0  0  0  0  0  0  0  0  0
    2.2189   12.6138   -1.6684 H   0  0  0  0  0  0  0  0  0  0  0  0
    3.2849   14.0595   -1.6684 H   0  0  0  0  0  0  0  0  0  0  0  0
   -0.6489   14.3209   -0.0510 H   0  0  0  0  0  0  0  0  0  0  0  0
    0.9849   13.0680    1.4987 H   0  0  0  0  0  0  0  0  0  0  0  0
   -0.7463   12.4857    1.2706 H   0  0  0  0  0  0  0  0  0  0  0  0
    1.1156   10.6217    1.3136 H   0  0  0  0  0  0  0  0  0  0  0  0
    0.9503   11.7381   -2.5629 H   0  0  0  0  0  0  0  0  0  0  0  0
   -1.6666   10.1779   -2.1032 H   0  0  0  0  0  0  0  0  0  0  0  0
   -1.1223   10.9675   -3.6497 H   0  0  0  0  0  0  0  0  0  0  0  0
   -0.7843    8.5174   -3.6801 H   0  0  0  0  0  0  0  0  0  0  0  0
    0.7618    9.4452   -3.7998 H   0  0  0  0  0  0  0  0  0  0  0  0
    1.0835    7.6040   -2.2946 H   0  0  0  0  0  0  0  0  0  0  0  0
   -1.4090    8.5060   -1.3620 H   0  0  0  0  0  0  0  0  0  0  0  0
    3.5252    9.7449   -1.0488 H   0  0  0  0  0  0  0  0  0  0  0  0
    2.9700    8.7177   -2.4139 H   0  0  0  0  0  0  0  0  0  0  0  0
    2.6172   10.4790   -2.4139 H   0  0  0  0  0  0  0  0  0  0  0  0
    1.4962    9.0782    1.1254 H   0  0  0  0  0  0  0  0  0  0  0  0
    1.1965    7.5519    0.2268 H   0  0  0  0  0  0  0  0  0  0  0  0
    2.8354    8.2872    0.2268 H   0  0  0  0  0  0  0  0  0  0  0  0
   -2.1836   12.5251   -0.1034 H   0  0  0  0  0  0  0  0  0  0  0  0
   -2.7326   13.3413   -1.6065 H   0  0  0  0  0  0  0  0  0  0  0  0
   -2.4249   11.5715   -1.6065 H   0  0  0  0  0  0  0  0  0  0  0  0
   -0.7574   13.0069   -3.7636 H   0  0  0  0  0  0  0  0  0  0  0  0
   -1.4958   14.3752   -2.7550 H   0  0  0  0  0  0  0  0  0  0  0  0
    1.4248   13.9596   -3.4497 H   0  0  0  0  0  0  0  0  0  0  0  0
    0.3175   15.2869   -3.9771 H   0  0  0  0  0  0  0  0  0  0  0  0
   -0.3916   16.4208   -0.4949 H   0  0  0  0  0  0  0  0  0  0  0  0
   -0.0998   17.3313   -2.0157 H   0  0  0  0  0  0  0  0  0  0  0  0
   -1.2011   15.9122   -2.0157 H   0  0  0  0  0  0  0  0  0  0  0  0
  1  2  1  0
  2  3  1  0
  3  4  1  0
  4  5  1  0
  5  6  1  0
  6  7  1  0
  7  8  1  0
  7  9  1  0
  2 10  1  0
 10 11  1  0
 11 12  1  0
 12 13  1  0
 13 14  1  6
 13 15  1  0
 15 16  1  0
 16 17  1  0
 17 18  2  0
 18 19  1  0
 19 20  1  0
 20 21  1  0
 21 22  1  0
 22 23  1  0
 22 24  1  0
 24 25  1  0
 24 26  1  0
 19 27  1  0
 27 28  1  1
 27 29  1  0
 29 30  1  0
 30 31  1  0
 31 32  1  1
  7  5  1  0
 31 10  1  0
 31 13  1  0
 27 15  1  0
 24 18  1  0
  1 33  1  0
  1 34  1  0
  1 35  1  0
  2 36  1  6
  3 37  1  0
  3 38  1  0
  4 39  1  0
  4 40  1  0
  5 41  1  6
  8 42  1  0
  8 43  1  0
  8 44  1  0
  9 45  1  0
  9 46  1  0
  9 47  1  0
 10 48  1  6
 11 49  1  0
 11 50  1  0
 12 51  1  0
 12 52  1  0
 14 53  1  0
 14 54  1  0
 14 55  1  0
 15 56  1  1
 16 57  1  0
 16 58  1  0
 17 59  1  0
 19 60  1  6
 20 61  1  0
 20 62  1  0
 21 63  1  0
 21 64  1  0
 22 65  1  6
 23 66  1  0
 25 67  1  0
 25 68  1  0
 25 69  1  0
 26 70  1  0
 26 71  1  0
 26 72  1  0
 28 73  1  0
 28 74  1  0
 28 75  1  0
 29 76  1  0
 29 77  1  0
 30 78  1  0
 30 79  1  0
 32 80  1  0
 32 81  1  0
 32 82  1  0
M  END
>  <meeko>  (10) 
{"is_sidechain": [false], "intermolecular_energy": 2.731, "internal_energy": -0.839}

$$$$
EPH_relaxed_0001_pdb2pqr_Repair_42_r2_0001_out
     RDKit          3D

 82 86  0  0  0  0  0  0  0  0999 V2000
   -0.9050   16.3910   -5.8580 C   0  0  0  0  0  0  0  0  0  0  0  0
    0.1820   15.6900   -6.6780 C   0  0  2  0  0  0  0  0  0  0  0  0
   -0.2330   15.5000   -8.1500 C   0  0  0  0  0  0  0  0  0  0  0  0
    0.4200   16.5010   -9.1080 C   0  0  0  0  0  0  0  0  0  0  0  0
    1.8290   16.1130   -9.4400 C   0  0  2  0  0  0  0  0  0  0  0  0
    2.3370   16.6840  -10.6520 O   0  0  0  0  0  0  0  0  0  0  0  0
    2.2010   15.2530  -10.6330 C   0  0  0  0  0  0  0  0  0  0  0  0
    1.1600   14.7290  -11.5720 C   0  0  0  0  0  0  0  0  0  0  0  0
    3.5080   14.5240  -10.6100 C   0  0  0  0  0  0  0  0  0  0  0  0
    0.5160   14.3410   -6.0520 C   0  0  1  0  0  0  0  0  0  0  0  0
    1.7530   13.6690   -6.7050 C   0  0  0  0  0  0  0  0  0  0  0  0
    2.4980   12.9100   -5.5760 C   0  0  0  0  0  0  0  0  0  0  0  0
    1.5000   12.8910   -4.3950 C   0  0  1  0  0  0  0  0  0  0  0  0
    0.5240   11.7160   -4.7130 C   0  0  0  0  0  0  0  0  0  0  0  0
    2.1220   12.7550   -2.9670 C   0  0  2  0  0  0  0  0  0  0  0  0
    2.8930   11.4470   -2.7140 C   0  0  0  0  0  0  0  0  0  0  0  0
    2.0800   10.3240   -2.1610 C   0  0  0  0  0  0  0  0  0  0  0  0
    0.8560   10.4410   -1.6130 C   0  0  0  0  0  0  0  0  0  0  0  0
    0.2070   11.8170   -1.4190 C   0  0  1  0  0  0  0  0  0  0  0  0
   -0.3880   11.9130    0.0110 C   0  0  0  0  0  0  0  0  0  0  0  0
   -1.3450   10.7670    0.3240 C   0  0  0  0  0  0  0  0  0  0  0  0
   -0.6480    9.4180    0.1760 C   0  0  2  0  0  0  0  0  0  0  0  0
    0.3540    9.3030    1.1920 O   0  0  0  0  0  0  0  0  0  0  0  0
   -0.0010    9.2110   -1.2220 C   0  0  0  0  0  0  0  0  0  0  0  0
   -1.1110    9.0340   -2.2870 C   0  0  0  0  0  0  0  0  0  0  0  0
    0.7880    7.8750   -1.1900 C   0  0  0  0  0  0  0  0  0  0  0  0
    1.1140   13.0690   -1.7880 C   0  0  1  0  0  0  0  0  0  0  0  0
    1.9810   13.4780   -0.5580 C   0  0  0  0  0  0  0  0  0  0  0  0
    0.1860   14.3000   -2.1060 C   0  0  0  0  0  0  0  0  0  0  0  0
   -0.2990   14.4470   -3.5610 C   0  0  0  0  0  0  0  0  0  0  0  0
    0.8700   14.3240   -4.5440 C   0  0  2  0  0  0  0  0  0  0  0  0
    1.8580   15.5070   -4.2620 C   0  0  0  0  0  0  0  0  0  0  0  0
   -0.6986   16.2579   -4.7858 H   0  0  0  0  0  0  0  0  0  0  0  0
   -0.9118   17.4641   -6.0996 H   0  0  0  0  0  0  0  0  0  0  0  0
   -1.8854   15.9545   -6.0996 H   0  0  0  0  0  0  0  0  0  0  0  0
    1.0727   16.3354   -6.6675 H   0  0  0  0  0  0  0  0  0  0  0  0
    0.0510   14.4843   -8.4625 H   0  0  0  0  0  0  0  0  0  0  0  0
   -1.3190   15.6669   -8.2019 H   0  0  0  0  0  0  0  0  0  0  0  0
   -0.1673   16.5401  -10.0373 H   0  0  0  0  0  0  0  0  0  0  0  0
    0.4425   17.4836   -8.6140 H   0  0  0  0  0  0  0  0  0  0  0  0
    2.0865   16.0445   -8.3728 H   0  0  0  0  0  0  0  0  0  0  0  0
    0.3238   14.3081  -10.9945 H   0  0  0  0  0  0  0  0  0  0  0  0
    0.7917   15.5491  -12.2058 H   0  0  0  0  0  0  0  0  0  0  0  0
    1.5994   13.9447  -12.2058 H   0  0  0  0  0  0  0  0  0  0  0  0
    3.8143   14.3532   -9.5674 H   0  0  0  0  0  0  0  0  0  0  0  0
    3.3976   13.5571  -11.1228 H   0  0  0  0  0  0  0  0  0  0  0  0
    4.2726   15.1259  -11.1228 H   0  0  0  0  0  0  0  0  0  0  0  0
   -0.4378   13.8194   -6.2199 H   0  0  0  0  0  0  0  0  0  0  0  0
    1.4328   12.9651   -7.4873 H   0  0  0  0  0  0  0  0  0  0  0  0
    2.4069   14.4179   -7.1756 H   0  0  0  0  0  0  0  0  0  0  0  0
    2.7439   11.8858   -5.8932 H   0  0  0  0  0  0  0  0  0  0  0  0
    3.4512   13.3897   -5.3092 H   0  0  0  0  0  0  0  0  0  0  0  0
    0.1596   11.2773   -3.7724 H   0  0  0  0  0  0  0  0  0  0  0  0
   -0.3287   12.0950   -5.2954 H   0  0  0  0  0  0  0  0  0  0  0  0
    1.0531   10.9473   -5.2954 H   0  0  0  0  0  0  0  0  0  0  0  0
    2.8779   13.5541   -2.9613 H   0  0  0  0  0  0  0  0  0  0  0  0
    3.3236   11.1159   -3.6705 H   0  0  0  0  0  0  0  0  0  0  0  0
    3.6475   11.6818   -1.9488 H   0  0  0  0  0  0  0  0  0  0  0  0
    2.5179    9.3159   -2.2050 H   0  0  0  0  0  0  0  0  0  0  0  0
   -0.6003   11.8800   -2.1635 H   0  0  0  0  0  0  0  0  0  0  0  0
    0.4369   11.8923    0.7384 H   0  0  0  0  0  0  0  0  0  0  0  0
   -0.9587   12.8513    0.0731 H   0  0  0  0  0  0  0  0  0  0  0  0
   -1.7080   10.8732    1.3570 H   0  0  0  0  0  0  0  0  0  0  0  0
   -2.1849   10.8076   -0.3852 H   0  0  0  0  0  0  0  0  0  0  0  0
   -1.4154    8.6373    0.2839 H   0  0  0  0  0  0  0  0  0  0  0  0
   -0.0630    8.9030    1.9730 H   0  0  0  0  0  0  0  0  0  0  0  0
   -2.0782    8.8798   -1.7864 H   0  0  0  0  0  0  0  0  0  0  0  0
   -1.1631    9.9352   -2.9156 H   0  0  0  0  0  0  0  0  0  0  0  0
   -0.8802    8.1613   -2.9156 H   0  0  0  0  0  0  0  0  0  0  0  0
    0.9635    7.5778   -0.1456 H   0  0  0  0  0  0  0  0  0  0  0  0
    0.2065    7.0934   -1.7009 H   0  0  0  0  0  0  0  0  0  0  0  0
    1.7532    8.0069   -1.7009 H   0  0  0  0  0  0  0  0  0  0  0  0
    1.4450   13.2252    0.3687 H   0  0  0  0  0  0  0  0  0  0  0  0
    2.9380   12.9364   -0.5876 H   0  0  0  0  0  0  0  0  0  0  0  0
    2.1716   14.5610   -0.5876 H   0  0  0  0  0  0  0  0  0  0  0  0
   -0.7043   14.2199   -1.4650 H   0  0  0  0  0  0  0  0  0  0  0  0
    0.8100   15.1865   -1.9197 H   0  0  0  0  0  0  0  0  0  0  0  0
   -1.0348   13.6582   -3.7764 H   0  0  0  0  0  0  0  0  0  0  0  0
   -0.7543   15.4413   -3.6801 H   0  0  0  0  0  0  0  0  0  0  0  0
    1.9696   15.6406   -3.1759 H   0  0  0  0  0  0  0  0  0  0  0  0
    2.8384   15.2797   -4.7061 H   0  0  0  0  0  0  0  0  0  0  0  0
    1.4597   16.4312   -4.7061 H   0  0  0  0  0  0  0  0  0  0  0  0
  1  2  1  0
  2  3  1  0
  3  4  1  0
  4  5  1  0
  5  6  1  0
  6  7  1  0
  7  8  1  0
  7  9  1  0
  2 10  1  0
 10 11  1  0
 11 12  1  0
 12 13  1  0
 13 14  1  6
 13 15  1  0
 15 16  1  0
 16 17  1  0
 17 18  2  0
 18 19  1  0
 19 20  1  0
 20 21  1  0
 21 22  1  0
 22 23  1  0
 22 24  1  0
 24 25  1  0
 24 26  1  0
 19 27  1  0
 27 28  1  1
 27 29  1  0
 29 30  1  0
 30 31  1  0
 31 32  1  6
  7  5  1  0
 31 10  1  0
 31 13  1  0
 27 15  1  0
 24 18  1  0
  1 33  1  0
  1 34  1  0
  1 35  1  0
  2 36  1  6
  3 37  1  0
  3 38  1  0
  4 39  1  0
  4 40  1  0
  5 41  1  1
  8 42  1  0
  8 43  1  0
  8 44  1  0
  9 45  1  0
  9 46  1  0
  9 47  1  0
 10 48  1  1
 11 49  1  0
 11 50  1  0
 12 51  1  0
 12 52  1  0
 14 53  1  0
 14 54  1  0
 14 55  1  0
 15 56  1  6
 16 57  1  0
 16 58  1  0
 17 59  1  0
 19 60  1  6
 20 61  1  0
 20 62  1  0
 21 63  1  0
 21 64  1  0
 22 65  1  1
 23 66  1  0
 25 67  1  0
 25 68  1  0
 25 69  1  0
 26 70  1  0
 26 71  1  0
 26 72  1  0
 28 73  1  0
 28 74  1  0
 28 75  1  0
 29 76  1  0
 29 77  1  0
 30 78  1  0
 30 79  1  0
 32 80  1  0
 32 81  1  0
 32 82  1  0
M  END
>  <meeko>  (11) 
{"is_sidechain": [false], "intermolecular_energy": 2.731, "internal_energy": -0.839}

$$$$
EPH_relaxed_0001_pdb2pqr_Repair_42_r2_0001_out
     RDKit          3D

 82 86  0  0  0  0  0  0  0  0999 V2000
   -4.1050    7.3760   -3.5510 C   0  0  0  0  0  0  0  0  0  0  0  0
   -3.7350    7.2800   -2.0680 C   0  0  2  0  0  0  0  0  0  0  0  0
   -4.9290    6.8340   -1.2000 C   0  0  0  0  0  0  0  0  0  0  0  0
   -6.2910    7.0770   -1.8550 C   0  0  0  0  0  0  0  0  0  0  0  0
   -7.4190    6.8060   -0.9060 C   0  0  2  0  0  0  0  0  0  0  0  0
   -8.3530    5.8140   -1.3530 O   0  0  0  0  0  0  0  0  0  0  0  0
   -8.8670    7.1480   -1.2070 C   0  0  0  0  0  0  0  0  0  0  0  0
   -9.2640    7.7910   -2.4990 C   0  0  0  0  0  0  0  0  0  0  0  0
   -9.8180    7.3060   -0.0620 C   0  0  0  0  0  0  0  0  0  0  0  0
   -3.2070    8.6220   -1.5760 C   0  0  1  0  0  0  0  0  0  0  0  0
   -3.8540    9.0650   -0.2370 C   0  0  0  0  0  0  0  0  0  0  0  0
   -2.7580    9.8130    0.5640 C   0  0  0  0  0  0  0  0  0  0  0  0
   -1.6290   10.0660   -0.4620 C   0  0  1  0  0  0  0  0  0  0  0  0
   -2.0860   11.3290   -1.2580 C   0  0  0  0  0  0  0  0  0  0  0  0
   -0.1900   10.2420    0.1240 C   0  0  2  0  0  0  0  0  0  0  0  0
   -0.0090   11.4530    1.0560 C   0  0  0  0  0  0  0  0  0  0  0  0
    0.4140   12.7180    0.3840 C   0  0  0  0  0  0  0  0  0  0  0  0
    0.9130   12.8120   -0.8630 C   0  0  0  0  0  0  0  0  0  0  0  0
    1.1870   11.5550   -1.6980 C   0  0  1  0  0  0  0  0  0  0  0  0
    2.5910   11.6630   -2.3490 C   0  0  0  0  0  0  0  0  0  0  0  0
    2.7670   12.9480   -3.1530 C   0  0  0  0  0  0  0  0  0  0  0  0
    2.5420   14.1760   -2.2740 C   0  0  2  0  0  0  0  0  0  0  0  0
    3.5900   14.2440   -1.3010 O   0  0  0  0  0  0  0  0  0  0  0  0
    1.1630   14.1730   -1.5580 C   0  0  0  0  0  0  0  0  0  0  0  0
    0.0370   14.4030   -2.5960 C   0  0  0  0  0  0  0  0  0  0  0  0
    1.1220   15.3910   -0.5960 C   0  0  0  0  0  0  0  0  0  0  0  0
    0.9630   10.1670   -0.9570 C   0  0  1  0  0  0  0  0  0  0  0  0
    2.2600    9.7540   -0.1960 C   0  0  0  0  0  0  0  0  0  0  0  0
    0.7030    9.0470   -2.0320 C   0  0  0  0  0  0  0  0  0  0  0  0
   -0.7550    8.8400   -2.4820 C   0  0  0  0  0  0  0  0  0  0  0  0
   -1.6900    8.7220   -1.2740 C   0  0  2  0  0  0  0  0  0  0  0  0
   -1.2690    7.4470   -0.4660 C   0  0  0  0  0  0  0  0  0  0  0  0
   -5.1657    7.6512   -3.6472 H   0  0  0  0  0  0  0  0  0  0  0  0
   -3.4820    8.1422   -4.0355 H   0  0  0  0  0  0  0  0  0  0  0  0
   -3.9331    6.4035   -4.0355 H   0  0  0  0  0  0  0  0  0  0  0  0
   -2.9514    6.5141   -1.9713 H   0  0  0  0  0  0  0  0  0  0  0  0
   -4.8282    5.7575   -0.9976 H   0  0  0  0  0  0  0  0  0  0  0  0
   -4.9019    7.4383   -0.2813 H   0  0  0  0  0  0  0  0  0  0  0  0
   -6.3462    8.1251   -2.1843 H   0  0  0  0  0  0  0  0  0  0  0  0
   -6.3884    6.3899   -2.7084 H   0  0  0  0  0  0  0  0  0  0  0  0
   -6.7742    7.0221   -0.0414 H   0  0  0  0  0  0  0  0  0  0  0  0
   -9.8316    8.7102   -2.2919 H   0  0  0  0  0  0  0  0  0  0  0  0
   -8.3619    8.0395   -3.0773 H   0  0  0  0  0  0  0  0  0  0  0  0
   -9.8903    7.0958   -3.0773 H   0  0  0  0  0  0  0  0  0  0  0  0
   -9.2683    7.2147    0.8864 H   0  0  0  0  0  0  0  0  0  0  0  0
  -10.2951    8.2957   -0.1155 H   0  0  0  0  0  0  0  0  0  0  0  0
  -10.5895    6.5237   -0.1155 H   0  0  0  0  0  0  0  0  0  0  0  0
   -3.4611    9.2486   -2.4436 H   0  0  0  0  0  0  0  0  0  0  0  0
   -4.7049    9.7346   -0.4308 H   0  0  0  0  0  0  0  0  0  0  0  0
   -4.2312    8.1979    0.3250 H   0  0  0  0  0  0  0  0  0  0  0  0
   -3.1456   10.7643    0.9573 H   0  0  0  0  0  0  0  0  0  0  0  0
   -2.4099    9.2361    1.4335 H   0  0  0  0  0  0  0  0  0  0  0  0
   -2.3732   12.1228   -0.5528 H   0  0  0  0  0  0  0  0  0  0  0  0
   -1.2588   11.6826   -1.8910 H   0  0  0  0  0  0  0  0  0  0  0  0
   -2.9479   11.0714   -1.8910 H   0  0  0  0  0  0  0  0  0  0  0  0
   -0.0853    9.3539    0.7646 H   0  0  0  0  0  0  0  0  0  0  0  0
   -0.9686   11.6404    1.5600 H   0  0  0  0  0  0  0  0  0  0  0  0
    0.8062   11.1873    1.7451 H   0  0  0  0  0  0  0  0  0  0  0  0
    0.3090   13.6516    0.9561 H   0  0  0  0  0  0  0  0  0  0  0  0
    0.4130   11.5341   -2.4794 H   0  0  0  0  0  0  0  0  0  0  0  0
    3.3509   11.6377   -1.5541 H   0  0  0  0  0  0  0  0  0  0  0  0
    2.7025   10.8172   -3.0434 H   0  0  0  0  0  0  0  0  0  0  0  0
    3.7877   12.9800   -3.5620 H   0  0  0  0  0  0  0  0  0  0  0  0
    2.0266   12.9577   -3.9665 H   0  0  0  0  0  0  0  0  0  0  0  0
    2.5514   15.0584   -2.9308 H   0  0  0  0  0  0  0  0  0  0  0  0
    4.2800   14.8310   -1.6520 H   0  0  0  0  0  0  0  0  0  0  0  0
   -0.9107   14.5966   -2.0721 H   0  0  0  0  0  0  0  0  0  0  0  0
    0.2907   15.2679   -3.2266 H   0  0  0  0  0  0  0  0  0  0  0  0
   -0.0688   13.5079   -3.2266 H   0  0  0  0  0  0  0  0  0  0  0  0
    1.1339   15.0364    0.4452 H   0  0  0  0  0  0  0  0  0  0  0  0
    1.9991   16.0300   -0.7758 H   0  0  0  0  0  0  0  0  0  0  0  0
    0.2039   15.9695   -0.7758 H   0  0  0  0  0  0  0  0  0  0  0  0
    2.0827    9.8105    0.8882 H   0  0  0  0  0  0  0  0  0  0  0  0
    2.5336    8.7243   -0.4697 H   0  0  0  0  0  0  0  0  0  0  0  0
    3.0786   10.4359   -0.4697 H   0  0  0  0  0  0  0  0  0  0  0  0
    1.2939    9.2994   -2.9248 H   0  0  0  0  0  0  0  0  0  0  0  0
    0.9884    8.1052   -1.5405 H   0  0  0  0  0  0  0  0  0  0  0  0
   -1.0672    9.6974   -3.0963 H   0  0  0  0  0  0  0  0  0  0  0  0
   -0.8138    7.9081   -3.0635 H   0  0  0  0  0  0  0  0  0  0  0  0
   -1.3382    7.6564    0.6117 H   0  0  0  0  0  0  0  0  0  0  0  0
   -1.9395    6.6132   -0.7212 H   0  0  0  0  0  0  0  0  0  0  0  0
   -0.2338    7.1764   -0.7212 H   0  0  0  0  0  0  0  0  0  0  0  0
  1  2  1  0
  2  3  1  0
  3  4  1  0
  4  5  1  0
  5  6  1  0
  6  7  1  0
  7  8  1  0
  7  9  1  0
  2 10  1  0
 10 11  1  0
 11 12  1  0
 12 13  1  0
 13 14  1  6
 13 15  1  0
 15 16  1  0
 16 17  1  0
 17 18  2  0
 18 19  1  0
 19 20  1  0
 20 21  1  0
 21 22  1  0
 22 23  1  0
 22 24  1  0
 24 25  1  0
 24 26  1  0
 19 27  1  0
 27 28  1  1
 27 29  1  0
 29 30  1  0
 30 31  1  0
 31 32  1  1
  7  5  1  0
 31 10  1  0
 31 13  1  0
 27 15  1  0
 24 18  1  0
  1 33  1  0
  1 34  1  0
  1 35  1  0
  2 36  1  6
  3 37  1  0
  3 38  1  0
  4 39  1  0
  4 40  1  0
  5 41  1  1
  8 42  1  0
  8 43  1  0
  8 44  1  0
  9 45  1  0
  9 46  1  0
  9 47  1  0
 10 48  1  6
 11 49  1  0
 11 50  1  0
 12 51  1  0
 12 52  1  0
 14 53  1  0
 14 54  1  0
 14 55  1  0
 15 56  1  1
 16 57  1  0
 16 58  1  0
 17 59  1  0
 19 60  1  6
 20 61  1  0
 20 62  1  0
 21 63  1  0
 21 64  1  0
 22 65  1  6
 23 66  1  0
 25 67  1  0
 25 68  1  0
 25 69  1  0
 26 70  1  0
 26 71  1  0
 26 72  1  0
 28 73  1  0
 28 74  1  0
 28 75  1  0
 29 76  1  0
 29 77  1  0
 30 78  1  0
 30 79  1  0
 32 80  1  0
 32 81  1  0
 32 82  1  0
M  END
>  <meeko>  (12) 
{"is_sidechain": [false], "intermolecular_energy": 2.731, "internal_energy": -0.839}

$$$$
EPH_relaxed_0001_pdb2pqr_Repair_42_r2_0001_out
     RDKit          3D

 82 86  0  0  0  0  0  0  0  0999 V2000
    0.1180    9.6390   -3.2510 C   0  0  0  0  0  0  0  0  0  0  0  0
    1.2320   10.6620   -3.4950 C   0  0  2  0  0  0  0  0  0  0  0  0
    2.6250   10.0040   -3.5370 C   0  0  0  0  0  0  0  0  0  0  0  0
    3.6740   10.8300   -4.2860 C   0  0  0  0  0  0  0  0  0  0  0  0
    4.9910   10.8360   -3.5710 C   0  0  2  0  0  0  0  0  0  0  0  0
    5.7930   12.0020   -3.8010 O   0  0  0  0  0  0  0  0  0  0  0  0
    6.3290   10.7580   -4.2810 C   0  0  0  0  0  0  0  0  0  0  0  0
    6.4170   10.6690   -5.7730 C   0  0  0  0  0  0  0  0  0  0  0  0
    7.5210   10.2790   -3.5120 C   0  0  0  0  0  0  0  0  0  0  0  0
    1.1960   11.7370   -2.4150 C   0  0  1  0  0  0  0  0  0  0  0  0
    2.2340   11.4870   -1.2880 C   0  0  0  0  0  0  0  0  0  0  0  0
    2.7350   12.8790   -0.8250 C   0  0  0  0  0  0  0  0  0  0  0  0
    1.7400   13.8810   -1.4560 C   0  0  1  0  0  0  0  0  0  0  0  0
    0.5030   13.8710   -0.5050 C   0  0  0  0  0  0  0  0  0  0  0  0
    2.2760   15.3310   -1.6910 C   0  0  2  0  0  0  0  0  0  0  0  0
    2.6810   16.0920   -0.4160 C   0  0  0  0  0  0  0  0  0  0  0  0
    1.5960   16.8970    0.2180 C   0  0  0  0  0  0  0  0  0  0  0  0
    0.4310   17.2360   -0.3650 C   0  0  0  0  0  0  0  0  0  0  0  0
    0.1530   16.8840   -1.8320 C   0  0  1  0  0  0  0  0  0  0  0  0
   -0.4280   18.1250   -2.5610 C   0  0  0  0  0  0  0  0  0  0  0  0
   -1.6530   18.6970   -1.8550 C   0  0  0  0  0  0  0  0  0  0  0  0
   -1.3210   19.0890   -0.4170 C   0  0  2  0  0  0  0  0  0  0  0  0
   -0.4040   20.1870   -0.4390 O   0  0  0  0  0  0  0  0  0  0  0  0
   -0.7200   17.9210    0.4130 C   0  0  0  0  0  0  0  0  0  0  0  0
   -1.8150   16.8620    0.6920 C   0  0  0  0  0  0  0  0  0  0  0  0
   -0.3000   18.4860    1.7970 C   0  0  0  0  0  0  0  0  0  0  0  0
    1.3580   16.2180   -2.6260 C   0  0  1  0  0  0  0  0  0  0  0  0
    2.2740   17.3260   -3.2290 C   0  0  0  0  0  0  0  0  0  0  0  0
    0.7830   15.4050   -3.8450 C   0  0  0  0  0  0  0  0  0  0  0  0
    0.3830   13.9420   -3.5780 C   0  0  0  0  0  0  0  0  0  0  0  0
    1.5020   13.1920   -2.8490 C   0  0  2  0  0  0  0  0  0  0  0  0
    2.7530   13.1660   -3.7910 C   0  0  0  0  0  0  0  0  0  0  0  0
   -0.0270    9.5059   -2.1687 H   0  0  0  0  0  0  0  0  0  0  0  0
   -0.8169    9.9998   -3.7045 H   0  0  0  0  0  0  0  0  0  0  0  0
    0.3980    8.6768   -3.7045 H   0  0  0  0  0  0  0  0  0  0  0  0
    1.0526   11.1182   -4.4797 H   0  0  0  0  0  0  0  0  0  0  0  0
    2.9714    9.8581   -2.5032 H   0  0  0  0  0  0  0  0  0  0  0  0
    2.5154    9.0543   -4.0812 H   0  0  0  0  0  0  0  0  0  0  0  0
    3.8152   10.4012   -5.2891 H   0  0  0  0  0  0  0  0  0  0  0  0
    3.3130   11.8673   -4.3471 H   0  0  0  0  0  0  0  0  0  0  0  0
    4.5652   10.2626   -2.7344 H   0  0  0  0  0  0  0  0  0  0  0  0
    7.1652    9.9123   -6.0517 H   0  0  0  0  0  0  0  0  0  0  0  0
    5.4366   10.3832   -6.1817 H   0  0  0  0  0  0  0  0  0  0  0  0
    6.7139   11.6461   -6.1817 H   0  0  0  0  0  0  0  0  0  0  0  0
    7.3187   10.3603   -2.4338 H   0  0  0  0  0  0  0  0  0  0  0  0
    7.7252    9.2290   -3.7686 H   0  0  0  0  0  0  0  0  0  0  0  0
    8.3949   10.8958   -3.7686 H   0  0  0  0  0  0  0  0  0  0  0  0
    0.1443   11.6506   -2.1044 H   0  0  0  0  0  0  0  0  0  0  0  0
    1.7613   10.9560   -0.4486 H   0  0  0  0  0  0  0  0  0  0  0  0
    3.0678   10.8671   -1.6493 H   0  0  0  0  0  0  0  0  0  0  0  0
    2.7173   12.9529    0.2724 H   0  0  0  0  0  0  0  0  0  0  0  0
    3.7733   13.0723   -1.1324 H   0  0  0  0  0  0  0  0  0  0  0  0
    0.8444   13.8738    0.5407 H   0  0  0  0  0  0  0  0  0  0  0  0
   -0.1110   14.7642   -0.6926 H   0  0  0  0  0  0  0  0  0  0  0  0
   -0.0965   12.9680   -0.6926 H   0  0  0  0  0  0  0  0  0  0  0  0
    3.2114   15.1500   -2.2408 H   0  0  0  0  0  0  0  0  0  0  0  0
    3.0334   15.3560    0.3216 H   0  0  0  0  0  0  0  0  0  0  0  0
    3.4536   16.8119   -0.7239 H   0  0  0  0  0  0  0  0  0  0  0  0
    1.7623   17.2426    1.2490 H   0  0  0  0  0  0  0  0  0  0  0  0
   -0.5945   16.0771   -1.8149 H   0  0  0  0  0  0  0  0  0  0  0  0
    0.3483   18.9030   -2.6063 H   0  0  0  0  0  0  0  0  0  0  0  0
   -0.7403   17.8061   -3.5664 H   0  0  0  0  0  0  0  0  0  0  0  0
   -1.9994   19.5875   -2.4000 H   0  0  0  0  0  0  0  0  0  0  0  0
   -2.4387   17.9274   -1.8365 H   0  0  0  0  0  0  0  0  0  0  0  0
   -2.2639   19.3694    0.0752 H   0  0  0  0  0  0  0  0  0  0  0  0
   -0.2330   20.4450    0.4830 H   0  0  0  0  0  0  0  0  0  0  0  0
   -1.9399   16.7412    1.7782 H   0  0  0  0  0  0  0  0  0  0  0  0
   -2.7658   17.1919    0.2480 H   0  0  0  0  0  0  0  0  0  0  0  0
   -1.5170   15.9007    0.2480 H   0  0  0  0  0  0  0  0  0  0  0  0
   -0.7523   17.8776    2.5940 H   0  0  0  0  0  0  0  0  0  0  0  0
    0.7957   18.4545    1.8887 H   0  0  0  0  0  0  0  0  0  0  0  0
   -0.6459   19.5262    1.8887 H   0  0  0  0  0  0  0  0  0  0  0  0
    2.7450   17.8958   -2.4145 H   0  0  0  0  0  0  0  0  0  0  0  0
    3.0539   16.8597   -3.8490 H   0  0  0  0  0  0  0  0  0  0  0  0
    1.6694   18.0043   -3.8490 H   0  0  0  0  0  0  0  0  0  0  0  0
   -0.1116   15.9340   -4.2054 H   0  0  0  0  0  0  0  0  0  0  0  0
    1.6092   15.3496   -4.5691 H   0  0  0  0  0  0  0  0  0  0  0  0
   -0.5252   13.9247   -2.9577 H   0  0  0  0  0  0  0  0  0  0  0  0
    0.1997   13.4468   -4.5430 H   0  0  0  0  0  0  0  0  0  0  0  0
    3.6695   13.1470   -3.1830 H   0  0  0  0  0  0  0  0  0  0  0  0
    2.7154   12.2684   -4.4258 H   0  0  0  0  0  0  0  0  0  0  0  0
    2.7527   14.0643   -4.4258 H   0  0  0  0  0  0  0  0  0  0  0  0
  1  2  1  0
  2  3  1  0
  3  4  1  0
  4  5  1  0
  5  6  1  0
  6  7  1  0
  7  8  1  0
  7  9  1  0
  2 10  1  0
 10 11  1  0
 11 12  1  0
 12 13  1  0
 13 14  1  1
 13 15  1  0
 15 16  1  0
 16 17  1  0
 17 18  2  0
 18 19  1  0
 19 20  1  0
 20 21  1  0
 21 22  1  0
 22 23  1  0
 22 24  1  0
 24 25  1  0
 24 26  1  0
 19 27  1  0
 27 28  1  6
 27 29  1  0
 29 30  1  0
 30 31  1  0
 31 32  1  6
  7  5  1  0
 31 10  1  0
 31 13  1  0
 27 15  1  0
 24 18  1  0
  1 33  1  0
  1 34  1  0
  1 35  1  0
  2 36  1  6
  3 37  1  0
  3 38  1  0
  4 39  1  0
  4 40  1  0
  5 41  1  1
  8 42  1  0
  8 43  1  0
  8 44  1  0
  9 45  1  0
  9 46  1  0
  9 47  1  0
 10 48  1  1
 11 49  1  0
 11 50  1  0
 12 51  1  0
 12 52  1  0
 14 53  1  0
 14 54  1  0
 14 55  1  0
 15 56  1  6
 16 57  1  0
 16 58  1  0
 17 59  1  0
 19 60  1  1
 20 61  1  0
 20 62  1  0
 21 63  1  0
 21 64  1  0
 22 65  1  1
 23 66  1  0
 25 67  1  0
 25 68  1  0
 25 69  1  0
 26 70  1  0
 26 71  1  0
 26 72  1  0
 28 73  1  0
 28 74  1  0
 28 75  1  0
 29 76  1  0
 29 77  1  0
 30 78  1  0
 30 79  1  0
 32 80  1  0
 32 81  1  0
 32 82  1  0
M  END
>  <meeko>  (13) 
{"is_sidechain": [false], "intermolecular_energy": 2.731, "internal_energy": -0.839}

$$$$
EPH_relaxed_0001_pdb2pqr_Repair_42_r2_0001_out
     RDKit          3D

 82 86  0  0  0  0  0  0  0  0999 V2000
   -2.1500    9.6710   -0.2800 C   0  0  0  0  0  0  0  0  0  0  0  0
   -1.5640   10.5470   -1.3910 C   0  0  2  0  0  0  0  0  0  0  0  0
   -0.5910    9.7640   -2.2960 C   0  0  0  0  0  0  0  0  0  0  0  0
    0.8110    9.6060   -1.7010 C   0  0  0  0  0  0  0  0  0  0  0  0
    1.8730   10.0620   -2.6550 C   0  0  2  0  0  0  0  0  0  0  0  0
    3.0070    9.1910   -2.7500 O   0  0  0  0  0  0  0  0  0  0  0  0
    3.2580   10.5010   -2.2180 C   0  0  0  0  0  0  0  0  0  0  0  0
    3.6550   10.5060   -0.7750 C   0  0  0  0  0  0  0  0  0  0  0  0
    4.0510   11.3820   -3.1320 C   0  0  0  0  0  0  0  0  0  0  0  0
   -0.8550   11.7520   -0.7840 C   0  0  1  0  0  0  0  0  0  0  0  0
    0.3100   11.3480    0.1580 C   0  0  0  0  0  0  0  0  0  0  0  0
    1.4140   12.4230   -0.0080 C   0  0  0  0  0  0  0  0  0  0  0  0
    0.7240   13.5750   -0.7760 C   0  0  1  0  0  0  0  0  0  0  0  0
   -0.0630   14.3690    0.3130 C   0  0  0  0  0  0  0  0  0  0  0  0
    1.6610   14.5090   -1.6080 C   0  0  2  0  0  0  0  0  0  0  0  0
    2.6990   15.2930   -0.7850 C   0  0  0  0  0  0  0  0  0  0  0  0
    2.2510   16.6350   -0.3070 C   0  0  0  0  0  0  0  0  0  0  0  0
    1.1800   17.3100   -0.7630 C   0  0  0  0  0  0  0  0  0  0  0  0
    0.3460   16.7690   -1.9310 C   0  0  1  0  0  0  0  0  0  0  0  0
    0.0760   17.9100   -2.9470 C   0  0  0  0  0  0  0  0  0  0  0  0
   -0.5590   19.1350   -2.2950 C   0  0  0  0  0  0  0  0  0  0  0  0
    0.3270   19.6780   -1.1770 C   0  0  2  0  0  0  0  0  0  0  0  0
    1.5330   20.1920   -1.7530 O   0  0  0  0  0  0  0  0  0  0  0  0
    0.6740   18.6150   -0.0990 C   0  0  0  0  0  0  0  0  0  0  0  0
   -0.5910   18.2810    0.7290 C   0  0  0  0  0  0  0  0  0  0  0  0
    1.6850   19.2520    0.8920 C   0  0  0  0  0  0  0  0  0  0  0  0
    0.9000   15.4510   -2.6260 C   0  0  1  0  0  0  0  0  0  0  0  0
    1.9260   15.8280   -3.7380 C   0  0  0  0  0  0  0  0  0  0  0  0
   -0.2880   14.7140   -3.3500 C   0  0  0  0  0  0  0  0  0  0  0  0
   -1.1020   13.7140   -2.5070 C   0  0  0  0  0  0  0  0  0  0  0  0
   -0.1780   12.7460   -1.7610 C   0  0  2  0  0  0  0  0  0  0  0  0
    0.6100   11.9170   -2.8320 C   0  0  0  0  0  0  0  0  0  0  0  0
   -1.8720   10.0866    0.6998 H   0  0  0  0  0  0  0  0  0  0  0  0
   -3.2460    9.6479   -0.3709 H   0  0  0  0  0  0  0  0  0  0  0  0
   -1.7530    8.6492   -0.3709 H   0  0  0  0  0  0  0  0  0  0  0  0
   -2.4001   10.8859   -2.0204 H   0  0  0  0  0  0  0  0  0  0  0  0
   -1.0093    8.7617   -2.4703 H   0  0  0  0  0  0  0  0  0  0  0  0
   -0.4823   10.3410   -3.2262 H   0  0  0  0  0  0  0  0  0  0  0  0
    0.8773   10.2052   -0.7809 H   0  0  0  0  0  0  0  0  0  0  0  0
    0.9754    8.5391   -1.4896 H   0  0  0  0  0  0  0  0  0  0  0  0
    1.1201   10.5329   -3.3041 H   0  0  0  0  0  0  0  0  0  0  0  0
    2.7524   10.4946   -0.1464 H   0  0  0  0  0  0  0  0  0  0  0  0
    4.2635    9.6154   -0.5590 H   0  0  0  0  0  0  0  0  0  0  0  0
    4.2409   11.4116   -0.5590 H   0  0  0  0  0  0  0  0  0  0  0  0
    4.6689   12.0685   -2.5346 H   0  0  0  0  0  0  0  0  0  0  0  0
    4.7010   10.7616   -3.7665 H   0  0  0  0  0  0  0  0  0  0  0  0
    3.3659   11.9633   -3.7665 H   0  0  0  0  0  0  0  0  0  0  0  0
   -1.7083   12.2355   -0.2860 H   0  0  0  0  0  0  0  0  0  0  0  0
   -0.0384   11.3210    1.2010 H   0  0  0  0  0  0  0  0  0  0  0  0
    0.6922   10.3478   -0.0938 H   0  0  0  0  0  0  0  0  0  0  0  0
    1.7699   12.7690    0.9736 H   0  0  0  0  0  0  0  0  0  0  0  0
    2.2961   12.0366   -0.5395 H   0  0  0  0  0  0  0  0  0  0  0  0
    0.2615   14.0416    1.3117 H   0  0  0  0  0  0  0  0  0  0  0  0
    0.1353   15.4448    0.1974 H   0  0  0  0  0  0  0  0  0  0  0  0
   -1.1405   14.1803    0.1974 H   0  0  0  0  0  0  0  0  0  0  0  0
    2.2371   13.7898   -2.2087 H   0  0  0  0  0  0  0  0  0  0  0  0
    2.9616   14.6885    0.0957 H   0  0  0  0  0  0  0  0  0  0  0  0
    3.5471   15.4777   -1.4607 H   0  0  0  0  0  0  0  0  0  0  0  0
    2.8470   17.1121    0.4849 H   0  0  0  0  0  0  0  0  0  0  0  0
   -0.6036   16.4265   -1.4940 H   0  0  0  0  0  0  0  0  0  0  0  0
    1.0310   18.2088   -3.4039 H   0  0  0  0  0  0  0  0  0  0  0  0
   -0.6301   17.5278   -3.6989 H   0  0  0  0  0  0  0  0  0  0  0  0
   -0.6979   19.9168   -3.0563 H   0  0  0  0  0  0  0  0  0  0  0  0
   -1.5277   18.8414   -1.8644 H   0  0  0  0  0  0  0  0  0  0  0  0
   -0.2376   20.4707   -0.6642 H   0  0  0  0  0  0  0  0  0  0  0  0
    1.5340   19.9530   -2.6950 H   0  0  0  0  0  0  0  0  0  0  0  0
   -0.3543   18.3435    1.8014 H   0  0  0  0  0  0  0  0  0  0  0  0
   -1.3880   18.9995    0.4869 H   0  0  0  0  0  0  0  0  0  0  0  0
   -0.9294   17.2627    0.4869 H   0  0  0  0  0  0  0  0  0  0  0  0
    1.3637   19.0495    1.9243 H   0  0  0  0  0  0  0  0  0  0  0  0
    2.6826   18.8190    0.7269 H   0  0  0  0  0  0  0  0  0  0  0  0
    1.7251   20.3388    0.7269 H   0  0  0  0  0  0  0  0  0  0  0  0
    2.8615   16.1717   -3.2725 H   0  0  0  0  0  0  0  0  0  0  0  0
    2.1299   14.9461   -4.3630 H   0  0  0  0  0  0  0  0  0  0  0  0
    1.5104   16.6321   -4.3630 H   0  0  0  0  0  0  0  0  0  0  0  0
   -0.9832   15.4837   -3.7163 H   0  0  0  0  0  0  0  0  0  0  0  0
    0.1857   14.1085   -4.1368 H   0  0  0  0  0  0  0  0  0  0  0  0
   -1.7076   14.2692   -1.7755 H   0  0  0  0  0  0  0  0  0  0  0  0
   -1.7490   13.1326   -3.1804 H   0  0  0  0  0  0  0  0  0  0  0  0
    1.2828   11.2092   -2.3256 H   0  0  0  0  0  0  0  0  0  0  0  0
   -0.1008   11.3611   -3.4611 H   0  0  0  0  0  0  0  0  0  0  0  0
    1.2012   12.5987   -3.4611 H   0  0  0  0  0  0  0  0  0  0  0  0
  1  2  1  0
  2  3  1  0
  3  4  1  0
  4  5  1  0
  5  6  1  0
  6  7  1  0
  7  8  1  0
  7  9  1  0
  2 10  1  0
 10 11  1  0
 11 12  1  0
 12 13  1  0
 13 14  1  1
 13 15  1  0
 15 16  1  0
 16 17  1  0
 17 18  2  0
 18 19  1  0
 19 20  1  0
 20 21  1  0
 21 22  1  0
 22 23  1  0
 22 24  1  0
 24 25  1  0
 24 26  1  0
 19 27  1  0
 27 28  1  6
 27 29  1  0
 29 30  1  0
 30 31  1  0
 31 32  1  6
  7  5  1  0
 31 10  1  0
 31 13  1  0
 27 15  1  0
 24 18  1  0
  1 33  1  0
  1 34  1  0
  1 35  1  0
  2 36  1  6
  3 37  1  0
  3 38  1  0
  4 39  1  0
  4 40  1  0
  5 41  1  6
  8 42  1  0
  8 43  1  0
  8 44  1  0
  9 45  1  0
  9 46  1  0
  9 47  1  0
 10 48  1  1
 11 49  1  0
 11 50  1  0
 12 51  1  0
 12 52  1  0
 14 53  1  0
 14 54  1  0
 14 55  1  0
 15 56  1  6
 16 57  1  0
 16 58  1  0
 17 59  1  0
 19 60  1  1
 20 61  1  0
 20 62  1  0
 21 63  1  0
 21 64  1  0
 22 65  1  1
 23 66  1  0
 25 67  1  0
 25 68  1  0
 25 69  1  0
 26 70  1  0
 26 71  1  0
 26 72  1  0
 28 73  1  0
 28 74  1  0
 28 75  1  0
 29 76  1  0
 29 77  1  0
 30 78  1  0
 30 79  1  0
 32 80  1  0
 32 81  1  0
 32 82  1  0
M  END
>  <meeko>  (14) 
{"is_sidechain": [false], "intermolecular_energy": 2.731, "internal_energy": -0.839}

$$$$
EPH_relaxed_0001_pdb2pqr_Repair_42_r2_0001_out
     RDKit          3D

 82 86  0  0  0  0  0  0  0  0999 V2000
   -0.1580    9.2790   -4.1930 C   0  0  0  0  0  0  0  0  0  0  0  0
    0.0190    9.4810   -2.6860 C   0  0  2  0  0  0  0  0  0  0  0  0
   -0.7790    8.4500   -1.8640 C   0  0  0  0  0  0  0  0  0  0  0  0
   -2.2920    8.5210   -2.0900 C   0  0  0  0  0  0  0  0  0  0  0  0
   -2.8220    7.2570   -2.6970 C   0  0  2  0  0  0  0  0  0  0  0  0
   -3.8490    7.4490   -3.6780 O   0  0  0  0  0  0  0  0  0  0  0  0
   -4.2370    6.7550   -2.4820 C   0  0  0  0  0  0  0  0  0  0  0  0
   -5.2110    7.5070   -1.6300 C   0  0  0  0  0  0  0  0  0  0  0  0
   -4.5200    5.3000   -2.6930 C   0  0  0  0  0  0  0  0  0  0  0  0
   -0.3990   10.8940   -2.2980 C   0  0  1  0  0  0  0  0  0  0  0  0
   -1.6020   10.9120   -1.3170 C   0  0  0  0  0  0  0  0  0  0  0  0
   -1.3830   12.1150   -0.3630 C   0  0  0  0  0  0  0  0  0  0  0  0
   -0.2540   12.9380   -1.0260 C   0  0  1  0  0  0  0  0  0  0  0  0
   -0.9660   13.7810   -2.1300 C   0  0  0  0  0  0  0  0  0  0  0  0
    0.5970   13.8370   -0.0710 C   0  0  2  0  0  0  0  0  0  0  0  0
   -0.1860   14.9500    0.6470 C   0  0  0  0  0  0  0  0  0  0  0  0
   -0.2440   16.2560   -0.0740 C   0  0  0  0  0  0  0  0  0  0  0  0
    0.5410   16.6150   -1.1070 C   0  0  0  0  0  0  0  0  0  0  0  0
    1.6760   15.7020   -1.5880 C   0  0  1  0  0  0  0  0  0  0  0  0
    2.9650   16.5410   -1.7900 C   0  0  0  0  0  0  0  0  0  0  0  0
    2.7460   17.7360   -2.7130 C   0  0  0  0  0  0  0  0  0  0  0  0
    1.6510   18.6510   -2.1710 C   0  0  2  0  0  0  0  0  0  0  0  0
    2.1090   19.2470   -0.9540 O   0  0  0  0  0  0  0  0  0  0  0  0
    0.3060   17.9130   -1.9180 C   0  0  0  0  0  0  0  0  0  0  0  0
   -0.3400   17.5290   -3.2730 C   0  0  0  0  0  0  0  0  0  0  0  0
   -0.6680   18.9150   -1.2410 C   0  0  0  0  0  0  0  0  0  0  0  0
    1.9280   14.3940   -0.7210 C   0  0  1  0  0  0  0  0  0  0  0  0
    2.8980   14.7160    0.4570 C   0  0  0  0  0  0  0  0  0  0  0  0
    2.6550   13.3190   -1.6120 C   0  0  0  0  0  0  0  0  0  0  0  0
    1.7560   12.3810   -2.4410 C   0  0  0  0  0  0  0  0  0  0  0  0
    0.6500   11.7730   -1.5720 C   0  0  2  0  0  0  0  0  0  0  0  0
    1.3360   10.9010   -0.4660 C   0  0  0  0  0  0  0  0  0  0  0  0
   -0.8733    8.4627   -4.3720 H   0  0  0  0  0  0  0  0  0  0  0  0
   -0.5395   10.2065   -4.6450 H   0  0  0  0  0  0  0  0  0  0  0  0
    0.8115    9.0227   -4.6450 H   0  0  0  0  0  0  0  0  0  0  0  0
    1.0843    9.3326   -2.4554 H   0  0  0  0  0  0  0  0  0  0  0  0
   -0.4334    7.4429   -2.1404 H   0  0  0  0  0  0  0  0  0  0  0  0
   -0.6013    8.6780   -0.8026 H   0  0  0  0  0  0  0  0  0  0  0  0
   -2.7894    8.6880   -1.1232 H   0  0  0  0  0  0  0  0  0  0  0  0
   -2.4962    9.3476   -2.7864 H   0  0  0  0  0  0  0  0  0  0  0  0
   -1.8420    6.7683   -2.5928 H   0  0  0  0  0  0  0  0  0  0  0  0
   -4.9823    7.3304   -0.5686 H   0  0  0  0  0  0  0  0  0  0  0  0
   -5.1344    8.5825   -1.8476 H   0  0  0  0  0  0  0  0  0  0  0  0
   -6.2321    7.1607   -1.8476 H   0  0  0  0  0  0  0  0  0  0  0  0
   -4.6172    4.8002   -1.7179 H   0  0  0  0  0  0  0  0  0  0  0  0
   -5.4570    5.1869   -3.2580 H   0  0  0  0  0  0  0  0  0  0  0  0
   -3.6937    4.8439   -3.2580 H   0  0  0  0  0  0  0  0  0  0  0  0
   -0.6074   11.3053   -3.2967 H   0  0  0  0  0  0  0  0  0  0  0  0
   -2.5428   11.0361   -1.8734 H   0  0  0  0  0  0  0  0  0  0  0  0
   -1.6675    9.9688   -0.7548 H   0  0  0  0  0  0  0  0  0  0  0  0
   -2.3013   12.7144   -0.2768 H   0  0  0  0  0  0  0  0  0  0  0  0
   -1.1231   11.7964    0.6573 H   0  0  0  0  0  0  0  0  0  0  0  0
   -1.6066   14.5394   -1.6562 H   0  0  0  0  0  0  0  0  0  0  0  0
   -0.2104   14.2784   -2.7559 H   0  0  0  0  0  0  0  0  0  0  0  0
   -1.5828   13.1193   -2.7559 H   0  0  0  0  0  0  0  0  0  0  0  0
    0.8974   13.1284    0.7149 H   0  0  0  0  0  0  0  0  0  0  0  0
   -1.2174   14.5980    0.7961 H   0  0  0  0  0  0  0  0  0  0  0  0
    0.3533   15.1444    1.5858 H   0  0  0  0  0  0  0  0  0  0  0  0
   -0.9916   16.9869    0.2679 H   0  0  0  0  0  0  0  0  0  0  0  0
    1.3458   15.2879   -2.5521 H   0  0  0  0  0  0  0  0  0  0  0  0
    3.3032   16.9094   -0.8103 H   0  0  0  0  0  0  0  0  0  0  0  0
    3.7173   15.8899   -2.2591 H   0  0  0  0  0  0  0  0  0  0  0  0
    3.6837   18.3054   -2.7933 H   0  0  0  0  0  0  0  0  0  0  0  0
    2.4357   17.3643   -3.7007 H   0  0  0  0  0  0  0  0  0  0  0  0
    1.4504   19.4152   -2.9364 H   0  0  0  0  0  0  0  0  0  0  0  0
    1.3340   19.3780   -0.3810 H   0  0  0  0  0  0  0  0  0  0  0  0
   -1.2725   16.9747   -3.0906 H   0  0  0  0  0  0  0  0  0  0  0  0
   -0.5620   18.4419   -3.8452 H   0  0  0  0  0  0  0  0  0  0  0  0
    0.3559   16.8978   -3.8452 H   0  0  0  0  0  0  0  0  0  0  0  0
   -0.5828   18.8274   -0.1478 H   0  0  0  0  0  0  0  0  0  0  0  0
   -0.4116   19.9398   -1.5478 H   0  0  0  0  0  0  0  0  0  0  0  0
   -1.6996   18.6877   -1.5478 H   0  0  0  0  0  0  0  0  0  0  0  0
    2.3826   14.5449    1.4136 H   0  0  0  0  0  0  0  0  0  0  0  0
    3.7807   14.0627    0.3941 H   0  0  0  0  0  0  0  0  0  0  0  0
    3.2148   15.7675    0.3941 H   0  0  0  0  0  0  0  0  0  0  0  0
    3.3112   13.8561   -2.3126 H   0  0  0  0  0  0  0  0  0  0  0  0
    3.1785   12.6624   -0.9015 H   0  0  0  0  0  0  0  0  0  0  0  0
    1.2964   12.9538   -3.2599 H   0  0  0  0  0  0  0  0  0  0  0  0
    2.3754   11.5654   -2.8424 H   0  0  0  0  0  0  0  0  0  0  0  0
    1.0439   11.2724    0.5274 H   0  0  0  0  0  0  0  0  0  0  0  0
    1.0170    9.8539   -0.5744 H   0  0  0  0  0  0  0  0  0  0  0  0
    2.4288   10.9645   -0.5744 H   0  0  0  0  0  0  0  0  0  0  0  0
  1  2  1  0
  2  3  1  0
  3  4  1  0
  4  5  1  0
  5  6  1  0
  6  7  1  0
  7  8  1  0
  7  9  1  0
  2 10  1  0
 10 11  1  0
 11 12  1  0
 12 13  1  0
 13 14  1  6
 13 15  1  0
 15 16  1  0
 16 17  1  0
 17 18  2  0
 18 19  1  0
 19 20  1  0
 20 21  1  0
 21 22  1  0
 22 23  1  0
 22 24  1  0
 24 25  1  0
 24 26  1  0
 19 27  1  0
 27 28  1  1
 27 29  1  0
 29 30  1  0
 30 31  1  0
 31 32  1  1
  7  5  1  0
 31 10  1  0
 31 13  1  0
 27 15  1  0
 24 18  1  0
  1 33  1  0
  1 34  1  0
  1 35  1  0
  2 36  1  6
  3 37  1  0
  3 38  1  0
  4 39  1  0
  4 40  1  0
  5 41  1  6
  8 42  1  0
  8 43  1  0
  8 44  1  0
  9 45  1  0
  9 46  1  0
  9 47  1  0
 10 48  1  6
 11 49  1  0
 11 50  1  0
 12 51  1  0
 12 52  1  0
 14 53  1  0
 14 54  1  0
 14 55  1  0
 15 56  1  1
 16 57  1  0
 16 58  1  0
 17 59  1  0
 19 60  1  6
 20 61  1  0
 20 62  1  0
 21 63  1  0
 21 64  1  0
 22 65  1  6
 23 66  1  0
 25 67  1  0
 25 68  1  0
 25 69  1  0
 26 70  1  0
 26 71  1  0
 26 72  1  0
 28 73  1  0
 28 74  1  0
 28 75  1  0
 29 76  1  0
 29 77  1  0
 30 78  1  0
 30 79  1  0
 32 80  1  0
 32 81  1  0
 32 82  1  0
M  END
>  <meeko>  (15) 
{"is_sidechain": [false], "intermolecular_energy": 2.731, "internal_energy": -0.839}

$$$$
EPH_relaxed_0001_pdb2pqr_Repair_42_r2_0001_out
     RDKit          3D

 82 86  0  0  0  0  0  0  0  0999 V2000
    0.9510   14.9230   -2.6760 C   0  0  0  0  0  0  0  0  0  0  0  0
    1.2010   14.2420   -4.0250 C   0  0  2  0  0  0  0  0  0  0  0  0
    0.4800   14.9630   -5.1810 C   0  0  0  0  0  0  0  0  0  0  0  0
    1.0320   14.6110   -6.5650 C   0  0  0  0  0  0  0  0  0  0  0  0
    0.8360   15.7310   -7.5420 C   0  0  2  0  0  0  0  0  0  0  0  0
    0.4000   15.3200   -8.8440 O   0  0  0  0  0  0  0  0  0  0  0  0
    1.7000   15.9280   -8.7730 C   0  0  0  0  0  0  0  0  0  0  0  0
    2.8260   14.9950   -9.0940 C   0  0  0  0  0  0  0  0  0  0  0  0
    1.7650   17.2890   -9.3920 C   0  0  0  0  0  0  0  0  0  0  0  0
    0.7560   12.7850   -3.9620 C   0  0  1  0  0  0  0  0  0  0  0  0
    1.8920   11.7970   -4.3390 C   0  0  0  0  0  0  0  0  0  0  0  0
    1.6990   10.5360   -3.4570 C   0  0  0  0  0  0  0  0  0  0  0  0
    0.2850   10.6980   -2.8510 C   0  0  1  0  0  0  0  0  0  0  0  0
   -0.6900   10.2180   -3.9710 C   0  0  0  0  0  0  0  0  0  0  0  0
    0.0240    9.9530   -1.5010 C   0  0  2  0  0  0  0  0  0  0  0  0
    0.1350    8.4200   -1.5690 C   0  0  0  0  0  0  0  0  0  0  0  0
   -1.1350    7.7020   -1.8860 C   0  0  0  0  0  0  0  0  0  0  0  0
   -2.3700    8.2340   -1.8280 C   0  0  0  0  0  0  0  0  0  0  0  0
   -2.5880    9.6640   -1.3160 C   0  0  1  0  0  0  0  0  0  0  0  0
   -3.7670    9.6780   -0.3080 C   0  0  0  0  0  0  0  0  0  0  0  0
   -5.0390    9.0650   -0.8860 C   0  0  0  0  0  0  0  0  0  0  0  0
   -4.7960    7.6250   -1.3310 C   0  0  2  0  0  0  0  0  0  0  0  0
   -4.5340    6.8240   -0.1750 O   0  0  0  0  0  0  0  0  0  0  0  0
   -3.6240    7.4850   -2.3410 C   0  0  0  0  0  0  0  0  0  0  0  0
   -4.0340    8.0980   -3.7030 C   0  0  0  0  0  0  0  0  0  0  0  0
   -3.3940    5.9710   -2.5990 C   0  0  0  0  0  0  0  0  0  0  0  0
   -1.2980   10.4050   -0.7570 C   0  0  1  0  0  0  0  0  0  0  0  0
   -1.0990   10.0620    0.7510 C   0  0  0  0  0  0  0  0  0  0  0  0
   -1.5250   11.9610   -0.8320 C   0  0  0  0  0  0  0  0  0  0  0  0
   -1.1360   12.6570   -2.1510 C   0  0  0  0  0  0  0  0  0  0  0  0
    0.2730   12.2480   -2.5910 C   0  0  2  0  0  0  0  0  0  0  0  0
    1.2780   12.7370   -1.4940 C   0  0  0  0  0  0  0  0  0  0  0  0
    1.2059   14.2286   -1.8619 H   0  0  0  0  0  0  0  0  0  0  0  0
    1.5769   15.8243   -2.5987 H   0  0  0  0  0  0  0  0  0  0  0  0
   -0.1094   15.2052   -2.5987 H   0  0  0  0  0  0  0  0  0  0  0  0
    2.2812   14.2926   -4.2264 H   0  0  0  0  0  0  0  0  0  0  0  0
   -0.5847   14.6882   -5.1515 H   0  0  0  0  0  0  0  0  0  0  0  0
    0.6390   16.0418   -5.0362 H   0  0  0  0  0  0  0  0  0  0  0  0
    2.1078   14.3996   -6.4764 H   0  0  0  0  0  0  0  0  0  0  0  0
    0.4866   13.7316   -6.9379 H   0  0  0  0  0  0  0  0  0  0  0  0
    0.5364   16.4147   -6.7340 H   0  0  0  0  0  0  0  0  0  0  0  0
    3.2730   14.6246   -8.1596 H   0  0  0  0  0  0  0  0  0  0  0  0
    2.4431   14.1458   -9.6791 H   0  0  0  0  0  0  0  0  0  0  0  0
    3.5892   15.5290   -9.6791 H   0  0  0  0  0  0  0  0  0  0  0  0
    1.8014   18.0509   -8.5994 H   0  0  0  0  0  0  0  0  0  0  0  0
    2.6678   17.3654  -10.0158 H   0  0  0  0  0  0  0  0  0  0  0  0
    0.8736   17.4511  -10.0158 H   0  0  0  0  0  0  0  0  0  0  0  0
   -0.0845   12.8175   -4.6708 H   0  0  0  0  0  0  0  0  0  0  0  0
    1.8231   11.5289   -5.4036 H   0  0  0  0  0  0  0  0  0  0  0  0
    2.8806   12.2491   -4.1710 H   0  0  0  0  0  0  0  0  0  0  0  0
    1.7580    9.6225   -4.0669 H   0  0  0  0  0  0  0  0  0  0  0  0
    2.4765   10.4437   -2.6843 H   0  0  0  0  0  0  0  0  0  0  0  0
   -1.5868    9.7765   -3.5119 H   0  0  0  0  0  0  0  0  0  0  0  0
   -0.9819   11.0754   -4.5953 H   0  0  0  0  0  0  0  0  0  0  0  0
   -0.1885    9.4638   -4.5953 H   0  0  0  0  0  0  0  0  0  0  0  0
    0.8694   10.2855   -0.8807 H   0  0  0  0  0  0  0  0  0  0  0  0
    0.8716    8.1667   -2.3457 H   0  0  0  0  0  0  0  0  0  0  0  0
    0.4270    8.0911   -0.5608 H   0  0  0  0  0  0  0  0  0  0  0  0
   -1.0546    6.6488   -2.1930 H   0  0  0  0  0  0  0  0  0  0  0  0
   -2.8442   10.2678   -2.1991 H   0  0  0  0  0  0  0  0  0  0  0  0
   -3.4742    9.1060    0.5848 H   0  0  0  0  0  0  0  0  0  0  0  0
   -3.9842   10.7282   -0.0632 H   0  0  0  0  0  0  0  0  0  0  0  0
   -5.8259    9.0766   -0.1174 H   0  0  0  0  0  0  0  0  0  0  0  0
   -5.3479    9.6559   -1.7609 H   0  0  0  0  0  0  0  0  0  0  0  0
   -5.7017    7.2839   -1.8539 H   0  0  0  0  0  0  0  0  0  0  0  0
   -3.6270    7.0160    0.1170 H   0  0  0  0  0  0  0  0  0  0  0  0
   -4.6381    9.0012   -3.5316 H   0  0  0  0  0  0  0  0  0  0  0  0
   -3.1310    8.3634   -4.2723 H   0  0  0  0  0  0  0  0  0  0  0  0
   -4.6241    7.3648   -4.2723 H   0  0  0  0  0  0  0  0  0  0  0  0
   -3.3138    5.4432   -1.6372 H   0  0  0  0  0  0  0  0  0  0  0  0
   -4.2406    5.5638   -3.1713 H   0  0  0  0  0  0  0  0  0  0  0  0
   -2.4647    5.8336   -3.1713 H   0  0  0  0  0  0  0  0  0  0  0  0
   -1.5555   10.8489    1.3694 H   0  0  0  0  0  0  0  0  0  0  0  0
   -1.5774    9.0968    0.9737 H   0  0  0  0  0  0  0  0  0  0  0  0
   -0.0237    9.9983    0.9737 H   0  0  0  0  0  0  0  0  0  0  0  0
   -2.5947   12.1500   -0.6588 H   0  0  0  0  0  0  0  0  0  0  0  0
   -0.8529   12.3870   -0.0725 H   0  0  0  0  0  0  0  0  0  0  0  0
   -1.8544   12.3722   -2.9338 H   0  0  0  0  0  0  0  0  0  0  0  0
   -1.1520   13.7453   -1.9917 H   0  0  0  0  0  0  0  0  0  0  0  0
    0.8601   12.5336   -0.4970 H   0  0  0  0  0  0  0  0  0  0  0  0
    2.2329   12.2028   -1.6072 H   0  0  0  0  0  0  0  0  0  0  0  0
    1.4470   13.8180   -1.6072 H   0  0  0  0  0  0  0  0  0  0  0  0
  1  2  1  0
  2  3  1  0
  3  4  1  0
  4  5  1  0
  5  6  1  0
  6  7  1  0
  7  8  1  0
  7  9  1  0
  2 10  1  0
 10 11  1  0
 11 12  1  0
 12 13  1  0
 13 14  1  6
 13 15  1  0
 15 16  1  0
 16 17  1  0
 17 18  2  0
 18 19  1  0
 19 20  1  0
 20 21  1  0
 21 22  1  0
 22 23  1  0
 22 24  1  0
 24 25  1  0
 24 26  1  0
 19 27  1  0
 27 28  1  1
 27 29  1  0
 29 30  1  0
 30 31  1  0
 31 32  1  1
  7  5  1  0
 31 10  1  0
 31 13  1  0
 27 15  1  0
 24 18  1  0
  1 33  1  0
  1 34  1  0
  1 35  1  0
  2 36  1  6
  3 37  1  0
  3 38  1  0
  4 39  1  0
  4 40  1  0
  5 41  1  1
  8 42  1  0
  8 43  1  0
  8 44  1  0
  9 45  1  0
  9 46  1  0
  9 47  1  0
 10 48  1  6
 11 49  1  0
 11 50  1  0
 12 51  1  0
 12 52  1  0
 14 53  1  0
 14 54  1  0
 14 55  1  0
 15 56  1  1
 16 57  1  0
 16 58  1  0
 17 59  1  0
 19 60  1  6
 20 61  1  0
 20 62  1  0
 21 63  1  0
 21 64  1  0
 22 65  1  6
 23 66  1  0
 25 67  1  0
 25 68  1  0
 25 69  1  0
 26 70  1  0
 26 71  1  0
 26 72  1  0
 28 73  1  0
 28 74  1  0
 28 75  1  0
 29 76  1  0
 29 77  1  0
 30 78  1  0
 30 79  1  0
 32 80  1  0
 32 81  1  0
 32 82  1  0
M  END
>  <meeko>  (16) 
{"is_sidechain": [false], "intermolecular_energy": 2.731, "internal_energy": -0.839}

$$$$
EPH_relaxed_0001_pdb2pqr_Repair_42_r2_0001_out
     RDKit          3D

 82 86  0  0  0  0  0  0  0  0999 V2000
  -15.2880    9.2250    0.9920 C   0  0  0  0  0  0  0  0  0  0  0  0
  -14.5030    9.4230   -0.3080 C   0  0  2  0  0  0  0  0  0  0  0  0
  -14.9870    8.4780   -1.4270 C   0  0  0  0  0  0  0  0  0  0  0  0
  -14.7510    9.0240   -2.8380 C   0  0  0  0  0  0  0  0  0  0  0  0
  -15.2870   10.4150   -2.9920 C   0  0  2  0  0  0  0  0  0  0  0  0
  -14.8190   11.1120   -4.1530 O   0  0  0  0  0  0  0  0  0  0  0  0
  -14.4270   11.6600   -2.8840 C   0  0  0  0  0  0  0  0  0  0  0  0
  -12.9580   11.5730   -2.6110 C   0  0  0  0  0  0  0  0  0  0  0  0
  -15.0910   12.9620   -2.5590 C   0  0  0  0  0  0  0  0  0  0  0  0
  -13.0150    9.2100   -0.0550 C   0  0  1  0  0  0  0  0  0  0  0  0
  -12.6560    9.2380    1.4550 C   0  0  0  0  0  0  0  0  0  0  0  0
  -11.5070    8.2180    1.6600 C   0  0  0  0  0  0  0  0  0  0  0  0
  -11.0210    7.8850    0.2300 C   0  0  1  0  0  0  0  0  0  0  0  0
  -10.0740    9.0640   -0.1560 C   0  0  0  0  0  0  0  0  0  0  0  0
  -10.3230    6.4990    0.0430 C   0  0  2  0  0  0  0  0  0  0  0  0
   -9.0210    6.3110    0.8410 C   0  0  0  0  0  0  0  0  0  0  0  0
   -7.7730    6.7200    0.1300 C   0  0  0  0  0  0  0  0  0  0  0  0
   -7.6650    6.9490   -1.1920 C   0  0  0  0  0  0  0  0  0  0  0  0
   -8.8520    6.7060   -2.1330 C   0  0  1  0  0  0  0  0  0  0  0  0
   -8.3700    5.9210   -3.3810 C   0  0  0  0  0  0  0  0  0  0  0  0
   -7.1990    6.6000   -4.0830 C   0  0  0  0  0  0  0  0  0  0  0  0
   -6.0180    6.7720   -3.1310 C   0  0  2  0  0  0  0  0  0  0  0  0
   -5.5040    5.4790   -2.7970 O   0  0  0  0  0  0  0  0  0  0  0  0
   -6.3850    7.5410   -1.8320 C   0  0  0  0  0  0  0  0  0  0  0  0
   -6.6520    9.0290   -2.1660 C   0  0  0  0  0  0  0  0  0  0  0  0
   -5.1440    7.5210   -0.8980 C   0  0  0  0  0  0  0  0  0  0  0  0
  -10.1440    6.0620   -1.4680 C   0  0  1  0  0  0  0  0  0  0  0  0
  -10.0240    4.5070   -1.4700 C   0  0  0  0  0  0  0  0  0  0  0  0
  -11.4030    6.4120   -2.3450 C   0  0  0  0  0  0  0  0  0  0  0  0
  -12.1200    7.7390   -2.0330 C   0  0  0  0  0  0  0  0  0  0  0  0
  -12.3960    7.8730   -0.5320 C   0  0  2  0  0  0  0  0  0  0  0  0
  -13.3650    6.7120   -0.1180 C   0  0  0  0  0  0  0  0  0  0  0  0
  -14.6223    9.3929    1.8515 H   0  0  0  0  0  0  0  0  0  0  0  0
  -16.1224    9.9408    1.0291 H   0  0  0  0  0  0  0  0  0  0  0  0
  -15.6831    8.1991    1.0291 H   0  0  0  0  0  0  0  0  0  0  0  0
  -14.6783   10.4548   -0.6467 H   0  0  0  0  0  0  0  0  0  0  0  0
  -14.4513    7.5221   -1.3303 H   0  0  0  0  0  0  0  0  0  0  0  0
  -16.0741    8.3639   -1.3039 H   0  0  0  0  0  0  0  0  0  0  0  0
  -13.6697    9.0345   -3.0398 H   0  0  0  0  0  0  0  0  0  0  0  0
  -15.2791    8.3727   -3.5500 H   0  0  0  0  0  0  0  0  0  0  0  0
  -16.2336   10.1283   -2.5106 H   0  0  0  0  0  0  0  0  0  0  0  0
  -12.7870   11.5629   -1.5244 H   0  0  0  0  0  0  0  0  0  0  0  0
  -12.5568   10.6495   -3.0540 H   0  0  0  0  0  0  0  0  0  0  0  0
  -12.4506   12.4427   -3.0540 H   0  0  0  0  0  0  0  0  0  0  0  0
  -15.1513   13.0803   -1.4670 H   0  0  0  0  0  0  0  0  0  0  0  0
  -14.5046   13.7892   -2.9856 H   0  0  0  0  0  0  0  0  0  0  0  0
  -16.1049   12.9731   -2.9856 H   0  0  0  0  0  0  0  0  0  0  0  0
  -12.6069   10.0441   -0.6446 H   0  0  0  0  0  0  0  0  0  0  0  0
  -12.3249   10.2455    1.7471 H   0  0  0  0  0  0  0  0  0  0  0  0
  -13.5284    8.9801    2.0734 H   0  0  0  0  0  0  0  0  0  0  0  0
  -10.6940    8.6628    2.2527 H   0  0  0  0  0  0  0  0  0  0  0  0
  -11.8368    7.3227    2.2075 H   0  0  0  0  0  0  0  0  0  0  0  0
   -9.6909    9.5410    0.7582 H   0  0  0  0  0  0  0  0  0  0  0  0
   -9.2316    8.6786   -0.7491 H   0  0  0  0  0  0  0  0  0  0  0  0
  -10.6321    9.8034   -0.7491 H   0  0  0  0  0  0  0  0  0  0  0  0
  -11.0502    5.8062    0.4915 H   0  0  0  0  0  0  0  0  0  0  0  0
   -9.0980    6.9066    1.7626 H   0  0  0  0  0  0  0  0  0  0  0  0
   -8.9281    5.2300    1.0220 H   0  0  0  0  0  0  0  0  0  0  0  0
   -6.8650    6.8447    0.7383 H   0  0  0  0  0  0  0  0  0  0  0  0
   -9.2111    7.7014   -2.4334 H   0  0  0  0  0  0  0  0  0  0  0  0
   -8.0565    4.9150   -3.0653 H   0  0  0  0  0  0  0  0  0  0  0  0
   -9.2074    5.8795   -4.0931 H   0  0  0  0  0  0  0  0  0  0  0  0
   -6.8853    5.9834   -4.9382 H   0  0  0  0  0  0  0  0  0  0  0  0
   -7.5228    7.5943   -4.4242 H   0  0  0  0  0  0  0  0  0  0  0  0
   -5.2610    7.3785   -3.6499 H   0  0  0  0  0  0  0  0  0  0  0  0
   -5.9140    4.8340   -3.3980 H   0  0  0  0  0  0  0  0  0  0  0  0
   -6.7547    9.6016   -1.2324 H   0  0  0  0  0  0  0  0  0  0  0  0
   -5.8115    9.4299   -2.7514 H   0  0  0  0  0  0  0  0  0  0  0  0
   -7.5795    9.1127   -2.7514 H   0  0  0  0  0  0  0  0  0  0  0  0
   -5.4746    7.5263    0.1511 H   0  0  0  0  0  0  0  0  0  0  0  0
   -4.5538    6.6132   -1.0919 H   0  0  0  0  0  0  0  0  0  0  0  0
   -4.5248    8.4093   -1.0919 H   0  0  0  0  0  0  0  0  0  0  0  0
   -9.9957    4.1401   -0.4334 H   0  0  0  0  0  0  0  0  0  0  0  0
  -10.8913    4.0730   -1.9890 H   0  0  0  0  0  0  0  0  0  0  0  0
   -9.1004    4.2112   -1.9890 H   0  0  0  0  0  0  0  0  0  0  0  0
  -11.0772    6.4487   -3.3950 H   0  0  0  0  0  0  0  0  0  0  0  0
  -12.1392    5.6269   -2.1177 H   0  0  0  0  0  0  0  0  0  0  0  0
  -11.4851    8.5763   -2.3584 H   0  0  0  0  0  0  0  0  0  0  0  0
  -13.0804    7.7534   -2.5690 H   0  0  0  0  0  0  0  0  0  0  0  0
  -13.4161    6.6507    0.9791 H   0  0  0  0  0  0  0  0  0  0  0  0
  -14.3689    6.9109   -0.5213 H   0  0  0  0  0  0  0  0  0  0  0  0
  -12.9898    5.7599   -0.5213 H   0  0  0  0  0  0  0  0  0  0  0  0
  1  2  1  0
  2  3  1  0
  3  4  1  0
  4  5  1  0
  5  6  1  0
  6  7  1  0
  7  8  1  0
  7  9  1  0
  2 10  1  0
 10 11  1  0
 11 12  1  0
 12 13  1  0
 13 14  1  6
 13 15  1  0
 15 16  1  0
 16 17  1  0
 17 18  2  0
 18 19  1  0
 19 20  1  0
 20 21  1  0
 21 22  1  0
 22 23  1  0
 22 24  1  0
 24 25  1  0
 24 26  1  0
 19 27  1  0
 27 28  1  1
 27 29  1  0
 29 30  1  0
 30 31  1  0
 31 32  1  1
  7  5  1  0
 31 10  1  0
 31 13  1  0
 27 15  1  0
 24 18  1  0
  1 33  1  0
  1 34  1  0
  1 35  1  0
  2 36  1  6
  3 37  1  0
  3 38  1  0
  4 39  1  0
  4 40  1  0
  5 41  1  1
  8 42  1  0
  8 43  1  0
  8 44  1  0
  9 45  1  0
  9 46  1  0
  9 47  1  0
 10 48  1  6
 11 49  1  0
 11 50  1  0
 12 51  1  0
 12 52  1  0
 14 53  1  0
 14 54  1  0
 14 55  1  0
 15 56  1  1
 16 57  1  0
 16 58  1  0
 17 59  1  0
 19 60  1  6
 20 61  1  0
 20 62  1  0
 21 63  1  0
 21 64  1  0
 22 65  1  6
 23 66  1  0
 25 67  1  0
 25 68  1  0
 25 69  1  0
 26 70  1  0
 26 71  1  0
 26 72  1  0
 28 73  1  0
 28 74  1  0
 28 75  1  0
 29 76  1  0
 29 77  1  0
 30 78  1  0
 30 79  1  0
 32 80  1  0
 32 81  1  0
 32 82  1  0
M  END
>  <meeko>  (17) 
{"is_sidechain": [false], "intermolecular_energy": 2.731, "internal_energy": -0.839}

$$$$
