EPH_relaxed_0001_pdb2pqr_Repair_326_r2_0001_out
     RDKit          3D

 82 86  0  0  0  0  0  0  0  0999 V2000
   -0.9580    9.0680   -2.1200 C   0  0  0  0  0  0  0  0  0  0  0  0
   -1.3040    9.3220   -0.6500 C   0  0  2  0  0  0  0  0  0  0  0  0
   -2.8260    9.3290   -0.4040 C   0  0  0  0  0  0  0  0  0  0  0  0
   -3.5790    8.2420   -1.1760 C   0  0  0  0  0  0  0  0  0  0  0  0
   -5.0260    8.1890   -0.7880 C   0  0  2  0  0  0  0  0  0  0  0  0
   -5.4990    6.8860   -0.4220 O   0  0  0  0  0  0  0  0  0  0  0  0
   -6.0840    7.4650   -1.6000 C   0  0  0  0  0  0  0  0  0  0  0  0
   -5.7390    6.7460   -2.8660 C   0  0  0  0  0  0  0  0  0  0  0  0
   -7.5160    7.8650   -1.4280 C   0  0  0  0  0  0  0  0  0  0  0  0
   -0.6960   10.6430   -0.1940 C   0  0  1  0  0  0  0  0  0  0  0  0
    0.1910   10.4880    1.0710 C   0  0  0  0  0  0  0  0  0  0  0  0
    1.3570   11.4980    0.9250 C   0  0  0  0  0  0  0  0  0  0  0  0
    0.9290   12.4240   -0.2380 C   0  0  1  0  0  0  0  0  0  0  0  0
   -0.0490   13.4540    0.4090 C   0  0  0  0  0  0  0  0  0  0  0  0
    2.0840   13.1340   -1.0160 C   0  0  2  0  0  0  0  0  0  0  0  0
    2.9380   14.1020   -0.1770 C   0  0  0  0  0  0  0  0  0  0  0  0
    2.4610   15.5160   -0.1550 C   0  0  0  0  0  0  0  0  0  0  0  0
    1.5640   16.0530   -1.0020 C   0  0  0  0  0  0  0  0  0  0  0  0
    1.0020   15.2390   -2.1740 C   0  0  1  0  0  0  0  0  0  0  0  0
    1.0390   16.0970   -3.4660 C   0  0  0  0  0  0  0  0  0  0  0  0
    0.3340   17.4390   -3.2970 C   0  0  0  0  0  0  0  0  0  0  0  0
    0.9580   18.2440   -2.1610 C   0  0  2  0  0  0  0  0  0  0  0  0
    2.2900   18.6100   -2.5330 O   0  0  0  0  0  0  0  0  0  0  0  0
    0.9850   17.4770   -0.8090 C   0  0  0  0  0  0  0  0  0  0  0  0
   -0.4560   17.3450   -0.2560 C   0  0  0  0  0  0  0  0  0  0  0  0
    1.7660   18.3430    0.2160 C   0  0  0  0  0  0  0  0  0  0  0  0
    1.6340   13.7950   -2.3820 C   0  0  1  0  0  0  0  0  0  0  0  0
    2.9120   13.8970   -3.2690 C   0  0  0  0  0  0  0  0  0  0  0  0
    0.6140   12.8960   -3.1740 C   0  0  0  0  0  0  0  0  0  0  0  0
   -0.4270   12.1250   -2.3400 C   0  0  0  0  0  0  0  0  0  0  0  0
    0.2430   11.3740   -1.1860 C   0  0  2  0  0  0  0  0  0  0  0  0
    1.2170   10.3150   -1.8060 C   0  0  0  0  0  0  0  0  0  0  0  0
   -0.0727    8.4181   -2.1813 H   0  0  0  0  0  0  0  0  0  0  0  0
   -1.8079    8.5777   -2.6173 H   0  0  0  0  0  0  0  0  0  0  0  0
   -0.7449   10.0257   -2.6173 H   0  0  0  0  0  0  0  0  0  0  0  0
   -0.8792    8.4948   -0.0624 H   0  0  0  0  0  0  0  0  0  0  0  0
   -3.0048    9.1787    0.6709 H   0  0  0  0  0  0  0  0  0  0  0  0
   -3.2050   10.2980   -0.7609 H   0  0  0  0  0  0  0  0  0  0  0  0
   -3.5061    8.4539   -2.2529 H   0  0  0  0  0  0  0  0  0  0  0  0
   -3.1229    7.2707   -0.9341 H   0  0  0  0  0  0  0  0  0  0  0  0
   -4.9793    9.2098   -0.3809 H   0  0  0  0  0  0  0  0  0  0  0  0
   -5.2748    5.7787   -2.6235 H   0  0  0  0  0  0  0  0  0  0  0  0
   -6.6540    6.5768   -3.4526 H   0  0  0  0  0  0  0  0  0  0  0  0
   -5.0345    7.3539   -3.4526 H   0  0  0  0  0  0  0  0  0  0  0  0
   -7.7520    7.9309   -0.3556 H   0  0  0  0  0  0  0  0  0  0  0  0
   -7.6826    8.8441   -1.9010 H   0  0  0  0  0  0  0  0  0  0  0  0
   -8.1658    7.1140   -1.9010 H   0  0  0  0  0  0  0  0  0  0  0  0
   -1.6160   11.2277   -0.0465 H   0  0  0  0  0  0  0  0  0  0  0  0
   -0.3947   10.7134    1.9744 H   0  0  0  0  0  0  0  0  0  0  0  0
    0.5687    9.4592    1.1652 H   0  0  0  0  0  0  0  0  0  0  0  0
    1.4891   12.0750    1.8521 H   0  0  0  0  0  0  0  0  0  0  0  0
    2.3179   10.9998    0.7291 H   0  0  0  0  0  0  0  0  0  0  0  0
    0.0173   13.3842    1.5048 H   0  0  0  0  0  0  0  0  0  0  0  0
    0.2245   14.4703    0.0891 H   0  0  0  0  0  0  0  0  0  0  0  0
   -1.0781   13.2334    0.0891 H   0  0  0  0  0  0  0  0  0  0  0  0
    2.7480   12.2948   -1.2706 H   0  0  0  0  0  0  0  0  0  0  0  0
    2.9530   13.7320    0.8588 H   0  0  0  0  0  0  0  0  0  0  0  0
    3.9303   14.1224   -0.6513 H   0  0  0  0  0  0  0  0  0  0  0  0
    2.8785   16.1756    0.6200 H   0  0  0  0  0  0  0  0  0  0  0  0
   -0.0403   15.0067   -1.9101 H   0  0  0  0  0  0  0  0  0  0  0  0
    2.0890   16.2819   -3.7366 H   0  0  0  0  0  0  0  0  0  0  0  0
    0.5105   15.5388   -4.2529 H   0  0  0  0  0  0  0  0  0  0  0  0
    0.4197   18.0109   -4.2327 H   0  0  0  0  0  0  0  0  0  0  0  0
   -0.7228   17.2523   -3.0555 H   0  0  0  0  0  0  0  0  0  0  0  0
    0.3306   19.1338   -2.0041 H   0  0  0  0  0  0  0  0  0  0  0  0
    2.8590   17.8340   -2.3920 H   0  0  0  0  0  0  0  0  0  0  0  0
   -0.4284   17.3475    0.8437 H   0  0  0  0  0  0  0  0  0  0  0  0
   -1.0634   18.1913   -0.6095 H   0  0  0  0  0  0  0  0  0  0  0  0
   -0.8995   16.4025   -0.6095 H   0  0  0  0  0  0  0  0  0  0  0  0
    1.4919   18.0391    1.2370 H   0  0  0  0  0  0  0  0  0  0  0  0
    2.8467   18.2002    0.0686 H   0  0  0  0  0  0  0  0  0  0  0  0
    1.5127   19.4033    0.0686 H   0  0  0  0  0  0  0  0  0  0  0  0
    3.8008   13.9679   -2.6247 H   0  0  0  0  0  0  0  0  0  0  0  0
    2.9899   13.0022   -3.9041 H   0  0  0  0  0  0  0  0  0  0  0  0
    2.8470   14.7928   -3.9041 H   0  0  0  0  0  0  0  0  0  0  0  0
    0.0658   13.5485   -3.8695 H   0  0  0  0  0  0  0  0  0  0  0  0
    1.2279   12.1206   -3.6555 H   0  0  0  0  0  0  0  0  0  0  0  0
   -1.1582   12.8370   -1.9296 H   0  0  0  0  0  0  0  0  0  0  0  0
   -0.9264   11.3931   -2.9919 H   0  0  0  0  0  0  0  0  0  0  0  0
    1.7228    9.7651   -0.9987 H   0  0  0  0  0  0  0  0  0  0  0  0
    0.6450    9.6102   -2.4273 H   0  0  0  0  0  0  0  0  0  0  0  0
    1.9671   10.8262   -2.4273 H   0  0  0  0  0  0  0  0  0  0  0  0
  1  2  1  0
  2  3  1  0
  3  4  1  0
  4  5  1  0
  5  6  1  0
  6  7  1  0
  7  8  1  0
  7  9  1  0
  2 10  1  0
 10 11  1  0
 11 12  1  0
 12 13  1  0
 13 14  1  1
 13 15  1  0
 15 16  1  0
 16 17  1  0
 17 18  2  0
 18 19  1  0
 19 20  1  0
 20 21  1  0
 21 22  1  0
 22 23  1  0
 22 24  1  0
 24 25  1  0
 24 26  1  0
 19 27  1  0
 27 28  1  6
 27 29  1  0
 29 30  1  0
 30 31  1  0
 31 32  1  6
  7  5  1  0
 31 10  1  0
 31 13  1  0
 27 15  1  0
 24 18  1  0
  1 33  1  0
  1 34  1  0
  1 35  1  0
  2 36  1  1
  3 37  1  0
  3 38  1  0
  4 39  1  0
  4 40  1  0
  5 41  1  1
  8 42  1  0
  8 43  1  0
  8 44  1  0
  9 45  1  0
  9 46  1  0
  9 47  1  0
 10 48  1  1
 11 49  1  0
 11 50  1  0
 12 51  1  0
 12 52  1  0
 14 53  1  0
 14 54  1  0
 14 55  1  0
 15 56  1  6
 16 57  1  0
 16 58  1  0
 17 59  1  0
 19 60  1  1
 20 61  1  0
 20 62  1  0
 21 63  1  0
 21 64  1  0
 22 65  1  1
 23 66  1  0
 25 67  1  0
 25 68  1  0
 25 69  1  0
 26 70  1  0
 26 71  1  0
 26 72  1  0
 28 73  1  0
 28 74  1  0
 28 75  1  0
 29 76  1  0
 29 77  1  0
 30 78  1  0
 30 79  1  0
 32 80  1  0
 32 81  1  0
 32 82  1  0
M  END
>  <meeko>  (1) 
{"is_sidechain": [false], "intermolecular_energy": 2.731, "internal_energy": -0.839}

$$$$
EPH_relaxed_0001_pdb2pqr_Repair_326_r2_0001_out
     RDKit          3D

 82 86  0  0  0  0  0  0  0  0999 V2000
    2.7890   17.1790    0.2700 C   0  0  0  0  0  0  0  0  0  0  0  0
    2.3320   17.3420   -1.1820 C   0  0  2  0  0  0  0  0  0  0  0  0
    1.5950   18.6770   -1.4130 C   0  0  0  0  0  0  0  0  0  0  0  0
    1.2820   19.4380   -0.1220 C   0  0  0  0  0  0  0  0  0  0  0  0
   -0.0590   20.1050   -0.1830 C   0  0  2  0  0  0  0  0  0  0  0  0
   -0.7410   20.1940    1.0750 O   0  0  0  0  0  0  0  0  0  0  0  0
   -1.3670   19.3800    0.0700 C   0  0  0  0  0  0  0  0  0  0  0  0
   -1.3980   17.9210    0.4020 C   0  0  0  0  0  0  0  0  0  0  0  0
   -2.6290   19.9660   -0.4820 C   0  0  0  0  0  0  0  0  0  0  0  0
    1.4330   16.1760   -1.5780 C   0  0  1  0  0  0  0  0  0  0  0  0
    0.7100   16.4120   -2.9310 C   0  0  0  0  0  0  0  0  0  0  0  0
    0.6070   15.0310   -3.6290 C   0  0  0  0  0  0  0  0  0  0  0  0
    0.9680   14.0090   -2.5270 C   0  0  1  0  0  0  0  0  0  0  0  0
   -0.3440   13.8290   -1.7010 C   0  0  0  0  0  0  0  0  0  0  0  0
    1.5340   12.6360   -3.0160 C   0  0  2  0  0  0  0  0  0  0  0  0
    0.5700   11.8020   -3.8780 C   0  0  0  0  0  0  0  0  0  0  0  0
   -0.3030   10.8550   -3.1230 C   0  0  0  0  0  0  0  0  0  0  0  0
   -0.1200   10.4710   -1.8460 C   0  0  0  0  0  0  0  0  0  0  0  0
    1.1130   10.9280   -1.0550 C   0  0  1  0  0  0  0  0  0  0  0  0
    1.7340    9.7120   -0.3170 C   0  0  0  0  0  0  0  0  0  0  0  0
    0.7210    8.9780    0.5550 C   0  0  0  0  0  0  0  0  0  0  0  0
   -0.4620    8.4890   -0.2770 C   0  0  2  0  0  0  0  0  0  0  0  0
   -0.0040    7.4790   -1.1810 O   0  0  0  0  0  0  0  0  0  0  0  0
   -1.1620    9.6250   -1.0740 C   0  0  0  0  0  0  0  0  0  0  0  0
   -1.9170   10.5590   -0.0950 C   0  0  0  0  0  0  0  0  0  0  0  0
   -2.2450    8.9770   -1.9780 C   0  0  0  0  0  0  0  0  0  0  0  0
    2.1920   11.7610   -1.8730 C   0  0  1  0  0  0  0  0  0  0  0  0
    3.1930   10.7930   -2.5730 C   0  0  0  0  0  0  0  0  0  0  0  0
    3.0400   12.6280   -0.8690 C   0  0  0  0  0  0  0  0  0  0  0  0
    2.4890   14.0230   -0.5170 C   0  0  0  0  0  0  0  0  0  0  0  0
    2.1080   14.7970   -1.7830 C   0  0  2  0  0  0  0  0  0  0  0  0
    3.4120   15.0120   -2.6240 C   0  0  0  0  0  0  0  0  0  0  0  0
    1.9720   17.4704    0.9464 H   0  0  0  0  0  0  0  0  0  0  0  0
    3.0600   16.1288    0.4534 H   0  0  0  0  0  0  0  0  0  0  0  0
    3.6634   17.8207    0.4534 H   0  0  0  0  0  0  0  0  0  0  0  0
    3.2328   17.3486   -1.8133 H   0  0  0  0  0  0  0  0  0  0  0  0
    2.2251   19.3162   -2.0489 H   0  0  0  0  0  0  0  0  0  0  0  0
    0.6315   18.4350   -1.8854 H   0  0  0  0  0  0  0  0  0  0  0  0
    1.2901   18.7302    0.7200 H   0  0  0  0  0  0  0  0  0  0  0  0
    2.0469   20.2173    0.0108 H   0  0  0  0  0  0  0  0  0  0  0  0
    0.2764   20.7562   -1.0036 H   0  0  0  0  0  0  0  0  0  0  0  0
   -1.4007   17.7936    1.4946 H   0  0  0  0  0  0  0  0  0  0  0  0
   -2.3060   17.4676   -0.0223 H   0  0  0  0  0  0  0  0  0  0  0  0
   -0.5101   17.4295   -0.0223 H   0  0  0  0  0  0  0  0  0  0  0  0
   -3.2850   20.2706    0.3468 H   0  0  0  0  0  0  0  0  0  0  0  0
   -2.3864   20.8436   -1.0992 H   0  0  0  0  0  0  0  0  0  0  0  0
   -3.1430   19.2144   -1.0992 H   0  0  0  0  0  0  0  0  0  0  0  0
    0.7722   16.1447   -0.6991 H   0  0  0  0  0  0  0  0  0  0  0  0
   -0.2948   16.8245   -2.7569 H   0  0  0  0  0  0  0  0  0  0  0  0
    1.2628   17.1299   -3.5547 H   0  0  0  0  0  0  0  0  0  0  0  0
   -0.4143   14.8583   -3.9992 H   0  0  0  0  0  0  0  0  0  0  0  0
    1.2713   14.9546   -4.5025 H   0  0  0  0  0  0  0  0  0  0  0  0
   -0.1085   13.8613   -0.6270 H   0  0  0  0  0  0  0  0  0  0  0  0
   -1.0462   14.6392   -1.9469 H   0  0  0  0  0  0  0  0  0  0  0  0
   -0.8020   12.8596   -1.9469 H   0  0  0  0  0  0  0  0  0  0  0  0
    2.3471   12.9436   -3.6900 H   0  0  0  0  0  0  0  0  0  0  0  0
   -0.0798   12.4967   -4.4303 H   0  0  0  0  0  0  0  0  0  0  0  0
    1.2031   11.1802   -4.5281 H   0  0  0  0  0  0  0  0  0  0  0  0
   -1.1693   10.4355   -3.6555 H   0  0  0  0  0  0  0  0  0  0  0  0
    0.7494   11.6639   -0.3227 H   0  0  0  0  0  0  0  0  0  0  0  0
    2.1296    9.0096   -1.0655 H   0  0  0  0  0  0  0  0  0  0  0  0
    2.5290   10.0915    0.3418 H   0  0  0  0  0  0  0  0  0  0  0  0
    1.2113    8.1136    1.0265 H   0  0  0  0  0  0  0  0  0  0  0  0
    0.3479    9.6736    1.3211 H   0  0  0  0  0  0  0  0  0  0  0  0
   -1.2118    8.0874    0.4205 H   0  0  0  0  0  0  0  0  0  0  0  0
   -0.6990    6.8020   -1.2430 H   0  0  0  0  0  0  0  0  0  0  0  0
   -1.6837   10.2704    0.9405 H   0  0  0  0  0  0  0  0  0  0  0  0
   -1.6032   11.5994   -0.2653 H   0  0  0  0  0  0  0  0  0  0  0  0
   -3.0001   10.4702   -0.2653 H   0  0  0  0  0  0  0  0  0  0  0  0
   -3.0190    8.5139   -1.3484 H   0  0  0  0  0  0  0  0  0  0  0  0
   -2.7028    9.7497   -2.6131 H   0  0  0  0  0  0  0  0  0  0  0  0
   -1.7805    8.2083   -2.6131 H   0  0  0  0  0  0  0  0  0  0  0  0
    3.7633   10.2415   -1.8111 H   0  0  0  0  0  0  0  0  0  0  0  0
    2.6367   10.0815   -3.2010 H   0  0  0  0  0  0  0  0  0  0  0  0
    3.8854   11.3728   -3.2010 H   0  0  0  0  0  0  0  0  0  0  0  0
    3.1289   12.0593    0.0684 H   0  0  0  0  0  0  0  0  0  0  0  0
    3.9922   12.8174   -1.3863 H   0  0  0  0  0  0  0  0  0  0  0  0
    1.5973   13.9084    0.1168 H   0  0  0  0  0  0  0  0  0  0  0  0
    3.2703   14.5847    0.0160 H   0  0  0  0  0  0  0  0  0  0  0  0
    4.2666   15.1529   -1.9459 H   0  0  0  0  0  0  0  0  0  0  0  0
    3.5887   14.1309   -3.2583 H   0  0  0  0  0  0  0  0  0  0  0  0
    3.2964   15.9032   -3.2583 H   0  0  0  0  0  0  0  0  0  0  0  0
  1  2  1  0
  2  3  1  0
  3  4  1  0
  4  5  1  0
  5  6  1  0
  6  7  1  0
  7  8  1  0
  7  9  1  0
  2 10  1  0
 10 11  1  0
 11 12  1  0
 12 13  1  0
 13 14  1  1
 13 15  1  0
 15 16  1  0
 16 17  1  0
 17 18  2  0
 18 19  1  0
 19 20  1  0
 20 21  1  0
 21 22  1  0
 22 23  1  0
 22 24  1  0
 24 25  1  0
 24 26  1  0
 19 27  1  0
 27 28  1  6
 27 29  1  0
 29 30  1  0
 30 31  1  0
 31 32  1  6
  7  5  1  0
 31 10  1  0
 31 13  1  0
 27 15  1  0
 24 18  1  0
  1 33  1  0
  1 34  1  0
  1 35  1  0
  2 36  1  6
  3 37  1  0
  3 38  1  0
  4 39  1  0
  4 40  1  0
  5 41  1  6
  8 42  1  0
  8 43  1  0
  8 44  1  0
  9 45  1  0
  9 46  1  0
  9 47  1  0
 10 48  1  1
 11 49  1  0
 11 50  1  0
 12 51  1  0
 12 52  1  0
 14 53  1  0
 14 54  1  0
 14 55  1  0
 15 56  1  6
 16 57  1  0
 16 58  1  0
 17 59  1  0
 19 60  1  1
 20 61  1  0
 20 62  1  0
 21 63  1  0
 21 64  1  0
 22 65  1  1
 23 66  1  0
 25 67  1  0
 25 68  1  0
 25 69  1  0
 26 70  1  0
 26 71  1  0
 26 72  1  0
 28 73  1  0
 28 74  1  0
 28 75  1  0
 29 76  1  0
 29 77  1  0
 30 78  1  0
 30 79  1  0
 32 80  1  0
 32 81  1  0
 32 82  1  0
M  END
>  <meeko>  (2) 
{"is_sidechain": [false], "intermolecular_energy": 2.731, "internal_energy": -0.839}

$$$$
EPH_relaxed_0001_pdb2pqr_Repair_326_r2_0001_out
     RDKit          3D

 82 86  0  0  0  0  0  0  0  0999 V2000
    4.5120   17.2660   -0.5770 C   0  0  0  0  0  0  0  0  0  0  0  0
    3.1510   17.9050   -0.2900 C   0  0  2  0  0  0  0  0  0  0  0  0
    3.1210   18.6190    1.0760 C   0  0  0  0  0  0  0  0  0  0  0  0
    4.3610   18.3560    1.9350 C   0  0  0  0  0  0  0  0  0  0  0  0
    4.2940   19.0860    3.2430 C   0  0  2  0  0  0  0  0  0  0  0  0
    5.2700   20.1240    3.3990 O   0  0  0  0  0  0  0  0  0  0  0  0
    5.3800   19.0100    4.2990 C   0  0  0  0  0  0  0  0  0  0  0  0
    6.6110   18.1830    4.0960 C   0  0  0  0  0  0  0  0  0  0  0  0
    5.0260   19.3410    5.7150 C   0  0  0  0  0  0  0  0  0  0  0  0
    2.0560   16.8460   -0.3500 C   0  0  1  0  0  0  0  0  0  0  0  0
    0.6710   17.4400   -0.7190 C   0  0  0  0  0  0  0  0  0  0  0  0
   -0.0580   16.3730   -1.5760 C   0  0  0  0  0  0  0  0  0  0  0  0
    0.7810   15.0870   -1.3960 C   0  0  1  0  0  0  0  0  0  0  0  0
    0.3150   14.4910   -0.0310 C   0  0  0  0  0  0  0  0  0  0  0  0
    0.6880   14.0340   -2.5480 C   0  0  2  0  0  0  0  0  0  0  0  0
   -0.7110   13.4350   -2.7720 C   0  0  0  0  0  0  0  0  0  0  0  0
   -1.0070   12.1950   -1.9950 C   0  0  0  0  0  0  0  0  0  0  0  0
   -0.0940   11.4280   -1.3710 C   0  0  0  0  0  0  0  0  0  0  0  0
    1.4050   11.7280   -1.4930 C   0  0  1  0  0  0  0  0  0  0  0  0
    2.1740   10.4150   -1.7940 C   0  0  0  0  0  0  0  0  0  0  0  0
    1.8810    9.3190   -0.7750 C   0  0  0  0  0  0  0  0  0  0  0  0
    0.3870    9.0070   -0.7240 C   0  0  2  0  0  0  0  0  0  0  0  0
   -0.0040    8.4200   -1.9690 O   0  0  0  0  0  0  0  0  0  0  0  0
   -0.4900   10.2570   -0.4370 C   0  0  0  0  0  0  0  0  0  0  0  0
   -0.2830   10.7140    1.0290 C   0  0  0  0  0  0  0  0  0  0  0  0
   -1.9790    9.8330   -0.5520 C   0  0  0  0  0  0  0  0  0  0  0  0
    1.7970   12.9060   -2.4860 C   0  0  1  0  0  0  0  0  0  0  0  0
    1.9490   12.3520   -3.9360 C   0  0  0  0  0  0  0  0  0  0  0  0
    3.2070   13.4750   -2.0780 C   0  0  0  0  0  0  0  0  0  0  0  0
    3.2250   14.5970   -1.0220 C   0  0  0  0  0  0  0  0  0  0  0  0
    2.2280   15.7030   -1.3810 C   0  0  2  0  0  0  0  0  0  0  0  0
    2.6850   16.3370   -2.7390 C   0  0  0  0  0  0  0  0  0  0  0  0
    5.0140   17.0303    0.3730 H   0  0  0  0  0  0  0  0  0  0  0  0
    4.3683   16.3413   -1.1551 H   0  0  0  0  0  0  0  0  0  0  0  0
    5.1317   17.9672   -1.1551 H   0  0  0  0  0  0  0  0  0  0  0  0
    2.9733   18.6666   -1.0636 H   0  0  0  0  0  0  0  0  0  0  0  0
    3.0436   19.7021    0.9002 H   0  0  0  0  0  0  0  0  0  0  0  0
    2.2569   18.2208    1.6281 H   0  0  0  0  0  0  0  0  0  0  0  0
    4.4355   17.2765    2.1326 H   0  0  0  0  0  0  0  0  0  0  0  0
    5.2424   18.7176    1.3850 H   0  0  0  0  0  0  0  0  0  0  0  0
    3.2043   18.9445    3.2938 H   0  0  0  0  0  0  0  0  0  0  0  0
    7.0293   17.9020    5.0738 H   0  0  0  0  0  0  0  0  0  0  0  0
    6.3533   17.2741    3.5325 H   0  0  0  0  0  0  0  0  0  0  0  0
    7.3550   18.7652    3.5325 H   0  0  0  0  0  0  0  0  0  0  0  0
    5.6560   18.7519    6.3977 H   0  0  0  0  0  0  0  0  0  0  0  0
    5.1943   20.4132    5.8940 H   0  0  0  0  0  0  0  0  0  0  0  0
    3.9675   19.1011    5.8940 H   0  0  0  0  0  0  0  0  0  0  0  0
    2.1309   16.4446    0.6714 H   0  0  0  0  0  0  0  0  0  0  0  0
    0.0943   17.6520    0.1934 H   0  0  0  0  0  0  0  0  0  0  0  0
    0.7804   18.3844   -1.2723 H   0  0  0  0  0  0  0  0  0  0  0  0
   -1.0854   16.2200   -1.2139 H   0  0  0  0  0  0  0  0  0  0  0  0
   -0.1414   16.6719   -2.6313 H   0  0  0  0  0  0  0  0  0  0  0  0
    0.7642   15.0656    0.7924 H   0  0  0  0  0  0  0  0  0  0  0  0
   -0.7814   14.5469    0.0383 H   0  0  0  0  0  0  0  0  0  0  0  0
    0.6337   13.4405    0.0383 H   0  0  0  0  0  0  0  0  0  0  0  0
    0.8997   14.6408   -3.4407 H   0  0  0  0  0  0  0  0  0  0  0  0
   -1.4549   14.1960   -2.4935 H   0  0  0  0  0  0  0  0  0  0  0  0
   -0.7513   13.1458   -3.8325 H   0  0  0  0  0  0  0  0  0  0  0  0
   -2.0594   11.8821   -1.9268 H   0  0  0  0  0  0  0  0  0  0  0  0
    1.7158   12.1261   -0.5158 H   0  0  0  0  0  0  0  0  0  0  0  0
    1.8817   10.0560   -2.7918 H   0  0  0  0  0  0  0  0  0  0  0  0
    3.2498   10.6390   -1.7434 H   0  0  0  0  0  0  0  0  0  0  0  0
    2.4295    8.4084   -1.0578 H   0  0  0  0  0  0  0  0  0  0  0  0
    2.2011    9.6679    0.2179 H   0  0  0  0  0  0  0  0  0  0  0  0
    0.2235    8.3109    0.1119 H   0  0  0  0  0  0  0  0  0  0  0  0
   -0.6950    8.9840   -2.3560 H   0  0  0  0  0  0  0  0  0  0  0  0
   -0.6389    9.9283    1.7117 H   0  0  0  0  0  0  0  0  0  0  0  0
    0.7865   10.8985    1.2080 H   0  0  0  0  0  0  0  0  0  0  0  0
   -0.8497   11.6396    1.2080 H   0  0  0  0  0  0  0  0  0  0  0  0
   -2.4046    9.7118    0.4551 H   0  0  0  0  0  0  0  0  0  0  0  0
   -2.5397   10.6072   -1.0963 H   0  0  0  0  0  0  0  0  0  0  0  0
   -2.0478    8.8796   -1.0963 H   0  0  0  0  0  0  0  0  0  0  0  0
    2.2398   11.2919   -3.8949 H   0  0  0  0  0  0  0  0  0  0  0  0
    0.9910   12.4490   -4.4679 H   0  0  0  0  0  0  0  0  0  0  0  0
    2.7233   12.9243   -4.4679 H   0  0  0  0  0  0  0  0  0  0  0  0
    3.8023   12.6380   -1.6842 H   0  0  0  0  0  0  0  0  0  0  0  0
    3.6072   13.9352   -2.9934 H   0  0  0  0  0  0  0  0  0  0  0  0
    2.9562   14.1740   -0.0428 H   0  0  0  0  0  0  0  0  0  0  0  0
    4.2348   15.0319   -0.9891 H   0  0  0  0  0  0  0  0  0  0  0  0
    3.3175   17.2145   -2.5395 H   0  0  0  0  0  0  0  0  0  0  0  0
    3.2577   15.5956   -3.3154 H   0  0  0  0  0  0  0  0  0  0  0  0
    1.8006   16.6460   -3.3154 H   0  0  0  0  0  0  0  0  0  0  0  0
  1  2  1  0
  2  3  1  0
  3  4  1  0
  4  5  1  0
  5  6  1  0
  6  7  1  0
  7  8  1  0
  7  9  1  0
  2 10  1  0
 10 11  1  0
 11 12  1  0
 12 13  1  0
 13 14  1  1
 13 15  1  0
 15 16  1  0
 16 17  1  0
 17 18  2  0
 18 19  1  0
 19 20  1  0
 20 21  1  0
 21 22  1  0
 22 23  1  0
 22 24  1  0
 24 25  1  0
 24 26  1  0
 19 27  1  0
 27 28  1  6
 27 29  1  0
 29 30  1  0
 30 31  1  0
 31 32  1  6
  7  5  1  0
 31 10  1  0
 31 13  1  0
 27 15  1  0
 24 18  1  0
  1 33  1  0
  1 34  1  0
  1 35  1  0
  2 36  1  6
  3 37  1  0
  3 38  1  0
  4 39  1  0
  4 40  1  0
  5 41  1  1
  8 42  1  0
  8 43  1  0
  8 44  1  0
  9 45  1  0
  9 46  1  0
  9 47  1  0
 10 48  1  1
 11 49  1  0
 11 50  1  0
 12 51  1  0
 12 52  1  0
 14 53  1  0
 14 54  1  0
 14 55  1  0
 15 56  1  6
 16 57  1  0
 16 58  1  0
 17 59  1  0
 19 60  1  1
 20 61  1  0
 20 62  1  0
 21 63  1  0
 21 64  1  0
 22 65  1  1
 23 66  1  0
 25 67  1  0
 25 68  1  0
 25 69  1  0
 26 70  1  0
 26 71  1  0
 26 72  1  0
 28 73  1  0
 28 74  1  0
 28 75  1  0
 29 76  1  0
 29 77  1  0
 30 78  1  0
 30 79  1  0
 32 80  1  0
 32 81  1  0
 32 82  1  0
M  END
>  <meeko>  (3) 
{"is_sidechain": [false], "intermolecular_energy": 2.731, "internal_energy": -0.839}

$$$$
EPH_relaxed_0001_pdb2pqr_Repair_326_r2_0001_out
     RDKit          3D

 82 86  0  0  0  0  0  0  0  0999 V2000
   -0.6830    7.8370   -0.5780 C   0  0  0  0  0  0  0  0  0  0  0  0
   -1.0710    9.2080   -0.0160 C   0  0  2  0  0  0  0  0  0  0  0  0
   -2.3350    9.7760   -0.6910 C   0  0  0  0  0  0  0  0  0  0  0  0
   -3.6410    9.3050   -0.0460 C   0  0  0  0  0  0  0  0  0  0  0  0
   -4.0390    7.9430   -0.5280 C   0  0  2  0  0  0  0  0  0  0  0  0
   -4.1350    7.8170   -1.9530 O   0  0  0  0  0  0  0  0  0  0  0  0
   -5.3590    7.6520   -1.2190 C   0  0  0  0  0  0  0  0  0  0  0  0
   -6.3660    8.7320   -1.4640 C   0  0  0  0  0  0  0  0  0  0  0  0
   -5.8740    6.2470   -1.2140 C   0  0  0  0  0  0  0  0  0  0  0  0
    0.0890   10.1830   -0.1790 C   0  0  1  0  0  0  0  0  0  0  0  0
    1.4670    9.4700   -0.2320 C   0  0  0  0  0  0  0  0  0  0  0  0
    2.3530   10.2810   -1.2120 C   0  0  0  0  0  0  0  0  0  0  0  0
    1.5820   11.6030   -1.4320 C   0  0  1  0  0  0  0  0  0  0  0  0
    1.9320   12.4820   -0.1900 C   0  0  0  0  0  0  0  0  0  0  0  0
    1.8690   12.3560   -2.7720 C   0  0  2  0  0  0  0  0  0  0  0  0
    3.3200   12.8350   -2.9530 C   0  0  0  0  0  0  0  0  0  0  0  0
    3.6070   14.2090   -2.4460 C   0  0  0  0  0  0  0  0  0  0  0  0
    2.6820   15.1340   -2.1280 C   0  0  0  0  0  0  0  0  0  0  0  0
    1.1890   14.8680   -2.3620 C   0  0  1  0  0  0  0  0  0  0  0  0
    0.5440   16.1030   -3.0440 C   0  0  0  0  0  0  0  0  0  0  0  0
    0.7920   17.3950   -2.2710 C   0  0  0  0  0  0  0  0  0  0  0  0
    2.2880   17.6550   -2.1090 C   0  0  2  0  0  0  0  0  0  0  0  0
    2.8510   17.9220   -3.3970 O   0  0  0  0  0  0  0  0  0  0  0  0
    3.0460   16.4740   -1.4410 C   0  0  0  0  0  0  0  0  0  0  0  0
    2.6490   16.3780    0.0530 C   0  0  0  0  0  0  0  0  0  0  0  0
    4.5630   16.8050   -1.4670 C   0  0  0  0  0  0  0  0  0  0  0  0
    0.8350   13.5080   -3.1030 C   0  0  1  0  0  0  0  0  0  0  0  0
    0.8800   13.7160   -4.6470 C   0  0  0  0  0  0  0  0  0  0  0  0
   -0.6450   13.1010   -2.7520 C   0  0  0  0  0  0  0  0  0  0  0  0
   -0.8510   12.2560   -1.4800 C   0  0  0  0  0  0  0  0  0  0  0  0
    0.1070   11.0610   -1.4550 C   0  0  2  0  0  0  0  0  0  0  0  0
   -0.2370   10.1470   -2.6800 C   0  0  0  0  0  0  0  0  0  0  0  0
   -0.4865    7.1427    0.2522 H   0  0  0  0  0  0  0  0  0  0  0  0
   -1.5061    7.4473   -1.1949 H   0  0  0  0  0  0  0  0  0  0  0  0
    0.2223    7.9364   -1.1949 H   0  0  0  0  0  0  0  0  0  0  0  0
   -1.2987    9.0755    1.0520 H   0  0  0  0  0  0  0  0  0  0  0  0
   -2.2957   10.8738   -0.6341 H   0  0  0  0  0  0  0  0  0  0  0  0
   -2.3380    9.4096   -1.7282 H   0  0  0  0  0  0  0  0  0  0  0  0
   -3.5076    9.2718    1.0454 H   0  0  0  0  0  0  0  0  0  0  0  0
   -4.4355   10.0127   -0.3253 H   0  0  0  0  0  0  0  0  0  0  0  0
   -3.5318    7.4673    0.3243 H   0  0  0  0  0  0  0  0  0  0  0  0
   -6.7284    9.1207   -0.5009 H   0  0  0  0  0  0  0  0  0  0  0  0
   -5.8979    9.5470   -2.0356 H   0  0  0  0  0  0  0  0  0  0  0  0
   -7.2117    8.3220   -2.0356 H   0  0  0  0  0  0  0  0  0  0  0  0
   -5.9990    5.9060   -0.1757 H   0  0  0  0  0  0  0  0  0  0  0  0
   -6.8441    6.2102   -1.7313 H   0  0  0  0  0  0  0  0  0  0  0  0
   -5.1575    5.5920   -1.7313 H   0  0  0  0  0  0  0  0  0  0  0  0
   -0.0743   10.8120    0.7085 H   0  0  0  0  0  0  0  0  0  0  0  0
    1.9244    9.4550    0.7683 H   0  0  0  0  0  0  0  0  0  0  0  0
    1.3597    8.4277   -0.5669 H   0  0  0  0  0  0  0  0  0  0  0  0
    3.3414   10.4767   -0.7707 H   0  0  0  0  0  0  0  0  0  0  0  0
    2.5344    9.7422   -2.1537 H   0  0  0  0  0  0  0  0  0  0  0  0
    1.7090   11.9220    0.7301 H   0  0  0  0  0  0  0  0  0  0  0  0
    3.0012   12.7394   -0.2125 H   0  0  0  0  0  0  0  0  0  0  0  0
    1.3324   13.4039   -0.2125 H   0  0  0  0  0  0  0  0  0  0  0  0
    1.7185   11.5665   -3.5230 H   0  0  0  0  0  0  0  0  0  0  0  0
    3.9785   12.1323   -2.4213 H   0  0  0  0  0  0  0  0  0  0  0  0
    3.4955   12.8689   -4.0384 H   0  0  0  0  0  0  0  0  0  0  0  0
    4.6633   14.4896   -2.3217 H   0  0  0  0  0  0  0  0  0  0  0  0
    0.7470   14.7180   -1.3659 H   0  0  0  0  0  0  0  0  0  0  0  0
    0.9675   16.2094   -4.0536 H   0  0  0  0  0  0  0  0  0  0  0  0
   -0.5429   15.9368   -3.0761 H   0  0  0  0  0  0  0  0  0  0  0  0
    0.3378   18.2345   -2.8177 H   0  0  0  0  0  0  0  0  0  0  0  0
    0.3420   17.2984   -1.2719 H   0  0  0  0  0  0  0  0  0  0  0  0
    2.4025   18.5196   -1.4387 H   0  0  0  0  0  0  0  0  0  0  0  0
    3.8180   17.8710   -3.3110 H   0  0  0  0  0  0  0  0  0  0  0  0
    3.5274   16.5904    0.6802 H   0  0  0  0  0  0  0  0  0  0  0  0
    1.8577   17.1107    0.2699 H   0  0  0  0  0  0  0  0  0  0  0  0
    2.2799   15.3647    0.2699 H   0  0  0  0  0  0  0  0  0  0  0  0
    4.9381   16.8869   -0.4362 H   0  0  0  0  0  0  0  0  0  0  0  0
    5.1042   16.0038   -1.9916 H   0  0  0  0  0  0  0  0  0  0  0  0
    4.7212   17.7588   -1.9916 H   0  0  0  0  0  0  0  0  0  0  0  0
    1.1078   14.7691   -4.8686 H   0  0  0  0  0  0  0  0  0  0  0  0
    1.6598   13.0729   -5.0810 H   0  0  0  0  0  0  0  0  0  0  0  0
   -0.0959   13.4528   -5.0810 H   0  0  0  0  0  0  0  0  0  0  0  0
   -1.2256   14.0277   -2.6333 H   0  0  0  0  0  0  0  0  0  0  0  0
   -0.9701   12.4558   -3.5815 H   0  0  0  0  0  0  0  0  0  0  0  0
   -0.6656   12.8845   -0.5965 H   0  0  0  0  0  0  0  0  0  0  0  0
   -1.8839   11.8779   -1.4734 H   0  0  0  0  0  0  0  0  0  0  0  0
   -0.6032    9.1741   -2.3202 H   0  0  0  0  0  0  0  0  0  0  0  0
   -1.0153   10.6289   -3.2900 H   0  0  0  0  0  0  0  0  0  0  0  0
    0.6659    9.9962   -3.2900 H   0  0  0  0  0  0  0  0  0  0  0  0
  1  2  1  0
  2  3  1  0
  3  4  1  0
  4  5  1  0
  5  6  1  0
  6  7  1  0
  7  8  1  0
  7  9  1  0
  2 10  1  0
 10 11  1  0
 11 12  1  0
 12 13  1  0
 13 14  1  1
 13 15  1  0
 15 16  1  0
 16 17  1  0
 17 18  2  0
 18 19  1  0
 19 20  1  0
 20 21  1  0
 21 22  1  0
 22 23  1  0
 22 24  1  0
 24 25  1  0
 24 26  1  0
 19 27  1  0
 27 28  1  6
 27 29  1  0
 29 30  1  0
 30 31  1  0
 31 32  1  6
  7  5  1  0
 31 10  1  0
 31 13  1  0
 27 15  1  0
 24 18  1  0
  1 33  1  0
  1 34  1  0
  1 35  1  0
  2 36  1  1
  3 37  1  0
  3 38  1  0
  4 39  1  0
  4 40  1  0
  5 41  1  1
  8 42  1  0
  8 43  1  0
  8 44  1  0
  9 45  1  0
  9 46  1  0
  9 47  1  0
 10 48  1  1
 11 49  1  0
 11 50  1  0
 12 51  1  0
 12 52  1  0
 14 53  1  0
 14 54  1  0
 14 55  1  0
 15 56  1  6
 16 57  1  0
 16 58  1  0
 17 59  1  0
 19 60  1  1
 20 61  1  0
 20 62  1  0
 21 63  1  0
 21 64  1  0
 22 65  1  1
 23 66  1  0
 25 67  1  0
 25 68  1  0
 25 69  1  0
 26 70  1  0
 26 71  1  0
 26 72  1  0
 28 73  1  0
 28 74  1  0
 28 75  1  0
 29 76  1  0
 29 77  1  0
 30 78  1  0
 30 79  1  0
 32 80  1  0
 32 81  1  0
 32 82  1  0
M  END
>  <meeko>  (4) 
{"is_sidechain": [false], "intermolecular_energy": 2.731, "internal_energy": -0.839}

$$$$
EPH_relaxed_0001_pdb2pqr_Repair_326_r2_0001_out
     RDKit          3D

 82 86  0  0  0  0  0  0  0  0999 V2000
    0.4320    9.0970   -2.3050 C   0  0  0  0  0  0  0  0  0  0  0  0
    1.2110   10.2050   -3.0190 C   0  0  2  0  0  0  0  0  0  0  0  0
    2.7070   10.1950   -2.6480 C   0  0  0  0  0  0  0  0  0  0  0  0
    3.6320   10.5700   -3.8090 C   0  0  0  0  0  0  0  0  0  0  0  0
    5.0220   10.8710   -3.3360 C   0  0  2  0  0  0  0  0  0  0  0  0
    5.5970   12.0640   -3.8850 O   0  0  0  0  0  0  0  0  0  0  0  0
    6.2410   10.8290   -4.2400 C   0  0  0  0  0  0  0  0  0  0  0  0
    6.1250   10.4770   -5.6900 C   0  0  0  0  0  0  0  0  0  0  0  0
    7.5890   10.6520   -3.6140 C   0  0  0  0  0  0  0  0  0  0  0  0
    0.6020   11.5630   -2.6910 C   0  0  1  0  0  0  0  0  0  0  0  0
   -0.6400   11.4530   -1.7660 C   0  0  0  0  0  0  0  0  0  0  0  0
   -0.6180   12.6950   -0.8380 C   0  0  0  0  0  0  0  0  0  0  0  0
    0.4310   13.6370   -1.4730 C   0  0  1  0  0  0  0  0  0  0  0  0
   -0.3270   14.3590   -2.6320 C   0  0  0  0  0  0  0  0  0  0  0  0
    1.1170   14.6590   -0.5080 C   0  0  2  0  0  0  0  0  0  0  0  0
    0.1680   15.6800    0.1420 C   0  0  0  0  0  0  0  0  0  0  0  0
   -0.0180   16.9520   -0.6180 C   0  0  0  0  0  0  0  0  0  0  0  0
    0.7650   17.3830   -1.6250 C   0  0  0  0  0  0  0  0  0  0  0  0
    2.0260   16.6080   -2.0290 C   0  0  1  0  0  0  0  0  0  0  0  0
    3.2090   17.5980   -2.1970 C   0  0  0  0  0  0  0  0  0  0  0  0
    2.8880   18.7340   -3.1630 C   0  0  0  0  0  0  0  0  0  0  0  0
    1.6630   19.5160   -2.6970 C   0  0  2  0  0  0  0  0  0  0  0  0
    1.9850   20.1930   -1.4780 O   0  0  0  0  0  0  0  0  0  0  0  0
    0.4100   18.6220   -2.4830 C   0  0  0  0  0  0  0  0  0  0  0  0
   -0.1180   18.1290   -3.8530 C   0  0  0  0  0  0  0  0  0  0  0  0
   -0.7120   19.5090   -1.8790 C   0  0  0  0  0  0  0  0  0  0  0  0
    2.3980   15.3630   -1.1140 C   0  0  1  0  0  0  0  0  0  0  0  0
    3.2630   15.8310    0.0970 C   0  0  0  0  0  0  0  0  0  0  0  0
    3.2940   14.3670   -1.9400 C   0  0  0  0  0  0  0  0  0  0  0  0
    2.5590   13.3050   -2.7810 C   0  0  0  0  0  0  0  0  0  0  0  0
    1.4980   12.5830   -1.9450 C   0  0  2  0  0  0  0  0  0  0  0  0
    2.2330   11.8300   -0.7850 C   0  0  0  0  0  0  0  0  0  0  0  0
    0.5236    9.2273   -1.2166 H   0  0  0  0  0  0  0  0  0  0  0  0
   -0.6284    9.1504   -2.5927 H   0  0  0  0  0  0  0  0  0  0  0  0
    0.8411    8.1173   -2.5927 H   0  0  0  0  0  0  0  0  0  0  0  0
    1.1381   10.0163   -4.1002 H   0  0  0  0  0  0  0  0  0  0  0  0
    2.8668   10.9136   -1.8307 H   0  0  0  0  0  0  0  0  0  0  0  0
    2.9588    9.1647   -2.3565 H   0  0  0  0  0  0  0  0  0  0  0  0
    3.6711    9.7307   -4.5190 H   0  0  0  0  0  0  0  0  0  0  0  0
    3.2300   11.4744   -4.2891 H   0  0  0  0  0  0  0  0  0  0  0  0
    4.8128   10.4144   -2.3573 H   0  0  0  0  0  0  0  0  0  0  0  0
    5.7821    9.4365   -5.7884 H   0  0  0  0  0  0  0  0  0  0  0  0
    5.4008   11.1490   -6.1737 H   0  0  0  0  0  0  0  0  0  0  0  0
    7.1068   10.5868   -6.1737 H   0  0  0  0  0  0  0  0  0  0  0  0
    7.4892   10.6651   -2.5186 H   0  0  0  0  0  0  0  0  0  0  0  0
    8.0173    9.6899   -3.9317 H   0  0  0  0  0  0  0  0  0  0  0  0
    8.2512   11.4709   -3.9317 H   0  0  0  0  0  0  0  0  0  0  0  0
    0.3917   11.9215   -3.7095 H   0  0  0  0  0  0  0  0  0  0  0  0
   -1.5609   11.4459   -2.3676 H   0  0  0  0  0  0  0  0  0  0  0  0
   -0.6153   10.5221   -1.1806 H   0  0  0  0  0  0  0  0  0  0  0  0
   -1.6065   13.1768   -0.8104 H   0  0  0  0  0  0  0  0  0  0  0  0
   -0.3703   12.4349    0.2017 H   0  0  0  0  0  0  0  0  0  0  0  0
   -1.0622   15.0593   -2.2090 H   0  0  0  0  0  0  0  0  0  0  0  0
    0.3931   14.9134   -3.2517 H   0  0  0  0  0  0  0  0  0  0  0  0
   -0.8458   13.6128   -3.2517 H   0  0  0  0  0  0  0  0  0  0  0  0
    1.4661   14.0130    0.3111 H   0  0  0  0  0  0  0  0  0  0  0  0
   -0.8174   15.2043    0.2548 H   0  0  0  0  0  0  0  0  0  0  0  0
    0.6332   15.9620    1.0981 H   0  0  0  0  0  0  0  0  0  0  0  0
   -0.8663   17.5907   -0.3309 H   0  0  0  0  0  0  0  0  0  0  0  0
    1.7955   16.1330   -2.9940 H   0  0  0  0  0  0  0  0  0  0  0  0
    3.4508   18.0286   -1.2141 H   0  0  0  0  0  0  0  0  0  0  0  0
    4.0584   17.0360   -2.6127 H   0  0  0  0  0  0  0  0  0  0  0  0
    3.7504   19.4147   -3.2176 H   0  0  0  0  0  0  0  0  0  0  0  0
    2.6745   18.3038   -4.1526 H   0  0  0  0  0  0  0  0  0  0  0  0
    1.4056   20.2307   -3.4926 H   0  0  0  0  0  0  0  0  0  0  0  0
    2.8730   20.5760   -1.5800 H   0  0  0  0  0  0  0  0  0  0  0  0
   -0.9135   17.3862   -3.6936 H   0  0  0  0  0  0  0  0  0  0  0  0
   -0.5207   18.9818   -4.4192 H   0  0  0  0  0  0  0  0  0  0  0  0
    0.7052   17.6689   -4.4192 H   0  0  0  0  0  0  0  0  0  0  0  0
   -0.6605   19.4683   -0.7810 H   0  0  0  0  0  0  0  0  0  0  0  0
   -0.5782   20.5482   -2.2141 H   0  0  0  0  0  0  0  0  0  0  0  0
   -1.6922   19.1390   -2.2141 H   0  0  0  0  0  0  0  0  0  0  0  0
    2.7582   15.5579    1.0354 H   0  0  0  0  0  0  0  0  0  0  0  0
    4.2477   15.3426    0.0547 H   0  0  0  0  0  0  0  0  0  0  0  0
    3.3929   16.9225    0.0547 H   0  0  0  0  0  0  0  0  0  0  0  0
    3.9116   14.9655   -2.6258 H   0  0  0  0  0  0  0  0  0  0  0  0
    3.8598   13.7975   -1.1879 H   0  0  0  0  0  0  0  0  0  0  0  0
    2.0709   13.7969   -3.6353 H   0  0  0  0  0  0  0  0  0  0  0  0
    3.2933   12.5648   -3.1316 H   0  0  0  0  0  0  0  0  0  0  0  0
    1.8685   12.2034    0.1834 H   0  0  0  0  0  0  0  0  0  0  0  0
    2.0306   10.7515   -0.8618 H   0  0  0  0  0  0  0  0  0  0  0  0
    3.3161   12.0062   -0.8618 H   0  0  0  0  0  0  0  0  0  0  0  0
  1  2  1  0
  2  3  1  0
  3  4  1  0
  4  5  1  0
  5  6  1  0
  6  7  1  0
  7  8  1  0
  7  9  1  0
  2 10  1  0
 10 11  1  0
 11 12  1  0
 12 13  1  0
 13 14  1  6
 13 15  1  0
 15 16  1  0
 16 17  1  0
 17 18  2  0
 18 19  1  0
 19 20  1  0
 20 21  1  0
 21 22  1  0
 22 23  1  0
 22 24  1  0
 24 25  1  0
 24 26  1  0
 19 27  1  0
 27 28  1  1
 27 29  1  0
 29 30  1  0
 30 31  1  0
 31 32  1  1
  7  5  1  0
 31 10  1  0
 31 13  1  0
 27 15  1  0
 24 18  1  0
  1 33  1  0
  1 34  1  0
  1 35  1  0
  2 36  1  6
  3 37  1  0
  3 38  1  0
  4 39  1  0
  4 40  1  0
  5 41  1  1
  8 42  1  0
  8 43  1  0
  8 44  1  0
  9 45  1  0
  9 46  1  0
  9 47  1  0
 10 48  1  6
 11 49  1  0
 11 50  1  0
 12 51  1  0
 12 52  1  0
 14 53  1  0
 14 54  1  0
 14 55  1  0
 15 56  1  1
 16 57  1  0
 16 58  1  0
 17 59  1  0
 19 60  1  6
 20 61  1  0
 20 62  1  0
 21 63  1  0
 21 64  1  0
 22 65  1  6
 23 66  1  0
 25 67  1  0
 25 68  1  0
 25 69  1  0
 26 70  1  0
 26 71  1  0
 26 72  1  0
 28 73  1  0
 28 74  1  0
 28 75  1  0
 29 76  1  0
 29 77  1  0
 30 78  1  0
 30 79  1  0
 32 80  1  0
 32 81  1  0
 32 82  1  0
M  END
>  <meeko>  (5) 
{"is_sidechain": [false], "intermolecular_energy": 2.731, "internal_energy": -0.839}

$$$$
EPH_relaxed_0001_pdb2pqr_Repair_326_r2_0001_out
     RDKit          3D

 82 86  0  0  0  0  0  0  0  0999 V2000
   -2.5410    7.7850   -2.8140 C   0  0  0  0  0  0  0  0  0  0  0  0
   -2.8530    8.1170   -1.3520 C   0  0  2  0  0  0  0  0  0  0  0  0
   -4.3690    8.1970   -1.0860 C   0  0  0  0  0  0  0  0  0  0  0  0
   -5.1040    6.8730   -1.3080 C   0  0  0  0  0  0  0  0  0  0  0  0
   -6.1560    6.9930   -2.3690 C   0  0  2  0  0  0  0  0  0  0  0  0
   -6.9150    8.2090   -2.3240 O   0  0  0  0  0  0  0  0  0  0  0  0
   -7.6440    6.9960   -2.0740 C   0  0  0  0  0  0  0  0  0  0  0  0
   -8.1640    6.8750   -0.6760 C   0  0  0  0  0  0  0  0  0  0  0  0
   -8.5920    6.6260   -3.1730 C   0  0  0  0  0  0  0  0  0  0  0  0
   -2.1850    9.4310   -0.9630 C   0  0  1  0  0  0  0  0  0  0  0  0
   -2.5760    9.9000    0.4630 C   0  0  0  0  0  0  0  0  0  0  0  0
   -1.3260   10.5930    1.0650 C   0  0  0  0  0  0  0  0  0  0  0  0
   -0.3750   10.7940   -0.1380 C   0  0  1  0  0  0  0  0  0  0  0  0
   -0.8990   12.0790   -0.8530 C   0  0  0  0  0  0  0  0  0  0  0  0
    1.1490   10.9000    0.1950 C   0  0  2  0  0  0  0  0  0  0  0  0
    1.5420   12.0970    1.0770 C   0  0  0  0  0  0  0  0  0  0  0  0
    1.9050   13.3420    0.3370 C   0  0  0  0  0  0  0  0  0  0  0  0
    2.1910   13.4160   -0.9760 C   0  0  0  0  0  0  0  0  0  0  0  0
    2.2610   12.1500   -1.8400 C   0  0  1  0  0  0  0  0  0  0  0  0
    3.5380   12.1920   -2.7180 C   0  0  0  0  0  0  0  0  0  0  0  0
    3.6370   13.4700   -3.5470 C   0  0  0  0  0  0  0  0  0  0  0  0
    3.6230   14.7040   -2.6490 C   0  0  2  0  0  0  0  0  0  0  0  0
    4.8210   14.7190   -1.8670 O   0  0  0  0  0  0  0  0  0  0  0  0
    2.3850   14.7660   -1.7110 C   0  0  0  0  0  0  0  0  0  0  0  0
    1.1130   15.0520   -2.5460 C   0  0  0  0  0  0  0  0  0  0  0  0
    2.5650   15.9810   -0.7620 C   0  0  0  0  0  0  0  0  0  0  0  0
    2.0980   10.7720   -1.0640 C   0  0  1  0  0  0  0  0  0  0  0  0
    3.4840   10.2960   -0.5310 C   0  0  0  0  0  0  0  0  0  0  0  0
    1.6080    9.6680   -2.0740 C   0  0  0  0  0  0  0  0  0  0  0  0
    0.0860    9.5340   -2.2710 C   0  0  0  0  0  0  0  0  0  0  0  0
   -0.6360    9.4570   -0.9220 C   0  0  2  0  0  0  0  0  0  0  0  0
   -0.1460    8.1610   -0.1900 C   0  0  0  0  0  0  0  0  0  0  0  0
   -1.7882    6.9840   -2.8555 H   0  0  0  0  0  0  0  0  0  0  0  0
   -3.4598    7.4512   -3.3183 H   0  0  0  0  0  0  0  0  0  0  0  0
   -2.1508    8.6813   -3.3183 H   0  0  0  0  0  0  0  0  0  0  0  0
   -2.4524    7.2998   -0.7342 H   0  0  0  0  0  0  0  0  0  0  0  0
   -4.5223    8.5084   -0.0422 H   0  0  0  0  0  0  0  0  0  0  0  0
   -4.7836    8.9189   -1.8050 H   0  0  0  0  0  0  0  0  0  0  0  0
   -4.3753    6.1078   -1.6137 H   0  0  0  0  0  0  0  0  0  0  0  0
   -5.5981    6.5934   -0.3658 H   0  0  0  0  0  0  0  0  0  0  0  0
   -5.5450    6.4111   -3.0748 H   0  0  0  0  0  0  0  0  0  0  0  0
   -7.3478    7.0649    0.0365 H   0  0  0  0  0  0  0  0  0  0  0  0
   -8.9668    7.6103   -0.5185 H   0  0  0  0  0  0  0  0  0  0  0  0
   -8.5597    5.8608   -0.5185 H   0  0  0  0  0  0  0  0  0  0  0  0
   -9.5330    6.2588   -2.7374 H   0  0  0  0  0  0  0  0  0  0  0  0
   -8.7962    7.5104   -3.7944 H   0  0  0  0  0  0  0  0  0  0  0  0
   -8.1431    5.8371   -3.7944 H   0  0  0  0  0  0  0  0  0  0  0  0
   -2.5503   10.0722   -1.7787 H   0  0  0  0  0  0  0  0  0  0  0  0
   -3.4147   10.6099    0.4115 H   0  0  0  0  0  0  0  0  0  0  0  0
   -2.8941    9.0501    1.0848 H   0  0  0  0  0  0  0  0  0  0  0  0
   -1.5962   11.5608    1.5126 H   0  0  0  0  0  0  0  0  0  0  0  0
   -0.8646    9.9982    1.8671 H   0  0  0  0  0  0  0  0  0  0  0  0
   -1.2014   12.8207   -0.0990 H   0  0  0  0  0  0  0  0  0  0  0  0
   -0.1007   12.5000   -1.4819 H   0  0  0  0  0  0  0  0  0  0  0  0
   -1.7641   11.8218   -1.4819 H   0  0  0  0  0  0  0  0  0  0  0  0
    1.3183   10.0060    0.8132 H   0  0  0  0  0  0  0  0  0  0  0  0
    0.6913   12.3283    1.7349 H   0  0  0  0  0  0  0  0  0  0  0  0
    2.4481   11.7905    1.6202 H   0  0  0  0  0  0  0  0  0  0  0  0
    1.9418   14.2779    0.9138 H   0  0  0  0  0  0  0  0  0  0  0  0
    1.3675   12.1692   -2.4813 H   0  0  0  0  0  0  0  0  0  0  0  0
    4.4189   12.1280   -2.0623 H   0  0  0  0  0  0  0  0  0  0  0  0
    3.4907   11.3438   -3.4167 H   0  0  0  0  0  0  0  0  0  0  0  0
    4.5742   13.4541   -4.1227 H   0  0  0  0  0  0  0  0  0  0  0  0
    2.7711   13.5179   -4.2238 H   0  0  0  0  0  0  0  0  0  0  0  0
    3.5647   15.5867   -3.3028 H   0  0  0  0  0  0  0  0  0  0  0  0
    5.3300   13.9220   -2.0930 H   0  0  0  0  0  0  0  0  0  0  0  0
    0.2660   15.2424   -1.8704 H   0  0  0  0  0  0  0  0  0  0  0  0
    1.2816   15.9347   -3.1804 H   0  0  0  0  0  0  0  0  0  0  0  0
    0.8876   14.1821   -3.1804 H   0  0  0  0  0  0  0  0  0  0  0  0
    2.5146   15.6408    0.2828 H   0  0  0  0  0  0  0  0  0  0  0  0
    3.5424   16.4500   -0.9482 H   0  0  0  0  0  0  0  0  0  0  0  0
    1.7655   16.7133   -0.9482 H   0  0  0  0  0  0  0  0  0  0  0  0
    3.4746   10.2992    0.5690 H   0  0  0  0  0  0  0  0  0  0  0  0
    3.6858    9.2771   -0.8930 H   0  0  0  0  0  0  0  0  0  0  0  0
    4.2693   10.9759   -0.8930 H   0  0  0  0  0  0  0  0  0  0  0  0
    2.0521    9.8934   -3.0548 H   0  0  0  0  0  0  0  0  0  0  0  0
    1.9267    8.7121   -1.6328 H   0  0  0  0  0  0  0  0  0  0  0  0
   -0.2833   10.4080   -2.8276 H   0  0  0  0  0  0  0  0  0  0  0  0
   -0.1155    8.6085   -2.8304 H   0  0  0  0  0  0  0  0  0  0  0  0
   -0.2027    8.3109    0.8983 H   0  0  0  0  0  0  0  0  0  0  0  0
   -0.7858    7.3135   -0.4772 H   0  0  0  0  0  0  0  0  0  0  0  0
    0.8944    7.9488   -0.4772 H   0  0  0  0  0  0  0  0  0  0  0  0
  1  2  1  0
  2  3  1  0
  3  4  1  0
  4  5  1  0
  5  6  1  0
  6  7  1  0
  7  8  1  0
  7  9  1  0
  2 10  1  0
 10 11  1  0
 11 12  1  0
 12 13  1  0
 13 14  1  6
 13 15  1  0
 15 16  1  0
 16 17  1  0
 17 18  2  0
 18 19  1  0
 19 20  1  0
 20 21  1  0
 21 22  1  0
 22 23  1  0
 22 24  1  0
 24 25  1  0
 24 26  1  0
 19 27  1  0
 27 28  1  1
 27 29  1  0
 29 30  1  0
 30 31  1  0
 31 32  1  1
  7  5  1  0
 31 10  1  0
 31 13  1  0
 27 15  1  0
 24 18  1  0
  1 33  1  0
  1 34  1  0
  1 35  1  0
  2 36  1  1
  3 37  1  0
  3 38  1  0
  4 39  1  0
  4 40  1  0
  5 41  1  6
  8 42  1  0
  8 43  1  0
  8 44  1  0
  9 45  1  0
  9 46  1  0
  9 47  1  0
 10 48  1  6
 11 49  1  0
 11 50  1  0
 12 51  1  0
 12 52  1  0
 14 53  1  0
 14 54  1  0
 14 55  1  0
 15 56  1  1
 16 57  1  0
 16 58  1  0
 17 59  1  0
 19 60  1  6
 20 61  1  0
 20 62  1  0
 21 63  1  0
 21 64  1  0
 22 65  1  6
 23 66  1  0
 25 67  1  0
 25 68  1  0
 25 69  1  0
 26 70  1  0
 26 71  1  0
 26 72  1  0
 28 73  1  0
 28 74  1  0
 28 75  1  0
 29 76  1  0
 29 77  1  0
 30 78  1  0
 30 79  1  0
 32 80  1  0
 32 81  1  0
 32 82  1  0
M  END
>  <meeko>  (6) 
{"is_sidechain": [false], "intermolecular_energy": 2.731, "internal_energy": -0.839}

$$$$
EPH_relaxed_0001_pdb2pqr_Repair_326_r2_0001_out
     RDKit          3D

 82 86  0  0  0  0  0  0  0  0999 V2000
    3.6460   18.1220   -3.0470 C   0  0  0  0  0  0  0  0  0  0  0  0
    2.4000   17.5080   -2.4030 C   0  0  2  0  0  0  0  0  0  0  0  0
    2.2430   17.9270   -0.9270 C   0  0  0  0  0  0  0  0  0  0  0  0
    1.6030   19.3050   -0.7430 C   0  0  0  0  0  0  0  0  0  0  0  0
    0.2350   19.2050   -0.1390 C   0  0  2  0  0  0  0  0  0  0  0  0
   -0.5920   18.1750   -0.6970 O   0  0  0  0  0  0  0  0  0  0  0  0
   -1.0390   19.5260   -0.8980 C   0  0  0  0  0  0  0  0  0  0  0  0
   -1.0060   19.9720   -2.3260 C   0  0  0  0  0  0  0  0  0  0  0  0
   -2.2680   19.8760   -0.1170 C   0  0  0  0  0  0  0  0  0  0  0  0
    2.4540   15.9890   -2.5110 C   0  0  1  0  0  0  0  0  0  0  0  0
    3.8940   15.4570   -2.7410 C   0  0  0  0  0  0  0  0  0  0  0  0
    3.9970   14.1060   -1.9880 C   0  0  0  0  0  0  0  0  0  0  0  0
    2.5350   13.7440   -1.6340 C   0  0  1  0  0  0  0  0  0  0  0  0
    1.9490   13.1180   -2.9380 C   0  0  0  0  0  0  0  0  0  0  0  0
    2.3360   12.8030   -0.4010 C   0  0  2  0  0  0  0  0  0  0  0  0
    2.9530   11.4010   -0.5440 C   0  0  0  0  0  0  0  0  0  0  0  0
    2.0510   10.3640   -1.1270 C   0  0  0  0  0  0  0  0  0  0  0  0
    0.7150   10.4720   -1.2560 C   0  0  0  0  0  0  0  0  0  0  0  0
   -0.0330   11.6910   -0.7030 C   0  0  1  0  0  0  0  0  0  0  0  0
   -1.2870   11.2180    0.0780 C   0  0  0  0  0  0  0  0  0  0  0  0
   -2.1870   10.3090   -0.7540 C   0  0  0  0  0  0  0  0  0  0  0  0
   -1.4220    9.0800   -1.2380 C   0  0  2  0  0  0  0  0  0  0  0  0
   -1.0860    8.2720   -0.1060 O   0  0  0  0  0  0  0  0  0  0  0  0
   -0.1320    9.4330   -2.0300 C   0  0  0  0  0  0  0  0  0  0  0  0
   -0.5140   10.0410   -3.4020 C   0  0  0  0  0  0  0  0  0  0  0  0
    0.6170    8.1080   -2.3370 C   0  0  0  0  0  0  0  0  0  0  0  0
    0.8440   12.7280    0.1220 C   0  0  1  0  0  0  0  0  0  0  0  0
    0.9180   12.2910    1.6170 C   0  0  0  0  0  0  0  0  0  0  0  0
    0.1320   14.1320    0.1050 C   0  0  0  0  0  0  0  0  0  0  0  0
    0.4620   15.0640   -1.0770 C   0  0  0  0  0  0  0  0  0  0  0  0
    1.9760   15.1710   -1.2850 C   0  0  2  0  0  0  0  0  0  0  0  0
    2.5910   15.8190    0.0030 C   0  0  0  0  0  0  0  0  0  0  0  0
    4.3357   18.4619   -2.2603 H   0  0  0  0  0  0  0  0  0  0  0  0
    4.1458   17.3670   -3.6717 H   0  0  0  0  0  0  0  0  0  0  0  0
    3.3517   18.9783   -3.6717 H   0  0  0  0  0  0  0  0  0  0  0  0
    1.5238   17.8880   -2.9487 H   0  0  0  0  0  0  0  0  0  0  0  0
    1.6135   17.1812   -0.4194 H   0  0  0  0  0  0  0  0  0  0  0  0
    3.2550   17.9831   -0.4995 H   0  0  0  0  0  0  0  0  0  0  0  0
    2.2414   19.9090   -0.0815 H   0  0  0  0  0  0  0  0  0  0  0  0
    1.5069   19.7733   -1.7337 H   0  0  0  0  0  0  0  0  0  0  0  0
    0.6157   19.5376    0.8379 H   0  0  0  0  0  0  0  0  0  0  0  0
   -0.9249   21.0683   -2.3660 H   0  0  0  0  0  0  0  0  0  0  0  0
   -0.1387   19.5215   -2.8309 H   0  0  0  0  0  0  0  0  0  0  0  0
   -1.9301   19.6541   -2.8309 H   0  0  0  0  0  0  0  0  0  0  0  0
   -2.0487   19.8136    0.9591 H   0  0  0  0  0  0  0  0  0  0  0  0
   -2.5830   20.8996   -0.3682 H   0  0  0  0  0  0  0  0  0  0  0  0
   -3.0750   19.1720   -0.3682 H   0  0  0  0  0  0  0  0  0  0  0  0
    1.7642   15.8399   -3.3547 H   0  0  0  0  0  0  0  0  0  0  0  0
    4.0752   15.3066   -3.8155 H   0  0  0  0  0  0  0  0  0  0  0  0
    4.6433   16.1730   -2.3722 H   0  0  0  0  0  0  0  0  0  0  0  0
    4.4427   13.3347   -2.6334 H   0  0  0  0  0  0  0  0  0  0  0  0
    4.6377   14.1732   -1.0964 H   0  0  0  0  0  0  0  0  0  0  0  0
    1.2191   12.3383   -2.6746 H   0  0  0  0  0  0  0  0  0  0  0  0
    1.4517   13.9010   -3.5293 H   0  0  0  0  0  0  0  0  0  0  0  0
    2.7631   12.6734   -3.5293 H   0  0  0  0  0  0  0  0  0  0  0  0
    2.9231   13.3088    0.3797 H   0  0  0  0  0  0  0  0  0  0  0  0
    3.8387   11.4838   -1.1911 H   0  0  0  0  0  0  0  0  0  0  0  0
    3.1837   11.0643    0.4775 H   0  0  0  0  0  0  0  0  0  0  0  0
    2.5173    9.4328   -1.4812 H   0  0  0  0  0  0  0  0  0  0  0  0
   -0.3389   12.2826   -1.5785 H   0  0  0  0  0  0  0  0  0  0  0  0
   -0.9586   10.6668    0.9715 H   0  0  0  0  0  0  0  0  0  0  0  0
   -1.8705   12.1115    0.3448 H   0  0  0  0  0  0  0  0  0  0  0  0
   -3.0384    9.9838   -0.1381 H   0  0  0  0  0  0  0  0  0  0  0  0
   -2.5398   10.8713   -1.6312 H   0  0  0  0  0  0  0  0  0  0  0  0
   -2.0774    8.5363   -1.9343 H   0  0  0  0  0  0  0  0  0  0  0  0
   -1.7620    7.5780   -0.0280 H   0  0  0  0  0  0  0  0  0  0  0  0
   -1.0933   10.9630   -3.2460 H   0  0  0  0  0  0  0  0  0  0  0  0
    0.4005   10.2738   -3.9673 H   0  0  0  0  0  0  0  0  0  0  0  0
   -1.1205    9.3181   -3.9673 H   0  0  0  0  0  0  0  0  0  0  0  0
    0.8948    7.6166   -1.3929 H   0  0  0  0  0  0  0  0  0  0  0  0
   -0.0384    7.4424   -2.9178 H   0  0  0  0  0  0  0  0  0  0  0  0
    1.5253    8.3263   -2.9178 H   0  0  0  0  0  0  0  0  0  0  0  0
    0.7694   13.1686    2.2633 H   0  0  0  0  0  0  0  0  0  0  0  0
    0.1329   11.5481    1.8212 H   0  0  0  0  0  0  0  0  0  0  0  0
    1.9039   11.8480    1.8212 H   0  0  0  0  0  0  0  0  0  0  0  0
   -0.9536   13.9545    0.0959 H   0  0  0  0  0  0  0  0  0  0  0  0
    0.5060   14.6553    0.9973 H   0  0  0  0  0  0  0  0  0  0  0  0
    0.0007   14.6626   -1.9914 H   0  0  0  0  0  0  0  0  0  0  0  0
    0.0669   16.0662   -0.8543 H   0  0  0  0  0  0  0  0  0  0  0  0
    2.1482   15.3525    0.8954 H   0  0  0  0  0  0  0  0  0  0  0  0
    3.6796   15.6614    0.0087 H   0  0  0  0  0  0  0  0  0  0  0  0
    2.3767   16.8979    0.0087 H   0  0  0  0  0  0  0  0  0  0  0  0
  1  2  1  0
  2  3  1  0
  3  4  1  0
  4  5  1  0
  5  6  1  0
  6  7  1  0
  7  8  1  0
  7  9  1  0
  2 10  1  0
 10 11  1  0
 11 12  1  0
 12 13  1  0
 13 14  1  6
 13 15  1  0
 15 16  1  0
 16 17  1  0
 17 18  2  0
 18 19  1  0
 19 20  1  0
 20 21  1  0
 21 22  1  0
 22 23  1  0
 22 24  1  0
 24 25  1  0
 24 26  1  0
 19 27  1  0
 27 28  1  1
 27 29  1  0
 29 30  1  0
 30 31  1  0
 31 32  1  1
  7  5  1  0
 31 10  1  0
 31 13  1  0
 27 15  1  0
 24 18  1  0
  1 33  1  0
  1 34  1  0
  1 35  1  0
  2 36  1  6
  3 37  1  0
  3 38  1  0
  4 39  1  0
  4 40  1  0
  5 41  1  1
  8 42  1  0
  8 43  1  0
  8 44  1  0
  9 45  1  0
  9 46  1  0
  9 47  1  0
 10 48  1  6
 11 49  1  0
 11 50  1  0
 12 51  1  0
 12 52  1  0
 14 53  1  0
 14 54  1  0
 14 55  1  0
 15 56  1  1
 16 57  1  0
 16 58  1  0
 17 59  1  0
 19 60  1  6
 20 61  1  0
 20 62  1  0
 21 63  1  0
 21 64  1  0
 22 65  1  6
 23 66  1  0
 25 67  1  0
 25 68  1  0
 25 69  1  0
 26 70  1  0
 26 71  1  0
 26 72  1  0
 28 73  1  0
 28 74  1  0
 28 75  1  0
 29 76  1  0
 29 77  1  0
 30 78  1  0
 30 79  1  0
 32 80  1  0
 32 81  1  0
 32 82  1  0
M  END
>  <meeko>  (7) 
{"is_sidechain": [false], "intermolecular_energy": 2.731, "internal_energy": -0.839}

$$$$
EPH_relaxed_0001_pdb2pqr_Repair_326_r2_0001_out
     RDKit          3D

 82 86  0  0  0  0  0  0  0  0999 V2000
    3.0010   17.6170   -2.2590 C   0  0  0  0  0  0  0  0  0  0  0  0
    1.7090   17.4460   -1.4540 C   0  0  2  0  0  0  0  0  0  0  0  0
    1.9730   17.3900    0.0640 C   0  0  0  0  0  0  0  0  0  0  0  0
    3.2690   18.0860    0.4890 C   0  0  0  0  0  0  0  0  0  0  0  0
    3.1260   18.7580    1.8210 C   0  0  2  0  0  0  0  0  0  0  0  0
    3.5490   20.1270    1.8490 O   0  0  0  0  0  0  0  0  0  0  0  0
    4.3060   19.2130    2.6590 C   0  0  0  0  0  0  0  0  0  0  0  0
    5.7150   19.0140    2.1960 C   0  0  0  0  0  0  0  0  0  0  0  0
    4.1070   19.4050    4.1300 C   0  0  0  0  0  0  0  0  0  0  0  0
    0.9810   16.1850   -1.9030 C   0  0  1  0  0  0  0  0  0  0  0  0
    0.4980   16.2650   -3.3760 C   0  0  0  0  0  0  0  0  0  0  0  0
    0.6200   14.8360   -3.9650 C   0  0  0  0  0  0  0  0  0  0  0  0
    0.8470   13.9250   -2.7360 C   0  0  1  0  0  0  0  0  0  0  0  0
   -0.5760   13.6940   -2.1400 C   0  0  0  0  0  0  0  0  0  0  0  0
    1.5870   12.5750   -3.0050 C   0  0  2  0  0  0  0  0  0  0  0  0
    0.8550   11.6060   -3.9490 C   0  0  0  0  0  0  0  0  0  0  0  0
   -0.0710   10.6430   -3.2830 C   0  0  0  0  0  0  0  0  0  0  0  0
   -0.0950   10.3650   -1.9660 C   0  0  0  0  0  0  0  0  0  0  0  0
    0.9410   10.9760   -1.0130 C   0  0  1  0  0  0  0  0  0  0  0  0
    1.5020    9.8700   -0.0800 C   0  0  0  0  0  0  0  0  0  0  0  0
    0.4020    9.1150    0.6600 C   0  0  0  0  0  0  0  0  0  0  0  0
   -0.5740    8.4730   -0.3230 C   0  0  2  0  0  0  0  0  0  0  0  0
    0.1090    7.4450   -1.0460 O   0  0  0  0  0  0  0  0  0  0  0  0
   -1.1970    9.4890   -1.3200 C   0  0  0  0  0  0  0  0  0  0  0  0
   -2.1790   10.4210   -0.5680 C   0  0  0  0  0  0  0  0  0  0  0  0
   -2.0510    8.6920   -2.3430 C   0  0  0  0  0  0  0  0  0  0  0  0
    2.0870   11.8380   -1.6960 C   0  0  1  0  0  0  0  0  0  0  0  0
    3.2640   10.9110   -2.1290 C   0  0  0  0  0  0  0  0  0  0  0  0
    2.6780   12.8400   -0.6350 C   0  0  0  0  0  0  0  0  0  0  0  0
    1.9760   14.2050   -0.5010 C   0  0  0  0  0  0  0  0  0  0  0  0
    1.7760   14.8550   -1.8730 C   0  0  2  0  0  0  0  0  0  0  0  0
    3.1920   15.1200   -2.4880 C   0  0  0  0  0  0  0  0  0  0  0  0
    3.8505   17.7294   -1.5693 H   0  0  0  0  0  0  0  0  0  0  0  0
    3.1580   16.7318   -2.8929 H   0  0  0  0  0  0  0  0  0  0  0  0
    2.9223   18.5126   -2.8929 H   0  0  0  0  0  0  0  0  0  0  0  0
    1.0799   18.3275   -1.6466 H   0  0  0  0  0  0  0  0  0  0  0  0
    1.1322   17.8757    0.5809 H   0  0  0  0  0  0  0  0  0  0  0  0
    2.0745   16.3285    0.3339 H   0  0  0  0  0  0  0  0  0  0  0  0
    4.0719   17.3368    0.5520 H   0  0  0  0  0  0  0  0  0  0  0  0
    3.5063   18.8559   -0.2599 H   0  0  0  0  0  0  0  0  0  0  0  0
    2.2426   18.1480    2.0606 H   0  0  0  0  0  0  0  0  0  0  0  0
    6.3780   18.9204    3.0688 H   0  0  0  0  0  0  0  0  0  0  0  0
    5.7758   18.0984    1.5894 H   0  0  0  0  0  0  0  0  0  0  0  0
    6.0270   19.8770    1.5894 H   0  0  0  0  0  0  0  0  0  0  0  0
    4.7917   18.7443    4.6820 H   0  0  0  0  0  0  0  0  0  0  0  0
    4.3151   20.4522    4.3946 H   0  0  0  0  0  0  0  0  0  0  0  0
    3.0679   19.1595    4.3946 H   0  0  0  0  0  0  0  0  0  0  0  0
    0.1774   16.1602   -1.1522 H   0  0  0  0  0  0  0  0  0  0  0  0
   -0.5484   16.6022   -3.4137 H   0  0  0  0  0  0  0  0  0  0  0  0
    1.1019   16.9822   -3.9513 H   0  0  0  0  0  0  0  0  0  0  0  0
   -0.3029   14.5534   -4.4926 H   0  0  0  0  0  0  0  0  0  0  0  0
    1.4349   14.7559   -4.6995 H   0  0  0  0  0  0  0  0  0  0  0  0
   -0.5194   13.7032   -1.0415 H   0  0  0  0  0  0  0  0  0  0  0  0
   -1.2499   14.4945   -2.4791 H   0  0  0  0  0  0  0  0  0  0  0  0
   -0.9621   12.7214   -2.4791 H   0  0  0  0  0  0  0  0  0  0  0  0
    2.4842   12.9030   -3.5504 H   0  0  0  0  0  0  0  0  0  0  0  0
    0.2681   12.2042   -4.6615 H   0  0  0  0  0  0  0  0  0  0  0  0
    1.6372   10.9960   -4.4245 H   0  0  0  0  0  0  0  0  0  0  0  0
   -0.7947   10.1161   -3.9222 H   0  0  0  0  0  0  0  0  0  0  0  0
    0.4015   11.7275   -0.4179 H   0  0  0  0  0  0  0  0  0  0  0  0
    2.0744    9.1533   -0.6873 H   0  0  0  0  0  0  0  0  0  0  0  0
    2.1362   10.3593    0.6739 H   0  0  0  0  0  0  0  0  0  0  0  0
    0.8586    8.3290    1.2794 H   0  0  0  0  0  0  0  0  0  0  0  0
   -0.1510    9.8275    1.2897 H   0  0  0  0  0  0  0  0  0  0  0  0
   -1.4076    8.0588    0.2631 H   0  0  0  0  0  0  0  0  0  0  0  0
    0.9350    7.2510   -0.5720 H   0  0  0  0  0  0  0  0  0  0  0  0
   -2.0462   10.2950    0.5167 H   0  0  0  0  0  0  0  0  0  0  0  0
   -1.9758   11.4664   -0.8433 H   0  0  0  0  0  0  0  0  0  0  0  0
   -3.2124   10.1635   -0.8433 H   0  0  0  0  0  0  0  0  0  0  0  0
   -2.7522    8.0376   -1.8044 H   0  0  0  0  0  0  0  0  0  0  0  0
   -2.6157    9.3935   -2.9747 H   0  0  0  0  0  0  0  0  0  0  0  0
   -1.3901    8.0803   -2.9747 H   0  0  0  0  0  0  0  0  0  0  0  0
    3.7669   10.5149   -1.2345 H   0  0  0  0  0  0  0  0  0  0  0  0
    2.8719   10.0765   -2.7290 H   0  0  0  0  0  0  0  0  0  0  0  0
    3.9833   11.4877   -2.7290 H   0  0  0  0  0  0  0  0  0  0  0  0
    2.6366   12.3468    0.3474 H   0  0  0  0  0  0  0  0  0  0  0  0
    3.6921   13.0721   -0.9925 H   0  0  0  0  0  0  0  0  0  0  0  0
    0.9950   14.0600   -0.0250 H   0  0  0  0  0  0  0  0  0  0  0  0
    2.6071   14.8656    0.1116 H   0  0  0  0  0  0  0  0  0  0  0  0
    3.9237   15.2569   -1.6782 H   0  0  0  0  0  0  0  0  0  0  0  0
    3.4886   14.2618   -3.1089 H   0  0  0  0  0  0  0  0  0  0  0  0
    3.1581   16.0274   -3.1089 H   0  0  0  0  0  0  0  0  0  0  0  0
  1  2  1  0
  2  3  1  0
  3  4  1  0
  4  5  1  0
  5  6  1  0
  6  7  1  0
  7  8  1  0
  7  9  1  0
  2 10  1  0
 10 11  1  0
 11 12  1  0
 12 13  1  0
 13 14  1  1
 13 15  1  0
 15 16  1  0
 16 17  1  0
 17 18  2  0
 18 19  1  0
 19 20  1  0
 20 21  1  0
 21 22  1  0
 22 23  1  0
 22 24  1  0
 24 25  1  0
 24 26  1  0
 19 27  1  0
 27 28  1  6
 27 29  1  0
 29 30  1  0
 30 31  1  0
 31 32  1  6
  7  5  1  0
 31 10  1  0
 31 13  1  0
 27 15  1  0
 24 18  1  0
  1 33  1  0
  1 34  1  0
  1 35  1  0
  2 36  1  1
  3 37  1  0
  3 38  1  0
  4 39  1  0
  4 40  1  0
  5 41  1  1
  8 42  1  0
  8 43  1  0
  8 44  1  0
  9 45  1  0
  9 46  1  0
  9 47  1  0
 10 48  1  1
 11 49  1  0
 11 50  1  0
 12 51  1  0
 12 52  1  0
 14 53  1  0
 14 54  1  0
 14 55  1  0
 15 56  1  6
 16 57  1  0
 16 58  1  0
 17 59  1  0
 19 60  1  1
 20 61  1  0
 20 62  1  0
 21 63  1  0
 21 64  1  0
 22 65  1  1
 23 66  1  0
 25 67  1  0
 25 68  1  0
 25 69  1  0
 26 70  1  0
 26 71  1  0
 26 72  1  0
 28 73  1  0
 28 74  1  0
 28 75  1  0
 29 76  1  0
 29 77  1  0
 30 78  1  0
 30 79  1  0
 32 80  1  0
 32 81  1  0
 32 82  1  0
M  END
>  <meeko>  (8) 
{"is_sidechain": [false], "intermolecular_energy": 2.731, "internal_energy": -0.839}

$$$$
EPH_relaxed_0001_pdb2pqr_Repair_326_r2_0001_out
     RDKit          3D

 82 86  0  0  0  0  0  0  0  0999 V2000
    0.7110   17.7560   -0.1770 C   0  0  0  0  0  0  0  0  0  0  0  0
    1.5010   17.1130   -1.3200 C   0  0  2  0  0  0  0  0  0  0  0  0
    1.7100   18.0840   -2.4990 C   0  0  0  0  0  0  0  0  0  0  0  0
    3.1830   18.3370   -2.8350 C   0  0  0  0  0  0  0  0  0  0  0  0
    4.0220   17.1180   -2.5980 C   0  0  2  0  0  0  0  0  0  0  0  0
    5.0560   17.2840   -1.6190 O   0  0  0  0  0  0  0  0  0  0  0  0
    5.4920   17.0300   -2.9640 C   0  0  0  0  0  0  0  0  0  0  0  0
    6.2080   18.1800   -3.6000 C   0  0  0  0  0  0  0  0  0  0  0  0
    6.1020   15.6760   -3.1550 C   0  0  0  0  0  0  0  0  0  0  0  0
    0.7890   15.8550   -1.8010 C   0  0  1  0  0  0  0  0  0  0  0  0
    0.3330   15.9560   -3.2810 C   0  0  0  0  0  0  0  0  0  0  0  0
    0.4740   14.5370   -3.8900 C   0  0  0  0  0  0  0  0  0  0  0  0
    0.6840   13.6080   -2.6710 C   0  0  1  0  0  0  0  0  0  0  0  0
   -0.7490   13.3600   -2.1050 C   0  0  0  0  0  0  0  0  0  0  0  0
    1.4360   12.2660   -2.9470 C   0  0  2  0  0  0  0  0  0  0  0  0
    0.7270   11.3080   -3.9200 C   0  0  0  0  0  0  0  0  0  0  0  0
   -0.2050   10.3300   -3.2850 C   0  0  0  0  0  0  0  0  0  0  0  0
   -0.2510   10.0310   -1.9740 C   0  0  0  0  0  0  0  0  0  0  0  0
    0.7630   10.6330   -0.9920 C   0  0  1  0  0  0  0  0  0  0  0  0
    1.3140    9.5160   -0.0670 C   0  0  0  0  0  0  0  0  0  0  0  0
    0.2050    8.7440    0.6410 C   0  0  0  0  0  0  0  0  0  0  0  0
   -0.7490    8.1110   -0.3690 C   0  0  2  0  0  0  0  0  0  0  0  0
   -0.0470    7.0990   -1.0960 O   0  0  0  0  0  0  0  0  0  0  0  0
   -1.3600    9.1400   -1.3620 C   0  0  0  0  0  0  0  0  0  0  0  0
   -2.3610   10.0540   -0.6140 C   0  0  0  0  0  0  0  0  0  0  0  0
   -2.1900    8.3540   -2.4120 C   0  0  0  0  0  0  0  0  0  0  0  0
    1.9170   11.5120   -1.6410 C   0  0  1  0  0  0  0  0  0  0  0  0
    3.1070   10.5990   -2.0670 C   0  0  0  0  0  0  0  0  0  0  0  0
    2.4830   12.5010   -0.5540 C   0  0  0  0  0  0  0  0  0  0  0  0
    1.7700   13.8590   -0.4120 C   0  0  0  0  0  0  0  0  0  0  0  0
    1.5910   14.5300   -1.7770 C   0  0  2  0  0  0  0  0  0  0  0  0
    3.0170   14.8130   -2.3620 C   0  0  0  0  0  0  0  0  0  0  0  0
    1.1223   17.4212    0.7867 H   0  0  0  0  0  0  0  0  0  0  0  0
    0.7885   18.8510   -0.2483 H   0  0  0  0  0  0  0  0  0  0  0  0
   -0.3454   17.4578   -0.2483 H   0  0  0  0  0  0  0  0  0  0  0  0
    2.4948   16.8503   -0.9285 H   0  0  0  0  0  0  0  0  0  0  0  0
    1.2187   17.6617   -3.3879 H   0  0  0  0  0  0  0  0  0  0  0  0
    1.2780   19.0504   -2.1999 H   0  0  0  0  0  0  0  0  0  0  0  0
    3.2630   18.6247   -3.8937 H   0  0  0  0  0  0  0  0  0  0  0  0
    3.5515   19.1401   -2.1798 H   0  0  0  0  0  0  0  0  0  0  0  0
    3.1675   16.4593   -2.8124 H   0  0  0  0  0  0  0  0  0  0  0  0
    6.6164   18.8359   -2.8170 H   0  0  0  0  0  0  0  0  0  0  0  0
    7.0294   17.8000   -4.2252 H   0  0  0  0  0  0  0  0  0  0  0  0
    5.5045   18.7494   -4.2252 H   0  0  0  0  0  0  0  0  0  0  0  0
    6.3057   15.2238   -2.1732 H   0  0  0  0  0  0  0  0  0  0  0  0
    5.4053   15.0358   -3.7161 H   0  0  0  0  0  0  0  0  0  0  0  0
    7.0431   15.7737   -3.7161 H   0  0  0  0  0  0  0  0  0  0  0  0
   -0.0279   15.8131   -1.0655 H   0  0  0  0  0  0  0  0  0  0  0  0
   -0.7144   16.2882   -3.3329 H   0  0  0  0  0  0  0  0  0  0  0  0
    0.9433   16.6855   -3.8336 H   0  0  0  0  0  0  0  0  0  0  0  0
   -0.4376   14.2576   -4.4386 H   0  0  0  0  0  0  0  0  0  0  0  0
    1.3025   14.4729   -4.6108 H   0  0  0  0  0  0  0  0  0  0  0  0
   -0.7151   13.3659   -1.0055 H   0  0  0  0  0  0  0  0  0  0  0  0
   -1.4242   14.1546   -2.4553 H   0  0  0  0  0  0  0  0  0  0  0  0
   -1.1179   12.3847   -2.4553 H   0  0  0  0  0  0  0  0  0  0  0  0
    2.3412   12.6069   -3.4708 H   0  0  0  0  0  0  0  0  0  0  0  0
    0.1495   11.9140   -4.6336 H   0  0  0  0  0  0  0  0  0  0  0  0
    1.5209   10.7102   -4.3917 H   0  0  0  0  0  0  0  0  0  0  0  0
   -0.9145    9.8095   -3.9450 H   0  0  0  0  0  0  0  0  0  0  0  0
    0.2077   11.3714   -0.3950 H   0  0  0  0  0  0  0  0  0  0  0  0
    1.9011    8.8120   -0.6751 H   0  0  0  0  0  0  0  0  0  0  0  0
    1.9325    9.9965    0.7054 H   0  0  0  0  0  0  0  0  0  0  0  0
    0.6547    7.9515    1.2572 H   0  0  0  0  0  0  0  0  0  0  0  0
   -0.3638    9.4442    1.2705 H   0  0  0  0  0  0  0  0  0  0  0  0
   -1.5899    7.6820    0.1957 H   0  0  0  0  0  0  0  0  0  0  0  0
    0.6260    7.5410   -1.6410 H   0  0  0  0  0  0  0  0  0  0  0  0
   -2.2280    9.9326    0.4712 H   0  0  0  0  0  0  0  0  0  0  0  0
   -2.1775   11.1027   -0.8909 H   0  0  0  0  0  0  0  0  0  0  0  0
   -3.3887    9.7761   -0.8909 H   0  0  0  0  0  0  0  0  0  0  0  0
   -2.8955    7.6859   -1.8963 H   0  0  0  0  0  0  0  0  0  0  0  0
   -2.7489    9.0617   -3.0419 H   0  0  0  0  0  0  0  0  0  0  0  0
   -1.5138    7.7574   -3.0419 H   0  0  0  0  0  0  0  0  0  0  0  0
    3.6116   10.2118   -1.1695 H   0  0  0  0  0  0  0  0  0  0  0  0
    2.7277    9.7580   -2.6660 H   0  0  0  0  0  0  0  0  0  0  0  0
    3.8212   11.1831   -2.6660 H   0  0  0  0  0  0  0  0  0  0  0  0
    2.4273   11.9925    0.4198 H   0  0  0  0  0  0  0  0  0  0  0  0
    3.5020   12.7446   -0.8893 H   0  0  0  0  0  0  0  0  0  0  0  0
    0.7813   13.7004    0.0433 H   0  0  0  0  0  0  0  0  0  0  0  0
    2.3857   14.5136    0.2224 H   0  0  0  0  0  0  0  0  0  0  0  0
    3.7304   14.9546   -1.5368 H   0  0  0  0  0  0  0  0  0  0  0  0
    3.3356   13.9606   -2.9799 H   0  0  0  0  0  0  0  0  0  0  0  0
    2.9860   15.7225   -2.9799 H   0  0  0  0  0  0  0  0  0  0  0  0
  1  2  1  0
  2  3  1  0
  3  4  1  0
  4  5  1  0
  5  6  1  0
  6  7  1  0
  7  8  1  0
  7  9  1  0
  2 10  1  0
 10 11  1  0
 11 12  1  0
 12 13  1  0
 13 14  1  1
 13 15  1  0
 15 16  1  0
 16 17  1  0
 17 18  2  0
 18 19  1  0
 19 20  1  0
 20 21  1  0
 21 22  1  0
 22 23  1  0
 22 24  1  0
 24 25  1  0
 24 26  1  0
 19 27  1  0
 27 28  1  6
 27 29  1  0
 29 30  1  0
 30 31  1  0
 31 32  1  6
  7  5  1  0
 31 10  1  0
 31 13  1  0
 27 15  1  0
 24 18  1  0
  1 33  1  0
  1 34  1  0
  1 35  1  0
  2 36  1  1
  3 37  1  0
  3 38  1  0
  4 39  1  0
  4 40  1  0
  5 41  1  1
  8 42  1  0
  8 43  1  0
  8 44  1  0
  9 45  1  0
  9 46  1  0
  9 47  1  0
 10 48  1  1
 11 49  1  0
 11 50  1  0
 12 51  1  0
 12 52  1  0
 14 53  1  0
 14 54  1  0
 14 55  1  0
 15 56  1  6
 16 57  1  0
 16 58  1  0
 17 59  1  0
 19 60  1  1
 20 61  1  0
 20 62  1  0
 21 63  1  0
 21 64  1  0
 22 65  1  1
 23 66  1  0
 25 67  1  0
 25 68  1  0
 25 69  1  0
 26 70  1  0
 26 71  1  0
 26 72  1  0
 28 73  1  0
 28 74  1  0
 28 75  1  0
 29 76  1  0
 29 77  1  0
 30 78  1  0
 30 79  1  0
 32 80  1  0
 32 81  1  0
 32 82  1  0
M  END
>  <meeko>  (9) 
{"is_sidechain": [false], "intermolecular_energy": 2.731, "internal_energy": -0.839}

$$$$
EPH_relaxed_0001_pdb2pqr_Repair_326_r2_0001_out
     RDKit          3D

 82 86  0  0  0  0  0  0  0  0999 V2000
    0.1560   10.2360   -3.4060 C   0  0  0  0  0  0  0  0  0  0  0  0
    1.1810   10.1070   -2.2770 C   0  0  2  0  0  0  0  0  0  0  0  0
    0.9110    8.8790   -1.3840 C   0  0  0  0  0  0  0  0  0  0  0  0
    0.1100    9.2020   -0.1190 C   0  0  0  0  0  0  0  0  0  0  0  0
   -1.3090    8.7340   -0.2280 C   0  0  2  0  0  0  0  0  0  0  0  0
   -1.8510    8.7690   -1.5550 O   0  0  0  0  0  0  0  0  0  0  0  0
   -2.4650    9.6470   -0.5970 C   0  0  0  0  0  0  0  0  0  0  0  0
   -2.2510   11.1010   -0.8790 C   0  0  0  0  0  0  0  0  0  0  0  0
   -3.8510    9.2390   -0.2070 C   0  0  0  0  0  0  0  0  0  0  0  0
    1.1850   11.3750   -1.4310 C   0  0  1  0  0  0  0  0  0  0  0  0
    1.9780   11.2080   -0.1070 C   0  0  0  0  0  0  0  0  0  0  0  0
    2.6550   12.5720    0.1840 C   0  0  0  0  0  0  0  0  0  0  0  0
    1.9710   13.5620   -0.7880 C   0  0  1  0  0  0  0  0  0  0  0  0
    0.6250   13.9400   -0.0930 C   0  0  0  0  0  0  0  0  0  0  0  0
    2.7960   14.8320   -1.1750 C   0  0  2  0  0  0  0  0  0  0  0  0
    3.1410   15.7690   -0.0040 C   0  0  0  0  0  0  0  0  0  0  0  0
    2.1420   16.8450    0.2660 C   0  0  0  0  0  0  0  0  0  0  0  0
    1.1610   17.2310   -0.5710 C   0  0  0  0  0  0  0  0  0  0  0  0
    1.0450   16.6290   -1.9780 C   0  0  1  0  0  0  0  0  0  0  0  0
    0.8210   17.7650   -3.0100 C   0  0  0  0  0  0  0  0  0  0  0  0
   -0.3680   18.6530   -2.6550 C   0  0  0  0  0  0  0  0  0  0  0  0
   -0.1880   19.2790   -1.2740 C   0  0  2  0  0  0  0  0  0  0  0  0
    0.9110   20.1940   -1.3230 O   0  0  0  0  0  0  0  0  0  0  0  0
    0.0550   18.2310   -0.1530 C   0  0  0  0  0  0  0  0  0  0  0  0
   -1.2480   17.4340    0.1050 C   0  0  0  0  0  0  0  0  0  0  0  0
    0.3610   18.9990    1.1610 C   0  0  0  0  0  0  0  0  0  0  0  0
    2.2090   15.6360   -2.4060 C   0  0  1  0  0  0  0  0  0  0  0  0
    3.3960   16.4410   -3.0190 C   0  0  0  0  0  0  0  0  0  0  0  0
    1.6820   14.6860   -3.5450 C   0  0  0  0  0  0  0  0  0  0  0  0
    0.9810   13.3890   -3.0980 C   0  0  0  0  0  0  0  0  0  0  0  0
    1.8190   12.6440   -2.0550 C   0  0  2  0  0  0  0  0  0  0  0  0
    3.1700   12.2320   -2.7310 C   0  0  0  0  0  0  0  0  0  0  0  0
   -0.8487   10.3624   -2.9764 H   0  0  0  0  0  0  0  0  0  0  0  0
    0.4021   11.1103   -4.0266 H   0  0  0  0  0  0  0  0  0  0  0  0
    0.1778    9.3280   -4.0266 H   0  0  0  0  0  0  0  0  0  0  0  0
    2.1682    9.9665   -2.7415 H   0  0  0  0  0  0  0  0  0  0  0  0
    0.3482    8.1390   -1.9720 H   0  0  0  0  0  0  0  0  0  0  0  0
    1.8896    8.4982   -1.0564 H   0  0  0  0  0  0  0  0  0  0  0  0
    0.5844    8.7051    0.7401 H   0  0  0  0  0  0  0  0  0  0  0  0
    0.1021   10.2941    0.0128 H   0  0  0  0  0  0  0  0  0  0  0  0
   -1.1638    8.0249    0.6003 H   0  0  0  0  0  0  0  0  0  0  0  0
   -2.1701   11.6506    0.0704 H   0  0  0  0  0  0  0  0  0  0  0  0
   -1.3242   11.2298   -1.4574 H   0  0  0  0  0  0  0  0  0  0  0  0
   -3.1014   11.4914   -1.4574 H   0  0  0  0  0  0  0  0  0  0  0  0
   -3.9313    9.2154    0.8898 H   0  0  0  0  0  0  0  0  0  0  0  0
   -4.5739    9.9625   -0.6121 H   0  0  0  0  0  0  0  0  0  0  0  0
   -4.0666    8.2393   -0.6121 H   0  0  0  0  0  0  0  0  0  0  0  0
    0.1013   11.5174   -1.3073 H   0  0  0  0  0  0  0  0  0  0  0  0
    1.2946   10.9417    0.7128 H   0  0  0  0  0  0  0  0  0  0  0  0
    2.7261   10.4062   -0.1932 H   0  0  0  0  0  0  0  0  0  0  0  0
    2.4868   12.8742    1.2282 H   0  0  0  0  0  0  0  0  0  0  0  0
    3.7453   12.5351    0.0432 H   0  0  0  0  0  0  0  0  0  0  0  0
    0.7534   13.9040    0.9989 H   0  0  0  0  0  0  0  0  0  0  0  0
    0.3295   14.9559   -0.3941 H   0  0  0  0  0  0  0  0  0  0  0  0
   -0.1562   13.2265   -0.3941 H   0  0  0  0  0  0  0  0  0  0  0  0
    3.7531   14.4002   -1.5028 H   0  0  0  0  0  0  0  0  0  0  0  0
    3.2355   15.1568    0.9050 H   0  0  0  0  0  0  0  0  0  0  0  0
    4.0719   16.2817   -0.2879 H   0  0  0  0  0  0  0  0  0  0  0  0
    2.2137   17.3671    1.2316 H   0  0  0  0  0  0  0  0  0  0  0  0
    0.1663   15.9676   -1.9542 H   0  0  0  0  0  0  0  0  0  0  0  0
    1.7266   18.3881   -3.0504 H   0  0  0  0  0  0  0  0  0  0  0  0
    0.6083   17.2956   -3.9818 H   0  0  0  0  0  0  0  0  0  0  0  0
   -0.4561   19.4534   -3.4044 H   0  0  0  0  0  0  0  0  0  0  0  0
   -1.2776   18.0345   -2.6444 H   0  0  0  0  0  0  0  0  0  0  0  0
   -1.1254   19.7962   -1.0216 H   0  0  0  0  0  0  0  0  0  0  0  0
    1.7050   19.6890   -1.5690 H   0  0  0  0  0  0  0  0  0  0  0  0
   -1.4091   17.3355    1.1887 H   0  0  0  0  0  0  0  0  0  0  0  0
   -2.0987   17.9665   -0.3452 H   0  0  0  0  0  0  0  0  0  0  0  0
   -1.1615   16.4341   -0.3452 H   0  0  0  0  0  0  0  0  0  0  0  0
    0.1084   18.3649    2.0236 H   0  0  0  0  0  0  0  0  0  0  0  0
    1.4301   19.2557    1.1952 H   0  0  0  0  0  0  0  0  0  0  0  0
   -0.2386   19.9206    1.1952 H   0  0  0  0  0  0  0  0  0  0  0  0
    4.0124   16.8590   -2.2095 H   0  0  0  0  0  0  0  0  0  0  0  0
    4.0105   15.7725   -3.6399 H   0  0  0  0  0  0  0  0  0  0  0  0
    3.0023   17.2592   -3.6399 H   0  0  0  0  0  0  0  0  0  0  0  0
    0.9658   15.2594   -4.1519 H   0  0  0  0  0  0  0  0  0  0  0  0
    2.5821   14.3559   -4.0842 H   0  0  0  0  0  0  0  0  0  0  0  0
    0.0034   13.6406   -2.6610 H   0  0  0  0  0  0  0  0  0  0  0  0
    0.8546   12.7384   -3.9759 H   0  0  0  0  0  0  0  0  0  0  0  0
    3.9146   12.0049   -1.9538 H   0  0  0  0  0  0  0  0  0  0  0  0
    3.0102   11.3417   -3.3570 H   0  0  0  0  0  0  0  0  0  0  0  0
    3.5342   13.0599   -3.3570 H   0  0  0  0  0  0  0  0  0  0  0  0
  1  2  1  0
  2  3  1  0
  3  4  1  0
  4  5  1  0
  5  6  1  0
  6  7  1  0
  7  8  1  0
  7  9  1  0
  2 10  1  0
 10 11  1  0
 11 12  1  0
 12 13  1  0
 13 14  1  1
 13 15  1  0
 15 16  1  0
 16 17  1  0
 17 18  2  0
 18 19  1  0
 19 20  1  0
 20 21  1  0
 21 22  1  0
 22 23  1  0
 22 24  1  0
 24 25  1  0
 24 26  1  0
 19 27  1  0
 27 28  1  6
 27 29  1  0
 29 30  1  0
 30 31  1  0
 31 32  1  6
  7  5  1  0
 31 10  1  0
 31 13  1  0
 27 15  1  0
 24 18  1  0
  1 33  1  0
  1 34  1  0
  1 35  1  0
  2 36  1  6
  3 37  1  0
  3 38  1  0
  4 39  1  0
  4 40  1  0
  5 41  1  1
  8 42  1  0
  8 43  1  0
  8 44  1  0
  9 45  1  0
  9 46  1  0
  9 47  1  0
 10 48  1  1
 11 49  1  0
 11 50  1  0
 12 51  1  0
 12 52  1  0
 14 53  1  0
 14 54  1  0
 14 55  1  0
 15 56  1  6
 16 57  1  0
 16 58  1  0
 17 59  1  0
 19 60  1  1
 20 61  1  0
 20 62  1  0
 21 63  1  0
 21 64  1  0
 22 65  1  1
 23 66  1  0
 25 67  1  0
 25 68  1  0
 25 69  1  0
 26 70  1  0
 26 71  1  0
 26 72  1  0
 28 73  1  0
 28 74  1  0
 28 75  1  0
 29 76  1  0
 29 77  1  0
 30 78  1  0
 30 79  1  0
 32 80  1  0
 32 81  1  0
 32 82  1  0
M  END
>  <meeko>  (10) 
{"is_sidechain": [false], "intermolecular_energy": 2.731, "internal_energy": -0.839}

$$$$
EPH_relaxed_0001_pdb2pqr_Repair_326_r2_0001_out
     RDKit          3D

 82 86  0  0  0  0  0  0  0  0999 V2000
    1.8900   10.4260   -4.4310 C   0  0  0  0  0  0  0  0  0  0  0  0
    0.9190   10.3020   -3.2540 C   0  0  2  0  0  0  0  0  0  0  0  0
   -0.2420    9.3340   -3.5600 C   0  0  0  0  0  0  0  0  0  0  0  0
   -0.7990    8.6300   -2.3190 C   0  0  0  0  0  0  0  0  0  0  0  0
   -0.0230    8.9820   -1.0870 C   0  0  2  0  0  0  0  0  0  0  0  0
   -0.2350    8.1040    0.0260 O   0  0  0  0  0  0  0  0  0  0  0  0
   -0.6680    9.4630    0.2000 C   0  0  0  0  0  0  0  0  0  0  0  0
   -2.1510    9.6200    0.3180 C   0  0  0  0  0  0  0  0  0  0  0  0
    0.1650   10.2410    1.1710 C   0  0  0  0  0  0  0  0  0  0  0  0
    0.3690   11.6750   -2.8870 C   0  0  1  0  0  0  0  0  0  0  0  0
   -0.8810   11.5930   -1.9700 C   0  0  0  0  0  0  0  0  0  0  0  0
   -0.8080   12.8040   -1.0050 C   0  0  0  0  0  0  0  0  0  0  0  0
    0.2850   13.7170   -1.6060 C   0  0  1  0  0  0  0  0  0  0  0  0
   -0.4330   14.5070   -2.7450 C   0  0  0  0  0  0  0  0  0  0  0  0
    1.0110   14.6760   -0.6070 C   0  0  2  0  0  0  0  0  0  0  0  0
    0.1050   15.7190    0.0700 C   0  0  0  0  0  0  0  0  0  0  0  0
   -0.0190   17.0200   -0.6510 C   0  0  0  0  0  0  0  0  0  0  0  0
    0.7880   17.4460   -1.6410 C   0  0  0  0  0  0  0  0  0  0  0  0
    2.0160   16.6290   -2.0630 C   0  0  1  0  0  0  0  0  0  0  0  0
    3.2430   17.5680   -2.1960 C   0  0  0  0  0  0  0  0  0  0  0  0
    2.9780   18.7470   -3.1280 C   0  0  0  0  0  0  0  0  0  0  0  0
    1.7870   19.5690   -2.6430 C   0  0  2  0  0  0  0  0  0  0  0  0
    2.1320   20.1930   -1.4020 O   0  0  0  0  0  0  0  0  0  0  0  0
    0.4940   18.7260   -2.4620 C   0  0  0  0  0  0  0  0  0  0  0  0
   -0.0480   18.3000   -3.8490 C   0  0  0  0  0  0  0  0  0  0  0  0
   -0.5910   19.6430   -1.8350 C   0  0  0  0  0  0  0  0  0  0  0  0
    2.3260   15.3400   -1.1850 C   0  0  1  0  0  0  0  0  0  0  0  0
    3.2040   15.7320    0.0420 C   0  0  0  0  0  0  0  0  0  0  0  0
    3.1810   14.3310   -2.0390 C   0  0  0  0  0  0  0  0  0  0  0  0
    2.4040   13.3290   -2.9150 C   0  0  0  0  0  0  0  0  0  0  0  0
    1.3060   12.6310   -2.1060 C   0  0  2  0  0  0  0  0  0  0  0  0
    2.0000   11.8100   -0.9670 C   0  0  0  0  0  0  0  0  0  0  0  0
    2.9135   10.5567   -4.0498 H   0  0  0  0  0  0  0  0  0  0  0  0
    1.8409    9.5143   -5.0445 H   0  0  0  0  0  0  0  0  0  0  0  0
    1.6133   11.2961   -5.0445 H   0  0  0  0  0  0  0  0  0  0  0  0
    1.4802    9.8872   -2.4037 H   0  0  0  0  0  0  0  0  0  0  0  0
   -1.0560    9.9054   -4.0300 H   0  0  0  0  0  0  0  0  0  0  0  0
    0.1574    8.5514   -4.2218 H   0  0  0  0  0  0  0  0  0  0  0  0
   -1.8474    8.9319   -2.1783 H   0  0  0  0  0  0  0  0  0  0  0  0
   -0.7191    7.5442   -2.4760 H   0  0  0  0  0  0  0  0  0  0  0  0
    0.8022    9.3834   -1.6936 H   0  0  0  0  0  0  0  0  0  0  0  0
   -2.4331    9.6499    1.3808 H   0  0  0  0  0  0  0  0  0  0  0  0
   -2.4606   10.5559   -0.1700 H   0  0  0  0  0  0  0  0  0  0  0  0
   -2.6497    8.7696   -0.1700 H   0  0  0  0  0  0  0  0  0  0  0  0
   -0.1225    9.9725    2.1982 H   0  0  0  0  0  0  0  0  0  0  0  0
    1.2278   10.0047    1.0140 H   0  0  0  0  0  0  0  0  0  0  0  0
    0.0017   11.3174    1.0140 H   0  0  0  0  0  0  0  0  0  0  0  0
    0.1797   12.0728   -3.8949 H   0  0  0  0  0  0  0  0  0  0  0  0
   -1.7984   11.6452   -2.5746 H   0  0  0  0  0  0  0  0  0  0  0  0
   -0.9006   10.6447   -1.4129 H   0  0  0  0  0  0  0  0  0  0  0  0
   -1.7741   13.3286   -0.9666 H   0  0  0  0  0  0  0  0  0  0  0  0
   -0.5773   12.5013    0.0271 H   0  0  0  0  0  0  0  0  0  0  0  0
   -1.1106   15.2525   -2.3033 H   0  0  0  0  0  0  0  0  0  0  0  0
    0.3175   15.0166   -3.3671 H   0  0  0  0  0  0  0  0  0  0  0  0
   -1.0118   13.8085   -3.3671 H   0  0  0  0  0  0  0  0  0  0  0  0
    1.3260   13.9896    0.1927 H   0  0  0  0  0  0  0  0  0  0  0  0
   -0.9015   15.2852    0.1638 H   0  0  0  0  0  0  0  0  0  0  0  0
    0.5769   15.9505    1.0363 H   0  0  0  0  0  0  0  0  0  0  0  0
   -0.8392   17.6873   -0.3478 H   0  0  0  0  0  0  0  0  0  0  0  0
    1.7703   16.1959   -3.0438 H   0  0  0  0  0  0  0  0  0  0  0  0
    3.4994   17.9567   -1.1994 H   0  0  0  0  0  0  0  0  0  0  0  0
    4.0682   16.9811   -2.6256 H   0  0  0  0  0  0  0  0  0  0  0  0
    3.8703   19.3895   -3.1583 H   0  0  0  0  0  0  0  0  0  0  0  0
    2.7503   18.3572   -4.1311 H   0  0  0  0  0  0  0  0  0  0  0  0
    1.5668   20.3189   -3.4170 H   0  0  0  0  0  0  0  0  0  0  0  0
    2.8970   20.7700   -1.5660 H   0  0  0  0  0  0  0  0  0  0  0  0
   -0.9065   17.6253   -3.7158 H   0  0  0  0  0  0  0  0  0  0  0  0
   -0.3662   19.1922   -4.4081 H   0  0  0  0  0  0  0  0  0  0  0  0
    0.7438   17.7800   -4.4081 H   0  0  0  0  0  0  0  0  0  0  0  0
   -0.5274   19.5892   -0.7382 H   0  0  0  0  0  0  0  0  0  0  0  0
   -0.4274   20.6807   -2.1613 H   0  0  0  0  0  0  0  0  0  0  0  0
   -1.5869   19.3087   -2.1613 H   0  0  0  0  0  0  0  0  0  0  0  0
    2.6651   15.4914    0.9703 H   0  0  0  0  0  0  0  0  0  0  0  0
    4.1494   15.1705    0.0108 H   0  0  0  0  0  0  0  0  0  0  0  0
    3.4171   16.8107    0.0108 H   0  0  0  0  0  0  0  0  0  0  0  0
    3.8276   14.9225   -2.7039 H   0  0  0  0  0  0  0  0  0  0  0  0
    3.7174   13.7140   -1.3031 H   0  0  0  0  0  0  0  0  0  0  0  0
    1.9439   13.8678   -3.7564 H   0  0  0  0  0  0  0  0  0  0  0  0
    3.1063   12.5671   -3.2841 H   0  0  0  0  0  0  0  0  0  0  0  0
    1.6756   12.1938    0.0115 H   0  0  0  0  0  0  0  0  0  0  0  0
    1.7200   10.7500   -1.0563 H   0  0  0  0  0  0  0  0  0  0  0  0
    3.0918   11.9096   -1.0563 H   0  0  0  0  0  0  0  0  0  0  0  0
  1  2  1  0
  2  3  1  0
  3  4  1  0
  4  5  1  0
  5  6  1  0
  6  7  1  0
  7  8  1  0
  7  9  1  0
  2 10  1  0
 10 11  1  0
 11 12  1  0
 12 13  1  0
 13 14  1  6
 13 15  1  0
 15 16  1  0
 16 17  1  0
 17 18  2  0
 18 19  1  0
 19 20  1  0
 20 21  1  0
 21 22  1  0
 22 23  1  0
 22 24  1  0
 24 25  1  0
 24 26  1  0
 19 27  1  0
 27 28  1  1
 27 29  1  0
 29 30  1  0
 30 31  1  0
 31 32  1  1
  7  5  1  0
 31 10  1  0
 31 13  1  0
 27 15  1  0
 24 18  1  0
  1 33  1  0
  1 34  1  0
  1 35  1  0
  2 36  1  1
  3 37  1  0
  3 38  1  0
  4 39  1  0
  4 40  1  0
  5 41  1  6
  8 42  1  0
  8 43  1  0
  8 44  1  0
  9 45  1  0
  9 46  1  0
  9 47  1  0
 10 48  1  6
 11 49  1  0
 11 50  1  0
 12 51  1  0
 12 52  1  0
 14 53  1  0
 14 54  1  0
 14 55  1  0
 15 56  1  1
 16 57  1  0
 16 58  1  0
 17 59  1  0
 19 60  1  6
 20 61  1  0
 20 62  1  0
 21 63  1  0
 21 64  1  0
 22 65  1  6
 23 66  1  0
 25 67  1  0
 25 68  1  0
 25 69  1  0
 26 70  1  0
 26 71  1  0
 26 72  1  0
 28 73  1  0
 28 74  1  0
 28 75  1  0
 29 76  1  0
 29 77  1  0
 30 78  1  0
 30 79  1  0
 32 80  1  0
 32 81  1  0
 32 82  1  0
M  END
>  <meeko>  (11) 
{"is_sidechain": [false], "intermolecular_energy": 2.731, "internal_energy": -0.839}

$$$$
EPH_relaxed_0001_pdb2pqr_Repair_326_r2_0001_out
     RDKit          3D

 82 86  0  0  0  0  0  0  0  0999 V2000
   -1.2440   10.3930    1.6120 C   0  0  0  0  0  0  0  0  0  0  0  0
   -1.8770   10.1110    0.2460 C   0  0  2  0  0  0  0  0  0  0  0  0
   -2.6670    8.7870    0.2350 C   0  0  0  0  0  0  0  0  0  0  0  0
   -4.0520    8.9020   -0.4080 C   0  0  0  0  0  0  0  0  0  0  0  0
   -4.5810    7.5650   -0.8280 C   0  0  2  0  0  0  0  0  0  0  0  0
   -4.7880    7.4180   -2.2390 O   0  0  0  0  0  0  0  0  0  0  0  0
   -5.9650    7.3600   -1.4170 C   0  0  0  0  0  0  0  0  0  0  0  0
   -6.9050    8.5060   -1.6180 C   0  0  0  0  0  0  0  0  0  0  0  0
   -6.5800    5.9970   -1.3410 C   0  0  0  0  0  0  0  0  0  0  0  0
   -0.7980   10.0830   -0.8300 C   0  0  1  0  0  0  0  0  0  0  0  0
   -1.1990    9.2180   -2.0550 C   0  0  0  0  0  0  0  0  0  0  0  0
   -0.5960    9.9070   -3.3060 C   0  0  0  0  0  0  0  0  0  0  0  0
    0.3990   10.9450   -2.7380 C   0  0  1  0  0  0  0  0  0  0  0  0
    1.6880   10.1280   -2.4110 C   0  0  0  0  0  0  0  0  0  0  0  0
    0.7110   12.1750   -3.6510 C   0  0  2  0  0  0  0  0  0  0  0  0
    1.3830   11.8370   -4.9940 C   0  0  0  0  0  0  0  0  0  0  0  0
    2.8760   11.8280   -4.9750 C   0  0  0  0  0  0  0  0  0  0  0  0
    3.6490   12.3540   -4.0070 C   0  0  0  0  0  0  0  0  0  0  0  0
    3.0290   13.1260   -2.8350 C   0  0  1  0  0  0  0  0  0  0  0  0
    3.8150   14.4430   -2.6080 C   0  0  0  0  0  0  0  0  0  0  0  0
    5.3110   14.2070   -2.4240 C   0  0  0  0  0  0  0  0  0  0  0  0
    5.9030   13.4900   -3.6350 C   0  0  2  0  0  0  0  0  0  0  0  0
    5.8390   14.3640   -4.7660 O   0  0  0  0  0  0  0  0  0  0  0  0
    5.1840   12.1520   -3.9670 C   0  0  0  0  0  0  0  0  0  0  0  0
    5.5070   11.1020   -2.8750 C   0  0  0  0  0  0  0  0  0  0  0  0
    5.7840   11.6030   -5.2890 C   0  0  0  0  0  0  0  0  0  0  0  0
    1.4580   13.3580   -2.9120 C   0  0  1  0  0  0  0  0  0  0  0  0
    1.1510   14.6540   -3.7240 C   0  0  0  0  0  0  0  0  0  0  0  0
    0.9030   13.6020   -1.4600 C   0  0  0  0  0  0  0  0  0  0  0  0
    0.5000   12.3540   -0.6510 C   0  0  0  0  0  0  0  0  0  0  0  0
   -0.4040   11.4340   -1.4780 C   0  0  2  0  0  0  0  0  0  0  0  0
   -1.7190   12.2210   -1.8030 C   0  0  0  0  0  0  0  0  0  0  0  0
   -1.9373   10.0841    2.4082 H   0  0  0  0  0  0  0  0  0  0  0  0
   -0.3046    9.8283    1.7044 H   0  0  0  0  0  0  0  0  0  0  0  0
   -1.0355   11.4691    1.7044 H   0  0  0  0  0  0  0  0  0  0  0  0
   -2.5898   10.9223    0.0368 H   0  0  0  0  0  0  0  0  0  0  0  0
   -2.0851    8.0400   -0.3249 H   0  0  0  0  0  0  0  0  0  0  0  0
   -2.8229    8.4969    1.2845 H   0  0  0  0  0  0  0  0  0  0  0  0
   -4.7467    9.3477    0.3192 H   0  0  0  0  0  0  0  0  0  0  0  0
   -3.9621    9.5322   -1.3051 H   0  0  0  0  0  0  0  0  0  0  0  0
   -4.0493    7.0696   -0.0022 H   0  0  0  0  0  0  0  0  0  0  0  0
   -7.2238    8.8947   -0.6396 H   0  0  0  0  0  0  0  0  0  0  0  0
   -6.3968    9.3026   -2.1811 H   0  0  0  0  0  0  0  0  0  0  0  0
   -7.7857    8.1635   -2.1811 H   0  0  0  0  0  0  0  0  0  0  0  0
   -6.7090    5.7112   -0.2866 H   0  0  0  0  0  0  0  0  0  0  0  0
   -7.5601    6.0086   -1.8403 H   0  0  0  0  0  0  0  0  0  0  0  0
   -5.9228    5.2698   -1.8403 H   0  0  0  0  0  0  0  0  0  0  0  0
    0.0420    9.6900   -0.2385 H   0  0  0  0  0  0  0  0  0  0  0  0
   -0.7928    8.2012   -1.9499 H   0  0  0  0  0  0  0  0  0  0  0  0
   -2.2927    9.1349   -2.1386 H   0  0  0  0  0  0  0  0  0  0  0  0
   -0.0738    9.1744   -3.9390 H   0  0  0  0  0  0  0  0  0  0  0  0
   -1.3668   10.3709   -3.9390 H   0  0  0  0  0  0  0  0  0  0  0  0
    1.8073   10.0524   -1.3201 H   0  0  0  0  0  0  0  0  0  0  0  0
    1.6018    9.1193   -2.8412 H   0  0  0  0  0  0  0  0  0  0  0  0
    2.5634   10.6365   -2.8412 H   0  0  0  0  0  0  0  0  0  0  0  0
   -0.2946   12.5419   -3.9043 H   0  0  0  0  0  0  0  0  0  0  0  0
    1.0409   10.8384   -5.3036 H   0  0  0  0  0  0  0  0  0  0  0  0
    1.0921   12.6375   -5.6901 H   0  0  0  0  0  0  0  0  0  0  0  0
    3.3874   11.3510   -5.8241 H   0  0  0  0  0  0  0  0  0  0  0  0
    3.1309   12.4750   -1.9542 H   0  0  0  0  0  0  0  0  0  0  0  0
    3.6658   15.0974   -3.4795 H   0  0  0  0  0  0  0  0  0  0  0  0
    3.4338   14.9046   -1.6852 H   0  0  0  0  0  0  0  0  0  0  0  0
    5.8155   15.1762   -2.2973 H   0  0  0  0  0  0  0  0  0  0  0  0
    5.4604   13.5767   -1.5350 H   0  0  0  0  0  0  0  0  0  0  0  0
    6.9443   13.2341   -3.3897 H   0  0  0  0  0  0  0  0  0  0  0  0
    5.3310   15.1500   -4.5010 H   0  0  0  0  0  0  0  0  0  0  0  0
    5.3685   11.5523   -1.8810 H   0  0  0  0  0  0  0  0  0  0  0  0
    4.8325   10.2400   -2.9843 H   0  0  0  0  0  0  0  0  0  0  0  0
    6.5494   10.7681   -2.9843 H   0  0  0  0  0  0  0  0  0  0  0  0
    6.5774   10.8770   -5.0579 H   0  0  0  0  0  0  0  0  0  0  0  0
    4.9936   11.1088   -5.8730 H   0  0  0  0  0  0  0  0  0  0  0  0
    6.2062   12.4341   -5.8730 H   0  0  0  0  0  0  0  0  0  0  0  0
    0.9544   15.4840   -3.0294 H   0  0  0  0  0  0  0  0  0  0  0  0
    2.0150   14.9030   -4.3576 H   0  0  0  0  0  0  0  0  0  0  0  0
    0.2671   14.4890   -4.3576 H   0  0  0  0  0  0  0  0  0  0  0  0
    1.6818   14.1304   -0.8906 H   0  0  0  0  0  0  0  0  0  0  0  0
   -0.0299   14.1677   -1.5999 H   0  0  0  0  0  0  0  0  0  0  0  0
    1.4075   11.8031   -0.3631 H   0  0  0  0  0  0  0  0  0  0  0  0
   -0.0528   12.6784    0.2430 H   0  0  0  0  0  0  0  0  0  0  0  0
   -2.2114   12.5157   -0.8645 H   0  0  0  0  0  0  0  0  0  0  0  0
   -1.4732   13.1206   -2.3863 H   0  0  0  0  0  0  0  0  0  0  0  0
   -2.3957   11.5793   -2.3863 H   0  0  0  0  0  0  0  0  0  0  0  0
  1  2  1  0
  2  3  1  0
  3  4  1  0
  4  5  1  0
  5  6  1  0
  6  7  1  0
  7  8  1  0
  7  9  1  0
  2 10  1  0
 10 11  1  0
 11 12  1  0
 12 13  1  0
 13 14  1  1
 13 15  1  0
 15 16  1  0
 16 17  1  0
 17 18  2  0
 18 19  1  0
 19 20  1  0
 20 21  1  0
 21 22  1  0
 22 23  1  0
 22 24  1  0
 24 25  1  0
 24 26  1  0
 19 27  1  0
 27 28  1  6
 27 29  1  0
 29 30  1  0
 30 31  1  0
 31 32  1  6
  7  5  1  0
 31 10  1  0
 31 13  1  0
 27 15  1  0
 24 18  1  0
  1 33  1  0
  1 34  1  0
  1 35  1  0
  2 36  1  6
  3 37  1  0
  3 38  1  0
  4 39  1  0
  4 40  1  0
  5 41  1  1
  8 42  1  0
  8 43  1  0
  8 44  1  0
  9 45  1  0
  9 46  1  0
  9 47  1  0
 10 48  1  1
 11 49  1  0
 11 50  1  0
 12 51  1  0
 12 52  1  0
 14 53  1  0
 14 54  1  0
 14 55  1  0
 15 56  1  6
 16 57  1  0
 16 58  1  0
 17 59  1  0
 19 60  1  1
 20 61  1  0
 20 62  1  0
 21 63  1  0
 21 64  1  0
 22 65  1  1
 23 66  1  0
 25 67  1  0
 25 68  1  0
 25 69  1  0
 26 70  1  0
 26 71  1  0
 26 72  1  0
 28 73  1  0
 28 74  1  0
 28 75  1  0
 29 76  1  0
 29 77  1  0
 30 78  1  0
 30 79  1  0
 32 80  1  0
 32 81  1  0
 32 82  1  0
M  END
>  <meeko>  (12) 
{"is_sidechain": [false], "intermolecular_energy": 2.731, "internal_energy": -0.839}

$$$$
EPH_relaxed_0001_pdb2pqr_Repair_326_r2_0001_out
     RDKit          3D

 82 86  0  0  0  0  0  0  0  0999 V2000
   -5.0820    5.9630   -1.8190 C   0  0  0  0  0  0  0  0  0  0  0  0
   -5.4330    7.4530   -1.8100 C   0  0  2  0  0  0  0  0  0  0  0  0
   -5.2360    8.0880   -0.4190 C   0  0  0  0  0  0  0  0  0  0  0  0
   -4.1620    9.1780   -0.3860 C   0  0  0  0  0  0  0  0  0  0  0  0
   -2.8110    8.6380   -0.7460 C   0  0  2  0  0  0  0  0  0  0  0  0
   -1.7680    8.9690    0.1790 O   0  0  0  0  0  0  0  0  0  0  0  0
   -1.6380    9.5140   -1.1440 C   0  0  0  0  0  0  0  0  0  0  0  0
   -1.7620   11.0040   -1.2030 C   0  0  0  0  0  0  0  0  0  0  0  0
   -0.5270    8.9040   -1.9410 C   0  0  0  0  0  0  0  0  0  0  0  0
   -6.8720    7.6520   -2.2730 C   0  0  1  0  0  0  0  0  0  0  0  0
   -7.1680    6.9410   -3.6210 C   0  0  0  0  0  0  0  0  0  0  0  0
   -8.6350    6.4430   -3.5510 C   0  0  0  0  0  0  0  0  0  0  0  0
   -9.2330    7.1630   -2.3190 C   0  0  1  0  0  0  0  0  0  0  0  0
   -9.6090    8.5890   -2.8320 C   0  0  0  0  0  0  0  0  0  0  0  0
  -10.4460    6.4590   -1.6290 C   0  0  2  0  0  0  0  0  0  0  0  0
  -11.6990    6.3050   -2.5090 C   0  0  0  0  0  0  0  0  0  0  0  0
  -12.6720    7.4350   -2.4350 C   0  0  0  0  0  0  0  0  0  0  0  0
  -12.6910    8.3900   -1.4870 C   0  0  0  0  0  0  0  0  0  0  0  0
  -11.7240    8.3390   -0.2970 C   0  0  1  0  0  0  0  0  0  0  0  0
  -12.5040    8.6140    1.0150 C   0  0  0  0  0  0  0  0  0  0  0  0
  -13.2960    9.9170    0.9630 C   0  0  0  0  0  0  0  0  0  0  0  0
  -14.2870    9.9060   -0.1980 C   0  0  2  0  0  0  0  0  0  0  0  0
  -15.2870    8.9160    0.0590 O   0  0  0  0  0  0  0  0  0  0  0  0
  -13.6170    9.6280   -1.5730 C   0  0  0  0  0  0  0  0  0  0  0  0
  -12.7600   10.8490   -1.9900 C   0  0  0  0  0  0  0  0  0  0  0  0
  -14.7430    9.5040   -2.6350 C   0  0  0  0  0  0  0  0  0  0  0  0
  -10.8090    7.0430   -0.2040 C   0  0  1  0  0  0  0  0  0  0  0  0
  -11.5630    5.9130    0.5620 C   0  0  0  0  0  0  0  0  0  0  0  0
   -9.5290    7.3790    0.6490 C   0  0  0  0  0  0  0  0  0  0  0  0
   -8.3210    7.9610   -0.1100 C   0  0  0  0  0  0  0  0  0  0  0  0
   -7.9960    7.1210   -1.3490 C   0  0  2  0  0  0  0  0  0  0  0  0
   -7.5920    5.6870   -0.8640 C   0  0  0  0  0  0  0  0  0  0  0  0
   -4.9965    5.6002   -0.7841 H   0  0  0  0  0  0  0  0  0  0  0  0
   -5.8728    5.4031   -2.3397 H   0  0  0  0  0  0  0  0  0  0  0  0
   -4.1244    5.8150   -2.3397 H   0  0  0  0  0  0  0  0  0  0  0  0
   -4.7455    7.9580   -2.5045 H   0  0  0  0  0  0  0  0  0  0  0  0
   -6.1911    8.5320   -0.1017 H   0  0  0  0  0  0  0  0  0  0  0  0
   -4.9008    7.2863    0.2555 H   0  0  0  0  0  0  0  0  0  0  0  0
   -4.4330    9.9669   -1.1031 H   0  0  0  0  0  0  0  0  0  0  0  0
   -4.1097    9.5762    0.6381 H   0  0  0  0  0  0  0  0  0  0  0  0
   -3.2647    7.7538   -1.2176 H   0  0  0  0  0  0  0  0  0  0  0  0
   -1.7958   11.4099   -0.1812 H   0  0  0  0  0  0  0  0  0  0  0  0
   -0.8956   11.4232   -1.7356 H   0  0  0  0  0  0  0  0  0  0  0  0
   -2.6857   11.2743   -1.7356 H   0  0  0  0  0  0  0  0  0  0  0  0
    0.2290    8.4889   -1.2582 H   0  0  0  0  0  0  0  0  0  0  0  0
   -0.9291    8.1002   -2.5752 H   0  0  0  0  0  0  0  0  0  0  0  0
   -0.0646    9.6747   -2.5752 H   0  0  0  0  0  0  0  0  0  0  0  0
   -6.9044    8.7509   -2.3107 H   0  0  0  0  0  0  0  0  0  0  0  0
   -7.0469    7.6466   -4.4561 H   0  0  0  0  0  0  0  0  0  0  0  0
   -6.4740    6.1038   -3.7869 H   0  0  0  0  0  0  0  0  0  0  0  0
   -9.1823    6.7175   -4.4648 H   0  0  0  0  0  0  0  0  0  0  0  0
   -8.7004    5.3482   -3.4669 H   0  0  0  0  0  0  0  0  0  0  0  0
   -9.7842    9.2533   -1.9729 H   0  0  0  0  0  0  0  0  0  0  0  0
   -8.7854    8.9881   -3.4422 H   0  0  0  0  0  0  0  0  0  0  0  0
  -10.5223    8.5301   -3.4422 H   0  0  0  0  0  0  0  0  0  0  0  0
  -10.0666    5.4389   -1.4693 H   0  0  0  0  0  0  0  0  0  0  0  0
  -11.3705    6.2070   -3.5542 H   0  0  0  0  0  0  0  0  0  0  0  0
  -12.2307    5.4198   -2.1299 H   0  0  0  0  0  0  0  0  0  0  0  0
  -13.4383    7.4918   -3.2221 H   0  0  0  0  0  0  0  0  0  0  0  0
  -10.9876    9.1382   -0.4672 H   0  0  0  0  0  0  0  0  0  0  0  0
  -13.2033    7.7831    1.1902 H   0  0  0  0  0  0  0  0  0  0  0  0
  -11.7686    8.7027    1.8282 H   0  0  0  0  0  0  0  0  0  0  0  0
  -13.8479   10.0409    1.9064 H   0  0  0  0  0  0  0  0  0  0  0  0
  -12.5928   10.7502    0.8170 H   0  0  0  0  0  0  0  0  0  0  0  0
  -14.7303   10.9106   -0.2629 H   0  0  0  0  0  0  0  0  0  0  0  0
  -15.9480    9.3120    0.6520 H   0  0  0  0  0  0  0  0  0  0  0  0
  -12.3967   11.3666   -1.0899 H   0  0  0  0  0  0  0  0  0  0  0  0
  -11.9022   10.5078   -2.5881 H   0  0  0  0  0  0  0  0  0  0  0  0
  -13.3725   11.5398   -2.5881 H   0  0  0  0  0  0  0  0  0  0  0  0
  -15.7139    9.3971   -2.1292 H   0  0  0  0  0  0  0  0  0  0  0  0
  -14.7547   10.4063   -3.2641 H   0  0  0  0  0  0  0  0  0  0  0  0
  -14.5581    8.6208   -3.2641 H   0  0  0  0  0  0  0  0  0  0  0  0
  -11.4575    6.0710    1.6455 H   0  0  0  0  0  0  0  0  0  0  0  0
  -12.6287    5.9340    0.2904 H   0  0  0  0  0  0  0  0  0  0  0  0
  -11.1345    4.9370    0.2904 H   0  0  0  0  0  0  0  0  0  0  0  0
   -9.8232    8.1099    1.4166 H   0  0  0  0  0  0  0  0  0  0  0  0
   -9.1830    6.4116    1.0418 H   0  0  0  0  0  0  0  0  0  0  0  0
   -8.5542    8.9893   -0.4234 H   0  0  0  0  0  0  0  0  0  0  0  0
   -7.4482    7.9513    0.5594 H   0  0  0  0  0  0  0  0  0  0  0  0
   -7.5845    5.6604    0.2357 H   0  0  0  0  0  0  0  0  0  0  0  0
   -8.3184    4.9533   -1.2436 H   0  0  0  0  0  0  0  0  0  0  0  0
   -6.5894    5.4405   -1.2436 H   0  0  0  0  0  0  0  0  0  0  0  0
  1  2  1  0
  2  3  1  0
  3  4  1  0
  4  5  1  0
  5  6  1  0
  6  7  1  0
  7  8  1  0
  7  9  1  0
  2 10  1  0
 10 11  1  0
 11 12  1  0
 12 13  1  0
 13 14  1  6
 13 15  1  0
 15 16  1  0
 16 17  1  0
 17 18  2  0
 18 19  1  0
 19 20  1  0
 20 21  1  0
 21 22  1  0
 22 23  1  0
 22 24  1  0
 24 25  1  0
 24 26  1  0
 19 27  1  0
 27 28  1  1
 27 29  1  0
 29 30  1  0
 30 31  1  0
 31 32  1  1
  7  5  1  0
 31 10  1  0
 31 13  1  0
 27 15  1  0
 24 18  1  0
  1 33  1  0
  1 34  1  0
  1 35  1  0
  2 36  1  6
  3 37  1  0
  3 38  1  0
  4 39  1  0
  4 40  1  0
  5 41  1  6
  8 42  1  0
  8 43  1  0
  8 44  1  0
  9 45  1  0
  9 46  1  0
  9 47  1  0
 10 48  1  6
 11 49  1  0
 11 50  1  0
 12 51  1  0
 12 52  1  0
 14 53  1  0
 14 54  1  0
 14 55  1  0
 15 56  1  1
 16 57  1  0
 16 58  1  0
 17 59  1  0
 19 60  1  6
 20 61  1  0
 20 62  1  0
 21 63  1  0
 21 64  1  0
 22 65  1  6
 23 66  1  0
 25 67  1  0
 25 68  1  0
 25 69  1  0
 26 70  1  0
 26 71  1  0
 26 72  1  0
 28 73  1  0
 28 74  1  0
 28 75  1  0
 29 76  1  0
 29 77  1  0
 30 78  1  0
 30 79  1  0
 32 80  1  0
 32 81  1  0
 32 82  1  0
M  END
>  <meeko>  (13) 
{"is_sidechain": [false], "intermolecular_energy": 2.731, "internal_energy": -0.839}

$$$$
EPH_relaxed_0001_pdb2pqr_Repair_326_r2_0001_out
     RDKit          3D

 82 86  0  0  0  0  0  0  0  0999 V2000
    4.4570   17.4270   -2.1610 C   0  0  0  0  0  0  0  0  0  0  0  0
    2.9870   17.0180   -2.2880 C   0  0  2  0  0  0  0  0  0  0  0  0
    2.1400   17.5220   -1.1030 C   0  0  0  0  0  0  0  0  0  0  0  0
    2.9680   17.9050    0.1270 C   0  0  0  0  0  0  0  0  0  0  0  0
    2.1980   18.7900    1.0600 C   0  0  2  0  0  0  0  0  0  0  0  0
    2.3780   20.1940    0.8390 O   0  0  0  0  0  0  0  0  0  0  0  0
    2.8530   19.6850    2.0950 C   0  0  0  0  0  0  0  0  0  0  0  0
    4.3400   19.7400    2.2510 C   0  0  0  0  0  0  0  0  0  0  0  0
    2.0420   20.1300    3.2720 C   0  0  0  0  0  0  0  0  0  0  0  0
    2.8770   15.5020   -2.4000 C   0  0  1  0  0  0  0  0  0  0  0  0
    4.2550   14.8160   -2.5980 C   0  0  0  0  0  0  0  0  0  0  0  0
    4.1920   13.4600   -1.8480 C   0  0  0  0  0  0  0  0  0  0  0  0
    2.6920   13.2610   -1.5280 C   0  0  1  0  0  0  0  0  0  0  0  0
    2.0710   12.7030   -2.8470 C   0  0  0  0  0  0  0  0  0  0  0  0
    2.3620   12.3470   -0.3030 C   0  0  2  0  0  0  0  0  0  0  0  0
    2.8250   10.8850   -0.4360 C   0  0  0  0  0  0  0  0  0  0  0  0
    1.8280    9.9540   -1.0430 C   0  0  0  0  0  0  0  0  0  0  0  0
    0.5160   10.2080   -1.2030 C   0  0  0  0  0  0  0  0  0  0  0  0
   -0.1070   11.5010   -0.6630 C   0  0  1  0  0  0  0  0  0  0  0  0
   -1.4230   11.1680    0.0870 C   0  0  0  0  0  0  0  0  0  0  0  0
   -2.3970   10.3640   -0.7680 C   0  0  0  0  0  0  0  0  0  0  0  0
   -1.7610    9.0580   -1.2380 C   0  0  2  0  0  0  0  0  0  0  0  0
   -1.5410    8.2170   -0.1010 O   0  0  0  0  0  0  0  0  0  0  0  0
   -0.4220    9.2680   -1.9990 C   0  0  0  0  0  0  0  0  0  0  0  0
   -0.7040    9.9160   -3.3780 C   0  0  0  0  0  0  0  0  0  0  0  0
    0.1840    7.8690   -2.2930 C   0  0  0  0  0  0  0  0  0  0  0  0
    0.8590   12.4350    0.1850 C   0  0  1  0  0  0  0  0  0  0  0  0
    0.8500   11.9920    1.6800 C   0  0  0  0  0  0  0  0  0  0  0  0
    0.3060   13.9090    0.1560 C   0  0  0  0  0  0  0  0  0  0  0  0
    0.7640   14.8000   -1.0150 C   0  0  0  0  0  0  0  0  0  0  0  0
    2.2840   14.7410   -1.1870 C   0  0  2  0  0  0  0  0  0  0  0  0
    2.9360   15.3160    0.1160 C   0  0  0  0  0  0  0  0  0  0  0  0
    4.7262   17.5019   -1.0971 H   0  0  0  0  0  0  0  0  0  0  0  0
    5.0912   16.6712   -2.6473 H   0  0  0  0  0  0  0  0  0  0  0  0
    4.6097   18.4018   -2.6473 H   0  0  0  0  0  0  0  0  0  0  0  0
    2.5904   17.4875   -3.2003 H   0  0  0  0  0  0  0  0  0  0  0  0
    1.5758   18.4074   -1.4312 H   0  0  0  0  0  0  0  0  0  0  0  0
    1.4826   16.6929   -0.8023 H   0  0  0  0  0  0  0  0  0  0  0  0
    3.2565   16.9882    0.6621 H   0  0  0  0  0  0  0  0  0  0  0  0
    3.8554   18.4574   -0.2155 H   0  0  0  0  0  0  0  0  0  0  0  0
    1.3880   18.0492    1.1314 H   0  0  0  0  0  0  0  0  0  0  0  0
    4.5964   19.7495    3.3207 H   0  0  0  0  0  0  0  0  0  0  0  0
    4.7916   18.8579    1.7735 H   0  0  0  0  0  0  0  0  0  0  0  0
    4.7253   20.6530    1.7735 H   0  0  0  0  0  0  0  0  0  0  0  0
    2.5582   19.8468    4.2011 H   0  0  0  0  0  0  0  0  0  0  0  0
    1.9180   21.2225    3.2399 H   0  0  0  0  0  0  0  0  0  0  0  0
    1.0539   19.6477    3.2399 H   0  0  0  0  0  0  0  0  0  0  0  0
    2.1952   15.4292   -3.2602 H   0  0  0  0  0  0  0  0  0  0  0  0
    4.4442   14.6483   -3.6685 H   0  0  0  0  0  0  0  0  0  0  0  0
    5.0689   15.4452   -2.2085 H   0  0  0  0  0  0  0  0  0  0  0  0
    4.5643   12.6453   -2.4865 H   0  0  0  0  0  0  0  0  0  0  0  0
    4.8162   13.4546   -0.9423 H   0  0  0  0  0  0  0  0  0  0  0  0
    1.2733   11.9862   -2.6022 H   0  0  0  0  0  0  0  0  0  0  0  0
    1.6508   13.5328   -3.4342 H   0  0  0  0  0  0  0  0  0  0  0  0
    2.8513   12.1967   -3.4342 H   0  0  0  0  0  0  0  0  0  0  0  0
    2.9823   12.7857    0.4925 H   0  0  0  0  0  0  0  0  0  0  0  0
    3.7293   10.8703   -1.0622 H   0  0  0  0  0  0  0  0  0  0  0  0
    2.9939   10.5243    0.5894 H   0  0  0  0  0  0  0  0  0  0  0  0
    2.1972    8.9773   -1.3889 H   0  0  0  0  0  0  0  0  0  0  0  0
   -0.3263   12.1231   -1.5433 H   0  0  0  0  0  0  0  0  0  0  0  0
   -1.1781   10.5836    0.9862 H   0  0  0  0  0  0  0  0  0  0  0  0
   -1.9111   12.1200    0.3429 H   0  0  0  0  0  0  0  0  0  0  0  0
   -3.2933   10.1343   -0.1731 H   0  0  0  0  0  0  0  0  0  0  0  0
   -2.6647   10.9620   -1.6516 H   0  0  0  0  0  0  0  0  0  0  0  0
   -2.4566    8.5898   -1.9500 H   0  0  0  0  0  0  0  0  0  0  0  0
   -1.1880    8.7740    0.6130 H   0  0  0  0  0  0  0  0  0  0  0  0
   -1.1390   10.9156   -3.2313 H   0  0  0  0  0  0  0  0  0  0  0  0
    0.2370   10.0046   -3.9408 H   0  0  0  0  0  0  0  0  0  0  0  0
   -1.4101    9.2878   -3.9408 H   0  0  0  0  0  0  0  0  0  0  0  0
    0.4052    7.3584   -1.3441 H   0  0  0  0  0  0  0  0  0  0  0  0
   -0.5361    7.2717   -2.8716 H   0  0  0  0  0  0  0  0  0  0  0  0
    1.1122    7.9857   -2.8716 H   0  0  0  0  0  0  0  0  0  0  0  0
    0.8681   12.8820    2.3263 H   0  0  0  0  0  0  0  0  0  0  0  0
   -0.0602   11.4090    1.8842 H   0  0  0  0  0  0  0  0  0  0  0  0
    1.7357   11.3725    1.8842 H   0  0  0  0  0  0  0  0  0  0  0  0
   -0.7920   13.8519    0.1211 H   0  0  0  0  0  0  0  0  0  0  0  0
    0.7142   14.3874    1.0585 H   0  0  0  0  0  0  0  0  0  0  0  0
    0.2833   14.4520   -1.9412 H   0  0  0  0  0  0  0  0  0  0  0  0
    0.4758   15.8392   -0.7983 H   0  0  0  0  0  0  0  0  0  0  0  0
    2.4416   14.8800    0.9966 H   0  0  0  0  0  0  0  0  0  0  0  0
    4.0062   15.0623    0.1332 H   0  0  0  0  0  0  0  0  0  0  0  0
    2.8181   16.4095    0.1332 H   0  0  0  0  0  0  0  0  0  0  0  0
  1  2  1  0
  2  3  1  0
  3  4  1  0
  4  5  1  0
  5  6  1  0
  6  7  1  0
  7  8  1  0
  7  9  1  0
  2 10  1  0
 10 11  1  0
 11 12  1  0
 12 13  1  0
 13 14  1  6
 13 15  1  0
 15 16  1  0
 16 17  1  0
 17 18  2  0
 18 19  1  0
 19 20  1  0
 20 21  1  0
 21 22  1  0
 22 23  1  0
 22 24  1  0
 24 25  1  0
 24 26  1  0
 19 27  1  0
 27 28  1  1
 27 29  1  0
 29 30  1  0
 30 31  1  0
 31 32  1  1
  7  5  1  0
 31 10  1  0
 31 13  1  0
 27 15  1  0
 24 18  1  0
  1 33  1  0
  1 34  1  0
  1 35  1  0
  2 36  1  6
  3 37  1  0
  3 38  1  0
  4 39  1  0
  4 40  1  0
  5 41  1  1
  8 42  1  0
  8 43  1  0
  8 44  1  0
  9 45  1  0
  9 46  1  0
  9 47  1  0
 10 48  1  6
 11 49  1  0
 11 50  1  0
 12 51  1  0
 12 52  1  0
 14 53  1  0
 14 54  1  0
 14 55  1  0
 15 56  1  1
 16 57  1  0
 16 58  1  0
 17 59  1  0
 19 60  1  6
 20 61  1  0
 20 62  1  0
 21 63  1  0
 21 64  1  0
 22 65  1  6
 23 66  1  0
 25 67  1  0
 25 68  1  0
 25 69  1  0
 26 70  1  0
 26 71  1  0
 26 72  1  0
 28 73  1  0
 28 74  1  0
 28 75  1  0
 29 76  1  0
 29 77  1  0
 30 78  1  0
 30 79  1  0
 32 80  1  0
 32 81  1  0
 32 82  1  0
M  END
>  <meeko>  (14) 
{"is_sidechain": [false], "intermolecular_energy": 2.731, "internal_energy": -0.839}

$$$$
EPH_relaxed_0001_pdb2pqr_Repair_326_r2_0001_out
     RDKit          3D

 82 86  0  0  0  0  0  0  0  0999 V2000
    4.5740   17.5890   -3.3000 C   0  0  0  0  0  0  0  0  0  0  0  0
    3.1180   17.5250   -2.8290 C   0  0  2  0  0  0  0  0  0  0  0  0
    2.7000   18.7950   -2.0620 C   0  0  0  0  0  0  0  0  0  0  0  0
    1.4000   19.4230   -2.5720 C   0  0  0  0  0  0  0  0  0  0  0  0
    0.2350   19.0710   -1.6970 C   0  0  2  0  0  0  0  0  0  0  0  0
   -0.5220   20.1940   -1.2280 O   0  0  0  0  0  0  0  0  0  0  0  0
    0.1580   19.4250   -0.2240 C   0  0  0  0  0  0  0  0  0  0  0  0
    1.2660   20.1620    0.4610 C   0  0  0  0  0  0  0  0  0  0  0  0
   -0.7610   18.6340    0.6550 C   0  0  0  0  0  0  0  0  0  0  0  0
    2.9080   16.2950   -1.9540 C   0  0  1  0  0  0  0  0  0  0  0  0
    2.9400   16.6280   -0.4380 C   0  0  0  0  0  0  0  0  0  0  0  0
    1.9210   15.6820    0.2490 C   0  0  0  0  0  0  0  0  0  0  0  0
    1.5850   14.6230   -0.8270 C   0  0  1  0  0  0  0  0  0  0  0  0
    2.7640   13.6020   -0.7670 C   0  0  0  0  0  0  0  0  0  0  0  0
    0.1990   13.9130   -0.6890 C   0  0  2  0  0  0  0  0  0  0  0  0
    0.0150   13.0870    0.5960 C   0  0  0  0  0  0  0  0  0  0  0  0
    0.4230   11.6540    0.4970 C   0  0  0  0  0  0  0  0  0  0  0  0
    0.6490   10.9830   -0.6470 C   0  0  0  0  0  0  0  0  0  0  0  0
    0.4030   11.6430   -2.0100 C   0  0  1  0  0  0  0  0  0  0  0  0
   -0.3850   10.6670   -2.9230 C   0  0  0  0  0  0  0  0  0  0  0  0
    0.2940    9.3060   -3.0480 C   0  0  0  0  0  0  0  0  0  0  0  0
    0.4690    8.6560   -1.6780 C   0  0  2  0  0  0  0  0  0  0  0  0
   -0.8230    8.3390   -1.1500 O   0  0  0  0  0  0  0  0  0  0  0  0
    1.2410    9.5520   -0.6690 C   0  0  0  0  0  0  0  0  0  0  0  0
    2.7280    9.6470   -1.0890 C   0  0  0  0  0  0  0  0  0  0  0  0
    1.2240    8.8400    0.7110 C   0  0  0  0  0  0  0  0  0  0  0  0
   -0.2410   13.0950   -1.9700 C   0  0  1  0  0  0  0  0  0  0  0  0
   -1.7960   12.9870   -1.9170 C   0  0  0  0  0  0  0  0  0  0  0  0
    0.1060   13.8480   -3.3090 C   0  0  0  0  0  0  0  0  0  0  0  0
    1.4330   14.6300   -3.3420 C   0  0  0  0  0  0  0  0  0  0  0  0
    1.5700   15.5310   -2.1110 C   0  0  2  0  0  0  0  0  0  0  0  0
    0.4100   16.5830   -2.1560 C   0  0  0  0  0  0  0  0  0  0  0  0
    5.2412   17.6183   -2.4259 H   0  0  0  0  0  0  0  0  0  0  0  0
    4.8027   16.7000   -3.9062 H   0  0  0  0  0  0  0  0  0  0  0  0
    4.7238   18.4946   -3.9062 H   0  0  0  0  0  0  0  0  0  0  0  0
    2.4832   17.4563   -3.7247 H   0  0  0  0  0  0  0  0  0  0  0  0
    2.5662   18.5323   -1.0022 H   0  0  0  0  0  0  0  0  0  0  0  0
    3.4967   19.5383   -2.2132 H   0  0  0  0  0  0  0  0  0  0  0  0
    1.5152   20.5168   -2.5896 H   0  0  0  0  0  0  0  0  0  0  0  0
    1.2023   19.0317   -3.5809 H   0  0  0  0  0  0  0  0  0  0  0  0
    0.0851   18.1246   -2.2372 H   0  0  0  0  0  0  0  0  0  0  0  0
    1.1422   20.0797    1.5509 H   0  0  0  0  0  0  0  0  0  0  0  0
    2.2325   19.7262    0.1678 H   0  0  0  0  0  0  0  0  0  0  0  0
    1.2376   21.2218    0.1678 H   0  0  0  0  0  0  0  0  0  0  0  0
   -0.5247   18.8374    1.7099 H   0  0  0  0  0  0  0  0  0  0  0  0
   -1.8026   18.9225    0.4504 H   0  0  0  0  0  0  0  0  0  0  0  0
   -0.6308   17.5611    0.4504 H   0  0  0  0  0  0  0  0  0  0  0  0
    3.7413   15.6711   -2.3095 H   0  0  0  0  0  0  0  0  0  0  0  0
    3.9485   16.4565   -0.0336 H   0  0  0  0  0  0  0  0  0  0  0  0
    2.6828   17.6825   -0.2595 H   0  0  0  0  0  0  0  0  0  0  0  0
    2.3680   15.2072    1.1349 H   0  0  0  0  0  0  0  0  0  0  0  0
    1.0268   16.2171    0.6012 H   0  0  0  0  0  0  0  0  0  0  0  0
    3.0108   13.3882    0.2834 H   0  0  0  0  0  0  0  0  0  0  0  0
    2.4681   12.6701   -1.2711 H   0  0  0  0  0  0  0  0  0  0  0  0
    3.6440   14.0280   -1.2711 H   0  0  0  0  0  0  0  0  0  0  0  0
   -0.4938   14.7628   -0.6002 H   0  0  0  0  0  0  0  0  0  0  0  0
    0.6134   13.5567    1.3906 H   0  0  0  0  0  0  0  0  0  0  0  0
   -1.0654   13.0822    0.8026 H   0  0  0  0  0  0  0  0  0  0  0  0
    0.5495   11.1002    1.4390 H   0  0  0  0  0  0  0  0  0  0  0  0
    1.3974   11.8351   -2.4394 H   0  0  0  0  0  0  0  0  0  0  0  0
   -1.3901   10.5222   -2.5001 H   0  0  0  0  0  0  0  0  0  0  0  0
   -0.4291   11.1118   -3.9281 H   0  0  0  0  0  0  0  0  0  0  0  0
   -0.3242    8.6520   -3.6805 H   0  0  0  0  0  0  0  0  0  0  0  0
    1.2874    9.4492   -3.4982 H   0  0  0  0  0  0  0  0  0  0  0  0
    1.0745    7.7483   -1.8180 H   0  0  0  0  0  0  0  0  0  0  0  0
   -1.4100    9.0910   -1.3370 H   0  0  0  0  0  0  0  0  0  0  0  0
    3.3610    9.6874   -0.1903 H   0  0  0  0  0  0  0  0  0  0  0  0
    2.9971    8.7642   -1.6876 H   0  0  0  0  0  0  0  0  0  0  0  0
    2.8825   10.5568   -1.6876 H   0  0  0  0  0  0  0  0  0  0  0  0
    1.2420    9.5932    1.5125 H   0  0  0  0  0  0  0  0  0  0  0  0
    0.3111    8.2327    0.7990 H   0  0  0  0  0  0  0  0  0  0  0  0
    2.1069    8.1898    0.7990 H   0  0  0  0  0  0  0  0  0  0  0  0
   -2.1264   12.9641   -0.8680 H   0  0  0  0  0  0  0  0  0  0  0  0
   -2.2414   13.8564   -2.4228 H   0  0  0  0  0  0  0  0  0  0  0  0
   -2.1169   12.0644   -2.4228 H   0  0  0  0  0  0  0  0  0  0  0  0
    0.1415   13.0981   -4.1130 H   0  0  0  0  0  0  0  0  0  0  0  0
   -0.6798   14.6092   -3.4232 H   0  0  0  0  0  0  0  0  0  0  0  0
    2.2704   13.9169   -3.3608 H   0  0  0  0  0  0  0  0  0  0  0  0
    1.4449   15.2622   -4.2421 H   0  0  0  0  0  0  0  0  0  0  0  0
    0.1164   16.8492   -1.1299 H   0  0  0  0  0  0  0  0  0  0  0  0
    0.7529   17.4845   -2.6849 H   0  0  0  0  0  0  0  0  0  0  0  0
   -0.4538   16.1539   -2.6849 H   0  0  0  0  0  0  0  0  0  0  0  0
  1  2  1  0
  2  3  1  0
  3  4  1  0
  4  5  1  0
  5  6  1  0
  6  7  1  0
  7  8  1  0
  7  9  1  0
  2 10  1  0
 10 11  1  0
 11 12  1  0
 12 13  1  0
 13 14  1  6
 13 15  1  0
 15 16  1  0
 16 17  1  0
 17 18  2  0
 18 19  1  0
 19 20  1  0
 20 21  1  0
 21 22  1  0
 22 23  1  0
 22 24  1  0
 24 25  1  0
 24 26  1  0
 19 27  1  0
 27 28  1  1
 27 29  1  0
 29 30  1  0
 30 31  1  0
 31 32  1  1
  7  5  1  0
 31 10  1  0
 31 13  1  0
 27 15  1  0
 24 18  1  0
  1 33  1  0
  1 34  1  0
  1 35  1  0
  2 36  1  6
  3 37  1  0
  3 38  1  0
  4 39  1  0
  4 40  1  0
  5 41  1  1
  8 42  1  0
  8 43  1  0
  8 44  1  0
  9 45  1  0
  9 46  1  0
  9 47  1  0
 10 48  1  1
 11 49  1  0
 11 50  1  0
 12 51  1  0
 12 52  1  0
 14 53  1  0
 14 54  1  0
 14 55  1  0
 15 56  1  1
 16 57  1  0
 16 58  1  0
 17 59  1  0
 19 60  1  6
 20 61  1  0
 20 62  1  0
 21 63  1  0
 21 64  1  0
 22 65  1  6
 23 66  1  0
 25 67  1  0
 25 68  1  0
 25 69  1  0
 26 70  1  0
 26 71  1  0
 26 72  1  0
 28 73  1  0
 28 74  1  0
 28 75  1  0
 29 76  1  0
 29 77  1  0
 30 78  1  0
 30 79  1  0
 32 80  1  0
 32 81  1  0
 32 82  1  0
M  END
>  <meeko>  (15) 
{"is_sidechain": [false], "intermolecular_energy": 2.731, "internal_energy": -0.839}

$$$$
EPH_relaxed_0001_pdb2pqr_Repair_326_r2_0001_out
     RDKit          3D

 82 86  0  0  0  0  0  0  0  0999 V2000
   -0.8890    8.1330   -1.9230 C   0  0  0  0  0  0  0  0  0  0  0  0
   -0.5860    8.8660   -0.6130 C   0  0  2  0  0  0  0  0  0  0  0  0
   -1.8260    9.5900   -0.0520 C   0  0  0  0  0  0  0  0  0  0  0  0
   -1.5400   10.4180    1.2040 C   0  0  0  0  0  0  0  0  0  0  0  0
   -0.1330   10.9350    1.2180 C   0  0  2  0  0  0  0  0  0  0  0  0
    0.6600   10.4810    2.3230 O   0  0  0  0  0  0  0  0  0  0  0  0
    0.3960   11.8930    2.2690 C   0  0  0  0  0  0  0  0  0  0  0  0
   -0.4750   12.3910    3.3800 C   0  0  0  0  0  0  0  0  0  0  0  0
    1.6000   12.7200    1.9430 C   0  0  0  0  0  0  0  0  0  0  0  0
    0.5480    9.8620   -0.8250 C   0  0  1  0  0  0  0  0  0  0  0  0
    1.8730    9.1770   -1.2530 C   0  0  0  0  0  0  0  0  0  0  0  0
    2.5820   10.1470   -2.2330 C   0  0  0  0  0  0  0  0  0  0  0  0
    1.8170   11.4830   -2.0820 C   0  0  1  0  0  0  0  0  0  0  0  0
    2.4130   12.1430   -0.7990 C   0  0  0  0  0  0  0  0  0  0  0  0
    1.8690   12.4520   -3.3080 C   0  0  2  0  0  0  0  0  0  0  0  0
    3.2720   12.9640   -3.6750 C   0  0  0  0  0  0  0  0  0  0  0  0
    3.6820   14.2360   -3.0090 C   0  0  0  0  0  0  0  0  0  0  0  0
    2.8550   15.0880   -2.3750 C   0  0  0  0  0  0  0  0  0  0  0  0
    1.3390   14.8550   -2.3660 C   0  0  1  0  0  0  0  0  0  0  0  0
    0.6090   16.1820   -2.7000 C   0  0  0  0  0  0  0  0  0  0  0  0
    1.0280   17.3270   -1.7840 C   0  0  0  0  0  0  0  0  0  0  0  0
    2.5340   17.5670   -1.8640 C   0  0  2  0  0  0  0  0  0  0  0  0
    2.8550   18.0500   -3.1720 O   0  0  0  0  0  0  0  0  0  0  0  0
    3.3730   16.2960   -1.5560 C   0  0  0  0  0  0  0  0  0  0  0  0
    3.2580   15.9480   -0.0510 C   0  0  0  0  0  0  0  0  0  0  0  0
    4.8670   16.6370   -1.8090 C   0  0  0  0  0  0  0  0  0  0  0  0
    0.8200   13.6350   -3.2430 C   0  0  1  0  0  0  0  0  0  0  0  0
    0.5820   14.1000   -4.7130 C   0  0  0  0  0  0  0  0  0  0  0  0
   -0.5790   13.1660   -2.6950 C   0  0  0  0  0  0  0  0  0  0  0  0
   -0.5660   12.1180   -1.5650 C   0  0  0  0  0  0  0  0  0  0  0  0
    0.3490   10.9420   -1.9180 C   0  0  2  0  0  0  0  0  0  0  0  0
   -0.2380   10.2440   -3.1920 C   0  0  0  0  0  0  0  0  0  0  0  0
   -1.3005    7.1376   -1.6995 H   0  0  0  0  0  0  0  0  0  0  0  0
   -1.6221    8.7105   -2.5052 H   0  0  0  0  0  0  0  0  0  0  0  0
    0.0379    8.0243   -2.5052 H   0  0  0  0  0  0  0  0  0  0  0  0
   -0.2832    8.1101    0.1266 H   0  0  0  0  0  0  0  0  0  0  0  0
   -2.2168   10.2626   -0.8297 H   0  0  0  0  0  0  0  0  0  0  0  0
   -2.5501    8.8127    0.2335 H   0  0  0  0  0  0  0  0  0  0  0  0
   -2.2337   11.2711    1.2343 H   0  0  0  0  0  0  0  0  0  0  0  0
   -1.6757    9.7686    2.0814 H   0  0  0  0  0  0  0  0  0  0  0  0
   -0.1051   10.9578    0.1186 H   0  0  0  0  0  0  0  0  0  0  0  0
   -0.0202   12.1309    4.3472 H   0  0  0  0  0  0  0  0  0  0  0  0
   -0.5766   13.4837    3.3046 H   0  0  0  0  0  0  0  0  0  0  0  0
   -1.4682   11.9243    3.3046 H   0  0  0  0  0  0  0  0  0  0  0  0
    2.0812   13.0505    2.8753 H   0  0  0  0  0  0  0  0  0  0  0  0
    2.3104   12.1183    1.3570 H   0  0  0  0  0  0  0  0  0  0  0  0
    1.2934   13.5990    1.3570 H   0  0  0  0  0  0  0  0  0  0  0  0
    0.5700   10.3318    0.1694 H   0  0  0  0  0  0  0  0  0  0  0  0
    2.5077    8.9968   -0.3729 H   0  0  0  0  0  0  0  0  0  0  0  0
    1.6789    8.2053   -1.7305 H   0  0  0  0  0  0  0  0  0  0  0  0
    3.6398   10.2721   -1.9582 H   0  0  0  0  0  0  0  0  0  0  0  0
    2.5717    9.7752   -3.2682 H   0  0  0  0  0  0  0  0  0  0  0  0
    1.9817   11.6654    0.0931 H   0  0  0  0  0  0  0  0  0  0  0  0
    3.5052   12.0124   -0.7930 H   0  0  0  0  0  0  0  0  0  0  0  0
    2.1720   13.2163   -0.7930 H   0  0  0  0  0  0  0  0  0  0  0  0
    1.5629   11.7993   -4.1389 H   0  0  0  0  0  0  0  0  0  0  0  0
    4.0000   12.1866   -3.4001 H   0  0  0  0  0  0  0  0  0  0  0  0
    3.2441   13.1806   -4.7531 H   0  0  0  0  0  0  0  0  0  0  0  0
    4.7497   14.4989   -3.0390 H   0  0  0  0  0  0  0  0  0  0  0  0
    1.0861   14.5375   -1.3436 H   0  0  0  0  0  0  0  0  0  0  0  0
    0.8397   16.4594   -3.7392 H   0  0  0  0  0  0  0  0  0  0  0  0
   -0.4686   16.0157   -2.5548 H   0  0  0  0  0  0  0  0  0  0  0  0
    0.5008   18.2431   -2.0887 H   0  0  0  0  0  0  0  0  0  0  0  0
    0.7695   17.0607   -0.7485 H   0  0  0  0  0  0  0  0  0  0  0  0
    2.7918   18.3079   -1.0929 H   0  0  0  0  0  0  0  0  0  0  0  0
    2.7070   17.3220   -3.7990 H   0  0  0  0  0  0  0  0  0  0  0  0
    3.5469   16.8224    0.5506 H   0  0  0  0  0  0  0  0  0  0  0  0
    2.2199   15.6691    0.1826 H   0  0  0  0  0  0  0  0  0  0  0  0
    3.9255   15.1054    0.1826 H   0  0  0  0  0  0  0  0  0  0  0  0
    5.3844   16.7551   -0.8455 H   0  0  0  0  0  0  0  0  0  0  0  0
    5.3372   15.8231   -2.3803 H   0  0  0  0  0  0  0  0  0  0  0  0
    4.9375   17.5743   -2.3803 H   0  0  0  0  0  0  0  0  0  0  0  0
    0.0808   15.0792   -4.7112 H   0  0  0  0  0  0  0  0  0  0  0  0
    1.5482   14.1836   -5.2321 H   0  0  0  0  0  0  0  0  0  0  0  0
   -0.0508   13.3651   -5.2321 H   0  0  0  0  0  0  0  0  0  0  0  0
   -1.1041   14.0559   -2.3177 H   0  0  0  0  0  0  0  0  0  0  0  0
   -1.0690   12.6677   -3.5445 H   0  0  0  0  0  0  0  0  0  0  0  0
   -0.2038   12.5907   -0.6401 H   0  0  0  0  0  0  0  0  0  0  0  0
   -1.5889   11.7374   -1.4281 H   0  0  0  0  0  0  0  0  0  0  0  0
   -0.9181    9.4353   -2.8865 H   0  0  0  0  0  0  0  0  0  0  0  0
   -0.7914   10.9814   -3.7920 H   0  0  0  0  0  0  0  0  0  0  0  0
    0.5834    9.8253   -3.7920 H   0  0  0  0  0  0  0  0  0  0  0  0
  1  2  1  0
  2  3  1  0
  3  4  1  0
  4  5  1  0
  5  6  1  0
  6  7  1  0
  7  8  1  0
  7  9  1  0
  2 10  1  0
 10 11  1  0
 11 12  1  0
 12 13  1  0
 13 14  1  1
 13 15  1  0
 15 16  1  0
 16 17  1  0
 17 18  2  0
 18 19  1  0
 19 20  1  0
 20 21  1  0
 21 22  1  0
 22 23  1  0
 22 24  1  0
 24 25  1  0
 24 26  1  0
 19 27  1  0
 27 28  1  6
 27 29  1  0
 29 30  1  0
 30 31  1  0
 31 32  1  6
  7  5  1  0
 31 10  1  0
 31 13  1  0
 27 15  1  0
 24 18  1  0
  1 33  1  0
  1 34  1  0
  1 35  1  0
  2 36  1  1
  3 37  1  0
  3 38  1  0
  4 39  1  0
  4 40  1  0
  5 41  1  6
  8 42  1  0
  8 43  1  0
  8 44  1  0
  9 45  1  0
  9 46  1  0
  9 47  1  0
 10 48  1  1
 11 49  1  0
 11 50  1  0
 12 51  1  0
 12 52  1  0
 14 53  1  0
 14 54  1  0
 14 55  1  0
 15 56  1  6
 16 57  1  0
 16 58  1  0
 17 59  1  0
 19 60  1  1
 20 61  1  0
 20 62  1  0
 21 63  1  0
 21 64  1  0
 22 65  1  1
 23 66  1  0
 25 67  1  0
 25 68  1  0
 25 69  1  0
 26 70  1  0
 26 71  1  0
 26 72  1  0
 28 73  1  0
 28 74  1  0
 28 75  1  0
 29 76  1  0
 29 77  1  0
 30 78  1  0
 30 79  1  0
 32 80  1  0
 32 81  1  0
 32 82  1  0
M  END
>  <meeko>  (16) 
{"is_sidechain": [false], "intermolecular_energy": 2.731, "internal_energy": -0.839}

$$$$
EPH_relaxed_0001_pdb2pqr_Repair_326_r2_0001_out
     RDKit          3D

 82 86  0  0  0  0  0  0  0  0999 V2000
    4.2630   17.2670   -1.6410 C   0  0  0  0  0  0  0  0  0  0  0  0
    4.5100   15.7630   -1.4970 C   0  0  2  0  0  0  0  0  0  0  0  0
    5.0260   15.1310   -2.8060 C   0  0  0  0  0  0  0  0  0  0  0  0
    5.5000   13.6840   -2.6460 C   0  0  0  0  0  0  0  0  0  0  0  0
    5.9430   13.0980   -3.9520 C   0  0  2  0  0  0  0  0  0  0  0  0
    4.8780   12.7830   -4.8580 O   0  0  0  0  0  0  0  0  0  0  0  0
    5.6460   11.6710   -4.3720 C   0  0  0  0  0  0  0  0  0  0  0  0
    4.8780   10.7410   -3.4870 C   0  0  0  0  0  0  0  0  0  0  0  0
    6.5140   11.0360   -5.4140 C   0  0  0  0  0  0  0  0  0  0  0  0
    3.2290   15.0660   -1.0530 C   0  0  1  0  0  0  0  0  0  0  0  0
    2.1670   16.0590   -0.5080 C   0  0  0  0  0  0  0  0  0  0  0  0
    0.7810   15.5030   -0.9240 C   0  0  0  0  0  0  0  0  0  0  0  0
    1.0650   14.0580   -1.3960 C   0  0  1  0  0  0  0  0  0  0  0  0
    1.1500   13.2170   -0.0840 C   0  0  0  0  0  0  0  0  0  0  0  0
    0.0420   13.4480   -2.4090 C   0  0  2  0  0  0  0  0  0  0  0  0
   -1.3940   13.2990   -1.8760 C   0  0  0  0  0  0  0  0  0  0  0  0
   -1.6970   11.9950   -1.2150 C   0  0  0  0  0  0  0  0  0  0  0  0
   -0.9480   10.8800   -1.3050 C   0  0  0  0  0  0  0  0  0  0  0  0
    0.2880   10.8320   -2.2130 C   0  0  1  0  0  0  0  0  0  0  0  0
    0.2700    9.5220   -3.0430 C   0  0  0  0  0  0  0  0  0  0  0  0
    0.1390    8.2780   -2.1690 C   0  0  0  0  0  0  0  0  0  0  0  0
   -1.1310    8.3360   -1.3240 C   0  0  2  0  0  0  0  0  0  0  0  0
   -2.2660    8.2560   -2.1920 O   0  0  0  0  0  0  0  0  0  0  0  0
   -1.2290    9.6190   -0.4520 C   0  0  0  0  0  0  0  0  0  0  0  0
   -0.1780    9.5560    0.6840 C   0  0  0  0  0  0  0  0  0  0  0  0
   -2.6180    9.6200    0.2410 C   0  0  0  0  0  0  0  0  0  0  0  0
    0.5390   12.1190   -3.1110 C   0  0  1  0  0  0  0  0  0  0  0  0
   -0.2550   11.9990   -4.4480 C   0  0  0  0  0  0  0  0  0  0  0  0
    2.0620   12.1830   -3.5030 C   0  0  0  0  0  0  0  0  0  0  0  0
    3.0030   12.9040   -2.5190 C   0  0  0  0  0  0  0  0  0  0  0  0
    2.4410   14.2730   -2.1260 C   0  0  2  0  0  0  0  0  0  0  0  0
    2.3660   15.1500   -3.4220 C   0  0  0  0  0  0  0  0  0  0  0  0
    4.1880   17.7235   -0.6430 H   0  0  0  0  0  0  0  0  0  0  0  0
    5.0980   17.7246   -2.1917 H   0  0  0  0  0  0  0  0  0  0  0  0
    3.3255   17.4335   -2.1917 H   0  0  0  0  0  0  0  0  0  0  0  0
    5.2910   15.6278   -0.7343 H   0  0  0  0  0  0  0  0  0  0  0  0
    4.2117   15.1499   -3.5453 H   0  0  0  0  0  0  0  0  0  0  0  0
    5.8974   15.7211   -3.1261 H   0  0  0  0  0  0  0  0  0  0  0  0
    6.3438   13.6613   -1.9406 H   0  0  0  0  0  0  0  0  0  0  0  0
    4.6562   13.0864   -2.2708 H   0  0  0  0  0  0  0  0  0  0  0  0
    6.8762   13.6797   -3.9237 H   0  0  0  0  0  0  0  0  0  0  0  0
    5.0804   10.9861   -2.4339 H   0  0  0  0  0  0  0  0  0  0  0  0
    3.8019   10.8484   -3.6882 H   0  0  0  0  0  0  0  0  0  0  0  0
    5.1870    9.7046   -3.6882 H   0  0  0  0  0  0  0  0  0  0  0  0
    7.3090   10.4544   -4.9243 H   0  0  0  0  0  0  0  0  0  0  0  0
    5.9050   10.3687   -6.0416 H   0  0  0  0  0  0  0  0  0  0  0  0
    6.9656   11.8184   -6.0416 H   0  0  0  0  0  0  0  0  0  0  0  0
    3.6452   14.3747   -0.3053 H   0  0  0  0  0  0  0  0  0  0  0  0
    2.2359   16.1238    0.5879 H   0  0  0  0  0  0  0  0  0  0  0  0
    2.3256   17.0692   -0.9134 H   0  0  0  0  0  0  0  0  0  0  0  0
    0.0899   15.5031   -0.0682 H   0  0  0  0  0  0  0  0  0  0  0  0
    0.3058   16.1116   -1.7075 H   0  0  0  0  0  0  0  0  0  0  0  0
    1.0823   13.8868    0.7859 H   0  0  0  0  0  0  0  0  0  0  0  0
    0.3202   12.4954   -0.0566 H   0  0  0  0  0  0  0  0  0  0  0  0
    2.1074   12.6760   -0.0566 H   0  0  0  0  0  0  0  0  0  0  0  0
   -0.0077   14.2218   -3.1892 H   0  0  0  0  0  0  0  0  0  0  0  0
   -1.5694   14.1004   -1.1431 H   0  0  0  0  0  0  0  0  0  0  0  0
   -2.0523   13.3544   -2.7556 H   0  0  0  0  0  0  0  0  0  0  0  0
   -2.6093   11.9408   -0.6028 H   0  0  0  0  0  0  0  0  0  0  0  0
    1.1590   10.8367   -1.5412 H   0  0  0  0  0  0  0  0  0  0  0  0
   -0.5821    9.5563   -3.7377 H   0  0  0  0  0  0  0  0  0  0  0  0
    1.2274    9.4536   -3.5802 H   0  0  0  0  0  0  0  0  0  0  0  0
    0.1021    7.3874   -2.8136 H   0  0  0  0  0  0  0  0  0  0  0  0
    1.0071    8.2294   -1.4951 H   0  0  0  0  0  0  0  0  0  0  0  0
   -1.1029    7.4852   -0.6273 H   0  0  0  0  0  0  0  0  0  0  0  0
   -2.6950    7.3980   -2.0370 H   0  0  0  0  0  0  0  0  0  0  0  0
   -0.6885    9.5866    1.6579 H   0  0  0  0  0  0  0  0  0  0  0  0
    0.3967    8.6218    0.6004 H   0  0  0  0  0  0  0  0  0  0  0  0
    0.5042   10.4149    0.6004 H   0  0  0  0  0  0  0  0  0  0  0  0
   -2.4831    9.6199    1.3327 H   0  0  0  0  0  0  0  0  0  0  0  0
   -3.1770   10.5185   -0.0593 H   0  0  0  0  0  0  0  0  0  0  0  0
   -3.1782    8.7223   -0.0593 H   0  0  0  0  0  0  0  0  0  0  0  0
   -1.3207   11.8379   -4.2283 H   0  0  0  0  0  0  0  0  0  0  0  0
   -0.1363   12.9253   -5.0293 H   0  0  0  0  0  0  0  0  0  0  0  0
    0.1321   11.1492   -5.0293 H   0  0  0  0  0  0  0  0  0  0  0  0
    2.4217   11.1490   -3.6103 H   0  0  0  0  0  0  0  0  0  0  0  0
    2.0968   12.7814   -4.4253 H   0  0  0  0  0  0  0  0  0  0  0  0
    3.1173   12.2888   -1.6143 H   0  0  0  0  0  0  0  0  0  0  0  0
    3.9763   13.0523   -3.0096 H   0  0  0  0  0  0  0  0  0  0  0  0
    2.2753   16.2101   -3.1426 H   0  0  0  0  0  0  0  0  0  0  0  0
    3.2799   15.0044   -4.0167 H   0  0  0  0  0  0  0  0  0  0  0  0
    1.4901   14.8513   -4.0167 H   0  0  0  0  0  0  0  0  0  0  0  0
  1  2  1  0
  2  3  1  0
  3  4  1  0
  4  5  1  0
  5  6  1  0
  6  7  1  0
  7  8  1  0
  7  9  1  0
  2 10  1  0
 10 11  1  0
 11 12  1  0
 12 13  1  0
 13 14  1  1
 13 15  1  0
 15 16  1  0
 16 17  1  0
 17 18  2  0
 18 19  1  0
 19 20  1  0
 20 21  1  0
 21 22  1  0
 22 23  1  0
 22 24  1  0
 24 25  1  0
 24 26  1  0
 19 27  1  0
 27 28  1  6
 27 29  1  0
 29 30  1  0
 30 31  1  0
 31 32  1  6
  7  5  1  0
 31 10  1  0
 31 13  1  0
 27 15  1  0
 24 18  1  0
  1 33  1  0
  1 34  1  0
  1 35  1  0
  2 36  1  1
  3 37  1  0
  3 38  1  0
  4 39  1  0
  4 40  1  0
  5 41  1  6
  8 42  1  0
  8 43  1  0
  8 44  1  0
  9 45  1  0
  9 46  1  0
  9 47  1  0
 10 48  1  1
 11 49  1  0
 11 50  1  0
 12 51  1  0
 12 52  1  0
 14 53  1  0
 14 54  1  0
 14 55  1  0
 15 56  1  6
 16 57  1  0
 16 58  1  0
 17 59  1  0
 19 60  1  1
 20 61  1  0
 20 62  1  0
 21 63  1  0
 21 64  1  0
 22 65  1  1
 23 66  1  0
 25 67  1  0
 25 68  1  0
 25 69  1  0
 26 70  1  0
 26 71  1  0
 26 72  1  0
 28 73  1  0
 28 74  1  0
 28 75  1  0
 29 76  1  0
 29 77  1  0
 30 78  1  0
 30 79  1  0
 32 80  1  0
 32 81  1  0
 32 82  1  0
M  END
>  <meeko>  (17) 
{"is_sidechain": [false], "intermolecular_energy": 2.731, "internal_energy": -0.839}

$$$$
EPH_relaxed_0001_pdb2pqr_Repair_326_r2_0001_out
     RDKit          3D

 82 86  0  0  0  0  0  0  0  0999 V2000
   -0.2020    8.1880   -3.2030 C   0  0  0  0  0  0  0  0  0  0  0  0
   -0.7870    8.6120   -1.8530 C   0  0  2  0  0  0  0  0  0  0  0  0
   -2.1530    7.9500   -1.5790 C   0  0  0  0  0  0  0  0  0  0  0  0
   -3.0250    7.7990   -2.8280 C   0  0  0  0  0  0  0  0  0  0  0  0
   -4.0160    6.6840   -2.6810 C   0  0  2  0  0  0  0  0  0  0  0  0
   -5.1860    6.8110   -3.5000 O   0  0  0  0  0  0  0  0  0  0  0  0
   -5.3970    6.8660   -2.0800 C   0  0  0  0  0  0  0  0  0  0  0  0
   -5.8630    8.2000   -1.5860 C   0  0  0  0  0  0  0  0  0  0  0  0
   -6.1010    5.6660   -1.5280 C   0  0  0  0  0  0  0  0  0  0  0  0
   -0.9230   10.1290   -1.7990 C   0  0  1  0  0  0  0  0  0  0  0  0
   -2.2470   10.5860   -1.1310 C   0  0  0  0  0  0  0  0  0  0  0  0
   -1.9300   11.8900   -0.3550 C   0  0  0  0  0  0  0  0  0  0  0  0
   -0.5340   12.3190   -0.8660 C   0  0  1  0  0  0  0  0  0  0  0  0
   -0.8090   13.0420   -2.2220 C   0  0  0  0  0  0  0  0  0  0  0  0
    0.3130   13.2070    0.1010 C   0  0  2  0  0  0  0  0  0  0  0  0
   -0.3020   14.5760    0.4380 C   0  0  0  0  0  0  0  0  0  0  0  0
    0.0860   15.6920   -0.4750 C   0  0  0  0  0  0  0  0  0  0  0  0
    1.1110   15.6680   -1.3470 C   0  0  0  0  0  0  0  0  0  0  0  0
    2.0660   14.4690   -1.4080 C   0  0  1  0  0  0  0  0  0  0  0  0
    3.5320   14.9750   -1.4430 C   0  0  0  0  0  0  0  0  0  0  0  0
    3.7780   15.9750   -2.5690 C   0  0  0  0  0  0  0  0  0  0  0  0
    2.8500   17.1810   -2.4400 C   0  0  2  0  0  0  0  0  0  0  0  0
    3.2030   17.9100   -1.2610 O   0  0  0  0  0  0  0  0  0  0  0  0
    1.3460   16.7930   -2.3850 C   0  0  0  0  0  0  0  0  0  0  0  0
    0.8900   16.2770   -3.7720 C   0  0  0  0  0  0  0  0  0  0  0  0
    0.5300   18.0850   -2.1130 C   0  0  0  0  0  0  0  0  0  0  0  0
    1.8350   13.3430   -0.3100 C   0  0  1  0  0  0  0  0  0  0  0  0
    2.6180   13.7000    0.9910 C   0  0  0  0  0  0  0  0  0  0  0  0
    2.4380   11.9850   -0.8320 C   0  0  0  0  0  0  0  0  0  0  0  0
    1.5120   11.0960   -1.6840 C   0  0  0  0  0  0  0  0  0  0  0  0
    0.1520   10.9110   -1.0030 C   0  0  2  0  0  0  0  0  0  0  0  0
    0.3940   10.1650    0.3530 C   0  0  0  0  0  0  0  0  0  0  0  0
    0.6785    7.5499   -3.0369 H   0  0  0  0  0  0  0  0  0  0  0  0
   -0.9592    7.6275   -3.7710 H   0  0  0  0  0  0  0  0  0  0  0  0
    0.0950    9.0820   -3.7710 H   0  0  0  0  0  0  0  0  0  0  0  0
   -0.0928    8.2732   -1.0699 H   0  0  0  0  0  0  0  0  0  0  0  0
   -1.9758    6.9501   -1.1562 H   0  0  0  0  0  0  0  0  0  0  0  0
   -2.6962    8.6087   -0.8854 H   0  0  0  0  0  0  0  0  0  0  0  0
   -3.5694    8.7395   -2.9985 H   0  0  0  0  0  0  0  0  0  0  0  0
   -2.3681    7.5639   -3.6784 H   0  0  0  0  0  0  0  0  0  0  0  0
   -3.2106    5.9639   -2.4745 H   0  0  0  0  0  0  0  0  0  0  0  0
   -5.8643    8.2037   -0.4860 H   0  0  0  0  0  0  0  0  0  0  0  0
   -5.1857    8.9845   -1.9545 H   0  0  0  0  0  0  0  0  0  0  0  0
   -6.8815    8.3921   -1.9545 H   0  0  0  0  0  0  0  0  0  0  0  0
   -6.0799    5.7019   -0.4288 H   0  0  0  0  0  0  0  0  0  0  0  0
   -7.1449    5.6616   -1.8748 H   0  0  0  0  0  0  0  0  0  0  0  0
   -5.5956    4.7526   -1.8748 H   0  0  0  0  0  0  0  0  0  0  0  0
   -0.8402   10.3605   -2.8712 H   0  0  0  0  0  0  0  0  0  0  0  0
   -3.0116   10.7781   -1.8981 H   0  0  0  0  0  0  0  0  0  0  0  0
   -2.6371    9.8099   -0.4561 H   0  0  0  0  0  0  0  0  0  0  0  0
   -2.6791   12.6648   -0.5753 H   0  0  0  0  0  0  0  0  0  0  0  0
   -1.9477   11.7416    0.7348 H   0  0  0  0  0  0  0  0  0  0  0  0
   -1.1938   14.0538   -2.0266 H   0  0  0  0  0  0  0  0  0  0  0  0
    0.1260   13.1101   -2.7974 H   0  0  0  0  0  0  0  0  0  0  0  0
   -1.5529   12.4715   -2.7974 H   0  0  0  0  0  0  0  0  0  0  0  0
    0.2848   12.6289    1.0364 H   0  0  0  0  0  0  0  0  0  0  0  0
   -1.3968   14.4743    0.4043 H   0  0  0  0  0  0  0  0  0  0  0  0
    0.0850   14.8471    1.4313 H   0  0  0  0  0  0  0  0  0  0  0  0
   -0.5166   16.6112   -0.4313 H   0  0  0  0  0  0  0  0  0  0  0  0
    1.8317   13.9409   -2.3441 H   0  0  0  0  0  0  0  0  0  0  0  0
    3.7604   15.4613   -0.4831 H   0  0  0  0  0  0  0  0  0  0  0  0
    4.1817   14.1053   -1.6203 H   0  0  0  0  0  0  0  0  0  0  0  0
    4.8223   16.3178   -2.5243 H   0  0  0  0  0  0  0  0  0  0  0  0
    3.5771   15.4785   -3.5298 H   0  0  0  0  0  0  0  0  0  0  0  0
    2.9817   17.7971   -3.3417 H   0  0  0  0  0  0  0  0  0  0  0  0
    2.3800   18.2400   -0.8620 H   0  0  0  0  0  0  0  0  0  0  0  0
    0.1669   15.4588   -3.6392 H   0  0  0  0  0  0  0  0  0  0  0  0
    0.4166   17.0976   -4.3310 H   0  0  0  0  0  0  0  0  0  0  0  0
    1.7626   15.9081   -4.3310 H   0  0  0  0  0  0  0  0  0  0  0  0
    0.4343   18.2365   -1.0277 H   0  0  0  0  0  0  0  0  0  0  0  0
    1.0481   18.9467   -2.5593 H   0  0  0  0  0  0  0  0  0  0  0  0
   -0.4707   17.9874   -2.5593 H   0  0  0  0  0  0  0  0  0  0  0  0
    2.0150   13.4251    1.8690 H   0  0  0  0  0  0  0  0  0  0  0  0
    3.5682   13.1461    1.0107 H   0  0  0  0  0  0  0  0  0  0  0  0
    2.8230   14.7806    1.0107 H   0  0  0  0  0  0  0  0  0  0  0  0
    3.3215   12.2256   -1.4415 H   0  0  0  0  0  0  0  0  0  0  0  0
    2.6489   11.3968    0.0733 H   0  0  0  0  0  0  0  0  0  0  0  0
    1.3617   11.5693   -2.6655 H   0  0  0  0  0  0  0  0  0  0  0  0
    1.9832   10.1089   -1.8011 H   0  0  0  0  0  0  0  0  0  0  0  0
    0.1736   10.8443    1.1896 H   0  0  0  0  0  0  0  0  0  0  0  0
   -0.2652    9.2863    0.4108 H   0  0  0  0  0  0  0  0  0  0  0  0
    1.4435    9.8405    0.4108 H   0  0  0  0  0  0  0  0  0  0  0  0
  1  2  1  0
  2  3  1  0
  3  4  1  0
  4  5  1  0
  5  6  1  0
  6  7  1  0
  7  8  1  0
  7  9  1  0
  2 10  1  0
 10 11  1  0
 11 12  1  0
 12 13  1  0
 13 14  1  6
 13 15  1  0
 15 16  1  0
 16 17  1  0
 17 18  2  0
 18 19  1  0
 19 20  1  0
 20 21  1  0
 21 22  1  0
 22 23  1  0
 22 24  1  0
 24 25  1  0
 24 26  1  0
 19 27  1  0
 27 28  1  1
 27 29  1  0
 29 30  1  0
 30 31  1  0
 31 32  1  1
  7  5  1  0
 31 10  1  0
 31 13  1  0
 27 15  1  0
 24 18  1  0
  1 33  1  0
  1 34  1  0
  1 35  1  0
  2 36  1  1
  3 37  1  0
  3 38  1  0
  4 39  1  0
  4 40  1  0
  5 41  1  1
  8 42  1  0
  8 43  1  0
  8 44  1  0
  9 45  1  0
  9 46  1  0
  9 47  1  0
 10 48  1  6
 11 49  1  0
 11 50  1  0
 12 51  1  0
 12 52  1  0
 14 53  1  0
 14 54  1  0
 14 55  1  0
 15 56  1  1
 16 57  1  0
 16 58  1  0
 17 59  1  0
 19 60  1  6
 20 61  1  0
 20 62  1  0
 21 63  1  0
 21 64  1  0
 22 65  1  6
 23 66  1  0
 25 67  1  0
 25 68  1  0
 25 69  1  0
 26 70  1  0
 26 71  1  0
 26 72  1  0
 28 73  1  0
 28 74  1  0
 28 75  1  0
 29 76  1  0
 29 77  1  0
 30 78  1  0
 30 79  1  0
 32 80  1  0
 32 81  1  0
 32 82  1  0
M  END
>  <meeko>  (18) 
{"is_sidechain": [false], "intermolecular_energy": 2.731, "internal_energy": -0.839}

$$$$
EPH_relaxed_0001_pdb2pqr_Repair_326_r2_0001_out
     RDKit          3D

 82 86  0  0  0  0  0  0  0  0999 V2000
    0.8960    8.4970   -0.2380 C   0  0  0  0  0  0  0  0  0  0  0  0
   -0.1780    9.2360   -1.0410 C   0  0  2  0  0  0  0  0  0  0  0  0
   -0.8770    8.3150   -2.0600 C   0  0  0  0  0  0  0  0  0  0  0  0
   -2.4010    8.2820   -1.9160 C   0  0  0  0  0  0  0  0  0  0  0  0
   -3.0020    7.1170   -2.6420 C   0  0  2  0  0  0  0  0  0  0  0  0
   -4.0360    7.4610   -3.5730 O   0  0  0  0  0  0  0  0  0  0  0  0
   -4.4360    6.6600   -2.4490 C   0  0  0  0  0  0  0  0  0  0  0  0
   -5.3570    7.3610   -1.5010 C   0  0  0  0  0  0  0  0  0  0  0  0
   -4.7930    5.2510   -2.8090 C   0  0  0  0  0  0  0  0  0  0  0  0
    0.4400   10.4320   -1.7570 C   0  0  1  0  0  0  0  0  0  0  0  0
    0.0870   10.4710   -3.2670 C   0  0  0  0  0  0  0  0  0  0  0  0
   -0.0530   11.9650   -3.6560 C   0  0  0  0  0  0  0  0  0  0  0  0
    0.5430   12.7380   -2.4550 C   0  0  1  0  0  0  0  0  0  0  0  0
    2.0870   12.6950   -2.6780 C   0  0  0  0  0  0  0  0  0  0  0  0
    0.0290   14.2000   -2.2510 C   0  0  2  0  0  0  0  0  0  0  0  0
    0.3460   15.1700   -3.4030 C   0  0  0  0  0  0  0  0  0  0  0  0
    1.6390   15.9050   -3.2800 C   0  0  0  0  0  0  0  0  0  0  0  0
    2.3760   16.0100   -2.1580 C   0  0  0  0  0  0  0  0  0  0  0  0
    1.8730   15.4330   -0.8290 C   0  0  1  0  0  0  0  0  0  0  0  0
    2.0730   16.4790    0.2990 C   0  0  0  0  0  0  0  0  0  0  0  0
    3.5120   16.9780    0.3860 C   0  0  0  0  0  0  0  0  0  0  0  0
    3.9560   17.5970   -0.9360 C   0  0  2  0  0  0  0  0  0  0  0  0
    3.2010   18.7920   -1.1620 O   0  0  0  0  0  0  0  0  0  0  0  0
    3.7920   16.6380   -2.1480 C   0  0  0  0  0  0  0  0  0  0  0  0
    4.8300   15.4930   -2.0510 C   0  0  0  0  0  0  0  0  0  0  0  0
    4.1400   17.4320   -3.4360 C   0  0  0  0  0  0  0  0  0  0  0  0
    0.4030   14.8280   -0.8480 C   0  0  1  0  0  0  0  0  0  0  0  0
   -0.6390   15.9550   -0.5720 C   0  0  0  0  0  0  0  0  0  0  0  0
    0.2590   13.7920    0.3290 C   0  0  0  0  0  0  0  0  0  0  0  0
    0.6700   12.3380    0.0290 C   0  0  0  0  0  0  0  0  0  0  0  0
    0.0270   11.8430   -1.2700 C   0  0  2  0  0  0  0  0  0  0  0  0
   -1.5270   11.8540   -1.0690 C   0  0  0  0  0  0  0  0  0  0  0  0
    0.7051    8.6283    0.8373 H   0  0  0  0  0  0  0  0  0  0  0  0
    0.8681    7.4260   -0.4872 H   0  0  0  0  0  0  0  0  0  0  0  0
    1.8863    8.9058   -0.4872 H   0  0  0  0  0  0  0  0  0  0  0  0
   -0.9431    9.5826   -0.3308 H   0  0  0  0  0  0  0  0  0  0  0  0
   -0.6315    8.6679   -3.0725 H   0  0  0  0  0  0  0  0  0  0  0  0
   -0.5142    7.2937   -1.8718 H   0  0  0  0  0  0  0  0  0  0  0  0
   -2.6565    8.2071   -0.8487 H   0  0  0  0  0  0  0  0  0  0  0  0
   -2.8066    9.2054   -2.3550 H   0  0  0  0  0  0  0  0  0  0  0  0
   -2.0450    6.5753   -2.6133 H   0  0  0  0  0  0  0  0  0  0  0  0
   -5.0598    7.1348   -0.4663 H   0  0  0  0  0  0  0  0  0  0  0  0
   -5.3002    8.4465   -1.6698 H   0  0  0  0  0  0  0  0  0  0  0  0
   -6.3881    7.0171   -1.6698 H   0  0  0  0  0  0  0  0  0  0  0  0
   -4.9417    4.6643   -1.8905 H   0  0  0  0  0  0  0  0  0  0  0  0
   -5.7204    5.2474   -3.4005 H   0  0  0  0  0  0  0  0  0  0  0  0
   -3.9792    4.8062   -3.4005 H   0  0  0  0  0  0  0  0  0  0  0  0
    1.5020   10.2528   -1.5334 H   0  0  0  0  0  0  0  0  0  0  0  0
    0.8882   10.0000   -3.8554 H   0  0  0  0  0  0  0  0  0  0  0  0
   -0.8444    9.9217   -3.4688 H   0  0  0  0  0  0  0  0  0  0  0  0
    0.5106   12.1814   -4.5755 H   0  0  0  0  0  0  0  0  0  0  0  0
   -1.0967   12.2477   -3.8579 H   0  0  0  0  0  0  0  0  0  0  0  0
    2.5979   12.6808   -1.7039 H   0  0  0  0  0  0  0  0  0  0  0  0
    2.3507   11.7892   -3.2436 H   0  0  0  0  0  0  0  0  0  0  0  0
    2.4007   13.5848   -3.2436 H   0  0  0  0  0  0  0  0  0  0  0  0
   -1.0632   14.0698   -2.2621 H   0  0  0  0  0  0  0  0  0  0  0  0
    0.3719   14.5907   -4.3377 H   0  0  0  0  0  0  0  0  0  0  0  0
   -0.4429   15.9363   -3.3813 H   0  0  0  0  0  0  0  0  0  0  0  0
    2.0225   16.4033   -4.1826 H   0  0  0  0  0  0  0  0  0  0  0  0
    2.4922   14.5462   -0.6286 H   0  0  0  0  0  0  0  0  0  0  0  0
    1.4133   17.3375    0.1047 H   0  0  0  0  0  0  0  0  0  0  0  0
    1.8309   15.9902    1.2542 H   0  0  0  0  0  0  0  0  0  0  0  0
    3.5827   17.7360    1.1800 H   0  0  0  0  0  0  0  0  0  0  0  0
    4.1668   16.1231    0.6106 H   0  0  0  0  0  0  0  0  0  0  0  0
    5.0309   17.8156   -0.8531 H   0  0  0  0  0  0  0  0  0  0  0  0
    3.6430   19.2890   -1.8710 H   0  0  0  0  0  0  0  0  0  0  0  0
    5.0321   15.2700   -0.9930 H   0  0  0  0  0  0  0  0  0  0  0  0
    4.4322   14.5946   -2.5456 H   0  0  0  0  0  0  0  0  0  0  0  0
    5.7630   15.8010   -2.5456 H   0  0  0  0  0  0  0  0  0  0  0  0
    4.5676   18.4075   -3.1611 H   0  0  0  0  0  0  0  0  0  0  0  0
    4.8721   16.8650   -4.0297 H   0  0  0  0  0  0  0  0  0  0  0  0
    3.2269   17.5861   -4.0297 H   0  0  0  0  0  0  0  0  0  0  0  0
   -0.7594   16.0852    0.5136 H   0  0  0  0  0  0  0  0  0  0  0  0
   -0.2868   16.8971   -1.0175 H   0  0  0  0  0  0  0  0  0  0  0  0
   -1.6058   15.6776   -1.0175 H   0  0  0  0  0  0  0  0  0  0  0  0
    0.8808   14.1481    1.1636 H   0  0  0  0  0  0  0  0  0  0  0  0
   -0.8190   13.7479    0.5432 H   0  0  0  0  0  0  0  0  0  0  0  0
    1.7644   12.2864   -0.0689 H   0  0  0  0  0  0  0  0  0  0  0  0
    0.3266   11.6989    0.8558 H   0  0  0  0  0  0  0  0  0  0  0  0
   -1.7576   11.8556    0.0066 H   0  0  0  0  0  0  0  0  0  0  0  0
   -1.9508   12.7552   -1.5362 H   0  0  0  0  0  0  0  0  0  0  0  0
   -1.9635   10.9589   -1.5362 H   0  0  0  0  0  0  0  0  0  0  0  0
  1  2  1  0
  2  3  1  0
  3  4  1  0
  4  5  1  0
  5  6  1  0
  6  7  1  0
  7  8  1  0
  7  9  1  0
  2 10  1  0
 10 11  1  0
 11 12  1  0
 12 13  1  0
 13 14  1  6
 13 15  1  0
 15 16  1  0
 16 17  1  0
 17 18  2  0
 18 19  1  0
 19 20  1  0
 20 21  1  0
 21 22  1  0
 22 23  1  0
 22 24  1  0
 24 25  1  0
 24 26  1  0
 19 27  1  0
 27 28  1  1
 27 29  1  0
 29 30  1  0
 30 31  1  0
 31 32  1  1
  7  5  1  0
 31 10  1  0
 31 13  1  0
 27 15  1  0
 24 18  1  0
  1 33  1  0
  1 34  1  0
  1 35  1  0
  2 36  1  1
  3 37  1  0
  3 38  1  0
  4 39  1  0
  4 40  1  0
  5 41  1  6
  8 42  1  0
  8 43  1  0
  8 44  1  0
  9 45  1  0
  9 46  1  0
  9 47  1  0
 10 48  1  6
 11 49  1  0
 11 50  1  0
 12 51  1  0
 12 52  1  0
 14 53  1  0
 14 54  1  0
 14 55  1  0
 15 56  1  1
 16 57  1  0
 16 58  1  0
 17 59  1  0
 19 60  1  1
 20 61  1  0
 20 62  1  0
 21 63  1  0
 21 64  1  0
 22 65  1  1
 23 66  1  0
 25 67  1  0
 25 68  1  0
 25 69  1  0
 26 70  1  0
 26 71  1  0
 26 72  1  0
 28 73  1  0
 28 74  1  0
 28 75  1  0
 29 76  1  0
 29 77  1  0
 30 78  1  0
 30 79  1  0
 32 80  1  0
 32 81  1  0
 32 82  1  0
M  END
>  <meeko>  (19) 
{"is_sidechain": [false], "intermolecular_energy": 2.731, "internal_energy": -0.839}

$$$$
EPH_relaxed_0001_pdb2pqr_Repair_326_r2_0001_out
     RDKit          3D

 82 86  0  0  0  0  0  0  0  0999 V2000
   -2.9830    9.6400    0.3730 C   0  0  0  0  0  0  0  0  0  0  0  0
   -2.9040    9.6110   -1.1550 C   0  0  2  0  0  0  0  0  0  0  0  0
   -2.5970    8.2000   -1.6950 C   0  0  0  0  0  0  0  0  0  0  0  0
   -3.7950    7.5240   -2.3670 C   0  0  0  0  0  0  0  0  0  0  0  0
   -5.0000    7.5180   -1.4760 C   0  0  2  0  0  0  0  0  0  0  0  0
   -5.4600    6.2130   -1.1000 O   0  0  0  0  0  0  0  0  0  0  0  0
   -6.3560    6.9930   -1.9070 C   0  0  0  0  0  0  0  0  0  0  0  0
   -6.5790    6.4380   -3.2790 C   0  0  0  0  0  0  0  0  0  0  0  0
   -7.5730    7.4650   -1.1730 C   0  0  0  0  0  0  0  0  0  0  0  0
   -1.8450   10.5950   -1.6390 C   0  0  1  0  0  0  0  0  0  0  0  0
   -2.1490   12.0570   -1.2140 C   0  0  0  0  0  0  0  0  0  0  0  0
   -0.7830   12.7350   -0.9350 C   0  0  0  0  0  0  0  0  0  0  0  0
    0.2640   11.7590   -1.5220 C   0  0  1  0  0  0  0  0  0  0  0  0
    0.2830   12.0640   -3.0530 C   0  0  0  0  0  0  0  0  0  0  0  0
    1.6980   11.8280   -0.9020 C   0  0  2  0  0  0  0  0  0  0  0  0
    2.4230   13.1730   -1.0840 C   0  0  0  0  0  0  0  0  0  0  0  0
    3.2570   13.2850   -2.3180 C   0  0  0  0  0  0  0  0  0  0  0  0
    3.6460   12.2580   -3.0950 C   0  0  0  0  0  0  0  0  0  0  0  0
    3.3270   10.8090   -2.7040 C   0  0  1  0  0  0  0  0  0  0  0  0
    4.5980    9.9360   -2.8700 C   0  0  0  0  0  0  0  0  0  0  0  0
    5.2030   10.0430   -4.2670 C   0  0  0  0  0  0  0  0  0  0  0  0
    5.5600   11.4900   -4.5960 C   0  0  2  0  0  0  0  0  0  0  0  0
    6.6250   11.9090   -3.7370 O   0  0  0  0  0  0  0  0  0  0  0  0
    4.3590   12.4660   -4.4540 C   0  0  0  0  0  0  0  0  0  0  0  0
    3.3350   12.2000   -5.5850 C   0  0  0  0  0  0  0  0  0  0  0  0
    4.8870   13.9090   -4.6760 C   0  0  0  0  0  0  0  0  0  0  0  0
    2.6310   10.6100   -1.2890 C   0  0  1  0  0  0  0  0  0  0  0  0
    3.7150   10.5080   -0.1720 C   0  0  0  0  0  0  0  0  0  0  0  0
    1.8580    9.2390   -1.2840 C   0  0  0  0  0  0  0  0  0  0  0  0
    0.4050    9.2580   -1.7980 C   0  0  0  0  0  0  0  0  0  0  0  0
   -0.3950   10.3840   -1.1360 C   0  0  2  0  0  0  0  0  0  0  0  0
   -0.4500   10.0930    0.4020 C   0  0  0  0  0  0  0  0  0  0  0  0
   -2.0298    9.2901    0.7961 H   0  0  0  0  0  0  0  0  0  0  0  0
   -3.1785   10.6685    0.7106 H   0  0  0  0  0  0  0  0  0  0  0  0
   -3.7975    8.9822    0.7106 H   0  0  0  0  0  0  0  0  0  0  0  0
   -3.8907    9.9048   -1.5425 H   0  0  0  0  0  0  0  0  0  0  0  0
   -1.7845    8.2795   -2.4323 H   0  0  0  0  0  0  0  0  0  0  0  0
   -2.3202    7.5783   -0.8308 H   0  0  0  0  0  0  0  0  0  0  0  0
   -4.0383    8.0674   -3.2919 H   0  0  0  0  0  0  0  0  0  0  0  0
   -3.5230    6.4802   -2.5828 H   0  0  0  0  0  0  0  0  0  0  0  0
   -4.6894    8.4647   -1.0099 H   0  0  0  0  0  0  0  0  0  0  0  0
   -6.9881    5.4199   -3.2007 H   0  0  0  0  0  0  0  0  0  0  0  0
   -7.2898    7.0780   -3.8223 H   0  0  0  0  0  0  0  0  0  0  0  0
   -5.6230    6.4082   -3.8223 H   0  0  0  0  0  0  0  0  0  0  0  0
   -7.3971    7.3968   -0.0893 H   0  0  0  0  0  0  0  0  0  0  0  0
   -7.7832    8.5098   -1.4453 H   0  0  0  0  0  0  0  0  0  0  0  0
   -8.4327    6.8351   -1.4453 H   0  0  0  0  0  0  0  0  0  0  0  0
   -1.8988   10.4059   -2.7213 H   0  0  0  0  0  0  0  0  0  0  0  0
   -2.6757   12.5848   -2.0227 H   0  0  0  0  0  0  0  0  0  0  0  0
   -2.7924   12.0834   -0.3222 H   0  0  0  0  0  0  0  0  0  0  0  0
   -0.7255   13.7130   -1.4351 H   0  0  0  0  0  0  0  0  0  0  0  0
   -0.6223   12.9242    0.1366 H   0  0  0  0  0  0  0  0  0  0  0  0
    0.3507   13.1507   -3.2096 H   0  0  0  0  0  0  0  0  0  0  0  0
    1.1523   11.5723   -3.5141 H   0  0  0  0  0  0  0  0  0  0  0  0
   -0.6406   11.6839   -3.5141 H   0  0  0  0  0  0  0  0  0  0  0  0
    1.4939   11.7426    0.1755 H   0  0  0  0  0  0  0  0  0  0  0  0
    1.6631   13.9677   -1.1138 H   0  0  0  0  0  0  0  0  0  0  0  0
    3.1189   13.2613   -0.2367 H   0  0  0  0  0  0  0  0  0  0  0  0
    3.5807   14.2929   -2.6169 H   0  0  0  0  0  0  0  0  0  0  0  0
    2.5477   10.4703   -3.4025 H   0  0  0  0  0  0  0  0  0  0  0  0
    5.3484   10.2623   -2.1348 H   0  0  0  0  0  0  0  0  0  0  0  0
    4.3058    8.8873   -2.7121 H   0  0  0  0  0  0  0  0  0  0  0  0
    6.1137    9.4278   -4.3132 H   0  0  0  0  0  0  0  0  0  0  0  0
    4.4625    9.6883   -4.9990 H   0  0  0  0  0  0  0  0  0  0  0  0
    5.8656   11.5217   -5.6522 H   0  0  0  0  0  0  0  0  0  0  0  0
    6.6870   11.2670   -3.0100 H   0  0  0  0  0  0  0  0  0  0  0  0
    2.3595   11.9466   -5.1443 H   0  0  0  0  0  0  0  0  0  0  0  0
    3.2333   13.1015   -6.2070 H   0  0  0  0  0  0  0  0  0  0  0  0
    3.6849   11.3629   -6.2070 H   0  0  0  0  0  0  0  0  0  0  0  0
    5.0627   14.3891   -3.7020 H   0  0  0  0  0  0  0  0  0  0  0  0
    5.8297   13.8715   -5.2416 H   0  0  0  0  0  0  0  0  0  0  0  0
    4.1428   14.4888   -5.2416 H   0  0  0  0  0  0  0  0  0  0  0  0
    3.2304   10.5536    0.8145 H   0  0  0  0  0  0  0  0  0  0  0  0
    4.2554    9.5550   -0.2714 H   0  0  0  0  0  0  0  0  0  0  0  0
    4.4236   11.3434   -0.2714 H   0  0  0  0  0  0  0  0  0  0  0  0
    2.4240    8.5357   -1.9124 H   0  0  0  0  0  0  0  0  0  0  0  0
    1.7844    8.9542   -0.2241 H   0  0  0  0  0  0  0  0  0  0  0  0
    0.4104    9.4124   -2.8871 H   0  0  0  0  0  0  0  0  0  0  0  0
   -0.0685    8.2971   -1.5482 H   0  0  0  0  0  0  0  0  0  0  0  0
   -0.2737   11.0255    0.9581 H   0  0  0  0  0  0  0  0  0  0  0  0
   -1.4400    9.6913    0.6640 H   0  0  0  0  0  0  0  0  0  0  0  0
    0.3251    9.3577    0.6640 H   0  0  0  0  0  0  0  0  0  0  0  0
  1  2  1  0
  2  3  1  0
  3  4  1  0
  4  5  1  0
  5  6  1  0
  6  7  1  0
  7  8  1  0
  7  9  1  0
  2 10  1  0
 10 11  1  0
 11 12  1  0
 12 13  1  0
 13 14  1  6
 13 15  1  0
 15 16  1  0
 16 17  1  0
 17 18  2  0
 18 19  1  0
 19 20  1  0
 20 21  1  0
 21 22  1  0
 22 23  1  0
 22 24  1  0
 24 25  1  0
 24 26  1  0
 19 27  1  0
 27 28  1  1
 27 29  1  0
 29 30  1  0
 30 31  1  0
 31 32  1  1
  7  5  1  0
 31 10  1  0
 31 13  1  0
 27 15  1  0
 24 18  1  0
  1 33  1  0
  1 34  1  0
  1 35  1  0
  2 36  1  6
  3 37  1  0
  3 38  1  0
  4 39  1  0
  4 40  1  0
  5 41  1  1
  8 42  1  0
  8 43  1  0
  8 44  1  0
  9 45  1  0
  9 46  1  0
  9 47  1  0
 10 48  1  6
 11 49  1  0
 11 50  1  0
 12 51  1  0
 12 52  1  0
 14 53  1  0
 14 54  1  0
 14 55  1  0
 15 56  1  1
 16 57  1  0
 16 58  1  0
 17 59  1  0
 19 60  1  6
 20 61  1  0
 20 62  1  0
 21 63  1  0
 21 64  1  0
 22 65  1  6
 23 66  1  0
 25 67  1  0
 25 68  1  0
 25 69  1  0
 26 70  1  0
 26 71  1  0
 26 72  1  0
 28 73  1  0
 28 74  1  0
 28 75  1  0
 29 76  1  0
 29 77  1  0
 30 78  1  0
 30 79  1  0
 32 80  1  0
 32 81  1  0
 32 82  1  0
M  END
>  <meeko>  (20) 
{"is_sidechain": [false], "intermolecular_energy": 2.731, "internal_energy": -0.839}

$$$$
