EPH_relaxed_0001_pdb2pqr_Repair_35_r2_0001_out
     RDKit          3D

 82 86  0  0  0  0  0  0  0  0999 V2000
   -1.4650    8.5440   -1.7900 C   0  0  0  0  0  0  0  0  0  0  0  0
   -1.8740    9.1270   -0.4350 C   0  0  2  0  0  0  0  0  0  0  0  0
   -3.3670    9.5110   -0.3940 C   0  0  0  0  0  0  0  0  0  0  0  0
   -4.3120    8.3070   -0.3890 C   0  0  0  0  0  0  0  0  0  0  0  0
   -4.8320    8.0040   -1.7620 C   0  0  2  0  0  0  0  0  0  0  0  0
   -6.2610    8.0080   -1.8760 O   0  0  0  0  0  0  0  0  0  0  0  0
   -5.6110    6.7470   -2.1030 C   0  0  0  0  0  0  0  0  0  0  0  0
   -5.9130    5.7110   -1.0670 C   0  0  0  0  0  0  0  0  0  0  0  0
   -5.6520    6.2970   -3.5300 C   0  0  0  0  0  0  0  0  0  0  0  0
   -1.0150   10.3430   -0.1110 C   0  0  1  0  0  0  0  0  0  0  0  0
    0.0830   10.0360    0.9420 C   0  0  0  0  0  0  0  0  0  0  0  0
    1.3200   10.8890    0.5610 C   0  0  0  0  0  0  0  0  0  0  0  0
    0.7910   11.8970   -0.4860 C   0  0  1  0  0  0  0  0  0  0  0  0
    0.1130   13.0260    0.3500 C   0  0  0  0  0  0  0  0  0  0  0  0
    1.8470   12.4730   -1.4850 C   0  0  2  0  0  0  0  0  0  0  0  0
    2.9760   13.2950   -0.8390 C   0  0  0  0  0  0  0  0  0  0  0  0
    2.7080   14.7590   -0.7150 C   0  0  0  0  0  0  0  0  0  0  0  0
    1.7370   15.4330   -1.3580 C   0  0  0  0  0  0  0  0  0  0  0  0
    0.8430   14.7340   -2.3900 C   0  0  1  0  0  0  0  0  0  0  0  0
    0.7300   15.6180   -3.6600 C   0  0  0  0  0  0  0  0  0  0  0  0
    0.2610   17.0350   -3.3460 C   0  0  0  0  0  0  0  0  0  0  0  0
    1.2070   17.7180   -2.3620 C   0  0  2  0  0  0  0  0  0  0  0  0
    2.4720   17.9170   -3.0000 O   0  0  0  0  0  0  0  0  0  0  0  0
    1.4060   16.9140   -1.0460 C   0  0  0  0  0  0  0  0  0  0  0  0
    0.1050   16.9550   -0.2080 C   0  0  0  0  0  0  0  0  0  0  0  0
    2.4890   17.6390   -0.2030 C   0  0  0  0  0  0  0  0  0  0  0  0
    1.2210   13.2280   -2.7270 C   0  0  1  0  0  0  0  0  0  0  0  0
    2.2920   13.1880   -3.8590 C   0  0  0  0  0  0  0  0  0  0  0  0
   -0.0520   12.4930   -3.2930 C   0  0  0  0  0  0  0  0  0  0  0  0
   -0.9940   11.8410   -2.2630 C   0  0  0  0  0  0  0  0  0  0  0  0
   -0.2090   10.9740   -1.2740 C   0  0  2  0  0  0  0  0  0  0  0  0
    0.4670    9.8160   -2.0840 C   0  0  0  0  0  0  0  0  0  0  0  0
   -0.8398    7.6528   -1.6321 H   0  0  0  0  0  0  0  0  0  0  0  0
   -2.3659    8.2643   -2.3558 H   0  0  0  0  0  0  0  0  0  0  0  0
   -0.8954    9.2959   -2.3558 H   0  0  0  0  0  0  0  0  0  0  0  0
   -1.7131    8.3457    0.3225 H   0  0  0  0  0  0  0  0  0  0  0  0
   -3.5494   10.0994    0.5173 H   0  0  0  0  0  0  0  0  0  0  0  0
   -3.5776   10.0812   -1.3108 H   0  0  0  0  0  0  0  0  0  0  0  0
   -3.7679    7.4284   -0.0121 H   0  0  0  0  0  0  0  0  0  0  0  0
   -5.1694    8.5470    0.2569 H   0  0  0  0  0  0  0  0  0  0  0  0
   -3.9523    8.4754   -2.2245 H   0  0  0  0  0  0  0  0  0  0  0  0
   -5.7860    6.1466   -0.0649 H   0  0  0  0  0  0  0  0  0  0  0  0
   -6.9498    5.3636   -1.1871 H   0  0  0  0  0  0  0  0  0  0  0  0
   -5.2253    4.8609   -1.1871 H   0  0  0  0  0  0  0  0  0  0  0  0
   -5.7518    5.2021   -3.5665 H   0  0  0  0  0  0  0  0  0  0  0  0
   -6.5116    6.7606   -4.0361 H   0  0  0  0  0  0  0  0  0  0  0  0
   -4.7227    6.5976   -4.0361 H   0  0  0  0  0  0  0  0  0  0  0  0
   -1.7987   11.0378    0.2252 H   0  0  0  0  0  0  0  0  0  0  0  0
   -0.2699   10.3087    1.9476 H   0  0  0  0  0  0  0  0  0  0  0  0
    0.3308    8.9643    0.9529 H   0  0  0  0  0  0  0  0  0  0  0  0
    1.7149   11.4157    1.4423 H   0  0  0  0  0  0  0  0  0  0  0  0
    2.1453   10.2758    0.1700 H   0  0  0  0  0  0  0  0  0  0  0  0
    0.2398   12.8149    1.4221 H   0  0  0  0  0  0  0  0  0  0  0  0
    0.5805   13.9920    0.1087 H   0  0  0  0  0  0  0  0  0  0  0  0
   -0.9594   13.0672    0.1087 H   0  0  0  0  0  0  0  0  0  0  0  0
    2.3250   11.5616   -1.8733 H   0  0  0  0  0  0  0  0  0  0  0  0
    3.1530   12.8951    0.1703 H   0  0  0  0  0  0  0  0  0  0  0  0
    3.8435   13.1999   -1.5087 H   0  0  0  0  0  0  0  0  0  0  0  0
    3.3594   15.3349   -0.0412 H   0  0  0  0  0  0  0  0  0  0  0  0
   -0.1449   14.6315   -1.9173 H   0  0  0  0  0  0  0  0  0  0  0  0
    1.7177   15.6719   -4.1412 H   0  0  0  0  0  0  0  0  0  0  0  0
   -0.0181   15.1575   -4.3221 H   0  0  0  0  0  0  0  0  0  0  0  0
    0.2288   17.6182   -4.2781 H   0  0  0  0  0  0  0  0  0  0  0  0
   -0.7390   16.9808   -2.8911 H   0  0  0  0  0  0  0  0  0  0  0  0
    0.7508   18.6778   -2.0779 H   0  0  0  0  0  0  0  0  0  0  0  0
    2.9910   17.1030   -2.8860 H   0  0  0  0  0  0  0  0  0  0  0  0
    0.3580   16.9470    0.8625 H   0  0  0  0  0  0  0  0  0  0  0  0
   -0.4554   17.8713   -0.4455 H   0  0  0  0  0  0  0  0  0  0  0  0
   -0.5120   16.0759   -0.4455 H   0  0  0  0  0  0  0  0  0  0  0  0
    2.2768   17.4969    0.8669 H   0  0  0  0  0  0  0  0  0  0  0  0
    3.4785   17.2206   -0.4393 H   0  0  0  0  0  0  0  0  0  0  0  0
    2.4792   18.7133   -0.4393 H   0  0  0  0  0  0  0  0  0  0  0  0
    3.2965   13.1505   -3.4122 H   0  0  0  0  0  0  0  0  0  0  0  0
    2.1341   12.2951   -4.4818 H   0  0  0  0  0  0  0  0  0  0  0  0
    2.2011   14.0902   -4.4818 H   0  0  0  0  0  0  0  0  0  0  0  0
   -0.6384   13.2317   -3.8591 H   0  0  0  0  0  0  0  0  0  0  0  0
    0.3407   11.6583   -3.8922 H   0  0  0  0  0  0  0  0  0  0  0  0
   -1.5227   12.6304   -1.7086 H   0  0  0  0  0  0  0  0  0  0  0  0
   -1.7104   11.2009   -2.7987 H   0  0  0  0  0  0  0  0  0  0  0  0
    0.8956    9.0819   -1.3859 H   0  0  0  0  0  0  0  0  0  0  0  0
   -0.2856    9.3237   -2.7174 H   0  0  0  0  0  0  0  0  0  0  0  0
    1.2657   10.2293   -2.7174 H   0  0  0  0  0  0  0  0  0  0  0  0
  1  2  1  0
  2  3  1  0
  3  4  1  0
  4  5  1  0
  5  6  1  0
  6  7  1  0
  7  8  1  0
  7  9  1  0
  2 10  1  0
 10 11  1  0
 11 12  1  0
 12 13  1  0
 13 14  1  1
 13 15  1  0
 15 16  1  0
 16 17  1  0
 17 18  2  0
 18 19  1  0
 19 20  1  0
 20 21  1  0
 21 22  1  0
 22 23  1  0
 22 24  1  0
 24 25  1  0
 24 26  1  0
 19 27  1  0
 27 28  1  6
 27 29  1  0
 29 30  1  0
 30 31  1  0
 31 32  1  6
  7  5  1  0
 31 10  1  0
 31 13  1  0
 27 15  1  0
 24 18  1  0
  1 33  1  0
  1 34  1  0
  1 35  1  0
  2 36  1  1
  3 37  1  0
  3 38  1  0
  4 39  1  0
  4 40  1  0
  5 41  1  6
  8 42  1  0
  8 43  1  0
  8 44  1  0
  9 45  1  0
  9 46  1  0
  9 47  1  0
 10 48  1  1
 11 49  1  0
 11 50  1  0
 12 51  1  0
 12 52  1  0
 14 53  1  0
 14 54  1  0
 14 55  1  0
 15 56  1  6
 16 57  1  0
 16 58  1  0
 17 59  1  0
 19 60  1  1
 20 61  1  0
 20 62  1  0
 21 63  1  0
 21 64  1  0
 22 65  1  1
 23 66  1  0
 25 67  1  0
 25 68  1  0
 25 69  1  0
 26 70  1  0
 26 71  1  0
 26 72  1  0
 28 73  1  0
 28 74  1  0
 28 75  1  0
 29 76  1  0
 29 77  1  0
 30 78  1  0
 30 79  1  0
 32 80  1  0
 32 81  1  0
 32 82  1  0
M  END
>  <meeko>  (1) 
{"is_sidechain": [false], "intermolecular_energy": 2.731, "internal_energy": -0.839}

$$$$
EPH_relaxed_0001_pdb2pqr_Repair_35_r2_0001_out
     RDKit          3D

 82 86  0  0  0  0  0  0  0  0999 V2000
    2.1590   19.4740   -0.8220 C   0  0  0  0  0  0  0  0  0  0  0  0
    2.3530   18.3720    0.2230 C   0  0  2  0  0  0  0  0  0  0  0  0
    3.8040   17.8530    0.2560 C   0  0  0  0  0  0  0  0  0  0  0  0
    4.7390   18.6940    1.1300 C   0  0  0  0  0  0  0  0  0  0  0  0
    4.2120   18.8380    2.5260 C   0  0  2  0  0  0  0  0  0  0  0  0
    4.0460   20.1920    2.9660 O   0  0  0  0  0  0  0  0  0  0  0  0
    5.0250   19.4120    3.6710 C   0  0  0  0  0  0  0  0  0  0  0  0
    6.4330   19.8790    3.4720 C   0  0  0  0  0  0  0  0  0  0  0  0
    4.6280   19.0690    5.0730 C   0  0  0  0  0  0  0  0  0  0  0  0
    1.3940   17.2200   -0.0530 C   0  0  1  0  0  0  0  0  0  0  0  0
    0.1140   17.6750   -0.8030 C   0  0  0  0  0  0  0  0  0  0  0  0
   -0.2840   16.5160   -1.7540 C   0  0  0  0  0  0  0  0  0  0  0  0
    0.5730   15.3160   -1.2850 C   0  0  1  0  0  0  0  0  0  0  0  0
   -0.1900   14.7350   -0.0530 C   0  0  0  0  0  0  0  0  0  0  0  0
    0.8630   14.2150   -2.3560 C   0  0  2  0  0  0  0  0  0  0  0  0
   -0.3790   13.4870   -2.8980 C   0  0  0  0  0  0  0  0  0  0  0  0
   -0.7760   12.2580   -2.1490 C   0  0  0  0  0  0  0  0  0  0  0  0
   -0.0050   11.5980   -1.2650 C   0  0  0  0  0  0  0  0  0  0  0  0
    1.4480   12.0240   -1.0150 C   0  0  1  0  0  0  0  0  0  0  0  0
    2.3640   10.7720   -1.0270 C   0  0  0  0  0  0  0  0  0  0  0  0
    1.8960    9.6950   -0.0530 C   0  0  0  0  0  0  0  0  0  0  0  0
    0.4690    9.2560   -0.3710 C   0  0  2  0  0  0  0  0  0  0  0  0
    0.4620    8.5890   -1.6370 O   0  0  0  0  0  0  0  0  0  0  0  0
   -0.5440   10.4350   -0.3960 C   0  0  0  0  0  0  0  0  0  0  0  0
   -0.7620   10.9640    1.0430 C   0  0  0  0  0  0  0  0  0  0  0  0
   -1.9140    9.8770   -0.8660 C   0  0  0  0  0  0  0  0  0  0  0  0
    1.9980   13.1920   -1.9420 C   0  0  1  0  0  0  0  0  0  0  0  0
    2.5660   12.5970   -3.2670 C   0  0  0  0  0  0  0  0  0  0  0  0
    3.2050   13.8970   -1.2180 C   0  0  0  0  0  0  0  0  0  0  0  0
    2.8610   15.0570   -0.2640 C   0  0  0  0  0  0  0  0  0  0  0  0
    1.9140   16.0570   -0.9340 C   0  0  2  0  0  0  0  0  0  0  0  0
    2.6630   16.6740   -2.1640 C   0  0  0  0  0  0  0  0  0  0  0  0
    1.9898   20.4351   -0.3143 H   0  0  0  0  0  0  0  0  0  0  0  0
    3.0584   19.5451   -1.4512 H   0  0  0  0  0  0  0  0  0  0  0  0
    1.2894   19.2336   -1.4512 H   0  0  0  0  0  0  0  0  0  0  0  0
    2.1359   18.8085    1.2091 H   0  0  0  0  0  0  0  0  0  0  0  0
    3.7961   16.8244    0.6457 H   0  0  0  0  0  0  0  0  0  0  0  0
    4.1889   17.9091   -0.7729 H   0  0  0  0  0  0  0  0  0  0  0  0
    5.7244   18.2068    1.1694 H   0  0  0  0  0  0  0  0  0  0  0  0
    4.8132   19.6977    0.6860 H   0  0  0  0  0  0  0  0  0  0  0  0
    3.6287   17.9106    2.4274 H   0  0  0  0  0  0  0  0  0  0  0  0
    6.9088   20.0368    4.4511 H   0  0  0  0  0  0  0  0  0  0  0  0
    6.9952   19.1192    2.9093 H   0  0  0  0  0  0  0  0  0  0  0  0
    6.4297   20.8242    2.9093 H   0  0  0  0  0  0  0  0  0  0  0  0
    5.2657   19.6200    5.7799 H   0  0  0  0  0  0  0  0  0  0  0  0
    3.5761   19.3471    5.2347 H   0  0  0  0  0  0  0  0  0  0  0  0
    4.7504   17.9879    5.2347 H   0  0  0  0  0  0  0  0  0  0  0  0
    1.2286   16.8678    0.9759 H   0  0  0  0  0  0  0  0  0  0  0  0
   -0.6961   17.8709   -0.0851 H   0  0  0  0  0  0  0  0  0  0  0  0
    0.2949   18.6028   -1.3656 H   0  0  0  0  0  0  0  0  0  0  0  0
   -1.3560   16.2878   -1.6609 H   0  0  0  0  0  0  0  0  0  0  0  0
   -0.1106   16.7651   -2.8113 H   0  0  0  0  0  0  0  0  0  0  0  0
    0.2819   15.0943    0.8734 H   0  0  0  0  0  0  0  0  0  0  0  0
   -1.2389   15.0652   -0.0822 H   0  0  0  0  0  0  0  0  0  0  0  0
   -0.1506   13.6361   -0.0822 H   0  0  0  0  0  0  0  0  0  0  0  0
    1.2543   14.8036   -3.1988 H   0  0  0  0  0  0  0  0  0  0  0  0
   -1.2244   14.1902   -2.8696 H   0  0  0  0  0  0  0  0  0  0  0  0
   -0.1171   13.1533   -3.9129 H   0  0  0  0  0  0  0  0  0  0  0  0
   -1.7837   11.8582   -2.3354 H   0  0  0  0  0  0  0  0  0  0  0  0
    1.4616   12.4869   -0.0172 H   0  0  0  0  0  0  0  0  0  0  0  0
    2.3708   10.3499   -2.0428 H   0  0  0  0  0  0  0  0  0  0  0  0
    3.3692   11.0909   -0.7142 H   0  0  0  0  0  0  0  0  0  0  0  0
    2.5656    8.8255   -0.1285 H   0  0  0  0  0  0  0  0  0  0  0  0
    1.9175   10.1091    0.9658 H   0  0  0  0  0  0  0  0  0  0  0  0
    0.1451    8.5811    0.4350 H   0  0  0  0  0  0  0  0  0  0  0  0
   -0.1330    7.8240   -1.5640 H   0  0  0  0  0  0  0  0  0  0  0  0
   -0.4464   10.1982    1.7669 H   0  0  0  0  0  0  0  0  0  0  0  0
   -0.1668   11.8770    1.1921 H   0  0  0  0  0  0  0  0  0  0  0  0
   -1.8276   11.1926    1.1921 H   0  0  0  0  0  0  0  0  0  0  0  0
   -2.5285    9.6267    0.0114 H   0  0  0  0  0  0  0  0  0  0  0  0
   -2.4310   10.6362   -1.4712 H   0  0  0  0  0  0  0  0  0  0  0  0
   -1.7534    8.9726   -1.4712 H   0  0  0  0  0  0  0  0  0  0  0  0
    3.3079   11.8198   -3.0315 H   0  0  0  0  0  0  0  0  0  0  0  0
    1.7457   12.1556   -3.8520 H   0  0  0  0  0  0  0  0  0  0  0  0
    3.0450   13.3959   -3.8520 H   0  0  0  0  0  0  0  0  0  0  0  0
    3.7355   13.1312   -0.6331 H   0  0  0  0  0  0  0  0  0  0  0  0
    3.7976   14.3535   -2.0245 H   0  0  0  0  0  0  0  0  0  0  0  0
    2.3767   14.6507    0.6362 H   0  0  0  0  0  0  0  0  0  0  0  0
    3.7917   15.5798    0.0015 H   0  0  0  0  0  0  0  0  0  0  0  0
    3.4667   17.3361   -1.8095 H   0  0  0  0  0  0  0  0  0  0  0  0
    3.0951   15.8663   -2.7730 H   0  0  0  0  0  0  0  0  0  0  0  0
    1.9530   17.2528   -2.7730 H   0  0  0  0  0  0  0  0  0  0  0  0
  1  2  1  0
  2  3  1  0
  3  4  1  0
  4  5  1  0
  5  6  1  0
  6  7  1  0
  7  8  1  0
  7  9  1  0
  2 10  1  0
 10 11  1  0
 11 12  1  0
 12 13  1  0
 13 14  1  1
 13 15  1  0
 15 16  1  0
 16 17  1  0
 17 18  2  0
 18 19  1  0
 19 20  1  0
 20 21  1  0
 21 22  1  0
 22 23  1  0
 22 24  1  0
 24 25  1  0
 24 26  1  0
 19 27  1  0
 27 28  1  6
 27 29  1  0
 29 30  1  0
 30 31  1  0
 31 32  1  6
  7  5  1  0
 31 10  1  0
 31 13  1  0
 27 15  1  0
 24 18  1  0
  1 33  1  0
  1 34  1  0
  1 35  1  0
  2 36  1  1
  3 37  1  0
  3 38  1  0
  4 39  1  0
  4 40  1  0
  5 41  1  1
  8 42  1  0
  8 43  1  0
  8 44  1  0
  9 45  1  0
  9 46  1  0
  9 47  1  0
 10 48  1  1
 11 49  1  0
 11 50  1  0
 12 51  1  0
 12 52  1  0
 14 53  1  0
 14 54  1  0
 14 55  1  0
 15 56  1  6
 16 57  1  0
 16 58  1  0
 17 59  1  0
 19 60  1  1
 20 61  1  0
 20 62  1  0
 21 63  1  0
 21 64  1  0
 22 65  1  1
 23 66  1  0
 25 67  1  0
 25 68  1  0
 25 69  1  0
 26 70  1  0
 26 71  1  0
 26 72  1  0
 28 73  1  0
 28 74  1  0
 28 75  1  0
 29 76  1  0
 29 77  1  0
 30 78  1  0
 30 79  1  0
 32 80  1  0
 32 81  1  0
 32 82  1  0
M  END
>  <meeko>  (2) 
{"is_sidechain": [false], "intermolecular_energy": 2.731, "internal_energy": -0.839}

$$$$
EPH_relaxed_0001_pdb2pqr_Repair_35_r2_0001_out
     RDKit          3D

 82 86  0  0  0  0  0  0  0  0999 V2000
    0.4200   18.4350   -0.0130 C   0  0  0  0  0  0  0  0  0  0  0  0
    1.5070   17.3790   -0.2350 C   0  0  2  0  0  0  0  0  0  0  0  0
    2.7190   17.9450   -1.0000 C   0  0  0  0  0  0  0  0  0  0  0  0
    3.9540   18.1650   -0.1210 C   0  0  0  0  0  0  0  0  0  0  0  0
    3.5800   18.6270    1.2540 C   0  0  2  0  0  0  0  0  0  0  0  0
    3.8280   20.0160    1.5070 O   0  0  0  0  0  0  0  0  0  0  0  0
    4.5930   19.0830    2.2880 C   0  0  0  0  0  0  0  0  0  0  0  0
    6.0590   19.0980    1.9900 C   0  0  0  0  0  0  0  0  0  0  0  0
    4.2050   19.0470    3.7330 C   0  0  0  0  0  0  0  0  0  0  0  0
    0.9270   16.1860   -0.9860 C   0  0  1  0  0  0  0  0  0  0  0  0
    0.7780   16.4540   -2.5080 C   0  0  0  0  0  0  0  0  0  0  0  0
    1.0630   15.1100   -3.2280 C   0  0  0  0  0  0  0  0  0  0  0  0
    1.0360   14.0510   -2.1010 C   0  0  1  0  0  0  0  0  0  0  0  0
   -0.4770   13.7500   -1.8680 C   0  0  0  0  0  0  0  0  0  0  0  0
    1.8510   12.7420   -2.3640 C   0  0  2  0  0  0  0  0  0  0  0  0
    1.3690   11.9030   -3.5600 C   0  0  0  0  0  0  0  0  0  0  0  0
    0.3430   10.8660   -3.2400 C   0  0  0  0  0  0  0  0  0  0  0  0
    0.0370   10.4240   -2.0060 C   0  0  0  0  0  0  0  0  0  0  0  0
    0.8220   10.9070   -0.7790 C   0  0  1  0  0  0  0  0  0  0  0  0
    1.1920    9.6910    0.1100 C   0  0  0  0  0  0  0  0  0  0  0  0
   -0.0250    8.8520    0.4890 C   0  0  0  0  0  0  0  0  0  0  0  0
   -0.7450    8.3420   -0.7570 C   0  0  2  0  0  0  0  0  0  0  0  0
    0.1070    7.4120   -1.4330 O   0  0  0  0  0  0  0  0  0  0  0  0
   -1.1580    9.4780   -1.7340 C   0  0  0  0  0  0  0  0  0  0  0  0
   -2.3050   10.3100   -1.1090 C   0  0  0  0  0  0  0  0  0  0  0  0
   -1.7460    8.8190   -3.0110 C   0  0  0  0  0  0  0  0  0  0  0  0
    2.0690   11.8450   -1.0790 C   0  0  1  0  0  0  0  0  0  0  0  0
    3.3350   10.9770   -1.3520 C   0  0  0  0  0  0  0  0  0  0  0  0
    2.3870   12.7030    0.2020 C   0  0  0  0  0  0  0  0  0  0  0  0
    1.6380   14.0420    0.3450 C   0  0  0  0  0  0  0  0  0  0  0  0
    1.7290   14.8610   -0.9460 C   0  0  2  0  0  0  0  0  0  0  0  0
    3.2390   15.1980   -1.1940 C   0  0  0  0  0  0  0  0  0  0  0  0
    0.2676   18.5831    1.0663 H   0  0  0  0  0  0  0  0  0  0  0  0
    0.7317   19.3844   -0.4729 H   0  0  0  0  0  0  0  0  0  0  0  0
   -0.5200   18.0960   -0.4729 H   0  0  0  0  0  0  0  0  0  0  0  0
    1.8631   17.0576    0.7549 H   0  0  0  0  0  0  0  0  0  0  0  0
    2.9842   17.2395   -1.8012 H   0  0  0  0  0  0  0  0  0  0  0  0
    2.4220   18.9300   -1.3893 H   0  0  0  0  0  0  0  0  0  0  0  0
    4.5077   17.2179   -0.0406 H   0  0  0  0  0  0  0  0  0  0  0  0
    4.5731   18.9450   -0.5883 H   0  0  0  0  0  0  0  0  0  0  0  0
    2.7556   17.9002    1.2994 H   0  0  0  0  0  0  0  0  0  0  0  0
    6.6249   19.1038    2.9333 H   0  0  0  0  0  0  0  0  0  0  0  0
    6.3242   18.2025    1.4088 H   0  0  0  0  0  0  0  0  0  0  0  0
    6.3058   19.9987    1.4088 H   0  0  0  0  0  0  0  0  0  0  0  0
    5.1070   19.1307    4.3570 H   0  0  0  0  0  0  0  0  0  0  0  0
    3.5284   19.8862    3.9520 H   0  0  0  0  0  0  0  0  0  0  0  0
    3.6944   18.0976    3.9520 H   0  0  0  0  0  0  0  0  0  0  0  0
   -0.0208   16.0678   -0.4403 H   0  0  0  0  0  0  0  0  0  0  0  0
   -0.2426   16.7962   -2.7344 H   0  0  0  0  0  0  0  0  0  0  0  0
    1.4750   17.2369   -2.8417 H   0  0  0  0  0  0  0  0  0  0  0  0
    0.2866   14.8989   -3.9781 H   0  0  0  0  0  0  0  0  0  0  0  0
    2.0214   15.1207   -3.7678 H   0  0  0  0  0  0  0  0  0  0  0  0
   -0.6807   13.7095   -0.7878 H   0  0  0  0  0  0  0  0  0  0  0  0
   -1.0838   14.5450   -2.3260 H   0  0  0  0  0  0  0  0  0  0  0  0
   -0.7333   12.7833   -2.3260 H   0  0  0  0  0  0  0  0  0  0  0  0
    2.8383   13.1325   -2.6515 H   0  0  0  0  0  0  0  0  0  0  0  0
    0.9384   12.5887   -4.3046 H   0  0  0  0  0  0  0  0  0  0  0  0
    2.2515   11.3559   -3.9231 H   0  0  0  0  0  0  0  0  0  0  0  0
   -0.2091   10.4264   -4.0838 H   0  0  0  0  0  0  0  0  0  0  0  0
    0.1456   11.5789   -0.2303 H   0  0  0  0  0  0  0  0  0  0  0  0
    1.9015    9.0551   -0.4398 H   0  0  0  0  0  0  0  0  0  0  0  0
    1.6331   10.0790    1.0400 H   0  0  0  0  0  0  0  0  0  0  0  0
    0.3037    7.9927    1.0920 H   0  0  0  0  0  0  0  0  0  0  0  0
   -0.7204    9.4814    1.0637 H   0  0  0  0  0  0  0  0  0  0  0  0
   -1.6764    7.8595   -0.4258 H   0  0  0  0  0  0  0  0  0  0  0  0
   -0.2350    6.5180   -1.2570 H   0  0  0  0  0  0  0  0  0  0  0  0
   -2.2378   10.2612   -0.0121 H   0  0  0  0  0  0  0  0  0  0  0  0
   -2.2186   11.3569   -1.4355 H   0  0  0  0  0  0  0  0  0  0  0  0
   -3.2733    9.9028   -1.4355 H   0  0  0  0  0  0  0  0  0  0  0  0
   -2.4527    8.0269   -2.7226 H   0  0  0  0  0  0  0  0  0  0  0  0
   -2.2711    9.5796   -3.6075 H   0  0  0  0  0  0  0  0  0  0  0  0
   -0.9308    8.3836   -3.6075 H   0  0  0  0  0  0  0  0  0  0  0  0
    3.7825   10.6702   -0.3951 H   0  0  0  0  0  0  0  0  0  0  0  0
    3.0500   10.0834   -1.9267 H   0  0  0  0  0  0  0  0  0  0  0  0
    4.0657   11.5650   -1.9267 H   0  0  0  0  0  0  0  0  0  0  0  0
    2.1434   12.0898    1.0821 H   0  0  0  0  0  0  0  0  0  0  0  0
    3.4487   12.9756    0.1096 H   0  0  0  0  0  0  0  0  0  0  0  0
    0.5802   13.8405    0.5696 H   0  0  0  0  0  0  0  0  0  0  0  0
    2.1014   14.6181    1.1595 H   0  0  0  0  0  0  0  0  0  0  0  0
    3.7526   15.3126   -0.2280 H   0  0  0  0  0  0  0  0  0  0  0  0
    3.7079   14.3824   -1.7640 H   0  0  0  0  0  0  0  0  0  0  0  0
    3.3166   16.1356   -1.7640 H   0  0  0  0  0  0  0  0  0  0  0  0
  1  2  1  0
  2  3  1  0
  3  4  1  0
  4  5  1  0
  5  6  1  0
  6  7  1  0
  7  8  1  0
  7  9  1  0
  2 10  1  0
 10 11  1  0
 11 12  1  0
 12 13  1  0
 13 14  1  1
 13 15  1  0
 15 16  1  0
 16 17  1  0
 17 18  2  0
 18 19  1  0
 19 20  1  0
 20 21  1  0
 21 22  1  0
 22 23  1  0
 22 24  1  0
 24 25  1  0
 24 26  1  0
 19 27  1  0
 27 28  1  6
 27 29  1  0
 29 30  1  0
 30 31  1  0
 31 32  1  6
  7  5  1  0
 31 10  1  0
 31 13  1  0
 27 15  1  0
 24 18  1  0
  1 33  1  0
  1 34  1  0
  1 35  1  0
  2 36  1  1
  3 37  1  0
  3 38  1  0
  4 39  1  0
  4 40  1  0
  5 41  1  1
  8 42  1  0
  8 43  1  0
  8 44  1  0
  9 45  1  0
  9 46  1  0
  9 47  1  0
 10 48  1  1
 11 49  1  0
 11 50  1  0
 12 51  1  0
 12 52  1  0
 14 53  1  0
 14 54  1  0
 14 55  1  0
 15 56  1  6
 16 57  1  0
 16 58  1  0
 17 59  1  0
 19 60  1  1
 20 61  1  0
 20 62  1  0
 21 63  1  0
 21 64  1  0
 22 65  1  1
 23 66  1  0
 25 67  1  0
 25 68  1  0
 25 69  1  0
 26 70  1  0
 26 71  1  0
 26 72  1  0
 28 73  1  0
 28 74  1  0
 28 75  1  0
 29 76  1  0
 29 77  1  0
 30 78  1  0
 30 79  1  0
 32 80  1  0
 32 81  1  0
 32 82  1  0
M  END
>  <meeko>  (3) 
{"is_sidechain": [false], "intermolecular_energy": 2.731, "internal_energy": -0.839}

$$$$
EPH_relaxed_0001_pdb2pqr_Repair_35_r2_0001_out
     RDKit          3D

 82 86  0  0  0  0  0  0  0  0999 V2000
    2.1260   18.0810   -2.5880 C   0  0  0  0  0  0  0  0  0  0  0  0
    0.6050   17.9080   -2.6400 C   0  0  2  0  0  0  0  0  0  0  0  0
   -0.0750   18.3610   -1.3320 C   0  0  0  0  0  0  0  0  0  0  0  0
    0.6850   17.9480   -0.0680 C   0  0  0  0  0  0  0  0  0  0  0  0
    1.2610   19.1340    0.6440 C   0  0  2  0  0  0  0  0  0  0  0  0
    2.1690   19.9210   -0.1390 O   0  0  0  0  0  0  0  0  0  0  0  0
    2.7290   19.2600    1.0080 C   0  0  0  0  0  0  0  0  0  0  0  0
    3.7110   18.1830    0.6700 C   0  0  0  0  0  0  0  0  0  0  0  0
    3.1150   20.1940    2.1120 C   0  0  0  0  0  0  0  0  0  0  0  0
    0.2570   16.4540   -2.9320 C   0  0  1  0  0  0  0  0  0  0  0  0
    0.3160   16.1180   -4.4460 C   0  0  0  0  0  0  0  0  0  0  0  0
    0.8280   14.6590   -4.5610 C   0  0  0  0  0  0  0  0  0  0  0  0
    0.7300   14.0970   -3.1230 C   0  0  1  0  0  0  0  0  0  0  0  0
   -0.7680   13.6910   -2.9520 C   0  0  0  0  0  0  0  0  0  0  0  0
    1.6910   12.9130   -2.7770 C   0  0  2  0  0  0  0  0  0  0  0  0
    1.4740   11.6330   -3.6020 C   0  0  0  0  0  0  0  0  0  0  0  0
    0.5120   10.6530   -3.0170 C   0  0  0  0  0  0  0  0  0  0  0  0
    0.0650   10.6580   -1.7470 C   0  0  0  0  0  0  0  0  0  0  0  0
    0.6080   11.6650   -0.7250 C   0  0  1  0  0  0  0  0  0  0  0  0
    0.9500   10.9280    0.5970 C   0  0  0  0  0  0  0  0  0  0  0  0
   -0.2270   10.1230    1.1390 C   0  0  0  0  0  0  0  0  0  0  0  0
   -0.7020    9.0940    0.1170 C   0  0  2  0  0  0  0  0  0  0  0  0
    0.3240    8.1110   -0.0570 O   0  0  0  0  0  0  0  0  0  0  0  0
   -1.0650    9.7190   -1.2590 C   0  0  0  0  0  0  0  0  0  0  0  0
   -2.3650   10.5510   -1.1250 C   0  0  0  0  0  0  0  0  0  0  0  0
   -1.3910    8.5590   -2.2390 C   0  0  0  0  0  0  0  0  0  0  0  0
    1.7950   12.5940   -1.2300 C   0  0  1  0  0  0  0  0  0  0  0  0
    3.1620   11.8750   -1.0150 C   0  0  0  0  0  0  0  0  0  0  0  0
    1.8350   13.8990   -0.3510 C   0  0  0  0  0  0  0  0  0  0  0  0
    0.9540   15.0760   -0.8120 C   0  0  0  0  0  0  0  0  0  0  0  0
    1.1620   15.3650   -2.3020 C   0  0  2  0  0  0  0  0  0  0  0  0
    2.6550   15.7980   -2.5010 C   0  0  0  0  0  0  0  0  0  0  0  0
    2.4551   18.1184   -1.5391 H   0  0  0  0  0  0  0  0  0  0  0  0
    2.6091   17.2320   -3.0938 H   0  0  0  0  0  0  0  0  0  0  0  0
    2.4061   19.0168   -3.0938 H   0  0  0  0  0  0  0  0  0  0  0  0
    0.2258   18.5498   -3.4489 H   0  0  0  0  0  0  0  0  0  0  0  0
   -0.1571   19.4579   -1.3451 H   0  0  0  0  0  0  0  0  0  0  0  0
   -1.0571   17.8671   -1.2924 H   0  0  0  0  0  0  0  0  0  0  0  0
   -0.0069   17.4266    0.6098 H   0  0  0  0  0  0  0  0  0  0  0  0
    1.5148   17.2903   -0.3660 H   0  0  0  0  0  0  0  0  0  0  0  0
    0.3412   19.2548    1.2350 H   0  0  0  0  0  0  0  0  0  0  0  0
    4.1095   17.7459    1.5974 H   0  0  0  0  0  0  0  0  0  0  0  0
    3.2091   17.4005    0.0820 H   0  0  0  0  0  0  0  0  0  0  0  0
    4.5364   18.6108    0.0820 H   0  0  0  0  0  0  0  0  0  0  0  0
    2.9174   19.7158    3.0827 H   0  0  0  0  0  0  0  0  0  0  0  0
    4.1857   20.4333    2.0323 H   0  0  0  0  0  0  0  0  0  0  0  0
    2.5256   21.1193    2.0323 H   0  0  0  0  0  0  0  0  0  0  0  0
   -0.7477   16.4123   -2.4862 H   0  0  0  0  0  0  0  0  0  0  0  0
   -0.6856   16.2042   -4.8924 H   0  0  0  0  0  0  0  0  0  0  0  0
    0.9813   16.8131   -4.9791 H   0  0  0  0  0  0  0  0  0  0  0  0
    0.1956   14.0785   -5.2488 H   0  0  0  0  0  0  0  0  0  0  0  0
    1.8514   14.6062   -4.9609 H   0  0  0  0  0  0  0  0  0  0  0  0
   -1.0101   13.6254   -1.8810 H   0  0  0  0  0  0  0  0  0  0  0  0
   -1.4095   14.4477   -3.4273 H   0  0  0  0  0  0  0  0  0  0  0  0
   -0.9396   12.7139   -3.4273 H   0  0  0  0  0  0  0  0  0  0  0  0
    2.6702   13.3054   -3.0888 H   0  0  0  0  0  0  0  0  0  0  0  0
    1.0990   11.9271   -4.5934 H   0  0  0  0  0  0  0  0  0  0  0  0
    2.4477   11.1222   -3.6331 H   0  0  0  0  0  0  0  0  0  0  0  0
    0.1364    9.8594   -3.6797 H   0  0  0  0  0  0  0  0  0  0  0  0
   -0.2025   12.3880   -0.5506 H   0  0  0  0  0  0  0  0  0  0  0  0
    1.7903   10.2428    0.4116 H   0  0  0  0  0  0  0  0  0  0  0  0
    1.2072   11.6901    1.3474 H   0  0  0  0  0  0  0  0  0  0  0  0
    0.0854    9.6018    2.0559 H   0  0  0  0  0  0  0  0  0  0  0  0
   -1.0559   10.8140    1.3522 H   0  0  0  0  0  0  0  0  0  0  0  0
   -1.6249    8.6413    0.5087 H   0  0  0  0  0  0  0  0  0  0  0  0
    0.0040    7.4640   -0.7080 H   0  0  0  0  0  0  0  0  0  0  0  0
   -2.5971   10.6996   -0.0601 H   0  0  0  0  0  0  0  0  0  0  0  0
   -2.2263   11.5286   -1.6099 H   0  0  0  0  0  0  0  0  0  0  0  0
   -3.1946   10.0156   -1.6099 H   0  0  0  0  0  0  0  0  0  0  0  0
   -1.6450    7.6552   -1.6658 H   0  0  0  0  0  0  0  0  0  0  0  0
   -2.2441    8.8431   -2.8726 H   0  0  0  0  0  0  0  0  0  0  0  0
   -0.5148    8.3571   -2.8726 H   0  0  0  0  0  0  0  0  0  0  0  0
    3.3569   11.7725    0.0627 H   0  0  0  0  0  0  0  0  0  0  0  0
    3.1286   10.8778   -1.4780 H   0  0  0  0  0  0  0  0  0  0  0  0
    3.9648   12.4676   -1.4780 H   0  0  0  0  0  0  0  0  0  0  0  0
    1.5180   13.6247    0.6660 H   0  0  0  0  0  0  0  0  0  0  0  0
    2.8689   14.2663   -0.4291 H   0  0  0  0  0  0  0  0  0  0  0  0
   -0.1026   14.8244   -0.6382 H   0  0  0  0  0  0  0  0  0  0  0  0
    1.2357   15.9712   -0.2381 H   0  0  0  0  0  0  0  0  0  0  0  0
    3.1308   15.9360   -1.5189 H   0  0  0  0  0  0  0  0  0  0  0  0
    3.1912   15.0184   -3.0619 H   0  0  0  0  0  0  0  0  0  0  0  0
    2.6909   16.7436   -3.0619 H   0  0  0  0  0  0  0  0  0  0  0  0
  1  2  1  0
  2  3  1  0
  3  4  1  0
  4  5  1  0
  5  6  1  0
  6  7  1  0
  7  8  1  0
  7  9  1  0
  2 10  1  0
 10 11  1  0
 11 12  1  0
 12 13  1  0
 13 14  1  1
 13 15  1  0
 15 16  1  0
 16 17  1  0
 17 18  2  0
 18 19  1  0
 19 20  1  0
 20 21  1  0
 21 22  1  0
 22 23  1  0
 22 24  1  0
 24 25  1  0
 24 26  1  0
 19 27  1  0
 27 28  1  6
 27 29  1  0
 29 30  1  0
 30 31  1  0
 31 32  1  1
  7  5  1  0
 31 10  1  0
 31 13  1  0
 27 15  1  0
 24 18  1  0
  1 33  1  0
  1 34  1  0
  1 35  1  0
  2 36  1  6
  3 37  1  0
  3 38  1  0
  4 39  1  0
  4 40  1  0
  5 41  1  1
  8 42  1  0
  8 43  1  0
  8 44  1  0
  9 45  1  0
  9 46  1  0
  9 47  1  0
 10 48  1  1
 11 49  1  0
 11 50  1  0
 12 51  1  0
 12 52  1  0
 14 53  1  0
 14 54  1  0
 14 55  1  0
 15 56  1  6
 16 57  1  0
 16 58  1  0
 17 59  1  0
 19 60  1  1
 20 61  1  0
 20 62  1  0
 21 63  1  0
 21 64  1  0
 22 65  1  1
 23 66  1  0
 25 67  1  0
 25 68  1  0
 25 69  1  0
 26 70  1  0
 26 71  1  0
 26 72  1  0
 28 73  1  0
 28 74  1  0
 28 75  1  0
 29 76  1  0
 29 77  1  0
 30 78  1  0
 30 79  1  0
 32 80  1  0
 32 81  1  0
 32 82  1  0
M  END
>  <meeko>  (4) 
{"is_sidechain": [false], "intermolecular_energy": 2.731, "internal_energy": -0.839}

$$$$
EPH_relaxed_0001_pdb2pqr_Repair_35_r2_0001_out
     RDKit          3D

 82 86  0  0  0  0  0  0  0  0999 V2000
    2.2870   18.0850   -2.7080 C   0  0  0  0  0  0  0  0  0  0  0  0
    0.9740   17.7050   -2.0180 C   0  0  2  0  0  0  0  0  0  0  0  0
    1.0810   17.7860   -0.4820 C   0  0  0  0  0  0  0  0  0  0  0  0
    0.7040   19.1560    0.0900 C   0  0  0  0  0  0  0  0  0  0  0  0
   -0.7380   19.2090    0.4960 C   0  0  2  0  0  0  0  0  0  0  0  0
   -1.5940   18.3040   -0.2140 O   0  0  0  0  0  0  0  0  0  0  0  0
   -1.8460   19.7040   -0.4140 C   0  0  0  0  0  0  0  0  0  0  0  0
   -1.5600   20.1820   -1.8030 C   0  0  0  0  0  0  0  0  0  0  0  0
   -3.1220   20.1820    0.2060 C   0  0  0  0  0  0  0  0  0  0  0  0
    0.5530   16.3020   -2.4380 C   0  0  1  0  0  0  0  0  0  0  0  0
    0.6390   16.0860   -3.9720 C   0  0  0  0  0  0  0  0  0  0  0  0
    1.0710   14.6140   -4.1930 C   0  0  0  0  0  0  0  0  0  0  0  0
    0.8980   13.9440   -2.8100 C   0  0  1  0  0  0  0  0  0  0  0  0
   -0.6250   13.6150   -2.7120 C   0  0  0  0  0  0  0  0  0  0  0  0
    1.7800   12.6820   -2.5370 C   0  0  2  0  0  0  0  0  0  0  0  0
    1.5160   11.4880   -3.4700 C   0  0  0  0  0  0  0  0  0  0  0  0
    0.4820   10.5220   -2.9930 C   0  0  0  0  0  0  0  0  0  0  0  0
   -0.0020   10.4510   -1.7390 C   0  0  0  0  0  0  0  0  0  0  0  0
    0.5660   11.3380   -0.6240 C   0  0  1  0  0  0  0  0  0  0  0  0
    0.8250   10.4780    0.6410 C   0  0  0  0  0  0  0  0  0  0  0  0
   -0.4120    9.7030    1.0850 C   0  0  0  0  0  0  0  0  0  0  0  0
   -0.9120    8.7890   -0.0310 C   0  0  2  0  0  0  0  0  0  0  0  0
    0.0610    7.7650   -0.2580 O   0  0  0  0  0  0  0  0  0  0  0  0
   -1.1980    9.5430   -1.3590 C   0  0  0  0  0  0  0  0  0  0  0  0
   -2.4520   10.4370   -1.1910 C   0  0  0  0  0  0  0  0  0  0  0  0
   -1.5590    8.4880   -2.4390 C   0  0  0  0  0  0  0  0  0  0  0  0
    1.8180   12.2340   -1.0200 C   0  0  1  0  0  0  0  0  0  0  0  0
    3.1350   11.4210   -0.8290 C   0  0  0  0  0  0  0  0  0  0  0  0
    1.9050   13.4590   -0.0360 C   0  0  0  0  0  0  0  0  0  0  0  0
    1.1060   14.7190   -0.4220 C   0  0  0  0  0  0  0  0  0  0  0  0
    1.3760   15.1150   -1.8760 C   0  0  2  0  0  0  0  0  0  0  0  0
    2.8960   15.4730   -2.0010 C   0  0  0  0  0  0  0  0  0  0  0  0
    3.0503   18.3059   -1.9474 H   0  0  0  0  0  0  0  0  0  0  0  0
    2.6266   17.2483   -3.3361 H   0  0  0  0  0  0  0  0  0  0  0  0
    2.1273   18.9738   -3.3361 H   0  0  0  0  0  0  0  0  0  0  0  0
    0.2113   18.4318   -2.3344 H   0  0  0  0  0  0  0  0  0  0  0  0
    0.4095   17.0312   -0.0468 H   0  0  0  0  0  0  0  0  0  0  0  0
    2.1354   17.6087   -0.2234 H   0  0  0  0  0  0  0  0  0  0  0  0
    1.3302   19.3591    0.9712 H   0  0  0  0  0  0  0  0  0  0  0  0
    0.8681   19.9115   -0.6925 H   0  0  0  0  0  0  0  0  0  0  0  0
   -0.4616   19.4663    1.5291 H   0  0  0  0  0  0  0  0  0  0  0  0
   -0.9957   21.1251   -1.7573 H   0  0  0  0  0  0  0  0  0  0  0  0
   -0.9663   19.4250   -2.3363 H   0  0  0  0  0  0  0  0  0  0  0  0
   -2.5078   20.3473   -2.3363 H   0  0  0  0  0  0  0  0  0  0  0  0
   -3.0323   20.1484    1.3018 H   0  0  0  0  0  0  0  0  0  0  0  0
   -3.3206   21.2155   -0.1141 H   0  0  0  0  0  0  0  0  0  0  0  0
   -3.9507   19.5333   -0.1141 H   0  0  0  0  0  0  0  0  0  0  0  0
   -0.4660   16.2835   -2.0240 H   0  0  0  0  0  0  0  0  0  0  0  0
   -0.3421   16.2665   -4.4355 H   0  0  0  0  0  0  0  0  0  0  0  0
    1.3584   16.7815   -4.4290 H   0  0  0  0  0  0  0  0  0  0  0  0
    0.4281   14.1291   -4.9424 H   0  0  0  0  0  0  0  0  0  0  0  0
    2.1017   14.5340   -4.5689 H   0  0  0  0  0  0  0  0  0  0  0  0
   -0.9191   13.5515   -1.6539 H   0  0  0  0  0  0  0  0  0  0  0  0
   -1.2042   14.4088   -3.2065 H   0  0  0  0  0  0  0  0  0  0  0  0
   -0.8249   12.6530   -3.2065 H   0  0  0  0  0  0  0  0  0  0  0  0
    2.7892   13.0398   -2.7889 H   0  0  0  0  0  0  0  0  0  0  0  0
    1.1889   11.8829   -4.4432 H   0  0  0  0  0  0  0  0  0  0  0  0
    2.4596   10.9247   -3.5177 H   0  0  0  0  0  0  0  0  0  0  0  0
    0.0822    9.8083   -3.7284 H   0  0  0  0  0  0  0  0  0  0  0  0
   -0.2071   12.0910   -0.4114 H   0  0  0  0  0  0  0  0  0  0  0  0
    1.6301    9.7613    0.4214 H   0  0  0  0  0  0  0  0  0  0  0  0
    1.1023   11.1606    1.4578 H   0  0  0  0  0  0  0  0  0  0  0  0
   -0.1581    9.0924    1.9640 H   0  0  0  0  0  0  0  0  0  0  0  0
   -1.2068   10.4219    1.3331 H   0  0  0  0  0  0  0  0  0  0  0  0
   -1.8703    8.3605    0.2977 H   0  0  0  0  0  0  0  0  0  0  0  0
   -0.1250    7.0390    0.3610 H   0  0  0  0  0  0  0  0  0  0  0  0
   -2.6572   10.5833   -0.1203 H   0  0  0  0  0  0  0  0  0  0  0  0
   -2.2732   11.4126   -1.6667 H   0  0  0  0  0  0  0  0  0  0  0  0
   -3.3160    9.9499   -1.6667 H   0  0  0  0  0  0  0  0  0  0  0  0
   -1.8779    7.5561   -1.9491 H   0  0  0  0  0  0  0  0  0  0  0  0
   -2.3772    8.8709   -3.0666 H   0  0  0  0  0  0  0  0  0  0  0  0
   -0.6777    8.2894   -3.0666 H   0  0  0  0  0  0  0  0  0  0  0  0
    3.3366   11.2966    0.2452 H   0  0  0  0  0  0  0  0  0  0  0  0
    3.0269   10.4322   -1.2987 H   0  0  0  0  0  0  0  0  0  0  0  0
    3.9705   11.9607   -1.2987 H   0  0  0  0  0  0  0  0  0  0  0  0
    1.5421   13.1229    0.9465 H   0  0  0  0  0  0  0  0  0  0  0  0
    2.9599   13.7699   -0.0564 H   0  0  0  0  0  0  0  0  0  0  0  0
    0.0320   14.5161   -0.2978 H   0  0  0  0  0  0  0  0  0  0  0  0
    1.4195   15.5468    0.2310 H   0  0  0  0  0  0  0  0  0  0  0  0
    3.3323   15.5758   -0.9965 H   0  0  0  0  0  0  0  0  0  0  0  0
    3.4174   14.6731   -2.5471 H   0  0  0  0  0  0  0  0  0  0  0  0
    3.0056   16.4215   -2.5471 H   0  0  0  0  0  0  0  0  0  0  0  0
  1  2  1  0
  2  3  1  0
  3  4  1  0
  4  5  1  0
  5  6  1  0
  6  7  1  0
  7  8  1  0
  7  9  1  0
  2 10  1  0
 10 11  1  0
 11 12  1  0
 12 13  1  0
 13 14  1  1
 13 15  1  0
 15 16  1  0
 16 17  1  0
 17 18  2  0
 18 19  1  0
 19 20  1  0
 20 21  1  0
 21 22  1  0
 22 23  1  0
 22 24  1  0
 24 25  1  0
 24 26  1  0
 19 27  1  0
 27 28  1  6
 27 29  1  0
 29 30  1  0
 30 31  1  0
 31 32  1  1
  7  5  1  0
 31 10  1  0
 31 13  1  0
 27 15  1  0
 24 18  1  0
  1 33  1  0
  1 34  1  0
  1 35  1  0
  2 36  1  6
  3 37  1  0
  3 38  1  0
  4 39  1  0
  4 40  1  0
  5 41  1  1
  8 42  1  0
  8 43  1  0
  8 44  1  0
  9 45  1  0
  9 46  1  0
  9 47  1  0
 10 48  1  1
 11 49  1  0
 11 50  1  0
 12 51  1  0
 12 52  1  0
 14 53  1  0
 14 54  1  0
 14 55  1  0
 15 56  1  6
 16 57  1  0
 16 58  1  0
 17 59  1  0
 19 60  1  1
 20 61  1  0
 20 62  1  0
 21 63  1  0
 21 64  1  0
 22 65  1  1
 23 66  1  0
 25 67  1  0
 25 68  1  0
 25 69  1  0
 26 70  1  0
 26 71  1  0
 26 72  1  0
 28 73  1  0
 28 74  1  0
 28 75  1  0
 29 76  1  0
 29 77  1  0
 30 78  1  0
 30 79  1  0
 32 80  1  0
 32 81  1  0
 32 82  1  0
M  END
>  <meeko>  (5) 
{"is_sidechain": [false], "intermolecular_energy": 2.731, "internal_energy": -0.839}

$$$$
EPH_relaxed_0001_pdb2pqr_Repair_35_r2_0001_out
     RDKit          3D

 82 86  0  0  0  0  0  0  0  0999 V2000
    3.8060   17.9530    0.6880 C   0  0  0  0  0  0  0  0  0  0  0  0
    2.7280   18.4190   -0.2950 C   0  0  2  0  0  0  0  0  0  0  0  0
    1.9970   19.6830    0.2010 C   0  0  0  0  0  0  0  0  0  0  0  0
    0.7490   19.3840    1.0370 C   0  0  0  0  0  0  0  0  0  0  0  0
   -0.4710   20.0380    0.4640 C   0  0  2  0  0  0  0  0  0  0  0  0
   -1.5630   20.1760    1.3820 O   0  0  0  0  0  0  0  0  0  0  0  0
   -1.7880   19.3140    0.2540 C   0  0  0  0  0  0  0  0  0  0  0  0
   -1.9510   17.8710    0.6140 C   0  0  0  0  0  0  0  0  0  0  0  0
   -2.7580   19.8680   -0.7430 C   0  0  0  0  0  0  0  0  0  0  0  0
    1.7250   17.2980   -0.5360 C   0  0  1  0  0  0  0  0  0  0  0  0
    0.5280   17.7460   -1.4160 C   0  0  0  0  0  0  0  0  0  0  0  0
    0.1300   16.5260   -2.2860 C   0  0  0  0  0  0  0  0  0  0  0  0
    0.8800   15.3320   -1.6500 C   0  0  1  0  0  0  0  0  0  0  0  0
    0.0010   14.9100   -0.4310 C   0  0  0  0  0  0  0  0  0  0  0  0
    1.1790   14.1220   -2.5930 C   0  0  2  0  0  0  0  0  0  0  0  0
   -0.0650   13.4130   -3.1580 C   0  0  0  0  0  0  0  0  0  0  0  0
   -0.5830   12.2810   -2.3340 C   0  0  0  0  0  0  0  0  0  0  0  0
    0.0860   11.6670   -1.3400 C   0  0  0  0  0  0  0  0  0  0  0  0
    1.5400   12.0390   -1.0220 C   0  0  1  0  0  0  0  0  0  0  0  0
    2.3800   10.7450   -0.8550 C   0  0  0  0  0  0  0  0  0  0  0  0
    1.7840    9.7900    0.1740 C   0  0  0  0  0  0  0  0  0  0  0  0
    0.3590    9.3980   -0.2070 C   0  0  2  0  0  0  0  0  0  0  0  0
    0.4010    8.6170   -1.4050 O   0  0  0  0  0  0  0  0  0  0  0  0
   -0.5790   10.6200   -0.4120 C   0  0  0  0  0  0  0  0  0  0  0  0
   -0.8640   11.2920    0.9540 C   0  0  0  0  0  0  0  0  0  0  0  0
   -1.9440   10.0930   -0.9300 C   0  0  0  0  0  0  0  0  0  0  0  0
    2.2200   13.0850   -2.0070 C   0  0  1  0  0  0  0  0  0  0  0  0
    2.8410   12.3400   -3.2280 C   0  0  0  0  0  0  0  0  0  0  0  0
    3.4140   13.7910   -1.2630 C   0  0  0  0  0  0  0  0  0  0  0  0
    3.0740   15.0510   -0.4440 C   0  0  0  0  0  0  0  0  0  0  0  0
    2.2360   16.0320   -1.2690 C   0  0  2  0  0  0  0  0  0  0  0  0
    3.1020   16.4920   -2.4910 C   0  0  0  0  0  0  0  0  0  0  0  0
    3.4531   18.1056    1.7186 H   0  0  0  0  0  0  0  0  0  0  0  0
    4.0132   16.8850    0.5257 H   0  0  0  0  0  0  0  0  0  0  0  0
    4.7260   18.5338    0.5257 H   0  0  0  0  0  0  0  0  0  0  0  0
    3.2303   18.6774   -1.2389 H   0  0  0  0  0  0  0  0  0  0  0  0
    2.6953   20.2690    0.8167 H   0  0  0  0  0  0  0  0  0  0  0  0
    1.6623   20.2320   -0.6915 H   0  0  0  0  0  0  0  0  0  0  0  0
    0.5906   18.2958    1.0646 H   0  0  0  0  0  0  0  0  0  0  0  0
    0.9098   19.7845    2.0488 H   0  0  0  0  0  0  0  0  0  0  0  0
    0.1457   20.6562   -0.2050 H   0  0  0  0  0  0  0  0  0  0  0  0
   -1.9629   17.7653    1.7088 H   0  0  0  0  0  0  0  0  0  0  0  0
   -2.8974   17.4942    0.1989 H   0  0  0  0  0  0  0  0  0  0  0  0
   -1.1125   17.2926    0.1989 H   0  0  0  0  0  0  0  0  0  0  0  0
   -3.5952   20.3462   -0.2134 H   0  0  0  0  0  0  0  0  0  0  0  0
   -2.2503   20.6123   -1.3740 H   0  0  0  0  0  0  0  0  0  0  0  0
   -3.1411   19.0525   -1.3740 H   0  0  0  0  0  0  0  0  0  0  0  0
    1.4690   17.0529    0.5054 H   0  0  0  0  0  0  0  0  0  0  0  0
   -0.3168   18.0493   -0.7801 H   0  0  0  0  0  0  0  0  0  0  0  0
    0.8006   18.6067   -2.0444 H   0  0  0  0  0  0  0  0  0  0  0  0
   -0.9574   16.3636   -2.2529 H   0  0  0  0  0  0  0  0  0  0  0  0
    0.3910   16.6661   -3.3453 H   0  0  0  0  0  0  0  0  0  0  0  0
    0.5246   15.1614    0.5031 H   0  0  0  0  0  0  0  0  0  0  0  0
   -0.9592   15.4453   -0.4686 H   0  0  0  0  0  0  0  0  0  0  0  0
   -0.1818   13.8259   -0.4686 H   0  0  0  0  0  0  0  0  0  0  0  0
    1.6632   14.6069   -3.4535 H   0  0  0  0  0  0  0  0  0  0  0  0
   -0.8676   14.1592   -3.2533 H   0  0  0  0  0  0  0  0  0  0  0  0
    0.2446   12.9740   -4.1179 H   0  0  0  0  0  0  0  0  0  0  0  0
   -1.5969   11.9179   -2.5579 H   0  0  0  0  0  0  0  0  0  0  0  0
    1.5118   12.5918   -0.0714 H   0  0  0  0  0  0  0  0  0  0  0  0
    2.4314   10.2302   -1.8257 H   0  0  0  0  0  0  0  0  0  0  0  0
    3.3786   11.0386   -0.4992 H   0  0  0  0  0  0  0  0  0  0  0  0
    2.4050    8.8836    0.2261 H   0  0  0  0  0  0  0  0  0  0  0  0
    1.7598   10.2962    1.1503 H   0  0  0  0  0  0  0  0  0  0  0  0
   -0.0591    8.8196    0.6300 H   0  0  0  0  0  0  0  0  0  0  0  0
    1.3070    8.6590   -1.7530 H   0  0  0  0  0  0  0  0  0  0  0  0
   -0.5743   10.6090    1.7662 H   0  0  0  0  0  0  0  0  0  0  0  0
   -0.2832   12.2228    1.0330 H   0  0  0  0  0  0  0  0  0  0  0  0
   -1.9369   11.5215    1.0330 H   0  0  0  0  0  0  0  0  0  0  0  0
   -2.5893    9.8439   -0.0747 H   0  0  0  0  0  0  0  0  0  0  0  0
   -2.4285   10.8687   -1.5412 H   0  0  0  0  0  0  0  0  0  0  0  0
   -1.7815    9.1930   -1.5412 H   0  0  0  0  0  0  0  0  0  0  0  0
    3.5070   11.5410   -2.8701 H   0  0  0  0  0  0  0  0  0  0  0  0
    2.0371   11.9016   -3.8376 H   0  0  0  0  0  0  0  0  0  0  0  0
    3.4169   13.0518   -3.8376 H   0  0  0  0  0  0  0  0  0  0  0  0
    3.8583   13.0567   -0.5750 H   0  0  0  0  0  0  0  0  0  0  0  0
    4.0855   14.1392   -2.0617 H   0  0  0  0  0  0  0  0  0  0  0  0
    2.5057   14.7562    0.4505 H   0  0  0  0  0  0  0  0  0  0  0  0
    4.0132   15.5469   -0.1576 H   0  0  0  0  0  0  0  0  0  0  0  0
    4.0190   16.9791   -2.1279 H   0  0  0  0  0  0  0  0  0  0  0  0
    3.3688   15.6167   -3.1015 H   0  0  0  0  0  0  0  0  0  0  0  0
    2.5262   17.2031   -3.1015 H   0  0  0  0  0  0  0  0  0  0  0  0
  1  2  1  0
  2  3  1  0
  3  4  1  0
  4  5  1  0
  5  6  1  0
  6  7  1  0
  7  8  1  0
  7  9  1  0
  2 10  1  0
 10 11  1  0
 11 12  1  0
 12 13  1  0
 13 14  1  1
 13 15  1  0
 15 16  1  0
 16 17  1  0
 17 18  2  0
 18 19  1  0
 19 20  1  0
 20 21  1  0
 21 22  1  0
 22 23  1  0
 22 24  1  0
 24 25  1  0
 24 26  1  0
 19 27  1  0
 27 28  1  6
 27 29  1  0
 29 30  1  0
 30 31  1  0
 31 32  1  6
  7  5  1  0
 31 10  1  0
 31 13  1  0
 27 15  1  0
 24 18  1  0
  1 33  1  0
  1 34  1  0
  1 35  1  0
  2 36  1  6
  3 37  1  0
  3 38  1  0
  4 39  1  0
  4 40  1  0
  5 41  1  6
  8 42  1  0
  8 43  1  0
  8 44  1  0
  9 45  1  0
  9 46  1  0
  9 47  1  0
 10 48  1  1
 11 49  1  0
 11 50  1  0
 12 51  1  0
 12 52  1  0
 14 53  1  0
 14 54  1  0
 14 55  1  0
 15 56  1  6
 16 57  1  0
 16 58  1  0
 17 59  1  0
 19 60  1  1
 20 61  1  0
 20 62  1  0
 21 63  1  0
 21 64  1  0
 22 65  1  1
 23 66  1  0
 25 67  1  0
 25 68  1  0
 25 69  1  0
 26 70  1  0
 26 71  1  0
 26 72  1  0
 28 73  1  0
 28 74  1  0
 28 75  1  0
 29 76  1  0
 29 77  1  0
 30 78  1  0
 30 79  1  0
 32 80  1  0
 32 81  1  0
 32 82  1  0
M  END
>  <meeko>  (6) 
{"is_sidechain": [false], "intermolecular_energy": 2.731, "internal_energy": -0.839}

$$$$
EPH_relaxed_0001_pdb2pqr_Repair_35_r2_0001_out
     RDKit          3D

 82 86  0  0  0  0  0  0  0  0999 V2000
    0.1310   10.4650   -3.7550 C   0  0  0  0  0  0  0  0  0  0  0  0
    1.2080   10.2790   -2.6830 C   0  0  2  0  0  0  0  0  0  0  0  0
    0.9800    9.0050   -1.8460 C   0  0  0  0  0  0  0  0  0  0  0  0
    0.2910    9.2640   -0.5040 C   0  0  0  0  0  0  0  0  0  0  0  0
   -1.1300    8.7880   -0.5090 C   0  0  2  0  0  0  0  0  0  0  0  0
   -1.7950    8.9000   -1.7750 O   0  0  0  0  0  0  0  0  0  0  0  0
   -2.3200    9.7080   -0.7090 C   0  0  0  0  0  0  0  0  0  0  0  0
   -2.1430   11.1790   -0.9150 C   0  0  0  0  0  0  0  0  0  0  0  0
   -3.6610    9.2590   -0.2180 C   0  0  0  0  0  0  0  0  0  0  0  0
    1.2500   11.5000   -1.7710 C   0  0  1  0  0  0  0  0  0  0  0  0
    2.3330   11.3840   -0.6660 C   0  0  0  0  0  0  0  0  0  0  0  0
    2.8910   12.8120   -0.4340 C   0  0  0  0  0  0  0  0  0  0  0  0
    1.8930   13.7430   -1.1610 C   0  0  1  0  0  0  0  0  0  0  0  0
    0.7020   13.9100   -0.1660 C   0  0  0  0  0  0  0  0  0  0  0  0
    2.4540   15.1260   -1.6280 C   0  0  2  0  0  0  0  0  0  0  0  0
    2.9370   16.0500   -0.4970 C   0  0  0  0  0  0  0  0  0  0  0  0
    1.9040   16.9730    0.0580 C   0  0  0  0  0  0  0  0  0  0  0  0
    0.7220   17.2610   -0.5170 C   0  0  0  0  0  0  0  0  0  0  0  0
    0.3660   16.7090   -1.9030 C   0  0  1  0  0  0  0  0  0  0  0  0
   -0.2170   17.8480   -2.7800 C   0  0  0  0  0  0  0  0  0  0  0  0
   -1.3940   18.5550   -2.1140 C   0  0  0  0  0  0  0  0  0  0  0  0
   -0.9840   19.1410   -0.7650 C   0  0  2  0  0  0  0  0  0  0  0  0
   -0.0420   20.1940   -0.9860 O   0  0  0  0  0  0  0  0  0  0  0  0
   -0.3740   18.0870    0.2010 C   0  0  0  0  0  0  0  0  0  0  0  0
   -1.4810   17.1150    0.6780 C   0  0  0  0  0  0  0  0  0  0  0  0
    0.1250   18.8330    1.4670 C   0  0  0  0  0  0  0  0  0  0  0  0
    1.5150   15.8970   -2.6430 C   0  0  1  0  0  0  0  0  0  0  0  0
    2.4290   16.8760   -3.4400 C   0  0  0  0  0  0  0  0  0  0  0  0
    0.8620   14.9340   -3.7040 C   0  0  0  0  0  0  0  0  0  0  0  0
    0.4390   13.5380   -3.2080 C   0  0  0  0  0  0  0  0  0  0  0  0
    1.5720   12.8670   -2.4260 C   0  0  2  0  0  0  0  0  0  0  0  0
    2.7760   12.6650   -3.4080 C   0  0  0  0  0  0  0  0  0  0  0  0
   -0.8426   10.6331   -3.2714 H   0  0  0  0  0  0  0  0  0  0  0  0
    0.3837   11.3328   -4.3820 H   0  0  0  0  0  0  0  0  0  0  0  0
    0.0780    9.5627   -4.3820 H   0  0  0  0  0  0  0  0  0  0  0  0
    2.1727   10.1668   -3.1994 H   0  0  0  0  0  0  0  0  0  0  0  0
    0.3543    8.3137   -2.4296 H   0  0  0  0  0  0  0  0  0  0  0  0
    1.9723    8.5865   -1.6218 H   0  0  0  0  0  0  0  0  0  0  0  0
    0.8415    8.7342    0.2874 H   0  0  0  0  0  0  0  0  0  0  0  0
    0.2883   10.3492   -0.3240 H   0  0  0  0  0  0  0  0  0  0  0  0
   -0.9034    8.0303    0.2556 H   0  0  0  0  0  0  0  0  0  0  0  0
   -2.0826   11.6814    0.0617 H   0  0  0  0  0  0  0  0  0  0  0  0
   -1.2164   11.3614   -1.4791 H   0  0  0  0  0  0  0  0  0  0  0  0
   -2.9999   11.5760   -1.4791 H   0  0  0  0  0  0  0  0  0  0  0  0
   -3.6669    9.2570    0.8820 H   0  0  0  0  0  0  0  0  0  0  0  0
   -4.4359    9.9467   -0.5876 H   0  0  0  0  0  0  0  0  0  0  0  0
   -3.8656    8.2433   -0.5876 H   0  0  0  0  0  0  0  0  0  0  0  0
    0.2123   11.4923   -1.4062 H   0  0  0  0  0  0  0  0  0  0  0  0
    1.8873   10.9962    0.2619 H   0  0  0  0  0  0  0  0  0  0  0  0
    3.1328   10.6920   -0.9683 H   0  0  0  0  0  0  0  0  0  0  0  0
    2.9275   13.0450    0.6404 H   0  0  0  0  0  0  0  0  0  0  0  0
    3.9181   12.9252   -0.8112 H   0  0  0  0  0  0  0  0  0  0  0  0
    1.0769   13.8574    0.8668 H   0  0  0  0  0  0  0  0  0  0  0  0
    0.2196   14.8846   -0.3318 H   0  0  0  0  0  0  0  0  0  0  0  0
   -0.0298   13.1057   -0.3318 H   0  0  0  0  0  0  0  0  0  0  0  0
    3.3580   14.8379   -2.1846 H   0  0  0  0  0  0  0  0  0  0  0  0
    3.3044   15.4177    0.3247 H   0  0  0  0  0  0  0  0  0  0  0  0
    3.7124   16.6925   -0.9396 H   0  0  0  0  0  0  0  0  0  0  0  0
    2.1279   17.4593    1.0189 H   0  0  0  0  0  0  0  0  0  0  0  0
   -0.3998   15.9375   -1.7348 H   0  0  0  0  0  0  0  0  0  0  0  0
    0.5755   18.5865   -2.9715 H   0  0  0  0  0  0  0  0  0  0  0  0
   -0.5835   17.3964   -3.7136 H   0  0  0  0  0  0  0  0  0  0  0  0
   -1.7436   19.3672   -2.7684 H   0  0  0  0  0  0  0  0  0  0  0  0
   -2.1974   17.8219   -1.9495 H   0  0  0  0  0  0  0  0  0  0  0  0
   -1.8955   19.5201   -0.2798 H   0  0  0  0  0  0  0  0  0  0  0  0
    0.6810   19.8330   -1.5280 H   0  0  0  0  0  0  0  0  0  0  0  0
   -1.5031   17.0956    1.7776 H   0  0  0  0  0  0  0  0  0  0  0  0
   -2.4558   17.4543    0.2976 H   0  0  0  0  0  0  0  0  0  0  0  0
   -1.2706   16.1045    0.2976 H   0  0  0  0  0  0  0  0  0  0  0  0
   -0.2275   18.3060    2.3659 H   0  0  0  0  0  0  0  0  0  0  0  0
    1.2246   18.8615    1.4662 H   0  0  0  0  0  0  0  0  0  0  0  0
   -0.2684   19.8602    1.4662 H   0  0  0  0  0  0  0  0  0  0  0  0
    3.0059   17.4940   -2.7363 H   0  0  0  0  0  0  0  0  0  0  0  0
    3.1196   16.2996   -4.0731 H   0  0  0  0  0  0  0  0  0  0  0  0
    1.8066   17.5254   -4.0731 H   0  0  0  0  0  0  0  0  0  0  0  0
   -0.0355   15.4330   -4.0984 H   0  0  0  0  0  0  0  0  0  0  0  0
    1.6508   14.7482   -4.4478 H   0  0  0  0  0  0  0  0  0  0  0  0
   -0.4390   13.6397   -2.5532 H   0  0  0  0  0  0  0  0  0  0  0  0
    0.1982   12.9139   -4.0812 H   0  0  0  0  0  0  0  0  0  0  0  0
    3.6988   12.5102   -2.8297 H   0  0  0  0  0  0  0  0  0  0  0  0
    2.5886   11.7857   -4.0419 H   0  0  0  0  0  0  0  0  0  0  0  0
    2.8859   13.5573   -4.0419 H   0  0  0  0  0  0  0  0  0  0  0  0
  1  2  1  0
  2  3  1  0
  3  4  1  0
  4  5  1  0
  5  6  1  0
  6  7  1  0
  7  8  1  0
  7  9  1  0
  2 10  1  0
 10 11  1  0
 11 12  1  0
 12 13  1  0
 13 14  1  1
 13 15  1  0
 15 16  1  0
 16 17  1  0
 17 18  2  0
 18 19  1  0
 19 20  1  0
 20 21  1  0
 21 22  1  0
 22 23  1  0
 22 24  1  0
 24 25  1  0
 24 26  1  0
 19 27  1  0
 27 28  1  6
 27 29  1  0
 29 30  1  0
 30 31  1  0
 31 32  1  6
  7  5  1  0
 31 10  1  0
 31 13  1  0
 27 15  1  0
 24 18  1  0
  1 33  1  0
  1 34  1  0
  1 35  1  0
  2 36  1  6
  3 37  1  0
  3 38  1  0
  4 39  1  0
  4 40  1  0
  5 41  1  1
  8 42  1  0
  8 43  1  0
  8 44  1  0
  9 45  1  0
  9 46  1  0
  9 47  1  0
 10 48  1  1
 11 49  1  0
 11 50  1  0
 12 51  1  0
 12 52  1  0
 14 53  1  0
 14 54  1  0
 14 55  1  0
 15 56  1  6
 16 57  1  0
 16 58  1  0
 17 59  1  0
 19 60  1  1
 20 61  1  0
 20 62  1  0
 21 63  1  0
 21 64  1  0
 22 65  1  1
 23 66  1  0
 25 67  1  0
 25 68  1  0
 25 69  1  0
 26 70  1  0
 26 71  1  0
 26 72  1  0
 28 73  1  0
 28 74  1  0
 28 75  1  0
 29 76  1  0
 29 77  1  0
 30 78  1  0
 30 79  1  0
 32 80  1  0
 32 81  1  0
 32 82  1  0
M  END
>  <meeko>  (7) 
{"is_sidechain": [false], "intermolecular_energy": 2.731, "internal_energy": -0.839}

$$$$
EPH_relaxed_0001_pdb2pqr_Repair_35_r2_0001_out
     RDKit          3D

 82 86  0  0  0  0  0  0  0  0999 V2000
   -5.1530    5.8380   -1.8380 C   0  0  0  0  0  0  0  0  0  0  0  0
   -5.4660    7.3370   -1.8540 C   0  0  2  0  0  0  0  0  0  0  0  0
   -5.2460    7.9910   -0.4750 C   0  0  0  0  0  0  0  0  0  0  0  0
   -4.2190    9.1260   -0.4890 C   0  0  0  0  0  0  0  0  0  0  0  0
   -2.8440    8.6250   -0.8130 C   0  0  2  0  0  0  0  0  0  0  0  0
   -1.8390    8.9720    0.1490 O   0  0  0  0  0  0  0  0  0  0  0  0
   -1.6830    9.5370   -1.1630 C   0  0  0  0  0  0  0  0  0  0  0  0
   -1.8440   11.0240   -1.2090 C   0  0  0  0  0  0  0  0  0  0  0  0
   -0.5320    8.9660   -1.9320 C   0  0  0  0  0  0  0  0  0  0  0  0
   -6.9010    7.5640   -2.3160 C   0  0  1  0  0  0  0  0  0  0  0  0
   -7.2130    6.8600   -3.6640 C   0  0  0  0  0  0  0  0  0  0  0  0
   -8.6890    6.3910   -3.5920 C   0  0  0  0  0  0  0  0  0  0  0  0
   -9.2710    7.1210   -2.3590 C   0  0  1  0  0  0  0  0  0  0  0  0
   -9.6200    8.5540   -2.8700 C   0  0  0  0  0  0  0  0  0  0  0  0
  -10.4970    6.4410   -1.6680 C   0  0  2  0  0  0  0  0  0  0  0  0
  -11.7530    6.3120   -2.5460 C   0  0  0  0  0  0  0  0  0  0  0  0
  -12.7050    7.4610   -2.4700 C   0  0  0  0  0  0  0  0  0  0  0  0
  -12.7040    8.4150   -1.5210 C   0  0  0  0  0  0  0  0  0  0  0  0
  -11.7360    8.3440   -0.3330 C   0  0  1  0  0  0  0  0  0  0  0  0
  -12.5080    8.6330    0.9810 C   0  0  0  0  0  0  0  0  0  0  0  0
  -13.2750    9.9510    0.9320 C   0  0  0  0  0  0  0  0  0  0  0  0
  -14.2680    9.9610   -0.2280 C   0  0  2  0  0  0  0  0  0  0  0  0
  -15.2870    8.9900    0.0290 O   0  0  0  0  0  0  0  0  0  0  0  0
  -13.6060    9.6710   -1.6040 C   0  0  0  0  0  0  0  0  0  0  0  0
  -12.7250   10.8750   -2.0220 C   0  0  0  0  0  0  0  0  0  0  0  0
  -14.7340    9.5700   -2.6650 C   0  0  0  0  0  0  0  0  0  0  0  0
  -10.8460    7.0300   -0.2410 C   0  0  1  0  0  0  0  0  0  0  0  0
  -11.6220    5.9150    0.5240 C   0  0  0  0  0  0  0  0  0  0  0  0
   -9.5590    7.3400    0.6100 C   0  0  0  0  0  0  0  0  0  0  0  0
   -8.3410    7.8990   -0.1500 C   0  0  0  0  0  0  0  0  0  0  0  0
   -8.0340    7.0540   -1.3910 C   0  0  2  0  0  0  0  0  0  0  0  0
   -7.6580    5.6120   -0.9070 C   0  0  0  0  0  0  0  0  0  0  0  0
   -5.0803    5.4897   -0.7971 H   0  0  0  0  0  0  0  0  0  0  0  0
   -5.9561    5.2902   -2.3527 H   0  0  0  0  0  0  0  0  0  0  0  0
   -4.1978    5.6574   -2.3527 H   0  0  0  0  0  0  0  0  0  0  0  0
   -4.7691    7.8129   -2.5596 H   0  0  0  0  0  0  0  0  0  0  0  0
   -6.2070    8.3965   -0.1257 H   0  0  0  0  0  0  0  0  0  0  0  0
   -4.8527    7.2098    0.1922 H   0  0  0  0  0  0  0  0  0  0  0  0
   -4.5163    9.8665   -1.2461 H   0  0  0  0  0  0  0  0  0  0  0  0
   -4.1923    9.5769    0.5140 H   0  0  0  0  0  0  0  0  0  0  0  0
   -3.2587    7.7351   -1.3091 H   0  0  0  0  0  0  0  0  0  0  0  0
   -1.8869   11.4201   -0.1837 H   0  0  0  0  0  0  0  0  0  0  0  0
   -0.9888   11.4692   -1.7386 H   0  0  0  0  0  0  0  0  0  0  0  0
   -2.7747   11.2758   -1.7386 H   0  0  0  0  0  0  0  0  0  0  0  0
    0.2270    8.5895   -1.2304 H   0  0  0  0  0  0  0  0  0  0  0  0
   -0.8879    8.1399   -2.5652 H   0  0  0  0  0  0  0  0  0  0  0  0
   -0.0896    9.7491   -2.5652 H   0  0  0  0  0  0  0  0  0  0  0  0
   -6.9115    8.6633   -2.3536 H   0  0  0  0  0  0  0  0  0  0  0  0
   -7.0794    7.5637   -4.4988 H   0  0  0  0  0  0  0  0  0  0  0  0
   -6.5359    6.0095   -3.8316 H   0  0  0  0  0  0  0  0  0  0  0  0
   -9.2322    6.6770   -4.5047 H   0  0  0  0  0  0  0  0  0  0  0  0
   -8.7755    5.2976   -3.5085 H   0  0  0  0  0  0  0  0  0  0  0  0
   -9.7823    9.2205   -2.0101 H   0  0  0  0  0  0  0  0  0  0  0  0
   -8.7892    8.9382   -3.4800 H   0  0  0  0  0  0  0  0  0  0  0  0
  -10.5345    8.5132   -3.4800 H   0  0  0  0  0  0  0  0  0  0  0  0
  -10.1378    5.4134   -1.5097 H   0  0  0  0  0  0  0  0  0  0  0  0
  -11.4277    6.2086   -3.5917 H   0  0  0  0  0  0  0  0  0  0  0  0
  -12.3010    5.4369   -2.1668 H   0  0  0  0  0  0  0  0  0  0  0  0
  -13.4712    7.5332   -3.2560 H   0  0  0  0  0  0  0  0  0  0  0  0
  -10.9846    9.1286   -0.5055 H   0  0  0  0  0  0  0  0  0  0  0  0
  -13.2227    7.8156    1.1570 H   0  0  0  0  0  0  0  0  0  0  0  0
  -11.7692    8.7070    1.7926 H   0  0  0  0  0  0  0  0  0  0  0  0
  -13.8231   10.0840    1.8764 H   0  0  0  0  0  0  0  0  0  0  0  0
  -12.5561   10.7707    0.7862 H   0  0  0  0  0  0  0  0  0  0  0  0
  -14.6912   10.9744   -0.2907 H   0  0  0  0  0  0  0  0  0  0  0  0
  -14.9450    8.1240   -0.2480 H   0  0  0  0  0  0  0  0  0  0  0  0
  -12.3513   11.3857   -1.1223 H   0  0  0  0  0  0  0  0  0  0  0  0
  -11.8743   10.5167   -2.6202 H   0  0  0  0  0  0  0  0  0  0  0  0
  -13.3239   11.5774   -2.6202 H   0  0  0  0  0  0  0  0  0  0  0  0
  -15.7067    9.4829   -2.1588 H   0  0  0  0  0  0  0  0  0  0  0  0
  -14.7275   10.4723   -3.2941 H   0  0  0  0  0  0  0  0  0  0  0  0
  -14.5673    8.6832   -3.2941 H   0  0  0  0  0  0  0  0  0  0  0  0
  -11.5138    6.0705    1.6076 H   0  0  0  0  0  0  0  0  0  0  0  0
  -12.6870    5.9570    0.2521 H   0  0  0  0  0  0  0  0  0  0  0  0
  -11.2127    4.9309    0.2521 H   0  0  0  0  0  0  0  0  0  0  0  0
   -9.8378    8.0757    1.3788 H   0  0  0  0  0  0  0  0  0  0  0  0
   -9.2314    6.3656    1.0013 H   0  0  0  0  0  0  0  0  0  0  0  0
   -8.5545    8.9321   -0.4618 H   0  0  0  0  0  0  0  0  0  0  0  0
   -7.4676    7.8713    0.5181 H   0  0  0  0  0  0  0  0  0  0  0  0
   -7.6508    5.5845    0.1926 H   0  0  0  0  0  0  0  0  0  0  0  0
   -8.3987    4.8929   -1.2869 H   0  0  0  0  0  0  0  0  0  0  0  0
   -6.6605    5.3462   -1.2869 H   0  0  0  0  0  0  0  0  0  0  0  0
  1  2  1  0
  2  3  1  0
  3  4  1  0
  4  5  1  0
  5  6  1  0
  6  7  1  0
  7  8  1  0
  7  9  1  0
  2 10  1  0
 10 11  1  0
 11 12  1  0
 12 13  1  0
 13 14  1  6
 13 15  1  0
 15 16  1  0
 16 17  1  0
 17 18  2  0
 18 19  1  0
 19 20  1  0
 20 21  1  0
 21 22  1  0
 22 23  1  0
 22 24  1  0
 24 25  1  0
 24 26  1  0
 19 27  1  0
 27 28  1  1
 27 29  1  0
 29 30  1  0
 30 31  1  0
 31 32  1  1
  7  5  1  0
 31 10  1  0
 31 13  1  0
 27 15  1  0
 24 18  1  0
  1 33  1  0
  1 34  1  0
  1 35  1  0
  2 36  1  6
  3 37  1  0
  3 38  1  0
  4 39  1  0
  4 40  1  0
  5 41  1  6
  8 42  1  0
  8 43  1  0
  8 44  1  0
  9 45  1  0
  9 46  1  0
  9 47  1  0
 10 48  1  6
 11 49  1  0
 11 50  1  0
 12 51  1  0
 12 52  1  0
 14 53  1  0
 14 54  1  0
 14 55  1  0
 15 56  1  1
 16 57  1  0
 16 58  1  0
 17 59  1  0
 19 60  1  6
 20 61  1  0
 20 62  1  0
 21 63  1  0
 21 64  1  0
 22 65  1  6
 23 66  1  0
 25 67  1  0
 25 68  1  0
 25 69  1  0
 26 70  1  0
 26 71  1  0
 26 72  1  0
 28 73  1  0
 28 74  1  0
 28 75  1  0
 29 76  1  0
 29 77  1  0
 30 78  1  0
 30 79  1  0
 32 80  1  0
 32 81  1  0
 32 82  1  0
M  END
>  <meeko>  (8) 
{"is_sidechain": [false], "intermolecular_energy": 2.731, "internal_energy": -0.839}

$$$$
EPH_relaxed_0001_pdb2pqr_Repair_35_r2_0001_out
     RDKit          3D

 82 86  0  0  0  0  0  0  0  0999 V2000
    0.4610    8.8030   -2.3710 C   0  0  0  0  0  0  0  0  0  0  0  0
    1.1970    9.9450   -3.0770 C   0  0  2  0  0  0  0  0  0  0  0  0
    2.6990    9.9700   -2.7300 C   0  0  0  0  0  0  0  0  0  0  0  0
    3.5720   10.6030   -3.8160 C   0  0  0  0  0  0  0  0  0  0  0  0
    4.9700   10.8450   -3.3340 C   0  0  2  0  0  0  0  0  0  0  0  0
    5.5710   12.0520   -3.8210 O   0  0  0  0  0  0  0  0  0  0  0  0
    6.1840   10.8230   -4.2430 C   0  0  0  0  0  0  0  0  0  0  0  0
    6.0570   10.5510   -5.7090 C   0  0  0  0  0  0  0  0  0  0  0  0
    7.5300   10.5810   -3.6330 C   0  0  0  0  0  0  0  0  0  0  0  0
    0.5560   11.2790   -2.7140 C   0  0  1  0  0  0  0  0  0  0  0  0
   -0.8250   11.1110   -2.0270 C   0  0  0  0  0  0  0  0  0  0  0  0
   -0.9470   12.2510   -0.9830 C   0  0  0  0  0  0  0  0  0  0  0  0
    0.2050   13.2230   -1.3310 C   0  0  1  0  0  0  0  0  0  0  0  0
   -0.3380   14.0800   -2.5170 C   0  0  0  0  0  0  0  0  0  0  0  0
    0.7280   14.1200   -0.1630 C   0  0  2  0  0  0  0  0  0  0  0  0
   -0.3060   15.0970    0.4230 C   0  0  0  0  0  0  0  0  0  0  0  0
   -0.3460   16.4440   -0.2190 C   0  0  0  0  0  0  0  0  0  0  0  0
    0.6010   16.9530   -1.0300 C   0  0  0  0  0  0  0  0  0  0  0  0
    1.9040   16.1880   -1.2950 C   0  0  1  0  0  0  0  0  0  0  0  0
    3.1090   17.1550   -1.1590 C   0  0  0  0  0  0  0  0  0  0  0  0
    2.9690   18.3920   -2.0400 C   0  0  0  0  0  0  0  0  0  0  0  0
    1.6920   19.1580   -1.7060 C   0  0  2  0  0  0  0  0  0  0  0  0
    1.8090   19.6980   -0.3860 O   0  0  0  0  0  0  0  0  0  0  0  0
    0.4110   18.2830   -1.8000 C   0  0  0  0  0  0  0  0  0  0  0  0
    0.1170   17.9470   -3.2830 C   0  0  0  0  0  0  0  0  0  0  0  0
   -0.7880   19.1350   -1.3020 C   0  0  0  0  0  0  0  0  0  0  0  0
    2.1010   14.8460   -0.4670 C   0  0  1  0  0  0  0  0  0  0  0  0
    2.7530   15.1630    0.9130 C   0  0  0  0  0  0  0  0  0  0  0  0
    3.1130   13.9140   -1.2330 C   0  0  0  0  0  0  0  0  0  0  0  0
    2.5200   12.9640   -2.2910 C   0  0  0  0  0  0  0  0  0  0  0  0
    1.3240   12.1920   -1.7260 C   0  0  2  0  0  0  0  0  0  0  0  0
    1.8430   11.3030   -0.5450 C   0  0  0  0  0  0  0  0  0  0  0  0
    0.5438    8.9315   -1.2817 H   0  0  0  0  0  0  0  0  0  0  0  0
   -0.5997    8.8151   -2.6621 H   0  0  0  0  0  0  0  0  0  0  0  0
    0.9102    7.8420   -2.6621 H   0  0  0  0  0  0  0  0  0  0  0  0
    1.1116    9.7742   -4.1603 H   0  0  0  0  0  0  0  0  0  0  0  0
    2.8310   10.5434   -1.8006 H   0  0  0  0  0  0  0  0  0  0  0  0
    3.0223    8.9236   -2.6278 H   0  0  0  0  0  0  0  0  0  0  0  0
    3.6062    9.9280   -4.6839 H   0  0  0  0  0  0  0  0  0  0  0  0
    3.1307   11.5733   -4.0876 H   0  0  0  0  0  0  0  0  0  0  0  0
    4.7532   10.3413   -2.3804 H   0  0  0  0  0  0  0  0  0  0  0  0
    5.5960    9.5637   -5.8602 H   0  0  0  0  0  0  0  0  0  0  0  0
    5.4270   11.3246   -6.1722 H   0  0  0  0  0  0  0  0  0  0  0  0
    7.0546   10.5647   -6.1722 H   0  0  0  0  0  0  0  0  0  0  0  0
    7.4438   10.5965   -2.5365 H   0  0  0  0  0  0  0  0  0  0  0  0
    7.9086    9.6004   -3.9572 H   0  0  0  0  0  0  0  0  0  0  0  0
    8.2264   11.3683   -3.9572 H   0  0  0  0  0  0  0  0  0  0  0  0
    0.5248   11.7451   -3.7099 H   0  0  0  0  0  0  0  0  0  0  0  0
   -1.6307   11.1914   -2.7715 H   0  0  0  0  0  0  0  0  0  0  0  0
   -0.9099   10.1250   -1.5468 H   0  0  0  0  0  0  0  0  0  0  0  0
   -1.9206   12.7554   -1.0706 H   0  0  0  0  0  0  0  0  0  0  0  0
   -0.8818   11.8794    0.0503 H   0  0  0  0  0  0  0  0  0  0  0  0
   -0.8874   14.9470   -2.1215 H   0  0  0  0  0  0  0  0  0  0  0  0
    0.5040   14.4292   -3.1327 H   0  0  0  0  0  0  0  0  0  0  0  0
   -1.0133   13.4678   -3.1327 H   0  0  0  0  0  0  0  0  0  0  0  0
    0.9254   13.3828    0.6292 H   0  0  0  0  0  0  0  0  0  0  0  0
   -1.3016   14.6411    0.3187 H   0  0  0  0  0  0  0  0  0  0  0  0
   -0.0063   15.2667    1.4677 H   0  0  0  0  0  0  0  0  0  0  0  0
   -1.2234   17.0743   -0.0121 H   0  0  0  0  0  0  0  0  0  0  0  0
    1.8358   15.8204   -2.3295 H   0  0  0  0  0  0  0  0  0  0  0  0
    3.1865   17.4763   -0.1098 H   0  0  0  0  0  0  0  0  0  0  0  0
    4.0096   16.6137   -1.4844 H   0  0  0  0  0  0  0  0  0  0  0  0
    3.8359   19.0494   -1.8779 H   0  0  0  0  0  0  0  0  0  0  0  0
    2.9210   18.0708   -3.0910 H   0  0  0  0  0  0  0  0  0  0  0  0
    1.5824   19.9574   -2.4537 H   0  0  0  0  0  0  0  0  0  0  0  0
    1.9360   20.6580   -0.4710 H   0  0  0  0  0  0  0  0  0  0  0  0
   -0.6065   17.1201   -3.3351 H   0  0  0  0  0  0  0  0  0  0  0  0
   -0.3016   18.8326   -3.7836 H   0  0  0  0  0  0  0  0  0  0  0  0
    1.0503   17.6497   -3.7836 H   0  0  0  0  0  0  0  0  0  0  0  0
   -0.8000   19.1435   -0.2021 H   0  0  0  0  0  0  0  0  0  0  0  0
   -0.6864   20.1646   -1.6756 H   0  0  0  0  0  0  0  0  0  0  0  0
   -1.7269   18.7004   -1.6756 H   0  0  0  0  0  0  0  0  0  0  0  0
    2.0807   14.8361    1.7199 H   0  0  0  0  0  0  0  0  0  0  0  0
    3.7119   14.6306    0.9964 H   0  0  0  0  0  0  0  0  0  0  0  0
    2.9265   16.2460    0.9964 H   0  0  0  0  0  0  0  0  0  0  0  0
    3.8434   14.5618   -1.7398 H   0  0  0  0  0  0  0  0  0  0  0  0
    3.5376   13.2552   -0.4611 H   0  0  0  0  0  0  0  0  0  0  0  0
    2.1902   13.5534   -3.1593 H   0  0  0  0  0  0  0  0  0  0  0  0
    3.2950   12.2419   -2.5876 H   0  0  0  0  0  0  0  0  0  0  0  0
    1.5703   11.7701    0.4128 H   0  0  0  0  0  0  0  0  0  0  0  0
    1.3859   10.3045   -0.6093 H   0  0  0  0  0  0  0  0  0  0  0  0
    2.9372   11.2102   -0.6093 H   0  0  0  0  0  0  0  0  0  0  0  0
  1  2  1  0
  2  3  1  0
  3  4  1  0
  4  5  1  0
  5  6  1  0
  6  7  1  0
  7  8  1  0
  7  9  1  0
  2 10  1  0
 10 11  1  0
 11 12  1  0
 12 13  1  0
 13 14  1  6
 13 15  1  0
 15 16  1  0
 16 17  1  0
 17 18  2  0
 18 19  1  0
 19 20  1  0
 20 21  1  0
 21 22  1  0
 22 23  1  0
 22 24  1  0
 24 25  1  0
 24 26  1  0
 19 27  1  0
 27 28  1  1
 27 29  1  0
 29 30  1  0
 30 31  1  0
 31 32  1  1
  7  5  1  0
 31 10  1  0
 31 13  1  0
 27 15  1  0
 24 18  1  0
  1 33  1  0
  1 34  1  0
  1 35  1  0
  2 36  1  6
  3 37  1  0
  3 38  1  0
  4 39  1  0
  4 40  1  0
  5 41  1  1
  8 42  1  0
  8 43  1  0
  8 44  1  0
  9 45  1  0
  9 46  1  0
  9 47  1  0
 10 48  1  6
 11 49  1  0
 11 50  1  0
 12 51  1  0
 12 52  1  0
 14 53  1  0
 14 54  1  0
 14 55  1  0
 15 56  1  1
 16 57  1  0
 16 58  1  0
 17 59  1  0
 19 60  1  6
 20 61  1  0
 20 62  1  0
 21 63  1  0
 21 64  1  0
 22 65  1  6
 23 66  1  0
 25 67  1  0
 25 68  1  0
 25 69  1  0
 26 70  1  0
 26 71  1  0
 26 72  1  0
 28 73  1  0
 28 74  1  0
 28 75  1  0
 29 76  1  0
 29 77  1  0
 30 78  1  0
 30 79  1  0
 32 80  1  0
 32 81  1  0
 32 82  1  0
M  END
>  <meeko>  (9) 
{"is_sidechain": [false], "intermolecular_energy": 2.731, "internal_energy": -0.839}

$$$$
EPH_relaxed_0001_pdb2pqr_Repair_35_r2_0001_out
     RDKit          3D

 82 86  0  0  0  0  0  0  0  0999 V2000
    2.6120   18.7980   -2.4460 C   0  0  0  0  0  0  0  0  0  0  0  0
    1.8680   18.8690   -1.1100 C   0  0  2  0  0  0  0  0  0  0  0  0
    2.7270   19.5060    0.0010 C   0  0  0  0  0  0  0  0  0  0  0  0
    3.6470   18.5120    0.7150 C   0  0  0  0  0  0  0  0  0  0  0  0
    3.8080   18.8500    2.1660 C   0  0  2  0  0  0  0  0  0  0  0  0
    4.2510   20.1880    2.4240 O   0  0  0  0  0  0  0  0  0  0  0  0
    5.1490   19.1370    2.8150 C   0  0  0  0  0  0  0  0  0  0  0  0
    6.4210   19.0980    2.0270 C   0  0  0  0  0  0  0  0  0  0  0  0
    5.2770   18.9730    4.2970 C   0  0  0  0  0  0  0  0  0  0  0  0
    1.4230   17.4740   -0.6870 C   0  0  1  0  0  0  0  0  0  0  0  0
    0.1090   17.4900    0.1380 C   0  0  0  0  0  0  0  0  0  0  0  0
   -0.6740   16.2070   -0.2420 C   0  0  0  0  0  0  0  0  0  0  0  0
    0.3500   15.3380   -1.0100 C   0  0  1  0  0  0  0  0  0  0  0  0
    1.1990   14.6430    0.1000 C   0  0  0  0  0  0  0  0  0  0  0  0
   -0.2430   14.3010   -2.0180 C   0  0  2  0  0  0  0  0  0  0  0  0
   -1.1290   13.2120   -1.3890 C   0  0  0  0  0  0  0  0  0  0  0  0
   -0.4130   11.9720   -0.9670 C   0  0  0  0  0  0  0  0  0  0  0  0
    0.8310   11.6210   -1.3430 C   0  0  0  0  0  0  0  0  0  0  0  0
    1.6150   12.4640   -2.3580 C   0  0  1  0  0  0  0  0  0  0  0  0
    2.2550   11.5320   -3.4200 C   0  0  0  0  0  0  0  0  0  0  0  0
    3.1060   10.4310   -2.7950 C   0  0  0  0  0  0  0  0  0  0  0  0
    2.2780    9.5790   -1.8370 C   0  0  2  0  0  0  0  0  0  0  0  0
    1.2980    8.8580   -2.5900 O   0  0  0  0  0  0  0  0  0  0  0  0
    1.5760   10.4110   -0.7270 C   0  0  0  0  0  0  0  0  0  0  0  0
    2.6340   10.9460    0.2690 C   0  0  0  0  0  0  0  0  0  0  0  0
    0.6630    9.4520    0.0830 C   0  0  0  0  0  0  0  0  0  0  0  0
    0.8230   13.6780   -3.0090 C   0  0  1  0  0  0  0  0  0  0  0  0
    0.0330   13.1880   -4.2610 C   0  0  0  0  0  0  0  0  0  0  0  0
    1.8560   14.7470   -3.5260 C   0  0  0  0  0  0  0  0  0  0  0  0
    2.3120   15.8180   -2.5160 C   0  0  0  0  0  0  0  0  0  0  0  0
    1.1100   16.4560   -1.8130 C   0  0  2  0  0  0  0  0  0  0  0  0
    0.2490   17.1820   -2.9020 C   0  0  0  0  0  0  0  0  0  0  0  0
    3.6912   18.6950   -2.2597 H   0  0  0  0  0  0  0  0  0  0  0  0
    2.2544   17.9299   -3.0192 H   0  0  0  0  0  0  0  0  0  0  0  0
    2.4250   19.7181   -3.0192 H   0  0  0  0  0  0  0  0  0  0  0  0
    0.9877   19.5120   -1.2568 H   0  0  0  0  0  0  0  0  0  0  0  0
    3.3494   20.2930   -0.4497 H   0  0  0  0  0  0  0  0  0  0  0  0
    2.0326   19.9010    0.7571 H   0  0  0  0  0  0  0  0  0  0  0  0
    3.2168   17.5032    0.6295 H   0  0  0  0  0  0  0  0  0  0  0  0
    4.6379   18.5594    0.2398 H   0  0  0  0  0  0  0  0  0  0  0  0
    2.9866   18.1710    2.4387 H   0  0  0  0  0  0  0  0  0  0  0  0
    7.2783   19.0717    2.7157 H   0  0  0  0  0  0  0  0  0  0  0  0
    6.4322   18.1991    1.3931 H   0  0  0  0  0  0  0  0  0  0  0  0
    6.4873   19.9945    1.3931 H   0  0  0  0  0  0  0  0  0  0  0  0
    4.6765   19.7424    4.8043 H   0  0  0  0  0  0  0  0  0  0  0  0
    4.9163   17.9754    4.5880 H   0  0  0  0  0  0  0  0  0  0  0  0
    6.3323   19.0806    4.5880 H   0  0  0  0  0  0  0  0  0  0  0  0
    2.3165   17.1567   -0.1294 H   0  0  0  0  0  0  0  0  0  0  0  0
    0.3374   17.4895    1.2140 H   0  0  0  0  0  0  0  0  0  0  0  0
   -0.4822   18.3920   -0.0787 H   0  0  0  0  0  0  0  0  0  0  0  0
   -1.0265   15.6857    0.6602 H   0  0  0  0  0  0  0  0  0  0  0  0
   -1.5686   16.4269   -0.8432 H   0  0  0  0  0  0  0  0  0  0  0  0
    0.8277   14.9469    1.0898 H   0  0  0  0  0  0  0  0  0  0  0  0
    1.1149   13.5511   -0.0038 H   0  0  0  0  0  0  0  0  0  0  0  0
    2.2527   14.9411   -0.0038 H   0  0  0  0  0  0  0  0  0  0  0  0
   -0.9188   14.9218   -2.6245 H   0  0  0  0  0  0  0  0  0  0  0  0
   -1.6168   13.6414   -0.5015 H   0  0  0  0  0  0  0  0  0  0  0  0
   -1.8350   12.9033   -2.1740 H   0  0  0  0  0  0  0  0  0  0  0  0
   -0.9470   11.2873   -0.2918 H   0  0  0  0  0  0  0  0  0  0  0  0
    2.4037   12.9743   -1.7857 H   0  0  0  0  0  0  0  0  0  0  0  0
    1.4520   11.0653   -4.0095 H   0  0  0  0  0  0  0  0  0  0  0  0
    2.9146   12.1469   -4.0500 H   0  0  0  0  0  0  0  0  0  0  0  0
    3.5067    9.7889   -3.5932 H   0  0  0  0  0  0  0  0  0  0  0  0
    3.9255   10.8989   -2.2298 H   0  0  0  0  0  0  0  0  0  0  0  0
    2.9690    8.8931   -1.3250 H   0  0  0  0  0  0  0  0  0  0  0  0
    1.6840    8.6590   -3.4600 H   0  0  0  0  0  0  0  0  0  0  0  0
    2.2892   10.7717    1.2989 H   0  0  0  0  0  0  0  0  0  0  0  0
    3.5875   10.4217    0.1078 H   0  0  0  0  0  0  0  0  0  0  0  0
    2.7769   12.0247    0.1078 H   0  0  0  0  0  0  0  0  0  0  0  0
    0.8205    9.6174    1.1590 H   0  0  0  0  0  0  0  0  0  0  0  0
   -0.3897    9.6488   -0.1680 H   0  0  0  0  0  0  0  0  0  0  0  0
    0.9112    8.4102   -0.1680 H   0  0  0  0  0  0  0  0  0  0  0  0
   -0.8604   12.6339   -3.9371 H   0  0  0  0  0  0  0  0  0  0  0  0
   -0.2724   14.0555   -4.8645 H   0  0  0  0  0  0  0  0  0  0  0  0
    0.6744   12.5290   -4.8645 H   0  0  0  0  0  0  0  0  0  0  0  0
    2.7521   14.2068   -3.8655 H   0  0  0  0  0  0  0  0  0  0  0  0
    1.3259   15.3018   -4.3141 H   0  0  0  0  0  0  0  0  0  0  0  0
    2.9619   15.3487   -1.7628 H   0  0  0  0  0  0  0  0  0  0  0  0
    2.8575   16.6032   -3.0599 H   0  0  0  0  0  0  0  0  0  0  0  0
   -0.5036   17.8166   -2.4113 H   0  0  0  0  0  0  0  0  0  0  0  0
    0.9020   17.8062   -3.5297 H   0  0  0  0  0  0  0  0  0  0  0  0
   -0.2559   16.4329   -3.5297 H   0  0  0  0  0  0  0  0  0  0  0  0
  1  2  1  0
  2  3  1  0
  3  4  1  0
  4  5  1  0
  5  6  1  0
  6  7  1  0
  7  8  1  0
  7  9  1  0
  2 10  1  0
 10 11  1  0
 11 12  1  0
 12 13  1  0
 13 14  1  1
 13 15  1  0
 15 16  1  0
 16 17  1  0
 17 18  2  0
 18 19  1  0
 19 20  1  0
 20 21  1  0
 21 22  1  0
 22 23  1  0
 22 24  1  0
 24 25  1  0
 24 26  1  0
 19 27  1  0
 27 28  1  6
 27 29  1  0
 29 30  1  0
 30 31  1  0
 31 32  1  6
  7  5  1  0
 31 10  1  0
 31 13  1  0
 27 15  1  0
 24 18  1  0
  1 33  1  0
  1 34  1  0
  1 35  1  0
  2 36  1  6
  3 37  1  0
  3 38  1  0
  4 39  1  0
  4 40  1  0
  5 41  1  1
  8 42  1  0
  8 43  1  0
  8 44  1  0
  9 45  1  0
  9 46  1  0
  9 47  1  0
 10 48  1  1
 11 49  1  0
 11 50  1  0
 12 51  1  0
 12 52  1  0
 14 53  1  0
 14 54  1  0
 14 55  1  0
 15 56  1  6
 16 57  1  0
 16 58  1  0
 17 59  1  0
 19 60  1  1
 20 61  1  0
 20 62  1  0
 21 63  1  0
 21 64  1  0
 22 65  1  1
 23 66  1  0
 25 67  1  0
 25 68  1  0
 25 69  1  0
 26 70  1  0
 26 71  1  0
 26 72  1  0
 28 73  1  0
 28 74  1  0
 28 75  1  0
 29 76  1  0
 29 77  1  0
 30 78  1  0
 30 79  1  0
 32 80  1  0
 32 81  1  0
 32 82  1  0
M  END
>  <meeko>  (10) 
{"is_sidechain": [false], "intermolecular_energy": 2.731, "internal_energy": -0.839}

$$$$
EPH_relaxed_0001_pdb2pqr_Repair_35_r2_0001_out
     RDKit          3D

 82 86  0  0  0  0  0  0  0  0999 V2000
    0.1670   17.8110   -2.4940 C   0  0  0  0  0  0  0  0  0  0  0  0
   -0.0710   16.9190   -1.2730 C   0  0  2  0  0  0  0  0  0  0  0  0
   -0.1070   17.7270    0.0390 C   0  0  0  0  0  0  0  0  0  0  0  0
    0.5310   19.1150   -0.0750 C   0  0  0  0  0  0  0  0  0  0  0  0
    1.6900   19.2710    0.8620 C   0  0  2  0  0  0  0  0  0  0  0  0
    2.6950   20.1940    0.4230 O   0  0  0  0  0  0  0  0  0  0  0  0
    3.1000   18.8200    0.5310 C   0  0  0  0  0  0  0  0  0  0  0  0
    3.4260   18.1770   -0.7810 C   0  0  0  0  0  0  0  0  0  0  0  0
    4.0510   18.5580    1.6570 C   0  0  0  0  0  0  0  0  0  0  0  0
    1.0100   15.8470   -1.1940 C   0  0  1  0  0  0  0  0  0  0  0  0
    1.2250   15.3200    0.2490 C   0  0  0  0  0  0  0  0  0  0  0  0
    1.5690   13.8130    0.1290 C   0  0  0  0  0  0  0  0  0  0  0  0
    1.8670   13.6000   -1.3730 C   0  0  1  0  0  0  0  0  0  0  0  0
    3.3390   14.0800   -1.5630 C   0  0  0  0  0  0  0  0  0  0  0  0
    1.6580   12.1500   -1.9200 C   0  0  2  0  0  0  0  0  0  0  0  0
    2.5660   11.0780   -1.2910 C   0  0  0  0  0  0  0  0  0  0  0  0
    3.8650   10.8530   -1.9920 C   0  0  0  0  0  0  0  0  0  0  0  0
    4.1680   11.2750   -3.2340 C   0  0  0  0  0  0  0  0  0  0  0  0
    3.1160   11.9720   -4.1060 C   0  0  1  0  0  0  0  0  0  0  0  0
    3.1400   11.3630   -5.5330 C   0  0  0  0  0  0  0  0  0  0  0  0
    4.5310   11.3930   -6.1590 C   0  0  0  0  0  0  0  0  0  0  0  0
    5.5360   10.6390   -5.2910 C   0  0  2  0  0  0  0  0  0  0  0  0
    5.1970    9.2490   -5.2940 O   0  0  0  0  0  0  0  0  0  0  0  0
    5.5930   11.1600   -3.8270 C   0  0  0  0  0  0  0  0  0  0  0  0
    6.2460   12.5640   -3.7990 C   0  0  0  0  0  0  0  0  0  0  0  0
    6.5380   10.2250   -3.0250 C   0  0  0  0  0  0  0  0  0  0  0  0
    1.6500   12.0470   -3.4990 C   0  0  1  0  0  0  0  0  0  0  0  0
    0.8590   10.7510   -3.8570 C   0  0  0  0  0  0  0  0  0  0  0  0
    0.8740   13.2400   -4.1720 C   0  0  0  0  0  0  0  0  0  0  0  0
    1.0260   14.6260   -3.5150 C   0  0  0  0  0  0  0  0  0  0  0  0
    0.7820   14.5460   -2.0050 C   0  0  2  0  0  0  0  0  0  0  0  0
   -0.6990   14.0860   -1.7830 C   0  0  0  0  0  0  0  0  0  0  0  0
    0.4373   18.8239   -2.1610 H   0  0  0  0  0  0  0  0  0  0  0  0
    0.9852   17.3935   -3.0992 H   0  0  0  0  0  0  0  0  0  0  0  0
   -0.7504   17.8566   -3.0992 H   0  0  0  0  0  0  0  0  0  0  0  0
   -1.0564   16.4460   -1.3965 H   0  0  0  0  0  0  0  0  0  0  0  0
   -1.1572   17.8513    0.3416 H   0  0  0  0  0  0  0  0  0  0  0  0
    0.4793   17.1635    0.7798 H   0  0  0  0  0  0  0  0  0  0  0  0
    0.8843   19.2613   -1.1064 H   0  0  0  0  0  0  0  0  0  0  0  0
   -0.2287   19.8645    0.1916 H   0  0  0  0  0  0  0  0  0  0  0  0
    1.0417   19.0876    1.7315 H   0  0  0  0  0  0  0  0  0  0  0  0
    3.9169   17.2088   -0.6029 H   0  0  0  0  0  0  0  0  0  0  0  0
    2.4993   18.0187   -1.3521 H   0  0  0  0  0  0  0  0  0  0  0  0
    4.1014   18.8310   -1.3521 H   0  0  0  0  0  0  0  0  0  0  0  0
    3.5319   18.7010    2.6162 H   0  0  0  0  0  0  0  0  0  0  0  0
    4.4214   17.5243    1.5911 H   0  0  0  0  0  0  0  0  0  0  0  0
    4.8985   19.2561    1.5911 H   0  0  0  0  0  0  0  0  0  0  0  0
    1.8574   16.4090   -1.6135 H   0  0  0  0  0  0  0  0  0  0  0  0
    2.0536   15.8604    0.7300 H   0  0  0  0  0  0  0  0  0  0  0  0
    0.3248   15.4717    0.8628 H   0  0  0  0  0  0  0  0  0  0  0  0
    2.4506   13.5661    0.7387 H   0  0  0  0  0  0  0  0  0  0  0  0
    0.7529   13.1687    0.4881 H   0  0  0  0  0  0  0  0  0  0  0  0
    3.8051   14.2320   -0.5783 H   0  0  0  0  0  0  0  0  0  0  0  0
    3.9034   13.3194   -2.1223 H   0  0  0  0  0  0  0  0  0  0  0  0
    3.3465   15.0271   -2.1223 H   0  0  0  0  0  0  0  0  0  0  0  0
    0.6385   11.9149   -1.5803 H   0  0  0  0  0  0  0  0  0  0  0  0
    2.7857   11.3824   -0.2570 H   0  0  0  0  0  0  0  0  0  0  0  0
    2.0129   10.1299   -1.3623 H   0  0  0  0  0  0  0  0  0  0  0  0
    4.6406   10.2948   -1.4471 H   0  0  0  0  0  0  0  0  0  0  0  0
    3.4096   13.0313   -4.1470 H   0  0  0  0  0  0  0  0  0  0  0  0
    2.8015   10.3179   -5.4760 H   0  0  0  0  0  0  0  0  0  0  0  0
    2.4760   11.9699   -6.1661 H   0  0  0  0  0  0  0  0  0  0  0  0
    4.4890   10.9226   -7.1525 H   0  0  0  0  0  0  0  0  0  0  0  0
    4.8558   12.4406   -6.2431 H   0  0  0  0  0  0  0  0  0  0  0  0
    6.5342   10.8050   -5.7224 H   0  0  0  0  0  0  0  0  0  0  0  0
    5.1150    8.9640   -4.3690 H   0  0  0  0  0  0  0  0  0  0  0  0
    6.3927   12.8794   -2.7554 H   0  0  0  0  0  0  0  0  0  0  0  0
    7.2189   12.5262   -4.3108 H   0  0  0  0  0  0  0  0  0  0  0  0
    5.5902   13.2837   -4.3108 H   0  0  0  0  0  0  0  0  0  0  0  0
    6.3804   10.3810   -1.9476 H   0  0  0  0  0  0  0  0  0  0  0  0
    6.3199    9.1773   -3.2796 H   0  0  0  0  0  0  0  0  0  0  0  0
    7.5833   10.4542   -3.2796 H   0  0  0  0  0  0  0  0  0  0  0  0
    0.5491   10.2432   -2.9317 H   0  0  0  0  0  0  0  0  0  0  0  0
   -0.0316   11.0159   -4.4459 H   0  0  0  0  0  0  0  0  0  0  0  0
    1.5017   10.0800   -4.4459 H   0  0  0  0  0  0  0  0  0  0  0  0
    1.2273   13.3233   -5.2104 H   0  0  0  0  0  0  0  0  0  0  0  0
   -0.1912   12.9866   -4.0667 H   0  0  0  0  0  0  0  0  0  0  0  0
    2.0445   15.0003   -3.6957 H   0  0  0  0  0  0  0  0  0  0  0  0
    0.2823   15.3065   -3.9552 H   0  0  0  0  0  0  0  0  0  0  0  0
   -0.9053   14.0219   -0.7044 H   0  0  0  0  0  0  0  0  0  0  0  0
   -1.3822   14.8143   -2.2444 H   0  0  0  0  0  0  0  0  0  0  0  0
   -0.8494   13.0988   -2.2444 H   0  0  0  0  0  0  0  0  0  0  0  0
  1  2  1  0
  2  3  1  0
  3  4  1  0
  4  5  1  0
  5  6  1  0
  6  7  1  0
  7  8  1  0
  7  9  1  0
  2 10  1  0
 10 11  1  0
 11 12  1  0
 12 13  1  0
 13 14  1  1
 13 15  1  0
 15 16  1  0
 16 17  1  0
 17 18  2  0
 18 19  1  0
 19 20  1  0
 20 21  1  0
 21 22  1  0
 22 23  1  0
 22 24  1  0
 24 25  1  0
 24 26  1  0
 19 27  1  0
 27 28  1  1
 27 29  1  0
 29 30  1  0
 30 31  1  0
 31 32  1  6
  7  5  1  0
 31 10  1  0
 31 13  1  0
 27 15  1  0
 24 18  1  0
  1 33  1  0
  1 34  1  0
  1 35  1  0
  2 36  1  6
  3 37  1  0
  3 38  1  0
  4 39  1  0
  4 40  1  0
  5 41  1  1
  8 42  1  0
  8 43  1  0
  8 44  1  0
  9 45  1  0
  9 46  1  0
  9 47  1  0
 10 48  1  6
 11 49  1  0
 11 50  1  0
 12 51  1  0
 12 52  1  0
 14 53  1  0
 14 54  1  0
 14 55  1  0
 15 56  1  1
 16 57  1  0
 16 58  1  0
 17 59  1  0
 19 60  1  6
 20 61  1  0
 20 62  1  0
 21 63  1  0
 21 64  1  0
 22 65  1  6
 23 66  1  0
 25 67  1  0
 25 68  1  0
 25 69  1  0
 26 70  1  0
 26 71  1  0
 26 72  1  0
 28 73  1  0
 28 74  1  0
 28 75  1  0
 29 76  1  0
 29 77  1  0
 30 78  1  0
 30 79  1  0
 32 80  1  0
 32 81  1  0
 32 82  1  0
M  END
>  <meeko>  (11) 
{"is_sidechain": [false], "intermolecular_energy": 2.731, "internal_energy": -0.839}

$$$$
EPH_relaxed_0001_pdb2pqr_Repair_35_r2_0001_out
     RDKit          3D

 82 86  0  0  0  0  0  0  0  0999 V2000
    3.3880   18.4210   -2.5880 C   0  0  0  0  0  0  0  0  0  0  0  0
    2.1040   17.6060   -2.7680 C   0  0  2  0  0  0  0  0  0  0  0  0
    0.8520   18.3870   -2.3200 C   0  0  0  0  0  0  0  0  0  0  0  0
    1.0450   19.1640   -1.0150 C   0  0  0  0  0  0  0  0  0  0  0  0
   -0.1790   19.9480   -0.6500 C   0  0  2  0  0  0  0  0  0  0  0  0
   -0.3350   20.1940    0.7540 O   0  0  0  0  0  0  0  0  0  0  0  0
   -1.3380   19.3690    0.1390 C   0  0  0  0  0  0  0  0  0  0  0  0
   -1.3300   17.9480    0.6100 C   0  0  0  0  0  0  0  0  0  0  0  0
   -2.6780   20.0290    0.0300 C   0  0  0  0  0  0  0  0  0  0  0  0
    2.2060   16.2980   -1.9920 C   0  0  1  0  0  0  0  0  0  0  0  0
    2.5720   16.5150   -0.4990 C   0  0  0  0  0  0  0  0  0  0  0  0
    1.8240   15.4230    0.3080 C   0  0  0  0  0  0  0  0  0  0  0  0
    1.3260   14.4210   -0.7590 C   0  0  1  0  0  0  0  0  0  0  0  0
    2.5610   13.5210   -1.0720 C   0  0  0  0  0  0  0  0  0  0  0  0
    0.0730   13.5690   -0.3740 C   0  0  2  0  0  0  0  0  0  0  0  0
    0.2660   12.6330    0.8320 C   0  0  0  0  0  0  0  0  0  0  0  0
    0.7500   11.2600    0.5020 C   0  0  0  0  0  0  0  0  0  0  0  0
    0.7490   10.7030   -0.7230 C   0  0  0  0  0  0  0  0  0  0  0  0
    0.1330   11.4370   -1.9220 C   0  0  1  0  0  0  0  0  0  0  0  0
   -0.7700   10.4600   -2.7190 C   0  0  0  0  0  0  0  0  0  0  0  0
   -0.0360    9.1870   -3.1290 C   0  0  0  0  0  0  0  0  0  0  0  0
    0.5110    8.4550   -1.9070 C   0  0  2  0  0  0  0  0  0  0  0  0
   -0.5880    7.9720   -1.1280 O   0  0  0  0  0  0  0  0  0  0  0  0
    1.4280    9.3430   -1.0200 C   0  0  0  0  0  0  0  0  0  0  0  0
    2.7610    9.6180   -1.7610 C   0  0  0  0  0  0  0  0  0  0  0  0
    1.7980    8.5300    0.2500 C   0  0  0  0  0  0  0  0  0  0  0  0
   -0.5950   12.8110   -1.5930 C   0  0  1  0  0  0  0  0  0  0  0  0
   -2.0780   12.5450   -1.1930 C   0  0  0  0  0  0  0  0  0  0  0  0
   -0.6370   13.6950   -2.8960 C   0  0  0  0  0  0  0  0  0  0  0  0
    0.5780   14.6050   -3.1580 C   0  0  0  0  0  0  0  0  0  0  0  0
    0.9330   15.4180   -1.9100 C   0  0  2  0  0  0  0  0  0  0  0  0
   -0.2830   16.3500   -1.5830 C   0  0  0  0  0  0  0  0  0  0  0  0
    3.5925   18.5508   -1.5150 H   0  0  0  0  0  0  0  0  0  0  0  0
    4.2282   17.8905   -3.0599 H   0  0  0  0  0  0  0  0  0  0  0  0
    3.2656   19.4071   -3.0599 H   0  0  0  0  0  0  0  0  0  0  0  0
    1.9945   17.3946   -3.8419 H   0  0  0  0  0  0  0  0  0  0  0  0
    0.5860   19.1012   -3.1132 H   0  0  0  0  0  0  0  0  0  0  0  0
    0.0592   17.6464   -2.1387 H   0  0  0  0  0  0  0  0  0  0  0  0
    1.2669   18.4524   -0.2060 H   0  0  0  0  0  0  0  0  0  0  0  0
    1.8754   19.8713   -1.1569 H   0  0  0  0  0  0  0  0  0  0  0  0
   -0.1366   20.5023   -1.5992 H   0  0  0  0  0  0  0  0  0  0  0  0
   -1.3299   17.9262    1.7098 H   0  0  0  0  0  0  0  0  0  0  0  0
   -2.2253   17.4318    0.2331 H   0  0  0  0  0  0  0  0  0  0  0  0
   -0.4290   17.4419    0.2331 H   0  0  0  0  0  0  0  0  0  0  0  0
   -3.0738   20.2239    1.0377 H   0  0  0  0  0  0  0  0  0  0  0  0
   -2.5754   20.9796   -0.5139 H   0  0  0  0  0  0  0  0  0  0  0  0
   -3.3691   19.3682   -0.5139 H   0  0  0  0  0  0  0  0  0  0  0  0
    2.9772   15.7898   -2.5894 H   0  0  0  0  0  0  0  0  0  0  0  0
    3.6581   16.4140   -0.3567 H   0  0  0  0  0  0  0  0  0  0  0  0
    2.2826   17.5219   -0.1636 H   0  0  0  0  0  0  0  0  0  0  0  0
    2.5051   14.9290    1.0166 H   0  0  0  0  0  0  0  0  0  0  0  0
    1.0000   15.8382    0.9068 H   0  0  0  0  0  0  0  0  0  0  0  0
    3.0195   13.1869   -0.1296 H   0  0  0  0  0  0  0  0  0  0  0  0
    2.2383   12.6449   -1.6536 H   0  0  0  0  0  0  0  0  0  0  0  0
    3.2962   14.0966   -1.6536 H   0  0  0  0  0  0  0  0  0  0  0  0
   -0.6424   14.3369   -0.0447 H   0  0  0  0  0  0  0  0  0  0  0  0
    0.9976   13.0977    1.5094 H   0  0  0  0  0  0  0  0  0  0  0  0
   -0.7302   12.5050    1.2806 H   0  0  0  0  0  0  0  0  0  0  0  0
    1.1408   10.6516    1.3309 H   0  0  0  0  0  0  0  0  0  0  0  0
    0.9776   11.7591   -2.5489 H   0  0  0  0  0  0  0  0  0  0  0  0
   -1.6307   10.1843   -2.0919 H   0  0  0  0  0  0  0  0  0  0  0  0
   -1.0870   10.9734   -3.6387 H   0  0  0  0  0  0  0  0  0  0  0  0
   -0.7340    8.5250   -3.6626 H   0  0  0  0  0  0  0  0  0  0  0  0
    0.8070    9.4621   -3.7799 H   0  0  0  0  0  0  0  0  0  0  0  0
    1.1346    7.6257   -2.2721 H   0  0  0  0  0  0  0  0  0  0  0  0
   -0.2210    7.4750   -0.3770 H   0  0  0  0  0  0  0  0  0  0  0  0
    3.5621    9.7833   -1.0255 H   0  0  0  0  0  0  0  0  0  0  0  0
    3.0150    8.7533   -2.3918 H   0  0  0  0  0  0  0  0  0  0  0  0
    2.6521   10.5126   -2.3918 H   0  0  0  0  0  0  0  0  0  0  0  0
    1.5340    9.1101    1.1465 H   0  0  0  0  0  0  0  0  0  0  0  0
    1.2436    7.5799    0.2516 H   0  0  0  0  0  0  0  0  0  0  0  0
    2.8785    8.3240    0.2516 H   0  0  0  0  0  0  0  0  0  0  0  0
   -2.1649   12.5294   -0.0965 H   0  0  0  0  0  0  0  0  0  0  0  0
   -2.7164   13.3430   -1.6001 H   0  0  0  0  0  0  0  0  0  0  0  0
   -2.3992   11.5749   -1.6001 H   0  0  0  0  0  0  0  0  0  0  0  0
   -0.7355   13.0159   -3.7557 H   0  0  0  0  0  0  0  0  0  0  0  0
   -1.4843   14.3813   -2.7508 H   0  0  0  0  0  0  0  0  0  0  0  0
    1.4401   13.9822   -3.4390 H   0  0  0  0  0  0  0  0  0  0  0  0
    0.3254   15.3021   -3.9706 H   0  0  0  0  0  0  0  0  0  0  0  0
   -0.3958   16.4364   -0.4922 H   0  0  0  0  0  0  0  0  0  0  0  0
   -0.1072   17.3468   -2.0136 H   0  0  0  0  0  0  0  0  0  0  0  0
   -1.1999   15.9211   -2.0136 H   0  0  0  0  0  0  0  0  0  0  0  0
  1  2  1  0
  2  3  1  0
  3  4  1  0
  4  5  1  0
  5  6  1  0
  6  7  1  0
  7  8  1  0
  7  9  1  0
  2 10  1  0
 10 11  1  0
 11 12  1  0
 12 13  1  0
 13 14  1  6
 13 15  1  0
 15 16  1  0
 16 17  1  0
 17 18  2  0
 18 19  1  0
 19 20  1  0
 20 21  1  0
 21 22  1  0
 22 23  1  0
 22 24  1  0
 24 25  1  0
 24 26  1  0
 19 27  1  0
 27 28  1  1
 27 29  1  0
 29 30  1  0
 30 31  1  0
 31 32  1  1
  7  5  1  0
 31 10  1  0
 31 13  1  0
 27 15  1  0
 24 18  1  0
  1 33  1  0
  1 34  1  0
  1 35  1  0
  2 36  1  6
  3 37  1  0
  3 38  1  0
  4 39  1  0
  4 40  1  0
  5 41  1  6
  8 42  1  0
  8 43  1  0
  8 44  1  0
  9 45  1  0
  9 46  1  0
  9 47  1  0
 10 48  1  6
 11 49  1  0
 11 50  1  0
 12 51  1  0
 12 52  1  0
 14 53  1  0
 14 54  1  0
 14 55  1  0
 15 56  1  1
 16 57  1  0
 16 58  1  0
 17 59  1  0
 19 60  1  6
 20 61  1  0
 20 62  1  0
 21 63  1  0
 21 64  1  0
 22 65  1  6
 23 66  1  0
 25 67  1  0
 25 68  1  0
 25 69  1  0
 26 70  1  0
 26 71  1  0
 26 72  1  0
 28 73  1  0
 28 74  1  0
 28 75  1  0
 29 76  1  0
 29 77  1  0
 30 78  1  0
 30 79  1  0
 32 80  1  0
 32 81  1  0
 32 82  1  0
M  END
>  <meeko>  (12) 
{"is_sidechain": [false], "intermolecular_energy": 2.731, "internal_energy": -0.839}

$$$$
EPH_relaxed_0001_pdb2pqr_Repair_35_r2_0001_out
     RDKit          3D

 82 86  0  0  0  0  0  0  0  0999 V2000
   -0.9130   16.3960   -5.8730 C   0  0  0  0  0  0  0  0  0  0  0  0
    0.1830   15.6970   -6.6810 C   0  0  2  0  0  0  0  0  0  0  0  0
   -0.2180   15.5010   -8.1570 C   0  0  0  0  0  0  0  0  0  0  0  0
    0.4330   16.5070   -9.1100 C   0  0  0  0  0  0  0  0  0  0  0  0
    1.8390   16.1170   -9.4510 C   0  0  2  0  0  0  0  0  0  0  0  0
    2.3380   16.6800  -10.6720 O   0  0  0  0  0  0  0  0  0  0  0  0
    2.2020   15.2500  -10.6420 C   0  0  0  0  0  0  0  0  0  0  0  0
    1.1540   14.7180  -11.5680 C   0  0  0  0  0  0  0  0  0  0  0  0
    3.5090   14.5210  -10.6240 C   0  0  0  0  0  0  0  0  0  0  0  0
    0.5170   14.3510   -6.0490 C   0  0  1  0  0  0  0  0  0  0  0  0
    1.7460   13.6690   -6.7080 C   0  0  0  0  0  0  0  0  0  0  0  0
    2.4970   12.9150   -5.5800 C   0  0  0  0  0  0  0  0  0  0  0  0
    1.5090   12.9080   -4.3900 C   0  0  1  0  0  0  0  0  0  0  0  0
    0.5250   11.7350   -4.6930 C   0  0  0  0  0  0  0  0  0  0  0  0
    2.1420   12.7780   -2.9670 C   0  0  2  0  0  0  0  0  0  0  0  0
    2.9100   11.4700   -2.7110 C   0  0  0  0  0  0  0  0  0  0  0  0
    2.0970   10.3540   -2.1440 C   0  0  0  0  0  0  0  0  0  0  0  0
    0.8780   10.4790   -1.5870 C   0  0  0  0  0  0  0  0  0  0  0  0
    0.2370   11.8600   -1.3970 C   0  0  1  0  0  0  0  0  0  0  0  0
   -0.3460   11.9670    0.0370 C   0  0  0  0  0  0  0  0  0  0  0  0
   -1.3050   10.8280    0.3660 C   0  0  0  0  0  0  0  0  0  0  0  0
   -0.6150    9.4740    0.2220 C   0  0  2  0  0  0  0  0  0  0  0  0
    0.3950    9.3630    1.2290 O   0  0  0  0  0  0  0  0  0  0  0  0
    0.0190    9.2560   -1.1800 C   0  0  0  0  0  0  0  0  0  0  0  0
   -1.1010    9.0760   -2.2350 C   0  0  0  0  0  0  0  0  0  0  0  0
    0.8030    7.9160   -1.1460 C   0  0  0  0  0  0  0  0  0  0  0  0
    1.1460   13.1050   -1.7820 C   0  0  1  0  0  0  0  0  0  0  0  0
    2.0250   13.5190   -0.5620 C   0  0  0  0  0  0  0  0  0  0  0  0
    0.2200   14.3380   -2.1010 C   0  0  0  0  0  0  0  0  0  0  0  0
   -0.2760   14.4770   -3.5530 C   0  0  0  0  0  0  0  0  0  0  0  0
    0.8840   14.3430   -4.5440 C   0  0  2  0  0  0  0  0  0  0  0  0
    1.8790   15.5230   -4.2790 C   0  0  0  0  0  0  0  0  0  0  0  0
   -0.7140   16.2691   -4.7986 H   0  0  0  0  0  0  0  0  0  0  0  0
   -0.9234   17.4679   -6.1198 H   0  0  0  0  0  0  0  0  0  0  0  0
   -1.8893   15.9534   -6.1198 H   0  0  0  0  0  0  0  0  0  0  0  0
    1.0708   16.3463   -6.6639 H   0  0  0  0  0  0  0  0  0  0  0  0
    0.0786   14.4878   -8.4659 H   0  0  0  0  0  0  0  0  0  0  0  0
   -1.3052   15.6569   -8.2184 H   0  0  0  0  0  0  0  0  0  0  0  0
   -0.1584   16.5548  -10.0363 H   0  0  0  0  0  0  0  0  0  0  0  0
    0.4604   17.4859   -8.6090 H   0  0  0  0  0  0  0  0  0  0  0  0
    2.1046   16.0554   -8.3853 H   0  0  0  0  0  0  0  0  0  0  0  0
    0.3249   14.2971  -10.9803 H   0  0  0  0  0  0  0  0  0  0  0  0
    0.7768   15.5338  -12.2022 H   0  0  0  0  0  0  0  0  0  0  0  0
    1.5899   13.9320  -12.2022 H   0  0  0  0  0  0  0  0  0  0  0  0
    3.8183   14.3485   -9.5826 H   0  0  0  0  0  0  0  0  0  0  0  0
    3.3971   13.5550  -11.1381 H   0  0  0  0  0  0  0  0  0  0  0  0
    4.2722   15.1237  -11.1381 H   0  0  0  0  0  0  0  0  0  0  0  0
   -0.4403   13.8322   -6.2055 H   0  0  0  0  0  0  0  0  0  0  0  0
    1.4163   12.9610   -7.4826 H   0  0  0  0  0  0  0  0  0  0  0  0
    2.3990   14.4117   -7.1895 H   0  0  0  0  0  0  0  0  0  0  0  0
    2.7362   11.8877   -5.8921 H   0  0  0  0  0  0  0  0  0  0  0  0
    3.4542   13.3930   -5.3245 H   0  0  0  0  0  0  0  0  0  0  0  0
    0.1644   11.3052   -3.7468 H   0  0  0  0  0  0  0  0  0  0  0  0
   -0.3296   12.1138   -5.2729 H   0  0  0  0  0  0  0  0  0  0  0  0
    1.0466   10.9593   -5.2729 H   0  0  0  0  0  0  0  0  0  0  0  0
    2.9017   13.5735   -2.9739 H   0  0  0  0  0  0  0  0  0  0  0  0
    3.3321   11.1307   -3.6684 H   0  0  0  0  0  0  0  0  0  0  0  0
    3.6714   11.7074   -1.9534 H   0  0  0  0  0  0  0  0  0  0  0  0
    2.5307    9.3439   -2.1848 H   0  0  0  0  0  0  0  0  0  0  0  0
   -0.5758   11.9229   -2.1355 H   0  0  0  0  0  0  0  0  0  0  0  0
    0.4849   11.9474    0.7576 H   0  0  0  0  0  0  0  0  0  0  0  0
   -0.9127   12.9079    0.0972 H   0  0  0  0  0  0  0  0  0  0  0  0
   -1.6589   10.9432    1.4011 H   0  0  0  0  0  0  0  0  0  0  0  0
   -2.1504   10.8673   -0.3366 H   0  0  0  0  0  0  0  0  0  0  0  0
   -1.3839    8.6967    0.3427 H   0  0  0  0  0  0  0  0  0  0  0  0
    0.5000   10.2380    1.6390 H   0  0  0  0  0  0  0  0  0  0  0  0
   -2.0634    8.9213   -1.7253 H   0  0  0  0  0  0  0  0  0  0  0  0
   -1.1599    9.9762   -2.8644 H   0  0  0  0  0  0  0  0  0  0  0  0
   -0.8749    8.2027   -2.8644 H   0  0  0  0  0  0  0  0  0  0  0  0
    0.9767    7.6192   -0.1011 H   0  0  0  0  0  0  0  0  0  0  0  0
    0.2186    7.1362   -1.6564 H   0  0  0  0  0  0  0  0  0  0  0  0
    1.7691    8.0434   -1.6564 H   0  0  0  0  0  0  0  0  0  0  0  0
    1.4977   13.2707    0.3709 H   0  0  0  0  0  0  0  0  0  0  0  0
    2.9813   12.9766   -0.5982 H   0  0  0  0  0  0  0  0  0  0  0  0
    2.2159   14.6017   -0.5982 H   0  0  0  0  0  0  0  0  0  0  0  0
   -0.6655   14.2658   -1.4523 H   0  0  0  0  0  0  0  0  0  0  0  0
    0.8489   15.2233   -1.9257 H   0  0  0  0  0  0  0  0  0  0  0  0
   -1.0165   13.6896   -3.7572 H   0  0  0  0  0  0  0  0  0  0  0  0
   -0.7284   15.4722   -3.6752 H   0  0  0  0  0  0  0  0  0  0  0  0
    1.9988   15.6651   -3.1948 H   0  0  0  0  0  0  0  0  0  0  0  0
    2.8551   15.2874   -4.7280 H   0  0  0  0  0  0  0  0  0  0  0  0
    1.4819   16.4453   -4.7280 H   0  0  0  0  0  0  0  0  0  0  0  0
  1  2  1  0
  2  3  1  0
  3  4  1  0
  4  5  1  0
  5  6  1  0
  6  7  1  0
  7  8  1  0
  7  9  1  0
  2 10  1  0
 10 11  1  0
 11 12  1  0
 12 13  1  0
 13 14  1  6
 13 15  1  0
 15 16  1  0
 16 17  1  0
 17 18  2  0
 18 19  1  0
 19 20  1  0
 20 21  1  0
 21 22  1  0
 22 23  1  0
 22 24  1  0
 24 25  1  0
 24 26  1  0
 19 27  1  0
 27 28  1  1
 27 29  1  0
 29 30  1  0
 30 31  1  0
 31 32  1  6
  7  5  1  0
 31 10  1  0
 31 13  1  0
 27 15  1  0
 24 18  1  0
  1 33  1  0
  1 34  1  0
  1 35  1  0
  2 36  1  6
  3 37  1  0
  3 38  1  0
  4 39  1  0
  4 40  1  0
  5 41  1  1
  8 42  1  0
  8 43  1  0
  8 44  1  0
  9 45  1  0
  9 46  1  0
  9 47  1  0
 10 48  1  1
 11 49  1  0
 11 50  1  0
 12 51  1  0
 12 52  1  0
 14 53  1  0
 14 54  1  0
 14 55  1  0
 15 56  1  6
 16 57  1  0
 16 58  1  0
 17 59  1  0
 19 60  1  6
 20 61  1  0
 20 62  1  0
 21 63  1  0
 21 64  1  0
 22 65  1  1
 23 66  1  0
 25 67  1  0
 25 68  1  0
 25 69  1  0
 26 70  1  0
 26 71  1  0
 26 72  1  0
 28 73  1  0
 28 74  1  0
 28 75  1  0
 29 76  1  0
 29 77  1  0
 30 78  1  0
 30 79  1  0
 32 80  1  0
 32 81  1  0
 32 82  1  0
M  END
>  <meeko>  (13) 
{"is_sidechain": [false], "intermolecular_energy": 2.731, "internal_energy": -0.839}

$$$$
EPH_relaxed_0001_pdb2pqr_Repair_35_r2_0001_out
     RDKit          3D

 82 86  0  0  0  0  0  0  0  0999 V2000
    0.2050    9.3810   -2.5170 C   0  0  0  0  0  0  0  0  0  0  0  0
    1.2440   10.4220   -2.9440 C   0  0  2  0  0  0  0  0  0  0  0  0
    2.6600    9.8220   -3.0440 C   0  0  0  0  0  0  0  0  0  0  0  0
    3.6050   10.6220   -3.9450 C   0  0  0  0  0  0  0  0  0  0  0  0
    4.9850   10.7060   -3.3650 C   0  0  2  0  0  0  0  0  0  0  0  0
    5.6770   11.9310   -3.6410 O   0  0  0  0  0  0  0  0  0  0  0  0
    6.2460   10.7390   -4.2080 C   0  0  0  0  0  0  0  0  0  0  0  0
    6.1870   10.6880   -5.7030 C   0  0  0  0  0  0  0  0  0  0  0  0
    7.5400   10.3290   -3.5770 C   0  0  0  0  0  0  0  0  0  0  0  0
    1.2410   11.5910   -1.9650 C   0  0  1  0  0  0  0  0  0  0  0  0
    2.3090   11.4380   -0.8490 C   0  0  0  0  0  0  0  0  0  0  0  0
    2.8270   12.8630   -0.5290 C   0  0  0  0  0  0  0  0  0  0  0  0
    1.8200   13.8100   -1.2210 C   0  0  1  0  0  0  0  0  0  0  0  0
    0.6090   13.8940   -0.2400 C   0  0  0  0  0  0  0  0  0  0  0  0
    2.3540   15.2300   -1.6010 C   0  0  2  0  0  0  0  0  0  0  0  0
    2.7960   16.1000   -0.4110 C   0  0  0  0  0  0  0  0  0  0  0  0
    1.7320   16.9660    0.1760 C   0  0  0  0  0  0  0  0  0  0  0  0
    0.5530   17.2580   -0.4030 C   0  0  0  0  0  0  0  0  0  0  0  0
    0.2330   16.7760   -1.8240 C   0  0  1  0  0  0  0  0  0  0  0  0
   -0.3630   17.9490   -2.6470 C   0  0  0  0  0  0  0  0  0  0  0  0
   -1.5670   18.5900   -1.9630 C   0  0  0  0  0  0  0  0  0  0  0  0
   -1.1950   19.1090   -0.5760 C   0  0  2  0  0  0  0  0  0  0  0  0
   -0.2740   20.1940   -0.7220 O   0  0  0  0  0  0  0  0  0  0  0  0
   -0.5740   18.0170    0.3400 C   0  0  0  0  0  0  0  0  0  0  0  0
   -1.6650   16.9940    0.7430 C   0  0  0  0  0  0  0  0  0  0  0  0
   -0.1140   18.7020    1.6550 C   0  0  0  0  0  0  0  0  0  0  0  0
    1.4130   16.0340   -2.5870 C   0  0  1  0  0  0  0  0  0  0  0  0
    2.3170   17.0770   -3.3120 C   0  0  0  0  0  0  0  0  0  0  0  0
    0.8020   15.1170   -3.7120 C   0  0  0  0  0  0  0  0  0  0  0  0
    0.4040   13.6860   -3.3020 C   0  0  0  0  0  0  0  0  0  0  0  0
    1.5400   12.9990   -2.5380 C   0  0  2  0  0  0  0  0  0  0  0  0
    2.7650   12.8800   -3.5080 C   0  0  0  0  0  0  0  0  0  0  0  0
    0.1605    9.3364   -1.4188 H   0  0  0  0  0  0  0  0  0  0  0  0
   -0.7816    9.6639   -2.9128 H   0  0  0  0  0  0  0  0  0  0  0  0
    0.4898    8.3950   -2.9128 H   0  0  0  0  0  0  0  0  0  0  0  0
    0.9646   10.7764   -3.9472 H   0  0  0  0  0  0  0  0  0  0  0  0
    3.0931    9.7836   -2.0336 H   0  0  0  0  0  0  0  0  0  0  0  0
    2.5552    8.8237   -3.4938 H   0  0  0  0  0  0  0  0  0  0  0  0
    3.6607   10.1315   -4.9280 H   0  0  0  0  0  0  0  0  0  0  0  0
    3.2085   11.6440   -4.0364 H   0  0  0  0  0  0  0  0  0  0  0  0
    4.6875   10.0858   -2.5066 H   0  0  0  0  0  0  0  0  0  0  0  0
    5.3890    9.9982   -6.0151 H   0  0  0  0  0  0  0  0  0  0  0  0
    5.9770   11.6936   -6.0962 H   0  0  0  0  0  0  0  0  0  0  0  0
    7.1517   10.3347   -6.0962 H   0  0  0  0  0  0  0  0  0  0  0  0
    7.4402   10.3606   -2.4820 H   0  0  0  0  0  0  0  0  0  0  0  0
    7.7941    9.3064   -3.8927 H   0  0  0  0  0  0  0  0  0  0  0  0
    8.3366   11.0187   -3.8927 H   0  0  0  0  0  0  0  0  0  0  0  0
    0.1981   11.5395   -1.6190 H   0  0  0  0  0  0  0  0  0  0  0  0
    1.8581   10.9884    0.0480 H   0  0  0  0  0  0  0  0  0  0  0  0
    3.1302   10.7827   -1.1748 H   0  0  0  0  0  0  0  0  0  0  0  0
    2.8396   13.0366    0.5571 H   0  0  0  0  0  0  0  0  0  0  0  0
    3.8570   13.0207   -0.8814 H   0  0  0  0  0  0  0  0  0  0  0  0
    0.9748   13.8686    0.7971 H   0  0  0  0  0  0  0  0  0  0  0  0
    0.0615   14.8323   -0.4128 H   0  0  0  0  0  0  0  0  0  0  0  0
   -0.0628   13.0403   -0.4128 H   0  0  0  0  0  0  0  0  0  0  0  0
    3.2732   14.9956   -2.1579 H   0  0  0  0  0  0  0  0  0  0  0  0
    3.1648   15.4310    0.3805 H   0  0  0  0  0  0  0  0  0  0  0  0
    3.5631   16.7841   -0.8028 H   0  0  0  0  0  0  0  0  0  0  0  0
    1.9282   17.4028    1.1663 H   0  0  0  0  0  0  0  0  0  0  0  0
   -0.5167   15.9788   -1.7126 H   0  0  0  0  0  0  0  0  0  0  0  0
    0.4145   18.7151   -2.7834 H   0  0  0  0  0  0  0  0  0  0  0  0
   -0.7033   17.5422   -3.6107 H   0  0  0  0  0  0  0  0  0  0  0  0
   -1.9252   19.4293   -2.5772 H   0  0  0  0  0  0  0  0  0  0  0  0
   -2.3543   17.8296   -1.8536 H   0  0  0  0  0  0  0  0  0  0  0  0
   -2.1235   19.4386   -0.0868 H   0  0  0  0  0  0  0  0  0  0  0  0
   -0.7740   21.0210   -0.6130 H   0  0  0  0  0  0  0  0  0  0  0  0
   -1.7264   16.9364    1.8398 H   0  0  0  0  0  0  0  0  0  0  0  0
   -2.6360   17.3147    0.3377 H   0  0  0  0  0  0  0  0  0  0  0  0
   -1.4073   16.0044    0.3377 H   0  0  0  0  0  0  0  0  0  0  0  0
   -0.4951   18.1345    2.5168 H   0  0  0  0  0  0  0  0  0  0  0  0
    0.9851   18.7277    1.6900 H   0  0  0  0  0  0  0  0  0  0  0  0
   -0.5061   19.7291    1.6900 H   0  0  0  0  0  0  0  0  0  0  0  0
    2.8455   17.6867   -2.5644 H   0  0  0  0  0  0  0  0  0  0  0  0
    3.0504   16.5518   -3.9416 H   0  0  0  0  0  0  0  0  0  0  0  0
    1.6930   17.7283   -3.9416 H   0  0  0  0  0  0  0  0  0  0  0  0
   -0.1001   15.6165   -4.0950 H   0  0  0  0  0  0  0  0  0  0  0  0
    1.6079   14.9913   -4.4501 H   0  0  0  0  0  0  0  0  0  0  0  0
   -0.4870   13.7306   -2.6585 H   0  0  0  0  0  0  0  0  0  0  0  0
    0.1925   13.1061   -4.2125 H   0  0  0  0  0  0  0  0  0  0  0  0
    3.6906   12.7901   -2.9204 H   0  0  0  0  0  0  0  0  0  0  0  0
    2.6453   11.9893   -4.1422 H   0  0  0  0  0  0  0  0  0  0  0  0
    2.8190   13.7771   -4.1422 H   0  0  0  0  0  0  0  0  0  0  0  0
  1  2  1  0
  2  3  1  0
  3  4  1  0
  4  5  1  0
  5  6  1  0
  6  7  1  0
  7  8  1  0
  7  9  1  0
  2 10  1  0
 10 11  1  0
 11 12  1  0
 12 13  1  0
 13 14  1  1
 13 15  1  0
 15 16  1  0
 16 17  1  0
 17 18  2  0
 18 19  1  0
 19 20  1  0
 20 21  1  0
 21 22  1  0
 22 23  1  0
 22 24  1  0
 24 25  1  0
 24 26  1  0
 19 27  1  0
 27 28  1  6
 27 29  1  0
 29 30  1  0
 30 31  1  0
 31 32  1  6
  7  5  1  0
 31 10  1  0
 31 13  1  0
 27 15  1  0
 24 18  1  0
  1 33  1  0
  1 34  1  0
  1 35  1  0
  2 36  1  6
  3 37  1  0
  3 38  1  0
  4 39  1  0
  4 40  1  0
  5 41  1  1
  8 42  1  0
  8 43  1  0
  8 44  1  0
  9 45  1  0
  9 46  1  0
  9 47  1  0
 10 48  1  1
 11 49  1  0
 11 50  1  0
 12 51  1  0
 12 52  1  0
 14 53  1  0
 14 54  1  0
 14 55  1  0
 15 56  1  6
 16 57  1  0
 16 58  1  0
 17 59  1  0
 19 60  1  1
 20 61  1  0
 20 62  1  0
 21 63  1  0
 21 64  1  0
 22 65  1  1
 23 66  1  0
 25 67  1  0
 25 68  1  0
 25 69  1  0
 26 70  1  0
 26 71  1  0
 26 72  1  0
 28 73  1  0
 28 74  1  0
 28 75  1  0
 29 76  1  0
 29 77  1  0
 30 78  1  0
 30 79  1  0
 32 80  1  0
 32 81  1  0
 32 82  1  0
M  END
>  <meeko>  (14) 
{"is_sidechain": [false], "intermolecular_energy": 2.731, "internal_energy": -0.839}

$$$$
EPH_relaxed_0001_pdb2pqr_Repair_35_r2_0001_out
     RDKit          3D

 82 86  0  0  0  0  0  0  0  0999 V2000
   -4.0990    7.3660   -3.5340 C   0  0  0  0  0  0  0  0  0  0  0  0
   -3.7150    7.2730   -2.0550 C   0  0  2  0  0  0  0  0  0  0  0  0
   -4.8970    6.8180   -1.1760 C   0  0  0  0  0  0  0  0  0  0  0  0
   -6.0580    6.2140   -1.9700 C   0  0  0  0  0  0  0  0  0  0  0  0
   -7.3840    6.7170   -1.4830 C   0  0  2  0  0  0  0  0  0  0  0  0
   -8.3660    5.6970   -1.2610 O   0  0  0  0  0  0  0  0  0  0  0  0
   -8.6590    6.6430   -2.3020 C   0  0  0  0  0  0  0  0  0  0  0  0
   -8.6700    6.0520   -3.6770 C   0  0  0  0  0  0  0  0  0  0  0  0
   -9.7780    7.5790   -1.9680 C   0  0  0  0  0  0  0  0  0  0  0  0
   -3.1930    8.6200   -1.5680 C   0  0  1  0  0  0  0  0  0  0  0  0
   -3.8510    9.0710   -0.2370 C   0  0  0  0  0  0  0  0  0  0  0  0
   -2.7620    9.8260    0.5670 C   0  0  0  0  0  0  0  0  0  0  0  0
   -1.6260   10.0750   -0.4530 C   0  0  1  0  0  0  0  0  0  0  0  0
   -2.0800   11.3310   -1.2610 C   0  0  0  0  0  0  0  0  0  0  0  0
   -0.1920   10.2580    0.1420 C   0  0  2  0  0  0  0  0  0  0  0  0
   -0.0190   11.4750    1.0670 C   0  0  0  0  0  0  0  0  0  0  0  0
    0.4050   12.7360    0.3890 C   0  0  0  0  0  0  0  0  0  0  0  0
    0.9130   12.8230   -0.8540 C   0  0  0  0  0  0  0  0  0  0  0  0
    1.1960   11.5610   -1.6790 C   0  0  1  0  0  0  0  0  0  0  0  0
    2.6050   11.6680   -2.3210 C   0  0  0  0  0  0  0  0  0  0  0  0
    2.7830   12.9470   -3.1320 C   0  0  0  0  0  0  0  0  0  0  0  0
    2.5500   14.1810   -2.2630 C   0  0  2  0  0  0  0  0  0  0  0  0
    3.5900   14.2570   -1.2840 O   0  0  0  0  0  0  0  0  0  0  0  0
    1.1660   14.1800   -1.5570 C   0  0  0  0  0  0  0  0  0  0  0  0
    0.0460   14.4010   -2.6040 C   0  0  0  0  0  0  0  0  0  0  0  0
    1.1150   15.4040   -0.6030 C   0  0  0  0  0  0  0  0  0  0  0  0
    0.9700   10.1780   -0.9310 C   0  0  1  0  0  0  0  0  0  0  0  0
    2.2620    9.7730   -0.1580 C   0  0  0  0  0  0  0  0  0  0  0  0
    0.7200    9.0490   -2.0000 C   0  0  0  0  0  0  0  0  0  0  0  0
   -0.7360    8.8370   -2.4590 C   0  0  0  0  0  0  0  0  0  0  0  0
   -1.6790    8.7250   -1.2570 C   0  0  2  0  0  0  0  0  0  0  0  0
   -1.2600    7.4570   -0.4370 C   0  0  0  0  0  0  0  0  0  0  0  0
   -5.1648    7.6241   -3.6206 H   0  0  0  0  0  0  0  0  0  0  0  0
   -3.4927    8.1433   -4.0221 H   0  0  0  0  0  0  0  0  0  0  0  0
   -3.9155    6.3974   -4.0221 H   0  0  0  0  0  0  0  0  0  0  0  0
   -2.9247    6.5131   -1.9654 H   0  0  0  0  0  0  0  0  0  0  0  0
   -4.5309    6.0614   -0.4664 H   0  0  0  0  0  0  0  0  0  0  0  0
   -5.2854    7.7145   -0.6707 H   0  0  0  0  0  0  0  0  0  0  0  0
   -5.9425    6.4826   -3.0304 H   0  0  0  0  0  0  0  0  0  0  0  0
   -6.0347    5.1226   -1.8349 H   0  0  0  0  0  0  0  0  0  0  0  0
   -6.8991    7.5458   -0.9463 H   0  0  0  0  0  0  0  0  0  0  0  0
   -8.6904    4.9546   -3.6043 H   0  0  0  0  0  0  0  0  0  0  0  0
   -9.5618    6.4002   -4.2187 H   0  0  0  0  0  0  0  0  0  0  0  0
   -7.7658    6.3668   -4.2187 H   0  0  0  0  0  0  0  0  0  0  0  0
   -9.8746    7.6598   -0.8752 H   0  0  0  0  0  0  0  0  0  0  0  0
   -9.5647    8.5715   -2.3916 H   0  0  0  0  0  0  0  0  0  0  0  0
  -10.7172    7.1937   -2.3916 H   0  0  0  0  0  0  0  0  0  0  0  0
   -3.4422    9.2406   -2.4414 H   0  0  0  0  0  0  0  0  0  0  0  0
   -4.7014    9.7380   -0.4418 H   0  0  0  0  0  0  0  0  0  0  0  0
   -4.2314    8.2073    0.3280 H   0  0  0  0  0  0  0  0  0  0  0  0
   -3.1541   10.7790    0.9518 H   0  0  0  0  0  0  0  0  0  0  0  0
   -2.4188    9.2551    1.4424 H   0  0  0  0  0  0  0  0  0  0  0  0
   -2.3691   12.1309   -0.5635 H   0  0  0  0  0  0  0  0  0  0  0  0
   -1.2507   11.6789   -1.8945 H   0  0  0  0  0  0  0  0  0  0  0  0
   -2.9401   11.0683   -1.8945 H   0  0  0  0  0  0  0  0  0  0  0  0
   -0.0912    9.3744    0.7894 H   0  0  0  0  0  0  0  0  0  0  0  0
   -0.9819   11.6636    1.5643 H   0  0  0  0  0  0  0  0  0  0  0  0
    0.7927   11.2157    1.7627 H   0  0  0  0  0  0  0  0  0  0  0  0
    0.2925   13.6734    0.9535 H   0  0  0  0  0  0  0  0  0  0  0  0
    0.4277   11.5333   -2.4657 H   0  0  0  0  0  0  0  0  0  0  0  0
    3.3594   11.6503   -1.5206 H   0  0  0  0  0  0  0  0  0  0  0  0
    2.7238   10.8177   -3.0086 H   0  0  0  0  0  0  0  0  0  0  0  0
    3.8061   12.9784   -3.5349 H   0  0  0  0  0  0  0  0  0  0  0  0
    2.0474   12.9495   -3.9498 H   0  0  0  0  0  0  0  0  0  0  0  0
    2.5629   15.0592   -2.9253 H   0  0  0  0  0  0  0  0  0  0  0  0
    4.4200   14.4530   -1.7500 H   0  0  0  0  0  0  0  0  0  0  0  0
   -0.9068   14.5890   -2.0875 H   0  0  0  0  0  0  0  0  0  0  0  0
    0.2986   15.2666   -3.2340 H   0  0  0  0  0  0  0  0  0  0  0  0
   -0.0491   13.5043   -3.2340 H   0  0  0  0  0  0  0  0  0  0  0  0
    1.1295   15.0564    0.4405 H   0  0  0  0  0  0  0  0  0  0  0  0
    1.9871   16.0488   -0.7868 H   0  0  0  0  0  0  0  0  0  0  0  0
    0.1923   15.9740   -0.7868 H   0  0  0  0  0  0  0  0  0  0  0  0
    2.0752    9.8316    0.9244 H   0  0  0  0  0  0  0  0  0  0  0  0
    2.5425    8.7438   -0.4265 H   0  0  0  0  0  0  0  0  0  0  0  0
    3.0798   10.4579   -0.4265 H   0  0  0  0  0  0  0  0  0  0  0  0
    1.3171    9.2956   -2.8903 H   0  0  0  0  0  0  0  0  0  0  0  0
    1.0037    8.1112   -1.5000 H   0  0  0  0  0  0  0  0  0  0  0  0
   -1.0452    9.6902   -3.0807 H   0  0  0  0  0  0  0  0  0  0  0  0
   -0.7895    7.9015   -3.0351 H   0  0  0  0  0  0  0  0  0  0  0  0
   -1.3322    7.6756    0.6386 H   0  0  0  0  0  0  0  0  0  0  0  0
   -1.9296    6.6209   -0.6870 H   0  0  0  0  0  0  0  0  0  0  0  0
   -0.2240    7.1845   -0.6870 H   0  0  0  0  0  0  0  0  0  0  0  0
  1  2  1  0
  2  3  1  0
  3  4  1  0
  4  5  1  0
  5  6  1  0
  6  7  1  0
  7  8  1  0
  7  9  1  0
  2 10  1  0
 10 11  1  0
 11 12  1  0
 12 13  1  0
 13 14  1  6
 13 15  1  0
 15 16  1  0
 16 17  1  0
 17 18  2  0
 18 19  1  0
 19 20  1  0
 20 21  1  0
 21 22  1  0
 22 23  1  0
 22 24  1  0
 24 25  1  0
 24 26  1  0
 19 27  1  0
 27 28  1  1
 27 29  1  0
 29 30  1  0
 30 31  1  0
 31 32  1  1
  7  5  1  0
 31 10  1  0
 31 13  1  0
 27 15  1  0
 24 18  1  0
  1 33  1  0
  1 34  1  0
  1 35  1  0
  2 36  1  6
  3 37  1  0
  3 38  1  0
  4 39  1  0
  4 40  1  0
  5 41  1  1
  8 42  1  0
  8 43  1  0
  8 44  1  0
  9 45  1  0
  9 46  1  0
  9 47  1  0
 10 48  1  6
 11 49  1  0
 11 50  1  0
 12 51  1  0
 12 52  1  0
 14 53  1  0
 14 54  1  0
 14 55  1  0
 15 56  1  1
 16 57  1  0
 16 58  1  0
 17 59  1  0
 19 60  1  6
 20 61  1  0
 20 62  1  0
 21 63  1  0
 21 64  1  0
 22 65  1  6
 23 66  1  0
 25 67  1  0
 25 68  1  0
 25 69  1  0
 26 70  1  0
 26 71  1  0
 26 72  1  0
 28 73  1  0
 28 74  1  0
 28 75  1  0
 29 76  1  0
 29 77  1  0
 30 78  1  0
 30 79  1  0
 32 80  1  0
 32 81  1  0
 32 82  1  0
M  END
>  <meeko>  (15) 
{"is_sidechain": [false], "intermolecular_energy": 2.731, "internal_energy": -0.839}

$$$$
EPH_relaxed_0001_pdb2pqr_Repair_35_r2_0001_out
     RDKit          3D

 82 86  0  0  0  0  0  0  0  0999 V2000
    0.5750   18.9760   -2.4740 C   0  0  0  0  0  0  0  0  0  0  0  0
    0.1360   17.9800   -1.3970 C   0  0  2  0  0  0  0  0  0  0  0  0
    0.6760   18.3570   -0.0030 C   0  0  0  0  0  0  0  0  0  0  0  0
    1.6630   19.5280   -0.0210 C   0  0  0  0  0  0  0  0  0  0  0  0
    2.5480   19.5250    1.1880 C   0  0  2  0  0  0  0  0  0  0  0  0
    3.8040   20.1940    1.0120 O   0  0  0  0  0  0  0  0  0  0  0  0
    3.8670   18.7800    1.2580 C   0  0  0  0  0  0  0  0  0  0  0  0
    4.3760   17.9830    0.0980 C   0  0  0  0  0  0  0  0  0  0  0  0
    4.4190   18.4260    2.6040 C   0  0  0  0  0  0  0  0  0  0  0  0
    0.5950   16.5750   -1.7710 C   0  0  1  0  0  0  0  0  0  0  0  0
    2.0430   16.5480   -2.3290 C   0  0  0  0  0  0  0  0  0  0  0  0
    2.6830   15.2210   -1.8470 C   0  0  0  0  0  0  0  0  0  0  0  0
    1.4950   14.3840   -1.3170 C   0  0  1  0  0  0  0  0  0  0  0  0
    0.8470   13.7560   -2.5910 C   0  0  0  0  0  0  0  0  0  0  0  0
    1.8390   13.2970   -0.2480 C   0  0  2  0  0  0  0  0  0  0  0  0
    2.7830   12.1820   -0.7310 C   0  0  0  0  0  0  0  0  0  0  0  0
    2.1100   10.9870   -1.3210 C   0  0  0  0  0  0  0  0  0  0  0  0
    0.8030   10.6870   -1.2020 C   0  0  0  0  0  0  0  0  0  0  0  0
   -0.1250   11.5420   -0.3290 C   0  0  1  0  0  0  0  0  0  0  0  0
   -0.9960   10.6170    0.5610 C   0  0  0  0  0  0  0  0  0  0  0  0
   -1.7570    9.5730   -0.2500 C   0  0  0  0  0  0  0  0  0  0  0  0
   -0.7960    8.7050   -1.0590 C   0  0  2  0  0  0  0  0  0  0  0  0
   -0.0110    7.9210   -0.1560 O   0  0  0  0  0  0  0  0  0  0  0  0
    0.1400    9.5280   -1.9870 C   0  0  0  0  0  0  0  0  0  0  0  0
   -0.6820   10.1370   -3.1490 C   0  0  0  0  0  0  0  0  0  0  0  0
    1.1520    8.5470   -2.6380 C   0  0  0  0  0  0  0  0  0  0  0  0
    0.5770   12.7020    0.5000 C   0  0  1  0  0  0  0  0  0  0  0  0
    1.0890   12.1460    1.8640 C   0  0  0  0  0  0  0  0  0  0  0  0
   -0.4900   13.8070    0.8440 C   0  0  0  0  0  0  0  0  0  0  0  0
   -0.6980   14.9210   -0.2000 C   0  0  0  0  0  0  0  0  0  0  0  0
    0.6420   15.5180   -0.6400 C   0  0  2  0  0  0  0  0  0  0  0  0
    1.3070   16.1770    0.6160 C   0  0  0  0  0  0  0  0  0  0  0  0
    0.9743   19.8820   -1.9947 H   0  0  0  0  0  0  0  0  0  0  0  0
    1.3549   18.5185   -3.1005 H   0  0  0  0  0  0  0  0  0  0  0  0
   -0.2888   19.2430   -3.1005 H   0  0  0  0  0  0  0  0  0  0  0  0
   -0.9623   18.0111   -1.3449 H   0  0  0  0  0  0  0  0  0  0  0  0
   -0.1758   18.6306    0.6370 H   0  0  0  0  0  0  0  0  0  0  0  0
    1.2228   17.4816    0.3774 H   0  0  0  0  0  0  0  0  0  0  0  0
    2.2897   19.4522   -0.9218 H   0  0  0  0  0  0  0  0  0  0  0  0
    1.0850   20.4639   -0.0207 H   0  0  0  0  0  0  0  0  0  0  0  0
    1.6744   19.5422    1.8562 H   0  0  0  0  0  0  0  0  0  0  0  0
    4.9334   17.1103    0.4691 H   0  0  0  0  0  0  0  0  0  0  0  0
    3.5274   17.6430   -0.5138 H   0  0  0  0  0  0  0  0  0  0  0  0
    5.0413   18.6099   -0.5138 H   0  0  0  0  0  0  0  0  0  0  0  0
    3.7694   18.8426    3.3878 H   0  0  0  0  0  0  0  0  0  0  0  0
    4.4617   17.3316    2.7065 H   0  0  0  0  0  0  0  0  0  0  0  0
    5.4314   18.8437    2.7065 H   0  0  0  0  0  0  0  0  0  0  0  0
   -0.1873   16.3132   -2.4987 H   0  0  0  0  0  0  0  0  0  0  0  0
    2.0261   16.5831   -3.4283 H   0  0  0  0  0  0  0  0  0  0  0  0
    2.6190   17.4158   -1.9752 H   0  0  0  0  0  0  0  0  0  0  0  0
    3.1803   14.7044   -2.6811 H   0  0  0  0  0  0  0  0  0  0  0  0
    3.4533   15.3845   -1.0789 H   0  0  0  0  0  0  0  0  0  0  0  0
    0.0871   13.0195   -2.2908 H   0  0  0  0  0  0  0  0  0  0  0  0
    0.3736   14.5480   -3.1899 H   0  0  0  0  0  0  0  0  0  0  0  0
    1.6237   13.2580   -3.1899 H   0  0  0  0  0  0  0  0  0  0  0  0
    2.4109   13.8706    0.4962 H   0  0  0  0  0  0  0  0  0  0  0  0
    3.4495   12.6084   -1.4951 H   0  0  0  0  0  0  0  0  0  0  0  0
    3.3117   11.8223    0.1640 H   0  0  0  0  0  0  0  0  0  0  0  0
    2.7350   10.2929   -1.9021 H   0  0  0  0  0  0  0  0  0  0  0  0
   -0.7665   12.1022   -1.0252 H   0  0  0  0  0  0  0  0  0  0  0  0
   -0.3417   10.0988    1.2775 H   0  0  0  0  0  0  0  0  0  0  0  0
   -1.7375   11.2478    1.0731 H   0  0  0  0  0  0  0  0  0  0  0  0
   -2.3307    8.9322    0.4358 H   0  0  0  0  0  0  0  0  0  0  0  0
   -2.4323   10.0923   -0.9459 H   0  0  0  0  0  0  0  0  0  0  0  0
   -1.4034    8.0646   -1.7155 H   0  0  0  0  0  0  0  0  0  0  0  0
    0.9250    8.0770   -0.3680 H   0  0  0  0  0  0  0  0  0  0  0  0
   -1.5021   10.7446   -2.7389 H   0  0  0  0  0  0  0  0  0  0  0  0
   -0.0293   10.7712   -3.7669 H   0  0  0  0  0  0  0  0  0  0  0  0
   -1.0986    9.3279   -3.7669 H   0  0  0  0  0  0  0  0  0  0  0  0
    1.7033    8.0126   -1.8502 H   0  0  0  0  0  0  0  0  0  0  0  0
    0.6098    7.8218   -3.2625 H   0  0  0  0  0  0  0  0  0  0  0  0
    1.8600    9.1115   -3.2625 H   0  0  0  0  0  0  0  0  0  0  0  0
    0.5949   12.6826    2.6874 H   0  0  0  0  0  0  0  0  0  0  0  0
    0.8559   11.0732    1.9334 H   0  0  0  0  0  0  0  0  0  0  0  0
    2.1773   12.2900    1.9334 H   0  0  0  0  0  0  0  0  0  0  0  0
   -1.4566   13.3024    0.9893 H   0  0  0  0  0  0  0  0  0  0  0  0
   -0.0979   14.3179    1.7358 H   0  0  0  0  0  0  0  0  0  0  0  0
   -1.2099   14.5002   -1.0780 H   0  0  0  0  0  0  0  0  0  0  0  0
   -1.3046   15.7183    0.2544 H   0  0  0  0  0  0  0  0  0  0  0  0
    0.8720   15.7460    1.5298 H   0  0  0  0  0  0  0  0  0  0  0  0
    2.3902   15.9859    0.6001 H   0  0  0  0  0  0  0  0  0  0  0  0
    1.1258   17.2619    0.6001 H   0  0  0  0  0  0  0  0  0  0  0  0
  1  2  1  0
  2  3  1  0
  3  4  1  0
  4  5  1  0
  5  6  1  0
  6  7  1  0
  7  8  1  0
  7  9  1  0
  2 10  1  0
 10 11  1  0
 11 12  1  0
 12 13  1  0
 13 14  1  6
 13 15  1  0
 15 16  1  0
 16 17  1  0
 17 18  2  0
 18 19  1  0
 19 20  1  0
 20 21  1  0
 21 22  1  0
 22 23  1  0
 22 24  1  0
 24 25  1  0
 24 26  1  0
 19 27  1  0
 27 28  1  1
 27 29  1  0
 29 30  1  0
 30 31  1  0
 31 32  1  1
  7  5  1  0
 31 10  1  0
 31 13  1  0
 27 15  1  0
 24 18  1  0
  1 33  1  0
  1 34  1  0
  1 35  1  0
  2 36  1  1
  3 37  1  0
  3 38  1  0
  4 39  1  0
  4 40  1  0
  5 41  1  1
  8 42  1  0
  8 43  1  0
  8 44  1  0
  9 45  1  0
  9 46  1  0
  9 47  1  0
 10 48  1  6
 11 49  1  0
 11 50  1  0
 12 51  1  0
 12 52  1  0
 14 53  1  0
 14 54  1  0
 14 55  1  0
 15 56  1  1
 16 57  1  0
 16 58  1  0
 17 59  1  0
 19 60  1  6
 20 61  1  0
 20 62  1  0
 21 63  1  0
 21 64  1  0
 22 65  1  6
 23 66  1  0
 25 67  1  0
 25 68  1  0
 25 69  1  0
 26 70  1  0
 26 71  1  0
 26 72  1  0
 28 73  1  0
 28 74  1  0
 28 75  1  0
 29 76  1  0
 29 77  1  0
 30 78  1  0
 30 79  1  0
 32 80  1  0
 32 81  1  0
 32 82  1  0
M  END
>  <meeko>  (16) 
{"is_sidechain": [false], "intermolecular_energy": 2.731, "internal_energy": -0.839}

$$$$
EPH_relaxed_0001_pdb2pqr_Repair_35_r2_0001_out
     RDKit          3D

 82 86  0  0  0  0  0  0  0  0999 V2000
   -2.0460    7.7840   -2.1500 C   0  0  0  0  0  0  0  0  0  0  0  0
   -2.1700    8.4530   -0.7790 C   0  0  2  0  0  0  0  0  0  0  0  0
   -3.6240    8.4600   -0.2650 C   0  0  0  0  0  0  0  0  0  0  0  0
   -4.6680    8.2930   -1.3710 C   0  0  0  0  0  0  0  0  0  0  0  0
   -5.6740    7.2360   -1.0290 C   0  0  2  0  0  0  0  0  0  0  0  0
   -6.0750    6.4110   -2.1300 O   0  0  0  0  0  0  0  0  0  0  0  0
   -7.0990    7.2360   -1.5510 C   0  0  0  0  0  0  0  0  0  0  0  0
   -7.5970    8.3160   -2.4600 C   0  0  0  0  0  0  0  0  0  0  0  0
   -8.1380    6.4670   -0.7970 C   0  0  0  0  0  0  0  0  0  0  0  0
   -1.6350    9.8790   -0.8460 C   0  0  1  0  0  0  0  0  0  0  0  0
   -1.1640   10.4060    0.5360 C   0  0  0  0  0  0  0  0  0  0  0  0
    0.0590   11.3220    0.2720 C   0  0  0  0  0  0  0  0  0  0  0  0
    0.0470   11.5570   -1.2570 C   0  0  1  0  0  0  0  0  0  0  0  0
   -1.0060   12.6870   -1.4810 C   0  0  0  0  0  0  0  0  0  0  0  0
    1.4220   11.9120   -1.9120 C   0  0  2  0  0  0  0  0  0  0  0  0
    2.0580   13.2250   -1.4230 C   0  0  0  0  0  0  0  0  0  0  0  0
    1.6890   14.4420   -2.2060 C   0  0  0  0  0  0  0  0  0  0  0  0
    1.1130   14.4450   -3.4220 C   0  0  0  0  0  0  0  0  0  0  0  0
    0.8620   13.1340   -4.1780 C   0  0  1  0  0  0  0  0  0  0  0  0
    1.3270   13.2870   -5.6490 C   0  0  0  0  0  0  0  0  0  0  0  0
    0.6930   14.4900   -6.3410 C   0  0  0  0  0  0  0  0  0  0  0  0
    1.0130   15.7810   -5.5930 C   0  0  2  0  0  0  0  0  0  0  0  0
    2.4170   16.0380   -5.6960 O   0  0  0  0  0  0  0  0  0  0  0  0
    0.5980   15.7410   -4.0960 C   0  0  0  0  0  0  0  0  0  0  0  0
   -0.9470   15.7670   -3.9830 C   0  0  0  0  0  0  0  0  0  0  0  0
    1.1040   17.0460   -3.4240 C   0  0  0  0  0  0  0  0  0  0  0  0
    1.4310   11.8180   -3.4910 C   0  0  1  0  0  0  0  0  0  0  0  0
    2.9150   11.5960   -3.9160 C   0  0  0  0  0  0  0  0  0  0  0  0
    0.6270   10.5730   -4.0210 C   0  0  0  0  0  0  0  0  0  0  0  0
   -0.6600   10.2010   -3.2590 C   0  0  0  0  0  0  0  0  0  0  0  0
   -0.4030   10.1340   -1.7500 C   0  0  2  0  0  0  0  0  0  0  0  0
    0.6370    8.9910   -1.4920 C   0  0  0  0  0  0  0  0  0  0  0  0
   -1.8470    6.7103   -2.0174 H   0  0  0  0  0  0  0  0  0  0  0  0
   -2.9840    7.9168   -2.7090 H   0  0  0  0  0  0  0  0  0  0  0  0
   -1.2178    8.2441   -2.7090 H   0  0  0  0  0  0  0  0  0  0  0  0
   -1.5715    7.8639   -0.0685 H   0  0  0  0  0  0  0  0  0  0  0  0
   -3.7428    7.6345    0.4522 H   0  0  0  0  0  0  0  0  0  0  0  0
   -3.7976    9.4439    0.1951 H   0  0  0  0  0  0  0  0  0  0  0  0
   -5.1912    9.2499   -1.5147 H   0  0  0  0  0  0  0  0  0  0  0  0
   -4.1475    7.9862   -2.2902 H   0  0  0  0  0  0  0  0  0  0  0  0
   -5.2597    7.1380   -0.0147 H   0  0  0  0  0  0  0  0  0  0  0  0
   -7.9827    9.1525   -1.8587 H   0  0  0  0  0  0  0  0  0  0  0  0
   -6.7715    8.6707   -3.0946 H   0  0  0  0  0  0  0  0  0  0  0  0
   -8.4027    7.9185   -3.0946 H   0  0  0  0  0  0  0  0  0  0  0  0
   -7.9726    6.5894    0.2836 H   0  0  0  0  0  0  0  0  0  0  0  0
   -9.1369    6.8451   -1.0602 H   0  0  0  0  0  0  0  0  0  0  0  0
   -8.0683    5.4012   -1.0602 H   0  0  0  0  0  0  0  0  0  0  0  0
   -2.5178   10.3881   -1.2601 H   0  0  0  0  0  0  0  0  0  0  0  0
   -1.9698   10.9794    1.0175 H   0  0  0  0  0  0  0  0  0  0  0  0
   -0.8980    9.5751    1.2059 H   0  0  0  0  0  0  0  0  0  0  0  0
   -0.0453   12.2745    0.8122 H   0  0  0  0  0  0  0  0  0  0  0  0
    1.0008   10.8707    0.6175 H   0  0  0  0  0  0  0  0  0  0  0  0
   -1.3549   13.0614   -0.5073 H   0  0  0  0  0  0  0  0  0  0  0  0
   -0.5456   13.5103   -2.0468 H   0  0  0  0  0  0  0  0  0  0  0  0
   -1.8597   12.2857   -2.0468 H   0  0  0  0  0  0  0  0  0  0  0  0
    2.0747   11.1080   -1.5410 H   0  0  0  0  0  0  0  0  0  0  0  0
    1.7482   13.3850   -0.3797 H   0  0  0  0  0  0  0  0  0  0  0  0
    3.1442   13.1016   -1.5456 H   0  0  0  0  0  0  0  0  0  0  0  0
    1.9066   15.4190   -1.7498 H   0  0  0  0  0  0  0  0  0  0  0  0
   -0.2249   12.9679   -4.1464 H   0  0  0  0  0  0  0  0  0  0  0  0
    2.4202   13.4082   -5.6624 H   0  0  0  0  0  0  0  0  0  0  0  0
    1.0130   12.3846   -6.1940 H   0  0  0  0  0  0  0  0  0  0  0  0
    1.0834   14.5622   -7.3669 H   0  0  0  0  0  0  0  0  0  0  0  0
   -0.3983   14.3528   -6.3534 H   0  0  0  0  0  0  0  0  0  0  0  0
    0.4264   16.5861   -6.0596 H   0  0  0  0  0  0  0  0  0  0  0  0
    2.5500   16.9950   -5.5950 H   0  0  0  0  0  0  0  0  0  0  0  0
   -1.2370   15.7719   -2.9219 H   0  0  0  0  0  0  0  0  0  0  0  0
   -1.3353   16.6718   -4.4734 H   0  0  0  0  0  0  0  0  0  0  0  0
   -1.3656   14.8758   -4.4734 H   0  0  0  0  0  0  0  0  0  0  0  0
    1.0612   16.9357   -2.3304 H   0  0  0  0  0  0  0  0  0  0  0  0
    2.1420   17.2388   -3.7328 H   0  0  0  0  0  0  0  0  0  0  0  0
    0.4672   17.8881   -3.7328 H   0  0  0  0  0  0  0  0  0  0  0  0
    3.5434   11.5020   -3.0181 H   0  0  0  0  0  0  0  0  0  0  0  0
    2.9913   10.6765   -4.5148 H   0  0  0  0  0  0  0  0  0  0  0  0
    3.2570   12.4530   -4.5148 H   0  0  0  0  0  0  0  0  0  0  0  0
    0.3482   10.7770   -5.0653 H   0  0  0  0  0  0  0  0  0  0  0  0
    1.3013    9.7150   -3.8830 H   0  0  0  0  0  0  0  0  0  0  0  0
   -1.4296   10.9609   -3.4597 H   0  0  0  0  0  0  0  0  0  0  0  0
   -0.9975    9.2118   -3.6019 H   0  0  0  0  0  0  0  0  0  0  0  0
    0.7655    8.8498   -0.4087 H   0  0  0  0  0  0  0  0  0  0  0  0
    0.2736    8.0559   -1.9431 H   0  0  0  0  0  0  0  0  0  0  0  0
    1.6022    9.2648   -1.9431 H   0  0  0  0  0  0  0  0  0  0  0  0
  1  2  1  0
  2  3  1  0
  3  4  1  0
  4  5  1  0
  5  6  1  0
  6  7  1  0
  7  8  1  0
  7  9  1  0
  2 10  1  0
 10 11  1  0
 11 12  1  0
 12 13  1  0
 13 14  1  1
 13 15  1  0
 15 16  1  0
 16 17  1  0
 17 18  2  0
 18 19  1  0
 19 20  1  0
 20 21  1  0
 21 22  1  0
 22 23  1  0
 22 24  1  0
 24 25  1  0
 24 26  1  0
 19 27  1  0
 27 28  1  6
 27 29  1  0
 29 30  1  0
 30 31  1  0
 31 32  1  6
  7  5  1  0
 31 10  1  0
 31 13  1  0
 27 15  1  0
 24 18  1  0
  1 33  1  0
  1 34  1  0
  1 35  1  0
  2 36  1  1
  3 37  1  0
  3 38  1  0
  4 39  1  0
  4 40  1  0
  5 41  1  1
  8 42  1  0
  8 43  1  0
  8 44  1  0
  9 45  1  0
  9 46  1  0
  9 47  1  0
 10 48  1  6
 11 49  1  0
 11 50  1  0
 12 51  1  0
 12 52  1  0
 14 53  1  0
 14 54  1  0
 14 55  1  0
 15 56  1  1
 16 57  1  0
 16 58  1  0
 17 59  1  0
 19 60  1  6
 20 61  1  0
 20 62  1  0
 21 63  1  0
 21 64  1  0
 22 65  1  6
 23 66  1  0
 25 67  1  0
 25 68  1  0
 25 69  1  0
 26 70  1  0
 26 71  1  0
 26 72  1  0
 28 73  1  0
 28 74  1  0
 28 75  1  0
 29 76  1  0
 29 77  1  0
 30 78  1  0
 30 79  1  0
 32 80  1  0
 32 81  1  0
 32 82  1  0
M  END
>  <meeko>  (17) 
{"is_sidechain": [false], "intermolecular_energy": 2.731, "internal_energy": -0.839}

$$$$
EPH_relaxed_0001_pdb2pqr_Repair_35_r2_0001_out
     RDKit          3D

 82 86  0  0  0  0  0  0  0  0999 V2000
    2.8480   11.3670   -5.3580 C   0  0  0  0  0  0  0  0  0  0  0  0
    1.8410   11.0580   -4.2470 C   0  0  2  0  0  0  0  0  0  0  0  0
    0.7230   10.1090   -4.7240 C   0  0  0  0  0  0  0  0  0  0  0  0
   -0.3460    9.8350   -3.6640 C   0  0  0  0  0  0  0  0  0  0  0  0
    0.2000    9.0400   -2.5170 C   0  0  2  0  0  0  0  0  0  0  0  0
   -0.6310    7.9510   -2.0930 O   0  0  0  0  0  0  0  0  0  0  0  0
   -0.4380    9.0090   -1.1410 C   0  0  0  0  0  0  0  0  0  0  0  0
   -1.6780    9.7900   -0.8380 C   0  0  0  0  0  0  0  0  0  0  0  0
    0.4080    8.6190    0.0310 C   0  0  0  0  0  0  0  0  0  0  0  0
    1.2340   12.3530   -3.7210 C   0  0  1  0  0  0  0  0  0  0  0  0
   -0.3050   12.2620   -3.5380 C   0  0  0  0  0  0  0  0  0  0  0  0
   -0.6600   13.1170   -2.2950 C   0  0  0  0  0  0  0  0  0  0  0  0
    0.6220   13.9330   -2.0040 C   0  0  1  0  0  0  0  0  0  0  0  0
    0.5690   15.1320   -3.0010 C   0  0  0  0  0  0  0  0  0  0  0  0
    0.8140   14.4160   -0.5290 C   0  0  2  0  0  0  0  0  0  0  0  0
   -0.2660   15.3830   -0.0140 C   0  0  0  0  0  0  0  0  0  0  0  0
    0.0200   16.8320   -0.2290 C   0  0  0  0  0  0  0  0  0  0  0  0
    1.2190   17.3530   -0.5520 C   0  0  0  0  0  0  0  0  0  0  0  0
    2.4660   16.4640   -0.6370 C   0  0  1  0  0  0  0  0  0  0  0  0
    3.6410   17.1480    0.1110 C   0  0  0  0  0  0  0  0  0  0  0  0
    3.9010   18.5680   -0.3830 C   0  0  0  0  0  0  0  0  0  0  0  0
    2.6550   19.4360   -0.2280 C   0  0  2  0  0  0  0  0  0  0  0  0
    2.3850   19.6100    1.1660 O   0  0  0  0  0  0  0  0  0  0  0  0
    1.4030   18.8420   -0.9330 C   0  0  0  0  0  0  0  0  0  0  0  0
    1.5790   18.9330   -2.4690 C   0  0  0  0  0  0  0  0  0  0  0  0
    0.1870   19.7400   -0.5820 C   0  0  0  0  0  0  0  0  0  0  0  0
    2.2680   14.9480   -0.2050 C   0  0  1  0  0  0  0  0  0  0  0  0
    2.4620   14.8030    1.3350 C   0  0  0  0  0  0  0  0  0  0  0  0
    3.3900   14.0710   -0.8780 C   0  0  0  0  0  0  0  0  0  0  0  0
    3.0920   13.5240   -2.2870 C   0  0  0  0  0  0  0  0  0  0  0  0
    1.7160   12.8530   -2.3360 C   0  0  2  0  0  0  0  0  0  0  0  0
    1.7460   11.6280   -1.3590 C   0  0  0  0  0  0  0  0  0  0  0  0
    3.8087   11.6618   -4.9105 H   0  0  0  0  0  0  0  0  0  0  0  0
    2.9929   10.4720   -5.9809 H   0  0  0  0  0  0  0  0  0  0  0  0
    2.4660   12.1892   -5.9809 H   0  0  0  0  0  0  0  0  0  0  0  0
    2.3860   10.5473   -3.4394 H   0  0  0  0  0  0  0  0  0  0  0  0
    0.2351   10.5603   -5.6005 H   0  0  0  0  0  0  0  0  0  0  0  0
    1.1981    9.1448   -4.9577 H   0  0  0  0  0  0  0  0  0  0  0  0
   -0.7249   10.7951   -3.2836 H   0  0  0  0  0  0  0  0  0  0  0  0
   -1.1513    9.2506   -4.1330 H   0  0  0  0  0  0  0  0  0  0  0  0
    1.2320    9.2286   -2.8478 H   0  0  0  0  0  0  0  0  0  0  0  0
   -1.8041    9.8694    0.2519 H   0  0  0  0  0  0  0  0  0  0  0  0
   -1.5920   10.7973   -1.2716 H   0  0  0  0  0  0  0  0  0  0  0  0
   -2.5493    9.2774   -1.2716 H   0  0  0  0  0  0  0  0  0  0  0  0
   -0.1221    8.8634    0.9633 H   0  0  0  0  0  0  0  0  0  0  0  0
    0.6078    7.5379   -0.0046 H   0  0  0  0  0  0  0  0  0  0  0  0
    1.3599    9.1692   -0.0046 H   0  0  0  0  0  0  0  0  0  0  0  0
    1.5670   13.0450   -4.5086 H   0  0  0  0  0  0  0  0  0  0  0  0
   -0.8161   12.6575   -4.4281 H   0  0  0  0  0  0  0  0  0  0  0  0
   -0.6252   11.2183   -3.4034 H   0  0  0  0  0  0  0  0  0  0  0  0
   -1.5054   13.7863   -2.5125 H   0  0  0  0  0  0  0  0  0  0  0  0
   -0.9654   12.4997   -1.4373 H   0  0  0  0  0  0  0  0  0  0  0  0
    0.5273   16.0758   -2.4376 H   0  0  0  0  0  0  0  0  0  0  0  0
    1.4684   15.1224   -3.6342 H   0  0  0  0  0  0  0  0  0  0  0  0
   -0.3261   15.0431   -3.6342 H   0  0  0  0  0  0  0  0  0  0  0  0
    0.6802   13.4860    0.0431 H   0  0  0  0  0  0  0  0  0  0  0  0
   -1.2092   15.1431   -0.5266 H   0  0  0  0  0  0  0  0  0  0  0  0
   -0.3077   15.2397    1.0758 H   0  0  0  0  0  0  0  0  0  0  0  0
   -0.8194   17.5335   -0.1139 H   0  0  0  0  0  0  0  0  0  0  0  0
    2.7046   16.3765   -1.7072 H   0  0  0  0  0  0  0  0  0  0  0  0
    3.4015   17.1861    1.1839 H   0  0  0  0  0  0  0  0  0  0  0  0
    4.5484   16.5564   -0.0803 H   0  0  0  0  0  0  0  0  0  0  0  0
    4.7216   19.0083    0.2025 H   0  0  0  0  0  0  0  0  0  0  0  0
    4.1690   18.5254   -1.4490 H   0  0  0  0  0  0  0  0  0  0  0  0
    2.8616   20.4000   -0.7158 H   0  0  0  0  0  0  0  0  0  0  0  0
    3.1130   20.1320    1.5440 H   0  0  0  0  0  0  0  0  0  0  0  0
    2.5343   19.4270   -2.7000 H   0  0  0  0  0  0  0  0  0  0  0  0
    1.5763   17.9205   -2.8990 H   0  0  0  0  0  0  0  0  0  0  0  0
    0.7513   19.5161   -2.8990 H   0  0  0  0  0  0  0  0  0  0  0  0
    0.0884   19.8128    0.5111 H   0  0  0  0  0  0  0  0  0  0  0  0
    0.3389   20.7443   -1.0042 H   0  0  0  0  0  0  0  0  0  0  0  0
   -0.7282   19.2994   -1.0042 H   0  0  0  0  0  0  0  0  0  0  0  0
    1.6870   15.3822    1.8583 H   0  0  0  0  0  0  0  0  0  0  0  0
    2.3802   13.7428    1.6167 H   0  0  0  0  0  0  0  0  0  0  0  0
    3.4556   15.1816    1.6167 H   0  0  0  0  0  0  0  0  0  0  0  0
    4.2985   14.6874   -0.9456 H   0  0  0  0  0  0  0  0  0  0  0  0
    3.4832   13.1815   -0.2376 H   0  0  0  0  0  0  0  0  0  0  0  0
    3.1127   14.3551   -3.0073 H   0  0  0  0  0  0  0  0  0  0  0  0
    3.8563   12.7748   -2.5408 H   0  0  0  0  0  0  0  0  0  0  0  0
    1.7372   11.9877   -0.3195 H   0  0  0  0  0  0  0  0  0  0  0  0
    0.8631   10.9962   -1.5359 H   0  0  0  0  0  0  0  0  0  0  0  0
    2.6588   11.0402   -1.5359 H   0  0  0  0  0  0  0  0  0  0  0  0
  1  2  1  0
  2  3  1  0
  3  4  1  0
  4  5  1  0
  5  6  1  0
  6  7  1  0
  7  8  1  0
  7  9  1  0
  2 10  1  0
 10 11  1  0
 11 12  1  0
 12 13  1  0
 13 14  1  6
 13 15  1  0
 15 16  1  0
 16 17  1  0
 17 18  2  0
 18 19  1  0
 19 20  1  0
 20 21  1  0
 21 22  1  0
 22 23  1  0
 22 24  1  0
 24 25  1  0
 24 26  1  0
 19 27  1  0
 27 28  1  1
 27 29  1  0
 29 30  1  0
 30 31  1  0
 31 32  1  1
  7  5  1  0
 31 10  1  0
 31 13  1  0
 27 15  1  0
 24 18  1  0
  1 33  1  0
  1 34  1  0
  1 35  1  0
  2 36  1  1
  3 37  1  0
  3 38  1  0
  4 39  1  0
  4 40  1  0
  5 41  1  1
  8 42  1  0
  8 43  1  0
  8 44  1  0
  9 45  1  0
  9 46  1  0
  9 47  1  0
 10 48  1  6
 11 49  1  0
 11 50  1  0
 12 51  1  0
 12 52  1  0
 14 53  1  0
 14 54  1  0
 14 55  1  0
 15 56  1  1
 16 57  1  0
 16 58  1  0
 17 59  1  0
 19 60  1  6
 20 61  1  0
 20 62  1  0
 21 63  1  0
 21 64  1  0
 22 65  1  6
 23 66  1  0
 25 67  1  0
 25 68  1  0
 25 69  1  0
 26 70  1  0
 26 71  1  0
 26 72  1  0
 28 73  1  0
 28 74  1  0
 28 75  1  0
 29 76  1  0
 29 77  1  0
 30 78  1  0
 30 79  1  0
 32 80  1  0
 32 81  1  0
 32 82  1  0
M  END
>  <meeko>  (18) 
{"is_sidechain": [false], "intermolecular_energy": 2.731, "internal_energy": -0.839}

$$$$
EPH_relaxed_0001_pdb2pqr_Repair_35_r2_0001_out
     RDKit          3D

 82 86  0  0  0  0  0  0  0  0999 V2000
    0.9900   14.9380   -2.7180 C   0  0  0  0  0  0  0  0  0  0  0  0
    1.2170   14.2570   -4.0700 C   0  0  2  0  0  0  0  0  0  0  0  0
    0.4760   14.9780   -5.2150 C   0  0  0  0  0  0  0  0  0  0  0  0
    0.9840   14.6020   -6.6090 C   0  0  0  0  0  0  0  0  0  0  0  0
    0.8130   15.7280   -7.5840 C   0  0  2  0  0  0  0  0  0  0  0  0
    0.4160   15.3240   -8.9010 O   0  0  0  0  0  0  0  0  0  0  0  0
    1.7110   15.9350   -8.7890 C   0  0  0  0  0  0  0  0  0  0  0  0
    2.8490   15.0080   -9.0820 C   0  0  0  0  0  0  0  0  0  0  0  0
    1.7890   17.3010   -9.3970 C   0  0  0  0  0  0  0  0  0  0  0  0
    0.7750   12.8000   -3.9990 C   0  0  1  0  0  0  0  0  0  0  0  0
    1.9080   11.8130   -4.3860 C   0  0  0  0  0  0  0  0  0  0  0  0
    1.7250   10.5540   -3.5000 C   0  0  0  0  0  0  0  0  0  0  0  0
    0.3180   10.7150   -2.8790 C   0  0  1  0  0  0  0  0  0  0  0  0
   -0.6680   10.2310   -3.9890 C   0  0  0  0  0  0  0  0  0  0  0  0
    0.0710    9.9730   -1.5250 C   0  0  2  0  0  0  0  0  0  0  0  0
    0.1830    8.4400   -1.5900 C   0  0  0  0  0  0  0  0  0  0  0  0
   -1.0890    7.7200   -1.8940 C   0  0  0  0  0  0  0  0  0  0  0  0
   -2.3240    8.2510   -1.8240 C   0  0  0  0  0  0  0  0  0  0  0  0
   -2.5390    9.6810   -1.3130 C   0  0  1  0  0  0  0  0  0  0  0  0
   -3.7070    9.6960   -0.2930 C   0  0  0  0  0  0  0  0  0  0  0  0
   -4.9840    9.0800   -0.8570 C   0  0  0  0  0  0  0  0  0  0  0  0
   -4.7440    7.6390   -1.3010 C   0  0  2  0  0  0  0  0  0  0  0  0
   -4.4690    6.8410   -0.1460 O   0  0  0  0  0  0  0  0  0  0  0  0
   -3.5820    7.4980   -2.3230 C   0  0  0  0  0  0  0  0  0  0  0  0
   -4.0070    8.1080   -3.6820 C   0  0  0  0  0  0  0  0  0  0  0  0
   -3.3530    5.9840   -2.5790 C   0  0  0  0  0  0  0  0  0  0  0  0
   -1.2440   10.4250   -0.7690 C   0  0  1  0  0  0  0  0  0  0  0  0
   -1.0300   10.0850    0.7380 C   0  0  0  0  0  0  0  0  0  0  0  0
   -1.4740   11.9800   -0.8450 C   0  0  0  0  0  0  0  0  0  0  0  0
   -1.0990   12.6740   -2.1690 C   0  0  0  0  0  0  0  0  0  0  0  0
    0.3060   12.2660   -2.6230 C   0  0  2  0  0  0  0  0  0  0  0  0
    1.3220   12.7590   -1.5370 C   0  0  0  0  0  0  0  0  0  0  0  0
    1.2253   14.2321   -1.9078 H   0  0  0  0  0  0  0  0  0  0  0  0
    1.6429   15.8196   -2.6373 H   0  0  0  0  0  0  0  0  0  0  0  0
   -0.0613   15.2516   -2.6373 H   0  0  0  0  0  0  0  0  0  0  0  0
    2.2936   14.3082   -4.2899 H   0  0  0  0  0  0  0  0  0  0  0  0
   -0.5919   14.7213   -5.1535 H   0  0  0  0  0  0  0  0  0  0  0  0
    0.6565   16.0555   -5.0867 H   0  0  0  0  0  0  0  0  0  0  0  0
    2.0520   14.3472   -6.5425 H   0  0  0  0  0  0  0  0  0  0  0  0
    0.3958   13.7448   -6.9686 H   0  0  0  0  0  0  0  0  0  0  0  0
    0.4886   16.4057   -6.7806 H   0  0  0  0  0  0  0  0  0  0  0  0
    3.2852   14.6527   -8.1368 H   0  0  0  0  0  0  0  0  0  0  0  0
    2.4818   14.1487   -9.6623 H   0  0  0  0  0  0  0  0  0  0  0  0
    3.6163   15.5414   -9.6623 H   0  0  0  0  0  0  0  0  0  0  0  0
    1.8321   18.0560   -8.5982 H   0  0  0  0  0  0  0  0  0  0  0  0
    2.6928   17.3741  -10.0198 H   0  0  0  0  0  0  0  0  0  0  0  0
    0.8994   17.4765  -10.0198 H   0  0  0  0  0  0  0  0  0  0  0  0
   -0.0728   12.8296   -4.6993 H   0  0  0  0  0  0  0  0  0  0  0  0
    1.8285   11.5429   -5.4494 H   0  0  0  0  0  0  0  0  0  0  0  0
    2.8979   12.2663   -4.2292 H   0  0  0  0  0  0  0  0  0  0  0  0
    1.7783    9.6395   -4.1090 H   0  0  0  0  0  0  0  0  0  0  0  0
    2.5106   10.4643   -2.7353 H   0  0  0  0  0  0  0  0  0  0  0  0
   -1.5613    9.7925   -3.5202 H   0  0  0  0  0  0  0  0  0  0  0  0
   -0.9644   11.0860   -4.6144 H   0  0  0  0  0  0  0  0  0  0  0  0
   -0.1729    9.4735   -4.6144 H   0  0  0  0  0  0  0  0  0  0  0  0
    0.9222   10.3082   -0.9143 H   0  0  0  0  0  0  0  0  0  0  0  0
    0.9130    8.1854   -2.3725 H   0  0  0  0  0  0  0  0  0  0  0  0
    0.4842    8.1139   -0.5835 H   0  0  0  0  0  0  0  0  0  0  0  0
   -1.0104    6.6667   -2.2011 H   0  0  0  0  0  0  0  0  0  0  0  0
   -2.8057   10.2822   -2.1947 H   0  0  0  0  0  0  0  0  0  0  0  0
   -3.4044    9.1264    0.5981 H   0  0  0  0  0  0  0  0  0  0  0  0
   -3.9229   10.7464   -0.0479 H   0  0  0  0  0  0  0  0  0  0  0  0
   -5.7632    9.0926   -0.0807 H   0  0  0  0  0  0  0  0  0  0  0  0
   -5.3020    9.6684   -1.7303 H   0  0  0  0  0  0  0  0  0  0  0  0
   -5.6547    7.2956   -1.8134 H   0  0  0  0  0  0  0  0  0  0  0  0
   -4.4520    5.9110   -0.4280 H   0  0  0  0  0  0  0  0  0  0  0  0
   -4.6277    8.9989   -3.5059 H   0  0  0  0  0  0  0  0  0  0  0  0
   -3.1106    8.3926   -4.2525 H   0  0  0  0  0  0  0  0  0  0  0  0
   -4.5845    7.3657   -4.2525 H   0  0  0  0  0  0  0  0  0  0  0  0
   -3.2733    5.4573   -1.6166 H   0  0  0  0  0  0  0  0  0  0  0  0
   -4.1997    5.5766   -3.1509 H   0  0  0  0  0  0  0  0  0  0  0  0
   -2.4237    5.8453   -3.1509 H   0  0  0  0  0  0  0  0  0  0  0  0
   -1.5135   10.8532    1.3594 H   0  0  0  0  0  0  0  0  0  0  0  0
   -1.4729    9.1026    0.9587 H   0  0  0  0  0  0  0  0  0  0  0  0
    0.0473   10.0594    0.9587 H   0  0  0  0  0  0  0  0  0  0  0  0
   -2.5423   12.1677   -0.6618 H   0  0  0  0  0  0  0  0  0  0  0  0
   -0.7951   12.4085   -0.0930 H   0  0  0  0  0  0  0  0  0  0  0  0
   -1.8251   12.3871   -2.9439 H   0  0  0  0  0  0  0  0  0  0  0  0
   -1.1144   13.7625   -2.0111 H   0  0  0  0  0  0  0  0  0  0  0  0
    0.9130   12.5606   -0.5353 H   0  0  0  0  0  0  0  0  0  0  0  0
    2.2752   12.2232   -1.6566 H   0  0  0  0  0  0  0  0  0  0  0  0
    1.4911   13.8393   -1.6566 H   0  0  0  0  0  0  0  0  0  0  0  0
  1  2  1  0
  2  3  1  0
  3  4  1  0
  4  5  1  0
  5  6  1  0
  6  7  1  0
  7  8  1  0
  7  9  1  0
  2 10  1  0
 10 11  1  0
 11 12  1  0
 12 13  1  0
 13 14  1  6
 13 15  1  0
 15 16  1  0
 16 17  1  0
 17 18  2  0
 18 19  1  0
 19 20  1  0
 20 21  1  0
 21 22  1  0
 22 23  1  0
 22 24  1  0
 24 25  1  0
 24 26  1  0
 19 27  1  0
 27 28  1  1
 27 29  1  0
 29 30  1  0
 30 31  1  0
 31 32  1  1
  7  5  1  0
 31 10  1  0
 31 13  1  0
 27 15  1  0
 24 18  1  0
  1 33  1  0
  1 34  1  0
  1 35  1  0
  2 36  1  6
  3 37  1  0
  3 38  1  0
  4 39  1  0
  4 40  1  0
  5 41  1  1
  8 42  1  0
  8 43  1  0
  8 44  1  0
  9 45  1  0
  9 46  1  0
  9 47  1  0
 10 48  1  6
 11 49  1  0
 11 50  1  0
 12 51  1  0
 12 52  1  0
 14 53  1  0
 14 54  1  0
 14 55  1  0
 15 56  1  1
 16 57  1  0
 16 58  1  0
 17 59  1  0
 19 60  1  6
 20 61  1  0
 20 62  1  0
 21 63  1  0
 21 64  1  0
 22 65  1  6
 23 66  1  0
 25 67  1  0
 25 68  1  0
 25 69  1  0
 26 70  1  0
 26 71  1  0
 26 72  1  0
 28 73  1  0
 28 74  1  0
 28 75  1  0
 29 76  1  0
 29 77  1  0
 30 78  1  0
 30 79  1  0
 32 80  1  0
 32 81  1  0
 32 82  1  0
M  END
>  <meeko>  (19) 
{"is_sidechain": [false], "intermolecular_energy": 2.731, "internal_energy": -0.839}

$$$$
