EPH_relaxed_0001_pdb2pqr_Repair_110_r2_0001_out
     RDKit          3D

 82 86  0  0  0  0  0  0  0  0999 V2000
   -1.4170    8.5160   -1.5000 C   0  0  0  0  0  0  0  0  0  0  0  0
   -2.0290    9.3220   -0.3500 C   0  0  2  0  0  0  0  0  0  0  0  0
   -3.4600    9.7960   -0.6710 C   0  0  0  0  0  0  0  0  0  0  0  0
   -4.4950    8.6670   -0.6790 C   0  0  0  0  0  0  0  0  0  0  0  0
   -5.7350    9.0580   -1.4240 C   0  0  2  0  0  0  0  0  0  0  0  0
   -6.9010    8.2920   -1.0900 O   0  0  0  0  0  0  0  0  0  0  0  0
   -6.4200    8.1590   -2.4370 C   0  0  0  0  0  0  0  0  0  0  0  0
   -5.8860    6.8000   -2.7620 C   0  0  0  0  0  0  0  0  0  0  0  0
   -7.3150    8.7870   -3.4610 C   0  0  0  0  0  0  0  0  0  0  0  0
   -1.1440   10.5190   -0.0260 C   0  0  1  0  0  0  0  0  0  0  0  0
   -0.0630   10.1930    1.0390 C   0  0  0  0  0  0  0  0  0  0  0  0
    1.1970   11.0150    0.6640 C   0  0  0  0  0  0  0  0  0  0  0  0
    0.7010   12.0290   -0.3940 C   0  0  1  0  0  0  0  0  0  0  0  0
    0.0420   13.1780    0.4310 C   0  0  0  0  0  0  0  0  0  0  0  0
    1.7780   12.5750   -1.3860 C   0  0  2  0  0  0  0  0  0  0  0  0
    2.9200   13.3740   -0.7350 C   0  0  0  0  0  0  0  0  0  0  0  0
    2.6850   14.8440   -0.6210 C   0  0  0  0  0  0  0  0  0  0  0  0
    1.7350   15.5370   -1.2760 C   0  0  0  0  0  0  0  0  0  0  0  0
    0.8340   14.8530   -2.3120 C   0  0  1  0  0  0  0  0  0  0  0  0
    0.7530   15.7330   -3.5880 C   0  0  0  0  0  0  0  0  0  0  0  0
    0.3140   17.1620   -3.2860 C   0  0  0  0  0  0  0  0  0  0  0  0
    1.2670   17.8280   -2.2970 C   0  0  2  0  0  0  0  0  0  0  0  0
    2.5410   17.9950   -2.9260 O   0  0  0  0  0  0  0  0  0  0  0  0
    1.4360   17.0270   -0.9760 C   0  0  0  0  0  0  0  0  0  0  0  0
    0.1290   17.1030   -0.1490 C   0  0  0  0  0  0  0  0  0  0  0  0
    2.5290   17.7320   -0.1270 C   0  0  0  0  0  0  0  0  0  0  0  0
    1.1800   13.3370   -2.6380 C   0  0  1  0  0  0  0  0  0  0  0  0
    2.2590   13.2660   -3.7610 C   0  0  0  0  0  0  0  0  0  0  0  0
   -0.1050   12.6290   -3.2110 C   0  0  0  0  0  0  0  0  0  0  0  0
   -1.0700   12.0040   -2.1860 C   0  0  0  0  0  0  0  0  0  0  0  0
   -0.3140   11.1250   -1.1850 C   0  0  2  0  0  0  0  0  0  0  0  0
    0.3420    9.9470   -1.9830 C   0  0  0  0  0  0  0  0  0  0  0  0
   -0.7997    7.7030   -1.0901 H   0  0  0  0  0  0  0  0  0  0  0  0
   -2.2212    8.0900   -2.1178 H   0  0  0  0  0  0  0  0  0  0  0  0
   -0.7906    9.1762   -2.1178 H   0  0  0  0  0  0  0  0  0  0  0  0
   -2.0899    8.6575    0.5245 H   0  0  0  0  0  0  0  0  0  0  0  0
   -3.7589   10.5358    0.0862 H   0  0  0  0  0  0  0  0  0  0  0  0
   -3.4384   10.2196   -1.6859 H   0  0  0  0  0  0  0  0  0  0  0  0
   -4.0537    7.7820   -1.1607 H   0  0  0  0  0  0  0  0  0  0  0  0
   -4.7744    8.4502    0.3626 H   0  0  0  0  0  0  0  0  0  0  0  0
   -5.4050   10.1063   -1.4713 H   0  0  0  0  0  0  0  0  0  0  0  0
   -5.6727    6.2572   -1.8293 H   0  0  0  0  0  0  0  0  0  0  0  0
   -6.6322    6.2433   -3.3478 H   0  0  0  0  0  0  0  0  0  0  0  0
   -4.9604    6.9002   -3.3478 H   0  0  0  0  0  0  0  0  0  0  0  0
   -8.1144    9.3479   -2.9547 H   0  0  0  0  0  0  0  0  0  0  0  0
   -6.7280    9.4723   -4.0901 H   0  0  0  0  0  0  0  0  0  0  0  0
   -7.7598    8.0019   -4.0901 H   0  0  0  0  0  0  0  0  0  0  0  0
   -1.9143   11.2339    0.2989 H   0  0  0  0  0  0  0  0  0  0  0  0
   -0.4185   10.4800    2.0396 H   0  0  0  0  0  0  0  0  0  0  0  0
    0.1597    9.1160    1.0587 H   0  0  0  0  0  0  0  0  0  0  0  0
    1.5962   11.5378    1.5457 H   0  0  0  0  0  0  0  0  0  0  0  0
    2.0112   10.3804    0.2840 H   0  0  0  0  0  0  0  0  0  0  0  0
    0.1599   12.9724    1.5052 H   0  0  0  0  0  0  0  0  0  0  0  0
    0.5299   14.1326    0.1847 H   0  0  0  0  0  0  0  0  0  0  0  0
   -1.0283   13.2389    0.1847 H   0  0  0  0  0  0  0  0  0  0  0  0
    2.2386   11.6507   -1.7649 H   0  0  0  0  0  0  0  0  0  0  0  0
    3.0793   12.9756    0.2779 H   0  0  0  0  0  0  0  0  0  0  0  0
    3.7906   13.2552   -1.3968 H   0  0  0  0  0  0  0  0  0  0  0  0
    3.3438   15.4083    0.0554 H   0  0  0  0  0  0  0  0  0  0  0  0
   -0.1601   14.7755   -1.8474 H   0  0  0  0  0  0  0  0  0  0  0  0
    1.7460   15.7616   -4.0603 H   0  0  0  0  0  0  0  0  0  0  0  0
    0.0005   15.2863   -4.2544 H   0  0  0  0  0  0  0  0  0  0  0  0
    0.3037   17.7407   -4.2214 H   0  0  0  0  0  0  0  0  0  0  0  0
   -0.6912   17.1337   -2.8402 H   0  0  0  0  0  0  0  0  0  0  0  0
    0.8309   18.7993   -2.0206 H   0  0  0  0  0  0  0  0  0  0  0  0
    2.5820   18.9020   -3.2720 H   0  0  0  0  0  0  0  0  0  0  0  0
    0.3725   17.0888    0.9236 H   0  0  0  0  0  0  0  0  0  0  0  0
   -0.4048   18.0337   -0.3916 H   0  0  0  0  0  0  0  0  0  0  0  0
   -0.5091   16.2404   -0.3916 H   0  0  0  0  0  0  0  0  0  0  0  0
    2.3106   17.5912    0.9419 H   0  0  0  0  0  0  0  0  0  0  0  0
    3.5120   17.2973   -0.3608 H   0  0  0  0  0  0  0  0  0  0  0  0
    2.5384   18.8068   -0.3608 H   0  0  0  0  0  0  0  0  0  0  0  0
    3.2582   13.2002   -3.3058 H   0  0  0  0  0  0  0  0  0  0  0  0
    2.0811   12.3776   -4.3848 H   0  0  0  0  0  0  0  0  0  0  0  0
    2.1990   14.1700   -4.3848 H   0  0  0  0  0  0  0  0  0  0  0  0
   -0.6695   13.3784   -3.7853 H   0  0  0  0  0  0  0  0  0  0  0  0
    0.2731   11.7826   -3.8031 H   0  0  0  0  0  0  0  0  0  0  0  0
   -1.5857   12.8082   -1.6407 H   0  0  0  0  0  0  0  0  0  0  0  0
   -1.7955   11.3769   -2.7249 H   0  0  0  0  0  0  0  0  0  0  0  0
    0.7525    9.2098   -1.2773 H   0  0  0  0  0  0  0  0  0  0  0  0
   -0.4177    9.4651   -2.6160 H   0  0  0  0  0  0  0  0  0  0  0  0
    1.1517   10.3390   -2.6160 H   0  0  0  0  0  0  0  0  0  0  0  0
  1  2  1  0
  2  3  1  0
  3  4  1  0
  4  5  1  0
  5  6  1  0
  6  7  1  0
  7  8  1  0
  7  9  1  0
  2 10  1  0
 10 11  1  0
 11 12  1  0
 12 13  1  0
 13 14  1  1
 13 15  1  0
 15 16  1  0
 16 17  1  0
 17 18  2  0
 18 19  1  0
 19 20  1  0
 20 21  1  0
 21 22  1  0
 22 23  1  0
 22 24  1  0
 24 25  1  0
 24 26  1  0
 19 27  1  0
 27 28  1  6
 27 29  1  0
 29 30  1  0
 30 31  1  0
 31 32  1  6
  7  5  1  0
 31 10  1  0
 31 13  1  0
 27 15  1  0
 24 18  1  0
  1 33  1  0
  1 34  1  0
  1 35  1  0
  2 36  1  1
  3 37  1  0
  3 38  1  0
  4 39  1  0
  4 40  1  0
  5 41  1  6
  8 42  1  0
  8 43  1  0
  8 44  1  0
  9 45  1  0
  9 46  1  0
  9 47  1  0
 10 48  1  1
 11 49  1  0
 11 50  1  0
 12 51  1  0
 12 52  1  0
 14 53  1  0
 14 54  1  0
 14 55  1  0
 15 56  1  6
 16 57  1  0
 16 58  1  0
 17 59  1  0
 19 60  1  1
 20 61  1  0
 20 62  1  0
 21 63  1  0
 21 64  1  0
 22 65  1  1
 23 66  1  0
 25 67  1  0
 25 68  1  0
 25 69  1  0
 26 70  1  0
 26 71  1  0
 26 72  1  0
 28 73  1  0
 28 74  1  0
 28 75  1  0
 29 76  1  0
 29 77  1  0
 30 78  1  0
 30 79  1  0
 32 80  1  0
 32 81  1  0
 32 82  1  0
M  END
>  <meeko>  (1) 
{"is_sidechain": [false], "intermolecular_energy": 2.731, "internal_energy": -0.839}

$$$$
EPH_relaxed_0001_pdb2pqr_Repair_110_r2_0001_out
     RDKit          3D

 82 86  0  0  0  0  0  0  0  0999 V2000
    4.0120   17.4200   -0.0180 C   0  0  0  0  0  0  0  0  0  0  0  0
    2.6080   17.9660   -0.2970 C   0  0  2  0  0  0  0  0  0  0  0  0
    2.2100   19.0780    0.6940 C   0  0  0  0  0  0  0  0  0  0  0  0
    3.4060   19.8030    1.3180 C   0  0  0  0  0  0  0  0  0  0  0  0
    3.8230   19.1730    2.6120 C   0  0  2  0  0  0  0  0  0  0  0  0
    4.0550   20.0980    3.6810 O   0  0  0  0  0  0  0  0  0  0  0  0
    5.1980   19.3560    3.2270 C   0  0  0  0  0  0  0  0  0  0  0  0
    6.2440   20.1940    2.5630 C   0  0  0  0  0  0  0  0  0  0  0  0
    5.6840   18.3360    4.2090 C   0  0  0  0  0  0  0  0  0  0  0  0
    1.5900   16.8320   -0.2430 C   0  0  1  0  0  0  0  0  0  0  0  0
    0.1320   17.3300   -0.4280 C   0  0  0  0  0  0  0  0  0  0  0  0
   -0.6220   16.2250   -1.2110 C   0  0  0  0  0  0  0  0  0  0  0  0
    0.3210   14.9990   -1.1610 C   0  0  1  0  0  0  0  0  0  0  0  0
    0.0680   14.3560    0.2380 C   0  0  0  0  0  0  0  0  0  0  0  0
    0.1590   13.9560   -2.3140 C   0  0  2  0  0  0  0  0  0  0  0  0
   -1.2130   13.2610   -2.3780 C   0  0  0  0  0  0  0  0  0  0  0  0
   -1.3240   11.9950   -1.5950 C   0  0  0  0  0  0  0  0  0  0  0  0
   -0.2900   11.2870   -1.1040 C   0  0  0  0  0  0  0  0  0  0  0  0
    1.1580   11.6950   -1.4030 C   0  0  1  0  0  0  0  0  0  0  0  0
    1.9730   10.4430   -1.8230 C   0  0  0  0  0  0  0  0  0  0  0  0
    1.8840    9.3170   -0.7980 C   0  0  0  0  0  0  0  0  0  0  0  0
    0.4340    8.8990   -0.5700 C   0  0  2  0  0  0  0  0  0  0  0  0
   -0.0670    8.3010   -1.7700 O   0  0  0  0  0  0  0  0  0  0  0  0
   -0.4860   10.0800   -0.1520 C   0  0  0  0  0  0  0  0  0  0  0  0
   -0.1310   10.5330    1.2860 C   0  0  0  0  0  0  0  0  0  0  0  0
   -1.9450    9.5520   -0.0930 C   0  0  0  0  0  0  0  0  0  0  0  0
    1.3420   12.9090   -2.4120 C   0  0  1  0  0  0  0  0  0  0  0  0
    1.3510   12.3840   -3.8800 C   0  0  0  0  0  0  0  0  0  0  0  0
    2.7490   13.5720   -2.1680 C   0  0  0  0  0  0  0  0  0  0  0  0
    2.8190   14.6800   -1.1000 C   0  0  0  0  0  0  0  0  0  0  0  0
    1.7120   15.7160   -1.3110 C   0  0  2  0  0  0  0  0  0  0  0  0
    1.9520   16.3970   -2.7020 C   0  0  0  0  0  0  0  0  0  0  0  0
    4.1720   17.3578    1.0685 H   0  0  0  0  0  0  0  0  0  0  0  0
    4.1105   16.4180   -0.4611 H   0  0  0  0  0  0  0  0  0  0  0  0
    4.7616   18.0922   -0.4611 H   0  0  0  0  0  0  0  0  0  0  0  0
    2.6189   18.4093   -1.3037 H   0  0  0  0  0  0  0  0  0  0  0  0
    1.5965   19.8174    0.1583 H   0  0  0  0  0  0  0  0  0  0  0  0
    1.6620   18.5949    1.5164 H   0  0  0  0  0  0  0  0  0  0  0  0
    4.2513   19.7664    0.6151 H   0  0  0  0  0  0  0  0  0  0  0  0
    3.1081   20.8419    1.5229 H   0  0  0  0  0  0  0  0  0  0  0  0
    3.2256   18.2754    2.3942 H   0  0  0  0  0  0  0  0  0  0  0  0
    6.8597   20.6873    3.3295 H   0  0  0  0  0  0  0  0  0  0  0  0
    6.8823   19.5546    1.9356 H   0  0  0  0  0  0  0  0  0  0  0  0
    5.7592   20.9564    1.9356 H   0  0  0  0  0  0  0  0  0  0  0  0
    5.5104   18.7003    5.2323 H   0  0  0  0  0  0  0  0  0  0  0  0
    5.1385   17.3927    4.0581 H   0  0  0  0  0  0  0  0  0  0  0  0
    6.7602   18.1654    4.0581 H   0  0  0  0  0  0  0  0  0  0  0  0
    1.8181   16.4254    0.7533 H   0  0  0  0  0  0  0  0  0  0  0  0
   -0.3410   17.4896    0.5522 H   0  0  0  0  0  0  0  0  0  0  0  0
    0.1071   18.2861   -0.9714 H   0  0  0  0  0  0  0  0  0  0  0  0
   -1.5838   15.9951   -0.7292 H   0  0  0  0  0  0  0  0  0  0  0  0
   -0.8560   16.5297   -2.2417 H   0  0  0  0  0  0  0  0  0  0  0  0
    0.3490   15.0702    1.0260 H   0  0  0  0  0  0  0  0  0  0  0  0
   -0.9975   14.1011    0.3371 H   0  0  0  0  0  0  0  0  0  0  0  0
    0.6741   13.4434    0.3371 H   0  0  0  0  0  0  0  0  0  0  0  0
    0.2161   14.5877   -3.2127 H   0  0  0  0  0  0  0  0  0  0  0  0
   -1.9681   13.9639   -1.9963 H   0  0  0  0  0  0  0  0  0  0  0  0
   -1.3635   12.9814   -3.4312 H   0  0  0  0  0  0  0  0  0  0  0  0
   -2.3357   11.6083   -1.4032 H   0  0  0  0  0  0  0  0  0  0  0  0
    1.5587   12.1034   -0.4635 H   0  0  0  0  0  0  0  0  0  0  0  0
    1.5852   10.0760   -2.7847 H   0  0  0  0  0  0  0  0  0  0  0  0
    3.0288   10.7420   -1.9001 H   0  0  0  0  0  0  0  0  0  0  0  0
    2.4548    8.4510   -1.1644 H   0  0  0  0  0  0  0  0  0  0  0  0
    2.2993    9.6767    0.1550 H   0  0  0  0  0  0  0  0  0  0  0  0
    0.4245    8.1833    0.2653 H   0  0  0  0  0  0  0  0  0  0  0  0
    0.5140    7.5540   -1.9910 H   0  0  0  0  0  0  0  0  0  0  0  0
   -0.6409    9.8824    2.0118 H   0  0  0  0  0  0  0  0  0  0  0  0
    0.9569   10.4652    1.4337 H   0  0  0  0  0  0  0  0  0  0  0  0
   -0.4569   11.5732    1.4337 H   0  0  0  0  0  0  0  0  0  0  0  0
   -2.2525    9.4407    0.9573 H   0  0  0  0  0  0  0  0  0  0  0  0
   -2.6137   10.2652   -0.5972 H   0  0  0  0  0  0  0  0  0  0  0  0
   -2.0024    8.5761   -0.5972 H   0  0  0  0  0  0  0  0  0  0  0  0
    1.3699   11.2842   -3.8760 H   0  0  0  0  0  0  0  0  0  0  0  0
    0.4467   12.7333   -4.3999 H   0  0  0  0  0  0  0  0  0  0  0  0
    2.2428   12.7641   -4.3999 H   0  0  0  0  0  0  0  0  0  0  0  0
    3.4447   12.7750   -1.8667 H   0  0  0  0  0  0  0  0  0  0  0  0
    3.0009   14.0698   -3.1160 H   0  0  0  0  0  0  0  0  0  0  0  0
    2.7031   14.2275   -0.1041 H   0  0  0  0  0  0  0  0  0  0  0  0
    3.7925   15.1855   -1.1827 H   0  0  0  0  0  0  0  0  0  0  0  0
    2.3141   17.4245   -2.5496 H   0  0  0  0  0  0  0  0  0  0  0  0
    2.7023   15.8237   -3.2663 H   0  0  0  0  0  0  0  0  0  0  0  0
    1.0081   16.4208   -3.2663 H   0  0  0  0  0  0  0  0  0  0  0  0
  1  2  1  0
  2  3  1  0
  3  4  1  0
  4  5  1  0
  5  6  1  0
  6  7  1  0
  7  8  1  0
  7  9  1  0
  2 10  1  0
 10 11  1  0
 11 12  1  0
 12 13  1  0
 13 14  1  1
 13 15  1  0
 15 16  1  0
 16 17  1  0
 17 18  2  0
 18 19  1  0
 19 20  1  0
 20 21  1  0
 21 22  1  0
 22 23  1  0
 22 24  1  0
 24 25  1  0
 24 26  1  0
 19 27  1  0
 27 28  1  6
 27 29  1  0
 29 30  1  0
 30 31  1  0
 31 32  1  6
  7  5  1  0
 31 10  1  0
 31 13  1  0
 27 15  1  0
 24 18  1  0
  1 33  1  0
  1 34  1  0
  1 35  1  0
  2 36  1  6
  3 37  1  0
  3 38  1  0
  4 39  1  0
  4 40  1  0
  5 41  1  1
  8 42  1  0
  8 43  1  0
  8 44  1  0
  9 45  1  0
  9 46  1  0
  9 47  1  0
 10 48  1  1
 11 49  1  0
 11 50  1  0
 12 51  1  0
 12 52  1  0
 14 53  1  0
 14 54  1  0
 14 55  1  0
 15 56  1  6
 16 57  1  0
 16 58  1  0
 17 59  1  0
 19 60  1  1
 20 61  1  0
 20 62  1  0
 21 63  1  0
 21 64  1  0
 22 65  1  1
 23 66  1  0
 25 67  1  0
 25 68  1  0
 25 69  1  0
 26 70  1  0
 26 71  1  0
 26 72  1  0
 28 73  1  0
 28 74  1  0
 28 75  1  0
 29 76  1  0
 29 77  1  0
 30 78  1  0
 30 79  1  0
 32 80  1  0
 32 81  1  0
 32 82  1  0
M  END
>  <meeko>  (2) 
{"is_sidechain": [false], "intermolecular_energy": 2.731, "internal_energy": -0.839}

$$$$
EPH_relaxed_0001_pdb2pqr_Repair_110_r2_0001_out
     RDKit          3D

 82 86  0  0  0  0  0  0  0  0999 V2000
   -4.7850    6.4050   -2.4780 C   0  0  0  0  0  0  0  0  0  0  0  0
   -5.2980    7.8240   -2.2160 C   0  0  2  0  0  0  0  0  0  0  0  0
   -5.1200    8.2440   -0.7430 C   0  0  0  0  0  0  0  0  0  0  0  0
   -4.1390    9.4020   -0.5480 C   0  0  0  0  0  0  0  0  0  0  0  0
   -2.7180    8.9610   -0.7280 C   0  0  2  0  0  0  0  0  0  0  0  0
   -1.7990    9.4920    0.2370 O   0  0  0  0  0  0  0  0  0  0  0  0
   -1.5940    9.9000   -1.1250 C   0  0  0  0  0  0  0  0  0  0  0  0
   -1.8430   11.3560   -1.3680 C   0  0  0  0  0  0  0  0  0  0  0  0
   -0.3640    9.3200   -1.7500 C   0  0  0  0  0  0  0  0  0  0  0  0
   -6.7660    7.9270   -2.6140 C   0  0  1  0  0  0  0  0  0  0  0  0
   -7.0760    7.2020   -3.9500 C   0  0  0  0  0  0  0  0  0  0  0  0
   -8.5010    6.6070   -3.8170 C   0  0  0  0  0  0  0  0  0  0  0  0
   -9.0890    7.2830   -2.5560 C   0  0  1  0  0  0  0  0  0  0  0  0
   -9.5820    8.6820   -3.0440 C   0  0  0  0  0  0  0  0  0  0  0  0
  -10.2210    6.4990   -1.8150 C   0  0  2  0  0  0  0  0  0  0  0  0
  -11.4990    6.2640   -2.6390 C   0  0  0  0  0  0  0  0  0  0  0  0
  -12.5410    7.3260   -2.5160 C   0  0  0  0  0  0  0  0  0  0  0  0
  -12.5810    8.2760   -1.5630 C   0  0  0  0  0  0  0  0  0  0  0  0
  -11.5600    8.2870   -0.4180 C   0  0  1  0  0  0  0  0  0  0  0  0
  -12.2950    8.5070    0.9300 C   0  0  0  0  0  0  0  0  0  0  0  0
  -13.1740    9.7540    0.9200 C   0  0  0  0  0  0  0  0  0  0  0  0
  -14.2130    9.6800   -0.1950 C   0  0  2  0  0  0  0  0  0  0  0  0
  -15.1330    8.6250    0.1020 O   0  0  0  0  0  0  0  0  0  0  0  0
  -13.5900    9.4500   -1.6000 C   0  0  0  0  0  0  0  0  0  0  0  0
  -12.8350   10.7260   -2.0490 C   0  0  0  0  0  0  0  0  0  0  0  0
  -14.7510    9.2540   -2.6110 C   0  0  0  0  0  0  0  0  0  0  0  0
  -10.5570    7.0540   -0.3720 C   0  0  1  0  0  0  0  0  0  0  0  0
  -11.2000    5.8750    0.4200 C   0  0  0  0  0  0  0  0  0  0  0  0
   -9.2650    7.4720    0.4240 C   0  0  0  0  0  0  0  0  0  0  0  0
   -8.1340    8.1350   -0.3860 C   0  0  0  0  0  0  0  0  0  0  0  0
   -7.8100    7.3210   -1.6430 C   0  0  2  0  0  0  0  0  0  0  0  0
   -7.2910    5.9160   -1.1830 C   0  0  0  0  0  0  0  0  0  0  0  0
   -4.6019    5.8984   -1.5189 H   0  0  0  0  0  0  0  0  0  0  0  0
   -5.5370    5.8433   -3.0516 H   0  0  0  0  0  0  0  0  0  0  0  0
   -3.8477    6.4540   -3.0516 H   0  0  0  0  0  0  0  0  0  0  0  0
   -4.6971    8.5117   -2.8292 H   0  0  0  0  0  0  0  0  0  0  0  0
   -6.1003    8.5490   -0.3479 H   0  0  0  0  0  0  0  0  0  0  0  0
   -4.7039    7.3768   -0.2094 H   0  0  0  0  0  0  0  0  0  0  0  0
   -4.3643   10.1878   -1.2840 H   0  0  0  0  0  0  0  0  0  0  0  0
   -4.2535    9.7792    0.4790 H   0  0  0  0  0  0  0  0  0  0  0  0
   -3.0456    7.9907   -1.1296 H   0  0  0  0  0  0  0  0  0  0  0  0
   -1.9324   11.8786   -0.4042 H   0  0  0  0  0  0  0  0  0  0  0  0
   -1.0045   11.7811   -1.9392 H   0  0  0  0  0  0  0  0  0  0  0  0
   -2.7751   11.4783   -1.9392 H   0  0  0  0  0  0  0  0  0  0  0  0
    0.3291    8.9932   -0.9608 H   0  0  0  0  0  0  0  0  0  0  0  0
   -0.6416    8.4579   -2.3743 H   0  0  0  0  0  0  0  0  0  0  0  0
    0.1245   10.0826   -2.3743 H   0  0  0  0  0  0  0  0  0  0  0  0
   -6.8715    9.0215   -2.6455 H   0  0  0  0  0  0  0  0  0  0  0  0
   -7.0405    7.9165   -4.7856 H   0  0  0  0  0  0  0  0  0  0  0  0
   -6.3364    6.4132   -4.1516 H   0  0  0  0  0  0  0  0  0  0  0  0
   -9.1062    6.8461   -4.7039 H   0  0  0  0  0  0  0  0  0  0  0  0
   -8.4895    5.5101   -3.7357 H   0  0  0  0  0  0  0  0  0  0  0  0
   -9.8055    9.3162   -2.1734 H   0  0  0  0  0  0  0  0  0  0  0  0
   -8.7968    9.1562   -3.6512 H   0  0  0  0  0  0  0  0  0  0  0  0
  -10.4910    8.5592   -3.6512 H   0  0  0  0  0  0  0  0  0  0  0  0
   -9.7681    5.5061   -1.6768 H   0  0  0  0  0  0  0  0  0  0  0  0
  -11.2118    6.1906   -3.6983 H   0  0  0  0  0  0  0  0  0  0  0  0
  -11.9530    5.3445   -2.2411 H   0  0  0  0  0  0  0  0  0  0  0  0
  -13.3441    7.3328   -3.2677 H   0  0  0  0  0  0  0  0  0  0  0  0
  -10.8876    9.1341   -0.6185 H   0  0  0  0  0  0  0  0  0  0  0  0
  -12.9282    7.6308    1.1336 H   0  0  0  0  0  0  0  0  0  0  0  0
  -11.5304    8.6435    1.7090 H   0  0  0  0  0  0  0  0  0  0  0  0
  -13.6900    9.8385    1.8878 H   0  0  0  0  0  0  0  0  0  0  0  0
  -12.5351   10.6325    0.7467 H   0  0  0  0  0  0  0  0  0  0  0  0
  -14.7236   10.6535   -0.2348 H   0  0  0  0  0  0  0  0  0  0  0  0
  -15.2320    8.0860   -0.7020 H   0  0  0  0  0  0  0  0  0  0  0  0
  -12.5032   11.2867   -1.1627 H   0  0  0  0  0  0  0  0  0  0  0  0
  -11.9599   10.4413   -2.6516 H   0  0  0  0  0  0  0  0  0  0  0  0
  -13.5058   11.3560   -2.6516 H   0  0  0  0  0  0  0  0  0  0  0  0
  -15.6915    9.0952   -2.0630 H   0  0  0  0  0  0  0  0  0  0  0  0
  -14.8417   10.1495   -3.2433 H   0  0  0  0  0  0  0  0  0  0  0  0
  -14.5427    8.3783   -3.2433 H   0  0  0  0  0  0  0  0  0  0  0  0
  -11.0990    6.0602    1.4996 H   0  0  0  0  0  0  0  0  0  0  0  0
  -12.2658    5.7965    0.1596 H   0  0  0  0  0  0  0  0  0  0  0  0
  -10.6888    4.9364    0.1596 H   0  0  0  0  0  0  0  0  0  0  0  0
   -9.5717    8.1798    1.2082 H   0  0  0  0  0  0  0  0  0  0  0  0
   -8.8381    6.5288    0.7956 H   0  0  0  0  0  0  0  0  0  0  0  0
   -8.4493    9.1460   -0.6833 H   0  0  0  0  0  0  0  0  0  0  0  0
   -7.2330    8.1822    0.2433 H   0  0  0  0  0  0  0  0  0  0  0  0
   -7.2750    5.8728   -0.0840 H   0  0  0  0  0  0  0  0  0  0  0  0
   -7.9593    5.1332   -1.5710 H   0  0  0  0  0  0  0  0  0  0  0  0
   -6.2743    5.7556   -1.5710 H   0  0  0  0  0  0  0  0  0  0  0  0
  1  2  1  0
  2  3  1  0
  3  4  1  0
  4  5  1  0
  5  6  1  0
  6  7  1  0
  7  8  1  0
  7  9  1  0
  2 10  1  0
 10 11  1  0
 11 12  1  0
 12 13  1  0
 13 14  1  6
 13 15  1  0
 15 16  1  0
 16 17  1  0
 17 18  2  0
 18 19  1  0
 19 20  1  0
 20 21  1  0
 21 22  1  0
 22 23  1  0
 22 24  1  0
 24 25  1  0
 24 26  1  0
 19 27  1  0
 27 28  1  1
 27 29  1  0
 29 30  1  0
 30 31  1  0
 31 32  1  1
  7  5  1  0
 31 10  1  0
 31 13  1  0
 27 15  1  0
 24 18  1  0
  1 33  1  0
  1 34  1  0
  1 35  1  0
  2 36  1  6
  3 37  1  0
  3 38  1  0
  4 39  1  0
  4 40  1  0
  5 41  1  6
  8 42  1  0
  8 43  1  0
  8 44  1  0
  9 45  1  0
  9 46  1  0
  9 47  1  0
 10 48  1  6
 11 49  1  0
 11 50  1  0
 12 51  1  0
 12 52  1  0
 14 53  1  0
 14 54  1  0
 14 55  1  0
 15 56  1  1
 16 57  1  0
 16 58  1  0
 17 59  1  0
 19 60  1  6
 20 61  1  0
 20 62  1  0
 21 63  1  0
 21 64  1  0
 22 65  1  6
 23 66  1  0
 25 67  1  0
 25 68  1  0
 25 69  1  0
 26 70  1  0
 26 71  1  0
 26 72  1  0
 28 73  1  0
 28 74  1  0
 28 75  1  0
 29 76  1  0
 29 77  1  0
 30 78  1  0
 30 79  1  0
 32 80  1  0
 32 81  1  0
 32 82  1  0
M  END
>  <meeko>  (3) 
{"is_sidechain": [false], "intermolecular_energy": 2.731, "internal_energy": -0.839}

$$$$
EPH_relaxed_0001_pdb2pqr_Repair_110_r2_0001_out
     RDKit          3D

 82 86  0  0  0  0  0  0  0  0999 V2000
    2.0290   18.2470   -2.5900 C   0  0  0  0  0  0  0  0  0  0  0  0
    0.5150   18.0220   -2.6280 C   0  0  2  0  0  0  0  0  0  0  0  0
   -0.1710   18.4670   -1.3210 C   0  0  0  0  0  0  0  0  0  0  0  0
    0.5690   18.0250   -0.0560 C   0  0  0  0  0  0  0  0  0  0  0  0
    1.1770   19.1890    0.6660 C   0  0  2  0  0  0  0  0  0  0  0  0
    2.0820   19.9750   -0.1200 O   0  0  0  0  0  0  0  0  0  0  0  0
    2.6530   19.2860    1.0050 C   0  0  0  0  0  0  0  0  0  0  0  0
    3.6120   18.2000    0.6300 C   0  0  0  0  0  0  0  0  0  0  0  0
    3.0740   20.1940    2.1180 C   0  0  0  0  0  0  0  0  0  0  0  0
    0.2150   16.5530   -2.9000 C   0  0  1  0  0  0  0  0  0  0  0  0
    0.2940   16.1950   -4.4080 C   0  0  0  0  0  0  0  0  0  0  0  0
    0.8520   14.7520   -4.4970 C   0  0  0  0  0  0  0  0  0  0  0  0
    0.7630   14.2090   -3.0510 C   0  0  1  0  0  0  0  0  0  0  0  0
   -0.7220   13.7590   -2.8830 C   0  0  0  0  0  0  0  0  0  0  0  0
    1.7590   13.0620   -2.6810 C   0  0  2  0  0  0  0  0  0  0  0  0
    1.5870   11.7630   -3.4870 C   0  0  0  0  0  0  0  0  0  0  0  0
    0.6530   10.7620   -2.8930 C   0  0  0  0  0  0  0  0  0  0  0  0
    0.1980   10.7720   -1.6260 C   0  0  0  0  0  0  0  0  0  0  0  0
    0.7030   11.8120   -0.6160 C   0  0  1  0  0  0  0  0  0  0  0  0
    1.0590   11.1070    0.7190 C   0  0  0  0  0  0  0  0  0  0  0  0
   -0.0960   10.2740    1.2670 C   0  0  0  0  0  0  0  0  0  0  0  0
   -0.5300    9.2140    0.2580 C   0  0  2  0  0  0  0  0  0  0  0  0
    0.5270    8.2620    0.1050 O   0  0  0  0  0  0  0  0  0  0  0  0
   -0.9050    9.8060   -1.1300 C   0  0  0  0  0  0  0  0  0  0  0  0
   -2.2310   10.5980   -1.0170 C   0  0  0  0  0  0  0  0  0  0  0  0
   -1.1880    8.6220   -2.0930 C   0  0  0  0  0  0  0  0  0  0  0  0
    1.8630   12.7700   -1.1290 C   0  0  1  0  0  0  0  0  0  0  0  0
    3.2500   12.0990   -0.8940 C   0  0  0  0  0  0  0  0  0  0  0  0
    1.8570   14.0890   -0.2700 C   0  0  0  0  0  0  0  0  0  0  0  0
    0.9410   15.2300   -0.7550 C   0  0  0  0  0  0  0  0  0  0  0  0
    1.1500   15.5030   -2.2470 C   0  0  2  0  0  0  0  0  0  0  0  0
    2.6300   15.9790   -2.4450 C   0  0  0  0  0  0  0  0  0  0  0  0
    2.3661   18.2971   -1.5441 H   0  0  0  0  0  0  0  0  0  0  0  0
    2.5363   17.4144   -3.0993 H   0  0  0  0  0  0  0  0  0  0  0  0
    2.2723   19.1912   -3.0993 H   0  0  0  0  0  0  0  0  0  0  0  0
    0.1084   18.6412   -3.4412 H   0  0  0  0  0  0  0  0  0  0  0  0
   -0.2361   19.5651   -1.3194 H   0  0  0  0  0  0  0  0  0  0  0  0
   -1.1608   17.9877   -1.2983 H   0  0  0  0  0  0  0  0  0  0  0  0
   -0.1420   17.5212    0.6152 H   0  0  0  0  0  0  0  0  0  0  0  0
    1.3803   17.3444   -0.3536 H   0  0  0  0  0  0  0  0  0  0  0  0
    0.2704   19.3134    1.2764 H   0  0  0  0  0  0  0  0  0  0  0  0
    4.0190   17.7391    1.5421 H   0  0  0  0  0  0  0  0  0  0  0  0
    3.0877   17.4368    0.0361 H   0  0  0  0  0  0  0  0  0  0  0  0
    4.4342   18.6258    0.0361 H   0  0  0  0  0  0  0  0  0  0  0  0
    2.8527   19.7168    3.0841 H   0  0  0  0  0  0  0  0  0  0  0  0
    4.1541   20.3884    2.0439 H   0  0  0  0  0  0  0  0  0  0  0  0
    2.5245   21.1440    2.0439 H   0  0  0  0  0  0  0  0  0  0  0  0
   -0.7911   16.4868   -2.4602 H   0  0  0  0  0  0  0  0  0  0  0  0
   -0.7071   16.2425   -4.8614 H   0  0  0  0  0  0  0  0  0  0  0  0
    0.9406   16.9022   -4.9482 H   0  0  0  0  0  0  0  0  0  0  0  0
    0.2424   14.1414   -5.1793 H   0  0  0  0  0  0  0  0  0  0  0  0
    1.8791   14.7255   -4.8900 H   0  0  0  0  0  0  0  0  0  0  0  0
   -0.9640   13.6857   -1.8125 H   0  0  0  0  0  0  0  0  0  0  0  0
   -1.3848   14.4966   -3.3591 H   0  0  0  0  0  0  0  0  0  0  0  0
   -0.8638   12.7775   -3.3591 H   0  0  0  0  0  0  0  0  0  0  0  0
    2.7273   13.4805   -2.9929 H   0  0  0  0  0  0  0  0  0  0  0  0
    1.2090   12.0299   -4.4849 H   0  0  0  0  0  0  0  0  0  0  0  0
    2.5765   11.2827   -3.5040 H   0  0  0  0  0  0  0  0  0  0  0  0
    0.3070    9.9470   -3.5457 H   0  0  0  0  0  0  0  0  0  0  0  0
   -0.1306   12.5119   -0.4573 H   0  0  0  0  0  0  0  0  0  0  0  0
    1.9214   10.4456    0.5494 H   0  0  0  0  0  0  0  0  0  0  0  0
    1.2874   11.8885    1.4587 H   0  0  0  0  0  0  0  0  0  0  0  0
    0.2261    9.7779    2.1944 H   0  0  0  0  0  0  0  0  0  0  0  0
   -0.9480   10.9413    1.4640 H   0  0  0  0  0  0  0  0  0  0  0  0
   -1.4397    8.7373    0.6519 H   0  0  0  0  0  0  0  0  0  0  0  0
    1.0800    8.3060    0.9030 H   0  0  0  0  0  0  0  0  0  0  0  0
   -2.4800   10.7467    0.0441 H   0  0  0  0  0  0  0  0  0  0  0  0
   -2.1169   11.5760   -1.5074 H   0  0  0  0  0  0  0  0  0  0  0  0
   -3.0380   10.0338   -1.5074 H   0  0  0  0  0  0  0  0  0  0  0  0
   -1.4044    7.7165   -1.5071 H   0  0  0  0  0  0  0  0  0  0  0  0
   -2.0536    8.8640   -2.7272 H   0  0  0  0  0  0  0  0  0  0  0  0
   -0.3065    8.4464   -2.7272 H   0  0  0  0  0  0  0  0  0  0  0  0
    3.4355   12.0092    0.1865 H   0  0  0  0  0  0  0  0  0  0  0  0
    3.2555   11.0986   -1.3513 H   0  0  0  0  0  0  0  0  0  0  0  0
    4.0378   12.7156   -1.3513 H   0  0  0  0  0  0  0  0  0  0  0  0
    1.5431   13.8207    0.7495 H   0  0  0  0  0  0  0  0  0  0  0  0
    2.8792   14.4877   -0.3476 H   0  0  0  0  0  0  0  0  0  0  0  0
   -0.1081   14.9466   -0.5844 H   0  0  0  0  0  0  0  0  0  0  0  0
    1.1893   16.1424   -0.1930 H   0  0  0  0  0  0  0  0  0  0  0  0
    3.1010   16.1305   -1.4625 H   0  0  0  0  0  0  0  0  0  0  0  0
    3.1889   15.2153   -3.0057 H   0  0  0  0  0  0  0  0  0  0  0  0
    2.6389   16.9253   -3.0057 H   0  0  0  0  0  0  0  0  0  0  0  0
  1  2  1  0
  2  3  1  0
  3  4  1  0
  4  5  1  0
  5  6  1  0
  6  7  1  0
  7  8  1  0
  7  9  1  0
  2 10  1  0
 10 11  1  0
 11 12  1  0
 12 13  1  0
 13 14  1  1
 13 15  1  0
 15 16  1  0
 16 17  1  0
 17 18  2  0
 18 19  1  0
 19 20  1  0
 20 21  1  0
 21 22  1  0
 22 23  1  0
 22 24  1  0
 24 25  1  0
 24 26  1  0
 19 27  1  0
 27 28  1  6
 27 29  1  0
 29 30  1  0
 30 31  1  0
 31 32  1  1
  7  5  1  0
 31 10  1  0
 31 13  1  0
 27 15  1  0
 24 18  1  0
  1 33  1  0
  1 34  1  0
  1 35  1  0
  2 36  1  6
  3 37  1  0
  3 38  1  0
  4 39  1  0
  4 40  1  0
  5 41  1  1
  8 42  1  0
  8 43  1  0
  8 44  1  0
  9 45  1  0
  9 46  1  0
  9 47  1  0
 10 48  1  1
 11 49  1  0
 11 50  1  0
 12 51  1  0
 12 52  1  0
 14 53  1  0
 14 54  1  0
 14 55  1  0
 15 56  1  6
 16 57  1  0
 16 58  1  0
 17 59  1  0
 19 60  1  1
 20 61  1  0
 20 62  1  0
 21 63  1  0
 21 64  1  0
 22 65  1  1
 23 66  1  0
 25 67  1  0
 25 68  1  0
 25 69  1  0
 26 70  1  0
 26 71  1  0
 26 72  1  0
 28 73  1  0
 28 74  1  0
 28 75  1  0
 29 76  1  0
 29 77  1  0
 30 78  1  0
 30 79  1  0
 32 80  1  0
 32 81  1  0
 32 82  1  0
M  END
>  <meeko>  (4) 
{"is_sidechain": [false], "intermolecular_energy": 2.731, "internal_energy": -0.839}

$$$$
EPH_relaxed_0001_pdb2pqr_Repair_110_r2_0001_out
     RDKit          3D

 82 86  0  0  0  0  0  0  0  0999 V2000
    2.0370   18.2130   -2.8060 C   0  0  0  0  0  0  0  0  0  0  0  0
    0.8900   17.6870   -1.9380 C   0  0  2  0  0  0  0  0  0  0  0  0
    1.2420   17.7060   -0.4370 C   0  0  0  0  0  0  0  0  0  0  0  0
    1.2470   19.1100    0.1760 C   0  0  0  0  0  0  0  0  0  0  0  0
   -0.0330   19.8400   -0.1020 C   0  0  2  0  0  0  0  0  0  0  0  0
   -0.7850   20.1940    1.0660 O   0  0  0  0  0  0  0  0  0  0  0  0
   -1.4060   19.2550    0.1730 C   0  0  0  0  0  0  0  0  0  0  0  0
   -1.5690   17.8840    0.7490 C   0  0  0  0  0  0  0  0  0  0  0  0
   -2.5820   19.8140   -0.5660 C   0  0  0  0  0  0  0  0  0  0  0  0
    0.5200   16.2720   -2.3680 C   0  0  1  0  0  0  0  0  0  0  0  0
    0.6280   16.0660   -3.9020 C   0  0  0  0  0  0  0  0  0  0  0  0
    1.1100   14.6090   -4.1250 C   0  0  0  0  0  0  0  0  0  0  0  0
    0.9450   13.9290   -2.7460 C   0  0  1  0  0  0  0  0  0  0  0  0
   -0.5670   13.5490   -2.6650 C   0  0  0  0  0  0  0  0  0  0  0  0
    1.8650   12.6950   -2.4700 C   0  0  2  0  0  0  0  0  0  0  0  0
    1.6500   11.4970   -3.4110 C   0  0  0  0  0  0  0  0  0  0  0  0
    0.6440   10.4950   -2.9480 C   0  0  0  0  0  0  0  0  0  0  0  0
    0.1500   10.4030   -1.6990 C   0  0  0  0  0  0  0  0  0  0  0  0
    0.6780   11.3030   -0.5750 C   0  0  1  0  0  0  0  0  0  0  0  0
    0.9520   10.4470    0.6890 C   0  0  0  0  0  0  0  0  0  0  0  0
   -0.2630    9.6300    1.1180 C   0  0  0  0  0  0  0  0  0  0  0  0
   -0.7220    8.7050   -0.0060 C   0  0  2  0  0  0  0  0  0  0  0  0
    0.2870    7.7140   -0.2290 O   0  0  0  0  0  0  0  0  0  0  0  0
   -1.0190    9.4550   -1.3340 C   0  0  0  0  0  0  0  0  0  0  0  0
   -2.3030   10.3060   -1.1750 C   0  0  0  0  0  0  0  0  0  0  0  0
   -1.3350    8.3930   -2.4220 C   0  0  0  0  0  0  0  0  0  0  0  0
    1.9030   12.2410   -0.9550 C   0  0  1  0  0  0  0  0  0  0  0  0
    3.2440   11.4710   -0.7540 C   0  0  0  0  0  0  0  0  0  0  0  0
    1.9410   13.4650    0.0360 C   0  0  0  0  0  0  0  0  0  0  0  0
    1.1050   14.6990   -0.3530 C   0  0  0  0  0  0  0  0  0  0  0  0
    1.3760   15.1100   -1.8030 C   0  0  2  0  0  0  0  0  0  0  0  0
    2.8840   15.5190   -1.9110 C   0  0  0  0  0  0  0  0  0  0  0  0
    2.8459   18.5839   -2.1593 H   0  0  0  0  0  0  0  0  0  0  0  0
    2.4189   17.4000   -3.4410 H   0  0  0  0  0  0  0  0  0  0  0  0
    1.6701   19.0328   -3.4410 H   0  0  0  0  0  0  0  0  0  0  0  0
    0.0301   18.3572   -2.0840 H   0  0  0  0  0  0  0  0  0  0  0  0
    0.5025   17.0947    0.1010 H   0  0  0  0  0  0  0  0  0  0  0  0
    2.2635   17.3094   -0.3410 H   0  0  0  0  0  0  0  0  0  0  0  0
    1.3790   19.0234    1.2646 H   0  0  0  0  0  0  0  0  0  0  0  0
    2.0722   19.6793   -0.2766 H   0  0  0  0  0  0  0  0  0  0  0  0
    0.4021   20.3127   -0.9949 H   0  0  0  0  0  0  0  0  0  0  0  0
   -1.5618   17.9445    1.8473 H   0  0  0  0  0  0  0  0  0  0  0  0
   -2.5244   17.4557    0.4116 H   0  0  0  0  0  0  0  0  0  0  0  0
   -0.7407   17.2437    0.4116 H   0  0  0  0  0  0  0  0  0  0  0  0
   -3.3323   20.1707    0.1550 H   0  0  0  0  0  0  0  0  0  0  0  0
   -2.2533   20.6522   -1.1980 H   0  0  0  0  0  0  0  0  0  0  0  0
   -3.0244   19.0299   -1.1980 H   0  0  0  0  0  0  0  0  0  0  0  0
   -0.5016   16.2180   -1.9638 H   0  0  0  0  0  0  0  0  0  0  0  0
   -0.3539   16.2167   -4.3745 H   0  0  0  0  0  0  0  0  0  0  0  0
    1.3288   16.7866   -4.3489 H   0  0  0  0  0  0  0  0  0  0  0  0
    0.4905   14.1065   -4.8825 H   0  0  0  0  0  0  0  0  0  0  0  0
    2.1461   14.5636   -4.4916 H   0  0  0  0  0  0  0  0  0  0  0  0
   -0.8699   13.4729   -1.6103 H   0  0  0  0  0  0  0  0  0  0  0  0
   -1.1671   14.3242   -3.1638 H   0  0  0  0  0  0  0  0  0  0  0  0
   -0.7293   12.5821   -3.1638 H   0  0  0  0  0  0  0  0  0  0  0  0
    2.8641   13.0874   -2.7105 H   0  0  0  0  0  0  0  0  0  0  0  0
    1.3193   11.8853   -4.3856 H   0  0  0  0  0  0  0  0  0  0  0  0
    2.6123   10.9656   -3.4521 H   0  0  0  0  0  0  0  0  0  0  0  0
    0.2757    9.7712   -3.6899 H   0  0  0  0  0  0  0  0  0  0  0  0
   -0.1213   12.0295   -0.3669 H   0  0  0  0  0  0  0  0  0  0  0  0
    1.7823    9.7580    0.4749 H   0  0  0  0  0  0  0  0  0  0  0  0
    1.1982   11.1353    1.5110 H   0  0  0  0  0  0  0  0  0  0  0  0
    0.0024    9.0243    1.9971 H   0  0  0  0  0  0  0  0  0  0  0  0
   -1.0833   10.3214    1.3612 H   0  0  0  0  0  0  0  0  0  0  0  0
   -1.6686    8.2440    0.3125 H   0  0  0  0  0  0  0  0  0  0  0  0
    0.0020    7.1680   -0.9810 H   0  0  0  0  0  0  0  0  0  0  0  0
   -2.5183   10.4487   -0.1057 H   0  0  0  0  0  0  0  0  0  0  0  0
   -2.1552   11.2856   -1.6532 H   0  0  0  0  0  0  0  0  0  0  0  0
   -3.1476    9.7883   -1.6532 H   0  0  0  0  0  0  0  0  0  0  0  0
   -1.6168    7.4458   -1.9389 H   0  0  0  0  0  0  0  0  0  0  0  0
   -2.1668    8.7466   -3.0489 H   0  0  0  0  0  0  0  0  0  0  0  0
   -0.4452    8.2343   -3.0489 H   0  0  0  0  0  0  0  0  0  0  0  0
    3.4434   11.3565    0.3217 H   0  0  0  0  0  0  0  0  0  0  0  0
    3.1701   10.4778   -1.2210 H   0  0  0  0  0  0  0  0  0  0  0  0
    4.0645   12.0355   -1.2210 H   0  0  0  0  0  0  0  0  0  0  0  0
    1.5800   13.1131    1.0137 H   0  0  0  0  0  0  0  0  0  0  0  0
    2.9854   13.8102    0.0276 H   0  0  0  0  0  0  0  0  0  0  0  0
    0.0372   14.4602   -0.2403 H   0  0  0  0  0  0  0  0  0  0  0  0
    1.3847   15.5340    0.3062 H   0  0  0  0  0  0  0  0  0  0  0  0
    3.3061   15.6335   -0.9017 H   0  0  0  0  0  0  0  0  0  0  0  0
    3.4376   14.7386   -2.4536 H   0  0  0  0  0  0  0  0  0  0  0  0
    2.9674   16.4722   -2.4536 H   0  0  0  0  0  0  0  0  0  0  0  0
  1  2  1  0
  2  3  1  0
  3  4  1  0
  4  5  1  0
  5  6  1  0
  6  7  1  0
  7  8  1  0
  7  9  1  0
  2 10  1  0
 10 11  1  0
 11 12  1  0
 12 13  1  0
 13 14  1  1
 13 15  1  0
 15 16  1  0
 16 17  1  0
 17 18  2  0
 18 19  1  0
 19 20  1  0
 20 21  1  0
 21 22  1  0
 22 23  1  0
 22 24  1  0
 24 25  1  0
 24 26  1  0
 19 27  1  0
 27 28  1  6
 27 29  1  0
 29 30  1  0
 30 31  1  0
 31 32  1  1
  7  5  1  0
 31 10  1  0
 31 13  1  0
 27 15  1  0
 24 18  1  0
  1 33  1  0
  1 34  1  0
  1 35  1  0
  2 36  1  1
  3 37  1  0
  3 38  1  0
  4 39  1  0
  4 40  1  0
  5 41  1  6
  8 42  1  0
  8 43  1  0
  8 44  1  0
  9 45  1  0
  9 46  1  0
  9 47  1  0
 10 48  1  1
 11 49  1  0
 11 50  1  0
 12 51  1  0
 12 52  1  0
 14 53  1  0
 14 54  1  0
 14 55  1  0
 15 56  1  6
 16 57  1  0
 16 58  1  0
 17 59  1  0
 19 60  1  1
 20 61  1  0
 20 62  1  0
 21 63  1  0
 21 64  1  0
 22 65  1  1
 23 66  1  0
 25 67  1  0
 25 68  1  0
 25 69  1  0
 26 70  1  0
 26 71  1  0
 26 72  1  0
 28 73  1  0
 28 74  1  0
 28 75  1  0
 29 76  1  0
 29 77  1  0
 30 78  1  0
 30 79  1  0
 32 80  1  0
 32 81  1  0
 32 82  1  0
M  END
>  <meeko>  (5) 
{"is_sidechain": [false], "intermolecular_energy": 2.731, "internal_energy": -0.839}

$$$$
EPH_relaxed_0001_pdb2pqr_Repair_110_r2_0001_out
     RDKit          3D

 82 86  0  0  0  0  0  0  0  0999 V2000
    3.7770   18.0030    0.7290 C   0  0  0  0  0  0  0  0  0  0  0  0
    2.6520   18.5010   -0.1840 C   0  0  2  0  0  0  0  0  0  0  0  0
    1.9270   19.7280    0.4040 C   0  0  0  0  0  0  0  0  0  0  0  0
    0.6290   19.3830    1.1390 C   0  0  0  0  0  0  0  0  0  0  0  0
   -0.5400   20.1380    0.5830 C   0  0  2  0  0  0  0  0  0  0  0  0
   -1.6820   20.1940    1.4480 O   0  0  0  0  0  0  0  0  0  0  0  0
   -1.8580   19.4850    0.2100 C   0  0  0  0  0  0  0  0  0  0  0  0
   -2.0740   18.0140    0.3780 C   0  0  0  0  0  0  0  0  0  0  0  0
   -2.7530   20.1850   -0.7640 C   0  0  0  0  0  0  0  0  0  0  0  0
    1.6530   17.3780   -0.4370 C   0  0  1  0  0  0  0  0  0  0  0  0
    0.4670   17.8240   -1.3320 C   0  0  0  0  0  0  0  0  0  0  0  0
    0.0820   16.6020   -2.2060 C   0  0  0  0  0  0  0  0  0  0  0  0
    0.8250   15.4100   -1.5590 C   0  0  1  0  0  0  0  0  0  0  0  0
   -0.0680   14.9880   -0.3510 C   0  0  0  0  0  0  0  0  0  0  0  0
    1.1380   14.2000   -2.4980 C   0  0  2  0  0  0  0  0  0  0  0  0
   -0.0970   13.4880   -3.0780 C   0  0  0  0  0  0  0  0  0  0  0  0
   -0.6240   12.3560   -2.2590 C   0  0  0  0  0  0  0  0  0  0  0  0
    0.0330   11.7440   -1.2560 C   0  0  0  0  0  0  0  0  0  0  0  0
    1.4820   12.1180   -0.9200 C   0  0  1  0  0  0  0  0  0  0  0  0
    2.3220   10.8260   -0.7410 C   0  0  0  0  0  0  0  0  0  0  0  0
    1.7140    9.8700    0.2810 C   0  0  0  0  0  0  0  0  0  0  0  0
    0.2940    9.4760   -0.1180 C   0  0  2  0  0  0  0  0  0  0  0  0
    0.3520    8.6940   -1.3150 O   0  0  0  0  0  0  0  0  0  0  0  0
   -0.6420   10.6970   -0.3360 C   0  0  0  0  0  0  0  0  0  0  0  0
   -0.9460   11.3700    1.0250 C   0  0  0  0  0  0  0  0  0  0  0  0
   -2.0000   10.1680   -0.8710 C   0  0  0  0  0  0  0  0  0  0  0  0
    2.1730   13.1640   -1.8970 C   0  0  1  0  0  0  0  0  0  0  0  0
    2.8110   12.4190   -3.1090 C   0  0  0  0  0  0  0  0  0  0  0  0
    3.3560   13.8730   -1.1380 C   0  0  0  0  0  0  0  0  0  0  0  0
    3.0050   15.1330   -0.3250 C   0  0  0  0  0  0  0  0  0  0  0  0
    2.1750   16.1120   -1.1620 C   0  0  2  0  0  0  0  0  0  0  0  0
    3.0560   16.5720   -2.3730 C   0  0  0  0  0  0  0  0  0  0  0  0
    3.4811   18.1340    1.7803 H   0  0  0  0  0  0  0  0  0  0  0  0
    3.9653   16.9375    0.5311 H   0  0  0  0  0  0  0  0  0  0  0  0
    4.6924   18.5800    0.5311 H   0  0  0  0  0  0  0  0  0  0  0  0
    3.1104   18.8125   -1.1342 H   0  0  0  0  0  0  0  0  0  0  0  0
    2.6055   20.2255    1.1126 H   0  0  0  0  0  0  0  0  0  0  0  0
    1.6545   20.3760   -0.4421 H   0  0  0  0  0  0  0  0  0  0  0  0
    0.4377   18.3045    1.0376 H   0  0  0  0  0  0  0  0  0  0  0  0
    0.7479   19.6645    2.1957 H   0  0  0  0  0  0  0  0  0  0  0  0
    0.1294   20.8150    0.0320 H   0  0  0  0  0  0  0  0  0  0  0  0
   -2.1100   17.7687    1.4497 H   0  0  0  0  0  0  0  0  0  0  0  0
   -3.0240   17.7264   -0.0961 H   0  0  0  0  0  0  0  0  0  0  0  0
   -1.2468   17.4654   -0.0961 H   0  0  0  0  0  0  0  0  0  0  0  0
   -3.5039   20.7723   -0.2152 H   0  0  0  0  0  0  0  0  0  0  0  0
   -2.1531   20.8561   -1.3963 H   0  0  0  0  0  0  0  0  0  0  0  0
   -3.2598   19.4411   -1.3963 H   0  0  0  0  0  0  0  0  0  0  0  0
    1.3839   17.1332    0.6011 H   0  0  0  0  0  0  0  0  0  0  0  0
   -0.3862   18.1267   -0.7072 H   0  0  0  0  0  0  0  0  0  0  0  0
    0.7460   18.6848   -1.9574 H   0  0  0  0  0  0  0  0  0  0  0  0
   -1.0056   16.4382   -2.1870 H   0  0  0  0  0  0  0  0  0  0  0  0
    0.3568   16.7413   -3.2620 H   0  0  0  0  0  0  0  0  0  0  0  0
    0.4481   15.2319    0.5893 H   0  0  0  0  0  0  0  0  0  0  0  0
   -1.0245   15.5294   -0.3954 H   0  0  0  0  0  0  0  0  0  0  0  0
   -0.2571   13.9053   -0.3954 H   0  0  0  0  0  0  0  0  0  0  0  0
    1.6319   14.6858   -3.3524 H   0  0  0  0  0  0  0  0  0  0  0  0
   -0.8996   14.2326   -3.1850 H   0  0  0  0  0  0  0  0  0  0  0  0
    0.2260   13.0480   -4.0330 H   0  0  0  0  0  0  0  0  0  0  0  0
   -1.6346   11.9914   -2.4953 H   0  0  0  0  0  0  0  0  0  0  0  0
    1.4404   12.6713    0.0298 H   0  0  0  0  0  0  0  0  0  0  0  0
    2.3874   10.3107   -1.7106 H   0  0  0  0  0  0  0  0  0  0  0  0
    3.3152   11.1218   -0.3721 H   0  0  0  0  0  0  0  0  0  0  0  0
    2.3355    8.9644    0.3411 H   0  0  0  0  0  0  0  0  0  0  0  0
    1.6769   10.3763    1.2568 H   0  0  0  0  0  0  0  0  0  0  0  0
   -0.1342    8.8976    0.7139 H   0  0  0  0  0  0  0  0  0  0  0  0
    0.2560    7.7610   -1.0610 H   0  0  0  0  0  0  0  0  0  0  0  0
   -0.6427   10.6986    1.8419 H   0  0  0  0  0  0  0  0  0  0  0  0
   -0.3871   12.3145    1.1000 H   0  0  0  0  0  0  0  0  0  0  0  0
   -2.0241   11.5750    1.1000 H   0  0  0  0  0  0  0  0  0  0  0  0
   -2.6537    9.9133   -0.0238 H   0  0  0  0  0  0  0  0  0  0  0  0
   -2.4802   10.9448   -1.4841 H   0  0  0  0  0  0  0  0  0  0  0  0
   -1.8282    9.2710   -1.4841 H   0  0  0  0  0  0  0  0  0  0  0  0
    3.4854   11.6315   -2.7416 H   0  0  0  0  0  0  0  0  0  0  0  0
    2.0167   11.9658   -3.7202 H   0  0  0  0  0  0  0  0  0  0  0  0
    3.3810   13.1342   -3.7202 H   0  0  0  0  0  0  0  0  0  0  0  0
    3.7922   13.1400   -0.4435 H   0  0  0  0  0  0  0  0  0  0  0  0
    4.0366   14.2217   -1.9287 H   0  0  0  0  0  0  0  0  0  0  0  0
    2.4266   14.8387    0.5631 H   0  0  0  0  0  0  0  0  0  0  0  0
    3.9400   15.6306   -0.0280 H   0  0  0  0  0  0  0  0  0  0  0  0
    3.9728   17.0507   -1.9985 H   0  0  0  0  0  0  0  0  0  0  0  0
    3.3226   15.6980   -2.9854 H   0  0  0  0  0  0  0  0  0  0  0  0
    2.4912   17.2903   -2.9854 H   0  0  0  0  0  0  0  0  0  0  0  0
  1  2  1  0
  2  3  1  0
  3  4  1  0
  4  5  1  0
  5  6  1  0
  6  7  1  0
  7  8  1  0
  7  9  1  0
  2 10  1  0
 10 11  1  0
 11 12  1  0
 12 13  1  0
 13 14  1  1
 13 15  1  0
 15 16  1  0
 16 17  1  0
 17 18  2  0
 18 19  1  0
 19 20  1  0
 20 21  1  0
 21 22  1  0
 22 23  1  0
 22 24  1  0
 24 25  1  0
 24 26  1  0
 19 27  1  0
 27 28  1  6
 27 29  1  0
 29 30  1  0
 30 31  1  0
 31 32  1  6
  7  5  1  0
 31 10  1  0
 31 13  1  0
 27 15  1  0
 24 18  1  0
  1 33  1  0
  1 34  1  0
  1 35  1  0
  2 36  1  6
  3 37  1  0
  3 38  1  0
  4 39  1  0
  4 40  1  0
  5 41  1  6
  8 42  1  0
  8 43  1  0
  8 44  1  0
  9 45  1  0
  9 46  1  0
  9 47  1  0
 10 48  1  1
 11 49  1  0
 11 50  1  0
 12 51  1  0
 12 52  1  0
 14 53  1  0
 14 54  1  0
 14 55  1  0
 15 56  1  6
 16 57  1  0
 16 58  1  0
 17 59  1  0
 19 60  1  1
 20 61  1  0
 20 62  1  0
 21 63  1  0
 21 64  1  0
 22 65  1  1
 23 66  1  0
 25 67  1  0
 25 68  1  0
 25 69  1  0
 26 70  1  0
 26 71  1  0
 26 72  1  0
 28 73  1  0
 28 74  1  0
 28 75  1  0
 29 76  1  0
 29 77  1  0
 30 78  1  0
 30 79  1  0
 32 80  1  0
 32 81  1  0
 32 82  1  0
M  END
>  <meeko>  (6) 
{"is_sidechain": [false], "intermolecular_energy": 2.731, "internal_energy": -0.839}

$$$$
EPH_relaxed_0001_pdb2pqr_Repair_110_r2_0001_out
     RDKit          3D

 82 86  0  0  0  0  0  0  0  0999 V2000
  -14.0770    5.5510    0.3260 C   0  0  0  0  0  0  0  0  0  0  0  0
  -13.6070    6.9950    0.1310 C   0  0  2  0  0  0  0  0  0  0  0  0
  -14.7800    7.9550   -0.1490 C   0  0  0  0  0  0  0  0  0  0  0  0
  -14.4480    9.4270    0.1160 C   0  0  0  0  0  0  0  0  0  0  0  0
  -15.2000   10.3390   -0.8050 C   0  0  2  0  0  0  0  0  0  0  0  0
  -15.1000   10.0020   -2.1950 O   0  0  0  0  0  0  0  0  0  0  0  0
  -14.5260   11.2600   -1.8050 C   0  0  0  0  0  0  0  0  0  0  0  0
  -13.0360   11.3150   -1.9330 C   0  0  0  0  0  0  0  0  0  0  0  0
  -15.2840   12.4500   -2.3060 C   0  0  0  0  0  0  0  0  0  0  0  0
  -12.5960    7.0630   -1.0080 C   0  0  1  0  0  0  0  0  0  0  0  0
  -13.0120    8.0640   -2.1180 C   0  0  0  0  0  0  0  0  0  0  0  0
  -11.7060    8.7010   -2.6580 C   0  0  0  0  0  0  0  0  0  0  0  0
  -10.5740    7.8170   -2.0850 C   0  0  1  0  0  0  0  0  0  0  0  0
  -10.5110    6.5800   -3.0340 C   0  0  0  0  0  0  0  0  0  0  0  0
   -9.1750    8.4990   -1.9310 C   0  0  2  0  0  0  0  0  0  0  0  0
   -8.5330    8.9720   -3.2470 C   0  0  0  0  0  0  0  0  0  0  0  0
   -7.6580    7.9710   -3.9250 C   0  0  0  0  0  0  0  0  0  0  0  0
   -7.1690    6.8500   -3.3630 C   0  0  0  0  0  0  0  0  0  0  0  0
   -7.4090    6.5450   -1.8780 C   0  0  1  0  0  0  0  0  0  0  0  0
   -6.0770    6.0980   -1.2200 C   0  0  0  0  0  0  0  0  0  0  0  0
   -5.4230    4.9330   -1.9570 C   0  0  0  0  0  0  0  0  0  0  0  0
   -5.1480    5.2950   -3.4140 C   0  0  2  0  0  0  0  0  0  0  0  0
   -4.1500    6.3190   -3.4540 O   0  0  0  0  0  0  0  0  0  0  0  0
   -6.4160    5.7700   -4.1770 C   0  0  0  0  0  0  0  0  0  0  0  0
   -7.3710    4.5710   -4.3970 C   0  0  0  0  0  0  0  0  0  0  0  0
   -5.9750    6.2380   -5.5900 C   0  0  0  0  0  0  0  0  0  0  0  0
   -8.1490    7.6810   -1.0480 C   0  0  1  0  0  0  0  0  0  0  0  0
   -7.1080    8.7080   -0.5080 C   0  0  0  0  0  0  0  0  0  0  0  0
   -8.8300    7.0330    0.2150 C   0  0  0  0  0  0  0  0  0  0  0  0
  -10.2580    6.4850    0.0300 C   0  0  0  0  0  0  0  0  0  0  0  0
  -11.1570    7.5180   -0.6560 C   0  0  2  0  0  0  0  0  0  0  0  0
  -11.2570    8.7650    0.2870 C   0  0  0  0  0  0  0  0  0  0  0  0
  -14.1487    5.3308    1.4013 H   0  0  0  0  0  0  0  0  0  0  0  0
  -15.0640    5.4204   -0.1416 H   0  0  0  0  0  0  0  0  0  0  0  0
  -13.3560    4.8644   -0.1416 H   0  0  0  0  0  0  0  0  0  0  0  0
  -13.1329    7.3179    1.0696 H   0  0  0  0  0  0  0  0  0  0  0  0
  -15.0709    7.8492   -1.2045 H   0  0  0  0  0  0  0  0  0  0  0  0
  -15.5922    7.6796    0.5399 H   0  0  0  0  0  0  0  0  0  0  0  0
  -14.7141    9.6710    1.1550 H   0  0  0  0  0  0  0  0  0  0  0  0
  -13.3720    9.5730   -0.0599 H   0  0  0  0  0  0  0  0  0  0  0  0
  -15.9682   10.5180   -0.0383 H   0  0  0  0  0  0  0  0  0  0  0  0
  -12.5823   11.3317   -0.9311 H   0  0  0  0  0  0  0  0  0  0  0  0
  -12.6821   10.4293   -2.4810 H   0  0  0  0  0  0  0  0  0  0  0  0
  -12.7484   12.2244   -2.4810 H   0  0  0  0  0  0  0  0  0  0  0  0
  -15.6561   13.0341   -1.4514 H   0  0  0  0  0  0  0  0  0  0  0  0
  -14.6189   13.0776   -2.9173 H   0  0  0  0  0  0  0  0  0  0  0  0
  -16.1339   12.1126   -2.9173 H   0  0  0  0  0  0  0  0  0  0  0  0
  -12.5928    6.0064   -1.3139 H   0  0  0  0  0  0  0  0  0  0  0  0
  -13.5383    7.5357   -2.9266 H   0  0  0  0  0  0  0  0  0  0  0  0
  -13.6920    8.8326   -1.7221 H   0  0  0  0  0  0  0  0  0  0  0  0
  -11.6921    8.6849   -3.7578 H   0  0  0  0  0  0  0  0  0  0  0  0
  -11.6026    9.7551   -2.3611 H   0  0  0  0  0  0  0  0  0  0  0  0
  -10.4641    5.6594   -2.4338 H   0  0  0  0  0  0  0  0  0  0  0  0
  -11.4092    6.5586   -3.6686 H   0  0  0  0  0  0  0  0  0  0  0  0
   -9.6153    6.6500   -3.6686 H   0  0  0  0  0  0  0  0  0  0  0  0
   -9.4178    9.4140   -1.3708 H   0  0  0  0  0  0  0  0  0  0  0  0
   -9.3418    9.2425   -3.9418 H   0  0  0  0  0  0  0  0  0  0  0  0
   -7.8801    9.8164   -2.9810 H   0  0  0  0  0  0  0  0  0  0  0  0
   -7.3898    8.1661   -4.9738 H   0  0  0  0  0  0  0  0  0  0  0  0
   -8.1349    5.7190   -1.8499 H   0  0  0  0  0  0  0  0  0  0  0  0
   -5.3810    6.9498   -1.2186 H   0  0  0  0  0  0  0  0  0  0  0  0
   -6.3057    5.7608   -0.1982 H   0  0  0  0  0  0  0  0  0  0  0  0
   -4.4728    4.6822   -1.4628 H   0  0  0  0  0  0  0  0  0  0  0  0
   -6.1081    4.0727   -1.9322 H   0  0  0  0  0  0  0  0  0  0  0  0
   -4.8009    4.3826   -3.9209 H   0  0  0  0  0  0  0  0  0  0  0  0
   -4.1200    6.7350   -2.5760 H   0  0  0  0  0  0  0  0  0  0  0  0
   -7.6889    4.1719   -3.4225 H   0  0  0  0  0  0  0  0  0  0  0  0
   -8.2538    4.9043   -4.9624 H   0  0  0  0  0  0  0  0  0  0  0  0
   -6.8487    3.7852   -4.9624 H   0  0  0  0  0  0  0  0  0  0  0  0
   -5.2235    7.0355   -5.4942 H   0  0  0  0  0  0  0  0  0  0  0  0
   -5.5409    5.3891   -6.1385 H   0  0  0  0  0  0  0  0  0  0  0  0
   -6.8482    6.6210   -6.1385 H   0  0  0  0  0  0  0  0  0  0  0  0
   -7.1189    8.6973    0.5919 H   0  0  0  0  0  0  0  0  0  0  0  0
   -6.1045    8.4364   -0.8674 H   0  0  0  0  0  0  0  0  0  0  0  0
   -7.3660    9.7151   -0.8674 H   0  0  0  0  0  0  0  0  0  0  0  0
   -8.1936    6.1987    0.5449 H   0  0  0  0  0  0  0  0  0  0  0  0
   -8.9284    7.8531    0.9415 H   0  0  0  0  0  0  0  0  0  0  0  0
  -10.2174    5.5762   -0.5884 H   0  0  0  0  0  0  0  0  0  0  0  0
  -10.6777    6.2579    1.0211 H   0  0  0  0  0  0  0  0  0  0  0  0
  -11.2305    8.4346    1.3359 H   0  0  0  0  0  0  0  0  0  0  0  0
  -10.4101    9.4398    0.0936 H   0  0  0  0  0  0  0  0  0  0  0  0
  -12.2006    9.2962    0.0936 H   0  0  0  0  0  0  0  0  0  0  0  0
  1  2  1  0
  2  3  1  0
  3  4  1  0
  4  5  1  0
  5  6  1  0
  6  7  1  0
  7  8  1  0
  7  9  1  0
  2 10  1  0
 10 11  1  0
 11 12  1  0
 12 13  1  0
 13 14  1  6
 13 15  1  0
 15 16  1  0
 16 17  1  0
 17 18  2  0
 18 19  1  0
 19 20  1  0
 20 21  1  0
 21 22  1  0
 22 23  1  0
 22 24  1  0
 24 25  1  0
 24 26  1  0
 19 27  1  0
 27 28  1  1
 27 29  1  0
 29 30  1  0
 30 31  1  0
 31 32  1  1
  7  5  1  0
 31 10  1  0
 31 13  1  0
 27 15  1  0
 24 18  1  0
  1 33  1  0
  1 34  1  0
  1 35  1  0
  2 36  1  1
  3 37  1  0
  3 38  1  0
  4 39  1  0
  4 40  1  0
  5 41  1  1
  8 42  1  0
  8 43  1  0
  8 44  1  0
  9 45  1  0
  9 46  1  0
  9 47  1  0
 10 48  1  6
 11 49  1  0
 11 50  1  0
 12 51  1  0
 12 52  1  0
 14 53  1  0
 14 54  1  0
 14 55  1  0
 15 56  1  1
 16 57  1  0
 16 58  1  0
 17 59  1  0
 19 60  1  6
 20 61  1  0
 20 62  1  0
 21 63  1  0
 21 64  1  0
 22 65  1  6
 23 66  1  0
 25 67  1  0
 25 68  1  0
 25 69  1  0
 26 70  1  0
 26 71  1  0
 26 72  1  0
 28 73  1  0
 28 74  1  0
 28 75  1  0
 29 76  1  0
 29 77  1  0
 30 78  1  0
 30 79  1  0
 32 80  1  0
 32 81  1  0
 32 82  1  0
M  END
>  <meeko>  (7) 
{"is_sidechain": [false], "intermolecular_energy": 2.731, "internal_energy": -0.839}

$$$$
EPH_relaxed_0001_pdb2pqr_Repair_110_r2_0001_out
     RDKit          3D

 82 86  0  0  0  0  0  0  0  0999 V2000
    0.4030    8.8850   -2.4160 C   0  0  0  0  0  0  0  0  0  0  0  0
    1.1620   10.0200   -3.1100 C   0  0  2  0  0  0  0  0  0  0  0  0
    2.6580   10.0300   -2.7380 C   0  0  0  0  0  0  0  0  0  0  0  0
    3.5610   10.6040   -3.8340 C   0  0  0  0  0  0  0  0  0  0  0  0
    4.9580   10.8260   -3.3400 C   0  0  2  0  0  0  0  0  0  0  0  0
    5.5660   12.0440   -3.7900 O   0  0  0  0  0  0  0  0  0  0  0  0
    6.1750   10.8260   -4.2470 C   0  0  0  0  0  0  0  0  0  0  0  0
    6.0500   10.5990   -5.7210 C   0  0  0  0  0  0  0  0  0  0  0  0
    7.5180   10.5600   -3.6420 C   0  0  0  0  0  0  0  0  0  0  0  0
    0.5280   11.3600   -2.7590 C   0  0  1  0  0  0  0  0  0  0  0  0
   -0.8790   11.2080   -2.1210 C   0  0  0  0  0  0  0  0  0  0  0  0
   -1.0200   12.3410   -1.0730 C   0  0  0  0  0  0  0  0  0  0  0  0
    0.1570   13.2980   -1.3720 C   0  0  1  0  0  0  0  0  0  0  0  0
   -0.3310   14.1730   -2.5690 C   0  0  0  0  0  0  0  0  0  0  0  0
    0.6530   14.1780   -0.1790 C   0  0  2  0  0  0  0  0  0  0  0  0
   -0.3870   15.1660    0.3790 C   0  0  0  0  0  0  0  0  0  0  0  0
   -0.3840   16.5190   -0.2530 C   0  0  0  0  0  0  0  0  0  0  0  0
    0.5970   17.0190   -1.0260 C   0  0  0  0  0  0  0  0  0  0  0  0
    1.8970   16.2370   -1.2530 C   0  0  1  0  0  0  0  0  0  0  0  0
    3.1110   17.1850   -1.0660 C   0  0  0  0  0  0  0  0  0  0  0  0
    3.0200   18.4310   -1.9410 C   0  0  0  0  0  0  0  0  0  0  0  0
    1.7430   19.2130   -1.6450 C   0  0  2  0  0  0  0  0  0  0  0  0
    1.8220   19.7410   -0.3170 O   0  0  0  0  0  0  0  0  0  0  0  0
    0.4530   18.3580   -1.7910 C   0  0  0  0  0  0  0  0  0  0  0  0
    0.2070   18.0390   -3.2870 C   0  0  0  0  0  0  0  0  0  0  0  0
   -0.7490   19.2240   -1.3280 C   0  0  0  0  0  0  0  0  0  0  0  0
    2.0460   14.8860   -0.4300 C   0  0  1  0  0  0  0  0  0  0  0  0
    2.6540   15.1830    0.9750 C   0  0  0  0  0  0  0  0  0  0  0  0
    3.0710   13.9450   -1.1670 C   0  0  0  0  0  0  0  0  0  0  0  0
    2.5000   13.0130   -2.2540 C   0  0  0  0  0  0  0  0  0  0  0  0
    1.2740   12.2540   -1.7370 C   0  0  2  0  0  0  0  0  0  0  0  0
    1.7390   11.3480   -0.5460 C   0  0  0  0  0  0  0  0  0  0  0  0
    0.4825    9.0039   -1.3253 H   0  0  0  0  0  0  0  0  0  0  0  0
   -0.6559    8.9172   -2.7121 H   0  0  0  0  0  0  0  0  0  0  0  0
    0.8373    7.9187   -2.7121 H   0  0  0  0  0  0  0  0  0  0  0  0
    1.0932    9.8499   -4.1946 H   0  0  0  0  0  0  0  0  0  0  0  0
    2.7859   10.6368   -1.8295 H   0  0  0  0  0  0  0  0  0  0  0  0
    2.9593    8.9826   -2.5890 H   0  0  0  0  0  0  0  0  0  0  0  0
    3.5890    9.8995   -4.6783 H   0  0  0  0  0  0  0  0  0  0  0  0
    3.1485   11.5751   -4.1450 H   0  0  0  0  0  0  0  0  0  0  0  0
    4.7362   10.2960   -2.4020 H   0  0  0  0  0  0  0  0  0  0  0  0
    5.5267    9.6486   -5.9025 H   0  0  0  0  0  0  0  0  0  0  0  0
    5.4790   11.4240   -6.1719 H   0  0  0  0  0  0  0  0  0  0  0  0
    7.0525   10.5575   -6.1719 H   0  0  0  0  0  0  0  0  0  0  0  0
    7.4358   10.5763   -2.5452 H   0  0  0  0  0  0  0  0  0  0  0  0
    7.8781    9.5731   -3.9681 H   0  0  0  0  0  0  0  0  0  0  0  0
    8.2271   11.3351   -3.9681 H   0  0  0  0  0  0  0  0  0  0  0  0
    0.5383   11.8333   -3.7519 H   0  0  0  0  0  0  0  0  0  0  0  0
   -1.6572   11.3065   -2.8922 H   0  0  0  0  0  0  0  0  0  0  0  0
   -0.9952   10.2198   -1.6520 H   0  0  0  0  0  0  0  0  0  0  0  0
   -1.9824   12.8607   -1.1902 H   0  0  0  0  0  0  0  0  0  0  0  0
   -0.9960   11.9601   -0.0413 H   0  0  0  0  0  0  0  0  0  0  0  0
   -0.8330   15.0731   -2.1845 H   0  0  0  0  0  0  0  0  0  0  0  0
    0.5325   14.4687   -3.1830 H   0  0  0  0  0  0  0  0  0  0  0  0
   -1.0363   13.5938   -3.1830 H   0  0  0  0  0  0  0  0  0  0  0  0
    0.8128   13.4321    0.6135 H   0  0  0  0  0  0  0  0  0  0  0  0
   -1.3850   14.7261    0.2358 H   0  0  0  0  0  0  0  0  0  0  0  0
   -0.1223   15.3226    1.4351 H   0  0  0  0  0  0  0  0  0  0  0  0
   -1.2582   17.1614   -0.0710 H   0  0  0  0  0  0  0  0  0  0  0  0
    1.8590   15.8794   -2.2926 H   0  0  0  0  0  0  0  0  0  0  0  0
    3.1560   17.4967   -0.0121 H   0  0  0  0  0  0  0  0  0  0  0  0
    4.0147   16.6331   -1.3637 H   0  0  0  0  0  0  0  0  0  0  0  0
    3.8901   19.0742   -1.7432 H   0  0  0  0  0  0  0  0  0  0  0  0
    3.0043   18.1191   -2.9957 H   0  0  0  0  0  0  0  0  0  0  0  0
    1.6709   20.0196   -2.3894 H   0  0  0  0  0  0  0  0  0  0  0  0
    1.1890   19.2500    0.2330 H   0  0  0  0  0  0  0  0  0  0  0  0
   -0.4628   17.1705   -3.3714 H   0  0  0  0  0  0  0  0  0  0  0  0
   -0.2567   18.9085   -3.7759 H   0  0  0  0  0  0  0  0  0  0  0  0
    1.1658   17.8115   -3.7759 H   0  0  0  0  0  0  0  0  0  0  0  0
   -0.7819   19.2477   -0.2287 H   0  0  0  0  0  0  0  0  0  0  0  0
   -0.6334   20.2477   -1.7136 H   0  0  0  0  0  0  0  0  0  0  0  0
   -1.6835   18.7903   -1.7136 H   0  0  0  0  0  0  0  0  0  0  0  0
    1.9574   14.8427    1.7554 H   0  0  0  0  0  0  0  0  0  0  0  0
    3.6109   14.6509    1.0804 H   0  0  0  0  0  0  0  0  0  0  0  0
    2.8225   16.2649    1.0804 H   0  0  0  0  0  0  0  0  0  0  0  0
    3.8289   14.5854   -1.6420 H   0  0  0  0  0  0  0  0  0  0  0  0
    3.4589   13.2739   -0.3865 H   0  0  0  0  0  0  0  0  0  0  0  0
    2.2086   13.6150   -3.1273 H   0  0  0  0  0  0  0  0  0  0  0  0
    3.2739   12.2820   -2.5310 H   0  0  0  0  0  0  0  0  0  0  0  0
    1.4879   11.8373    0.4067 H   0  0  0  0  0  0  0  0  0  0  0  0
    1.2287   10.3753   -0.6043 H   0  0  0  0  0  0  0  0  0  0  0  0
    2.8268   11.1955   -0.6043 H   0  0  0  0  0  0  0  0  0  0  0  0
  1  2  1  0
  2  3  1  0
  3  4  1  0
  4  5  1  0
  5  6  1  0
  6  7  1  0
  7  8  1  0
  7  9  1  0
  2 10  1  0
 10 11  1  0
 11 12  1  0
 12 13  1  0
 13 14  1  6
 13 15  1  0
 15 16  1  0
 16 17  1  0
 17 18  2  0
 18 19  1  0
 19 20  1  0
 20 21  1  0
 21 22  1  0
 22 23  1  0
 22 24  1  0
 24 25  1  0
 24 26  1  0
 19 27  1  0
 27 28  1  1
 27 29  1  0
 29 30  1  0
 30 31  1  0
 31 32  1  1
  7  5  1  0
 31 10  1  0
 31 13  1  0
 27 15  1  0
 24 18  1  0
  1 33  1  0
  1 34  1  0
  1 35  1  0
  2 36  1  6
  3 37  1  0
  3 38  1  0
  4 39  1  0
  4 40  1  0
  5 41  1  1
  8 42  1  0
  8 43  1  0
  8 44  1  0
  9 45  1  0
  9 46  1  0
  9 47  1  0
 10 48  1  6
 11 49  1  0
 11 50  1  0
 12 51  1  0
 12 52  1  0
 14 53  1  0
 14 54  1  0
 14 55  1  0
 15 56  1  1
 16 57  1  0
 16 58  1  0
 17 59  1  0
 19 60  1  6
 20 61  1  0
 20 62  1  0
 21 63  1  0
 21 64  1  0
 22 65  1  6
 23 66  1  0
 25 67  1  0
 25 68  1  0
 25 69  1  0
 26 70  1  0
 26 71  1  0
 26 72  1  0
 28 73  1  0
 28 74  1  0
 28 75  1  0
 29 76  1  0
 29 77  1  0
 30 78  1  0
 30 79  1  0
 32 80  1  0
 32 81  1  0
 32 82  1  0
M  END
>  <meeko>  (8) 
{"is_sidechain": [false], "intermolecular_energy": 2.731, "internal_energy": -0.839}

$$$$
EPH_relaxed_0001_pdb2pqr_Repair_110_r2_0001_out
     RDKit          3D

 82 86  0  0  0  0  0  0  0  0999 V2000
   -1.8250   14.8060    0.2840 C   0  0  0  0  0  0  0  0  0  0  0  0
   -0.4820   15.5310    0.1590 C   0  0  2  0  0  0  0  0  0  0  0  0
   -0.4870   16.5710   -0.9800 C   0  0  0  0  0  0  0  0  0  0  0  0
   -0.0830   17.9780   -0.5300 C   0  0  0  0  0  0  0  0  0  0  0  0
    1.3410   18.0220   -0.0620 C   0  0  2  0  0  0  0  0  0  0  0  0
    2.0330   19.2390   -0.3670 O   0  0  0  0  0  0  0  0  0  0  0  0
    2.5300   18.0510   -1.0040 C   0  0  0  0  0  0  0  0  0  0  0  0
    2.3500   18.0350   -2.4890 C   0  0  0  0  0  0  0  0  0  0  0  0
    3.8620   17.6030   -0.4870 C   0  0  0  0  0  0  0  0  0  0  0  0
    0.6360   14.5200   -0.0650 C   0  0  1  0  0  0  0  0  0  0  0  0
    0.7730   13.5120    1.1080 C   0  0  0  0  0  0  0  0  0  0  0  0
    1.1900   12.1550    0.4850 C   0  0  0  0  0  0  0  0  0  0  0  0
    1.6000   12.5010   -0.9660 C   0  0  1  0  0  0  0  0  0  0  0  0
    3.0600   13.0410   -0.8520 C   0  0  0  0  0  0  0  0  0  0  0  0
    1.4920   11.3420   -2.0100 C   0  0  2  0  0  0  0  0  0  0  0  0
    2.4000   10.1310   -1.7360 C   0  0  0  0  0  0  0  0  0  0  0  0
    3.7540   10.1930   -2.3630 C   0  0  0  0  0  0  0  0  0  0  0  0
    4.1230   11.0380   -3.3430 C   0  0  0  0  0  0  0  0  0  0  0  0
    3.1060   11.9870   -3.9900 C   0  0  1  0  0  0  0  0  0  0  0  0
    3.2550   11.9320   -5.5330 C   0  0  0  0  0  0  0  0  0  0  0  0
    4.6840   12.2070   -5.9930 C   0  0  0  0  0  0  0  0  0  0  0  0
    5.6570   11.2070   -5.3750 C   0  0  2  0  0  0  0  0  0  0  0  0
    5.3800    9.9070   -5.9020 O   0  0  0  0  0  0  0  0  0  0  0  0
    5.5900   11.1670   -3.8220 C   0  0  0  0  0  0  0  0  0  0  0  0
    6.1780   12.4760   -3.2410 C   0  0  0  0  0  0  0  0  0  0  0  0
    6.5170   10.0210   -3.3340 C   0  0  0  0  0  0  0  0  0  0  0  0
    1.5980   11.8150   -3.5160 C   0  0  1  0  0  0  0  0  0  0  0  0
    0.8920   10.7230   -4.3770 C   0  0  0  0  0  0  0  0  0  0  0  0
    0.8210   13.1590   -3.7780 C   0  0  0  0  0  0  0  0  0  0  0  0
    0.8660   14.2170   -2.6590 C   0  0  0  0  0  0  0  0  0  0  0  0
    0.5220   13.5950   -1.3020 C   0  0  2  0  0  0  0  0  0  0  0  0
   -0.9500   13.0630   -1.3800 C   0  0  0  0  0  0  0  0  0  0  0  0
   -2.0721   14.6726    1.3476 H   0  0  0  0  0  0  0  0  0  0  0  0
   -2.6105   15.4026   -0.2029 H   0  0  0  0  0  0  0  0  0  0  0  0
   -1.7572   13.8220   -0.2029 H   0  0  0  0  0  0  0  0  0  0  0  0
   -0.3102   16.0729    1.1007 H   0  0  0  0  0  0  0  0  0  0  0  0
    0.2177   16.2390   -1.7567 H   0  0  0  0  0  0  0  0  0  0  0  0
   -1.5203   16.6363   -1.3514 H   0  0  0  0  0  0  0  0  0  0  0  0
   -0.2020   18.6710   -1.3760 H   0  0  0  0  0  0  0  0  0  0  0  0
   -0.7299   18.2686    0.3109 H   0  0  0  0  0  0  0  0  0  0  0  0
    1.1013   17.3877    0.8041 H   0  0  0  0  0  0  0  0  0  0  0  0
    1.2804   17.9399   -2.7277 H   0  0  0  0  0  0  0  0  0  0  0  0
    2.7391   18.9713   -2.9156 H   0  0  0  0  0  0  0  0  0  0  0  0
    2.8981   17.1820   -2.9156 H   0  0  0  0  0  0  0  0  0  0  0  0
    3.8488   17.6074    0.6129 H   0  0  0  0  0  0  0  0  0  0  0  0
    4.0715   16.5849   -0.8471 H   0  0  0  0  0  0  0  0  0  0  0  0
    4.6442   18.2875   -0.8471 H   0  0  0  0  0  0  0  0  0  0  0  0
    1.4851   15.2085   -0.1876 H   0  0  0  0  0  0  0  0  0  0  0  0
    1.5418   13.8562    1.8155 H   0  0  0  0  0  0  0  0  0  0  0  0
   -0.1732   13.4186    1.6611 H   0  0  0  0  0  0  0  0  0  0  0  0
    2.0375   11.7195    1.0346 H   0  0  0  0  0  0  0  0  0  0  0  0
    0.3799   11.4119    0.5235 H   0  0  0  0  0  0  0  0  0  0  0  0
    3.3319   13.1416    0.2091 H   0  0  0  0  0  0  0  0  0  0  0  0
    3.7501   12.3386   -1.3424 H   0  0  0  0  0  0  0  0  0  0  0  0
    3.1269   14.0234   -1.3424 H   0  0  0  0  0  0  0  0  0  0  0  0
    0.4629   10.9837   -1.8597 H   0  0  0  0  0  0  0  0  0  0  0  0
    2.5333   10.0457   -0.6474 H   0  0  0  0  0  0  0  0  0  0  0  0
    1.8953    9.2643   -2.1878 H   0  0  0  0  0  0  0  0  0  0  0  0
    4.5135    9.4887   -1.9926 H   0  0  0  0  0  0  0  0  0  0  0  0
    3.3564   12.9946   -3.6266 H   0  0  0  0  0  0  0  0  0  0  0  0
    2.9592   10.9311   -5.8804 H   0  0  0  0  0  0  0  0  0  0  0  0
    2.6105   12.7151   -5.9589 H   0  0  0  0  0  0  0  0  0  0  0  0
    4.7315   12.1255   -7.0889 H   0  0  0  0  0  0  0  0  0  0  0  0
    4.9684   13.2194   -5.6703 H   0  0  0  0  0  0  0  0  0  0  0  0
    6.6746   11.5324   -5.6370 H   0  0  0  0  0  0  0  0  0  0  0  0
    6.1990    9.5710   -6.3040 H   0  0  0  0  0  0  0  0  0  0  0  0
    6.1578   12.4310   -2.1421 H   0  0  0  0  0  0  0  0  0  0  0  0
    7.2163   12.5955   -3.5840 H   0  0  0  0  0  0  0  0  0  0  0  0
    5.5777   13.3316   -3.5840 H   0  0  0  0  0  0  0  0  0  0  0  0
    6.5309   10.0038   -2.2342 H   0  0  0  0  0  0  0  0  0  0  0  0
    6.1401    9.0588   -3.7110 H   0  0  0  0  0  0  0  0  0  0  0  0
    7.5367   10.1885   -3.7110 H   0  0  0  0  0  0  0  0  0  0  0  0
    0.4152    9.9854   -3.7147 H   0  0  0  0  0  0  0  0  0  0  0  0
    0.1272   11.1943   -5.0118 H   0  0  0  0  0  0  0  0  0  0  0  0
    1.6357   10.2190   -5.0118 H   0  0  0  0  0  0  0  0  0  0  0  0
    1.2431   13.6160   -4.6852 H   0  0  0  0  0  0  0  0  0  0  0  0
   -0.2371   12.8689   -3.8574 H   0  0  0  0  0  0  0  0  0  0  0  0
    1.8771   14.6477   -2.6115 H   0  0  0  0  0  0  0  0  0  0  0  0
    0.1250   14.9980   -2.8848 H   0  0  0  0  0  0  0  0  0  0  0  0
   -1.3430   12.9210   -0.3624 H   0  0  0  0  0  0  0  0  0  0  0  0
   -1.5754   13.7920   -1.9162 H   0  0  0  0  0  0  0  0  0  0  0  0
   -0.9649   12.1026   -1.9162 H   0  0  0  0  0  0  0  0  0  0  0  0
  1  2  1  0
  2  3  1  0
  3  4  1  0
  4  5  1  0
  5  6  1  0
  6  7  1  0
  7  8  1  0
  7  9  1  0
  2 10  1  0
 10 11  1  0
 11 12  1  0
 12 13  1  0
 13 14  1  1
 13 15  1  0
 15 16  1  0
 16 17  1  0
 17 18  2  0
 18 19  1  0
 19 20  1  0
 20 21  1  0
 21 22  1  0
 22 23  1  0
 22 24  1  0
 24 25  1  0
 24 26  1  0
 19 27  1  0
 27 28  1  6
 27 29  1  0
 29 30  1  0
 30 31  1  0
 31 32  1  6
  7  5  1  0
 31 10  1  0
 31 13  1  0
 27 15  1  0
 24 18  1  0
  1 33  1  0
  1 34  1  0
  1 35  1  0
  2 36  1  1
  3 37  1  0
  3 38  1  0
  4 39  1  0
  4 40  1  0
  5 41  1  1
  8 42  1  0
  8 43  1  0
  8 44  1  0
  9 45  1  0
  9 46  1  0
  9 47  1  0
 10 48  1  6
 11 49  1  0
 11 50  1  0
 12 51  1  0
 12 52  1  0
 14 53  1  0
 14 54  1  0
 14 55  1  0
 15 56  1  6
 16 57  1  0
 16 58  1  0
 17 59  1  0
 19 60  1  1
 20 61  1  0
 20 62  1  0
 21 63  1  0
 21 64  1  0
 22 65  1  1
 23 66  1  0
 25 67  1  0
 25 68  1  0
 25 69  1  0
 26 70  1  0
 26 71  1  0
 26 72  1  0
 28 73  1  0
 28 74  1  0
 28 75  1  0
 29 76  1  0
 29 77  1  0
 30 78  1  0
 30 79  1  0
 32 80  1  0
 32 81  1  0
 32 82  1  0
M  END
>  <meeko>  (9) 
{"is_sidechain": [false], "intermolecular_energy": 2.731, "internal_energy": -0.839}

$$$$
EPH_relaxed_0001_pdb2pqr_Repair_110_r2_0001_out
     RDKit          3D

 82 86  0  0  0  0  0  0  0  0999 V2000
   -4.2260    6.8560   -3.1180 C   0  0  0  0  0  0  0  0  0  0  0  0
   -4.1860    7.1200   -1.6100 C   0  0  2  0  0  0  0  0  0  0  0  0
   -5.5840    7.0200   -0.9660 C   0  0  0  0  0  0  0  0  0  0  0  0
   -6.6820    6.5920   -1.9430 C   0  0  0  0  0  0  0  0  0  0  0  0
   -7.5380    7.7500   -2.3570 C   0  0  2  0  0  0  0  0  0  0  0  0
   -8.7280    7.3910   -3.0720 O   0  0  0  0  0  0  0  0  0  0  0  0
   -7.7550    8.1560   -3.8030 C   0  0  0  0  0  0  0  0  0  0  0  0
   -7.1120    7.4080   -4.9280 C   0  0  0  0  0  0  0  0  0  0  0  0
   -8.1880    9.5590   -4.0950 C   0  0  0  0  0  0  0  0  0  0  0  0
   -3.5850    8.4940   -1.3390 C   0  0  1  0  0  0  0  0  0  0  0  0
   -4.2080    9.1840   -0.0960 C   0  0  0  0  0  0  0  0  0  0  0  0
   -3.0730    9.9930    0.5830 C   0  0  0  0  0  0  0  0  0  0  0  0
   -1.9320   10.0140   -0.4600 C   0  0  1  0  0  0  0  0  0  0  0  0
   -2.3190   11.1520   -1.4560 C   0  0  0  0  0  0  0  0  0  0  0  0
   -0.4850   10.2050    0.1010 C   0  0  2  0  0  0  0  0  0  0  0  0
   -0.2380   11.5400    0.8260 C   0  0  0  0  0  0  0  0  0  0  0  0
    0.2530   12.6540   -0.0400 C   0  0  0  0  0  0  0  0  0  0  0  0
    0.7560   12.5170   -1.2800 C   0  0  0  0  0  0  0  0  0  0  0  0
    0.9620   11.1270   -1.8970 C   0  0  1  0  0  0  0  0  0  0  0  0
    2.3700   11.0520   -2.5440 C   0  0  0  0  0  0  0  0  0  0  0  0
    2.6150   12.1770   -3.5450 C   0  0  0  0  0  0  0  0  0  0  0  0
    2.4580   13.5420   -2.8800 C   0  0  2  0  0  0  0  0  0  0  0  0
    3.5080   13.7110   -1.9220 O   0  0  0  0  0  0  0  0  0  0  0  0
    1.0810   13.7300   -2.1850 C   0  0  0  0  0  0  0  0  0  0  0  0
   -0.0310   13.8480   -3.2570 C   0  0  0  0  0  0  0  0  0  0  0  0
    1.1060   15.0890   -1.4350 C   0  0  0  0  0  0  0  0  0  0  0  0
    0.6620    9.8930   -0.9420 C   0  0  1  0  0  0  0  0  0  0  0  0
    1.9350    9.5410   -0.1130 C   0  0  0  0  0  0  0  0  0  0  0  0
    0.3420    8.6270   -1.8230 C   0  0  0  0  0  0  0  0  0  0  0  0
   -1.1260    8.4290   -2.2460 C   0  0  0  0  0  0  0  0  0  0  0  0
   -2.0660    8.5600   -1.0440 C   0  0  2  0  0  0  0  0  0  0  0  0
   -1.7150    7.4140   -0.0350 C   0  0  0  0  0  0  0  0  0  0  0  0
   -4.3886    5.7831   -3.2982 H   0  0  0  0  0  0  0  0  0  0  0  0
   -5.0471    7.4322   -3.5695 H   0  0  0  0  0  0  0  0  0  0  0  0
   -3.2711    7.1631   -3.5695 H   0  0  0  0  0  0  0  0  0  0  0  0
   -3.5559    6.3421   -1.1541 H   0  0  0  0  0  0  0  0  0  0  0  0
   -5.5387    6.2836   -0.1501 H   0  0  0  0  0  0  0  0  0  0  0  0
   -5.8462    8.0267   -0.6085 H   0  0  0  0  0  0  0  0  0  0  0  0
   -6.2131    6.1574   -2.8381 H   0  0  0  0  0  0  0  0  0  0  0  0
   -7.3232    5.8554   -1.4368 H   0  0  0  0  0  0  0  0  0  0  0  0
   -7.2341    8.3218   -1.4678 H   0  0  0  0  0  0  0  0  0  0  0  0
   -6.4461    6.6333   -4.5200 H   0  0  0  0  0  0  0  0  0  0  0  0
   -7.8897    6.9349   -5.5456 H   0  0  0  0  0  0  0  0  0  0  0  0
   -6.5275    8.1058   -5.5456 H   0  0  0  0  0  0  0  0  0  0  0  0
   -8.3537   10.0959   -3.1493 H   0  0  0  0  0  0  0  0  0  0  0  0
   -7.4060   10.0709   -4.6751 H   0  0  0  0  0  0  0  0  0  0  0  0
   -9.1224    9.5411   -4.6751 H   0  0  0  0  0  0  0  0  0  0  0  0
   -3.8035    8.9834   -2.2996 H   0  0  0  0  0  0  0  0  0  0  0  0
   -5.0209    9.8577   -0.4045 H   0  0  0  0  0  0  0  0  0  0  0  0
   -4.6323    8.4419    0.5962 H   0  0  0  0  0  0  0  0  0  0  0  0
   -3.4083   11.0152    0.8125 H   0  0  0  0  0  0  0  0  0  0  0  0
   -2.7572    9.5481    1.5382 H   0  0  0  0  0  0  0  0  0  0  0  0
   -2.6229   12.0458   -0.8914 H   0  0  0  0  0  0  0  0  0  0  0  0
   -1.4531   11.3952   -2.0892 H   0  0  0  0  0  0  0  0  0  0  0  0
   -3.1537   10.8169   -2.0892 H   0  0  0  0  0  0  0  0  0  0  0  0
   -0.4288    9.4277    0.8773 H   0  0  0  0  0  0  0  0  0  0  0  0
   -1.1857   11.8583    1.2848 H   0  0  0  0  0  0  0  0  0  0  0  0
    0.5614   11.3468    1.5565 H   0  0  0  0  0  0  0  0  0  0  0  0
    0.1986   13.6727    0.3713 H   0  0  0  0  0  0  0  0  0  0  0  0
    0.1888   11.0202   -2.6721 H   0  0  0  0  0  0  0  0  0  0  0  0
    3.1273   11.1166   -1.7488 H   0  0  0  0  0  0  0  0  0  0  0  0
    2.4361   10.0993   -3.0899 H   0  0  0  0  0  0  0  0  0  0  0  0
    3.6355   12.0868   -3.9454 H   0  0  0  0  0  0  0  0  0  0  0  0
    1.8755   12.0937   -4.3551 H   0  0  0  0  0  0  0  0  0  0  0  0
    2.5158   14.3036   -3.6716 H   0  0  0  0  0  0  0  0  0  0  0  0
    3.1110   14.0780   -1.1130 H   0  0  0  0  0  0  0  0  0  0  0  0
   -1.0079   13.9517   -2.7621 H   0  0  0  0  0  0  0  0  0  0  0  0
    0.1574   14.7312   -3.8851 H   0  0  0  0  0  0  0  0  0  0  0  0
   -0.0321   12.9449   -3.8851 H   0  0  0  0  0  0  0  0  0  0  0  0
    1.1027   14.9090   -0.3498 H   0  0  0  0  0  0  0  0  0  0  0  0
    2.0145   15.6439   -1.7119 H   0  0  0  0  0  0  0  0  0  0  0  0
    0.2185   15.6770   -1.7119 H   0  0  0  0  0  0  0  0  0  0  0  0
    1.7029    9.6052    0.9603 H   0  0  0  0  0  0  0  0  0  0  0  0
    2.2607    8.5191   -0.3573 H   0  0  0  0  0  0  0  0  0  0  0  0
    2.7394   10.2504   -0.3573 H   0  0  0  0  0  0  0  0  0  0  0  0
    0.9459    8.6980   -2.7397 H   0  0  0  0  0  0  0  0  0  0  0  0
    0.5763    7.7637   -1.1828 H   0  0  0  0  0  0  0  0  0  0  0  0
   -1.3906    9.1906   -2.9943 H   0  0  0  0  0  0  0  0  0  0  0  0
   -1.2359    7.4193   -2.6684 H   0  0  0  0  0  0  0  0  0  0  0  0
   -1.8285    7.7844    0.9945 H   0  0  0  0  0  0  0  0  0  0  0  0
   -2.3938    6.5635   -0.1955 H   0  0  0  0  0  0  0  0  0  0  0  0
   -0.6763    7.0895   -0.1955 H   0  0  0  0  0  0  0  0  0  0  0  0
  1  2  1  0
  2  3  1  0
  3  4  1  0
  4  5  1  0
  5  6  1  0
  6  7  1  0
  7  8  1  0
  7  9  1  0
  2 10  1  0
 10 11  1  0
 11 12  1  0
 12 13  1  0
 13 14  1  6
 13 15  1  0
 15 16  1  0
 16 17  1  0
 17 18  2  0
 18 19  1  0
 19 20  1  0
 20 21  1  0
 21 22  1  0
 22 23  1  0
 22 24  1  0
 24 25  1  0
 24 26  1  0
 19 27  1  0
 27 28  1  1
 27 29  1  0
 29 30  1  0
 30 31  1  0
 31 32  1  1
  7  5  1  0
 31 10  1  0
 31 13  1  0
 27 15  1  0
 24 18  1  0
  1 33  1  0
  1 34  1  0
  1 35  1  0
  2 36  1  1
  3 37  1  0
  3 38  1  0
  4 39  1  0
  4 40  1  0
  5 41  1  1
  8 42  1  0
  8 43  1  0
  8 44  1  0
  9 45  1  0
  9 46  1  0
  9 47  1  0
 10 48  1  6
 11 49  1  0
 11 50  1  0
 12 51  1  0
 12 52  1  0
 14 53  1  0
 14 54  1  0
 14 55  1  0
 15 56  1  1
 16 57  1  0
 16 58  1  0
 17 59  1  0
 19 60  1  6
 20 61  1  0
 20 62  1  0
 21 63  1  0
 21 64  1  0
 22 65  1  6
 23 66  1  0
 25 67  1  0
 25 68  1  0
 25 69  1  0
 26 70  1  0
 26 71  1  0
 26 72  1  0
 28 73  1  0
 28 74  1  0
 28 75  1  0
 29 76  1  0
 29 77  1  0
 30 78  1  0
 30 79  1  0
 32 80  1  0
 32 81  1  0
 32 82  1  0
M  END
>  <meeko>  (10) 
{"is_sidechain": [false], "intermolecular_energy": 2.731, "internal_energy": -0.839}

$$$$
EPH_relaxed_0001_pdb2pqr_Repair_110_r2_0001_out
     RDKit          3D

 82 86  0  0  0  0  0  0  0  0999 V2000
   -3.1060    7.8370   -0.4900 C   0  0  0  0  0  0  0  0  0  0  0  0
   -3.5910    9.2850   -0.3680 C   0  0  2  0  0  0  0  0  0  0  0  0
   -5.0620    9.4430   -0.8020 C   0  0  0  0  0  0  0  0  0  0  0  0
   -5.7890    8.1110   -1.0110 C   0  0  0  0  0  0  0  0  0  0  0  0
   -6.6010    8.1150   -2.2700 C   0  0  2  0  0  0  0  0  0  0  0  0
   -7.4100    6.9480   -2.4640 O   0  0  0  0  0  0  0  0  0  0  0  0
   -6.3610    7.1580   -3.4230 C   0  0  0  0  0  0  0  0  0  0  0  0
   -5.2750    6.1300   -3.3710 C   0  0  0  0  0  0  0  0  0  0  0  0
   -6.8560    7.5380   -4.7840 C   0  0  0  0  0  0  0  0  0  0  0  0
   -2.7020   10.2020   -1.1990 C   0  0  1  0  0  0  0  0  0  0  0  0
   -3.2400   11.6570   -1.2650 C   0  0  0  0  0  0  0  0  0  0  0  0
   -2.0020   12.5900   -1.2900 C   0  0  0  0  0  0  0  0  0  0  0  0
   -0.8080   11.6490   -1.5730 C   0  0  1  0  0  0  0  0  0  0  0  0
   -0.8290   11.4260   -3.1170 C   0  0  0  0  0  0  0  0  0  0  0  0
    0.5910   12.1400   -1.0790 C   0  0  2  0  0  0  0  0  0  0  0  0
    1.0920   13.4420   -1.7290 C   0  0  0  0  0  0  0  0  0  0  0  0
    1.9040   13.2650   -2.9690 C   0  0  0  0  0  0  0  0  0  0  0  0
    2.4580   12.1100   -3.3820 C   0  0  0  0  0  0  0  0  0  0  0  0
    2.3750   10.8430   -2.5210 C   0  0  1  0  0  0  0  0  0  0  0  0
    3.7710   10.1710   -2.4510 C   0  0  0  0  0  0  0  0  0  0  0  0
    4.3590    9.9000   -3.8330 C   0  0  0  0  0  0  0  0  0  0  0  0
    4.4810   11.1910   -4.6370 C   0  0  2  0  0  0  0  0  0  0  0  0
    5.4590   12.0310   -4.0160 O   0  0  0  0  0  0  0  0  0  0  0  0
    3.1370   11.9620   -4.7660 C   0  0  0  0  0  0  0  0  0  0  0  0
    2.1770   11.1810   -5.6970 C   0  0  0  0  0  0  0  0  0  0  0  0
    3.4270   13.3120   -5.4760 C   0  0  0  0  0  0  0  0  0  0  0  0
    1.7110   11.0220   -1.0880 C   0  0  1  0  0  0  0  0  0  0  0  0
    2.7910   11.4650   -0.0530 C   0  0  0  0  0  0  0  0  0  0  0  0
    1.1690    9.6280   -0.5950 C   0  0  0  0  0  0  0  0  0  0  0  0
   -0.2640    9.2520   -1.0160 C   0  0  0  0  0  0  0  0  0  0  0  0
   -1.2400   10.3970   -0.7250 C   0  0  2  0  0  0  0  0  0  0  0  0
   -1.2570   10.6280    0.8240 C   0  0  0  0  0  0  0  0  0  0  0  0
   -2.9637    7.4121    0.5146 H   0  0  0  0  0  0  0  0  0  0  0  0
   -3.8547    7.2443   -1.0361 H   0  0  0  0  0  0  0  0  0  0  0  0
   -2.1514    7.8148   -1.0361 H   0  0  0  0  0  0  0  0  0  0  0  0
   -3.5277    9.5671    0.6933 H   0  0  0  0  0  0  0  0  0  0  0  0
   -5.5943   10.0109   -0.0247 H   0  0  0  0  0  0  0  0  0  0  0  0
   -5.0570    9.9620   -1.7718 H   0  0  0  0  0  0  0  0  0  0  0  0
   -5.0442    7.3036   -1.0696 H   0  0  0  0  0  0  0  0  0  0  0  0
   -6.4720    7.9561   -0.1627 H   0  0  0  0  0  0  0  0  0  0  0  0
   -6.7036    9.2094   -2.2286 H   0  0  0  0  0  0  0  0  0  0  0  0
   -5.0351    5.9029   -2.3218 H   0  0  0  0  0  0  0  0  0  0  0  0
   -5.6132    5.2134   -3.8765 H   0  0  0  0  0  0  0  0  0  0  0  0
   -4.3784    6.5180   -3.8765 H   0  0  0  0  0  0  0  0  0  0  0  0
   -7.7250    8.2051   -4.6850 H   0  0  0  0  0  0  0  0  0  0  0  0
   -6.0564    8.0565   -5.3334 H   0  0  0  0  0  0  0  0  0  0  0  0
   -7.1502    6.6316   -5.3334 H   0  0  0  0  0  0  0  0  0  0  0  0
   -2.7183    9.6572   -2.1545 H   0  0  0  0  0  0  0  0  0  0  0  0
   -3.8395   11.7984   -2.1764 H   0  0  0  0  0  0  0  0  0  0  0  0
   -3.8853   11.8794   -0.4023 H   0  0  0  0  0  0  0  0  0  0  0  0
   -2.0997   13.3431   -2.0858 H   0  0  0  0  0  0  0  0  0  0  0  0
   -1.8803   13.1458   -0.3486 H   0  0  0  0  0  0  0  0  0  0  0  0
   -0.9302   10.3518   -3.3310 H   0  0  0  0  0  0  0  0  0  0  0  0
   -1.6800   11.9687   -3.5543 H   0  0  0  0  0  0  0  0  0  0  0  0
    0.1084   11.8003   -3.5543 H   0  0  0  0  0  0  0  0  0  0  0  0
    0.3955   12.3874   -0.0252 H   0  0  0  0  0  0  0  0  0  0  0  0
    0.2144   14.0549   -1.9822 H   0  0  0  0  0  0  0  0  0  0  0  0
    1.7604   13.9119   -0.9924 H   0  0  0  0  0  0  0  0  0  0  0  0
    2.0630   14.1532   -3.5981 H   0  0  0  0  0  0  0  0  0  0  0  0
    1.6654   10.1748   -3.0308 H   0  0  0  0  0  0  0  0  0  0  0  0
    4.4546   10.8342   -1.9006 H   0  0  0  0  0  0  0  0  0  0  0  0
    3.6508    9.2027   -1.9431 H   0  0  0  0  0  0  0  0  0  0  0  0
    5.3570    9.4520   -3.7180 H   0  0  0  0  0  0  0  0  0  0  0  0
    3.6887    9.2136   -4.3711 H   0  0  0  0  0  0  0  0  0  0  0  0
    4.7844   10.9157   -5.6579 H   0  0  0  0  0  0  0  0  0  0  0  0
    5.2040   12.9540   -4.1850 H   0  0  0  0  0  0  0  0  0  0  0  0
    1.4661   10.6026   -5.0887 H   0  0  0  0  0  0  0  0  0  0  0  0
    1.6247   11.8895   -6.3318 H   0  0  0  0  0  0  0  0  0  0  0  0
    2.7583   10.4961   -6.3318 H   0  0  0  0  0  0  0  0  0  0  0  0
    3.5951   14.0945   -4.7214 H   0  0  0  0  0  0  0  0  0  0  0  0
    4.3238   13.2103   -6.1048 H   0  0  0  0  0  0  0  0  0  0  0  0
    2.5676   13.5876   -6.1048 H   0  0  0  0  0  0  0  0  0  0  0  0
    2.4083   11.3080    0.9662 H   0  0  0  0  0  0  0  0  0  0  0  0
    3.7040   10.8687   -0.1977 H   0  0  0  0  0  0  0  0  0  0  0  0
    3.0223   12.5306   -0.1977 H   0  0  0  0  0  0  0  0  0  0  0  0
    1.8446    8.8518   -0.9838 H   0  0  0  0  0  0  0  0  0  0  0  0
    1.1364    9.7033    0.5019 H   0  0  0  0  0  0  0  0  0  0  0  0
   -0.2767    9.0337   -2.0941 H   0  0  0  0  0  0  0  0  0  0  0  0
   -0.5781    8.3688   -0.4404 H   0  0  0  0  0  0  0  0  0  0  0  0
   -1.1857    9.6592    1.3400 H   0  0  0  0  0  0  0  0  0  0  0  0
   -0.4029   11.2595    1.1100 H   0  0  0  0  0  0  0  0  0  0  0  0
   -2.1943   11.1276    1.1100 H   0  0  0  0  0  0  0  0  0  0  0  0
  1  2  1  0
  2  3  1  0
  3  4  1  0
  4  5  1  0
  5  6  1  0
  6  7  1  0
  7  8  1  0
  7  9  1  0
  2 10  1  0
 10 11  1  0
 11 12  1  0
 12 13  1  0
 13 14  1  6
 13 15  1  0
 15 16  1  0
 16 17  1  0
 17 18  2  0
 18 19  1  0
 19 20  1  0
 20 21  1  0
 21 22  1  0
 22 23  1  0
 22 24  1  0
 24 25  1  0
 24 26  1  0
 19 27  1  0
 27 28  1  1
 27 29  1  0
 29 30  1  0
 30 31  1  0
 31 32  1  1
  7  5  1  0
 31 10  1  0
 31 13  1  0
 27 15  1  0
 24 18  1  0
  1 33  1  0
  1 34  1  0
  1 35  1  0
  2 36  1  1
  3 37  1  0
  3 38  1  0
  4 39  1  0
  4 40  1  0
  5 41  1  6
  8 42  1  0
  8 43  1  0
  8 44  1  0
  9 45  1  0
  9 46  1  0
  9 47  1  0
 10 48  1  6
 11 49  1  0
 11 50  1  0
 12 51  1  0
 12 52  1  0
 14 53  1  0
 14 54  1  0
 14 55  1  0
 15 56  1  1
 16 57  1  0
 16 58  1  0
 17 59  1  0
 19 60  1  6
 20 61  1  0
 20 62  1  0
 21 63  1  0
 21 64  1  0
 22 65  1  6
 23 66  1  0
 25 67  1  0
 25 68  1  0
 25 69  1  0
 26 70  1  0
 26 71  1  0
 26 72  1  0
 28 73  1  0
 28 74  1  0
 28 75  1  0
 29 76  1  0
 29 77  1  0
 30 78  1  0
 30 79  1  0
 32 80  1  0
 32 81  1  0
 32 82  1  0
M  END
>  <meeko>  (11) 
{"is_sidechain": [false], "intermolecular_energy": 2.731, "internal_energy": -0.839}

$$$$
EPH_relaxed_0001_pdb2pqr_Repair_110_r2_0001_out
     RDKit          3D

 82 86  0  0  0  0  0  0  0  0999 V2000
   -4.6320    6.8500   -2.7210 C   0  0  0  0  0  0  0  0  0  0  0  0
   -5.1840    7.6450   -1.5340 C   0  0  2  0  0  0  0  0  0  0  0  0
   -6.6520    8.0650   -1.7490 C   0  0  0  0  0  0  0  0  0  0  0  0
   -7.6480    6.9080   -1.6260 C   0  0  0  0  0  0  0  0  0  0  0  0
   -8.4310    6.9830   -0.3510 C   0  0  2  0  0  0  0  0  0  0  0  0
   -9.4510    5.9860   -0.2150 O   0  0  0  0  0  0  0  0  0  0  0  0
   -9.9020    7.3480   -0.2930 C   0  0  0  0  0  0  0  0  0  0  0  0
  -10.6780    7.6620   -1.5340 C   0  0  0  0  0  0  0  0  0  0  0  0
  -10.4590    7.8730    0.9940 C   0  0  0  0  0  0  0  0  0  0  0  0
   -4.3210    8.8770   -1.2880 C   0  0  1  0  0  0  0  0  0  0  0  0
   -4.7810    9.6900   -0.0480 C   0  0  0  0  0  0  0  0  0  0  0  0
   -3.5000   10.2670    0.6080 C   0  0  0  0  0  0  0  0  0  0  0  0
   -2.3900   10.0510   -0.4470 C   0  0  1  0  0  0  0  0  0  0  0  0
   -2.5580   11.2320   -1.4530 C   0  0  0  0  0  0  0  0  0  0  0  0
   -0.9270    9.9600    0.0980 C   0  0  2  0  0  0  0  0  0  0  0  0
   -0.4130   11.2290    0.8010 C   0  0  0  0  0  0  0  0  0  0  0  0
    0.2760   12.2130   -0.0840 C   0  0  0  0  0  0  0  0  0  0  0  0
    0.7270   11.9660   -1.3270 C   0  0  0  0  0  0  0  0  0  0  0  0
    0.6480   10.5560   -1.9270 C   0  0  1  0  0  0  0  0  0  0  0  0
    2.0060   10.1970   -2.5870 C   0  0  0  0  0  0  0  0  0  0  0  0
    2.4550   11.2410   -3.6060 C   0  0  0  0  0  0  0  0  0  0  0  0
    2.5780   12.6170   -2.9580 C   0  0  2  0  0  0  0  0  0  0  0  0
    3.6520   12.5880   -2.0120 O   0  0  0  0  0  0  0  0  0  0  0  0
    1.2730   13.0810   -2.2520 C   0  0  0  0  0  0  0  0  0  0  0  0
    0.1930   13.4040   -3.3140 C   0  0  0  0  0  0  0  0  0  0  0  0
    1.5750   14.4170   -1.5210 C   0  0  0  0  0  0  0  0  0  0  0  0
    0.1230    9.4160   -0.9530 C   0  0  1  0  0  0  0  0  0  0  0  0
    1.3120    8.8290   -0.1310 C   0  0  0  0  0  0  0  0  0  0  0  0
   -0.4510    8.2280   -1.8120 C   0  0  0  0  0  0  0  0  0  0  0  0
   -1.9340    8.3180   -2.2190 C   0  0  0  0  0  0  0  0  0  0  0  0
   -2.8150    8.6450   -1.0090 C   0  0  2  0  0  0  0  0  0  0  0  0
   -2.6840    7.4640    0.0120 C   0  0  0  0  0  0  0  0  0  0  0  0
   -4.0414    5.9994   -2.3498 H   0  0  0  0  0  0  0  0  0  0  0  0
   -5.4668    6.4775   -3.3329 H   0  0  0  0  0  0  0  0  0  0  0  0
   -3.9913    7.5020   -3.3329 H   0  0  0  0  0  0  0  0  0  0  0  0
   -5.1543    6.9876   -0.6525 H   0  0  0  0  0  0  0  0  0  0  0  0
   -6.9091    8.8259   -0.9974 H   0  0  0  0  0  0  0  0  0  0  0  0
   -6.7294    8.4477   -2.7774 H   0  0  0  0  0  0  0  0  0  0  0  0
   -8.3458    6.9467   -2.4755 H   0  0  0  0  0  0  0  0  0  0  0  0
   -7.0802    5.9659   -1.6243 H   0  0  0  0  0  0  0  0  0  0  0  0
   -7.5541    7.3652    0.1921 H   0  0  0  0  0  0  0  0  0  0  0  0
  -11.6651    8.0614   -1.2580 H   0  0  0  0  0  0  0  0  0  0  0  0
  -10.1327    8.4102   -2.1280 H   0  0  0  0  0  0  0  0  0  0  0  0
  -10.8065    6.7451   -2.1280 H   0  0  0  0  0  0  0  0  0  0  0  0
   -9.9467    7.3902    1.8393 H   0  0  0  0  0  0  0  0  0  0  0  0
  -10.3037    8.9608    1.0441 H   0  0  0  0  0  0  0  0  0  0  0  0
  -11.5357    7.6537    1.0441 H   0  0  0  0  0  0  0  0  0  0  0  0
   -4.4504    9.3896   -2.2526 H   0  0  0  0  0  0  0  0  0  0  0  0
   -5.4493   10.5071   -0.3573 H   0  0  0  0  0  0  0  0  0  0  0  0
   -5.3347    9.0541    0.6584 H   0  0  0  0  0  0  0  0  0  0  0  0
   -3.6245   11.3378    0.8270 H   0  0  0  0  0  0  0  0  0  0  0  0
   -3.2658    9.7791    1.5657 H   0  0  0  0  0  0  0  0  0  0  0  0
   -2.6916   12.1714   -0.8966 H   0  0  0  0  0  0  0  0  0  0  0  0
   -1.6612   11.3050   -2.0858 H   0  0  0  0  0  0  0  0  0  0  0  0
   -3.4396   11.0521   -2.0858 H   0  0  0  0  0  0  0  0  0  0  0  0
   -1.0150    9.1969    0.8854 H   0  0  0  0  0  0  0  0  0  0  0  0
   -1.2738   11.7332    1.2645 H   0  0  0  0  0  0  0  0  0  0  0  0
    0.3421   10.8907    1.5259 H   0  0  0  0  0  0  0  0  0  0  0  0
    0.4282   13.2271    0.3140 H   0  0  0  0  0  0  0  0  0  0  0  0
   -0.1406   10.5956   -2.6929 H   0  0  0  0  0  0  0  0  0  0  0  0
    2.7711   10.1200   -1.8004 H   0  0  0  0  0  0  0  0  0  0  0  0
    1.8767    9.2436   -3.1202 H   0  0  0  0  0  0  0  0  0  0  0  0
    3.4327   10.9472   -4.0157 H   0  0  0  0  0  0  0  0  0  0  0  0
    1.7034   11.2959   -4.4073 H   0  0  0  0  0  0  0  0  0  0  0  0
    2.7755   13.3424   -3.7610 H   0  0  0  0  0  0  0  0  0  0  0  0
    4.3260   11.9740   -2.3520 H   0  0  0  0  0  0  0  0  0  0  0  0
   -0.7440   13.6842   -2.8106 H   0  0  0  0  0  0  0  0  0  0  0  0
    0.5353   14.2391   -3.9429 H   0  0  0  0  0  0  0  0  0  0  0  0
    0.0206   12.5181   -3.9429 H   0  0  0  0  0  0  0  0  0  0  0  0
    1.5387   14.2562   -0.4334 H   0  0  0  0  0  0  0  0  0  0  0  0
    2.5762   14.7726   -1.8058 H   0  0  0  0  0  0  0  0  0  0  0  0
    0.8241   15.1687   -1.8058 H   0  0  0  0  0  0  0  0  0  0  0  0
    1.1015    8.9329    0.9437 H   0  0  0  0  0  0  0  0  0  0  0  0
    1.4388    7.7647   -0.3785 H   0  0  0  0  0  0  0  0  0  0  0  0
    2.2340    9.3754   -0.3785 H   0  0  0  0  0  0  0  0  0  0  0  0
    0.1442    8.1669   -2.7350 H   0  0  0  0  0  0  0  0  0  0  0  0
   -0.3845    7.3438   -1.1610 H   0  0  0  0  0  0  0  0  0  0  0  0
   -2.0526    9.1084   -2.9747 H   0  0  0  0  0  0  0  0  0  0  0  0
   -2.2456    7.3454   -2.6276 H   0  0  0  0  0  0  0  0  0  0  0  0
   -2.7279    7.8594    1.0376 H   0  0  0  0  0  0  0  0  0  0  0  0
   -3.5088    6.7527   -0.1423 H   0  0  0  0  0  0  0  0  0  0  0  0
   -1.7234    6.9507   -0.1423 H   0  0  0  0  0  0  0  0  0  0  0  0
  1  2  1  0
  2  3  1  0
  3  4  1  0
  4  5  1  0
  5  6  1  0
  6  7  1  0
  7  8  1  0
  7  9  1  0
  2 10  1  0
 10 11  1  0
 11 12  1  0
 12 13  1  0
 13 14  1  6
 13 15  1  0
 15 16  1  0
 16 17  1  0
 17 18  2  0
 18 19  1  0
 19 20  1  0
 20 21  1  0
 21 22  1  0
 22 23  1  0
 22 24  1  0
 24 25  1  0
 24 26  1  0
 19 27  1  0
 27 28  1  1
 27 29  1  0
 29 30  1  0
 30 31  1  0
 31 32  1  1
  7  5  1  0
 31 10  1  0
 31 13  1  0
 27 15  1  0
 24 18  1  0
  1 33  1  0
  1 34  1  0
  1 35  1  0
  2 36  1  1
  3 37  1  0
  3 38  1  0
  4 39  1  0
  4 40  1  0
  5 41  1  1
  8 42  1  0
  8 43  1  0
  8 44  1  0
  9 45  1  0
  9 46  1  0
  9 47  1  0
 10 48  1  6
 11 49  1  0
 11 50  1  0
 12 51  1  0
 12 52  1  0
 14 53  1  0
 14 54  1  0
 14 55  1  0
 15 56  1  1
 16 57  1  0
 16 58  1  0
 17 59  1  0
 19 60  1  6
 20 61  1  0
 20 62  1  0
 21 63  1  0
 21 64  1  0
 22 65  1  6
 23 66  1  0
 25 67  1  0
 25 68  1  0
 25 69  1  0
 26 70  1  0
 26 71  1  0
 26 72  1  0
 28 73  1  0
 28 74  1  0
 28 75  1  0
 29 76  1  0
 29 77  1  0
 30 78  1  0
 30 79  1  0
 32 80  1  0
 32 81  1  0
 32 82  1  0
M  END
>  <meeko>  (12) 
{"is_sidechain": [false], "intermolecular_energy": 2.731, "internal_energy": -0.839}

$$$$
EPH_relaxed_0001_pdb2pqr_Repair_110_r2_0001_out
     RDKit          3D

 82 86  0  0  0  0  0  0  0  0999 V2000
   -1.5780    7.8440   -1.8540 C   0  0  0  0  0  0  0  0  0  0  0  0
   -1.7390    8.5650   -0.5130 C   0  0  2  0  0  0  0  0  0  0  0  0
   -3.1910    8.5130    0.0030 C   0  0  0  0  0  0  0  0  0  0  0  0
   -4.2360    8.8530   -1.0630 C   0  0  0  0  0  0  0  0  0  0  0  0
   -5.3260    7.8260   -1.1180 C   0  0  2  0  0  0  0  0  0  0  0  0
   -5.4070    7.1060   -2.3550 O   0  0  0  0  0  0  0  0  0  0  0  0
   -6.5340    7.9360   -2.0300 C   0  0  0  0  0  0  0  0  0  0  0  0
   -6.7140    9.1040   -2.9480 C   0  0  0  0  0  0  0  0  0  0  0  0
   -7.7680    7.1670   -1.6780 C   0  0  0  0  0  0  0  0  0  0  0  0
   -1.2840   10.0140   -0.6440 C   0  0  1  0  0  0  0  0  0  0  0  0
   -0.8500   10.6290    0.7130 C   0  0  0  0  0  0  0  0  0  0  0  0
    0.3200   11.6000    0.4110 C   0  0  0  0  0  0  0  0  0  0  0  0
    0.3030   11.7640   -1.1270 C   0  0  1  0  0  0  0  0  0  0  0  0
   -0.8120   12.8210   -1.4050 C   0  0  0  0  0  0  0  0  0  0  0  0
    1.6580   12.1660   -1.7950 C   0  0  2  0  0  0  0  0  0  0  0  0
    2.2170   13.5340   -1.3650 C   0  0  0  0  0  0  0  0  0  0  0  0
    1.7840   14.6910   -2.2030 C   0  0  0  0  0  0  0  0  0  0  0  0
    1.2140   14.6060   -3.4190 C   0  0  0  0  0  0  0  0  0  0  0  0
    1.0410   13.2500   -4.1150 C   0  0  1  0  0  0  0  0  0  0  0  0
    1.5030   13.3630   -5.5910 C   0  0  0  0  0  0  0  0  0  0  0  0
    0.8060   14.4960   -6.3380 C   0  0  0  0  0  0  0  0  0  0  0  0
    1.0500   15.8350   -5.6490 C   0  0  2  0  0  0  0  0  0  0  0  0
    2.4380   16.1650   -5.7600 O   0  0  0  0  0  0  0  0  0  0  0  0
    0.6310   15.8390   -4.1520 C   0  0  0  0  0  0  0  0  0  0  0  0
   -0.9130   15.7830   -4.0440 C   0  0  0  0  0  0  0  0  0  0  0  0
    1.0590   17.2000   -3.5400 C   0  0  0  0  0  0  0  0  0  0  0  0
    1.6800   12.0010   -3.3680 C   0  0  1  0  0  0  0  0  0  0  0  0
    3.1760   11.8440   -3.7790 C   0  0  0  0  0  0  0  0  0  0  0  0
    0.9490   10.6900   -3.8430 C   0  0  0  0  0  0  0  0  0  0  0  0
   -0.3180   10.2810   -3.0670 C   0  0  0  0  0  0  0  0  0  0  0  0
   -0.0650   10.2970   -1.5560 C   0  0  2  0  0  0  0  0  0  0  0  0
    1.0360    9.2270   -1.2440 C   0  0  0  0  0  0  0  0  0  0  0  0
   -1.3415    6.7848   -1.6747 H   0  0  0  0  0  0  0  0  0  0  0  0
   -2.5150    7.9189   -2.4254 H   0  0  0  0  0  0  0  0  0  0  0  0
   -0.7619    8.3103   -2.4254 H   0  0  0  0  0  0  0  0  0  0  0  0
   -1.1086    8.0426    0.2217 H   0  0  0  0  0  0  0  0  0  0  0  0
   -3.3914    7.4971    0.3741 H   0  0  0  0  0  0  0  0  0  0  0  0
   -3.2787    9.2735    0.7929 H   0  0  0  0  0  0  0  0  0  0  0  0
   -4.6798    9.8316   -0.8278 H   0  0  0  0  0  0  0  0  0  0  0  0
   -3.7338    8.8728   -2.0415 H   0  0  0  0  0  0  0  0  0  0  0  0
   -5.2314    7.6328   -0.0392 H   0  0  0  0  0  0  0  0  0  0  0  0
   -6.8550   10.0190   -2.3539 H   0  0  0  0  0  0  0  0  0  0  0  0
   -5.8220    9.2126   -3.5824 H   0  0  0  0  0  0  0  0  0  0  0  0
   -7.5973    8.9390   -3.5824 H   0  0  0  0  0  0  0  0  0  0  0  0
   -7.8633    7.1076   -0.5838 H   0  0  0  0  0  0  0  0  0  0  0  0
   -8.6490    7.6762   -2.0957 H   0  0  0  0  0  0  0  0  0  0  0  0
   -7.6990    6.1517   -2.0957 H   0  0  0  0  0  0  0  0  0  0  0  0
   -2.1921   10.4530   -1.0830 H   0  0  0  0  0  0  0  0  0  0  0  0
   -1.6894   11.1768    1.1662 H   0  0  0  0  0  0  0  0  0  0  0  0
   -0.5401    9.8456    1.4203 H   0  0  0  0  0  0  0  0  0  0  0  0
    0.1587   12.5686    0.9067 H   0  0  0  0  0  0  0  0  0  0  0  0
    1.2840   11.2194    0.7796 H   0  0  0  0  0  0  0  0  0  0  0  0
   -1.2079   13.1963   -0.4498 H   0  0  0  0  0  0  0  0  0  0  0  0
   -0.3889   13.6575   -1.9805 H   0  0  0  0  0  0  0  0  0  0  0  0
   -1.6247   12.3539   -1.9805 H   0  0  0  0  0  0  0  0  0  0  0  0
    2.3530   11.4175   -1.3866 H   0  0  0  0  0  0  0  0  0  0  0  0
    1.8939   13.7235   -0.3307 H   0  0  0  0  0  0  0  0  0  0  0  0
    3.3089   13.4666   -1.4797 H   0  0  0  0  0  0  0  0  0  0  0  0
    1.9445   15.6985   -1.7916 H   0  0  0  0  0  0  0  0  0  0  0  0
   -0.0348   13.0236   -4.0778 H   0  0  0  0  0  0  0  0  0  0  0  0
    2.5878   13.5446   -5.6078 H   0  0  0  0  0  0  0  0  0  0  0  0
    1.2419   12.4209   -6.0952 H   0  0  0  0  0  0  0  0  0  0  0  0
    1.1963   14.5434   -7.3653 H   0  0  0  0  0  0  0  0  0  0  0  0
   -0.2759   14.2976   -6.3462 H   0  0  0  0  0  0  0  0  0  0  0  0
    0.4218   16.5842   -6.1532 H   0  0  0  0  0  0  0  0  0  0  0  0
    2.5090   17.1350   -5.7780 H   0  0  0  0  0  0  0  0  0  0  0  0
   -1.2063   15.7724   -2.9839 H   0  0  0  0  0  0  0  0  0  0  0  0
   -1.3472   16.6660   -4.5357 H   0  0  0  0  0  0  0  0  0  0  0  0
   -1.2821   14.8709   -4.5357 H   0  0  0  0  0  0  0  0  0  0  0  0
    1.0374   17.1314   -2.4424 H   0  0  0  0  0  0  0  0  0  0  0  0
    2.0782   17.4470   -3.8720 H   0  0  0  0  0  0  0  0  0  0  0  0
    0.3646   17.9859   -3.8720 H   0  0  0  0  0  0  0  0  0  0  0  0
    3.7996   11.7786   -2.8752 H   0  0  0  0  0  0  0  0  0  0  0  0
    3.2981   10.9281   -4.3759 H   0  0  0  0  0  0  0  0  0  0  0  0
    3.4856   12.7146   -4.3759 H   0  0  0  0  0  0  0  0  0  0  0  0
    0.6634   10.8311   -4.8959 H   0  0  0  0  0  0  0  0  0  0  0  0
    1.6698    9.8782   -3.6657 H   0  0  0  0  0  0  0  0  0  0  0  0
   -1.1282   10.9864   -3.3036 H   0  0  0  0  0  0  0  0  0  0  0  0
   -0.5973    9.2596   -3.3650 H   0  0  0  0  0  0  0  0  0  0  0  0
    1.1456    9.1205   -0.1547 H   0  0  0  0  0  0  0  0  0  0  0  0
    0.7418    8.2605   -1.6791 H   0  0  0  0  0  0  0  0  0  0  0  0
    1.9937    9.5487   -1.6791 H   0  0  0  0  0  0  0  0  0  0  0  0
  1  2  1  0
  2  3  1  0
  3  4  1  0
  4  5  1  0
  5  6  1  0
  6  7  1  0
  7  8  1  0
  7  9  1  0
  2 10  1  0
 10 11  1  0
 11 12  1  0
 12 13  1  0
 13 14  1  1
 13 15  1  0
 15 16  1  0
 16 17  1  0
 17 18  2  0
 18 19  1  0
 19 20  1  0
 20 21  1  0
 21 22  1  0
 22 23  1  0
 22 24  1  0
 24 25  1  0
 24 26  1  0
 19 27  1  0
 27 28  1  6
 27 29  1  0
 29 30  1  0
 30 31  1  0
 31 32  1  6
  7  5  1  0
 31 10  1  0
 31 13  1  0
 27 15  1  0
 24 18  1  0
  1 33  1  0
  1 34  1  0
  1 35  1  0
  2 36  1  1
  3 37  1  0
  3 38  1  0
  4 39  1  0
  4 40  1  0
  5 41  1  1
  8 42  1  0
  8 43  1  0
  8 44  1  0
  9 45  1  0
  9 46  1  0
  9 47  1  0
 10 48  1  6
 11 49  1  0
 11 50  1  0
 12 51  1  0
 12 52  1  0
 14 53  1  0
 14 54  1  0
 14 55  1  0
 15 56  1  1
 16 57  1  0
 16 58  1  0
 17 59  1  0
 19 60  1  6
 20 61  1  0
 20 62  1  0
 21 63  1  0
 21 64  1  0
 22 65  1  6
 23 66  1  0
 25 67  1  0
 25 68  1  0
 25 69  1  0
 26 70  1  0
 26 71  1  0
 26 72  1  0
 28 73  1  0
 28 74  1  0
 28 75  1  0
 29 76  1  0
 29 77  1  0
 30 78  1  0
 30 79  1  0
 32 80  1  0
 32 81  1  0
 32 82  1  0
M  END
>  <meeko>  (13) 
{"is_sidechain": [false], "intermolecular_energy": 2.731, "internal_energy": -0.839}

$$$$
EPH_relaxed_0001_pdb2pqr_Repair_110_r2_0001_out
     RDKit          3D

 82 86  0  0  0  0  0  0  0  0999 V2000
   -0.8810   16.0400   -6.1370 C   0  0  0  0  0  0  0  0  0  0  0  0
    0.4840   15.5140   -6.5880 C   0  0  2  0  0  0  0  0  0  0  0  0
    0.5580   15.3240   -8.1170 C   0  0  0  0  0  0  0  0  0  0  0  0
    1.5510   16.2630   -8.8070 C   0  0  0  0  0  0  0  0  0  0  0  0
    1.4950   16.1300  -10.2980 C   0  0  2  0  0  0  0  0  0  0  0  0
    1.0400   14.8550  -10.7690 O   0  0  0  0  0  0  0  0  0  0  0  0
    2.3970   15.2020  -11.0900 C   0  0  0  0  0  0  0  0  0  0  0  0
    3.4200   14.3450  -10.4140 C   0  0  0  0  0  0  0  0  0  0  0  0
    2.6190   15.4870  -12.5430 C   0  0  0  0  0  0  0  0  0  0  0  0
    0.7930   14.1980   -5.8850 C   0  0  1  0  0  0  0  0  0  0  0  0
    2.0740   13.5140   -6.4310 C   0  0  0  0  0  0  0  0  0  0  0  0
    2.7570   12.8150   -5.2280 C   0  0  0  0  0  0  0  0  0  0  0  0
    1.6890   12.8350   -4.1090 C   0  0  1  0  0  0  0  0  0  0  0  0
    0.7460   11.6340   -4.4330 C   0  0  0  0  0  0  0  0  0  0  0  0
    2.2250   12.7680   -2.6410 C   0  0  2  0  0  0  0  0  0  0  0  0
    2.9920   11.4830   -2.2840 C   0  0  0  0  0  0  0  0  0  0  0  0
    2.1580   10.3750   -1.7320 C   0  0  0  0  0  0  0  0  0  0  0  0
    0.9020   10.4990   -1.2650 C   0  0  0  0  0  0  0  0  0  0  0  0
    0.2290   11.8750   -1.1720 C   0  0  1  0  0  0  0  0  0  0  0  0
   -0.4520   12.0250    0.2140 C   0  0  0  0  0  0  0  0  0  0  0  0
   -1.4160   10.8820    0.5190 C   0  0  0  0  0  0  0  0  0  0  0  0
   -0.6970    9.5360    0.4740 C   0  0  2  0  0  0  0  0  0  0  0  0
    0.2420    9.4790    1.5520 O   0  0  0  0  0  0  0  0  0  0  0  0
    0.0350    9.2770   -0.8720 C   0  0  0  0  0  0  0  0  0  0  0  0
   -1.0060    9.0400   -1.9940 C   0  0  0  0  0  0  0  0  0  0  0  0
    0.8340    7.9540   -0.7340 C   0  0  0  0  0  0  0  0  0  0  0  0
    1.1440   13.1210   -1.5400 C   0  0  1  0  0  0  0  0  0  0  0  0
    1.9310   13.5940   -0.2800 C   0  0  0  0  0  0  0  0  0  0  0  0
    0.2250   14.3250   -1.9680 C   0  0  0  0  0  0  0  0  0  0  0  0
   -0.1720   14.4020   -3.4550 C   0  0  0  0  0  0  0  0  0  0  0  0
    1.0550   14.2510   -4.3590 C   0  0  2  0  0  0  0  0  0  0  0  0
    2.0120   15.4580   -4.0710 C   0  0  0  0  0  0  0  0  0  0  0  0
   -0.9228   16.0561   -5.0379 H   0  0  0  0  0  0  0  0  0  0  0  0
   -1.0276   17.0590   -6.5245 H   0  0  0  0  0  0  0  0  0  0  0  0
   -1.6735   15.3829   -6.5245 H   0  0  0  0  0  0  0  0  0  0  0  0
    1.2356   16.2683   -6.3122 H   0  0  0  0  0  0  0  0  0  0  0  0
    0.8600   14.2867   -8.3237 H   0  0  0  0  0  0  0  0  0  0  0  0
   -0.4387   15.5592   -8.5186 H   0  0  0  0  0  0  0  0  0  0  0  0
    1.3102   17.3006   -8.5324 H   0  0  0  0  0  0  0  0  0  0  0  0
    2.5648   15.9928   -8.4765 H   0  0  0  0  0  0  0  0  0  0  0  0
    1.2571   17.1984  -10.4075 H   0  0  0  0  0  0  0  0  0  0  0  0
    3.3115   14.4359   -9.3231 H   0  0  0  0  0  0  0  0  0  0  0  0
    3.2736   13.2960  -10.7109 H   0  0  0  0  0  0  0  0  0  0  0  0
    4.4271   14.6730  -10.7109 H   0  0  0  0  0  0  0  0  0  0  0  0
    3.2918   16.3508  -12.6486 H   0  0  0  0  0  0  0  0  0  0  0  0
    3.0727   14.6079  -13.0240 H   0  0  0  0  0  0  0  0  0  0  0  0
    1.6556   15.7117  -13.0240 H   0  0  0  0  0  0  0  0  0  0  0  0
   -0.1434   13.6576   -6.0880 H   0  0  0  0  0  0  0  0  0  0  0  0
    1.8091   12.7725   -7.1991 H   0  0  0  0  0  0  0  0  0  0  0  0
    2.7476   14.2504   -6.8936 H   0  0  0  0  0  0  0  0  0  0  0  0
    3.0320   11.7812   -5.4842 H   0  0  0  0  0  0  0  0  0  0  0  0
    3.6877   13.3177   -4.9262 H   0  0  0  0  0  0  0  0  0  0  0  0
    0.3916   11.1826   -3.4946 H   0  0  0  0  0  0  0  0  0  0  0  0
   -0.1155   11.9912   -5.0164 H   0  0  0  0  0  0  0  0  0  0  0  0
    1.2974   10.8819   -5.0164 H   0  0  0  0  0  0  0  0  0  0  0  0
    2.9722   13.5752   -2.6256 H   0  0  0  0  0  0  0  0  0  0  0  0
    3.4837   11.1159   -3.1970 H   0  0  0  0  0  0  0  0  0  0  0  0
    3.6959   11.7607   -1.4856 H   0  0  0  0  0  0  0  0  0  0  0  0
    2.6083    9.3718   -1.7046 H   0  0  0  0  0  0  0  0  0  0  0  0
   -0.5315   11.8960   -1.9665 H   0  0  0  0  0  0  0  0  0  0  0  0
    0.3277   12.0452    0.9897 H   0  0  0  0  0  0  0  0  0  0  0  0
   -1.0341   12.9583    0.2008 H   0  0  0  0  0  0  0  0  0  0  0  0
   -1.8429   11.0289    1.5221 H   0  0  0  0  0  0  0  0  0  0  0  0
   -2.2114   10.8810   -0.2408 H   0  0  0  0  0  0  0  0  0  0  0  0
   -1.4608    8.7504    0.5709 H   0  0  0  0  0  0  0  0  0  0  0  0
   -0.2480    9.2410    2.3570 H   0  0  0  0  0  0  0  0  0  0  0  0
   -1.9850    8.8171   -1.5447 H   0  0  0  0  0  0  0  0  0  0  0  0
   -1.0855    9.9430   -2.6171 H   0  0  0  0  0  0  0  0  0  0  0  0
   -0.6868    8.1915   -2.6171 H   0  0  0  0  0  0  0  0  0  0  0  0
    0.9751    7.7203    0.3316 H   0  0  0  0  0  0  0  0  0  0  0  0
    0.2778    7.1376   -1.2179 H   0  0  0  0  0  0  0  0  0  0  0  0
    1.8155    8.0662   -1.2179 H   0  0  0  0  0  0  0  0  0  0  0  0
    1.3977   13.2735    0.6271 H   0  0  0  0  0  0  0  0  0  0  0  0
    2.9379   13.1513   -0.2891 H   0  0  0  0  0  0  0  0  0  0  0  0
    2.0126   14.6909   -0.2891 H   0  0  0  0  0  0  0  0  0  0  0  0
   -0.7019   14.2619   -1.3790 H   0  0  0  0  0  0  0  0  0  0  0  0
    0.8277   15.2266   -1.7841 H   0  0  0  0  0  0  0  0  0  0  0  0
   -0.8854   13.5953   -3.6791 H   0  0  0  0  0  0  0  0  0  0  0  0
   -0.6289   15.3843   -3.6454 H   0  0  0  0  0  0  0  0  0  0  0  0
    2.1175   15.5911   -2.9842 H   0  0  0  0  0  0  0  0  0  0  0  0
    2.9989   15.2571   -4.5133 H   0  0  0  0  0  0  0  0  0  0  0  0
    1.5914   16.3731   -4.5133 H   0  0  0  0  0  0  0  0  0  0  0  0
  1  2  1  0
  2  3  1  0
  3  4  1  0
  4  5  1  0
  5  6  1  0
  6  7  1  0
  7  8  1  0
  7  9  1  0
  2 10  1  0
 10 11  1  0
 11 12  1  0
 12 13  1  0
 13 14  1  6
 13 15  1  0
 15 16  1  0
 16 17  1  0
 17 18  2  0
 18 19  1  0
 19 20  1  0
 20 21  1  0
 21 22  1  0
 22 23  1  0
 22 24  1  0
 24 25  1  0
 24 26  1  0
 19 27  1  0
 27 28  1  1
 27 29  1  0
 29 30  1  0
 30 31  1  0
 31 32  1  6
  7  5  1  0
 31 10  1  0
 31 13  1  0
 27 15  1  0
 24 18  1  0
  1 33  1  0
  1 34  1  0
  1 35  1  0
  2 36  1  1
  3 37  1  0
  3 38  1  0
  4 39  1  0
  4 40  1  0
  5 41  1  6
  8 42  1  0
  8 43  1  0
  8 44  1  0
  9 45  1  0
  9 46  1  0
  9 47  1  0
 10 48  1  1
 11 49  1  0
 11 50  1  0
 12 51  1  0
 12 52  1  0
 14 53  1  0
 14 54  1  0
 14 55  1  0
 15 56  1  6
 16 57  1  0
 16 58  1  0
 17 59  1  0
 19 60  1  6
 20 61  1  0
 20 62  1  0
 21 63  1  0
 21 64  1  0
 22 65  1  1
 23 66  1  0
 25 67  1  0
 25 68  1  0
 25 69  1  0
 26 70  1  0
 26 71  1  0
 26 72  1  0
 28 73  1  0
 28 74  1  0
 28 75  1  0
 29 76  1  0
 29 77  1  0
 30 78  1  0
 30 79  1  0
 32 80  1  0
 32 81  1  0
 32 82  1  0
M  END
>  <meeko>  (14) 
{"is_sidechain": [false], "intermolecular_energy": 2.731, "internal_energy": -0.839}

$$$$
EPH_relaxed_0001_pdb2pqr_Repair_110_r2_0001_out
     RDKit          3D

 82 86  0  0  0  0  0  0  0  0999 V2000
    0.0540    8.1080   -2.7340 C   0  0  0  0  0  0  0  0  0  0  0  0
   -0.9940    8.5900   -1.7270 C   0  0  2  0  0  0  0  0  0  0  0  0
   -2.3780    7.9590   -1.9830 C   0  0  0  0  0  0  0  0  0  0  0  0
   -3.4040    8.2620   -0.8880 C   0  0  0  0  0  0  0  0  0  0  0  0
   -4.5910    7.3500   -0.9730 C   0  0  2  0  0  0  0  0  0  0  0  0
   -5.0430    7.0790   -2.3060 O   0  0  0  0  0  0  0  0  0  0  0  0
   -5.9560    7.7980   -1.4610 C   0  0  0  0  0  0  0  0  0  0  0  0
   -6.2050    9.2080   -1.8960 C   0  0  0  0  0  0  0  0  0  0  0  0
   -7.1570    7.0010   -1.0570 C   0  0  0  0  0  0  0  0  0  0  0  0
   -1.0980   10.1100   -1.7720 C   0  0  1  0  0  0  0  0  0  0  0  0
   -2.5570   10.6140   -1.6170 C   0  0  0  0  0  0  0  0  0  0  0  0
   -2.4900   11.9430   -0.8220 C   0  0  0  0  0  0  0  0  0  0  0  0
   -0.9920   12.3290   -0.8340 C   0  0  1  0  0  0  0  0  0  0  0  0
   -0.7620   13.0020   -2.2240 C   0  0  0  0  0  0  0  0  0  0  0  0
   -0.5050   13.2420    0.3370 C   0  0  2  0  0  0  0  0  0  0  0  0
   -1.1600   14.6330    0.3960 C   0  0  0  0  0  0  0  0  0  0  0  0
   -0.4500   15.7050   -0.3620 C   0  0  0  0  0  0  0  0  0  0  0  0
    0.8120   15.6310   -0.8250 C   0  0  0  0  0  0  0  0  0  0  0  0
    1.6950   14.4160   -0.5140 C   0  0  1  0  0  0  0  0  0  0  0  0
    3.0970   14.8980   -0.0570 C   0  0  0  0  0  0  0  0  0  0  0  0
    3.7440   15.8480   -1.0600 C   0  0  0  0  0  0  0  0  0  0  0  0
    2.8630   17.0720   -1.2990 C   0  0  2  0  0  0  0  0  0  0  0  0
    2.8090   17.8420   -0.0950 O   0  0  0  0  0  0  0  0  0  0  0  0
    1.4220   16.7090   -1.7540 C   0  0  0  0  0  0  0  0  0  0  0  0
    1.4570   16.1450   -3.1960 C   0  0  0  0  0  0  0  0  0  0  0  0
    0.5980   18.0240   -1.8230 C   0  0  0  0  0  0  0  0  0  0  0  0
    1.0690   13.3390    0.4730 C   0  0  1  0  0  0  0  0  0  0  0  0
    1.3650   13.7350    1.9510 C   0  0  0  0  0  0  0  0  0  0  0  0
    1.7760   11.9520    0.2350 C   0  0  0  0  0  0  0  0  0  0  0  0
    1.1750   11.0430   -0.8550 C   0  0  0  0  0  0  0  0  0  0  0  0
   -0.3410   10.9060   -0.6800 C   0  0  2  0  0  0  0  0  0  0  0  0
   -0.6020   10.2120    0.7000 C   0  0  0  0  0  0  0  0  0  0  0  0
    0.9246    7.7076   -2.1939 H   0  0  0  0  0  0  0  0  0  0  0  0
   -0.3802    7.3191   -3.3658 H   0  0  0  0  0  0  0  0  0  0  0  0
    0.3704    8.9511   -3.3658 H   0  0  0  0  0  0  0  0  0  0  0  0
   -0.6647    8.2697   -0.7275 H   0  0  0  0  0  0  0  0  0  0  0  0
   -2.7646    8.3451   -2.9377 H   0  0  0  0  0  0  0  0  0  0  0  0
   -2.2364    6.8683   -1.9982 H   0  0  0  0  0  0  0  0  0  0  0  0
   -2.9256    8.1339    0.0942 H   0  0  0  0  0  0  0  0  0  0  0  0
   -3.7552    9.2956   -1.0235 H   0  0  0  0  0  0  0  0  0  0  0  0
   -4.2710    6.8099   -0.0697 H   0  0  0  0  0  0  0  0  0  0  0  0
   -6.3184    9.8504   -1.0103 H   0  0  0  0  0  0  0  0  0  0  0  0
   -5.3553    9.5612   -2.4987 H   0  0  0  0  0  0  0  0  0  0  0  0
   -7.1243    9.2489   -2.4987 H   0  0  0  0  0  0  0  0  0  0  0  0
   -7.2180    6.9605    0.0406 H   0  0  0  0  0  0  0  0  0  0  0  0
   -8.0644    7.4768   -1.4573 H   0  0  0  0  0  0  0  0  0  0  0  0
   -7.0712    5.9800   -1.4573 H   0  0  0  0  0  0  0  0  0  0  0  0
   -0.6453   10.2970   -2.7569 H   0  0  0  0  0  0  0  0  0  0  0  0
   -3.0050   10.7870   -2.6066 H   0  0  0  0  0  0  0  0  0  0  0  0
   -3.1773    9.8718   -1.0932 H   0  0  0  0  0  0  0  0  0  0  0  0
   -3.0952   12.7198   -1.3122 H   0  0  0  0  0  0  0  0  0  0  0  0
   -2.8861   11.8391    0.1989 H   0  0  0  0  0  0  0  0  0  0  0  0
   -0.4094   14.0337   -2.0780 H   0  0  0  0  0  0  0  0  0  0  0  0
   -0.0074   12.4328   -2.7866 H   0  0  0  0  0  0  0  0  0  0  0  0
   -1.7072   13.0137   -2.7866 H   0  0  0  0  0  0  0  0  0  0  0  0
   -0.8694   12.7017    1.2232 H   0  0  0  0  0  0  0  0  0  0  0  0
   -2.1784   14.5466   -0.0108 H   0  0  0  0  0  0  0  0  0  0  0  0
   -1.1319   14.9379    1.4525 H   0  0  0  0  0  0  0  0  0  0  0  0
   -1.0049   16.6342   -0.5590 H   0  0  0  0  0  0  0  0  0  0  0  0
    1.7820   13.8543   -1.4558 H   0  0  0  0  0  0  0  0  0  0  0  0
    2.9942   15.4188    0.9064 H   0  0  0  0  0  0  0  0  0  0  0  0
    3.7433   14.0121    0.0290 H   0  0  0  0  0  0  0  0  0  0  0  0
    4.7179   16.1765   -0.6682 H   0  0  0  0  0  0  0  0  0  0  0  0
    3.8728   15.3164   -2.0144 H   0  0  0  0  0  0  0  0  0  0  0  0
    3.3141   17.6496   -2.1193 H   0  0  0  0  0  0  0  0  0  0  0  0
    2.7150   18.7770   -0.3480 H   0  0  0  0  0  0  0  0  0  0  0  0
    1.5251   15.0477   -3.1590 H   0  0  0  0  0  0  0  0  0  0  0  0
    0.5390   16.4377   -3.7266 H   0  0  0  0  0  0  0  0  0  0  0  0
    2.3318   16.5490   -3.7266 H   0  0  0  0  0  0  0  0  0  0  0  0
    0.3790   18.3734   -0.8032 H   0  0  0  0  0  0  0  0  0  0  0  0
    1.1768   18.7918   -2.3573 H   0  0  0  0  0  0  0  0  0  0  0  0
   -0.3453   17.8380   -2.3573 H   0  0  0  0  0  0  0  0  0  0  0  0
    0.8458   13.0404    2.6277 H   0  0  0  0  0  0  0  0  0  0  0  0
    2.4484   13.6843    2.1342 H   0  0  0  0  0  0  0  0  0  0  0  0
    1.0097   14.7598    2.1342 H   0  0  0  0  0  0  0  0  0  0  0  0
    2.8217   12.1545   -0.0400 H   0  0  0  0  0  0  0  0  0  0  0  0
    1.6456   11.3975    1.1760 H   0  0  0  0  0  0  0  0  0  0  0  0
    1.3853   11.4785   -1.8430 H   0  0  0  0  0  0  0  0  0  0  0  0
    1.6296   10.0450   -0.7695 H   0  0  0  0  0  0  0  0  0  0  0  0
   -0.3415   10.9047    1.5138 H   0  0  0  0  0  0  0  0  0  0  0  0
   -1.6645    9.9382    0.7776 H   0  0  0  0  0  0  0  0  0  0  0  0
    0.0168    9.3059    0.7776 H   0  0  0  0  0  0  0  0  0  0  0  0
  1  2  1  0
  2  3  1  0
  3  4  1  0
  4  5  1  0
  5  6  1  0
  6  7  1  0
  7  8  1  0
  7  9  1  0
  2 10  1  0
 10 11  1  0
 11 12  1  0
 12 13  1  0
 13 14  1  6
 13 15  1  0
 15 16  1  0
 16 17  1  0
 17 18  2  0
 18 19  1  0
 19 20  1  0
 20 21  1  0
 21 22  1  0
 22 23  1  0
 22 24  1  0
 24 25  1  0
 24 26  1  0
 19 27  1  0
 27 28  1  1
 27 29  1  0
 29 30  1  0
 30 31  1  0
 31 32  1  1
  7  5  1  0
 31 10  1  0
 31 13  1  0
 27 15  1  0
 24 18  1  0
  1 33  1  0
  1 34  1  0
  1 35  1  0
  2 36  1  1
  3 37  1  0
  3 38  1  0
  4 39  1  0
  4 40  1  0
  5 41  1  1
  8 42  1  0
  8 43  1  0
  8 44  1  0
  9 45  1  0
  9 46  1  0
  9 47  1  0
 10 48  1  6
 11 49  1  0
 11 50  1  0
 12 51  1  0
 12 52  1  0
 14 53  1  0
 14 54  1  0
 14 55  1  0
 15 56  1  1
 16 57  1  0
 16 58  1  0
 17 59  1  0
 19 60  1  6
 20 61  1  0
 20 62  1  0
 21 63  1  0
 21 64  1  0
 22 65  1  6
 23 66  1  0
 25 67  1  0
 25 68  1  0
 25 69  1  0
 26 70  1  0
 26 71  1  0
 26 72  1  0
 28 73  1  0
 28 74  1  0
 28 75  1  0
 29 76  1  0
 29 77  1  0
 30 78  1  0
 30 79  1  0
 32 80  1  0
 32 81  1  0
 32 82  1  0
M  END
>  <meeko>  (15) 
{"is_sidechain": [false], "intermolecular_energy": 2.731, "internal_energy": -0.839}

$$$$
EPH_relaxed_0001_pdb2pqr_Repair_110_r2_0001_out
     RDKit          3D

 82 86  0  0  0  0  0  0  0  0999 V2000
    1.2170    9.3360    0.2620 C   0  0  0  0  0  0  0  0  0  0  0  0
    0.1920   10.2450   -0.4230 C   0  0  2  0  0  0  0  0  0  0  0  0
   -0.6130    9.4990   -1.5060 C   0  0  0  0  0  0  0  0  0  0  0  0
   -1.7770    8.6750   -0.9490 C   0  0  0  0  0  0  0  0  0  0  0  0
   -3.0210    9.4980   -0.8040 C   0  0  2  0  0  0  0  0  0  0  0  0
   -3.8100    9.1920    0.3530 O   0  0  0  0  0  0  0  0  0  0  0  0
   -4.4210    8.9260   -0.9200 C   0  0  0  0  0  0  0  0  0  0  0  0
   -4.6500    7.4720   -1.1930 C   0  0  0  0  0  0  0  0  0  0  0  0
   -5.5480    9.8530   -1.2530 C   0  0  0  0  0  0  0  0  0  0  0  0
    0.8950   11.4510   -1.0340 C   0  0  1  0  0  0  0  0  0  0  0  0
    1.1990   11.2630   -2.5450 C   0  0  0  0  0  0  0  0  0  0  0  0
    1.0450   12.6560   -3.2080 C   0  0  0  0  0  0  0  0  0  0  0  0
    0.9880   13.6490   -2.0230 C   0  0  1  0  0  0  0  0  0  0  0  0
    2.4770   13.8690   -1.6120 C   0  0  0  0  0  0  0  0  0  0  0  0
    0.2570   15.0040   -2.2920 C   0  0  2  0  0  0  0  0  0  0  0  0
    0.8980   15.8880   -3.3760 C   0  0  0  0  0  0  0  0  0  0  0  0
    1.9200   16.8590   -2.8860 C   0  0  0  0  0  0  0  0  0  0  0  0
    2.1060   17.2170   -1.6010 C   0  0  0  0  0  0  0  0  0  0  0  0
    1.1740   16.7010   -0.4970 C   0  0  1  0  0  0  0  0  0  0  0  0
    0.7550   17.8800    0.4200 C   0  0  0  0  0  0  0  0  0  0  0  0
    1.9540   18.6420    0.9770 C   0  0  0  0  0  0  0  0  0  0  0  0
    2.8240   19.1890   -0.1520 C   0  0  2  0  0  0  0  0  0  0  0  0
    2.0870   20.1930   -0.8570 O   0  0  0  0  0  0  0  0  0  0  0  0
    3.2990   18.0930   -1.1460 C   0  0  0  0  0  0  0  0  0  0  0  0
    4.3380   17.1770   -0.4540 C   0  0  0  0  0  0  0  0  0  0  0  0
    4.0470   18.7960   -2.3110 C   0  0  0  0  0  0  0  0  0  0  0  0
   -0.0670   15.8360   -0.9850 C   0  0  1  0  0  0  0  0  0  0  0  0
   -1.2620   16.7730   -1.3380 C   0  0  0  0  0  0  0  0  0  0  0  0
   -0.5550   14.9220    0.2010 C   0  0  0  0  0  0  0  0  0  0  0  0
    0.1230   13.5460    0.3410 C   0  0  0  0  0  0  0  0  0  0  0  0
    0.1440   12.8050   -0.9990 C   0  0  2  0  0  0  0  0  0  0  0  0
   -1.3420   12.5500   -1.4280 C   0  0  0  0  0  0  0  0  0  0  0  0
    1.1154    9.4261    1.3536 H   0  0  0  0  0  0  0  0  0  0  0  0
    1.0400    8.2926   -0.0378 H   0  0  0  0  0  0  0  0  0  0  0  0
    2.2318    9.6365   -0.0378 H   0  0  0  0  0  0  0  0  0  0  0  0
   -0.5205   10.5797    0.3453 H   0  0  0  0  0  0  0  0  0  0  0  0
   -1.0181   10.2406   -2.2102 H   0  0  0  0  0  0  0  0  0  0  0  0
    0.0775    8.7933   -1.9910 H   0  0  0  0  0  0  0  0  0  0  0  0
   -1.9810    7.8385   -1.6336 H   0  0  0  0  0  0  0  0  0  0  0  0
   -1.4908    8.3086    0.0479 H   0  0  0  0  0  0  0  0  0  0  0  0
   -2.5344   10.3601   -1.2835 H   0  0  0  0  0  0  0  0  0  0  0  0
   -4.7355    6.9291   -0.2402 H   0  0  0  0  0  0  0  0  0  0  0  0
   -5.5786    7.3490   -1.7697 H   0  0  0  0  0  0  0  0  0  0  0  0
   -3.8042    7.0695   -1.7697 H   0  0  0  0  0  0  0  0  0  0  0  0
   -6.0023   10.2267   -0.3235 H   0  0  0  0  0  0  0  0  0  0  0  0
   -5.1644   10.7004   -1.8401 H   0  0  0  0  0  0  0  0  0  0  0  0
   -6.3055    9.3132   -1.8401 H   0  0  0  0  0  0  0  0  0  0  0  0
    1.7817   11.4962   -0.3846 H   0  0  0  0  0  0  0  0  0  0  0  0
    2.2246   10.8896   -2.6816 H   0  0  0  0  0  0  0  0  0  0  0  0
    0.5136   10.5316   -2.9981 H   0  0  0  0  0  0  0  0  0  0  0  0
    1.9062   12.8746   -3.8565 H   0  0  0  0  0  0  0  0  0  0  0  0
    0.1514   12.7172   -3.8465 H   0  0  0  0  0  0  0  0  0  0  0  0
    2.5567   13.8808   -0.5150 H   0  0  0  0  0  0  0  0  0  0  0  0
    3.0933   13.0522   -2.0156 H   0  0  0  0  0  0  0  0  0  0  0  0
    2.8308   14.8292   -2.0156 H   0  0  0  0  0  0  0  0  0  0  0  0
   -0.7063   14.6735   -2.7077 H   0  0  0  0  0  0  0  0  0  0  0  0
    1.3817   15.2276   -4.1108 H   0  0  0  0  0  0  0  0  0  0  0  0
    0.0814   16.4929   -3.7969 H   0  0  0  0  0  0  0  0  0  0  0  0
    2.5767   17.3212   -3.6377 H   0  0  0  0  0  0  0  0  0  0  0  0
    1.7607   15.9704    0.0793 H   0  0  0  0  0  0  0  0  0  0  0  0
    0.1341   18.5765   -0.1625 H   0  0  0  0  0  0  0  0  0  0  0  0
    0.2008   17.4598    1.2723 H   0  0  0  0  0  0  0  0  0  0  0  0
    1.5941   19.4796    1.5925 H   0  0  0  0  0  0  0  0  0  0  0  0
    2.5584   17.9515    1.5835 H   0  0  0  0  0  0  0  0  0  0  0  0
    3.7313   19.6106    0.3053 H   0  0  0  0  0  0  0  0  0  0  0  0
    1.3610   20.4850   -0.2800 H   0  0  0  0  0  0  0  0  0  0  0  0
    4.2364   17.2666    0.6376 H   0  0  0  0  0  0  0  0  0  0  0  0
    4.1639   16.1331   -0.7540 H   0  0  0  0  0  0  0  0  0  0  0  0
    5.3518   17.4805   -0.7540 H   0  0  0  0  0  0  0  0  0  0  0  0
    4.7906   19.4949   -1.9005 H   0  0  0  0  0  0  0  0  0  0  0  0
    4.5552   18.0411   -2.9289 H   0  0  0  0  0  0  0  0  0  0  0  0
    3.3250   19.3500   -2.9289 H   0  0  0  0  0  0  0  0  0  0  0  0
   -1.7278   17.1383   -0.4109 H   0  0  0  0  0  0  0  0  0  0  0  0
   -0.8965   17.6277   -1.9261 H   0  0  0  0  0  0  0  0  0  0  0  0
   -2.0048   16.2141   -1.9261 H   0  0  0  0  0  0  0  0  0  0  0  0
   -0.3857   15.4734    1.1376 H   0  0  0  0  0  0  0  0  0  0  0  0
   -1.6099   14.7022   -0.0199 H   0  0  0  0  0  0  0  0  0  0  0  0
    1.1566   13.6882    0.6895 H   0  0  0  0  0  0  0  0  0  0  0  0
   -0.4487   12.9458    1.0641 H   0  0  0  0  0  0  0  0  0  0  0  0
   -1.9693   12.4424   -0.5308 H   0  0  0  0  0  0  0  0  0  0  0  0
   -1.7016   13.3996   -2.0271 H   0  0  0  0  0  0  0  0  0  0  0  0
   -1.3978   11.6291   -2.0271 H   0  0  0  0  0  0  0  0  0  0  0  0
  1  2  1  0
  2  3  1  0
  3  4  1  0
  4  5  1  0
  5  6  1  0
  6  7  1  0
  7  8  1  0
  7  9  1  0
  2 10  1  0
 10 11  1  0
 11 12  1  0
 12 13  1  0
 13 14  1  1
 13 15  1  0
 15 16  1  0
 16 17  1  0
 17 18  2  0
 18 19  1  0
 19 20  1  0
 20 21  1  0
 21 22  1  0
 22 23  1  0
 22 24  1  0
 24 25  1  0
 24 26  1  0
 19 27  1  0
 27 28  1  6
 27 29  1  0
 29 30  1  0
 30 31  1  0
 31 32  1  6
  7  5  1  0
 31 10  1  0
 31 13  1  0
 27 15  1  0
 24 18  1  0
  1 33  1  0
  1 34  1  0
  1 35  1  0
  2 36  1  1
  3 37  1  0
  3 38  1  0
  4 39  1  0
  4 40  1  0
  5 41  1  6
  8 42  1  0
  8 43  1  0
  8 44  1  0
  9 45  1  0
  9 46  1  0
  9 47  1  0
 10 48  1  1
 11 49  1  0
 11 50  1  0
 12 51  1  0
 12 52  1  0
 14 53  1  0
 14 54  1  0
 14 55  1  0
 15 56  1  6
 16 57  1  0
 16 58  1  0
 17 59  1  0
 19 60  1  1
 20 61  1  0
 20 62  1  0
 21 63  1  0
 21 64  1  0
 22 65  1  1
 23 66  1  0
 25 67  1  0
 25 68  1  0
 25 69  1  0
 26 70  1  0
 26 71  1  0
 26 72  1  0
 28 73  1  0
 28 74  1  0
 28 75  1  0
 29 76  1  0
 29 77  1  0
 30 78  1  0
 30 79  1  0
 32 80  1  0
 32 81  1  0
 32 82  1  0
M  END
>  <meeko>  (16) 
{"is_sidechain": [false], "intermolecular_energy": 2.731, "internal_energy": -0.839}

$$$$
EPH_relaxed_0001_pdb2pqr_Repair_110_r2_0001_out
     RDKit          3D

 82 86  0  0  0  0  0  0  0  0999 V2000
   -2.7720   10.4620   -0.8910 C   0  0  0  0  0  0  0  0  0  0  0  0
   -1.2510   10.4220   -1.0650 C   0  0  2  0  0  0  0  0  0  0  0  0
   -0.6220    9.1830   -0.3980 C   0  0  0  0  0  0  0  0  0  0  0  0
    0.9020    9.1170   -0.5340 C   0  0  0  0  0  0  0  0  0  0  0  0
    1.3530    9.5200   -1.9050 C   0  0  2  0  0  0  0  0  0  0  0  0
    2.4420    8.7470   -2.4280 O   0  0  0  0  0  0  0  0  0  0  0  0
    2.7090   10.1390   -2.1910 C   0  0  0  0  0  0  0  0  0  0  0  0
    3.6980   10.3920   -1.0970 C   0  0  0  0  0  0  0  0  0  0  0  0
    2.8790   10.9410   -3.4440 C   0  0  0  0  0  0  0  0  0  0  0  0
   -0.6300   11.6930   -0.4960 C   0  0  1  0  0  0  0  0  0  0  0  0
    0.5200   11.3990    0.5030 C   0  0  0  0  0  0  0  0  0  0  0  0
    1.5700   12.5250    0.3200 C   0  0  0  0  0  0  0  0  0  0  0  0
    0.8480   13.5980   -0.5280 C   0  0  1  0  0  0  0  0  0  0  0  0
   -0.0180   14.4000    0.4940 C   0  0  0  0  0  0  0  0  0  0  0  0
    1.7630   14.5420   -1.3740 C   0  0  2  0  0  0  0  0  0  0  0  0
    2.7270   15.4200   -0.5570 C   0  0  0  0  0  0  0  0  0  0  0  0
    2.1920   16.7570   -0.1630 C   0  0  0  0  0  0  0  0  0  0  0  0
    1.1020   17.3490   -0.6870 C   0  0  0  0  0  0  0  0  0  0  0  0
    0.3410   16.7070   -1.8540 C   0  0  1  0  0  0  0  0  0  0  0  0
    0.0470   17.7810   -2.9340 C   0  0  0  0  0  0  0  0  0  0  0  0
   -0.6750   18.9990   -2.3660 C   0  0  0  0  0  0  0  0  0  0  0  0
    0.1400   19.6440   -1.2480 C   0  0  2  0  0  0  0  0  0  0  0  0
    1.3360   20.1940   -1.8080 O   0  0  0  0  0  0  0  0  0  0  0  0
    0.5050   18.6550   -0.1060 C   0  0  0  0  0  0  0  0  0  0  0  0
   -0.7700   18.2910    0.6950 C   0  0  0  0  0  0  0  0  0  0  0  0
    1.4440   19.3940    0.8840 C   0  0  0  0  0  0  0  0  0  0  0  0
    0.9900   15.3900   -2.4630 C   0  0  1  0  0  0  0  0  0  0  0  0
    2.0340   15.7680   -3.5570 C   0  0  0  0  0  0  0  0  0  0  0  0
   -0.1300   14.5540   -3.1880 C   0  0  0  0  0  0  0  0  0  0  0  0
   -0.9190   13.5520   -2.3230 C   0  0  0  0  0  0  0  0  0  0  0  0
    0.0270   12.6740   -1.4990 C   0  0  2  0  0  0  0  0  0  0  0  0
    0.8970   11.8390   -2.5000 C   0  0  0  0  0  0  0  0  0  0  0  0
   -3.0184   10.4685    0.1810 H   0  0  0  0  0  0  0  0  0  0  0  0
   -3.1715   11.3710   -1.3645 H   0  0  0  0  0  0  0  0  0  0  0  0
   -3.2187    9.5753   -1.3645 H   0  0  0  0  0  0  0  0  0  0  0  0
   -1.0425   10.3565   -2.1431 H   0  0  0  0  0  0  0  0  0  0  0  0
   -0.8747    9.1991    0.6725 H   0  0  0  0  0  0  0  0  0  0  0  0
   -1.0290    8.2999   -0.9123 H   0  0  0  0  0  0  0  0  0  0  0  0
    1.3557    9.7946    0.2043 H   0  0  0  0  0  0  0  0  0  0  0  0
    1.2175    8.0776   -0.3604 H   0  0  0  0  0  0  0  0  0  0  0  0
    0.3313    9.8224   -2.1785 H   0  0  0  0  0  0  0  0  0  0  0  0
    3.2058   10.2661   -0.1214 H   0  0  0  0  0  0  0  0  0  0  0  0
    4.5302    9.6778   -1.1827 H   0  0  0  0  0  0  0  0  0  0  0  0
    4.0851   11.4181   -1.1827 H   0  0  0  0  0  0  0  0  0  0  0  0
    3.1006   11.9864   -3.1830 H   0  0  0  0  0  0  0  0  0  0  0  0
    3.7093   10.5267   -4.0347 H   0  0  0  0  0  0  0  0  0  0  0  0
    1.9520   10.8991   -4.0347 H   0  0  0  0  0  0  0  0  0  0  0  0
   -1.5248   12.1532   -0.0514 H   0  0  0  0  0  0  0  0  0  0  0  0
    0.1364   11.4026    1.5339 H   0  0  0  0  0  0  0  0  0  0  0  0
    0.9640   10.4104    0.3145 H   0  0  0  0  0  0  0  0  0  0  0  0
    1.8706   12.9377    1.2943 H   0  0  0  0  0  0  0  0  0  0  0  0
    2.4904   12.1628   -0.1614 H   0  0  0  0  0  0  0  0  0  0  0  0
    0.2767   14.1271    1.5180 H   0  0  0  0  0  0  0  0  0  0  0  0
    0.1398   15.4780    0.3420 H   0  0  0  0  0  0  0  0  0  0  0  0
   -1.0807   14.1600    0.3420 H   0  0  0  0  0  0  0  0  0  0  0  0
    2.3983   13.8281   -1.9188 H   0  0  0  0  0  0  0  0  0  0  0  0
    2.9884   14.8742    0.3616 H   0  0  0  0  0  0  0  0  0  0  0  0
    3.5885   15.6175   -1.2119 H   0  0  0  0  0  0  0  0  0  0  0  0
    2.7342   17.3048    0.6218 H   0  0  0  0  0  0  0  0  0  0  0  0
   -0.6041   16.3338   -1.4328 H   0  0  0  0  0  0  0  0  0  0  0  0
    1.0004   18.1094   -3.3735 H   0  0  0  0  0  0  0  0  0  0  0  0
   -0.6106   17.3247   -3.6886 H   0  0  0  0  0  0  0  0  0  0  0  0
   -0.8282   19.7340   -3.1699 H   0  0  0  0  0  0  0  0  0  0  0  0
   -1.6413   18.6735   -1.9532 H   0  0  0  0  0  0  0  0  0  0  0  0
   -0.4845   20.4284   -0.7955 H   0  0  0  0  0  0  0  0  0  0  0  0
    1.1970   20.2870   -2.7660 H   0  0  0  0  0  0  0  0  0  0  0  0
   -0.5561   18.3521    1.7723 H   0  0  0  0  0  0  0  0  0  0  0  0
   -1.5762   18.9949    0.4407 H   0  0  0  0  0  0  0  0  0  0  0  0
   -1.0831   17.2676    0.4407 H   0  0  0  0  0  0  0  0  0  0  0  0
    1.1459   19.1594    1.9165 H   0  0  0  0  0  0  0  0  0  0  0  0
    2.4813   19.0674    0.7186 H   0  0  0  0  0  0  0  0  0  0  0  0
    1.3704   20.4790    0.7186 H   0  0  0  0  0  0  0  0  0  0  0  0
    2.9640   16.1047   -3.0756 H   0  0  0  0  0  0  0  0  0  0  0  0
    2.2431   14.8885   -4.1837 H   0  0  0  0  0  0  0  0  0  0  0  0
    1.6316   16.5775   -4.1837 H   0  0  0  0  0  0  0  0  0  0  0  0
   -0.8520   15.2653   -3.6154 H   0  0  0  0  0  0  0  0  0  0  0  0
    0.4035   13.9384   -3.9272 H   0  0  0  0  0  0  0  0  0  0  0  0
   -1.5795   14.1076   -1.6411 H   0  0  0  0  0  0  0  0  0  0  0  0
   -1.5087   12.9037   -2.9878 H   0  0  0  0  0  0  0  0  0  0  0  0
    1.5785   11.1850   -1.9362 H   0  0  0  0  0  0  0  0  0  0  0  0
    0.2397   11.2250   -3.1332 H   0  0  0  0  0  0  0  0  0  0  0  0
    1.4835   12.5210   -3.1332 H   0  0  0  0  0  0  0  0  0  0  0  0
  1  2  1  0
  2  3  1  0
  3  4  1  0
  4  5  1  0
  5  6  1  0
  6  7  1  0
  7  8  1  0
  7  9  1  0
  2 10  1  0
 10 11  1  0
 11 12  1  0
 12 13  1  0
 13 14  1  1
 13 15  1  0
 15 16  1  0
 16 17  1  0
 17 18  2  0
 18 19  1  0
 19 20  1  0
 20 21  1  0
 21 22  1  0
 22 23  1  0
 22 24  1  0
 24 25  1  0
 24 26  1  0
 19 27  1  0
 27 28  1  6
 27 29  1  0
 29 30  1  0
 30 31  1  0
 31 32  1  6
  7  5  1  0
 31 10  1  0
 31 13  1  0
 27 15  1  0
 24 18  1  0
  1 33  1  0
  1 34  1  0
  1 35  1  0
  2 36  1  6
  3 37  1  0
  3 38  1  0
  4 39  1  0
  4 40  1  0
  5 41  1  6
  8 42  1  0
  8 43  1  0
  8 44  1  0
  9 45  1  0
  9 46  1  0
  9 47  1  0
 10 48  1  1
 11 49  1  0
 11 50  1  0
 12 51  1  0
 12 52  1  0
 14 53  1  0
 14 54  1  0
 14 55  1  0
 15 56  1  6
 16 57  1  0
 16 58  1  0
 17 59  1  0
 19 60  1  1
 20 61  1  0
 20 62  1  0
 21 63  1  0
 21 64  1  0
 22 65  1  1
 23 66  1  0
 25 67  1  0
 25 68  1  0
 25 69  1  0
 26 70  1  0
 26 71  1  0
 26 72  1  0
 28 73  1  0
 28 74  1  0
 28 75  1  0
 29 76  1  0
 29 77  1  0
 30 78  1  0
 30 79  1  0
 32 80  1  0
 32 81  1  0
 32 82  1  0
M  END
>  <meeko>  (17) 
{"is_sidechain": [false], "intermolecular_energy": 2.731, "internal_energy": -0.839}

$$$$
EPH_relaxed_0001_pdb2pqr_Repair_110_r2_0001_out
     RDKit          3D

 82 86  0  0  0  0  0  0  0  0999 V2000
    3.0520   18.8530   -1.1470 C   0  0  0  0  0  0  0  0  0  0  0  0
    2.7530   17.7820   -2.1990 C   0  0  2  0  0  0  0  0  0  0  0  0
    1.3710   17.9820   -2.8540 C   0  0  0  0  0  0  0  0  0  0  0  0
    0.6760   19.2820   -2.4410 C   0  0  0  0  0  0  0  0  0  0  0  0
   -0.6510   19.0210   -1.7950 C   0  0  2  0  0  0  0  0  0  0  0  0
   -1.4330   20.1940   -1.5380 O   0  0  0  0  0  0  0  0  0  0  0  0
   -0.9950   19.4590   -0.3840 C   0  0  0  0  0  0  0  0  0  0  0  0
   -0.0090   20.1950    0.4680 C   0  0  0  0  0  0  0  0  0  0  0  0
   -2.1010   18.7520    0.3350 C   0  0  0  0  0  0  0  0  0  0  0  0
    2.8360   16.3970   -1.5690 C   0  0  1  0  0  0  0  0  0  0  0  0
    3.4610   16.4230   -0.1490 C   0  0  0  0  0  0  0  0  0  0  0  0
    2.7400   15.3280    0.6770 C   0  0  0  0  0  0  0  0  0  0  0  0
    1.9670   14.4930   -0.3710 C   0  0  1  0  0  0  0  0  0  0  0  0
    3.0300   13.5190   -0.9690 C   0  0  0  0  0  0  0  0  0  0  0  0
    0.7080   13.7260    0.1480 C   0  0  2  0  0  0  0  0  0  0  0  0
    0.9900   12.6560    1.2170 C   0  0  0  0  0  0  0  0  0  0  0  0
    1.2610   11.2850    0.6910 C   0  0  0  0  0  0  0  0  0  0  0  0
    1.0000   10.8610   -0.5600 C   0  0  0  0  0  0  0  0  0  0  0  0
    0.2820   11.7710   -1.5650 C   0  0  1  0  0  0  0  0  0  0  0  0
   -0.8410   10.9710   -2.2770 C   0  0  0  0  0  0  0  0  0  0  0  0
   -0.3270    9.6840   -2.9160 C   0  0  0  0  0  0  0  0  0  0  0  0
    0.3280    8.7810   -1.8750 C   0  0  2  0  0  0  0  0  0  0  0  0
   -0.6760    8.3240   -0.9630 O   0  0  0  0  0  0  0  0  0  0  0  0
    1.4690    9.4830   -1.0860 C   0  0  0  0  0  0  0  0  0  0  0  0
    2.6850    9.7070   -2.0190 C   0  0  0  0  0  0  0  0  0  0  0  0
    1.9490    8.5110    0.0260 C   0  0  0  0  0  0  0  0  0  0  0  0
   -0.2280   13.1650   -0.9980 C   0  0  1  0  0  0  0  0  0  0  0  0
   -1.6470   12.9990   -0.3730 C   0  0  0  0  0  0  0  0  0  0  0  0
   -0.3850   14.1790   -2.1920 C   0  0  0  0  0  0  0  0  0  0  0  0
    0.8640   14.9940   -2.5800 C   0  0  0  0  0  0  0  0  0  0  0  0
    1.5050   15.6370   -1.3460 C   0  0  2  0  0  0  0  0  0  0  0  0
    0.4670   16.6390   -0.7350 C   0  0  0  0  0  0  0  0  0  0  0  0
    2.9320   18.4230   -0.1416 H   0  0  0  0  0  0  0  0  0  0  0  0
    4.0845   19.2113   -1.2717 H   0  0  0  0  0  0  0  0  0  0  0  0
    2.3544   19.6943   -1.2717 H   0  0  0  0  0  0  0  0  0  0  0  0
    3.5104   17.8753   -2.9913 H   0  0  0  0  0  0  0  0  0  0  0  0
    1.5023   17.9903   -3.9461 H   0  0  0  0  0  0  0  0  0  0  0  0
    0.7316   17.1539   -2.5142 H   0  0  0  0  0  0  0  0  0  0  0  0
    1.3195   19.8194   -1.7288 H   0  0  0  0  0  0  0  0  0  0  0  0
    0.5039   19.8813   -3.3472 H   0  0  0  0  0  0  0  0  0  0  0  0
   -0.7364   18.0518   -2.3082 H   0  0  0  0  0  0  0  0  0  0  0  0
   -0.2406   20.0221    1.5294 H   0  0  0  0  0  0  0  0  0  0  0  0
    1.0064   19.8322    0.2504 H   0  0  0  0  0  0  0  0  0  0  0  0
   -0.0681   21.2716    0.2504 H   0  0  0  0  0  0  0  0  0  0  0  0
   -1.9522   18.8471    1.4207 H   0  0  0  0  0  0  0  0  0  0  0  0
   -3.0656   19.2014    0.0564 H   0  0  0  0  0  0  0  0  0  0  0  0
   -2.0981   17.6879    0.0564 H   0  0  0  0  0  0  0  0  0  0  0  0
    3.4396   15.8832   -2.3317 H   0  0  0  0  0  0  0  0  0  0  0  0
    4.5382   16.2073   -0.2053 H   0  0  0  0  0  0  0  0  0  0  0  0
    3.3414   17.4122    0.3171 H   0  0  0  0  0  0  0  0  0  0  0  0
    3.4694   14.7014    1.2112 H   0  0  0  0  0  0  0  0  0  0  0  0
    2.0754   15.7537    1.4432 H   0  0  0  0  0  0  0  0  0  0  0  0
    3.5727   13.0218   -0.1515 H   0  0  0  0  0  0  0  0  0  0  0  0
    2.5265   12.7622   -1.5885 H   0  0  0  0  0  0  0  0  0  0  0  0
    3.7400   14.0866   -1.5885 H   0  0  0  0  0  0  0  0  0  0  0  0
    0.1443   14.5193    0.6608 H   0  0  0  0  0  0  0  0  0  0  0  0
    1.8680   12.9775    1.7964 H   0  0  0  0  0  0  0  0  0  0  0  0
    0.0716   12.5758    1.8170 H   0  0  0  0  0  0  0  0  0  0  0  0
    1.7121   10.5599    1.3844 H   0  0  0  0  0  0  0  0  0  0  0  0
    1.0445   12.0770   -2.2964 H   0  0  0  0  0  0  0  0  0  0  0  0
   -1.6137   10.7135   -1.5377 H   0  0  0  0  0  0  0  0  0  0  0  0
   -1.2448   11.6047   -3.0803 H   0  0  0  0  0  0  0  0  0  0  0  0
   -1.1706    9.1491   -3.3766 H   0  0  0  0  0  0  0  0  0  0  0  0
    0.4242    9.9454   -3.6759 H   0  0  0  0  0  0  0  0  0  0  0  0
    0.7893    7.9394   -2.4125 H   0  0  0  0  0  0  0  0  0  0  0  0
   -1.5370    8.4140   -1.4050 H   0  0  0  0  0  0  0  0  0  0  0  0
    3.5872    9.8732   -1.4120 H   0  0  0  0  0  0  0  0  0  0  0  0
    2.8284    8.8202   -2.6538 H   0  0  0  0  0  0  0  0  0  0  0  0
    2.5030   10.5867   -2.6538 H   0  0  0  0  0  0  0  0  0  0  0  0
    1.7335    8.9473    1.0125 H   0  0  0  0  0  0  0  0  0  0  0  0
    1.4214    7.5509   -0.0734 H   0  0  0  0  0  0  0  0  0  0  0  0
    3.0320    8.3463   -0.0734 H   0  0  0  0  0  0  0  0  0  0  0  0
   -1.5678   13.0083    0.7241 H   0  0  0  0  0  0  0  0  0  0  0  0
   -2.2914   13.8279   -0.7011 H   0  0  0  0  0  0  0  0  0  0  0  0
   -2.0827   12.0438   -0.7011 H   0  0  0  0  0  0  0  0  0  0  0  0
   -0.6961   13.6051   -3.0773 H   0  0  0  0  0  0  0  0  0  0  0  0
   -1.1172   14.9224   -1.8440 H   0  0  0  0  0  0  0  0  0  0  0  0
    1.5953   14.3258   -3.0583 H   0  0  0  0  0  0  0  0  0  0  0  0
    0.5603   15.7922   -3.2733 H   0  0  0  0  0  0  0  0  0  0  0  0
    0.5151   16.5926    0.3630 H   0  0  0  0  0  0  0  0  0  0  0  0
    0.7024   17.6601   -1.0695 H   0  0  0  0  0  0  0  0  0  0  0  0
   -0.5452   16.3678   -1.0695 H   0  0  0  0  0  0  0  0  0  0  0  0
  1  2  1  0
  2  3  1  0
  3  4  1  0
  4  5  1  0
  5  6  1  0
  6  7  1  0
  7  8  1  0
  7  9  1  0
  2 10  1  0
 10 11  1  0
 11 12  1  0
 12 13  1  0
 13 14  1  6
 13 15  1  0
 15 16  1  0
 16 17  1  0
 17 18  2  0
 18 19  1  0
 19 20  1  0
 20 21  1  0
 21 22  1  0
 22 23  1  0
 22 24  1  0
 24 25  1  0
 24 26  1  0
 19 27  1  0
 27 28  1  1
 27 29  1  0
 29 30  1  0
 30 31  1  0
 31 32  1  1
  7  5  1  0
 31 10  1  0
 31 13  1  0
 27 15  1  0
 24 18  1  0
  1 33  1  0
  1 34  1  0
  1 35  1  0
  2 36  1  6
  3 37  1  0
  3 38  1  0
  4 39  1  0
  4 40  1  0
  5 41  1  6
  8 42  1  0
  8 43  1  0
  8 44  1  0
  9 45  1  0
  9 46  1  0
  9 47  1  0
 10 48  1  6
 11 49  1  0
 11 50  1  0
 12 51  1  0
 12 52  1  0
 14 53  1  0
 14 54  1  0
 14 55  1  0
 15 56  1  1
 16 57  1  0
 16 58  1  0
 17 59  1  0
 19 60  1  6
 20 61  1  0
 20 62  1  0
 21 63  1  0
 21 64  1  0
 22 65  1  6
 23 66  1  0
 25 67  1  0
 25 68  1  0
 25 69  1  0
 26 70  1  0
 26 71  1  0
 26 72  1  0
 28 73  1  0
 28 74  1  0
 28 75  1  0
 29 76  1  0
 29 77  1  0
 30 78  1  0
 30 79  1  0
 32 80  1  0
 32 81  1  0
 32 82  1  0
M  END
>  <meeko>  (18) 
{"is_sidechain": [false], "intermolecular_energy": 2.731, "internal_energy": -0.839}

$$$$
EPH_relaxed_0001_pdb2pqr_Repair_110_r2_0001_out
     RDKit          3D

 82 86  0  0  0  0  0  0  0  0999 V2000
  -14.8200    8.9140    1.1250 C   0  0  0  0  0  0  0  0  0  0  0  0
  -14.1030    9.1320   -0.2110 C   0  0  2  0  0  0  0  0  0  0  0  0
  -14.6250    8.1870   -1.3110 C   0  0  0  0  0  0  0  0  0  0  0  0
  -14.5850    8.7960   -2.7150 C   0  0  0  0  0  0  0  0  0  0  0  0
  -15.2800   10.1230   -2.7650 C   0  0  2  0  0  0  0  0  0  0  0  0
  -15.0610   10.8690   -3.9690 O   0  0  0  0  0  0  0  0  0  0  0  0
  -14.5470   11.4520   -2.7600 C   0  0  0  0  0  0  0  0  0  0  0  0
  -13.0530   11.5190   -2.7050 C   0  0  0  0  0  0  0  0  0  0  0  0
  -15.2880   12.6760   -2.3190 C   0  0  0  0  0  0  0  0  0  0  0  0
  -12.6010    8.9420   -0.0310 C   0  0  1  0  0  0  0  0  0  0  0  0
  -12.2040    8.6860    1.4470 C   0  0  0  0  0  0  0  0  0  0  0  0
  -11.0090    7.6990    1.4240 C   0  0  0  0  0  0  0  0  0  0  0  0
  -10.5470    7.6800   -0.0520 C   0  0  1  0  0  0  0  0  0  0  0  0
   -9.6600    8.9550   -0.2110 C   0  0  0  0  0  0  0  0  0  0  0  0
   -9.7970    6.3920   -0.5250 C   0  0  2  0  0  0  0  0  0  0  0  0
   -8.4670    6.1090    0.1970 C   0  0  0  0  0  0  0  0  0  0  0  0
   -7.2570    6.7090   -0.4390 C   0  0  0  0  0  0  0  0  0  0  0  0
   -7.1930    7.2010   -1.6900 C   0  0  0  0  0  0  0  0  0  0  0  0
   -8.3930    7.0960   -2.6400 C   0  0  1  0  0  0  0  0  0  0  0  0
   -7.9120    6.5980   -4.0280 C   0  0  0  0  0  0  0  0  0  0  0  0
   -6.7890    7.4570   -4.6010 C   0  0  0  0  0  0  0  0  0  0  0  0
   -5.5910    7.4900   -3.6540 C   0  0  2  0  0  0  0  0  0  0  0  0
   -5.0160    6.1810   -3.5940 O   0  0  0  0  0  0  0  0  0  0  0  0
   -5.9560    7.9670   -2.2210 C   0  0  0  0  0  0  0  0  0  0  0  0
   -6.2930    9.4780   -2.2450 C   0  0  0  0  0  0  0  0  0  0  0  0
   -4.6920    7.8190   -1.3320 C   0  0  0  0  0  0  0  0  0  0  0  0
   -9.6390    6.2740   -2.0950 C   0  0  1  0  0  0  0  0  0  0  0  0
   -9.4560    4.7580   -2.4110 C   0  0  0  0  0  0  0  0  0  0  0  0
  -10.9350    6.7340   -2.8630 C   0  0  0  0  0  0  0  0  0  0  0  0
  -11.6980    7.9370   -2.2780 C   0  0  0  0  0  0  0  0  0  0  0  0
  -11.9400    7.7560   -0.7770 C   0  0  2  0  0  0  0  0  0  0  0  0
  -12.8480    6.4940   -0.5870 C   0  0  0  0  0  0  0  0  0  0  0  0
  -14.1262    9.1249    1.9522 H   0  0  0  0  0  0  0  0  0  0  0  0
  -15.6856    9.5896    1.1911 H   0  0  0  0  0  0  0  0  0  0  0  0
  -15.1631    7.8710    1.1911 H   0  0  0  0  0  0  0  0  0  0  0  0
  -14.3119   10.1623   -0.5347 H   0  0  0  0  0  0  0  0  0  0  0  0
  -14.0069    7.2771   -1.3093 H   0  0  0  0  0  0  0  0  0  0  0  0
  -15.6802    7.9778   -1.0811 H   0  0  0  0  0  0  0  0  0  0  0  0
  -13.5353    8.9321   -3.0145 H   0  0  0  0  0  0  0  0  0  0  0  0
  -15.1055    8.1109   -3.4003 H   0  0  0  0  0  0  0  0  0  0  0  0
  -16.1116    9.7367   -2.1573 H   0  0  0  0  0  0  0  0  0  0  0  0
  -12.7250   11.5337   -1.6551 H   0  0  0  0  0  0  0  0  0  0  0  0
  -12.6277   10.6390   -3.2097 H   0  0  0  0  0  0  0  0  0  0  0  0
  -12.7081   12.4335   -3.2097 H   0  0  0  0  0  0  0  0  0  0  0  0
  -15.3113   12.7144   -1.2199 H   0  0  0  0  0  0  0  0  0  0  0  0
  -14.7802   13.5715   -2.7065 H   0  0  0  0  0  0  0  0  0  0  0  0
  -16.3169   12.6413   -2.7065 H   0  0  0  0  0  0  0  0  0  0  0  0
  -12.2432    9.8948   -0.4483 H   0  0  0  0  0  0  0  0  0  0  0  0
  -11.9070    9.6294    1.9284 H   0  0  0  0  0  0  0  0  0  0  0  0
  -13.0484    8.2709    2.0168 H   0  0  0  0  0  0  0  0  0  0  0  0
  -10.1999    8.0534    2.0796 H   0  0  0  0  0  0  0  0  0  0  0  0
  -11.2872    6.6986    1.7869 H   0  0  0  0  0  0  0  0  0  0  0  0
   -9.3914    9.3411    0.7834 H   0  0  0  0  0  0  0  0  0  0  0  0
   -8.7446    8.6982   -0.7642 H   0  0  0  0  0  0  0  0  0  0  0  0
  -10.2191    9.7240   -0.7642 H   0  0  0  0  0  0  0  0  0  0  0  0
  -10.4830    5.5910   -0.2122 H   0  0  0  0  0  0  0  0  0  0  0  0
   -8.5448    6.5046    1.2205 H   0  0  0  0  0  0  0  0  0  0  0  0
   -8.3240    5.0191    0.1562 H   0  0  0  0  0  0  0  0  0  0  0  0
   -6.3396    6.7527    0.1664 H   0  0  0  0  0  0  0  0  0  0  0  0
   -8.8005    8.1139   -2.7291 H   0  0  0  0  0  0  0  0  0  0  0  0
   -7.5484    5.5649   -3.9253 H   0  0  0  0  0  0  0  0  0  0  0  0
   -8.7656    6.6601   -4.7191 H   0  0  0  0  0  0  0  0  0  0  0  0
   -6.4726    7.0382   -5.5677 H   0  0  0  0  0  0  0  0  0  0  0  0
   -7.1628    8.4833   -4.7310 H   0  0  0  0  0  0  0  0  0  0  0  0
   -4.8734    8.2215   -4.0540 H   0  0  0  0  0  0  0  0  0  0  0  0
   -4.9000    5.9530   -2.6560 H   0  0  0  0  0  0  0  0  0  0  0  0
   -6.3763    9.8515   -1.2137 H   0  0  0  0  0  0  0  0  0  0  0  0
   -5.4945   10.0235   -2.7692 H   0  0  0  0  0  0  0  0  0  0  0  0
   -7.2477    9.6325   -2.7692 H   0  0  0  0  0  0  0  0  0  0  0  0
   -4.9833    7.8531   -0.2718 H   0  0  0  0  0  0  0  0  0  0  0  0
   -4.2030    6.8575   -1.5471 H   0  0  0  0  0  0  0  0  0  0  0  0
   -3.9941    8.6416   -1.5471 H   0  0  0  0  0  0  0  0  0  0  0  0
   -9.3878    4.1929   -1.4697 H   0  0  0  0  0  0  0  0  0  0  0  0
  -10.3172    4.3982   -2.9931 H   0  0  0  0  0  0  0  0  0  0  0  0
   -8.5339    4.6135   -2.9931 H   0  0  0  0  0  0  0  0  0  0  0  0
  -10.6385    6.9951   -3.8896 H   0  0  0  0  0  0  0  0  0  0  0  0
  -11.6316    5.8861   -2.7862 H   0  0  0  0  0  0  0  0  0  0  0  0
  -11.1072    8.8507   -2.4395 H   0  0  0  0  0  0  0  0  0  0  0  0
  -12.6721    8.0135   -2.7833 H   0  0  0  0  0  0  0  0  0  0  0  0
  -12.9871    6.3007    0.4869 H   0  0  0  0  0  0  0  0  0  0  0  0
  -13.8264    6.6720   -1.0572 H   0  0  0  0  0  0  0  0  0  0  0  0
  -12.3683    5.6230   -1.0572 H   0  0  0  0  0  0  0  0  0  0  0  0
  1  2  1  0
  2  3  1  0
  3  4  1  0
  4  5  1  0
  5  6  1  0
  6  7  1  0
  7  8  1  0
  7  9  1  0
  2 10  1  0
 10 11  1  0
 11 12  1  0
 12 13  1  0
 13 14  1  1
 13 15  1  0
 15 16  1  0
 16 17  1  0
 17 18  2  0
 18 19  1  0
 19 20  1  0
 20 21  1  0
 21 22  1  0
 22 23  1  0
 22 24  1  0
 24 25  1  0
 24 26  1  0
 19 27  1  0
 27 28  1  1
 27 29  1  0
 29 30  1  0
 30 31  1  0
 31 32  1  6
  7  5  1  0
 31 10  1  0
 31 13  1  0
 27 15  1  0
 24 18  1  0
  1 33  1  0
  1 34  1  0
  1 35  1  0
  2 36  1  6
  3 37  1  0
  3 38  1  0
  4 39  1  0
  4 40  1  0
  5 41  1  1
  8 42  1  0
  8 43  1  0
  8 44  1  0
  9 45  1  0
  9 46  1  0
  9 47  1  0
 10 48  1  6
 11 49  1  0
 11 50  1  0
 12 51  1  0
 12 52  1  0
 14 53  1  0
 14 54  1  0
 14 55  1  0
 15 56  1  1
 16 57  1  0
 16 58  1  0
 17 59  1  0
 19 60  1  6
 20 61  1  0
 20 62  1  0
 21 63  1  0
 21 64  1  0
 22 65  1  6
 23 66  1  0
 25 67  1  0
 25 68  1  0
 25 69  1  0
 26 70  1  0
 26 71  1  0
 26 72  1  0
 28 73  1  0
 28 74  1  0
 28 75  1  0
 29 76  1  0
 29 77  1  0
 30 78  1  0
 30 79  1  0
 32 80  1  0
 32 81  1  0
 32 82  1  0
M  END
>  <meeko>  (19) 
{"is_sidechain": [false], "intermolecular_energy": 2.731, "internal_energy": -0.839}

$$$$
