EPH_relaxed_0001_pdb2pqr_Repair_5_r2_0001_out
     RDKit          3D

 82 86  0  0  0  0  0  0  0  0999 V2000
   -1.7220    8.5970   -1.8720 C   0  0  0  0  0  0  0  0  0  0  0  0
   -2.0900    9.1160   -0.4790 C   0  0  2  0  0  0  0  0  0  0  0  0
   -3.5830    9.4850   -0.3720 C   0  0  0  0  0  0  0  0  0  0  0  0
   -4.5050    8.2760   -0.1940 C   0  0  0  0  0  0  0  0  0  0  0  0
   -5.2070    7.9210   -1.4700 C   0  0  2  0  0  0  0  0  0  0  0  0
   -6.3400    8.7440   -1.7780 O   0  0  0  0  0  0  0  0  0  0  0  0
   -6.6150    7.3570   -1.5210 C   0  0  0  0  0  0  0  0  0  0  0  0
   -7.4040    7.1140   -0.2730 C   0  0  0  0  0  0  0  0  0  0  0  0
   -7.0340    6.5900   -2.7370 C   0  0  0  0  0  0  0  0  0  0  0  0
   -1.2280   10.3240   -0.1300 C   0  0  1  0  0  0  0  0  0  0  0  0
   -0.1960   10.0180    0.9870 C   0  0  0  0  0  0  0  0  0  0  0  0
    1.0750   10.8440    0.6600 C   0  0  0  0  0  0  0  0  0  0  0  0
    0.6220   11.8400   -0.4330 C   0  0  1  0  0  0  0  0  0  0  0  0
   -0.0820   12.9960    0.3460 C   0  0  0  0  0  0  0  0  0  0  0  0
    1.7410   12.3810   -1.3820 C   0  0  2  0  0  0  0  0  0  0  0  0
    2.8460   13.1960   -0.6890 C   0  0  0  0  0  0  0  0  0  0  0  0
    2.5980   14.6660   -0.6060 C   0  0  0  0  0  0  0  0  0  0  0  0
    1.6750   15.3440   -1.3130 C   0  0  0  0  0  0  0  0  0  0  0  0
    0.8270   14.6410   -2.3800 C   0  0  1  0  0  0  0  0  0  0  0  0
    0.7990   15.5030   -3.6700 C   0  0  0  0  0  0  0  0  0  0  0  0
    0.3370   16.9330   -3.4070 C   0  0  0  0  0  0  0  0  0  0  0  0
    1.2400   17.6180   -2.3840 C   0  0  2  0  0  0  0  0  0  0  0  0
    2.5410   17.7850   -2.9560 O   0  0  0  0  0  0  0  0  0  0  0  0
    1.3530   16.8350   -1.0460 C   0  0  0  0  0  0  0  0  0  0  0  0
    0.0090   16.9140   -0.2820 C   0  0  0  0  0  0  0  0  0  0  0  0
    2.4010   17.5590   -0.1570 C   0  0  0  0  0  0  0  0  0  0  0  0
    1.1960   13.1220   -2.6690 C   0  0  1  0  0  0  0  0  0  0  0  0
    2.3270   13.0440   -3.7400 C   0  0  0  0  0  0  0  0  0  0  0  0
   -0.0560   12.3980   -3.2920 C   0  0  0  0  0  0  0  0  0  0  0  0
   -1.0640   11.7810   -2.3040 C   0  0  0  0  0  0  0  0  0  0  0  0
   -0.3490   10.9200   -1.2580 C   0  0  2  0  0  0  0  0  0  0  0  0
    0.3490    9.7360   -2.0090 C   0  0  0  0  0  0  0  0  0  0  0  0
   -1.0882    7.7032   -1.7747 H   0  0  0  0  0  0  0  0  0  0  0  0
   -2.6394    8.3380   -2.4210 H   0  0  0  0  0  0  0  0  0  0  0  0
   -1.1741    9.3770   -2.4210 H   0  0  0  0  0  0  0  0  0  0  0  0
   -1.8992    8.3037    0.2377 H   0  0  0  0  0  0  0  0  0  0  0  0
   -3.7146   10.1523    0.4926 H   0  0  0  0  0  0  0  0  0  0  0  0
   -3.8637    9.9662   -1.3205 H   0  0  0  0  0  0  0  0  0  0  0  0
   -3.9042    7.4148    0.1338 H   0  0  0  0  0  0  0  0  0  0  0  0
   -5.2671    8.5337    0.5562 H   0  0  0  0  0  0  0  0  0  0  0  0
   -4.2624    7.5890   -1.9256 H   0  0  0  0  0  0  0  0  0  0  0  0
   -6.7707    7.3090    0.6050 H   0  0  0  0  0  0  0  0  0  0  0  0
   -8.2750    7.7855   -0.2533 H   0  0  0  0  0  0  0  0  0  0  0  0
   -7.7463    6.0688   -0.2533 H   0  0  0  0  0  0  0  0  0  0  0  0
   -7.5403    5.6631   -2.4295 H   0  0  0  0  0  0  0  0  0  0  0  0
   -7.7229    7.2023   -3.3374 H   0  0  0  0  0  0  0  0  0  0  0  0
   -6.1465    6.3411   -3.3374 H   0  0  0  0  0  0  0  0  0  0  0  0
   -2.0161   11.0386    0.1499 H   0  0  0  0  0  0  0  0  0  0  0  0
   -0.5989   10.3146    1.9666 H   0  0  0  0  0  0  0  0  0  0  0  0
    0.0320    8.9428    1.0304 H   0  0  0  0  0  0  0  0  0  0  0  0
    1.4293   11.3811    1.5522 H   0  0  0  0  0  0  0  0  0  0  0  0
    1.9102   10.2104    0.3269 H   0  0  0  0  0  0  0  0  0  0  0  0
    0.0218   12.8256    1.4277 H   0  0  0  0  0  0  0  0  0  0  0  0
    0.3853   13.9555    0.0795 H   0  0  0  0  0  0  0  0  0  0  0  0
   -1.1489   13.0212    0.0795 H   0  0  0  0  0  0  0  0  0  0  0  0
    2.2254   11.4559   -1.7278 H   0  0  0  0  0  0  0  0  0  0  0  0
    2.9595   12.8122    0.3356 H   0  0  0  0  0  0  0  0  0  0  0  0
    3.7473   13.0741   -1.3078 H   0  0  0  0  0  0  0  0  0  0  0  0
    3.2222   15.2435    0.0917 H   0  0  0  0  0  0  0  0  0  0  0  0
   -0.1869   14.5638   -1.9605 H   0  0  0  0  0  0  0  0  0  0  0  0
    1.8125   15.5325   -4.0967 H   0  0  0  0  0  0  0  0  0  0  0  0
    0.0812   15.0422   -4.3645 H   0  0  0  0  0  0  0  0  0  0  0  0
    0.3657   17.4998   -4.3493 H   0  0  0  0  0  0  0  0  0  0  0  0
   -0.6874   16.9034   -3.0074 H   0  0  0  0  0  0  0  0  0  0  0  0
    0.7859   18.5900   -2.1410 H   0  0  0  0  0  0  0  0  0  0  0  0
    2.8090   18.7090   -2.8120 H   0  0  0  0  0  0  0  0  0  0  0  0
    0.2016   16.9027    0.8009 H   0  0  0  0  0  0  0  0  0  0  0  0
   -0.5121   17.8443   -0.5520 H   0  0  0  0  0  0  0  0  0  0  0  0
   -0.6175   16.0511   -0.5520 H   0  0  0  0  0  0  0  0  0  0  0  0
    2.1600   17.3925    0.9033 H   0  0  0  0  0  0  0  0  0  0  0  0
    3.4031   17.1596   -0.3724 H   0  0  0  0  0  0  0  0  0  0  0  0
    2.3821   18.6375   -0.3724 H   0  0  0  0  0  0  0  0  0  0  0  0
    3.3034   12.9767   -3.2379 H   0  0  0  0  0  0  0  0  0  0  0  0
    2.1759   12.1541   -4.3687 H   0  0  0  0  0  0  0  0  0  0  0  0
    2.2994   13.9462   -4.3687 H   0  0  0  0  0  0  0  0  0  0  0  0
   -0.5974   13.1356   -3.9026 H   0  0  0  0  0  0  0  0  0  0  0  0
    0.3542   11.5463   -3.8544 H   0  0  0  0  0  0  0  0  0  0  0  0
   -1.6085   12.5891   -1.7937 H   0  0  0  0  0  0  0  0  0  0  0  0
   -1.7612   11.1428   -2.8667 H   0  0  0  0  0  0  0  0  0  0  0  0
    0.7649    9.0304   -1.2747 H   0  0  0  0  0  0  0  0  0  0  0  0
   -0.3876    9.2169   -2.6399 H   0  0  0  0  0  0  0  0  0  0  0  0
    1.1598   10.1291   -2.6399 H   0  0  0  0  0  0  0  0  0  0  0  0
  1  2  1  0
  2  3  1  0
  3  4  1  0
  4  5  1  0
  5  6  1  0
  6  7  1  0
  7  8  1  0
  7  9  1  0
  2 10  1  0
 10 11  1  0
 11 12  1  0
 12 13  1  0
 13 14  1  1
 13 15  1  0
 15 16  1  0
 16 17  1  0
 17 18  2  0
 18 19  1  0
 19 20  1  0
 20 21  1  0
 21 22  1  0
 22 23  1  0
 22 24  1  0
 24 25  1  0
 24 26  1  0
 19 27  1  0
 27 28  1  6
 27 29  1  0
 29 30  1  0
 30 31  1  0
 31 32  1  6
  7  5  1  0
 31 10  1  0
 31 13  1  0
 27 15  1  0
 24 18  1  0
  1 33  1  0
  1 34  1  0
  1 35  1  0
  2 36  1  1
  3 37  1  0
  3 38  1  0
  4 39  1  0
  4 40  1  0
  5 41  1  6
  8 42  1  0
  8 43  1  0
  8 44  1  0
  9 45  1  0
  9 46  1  0
  9 47  1  0
 10 48  1  1
 11 49  1  0
 11 50  1  0
 12 51  1  0
 12 52  1  0
 14 53  1  0
 14 54  1  0
 14 55  1  0
 15 56  1  6
 16 57  1  0
 16 58  1  0
 17 59  1  0
 19 60  1  1
 20 61  1  0
 20 62  1  0
 21 63  1  0
 21 64  1  0
 22 65  1  1
 23 66  1  0
 25 67  1  0
 25 68  1  0
 25 69  1  0
 26 70  1  0
 26 71  1  0
 26 72  1  0
 28 73  1  0
 28 74  1  0
 28 75  1  0
 29 76  1  0
 29 77  1  0
 30 78  1  0
 30 79  1  0
 32 80  1  0
 32 81  1  0
 32 82  1  0
M  END
>  <meeko>  (1) 
{"is_sidechain": [false], "intermolecular_energy": 2.731, "internal_energy": -0.839}

$$$$
EPH_relaxed_0001_pdb2pqr_Repair_5_r2_0001_out
     RDKit          3D

 82 86  0  0  0  0  0  0  0  0999 V2000
    1.9400   19.6990   -0.5650 C   0  0  0  0  0  0  0  0  0  0  0  0
    2.3440   18.4600    0.2380 C   0  0  2  0  0  0  0  0  0  0  0  0
    3.8030   18.0420   -0.0320 C   0  0  0  0  0  0  0  0  0  0  0  0
    4.7130   18.1550    1.1950 C   0  0  0  0  0  0  0  0  0  0  0  0
    4.0560   18.9200    2.3040 C   0  0  2  0  0  0  0  0  0  0  0  0
    4.6840   20.1680    2.6240 O   0  0  0  0  0  0  0  0  0  0  0  0
    4.7070   19.1650    3.6520 C   0  0  0  0  0  0  0  0  0  0  0  0
    6.0750   18.6440    3.9640 C   0  0  0  0  0  0  0  0  0  0  0  0
    3.8300   19.4820    4.8230 C   0  0  0  0  0  0  0  0  0  0  0  0
    1.4040   17.3040   -0.0830 C   0  0  1  0  0  0  0  0  0  0  0  0
    0.1770   17.7480   -0.9240 C   0  0  0  0  0  0  0  0  0  0  0  0
   -0.1580   16.5750   -1.8810 C   0  0  0  0  0  0  0  0  0  0  0  0
    0.6640   15.3820   -1.3380 C   0  0  1  0  0  0  0  0  0  0  0  0
   -0.1810   14.8200   -0.1510 C   0  0  0  0  0  0  0  0  0  0  0  0
    1.0240   14.2640   -2.3700 C   0  0  2  0  0  0  0  0  0  0  0  0
   -0.1810   13.5290   -2.9820 C   0  0  0  0  0  0  0  0  0  0  0  0
   -0.6290   12.3110   -2.2430 C   0  0  0  0  0  0  0  0  0  0  0  0
    0.0810   11.6640   -1.3000 C   0  0  0  0  0  0  0  0  0  0  0  0
    1.5140   12.0940   -0.9600 C   0  0  1  0  0  0  0  0  0  0  0  0
    2.4270   10.8410   -0.8920 C   0  0  0  0  0  0  0  0  0  0  0  0
    1.8930    9.7790    0.0650 C   0  0  0  0  0  0  0  0  0  0  0  0
    0.4900    9.3360   -0.3400 C   0  0  2  0  0  0  0  0  0  0  0  0
    0.5670    8.6500   -1.5940 O   0  0  0  0  0  0  0  0  0  0  0  0
   -0.5170   10.5150   -0.4510 C   0  0  0  0  0  0  0  0  0  0  0  0
   -0.8300   11.0670    0.9620 C   0  0  0  0  0  0  0  0  0  0  0  0
   -1.8540    9.9510   -1.0030 C   0  0  0  0  0  0  0  0  0  0  0  0
    2.1260   13.2470   -1.8660 C   0  0  1  0  0  0  0  0  0  0  0  0
    2.7800   12.6310   -3.1400 C   0  0  0  0  0  0  0  0  0  0  0  0
    3.2840   13.9630   -1.0740 C   0  0  0  0  0  0  0  0  0  0  0  0
    2.8790   15.1370   -0.1630 C   0  0  0  0  0  0  0  0  0  0  0  0
    1.9800   16.1270   -0.9100 C   0  0  2  0  0  0  0  0  0  0  0  0
    2.8100   16.7250   -2.0960 C   0  0  0  0  0  0  0  0  0  0  0  0
    1.6746   20.5130    0.1256 H   0  0  0  0  0  0  0  0  0  0  0  0
    2.7815   20.0156   -1.1988 H   0  0  0  0  0  0  0  0  0  0  0  0
    1.0737   19.4587   -1.1988 H   0  0  0  0  0  0  0  0  0  0  0  0
    2.2669   18.7180    1.3045 H   0  0  0  0  0  0  0  0  0  0  0  0
    3.8073   16.9960   -0.3724 H   0  0  0  0  0  0  0  0  0  0  0  0
    4.1998   18.7320   -0.7912 H   0  0  0  0  0  0  0  0  0  0  0  0
    4.9546   17.1437    1.5540 H   0  0  0  0  0  0  0  0  0  0  0  0
    5.6236   18.6959    0.8979 H   0  0  0  0  0  0  0  0  0  0  0  0
    3.0686   18.5253    2.0226 H   0  0  0  0  0  0  0  0  0  0  0  0
    6.2081   18.5933    5.0547 H   0  0  0  0  0  0  0  0  0  0  0  0
    6.1915   17.6386    3.5333 H   0  0  0  0  0  0  0  0  0  0  0  0
    6.8308   19.3172    3.5333 H   0  0  0  0  0  0  0  0  0  0  0  0
    4.3781   19.2839    5.7559 H   0  0  0  0  0  0  0  0  0  0  0  0
    3.5390   20.5422    4.7868 H   0  0  0  0  0  0  0  0  0  0  0  0
    2.9284   18.8529    4.7868 H   0  0  0  0  0  0  0  0  0  0  0  0
    1.1702   16.9677    0.9379 H   0  0  0  0  0  0  0  0  0  0  0  0
   -0.6789   17.9553   -0.2649 H   0  0  0  0  0  0  0  0  0  0  0  0
    0.3962   18.6669   -1.4875 H   0  0  0  0  0  0  0  0  0  0  0  0
   -1.2342   16.3486   -1.8560 H   0  0  0  0  0  0  0  0  0  0  0  0
    0.0861   16.8079   -2.9280 H   0  0  0  0  0  0  0  0  0  0  0  0
    0.2770   15.1246    0.8016 H   0  0  0  0  0  0  0  0  0  0  0  0
   -1.2050   15.2176   -0.2093 H   0  0  0  0  0  0  0  0  0  0  0  0
   -0.2102   13.7219   -0.2093 H   0  0  0  0  0  0  0  0  0  0  0  0
    1.4732   14.8388   -3.1933 H   0  0  0  0  0  0  0  0  0  0  0  0
   -1.0252   14.2332   -3.0196 H   0  0  0  0  0  0  0  0  0  0  0  0
    0.1468   13.1801   -3.9724 H   0  0  0  0  0  0  0  0  0  0  0  0
   -1.6226   11.9088   -2.4900 H   0  0  0  0  0  0  0  0  0  0  0  0
    1.4618   12.5727    0.0290 H   0  0  0  0  0  0  0  0  0  0  0  0
    2.5009   10.4035   -1.8985 H   0  0  0  0  0  0  0  0  0  0  0  0
    3.4097   11.1639   -0.5177 H   0  0  0  0  0  0  0  0  0  0  0  0
    2.5647    8.9081    0.0474 H   0  0  0  0  0  0  0  0  0  0  0  0
    1.8472   10.2089    1.0765 H   0  0  0  0  0  0  0  0  0  0  0  0
    0.1118    8.6740    0.4529 H   0  0  0  0  0  0  0  0  0  0  0  0
    0.5120    9.3180   -2.2990 H   0  0  0  0  0  0  0  0  0  0  0  0
   -0.4374   10.3747    1.7214 H   0  0  0  0  0  0  0  0  0  0  0  0
   -0.3561   12.0522    1.0841 H   0  0  0  0  0  0  0  0  0  0  0  0
   -1.9187   11.1661    1.0841 H   0  0  0  0  0  0  0  0  0  0  0  0
   -2.5095    9.6745   -0.1640 H   0  0  0  0  0  0  0  0  0  0  0  0
   -2.3490   10.7170   -1.6180 H   0  0  0  0  0  0  0  0  0  0  0  0
   -1.6508    9.0619   -1.6180 H   0  0  0  0  0  0  0  0  0  0  0  0
    3.5508   11.9050   -2.8420 H   0  0  0  0  0  0  0  0  0  0  0  0
    2.0095   12.1229   -3.7385 H   0  0  0  0  0  0  0  0  0  0  0  0
    3.2412   13.4305   -3.7385 H   0  0  0  0  0  0  0  0  0  0  0  0
    3.7736   13.2061   -0.4437 H   0  0  0  0  0  0  0  0  0  0  0  0
    3.9294   14.4070   -1.8462 H   0  0  0  0  0  0  0  0  0  0  0  0
    2.3352   14.7446    0.7090 H   0  0  0  0  0  0  0  0  0  0  0  0
    3.7906   15.6635    0.1561 H   0  0  0  0  0  0  0  0  0  0  0  0
    3.6415   17.3241   -1.6963 H   0  0  0  0  0  0  0  0  0  0  0  0
    3.2107   15.9068   -2.7123 H   0  0  0  0  0  0  0  0  0  0  0  0
    2.1607   17.3642   -2.7123 H   0  0  0  0  0  0  0  0  0  0  0  0
  1  2  1  0
  2  3  1  0
  3  4  1  0
  4  5  1  0
  5  6  1  0
  6  7  1  0
  7  8  1  0
  7  9  1  0
  2 10  1  0
 10 11  1  0
 11 12  1  0
 12 13  1  0
 13 14  1  1
 13 15  1  0
 15 16  1  0
 16 17  1  0
 17 18  2  0
 18 19  1  0
 19 20  1  0
 20 21  1  0
 21 22  1  0
 22 23  1  0
 22 24  1  0
 24 25  1  0
 24 26  1  0
 19 27  1  0
 27 28  1  6
 27 29  1  0
 29 30  1  0
 30 31  1  0
 31 32  1  6
  7  5  1  0
 31 10  1  0
 31 13  1  0
 27 15  1  0
 24 18  1  0
  1 33  1  0
  1 34  1  0
  1 35  1  0
  2 36  1  1
  3 37  1  0
  3 38  1  0
  4 39  1  0
  4 40  1  0
  5 41  1  1
  8 42  1  0
  8 43  1  0
  8 44  1  0
  9 45  1  0
  9 46  1  0
  9 47  1  0
 10 48  1  1
 11 49  1  0
 11 50  1  0
 12 51  1  0
 12 52  1  0
 14 53  1  0
 14 54  1  0
 14 55  1  0
 15 56  1  6
 16 57  1  0
 16 58  1  0
 17 59  1  0
 19 60  1  1
 20 61  1  0
 20 62  1  0
 21 63  1  0
 21 64  1  0
 22 65  1  1
 23 66  1  0
 25 67  1  0
 25 68  1  0
 25 69  1  0
 26 70  1  0
 26 71  1  0
 26 72  1  0
 28 73  1  0
 28 74  1  0
 28 75  1  0
 29 76  1  0
 29 77  1  0
 30 78  1  0
 30 79  1  0
 32 80  1  0
 32 81  1  0
 32 82  1  0
M  END
>  <meeko>  (2) 
{"is_sidechain": [false], "intermolecular_energy": 2.731, "internal_energy": -0.839}

$$$$
EPH_relaxed_0001_pdb2pqr_Repair_5_r2_0001_out
     RDKit          3D

 82 86  0  0  0  0  0  0  0  0999 V2000
    0.4430   18.4530   -0.0050 C   0  0  0  0  0  0  0  0  0  0  0  0
    1.5260   17.3930   -0.2280 C   0  0  2  0  0  0  0  0  0  0  0  0
    2.7430   17.9570   -0.9870 C   0  0  0  0  0  0  0  0  0  0  0  0
    3.9760   18.1690   -0.1040 C   0  0  0  0  0  0  0  0  0  0  0  0
    3.6010   18.6430    1.2670 C   0  0  2  0  0  0  0  0  0  0  0  0
    3.8520   20.0330    1.5100 O   0  0  0  0  0  0  0  0  0  0  0  0
    4.6130   19.1050    2.2990 C   0  0  0  0  0  0  0  0  0  0  0  0
    6.0800   19.1140    2.0030 C   0  0  0  0  0  0  0  0  0  0  0  0
    4.2230   19.0810    3.7440 C   0  0  0  0  0  0  0  0  0  0  0  0
    0.9440   16.2060   -0.9850 C   0  0  1  0  0  0  0  0  0  0  0  0
    0.7890   16.4840   -2.5040 C   0  0  0  0  0  0  0  0  0  0  0  0
    1.0710   15.1460   -3.2350 C   0  0  0  0  0  0  0  0  0  0  0  0
    1.0500   14.0790   -2.1160 C   0  0  1  0  0  0  0  0  0  0  0  0
   -0.4630   13.7760   -1.8790 C   0  0  0  0  0  0  0  0  0  0  0  0
    1.8640   12.7730   -2.3920 C   0  0  2  0  0  0  0  0  0  0  0  0
    1.3770   11.9420   -3.5920 C   0  0  0  0  0  0  0  0  0  0  0  0
    0.3540   10.9020   -3.2750 C   0  0  0  0  0  0  0  0  0  0  0  0
    0.0540   10.4510   -2.0430 C   0  0  0  0  0  0  0  0  0  0  0  0
    0.8430   10.9250   -0.8160 C   0  0  1  0  0  0  0  0  0  0  0  0
    1.2180    9.7030    0.0630 C   0  0  0  0  0  0  0  0  0  0  0  0
    0.0030    8.8600    0.4410 C   0  0  0  0  0  0  0  0  0  0  0  0
   -0.7220    8.3590   -0.8060 C   0  0  2  0  0  0  0  0  0  0  0  0
    0.1280    7.4340   -1.4920 O   0  0  0  0  0  0  0  0  0  0  0  0
   -1.1400    9.5020   -1.7720 C   0  0  0  0  0  0  0  0  0  0  0  0
   -2.2840   10.3290   -1.1360 C   0  0  0  0  0  0  0  0  0  0  0  0
   -1.7330    8.8520   -3.0520 C   0  0  0  0  0  0  0  0  0  0  0  0
    2.0880   11.8670   -1.1150 C   0  0  1  0  0  0  0  0  0  0  0  0
    3.3540   11.0010   -1.3990 C   0  0  0  0  0  0  0  0  0  0  0  0
    2.4110   12.7150    0.1720 C   0  0  0  0  0  0  0  0  0  0  0  0
    1.6620   14.0530    0.3280 C   0  0  0  0  0  0  0  0  0  0  0  0
    1.7470   14.8810   -0.9580 C   0  0  2  0  0  0  0  0  0  0  0  0
    3.2550   15.2210   -1.2100 C   0  0  0  0  0  0  0  0  0  0  0  0
    0.2917   18.6011    1.0744 H   0  0  0  0  0  0  0  0  0  0  0  0
    0.7580   19.4014   -0.4646 H   0  0  0  0  0  0  0  0  0  0  0  0
   -0.4984   18.1177   -0.4646 H   0  0  0  0  0  0  0  0  0  0  0  0
    1.8772   17.0660    0.7618 H   0  0  0  0  0  0  0  0  0  0  0  0
    3.0079   17.2534   -1.7900 H   0  0  0  0  0  0  0  0  0  0  0  0
    2.4510   18.9447   -1.3733 H   0  0  0  0  0  0  0  0  0  0  0  0
    4.5192   17.2166   -0.0157 H   0  0  0  0  0  0  0  0  0  0  0  0
    4.6052   18.9397   -0.5731 H   0  0  0  0  0  0  0  0  0  0  0  0
    2.7748   17.9185    1.3165 H   0  0  0  0  0  0  0  0  0  0  0  0
    6.6445   19.1175    2.9471 H   0  0  0  0  0  0  0  0  0  0  0  0
    6.3424   18.2174    1.4222 H   0  0  0  0  0  0  0  0  0  0  0  0
    6.3314   20.0137    1.4222 H   0  0  0  0  0  0  0  0  0  0  0  0
    5.1267   19.1366    4.3687 H   0  0  0  0  0  0  0  0  0  0  0  0
    3.5727   19.9408    3.9626 H   0  0  0  0  0  0  0  0  0  0  0  0
    3.6830   18.1479    3.9626 H   0  0  0  0  0  0  0  0  0  0  0  0
   -0.0016   16.0840   -0.4363 H   0  0  0  0  0  0  0  0  0  0  0  0
   -0.2325   16.8277   -2.7238 H   0  0  0  0  0  0  0  0  0  0  0  0
    1.4850   17.2690   -2.8348 H   0  0  0  0  0  0  0  0  0  0  0  0
    0.2910   14.9400   -3.9828 H   0  0  0  0  0  0  0  0  0  0  0  0
    2.0267   15.1612   -3.7794 H   0  0  0  0  0  0  0  0  0  0  0  0
   -0.6640   13.7358   -0.7983 H   0  0  0  0  0  0  0  0  0  0  0  0
   -1.0719   14.5700   -2.3359 H   0  0  0  0  0  0  0  0  0  0  0  0
   -0.7192   12.8087   -2.3359 H   0  0  0  0  0  0  0  0  0  0  0  0
    2.8497   13.1663   -2.6812 H   0  0  0  0  0  0  0  0  0  0  0  0
    0.9422   12.6327   -4.3295 H   0  0  0  0  0  0  0  0  0  0  0  0
    2.2583   11.3984   -3.9631 H   0  0  0  0  0  0  0  0  0  0  0  0
   -0.2013   10.4678   -4.1194 H   0  0  0  0  0  0  0  0  0  0  0  0
    0.1681   11.5914   -0.2589 H   0  0  0  0  0  0  0  0  0  0  0  0
    1.9259    9.0717   -0.4941 H   0  0  0  0  0  0  0  0  0  0  0  0
    1.6626   10.0848    0.9939 H   0  0  0  0  0  0  0  0  0  0  0  0
    0.3349    7.9964    1.0360 H   0  0  0  0  0  0  0  0  0  0  0  0
   -0.6904    9.4843    1.0236 H   0  0  0  0  0  0  0  0  0  0  0  0
   -1.6520    7.8735   -0.4753 H   0  0  0  0  0  0  0  0  0  0  0  0
    0.3940    7.8470   -2.3310 H   0  0  0  0  0  0  0  0  0  0  0  0
   -2.2097   10.2753   -0.0398 H   0  0  0  0  0  0  0  0  0  0  0  0
   -2.2014   11.3775   -1.4582 H   0  0  0  0  0  0  0  0  0  0  0  0
   -3.2537    9.9218   -1.4582 H   0  0  0  0  0  0  0  0  0  0  0  0
   -2.4490    8.0672   -2.7667 H   0  0  0  0  0  0  0  0  0  0  0  0
   -2.2485    9.6196   -3.6479 H   0  0  0  0  0  0  0  0  0  0  0  0
   -0.9215    8.4089   -3.6479 H   0  0  0  0  0  0  0  0  0  0  0  0
    3.8074   10.6908   -0.4460 H   0  0  0  0  0  0  0  0  0  0  0  0
    3.0666   10.1094   -1.9756 H   0  0  0  0  0  0  0  0  0  0  0  0
    4.0807   11.5920   -1.9756 H   0  0  0  0  0  0  0  0  0  0  0  0
    2.1707   12.0949    1.0482 H   0  0  0  0  0  0  0  0  0  0  0  0
    3.4724   12.9882    0.0781 H   0  0  0  0  0  0  0  0  0  0  0  0
    0.6053   13.8496    0.5560 H   0  0  0  0  0  0  0  0  0  0  0  0
    2.1287   14.6236    1.1445 H   0  0  0  0  0  0  0  0  0  0  0  0
    3.7708   15.3373   -0.2454 H   0  0  0  0  0  0  0  0  0  0  0  0
    3.7242   14.4061   -1.7808 H   0  0  0  0  0  0  0  0  0  0  0  0
    3.3291   16.1584   -1.7808 H   0  0  0  0  0  0  0  0  0  0  0  0
  1  2  1  0
  2  3  1  0
  3  4  1  0
  4  5  1  0
  5  6  1  0
  6  7  1  0
  7  8  1  0
  7  9  1  0
  2 10  1  0
 10 11  1  0
 11 12  1  0
 12 13  1  0
 13 14  1  1
 13 15  1  0
 15 16  1  0
 16 17  1  0
 17 18  2  0
 18 19  1  0
 19 20  1  0
 20 21  1  0
 21 22  1  0
 22 23  1  0
 22 24  1  0
 24 25  1  0
 24 26  1  0
 19 27  1  0
 27 28  1  6
 27 29  1  0
 29 30  1  0
 30 31  1  0
 31 32  1  6
  7  5  1  0
 31 10  1  0
 31 13  1  0
 27 15  1  0
 24 18  1  0
  1 33  1  0
  1 34  1  0
  1 35  1  0
  2 36  1  1
  3 37  1  0
  3 38  1  0
  4 39  1  0
  4 40  1  0
  5 41  1  1
  8 42  1  0
  8 43  1  0
  8 44  1  0
  9 45  1  0
  9 46  1  0
  9 47  1  0
 10 48  1  1
 11 49  1  0
 11 50  1  0
 12 51  1  0
 12 52  1  0
 14 53  1  0
 14 54  1  0
 14 55  1  0
 15 56  1  6
 16 57  1  0
 16 58  1  0
 17 59  1  0
 19 60  1  1
 20 61  1  0
 20 62  1  0
 21 63  1  0
 21 64  1  0
 22 65  1  1
 23 66  1  0
 25 67  1  0
 25 68  1  0
 25 69  1  0
 26 70  1  0
 26 71  1  0
 26 72  1  0
 28 73  1  0
 28 74  1  0
 28 75  1  0
 29 76  1  0
 29 77  1  0
 30 78  1  0
 30 79  1  0
 32 80  1  0
 32 81  1  0
 32 82  1  0
M  END
>  <meeko>  (3) 
{"is_sidechain": [false], "intermolecular_energy": 2.731, "internal_energy": -0.839}

$$$$
EPH_relaxed_0001_pdb2pqr_Repair_5_r2_0001_out
     RDKit          3D

 82 86  0  0  0  0  0  0  0  0999 V2000
    2.4030   17.9330   -2.7590 C   0  0  0  0  0  0  0  0  0  0  0  0
    1.0960   17.5830   -2.0420 C   0  0  2  0  0  0  0  0  0  0  0  0
    1.2420   17.6410   -0.5080 C   0  0  0  0  0  0  0  0  0  0  0  0
    0.9620   19.0250    0.0850 C   0  0  0  0  0  0  0  0  0  0  0  0
   -0.4630   19.1590    0.5300 C   0  0  2  0  0  0  0  0  0  0  0  0
   -1.3710   18.2350   -0.0820 O   0  0  0  0  0  0  0  0  0  0  0  0
   -1.5840   19.6240   -0.3810 C   0  0  0  0  0  0  0  0  0  0  0  0
   -1.3280   19.9850   -1.8110 C   0  0  0  0  0  0  0  0  0  0  0  0
   -2.8220   20.1920    0.2400 C   0  0  0  0  0  0  0  0  0  0  0  0
    0.6230   16.1980   -2.4680 C   0  0  1  0  0  0  0  0  0  0  0  0
    0.6710   15.9980   -4.0070 C   0  0  0  0  0  0  0  0  0  0  0  0
    1.0530   14.5150   -4.2530 C   0  0  0  0  0  0  0  0  0  0  0  0
    0.8860   13.8360   -2.8740 C   0  0  1  0  0  0  0  0  0  0  0  0
   -0.6430   13.5530   -2.7480 C   0  0  0  0  0  0  0  0  0  0  0  0
    1.7340   12.5440   -2.6330 C   0  0  2  0  0  0  0  0  0  0  0  0
    1.4140   11.3690   -3.5740 C   0  0  0  0  0  0  0  0  0  0  0  0
    0.3610   10.4300   -3.0860 C   0  0  0  0  0  0  0  0  0  0  0  0
   -0.0990   10.3590   -1.8230 C   0  0  0  0  0  0  0  0  0  0  0  0
    0.5180   11.2160   -0.7100 C   0  0  1  0  0  0  0  0  0  0  0  0
    0.7760   10.3340    0.5400 C   0  0  0  0  0  0  0  0  0  0  0  0
   -0.4750    9.5920    1.0000 C   0  0  0  0  0  0  0  0  0  0  0  0
   -1.0260    8.7070   -0.1150 C   0  0  2  0  0  0  0  0  0  0  0  0
   -0.0900    7.6560   -0.3740 O   0  0  0  0  0  0  0  0  0  0  0  0
   -1.3150    9.4850   -1.4290 C   0  0  0  0  0  0  0  0  0  0  0  0
   -2.5370   10.4150   -1.2250 C   0  0  0  0  0  0  0  0  0  0  0  0
   -1.7300    8.4540   -2.5130 C   0  0  0  0  0  0  0  0  0  0  0  0
    1.7890   12.0770   -1.1220 C   0  0  1  0  0  0  0  0  0  0  0  0
    3.0840   11.2220   -0.9680 C   0  0  0  0  0  0  0  0  0  0  0  0
    1.9350   13.2880   -0.1260 C   0  0  0  0  0  0  0  0  0  0  0  0
    1.1680   14.5760   -0.4820 C   0  0  0  0  0  0  0  0  0  0  0  0
    1.4200   14.9800   -1.9370 C   0  0  2  0  0  0  0  0  0  0  0  0
    2.9480   15.2930   -2.0890 C   0  0  0  0  0  0  0  0  0  0  0  0
    3.1850   18.1424   -2.0143 H   0  0  0  0  0  0  0  0  0  0  0  0
    2.7138   17.0864   -3.3889 H   0  0  0  0  0  0  0  0  0  0  0  0
    2.2491   18.8216   -3.3889 H   0  0  0  0  0  0  0  0  0  0  0  0
    0.3483   18.3360   -2.3316 H   0  0  0  0  0  0  0  0  0  0  0  0
    0.5357   16.9238   -0.0645 H   0  0  0  0  0  0  0  0  0  0  0  0
    2.2891   17.3973   -0.2752 H   0  0  0  0  0  0  0  0  0  0  0  0
    1.6222   19.1822    0.9507 H   0  0  0  0  0  0  0  0  0  0  0  0
    1.1499   19.7771   -0.6954 H   0  0  0  0  0  0  0  0  0  0  0  0
   -0.1440   19.4826    1.5317 H   0  0  0  0  0  0  0  0  0  0  0  0
   -0.6922   20.8816   -1.8547 H   0  0  0  0  0  0  0  0  0  0  0  0
   -0.8192   19.1498   -2.3146 H   0  0  0  0  0  0  0  0  0  0  0  0
   -2.2845   20.1889   -2.3146 H   0  0  0  0  0  0  0  0  0  0  0  0
   -2.7342   20.1517    1.3358 H   0  0  0  0  0  0  0  0  0  0  0  0
   -2.9462   21.2372   -0.0797 H   0  0  0  0  0  0  0  0  0  0  0  0
   -3.6953   19.6045   -0.0797 H   0  0  0  0  0  0  0  0  0  0  0  0
   -0.3870   16.2054   -2.0324 H   0  0  0  0  0  0  0  0  0  0  0  0
   -0.3133   16.2139   -4.4481 H   0  0  0  0  0  0  0  0  0  0  0  0
    1.4017   16.6766   -4.4712 H   0  0  0  0  0  0  0  0  0  0  0  0
    0.3809   14.0586   -4.9946 H   0  0  0  0  0  0  0  0  0  0  0  0
    2.0729   14.4071   -4.6506 H   0  0  0  0  0  0  0  0  0  0  0  0
   -0.9200   13.5017   -1.6847 H   0  0  0  0  0  0  0  0  0  0  0  0
   -1.2070   14.3620   -3.2352 H   0  0  0  0  0  0  0  0  0  0  0  0
   -0.8801   12.5957   -3.2352 H   0  0  0  0  0  0  0  0  0  0  0  0
    2.7485   12.8738   -2.9015 H   0  0  0  0  0  0  0  0  0  0  0  0
    1.0792   11.7851   -4.5357 H   0  0  0  0  0  0  0  0  0  0  0  0
    2.3386   10.7777   -3.6479 H   0  0  0  0  0  0  0  0  0  0  0  0
   -0.0759    9.7376   -3.8207 H   0  0  0  0  0  0  0  0  0  0  0  0
   -0.2272   11.9898   -0.4735 H   0  0  0  0  0  0  0  0  0  0  0  0
    1.5543    9.5959    0.2963 H   0  0  0  0  0  0  0  0  0  0  0  0
    1.0904   10.9982    1.3585 H   0  0  0  0  0  0  0  0  0  0  0  0
   -0.2224    8.9635    1.8667 H   0  0  0  0  0  0  0  0  0  0  0  0
   -1.2419   10.3322    1.2718 H   0  0  0  0  0  0  0  0  0  0  0  0
   -1.9902    8.3047    0.2292 H   0  0  0  0  0  0  0  0  0  0  0  0
   -0.5770    6.9230   -0.7870 H   0  0  0  0  0  0  0  0  0  0  0  0
   -2.7176   10.5524   -0.1487 H   0  0  0  0  0  0  0  0  0  0  0  0
   -2.3367   11.3912   -1.6907 H   0  0  0  0  0  0  0  0  0  0  0  0
   -3.4245    9.9618   -1.6907 H   0  0  0  0  0  0  0  0  0  0  0  0
   -2.0984    7.5388   -2.0266 H   0  0  0  0  0  0  0  0  0  0  0  0
   -2.5260    8.8817   -3.1402 H   0  0  0  0  0  0  0  0  0  0  0  0
   -0.8596    8.2110   -3.1402 H   0  0  0  0  0  0  0  0  0  0  0  0
    3.3030   11.0774    0.1002 H   0  0  0  0  0  0  0  0  0  0  0  0
    2.9364   10.2432   -1.4478 H   0  0  0  0  0  0  0  0  0  0  0  0
    3.9261   11.7423   -1.4478 H   0  0  0  0  0  0  0  0  0  0  0  0
    1.5821   12.9522    0.8603 H   0  0  0  0  0  0  0  0  0  0  0  0
    2.9986   13.5661   -0.1646 H   0  0  0  0  0  0  0  0  0  0  0  0
    0.0910   14.4050   -0.3375 H   0  0  0  0  0  0  0  0  0  0  0  0
    1.5207   15.3864    0.1729 H   0  0  0  0  0  0  0  0  0  0  0  0
    3.4041   15.3864   -1.0924 H   0  0  0  0  0  0  0  0  0  0  0  0
    3.4365   14.4763   -2.6407 H   0  0  0  0  0  0  0  0  0  0  0  0
    3.0760   16.2360   -2.6407 H   0  0  0  0  0  0  0  0  0  0  0  0
  1  2  1  0
  2  3  1  0
  3  4  1  0
  4  5  1  0
  5  6  1  0
  6  7  1  0
  7  8  1  0
  7  9  1  0
  2 10  1  0
 10 11  1  0
 11 12  1  0
 12 13  1  0
 13 14  1  1
 13 15  1  0
 15 16  1  0
 16 17  1  0
 17 18  2  0
 18 19  1  0
 19 20  1  0
 20 21  1  0
 21 22  1  0
 22 23  1  0
 22 24  1  0
 24 25  1  0
 24 26  1  0
 19 27  1  0
 27 28  1  6
 27 29  1  0
 29 30  1  0
 30 31  1  0
 31 32  1  1
  7  5  1  0
 31 10  1  0
 31 13  1  0
 27 15  1  0
 24 18  1  0
  1 33  1  0
  1 34  1  0
  1 35  1  0
  2 36  1  6
  3 37  1  0
  3 38  1  0
  4 39  1  0
  4 40  1  0
  5 41  1  1
  8 42  1  0
  8 43  1  0
  8 44  1  0
  9 45  1  0
  9 46  1  0
  9 47  1  0
 10 48  1  1
 11 49  1  0
 11 50  1  0
 12 51  1  0
 12 52  1  0
 14 53  1  0
 14 54  1  0
 14 55  1  0
 15 56  1  6
 16 57  1  0
 16 58  1  0
 17 59  1  0
 19 60  1  1
 20 61  1  0
 20 62  1  0
 21 63  1  0
 21 64  1  0
 22 65  1  1
 23 66  1  0
 25 67  1  0
 25 68  1  0
 25 69  1  0
 26 70  1  0
 26 71  1  0
 26 72  1  0
 28 73  1  0
 28 74  1  0
 28 75  1  0
 29 76  1  0
 29 77  1  0
 30 78  1  0
 30 79  1  0
 32 80  1  0
 32 81  1  0
 32 82  1  0
M  END
>  <meeko>  (4) 
{"is_sidechain": [false], "intermolecular_energy": 2.731, "internal_energy": -0.839}

$$$$
EPH_relaxed_0001_pdb2pqr_Repair_5_r2_0001_out
     RDKit          3D

 82 86  0  0  0  0  0  0  0  0999 V2000
    3.6900   17.9350    0.6910 C   0  0  0  0  0  0  0  0  0  0  0  0
    2.7010   18.3380   -0.4070 C   0  0  2  0  0  0  0  0  0  0  0  0
    1.9710   19.6550   -0.0760 C   0  0  0  0  0  0  0  0  0  0  0  0
    0.8410   19.4920    0.9450 C   0  0  0  0  0  0  0  0  0  0  0  0
   -0.4340   20.1150    0.4650 C   0  0  2  0  0  0  0  0  0  0  0  0
   -1.4730   20.1890    1.4500 O   0  0  0  0  0  0  0  0  0  0  0  0
   -1.7350   19.3490    0.3150 C   0  0  0  0  0  0  0  0  0  0  0  0
   -1.8250   17.8920    0.6440 C   0  0  0  0  0  0  0  0  0  0  0  0
   -2.7830   19.8910   -0.6070 C   0  0  0  0  0  0  0  0  0  0  0  0
    1.6870   17.2210   -0.6290 C   0  0  1  0  0  0  0  0  0  0  0  0
    0.4850   17.6710   -1.5010 C   0  0  0  0  0  0  0  0  0  0  0  0
    0.0700   16.4460   -2.3560 C   0  0  0  0  0  0  0  0  0  0  0  0
    0.8180   15.2530   -1.7160 C   0  0  1  0  0  0  0  0  0  0  0  0
   -0.0520   14.8470   -0.4850 C   0  0  0  0  0  0  0  0  0  0  0  0
    1.0980   14.0320   -2.6510 C   0  0  2  0  0  0  0  0  0  0  0  0
   -0.1550   13.3260   -3.1980 C   0  0  0  0  0  0  0  0  0  0  0  0
   -0.6730   12.2060   -2.3580 C   0  0  0  0  0  0  0  0  0  0  0  0
    0.0000   11.5960   -1.3650 C   0  0  0  0  0  0  0  0  0  0  0  0
    1.4600   11.9600   -1.0650 C   0  0  1  0  0  0  0  0  0  0  0  0
    2.2930   10.6620   -0.8930 C   0  0  0  0  0  0  0  0  0  0  0  0
    1.6990    9.7200    0.1500 C   0  0  0  0  0  0  0  0  0  0  0  0
    0.2680    9.3350   -0.2150 C   0  0  2  0  0  0  0  0  0  0  0  0
    0.2920    8.5430   -1.4060 O   0  0  0  0  0  0  0  0  0  0  0  0
   -0.6630   10.5620   -0.4220 C   0  0  0  0  0  0  0  0  0  0  0  0
   -0.9300   11.2490    0.9400 C   0  0  0  0  0  0  0  0  0  0  0  0
   -2.0370   10.0410   -0.9220 C   0  0  0  0  0  0  0  0  0  0  0  0
    2.1380   12.9920   -2.0660 C   0  0  1  0  0  0  0  0  0  0  0  0
    2.7420   12.2310   -3.2850 C   0  0  0  0  0  0  0  0  0  0  0  0
    3.3440   13.6960   -1.3390 C   0  0  0  0  0  0  0  0  0  0  0  0
    3.0210   14.9660   -0.5280 C   0  0  0  0  0  0  0  0  0  0  0  0
    2.1820   15.9450   -1.3550 C   0  0  2  0  0  0  0  0  0  0  0  0
    3.0400   16.3880   -2.5890 C   0  0  0  0  0  0  0  0  0  0  0  0
    3.2383   18.1191    1.6769 H   0  0  0  0  0  0  0  0  0  0  0  0
    3.9321   16.8665    0.5923 H   0  0  0  0  0  0  0  0  0  0  0  0
    4.6099   18.5300    0.5923 H   0  0  0  0  0  0  0  0  0  0  0  0
    3.2787   18.5038   -1.3283 H   0  0  0  0  0  0  0  0  0  0  0  0
    2.7053   20.3669    0.3291 H   0  0  0  0  0  0  0  0  0  0  0  0
    1.5120   20.0119   -1.0098 H   0  0  0  0  0  0  0  0  0  0  0  0
    0.6701   18.4194    1.1193 H   0  0  0  0  0  0  0  0  0  0  0  0
    1.1421   19.9993    1.8734 H   0  0  0  0  0  0  0  0  0  0  0  0
    0.1189   20.7723   -0.2222 H   0  0  0  0  0  0  0  0  0  0  0  0
   -1.8330   17.7626    1.7363 H   0  0  0  0  0  0  0  0  0  0  0  0
   -2.7505   17.4766    0.2188 H   0  0  0  0  0  0  0  0  0  0  0  0
   -0.9576   17.3658    0.2188 H   0  0  0  0  0  0  0  0  0  0  0  0
   -3.6068   20.3171   -0.0156 H   0  0  0  0  0  0  0  0  0  0  0  0
   -2.3434   20.6748   -1.2414 H   0  0  0  0  0  0  0  0  0  0  0  0
   -3.1686   19.0793   -1.2414 H   0  0  0  0  0  0  0  0  0  0  0  0
    1.4391   16.9860    0.4166 H   0  0  0  0  0  0  0  0  0  0  0  0
   -0.3513   17.9863   -0.8597 H   0  0  0  0  0  0  0  0  0  0  0  0
    0.7574   18.5244   -2.1393 H   0  0  0  0  0  0  0  0  0  0  0  0
   -1.0182   16.2915   -2.3109 H   0  0  0  0  0  0  0  0  0  0  0  0
    0.3214   16.5745   -3.4191 H   0  0  0  0  0  0  0  0  0  0  0  0
    0.4847   15.0975    0.4419 H   0  0  0  0  0  0  0  0  0  0  0  0
   -1.0067   15.3926   -0.5148 H   0  0  0  0  0  0  0  0  0  0  0  0
   -0.2471   13.7648   -0.5148 H   0  0  0  0  0  0  0  0  0  0  0  0
    1.5757   14.5074   -3.5204 H   0  0  0  0  0  0  0  0  0  0  0  0
   -0.9535   14.0765   -3.2940 H   0  0  0  0  0  0  0  0  0  0  0  0
    0.1432   12.8754   -4.1562 H   0  0  0  0  0  0  0  0  0  0  0  0
   -1.6918   11.8488   -2.5687 H   0  0  0  0  0  0  0  0  0  0  0  0
    1.4445   12.5218   -0.1194 H   0  0  0  0  0  0  0  0  0  0  0  0
    2.3331   10.1380   -1.8594 H   0  0  0  0  0  0  0  0  0  0  0  0
    3.2964   10.9522   -0.5481 H   0  0  0  0  0  0  0  0  0  0  0  0
    2.3140    8.8096    0.2047 H   0  0  0  0  0  0  0  0  0  0  0  0
    1.6871   10.2349    1.1220 H   0  0  0  0  0  0  0  0  0  0  0  0
   -0.1457    8.7666    0.6310 H   0  0  0  0  0  0  0  0  0  0  0  0
    1.1940    8.1940   -1.5090 H   0  0  0  0  0  0  0  0  0  0  0  0
   -0.6628   10.5615    1.7561 H   0  0  0  0  0  0  0  0  0  0  0  0
   -0.3213   12.1621    1.0157 H   0  0  0  0  0  0  0  0  0  0  0  0
   -1.9956   11.5114    1.0157 H   0  0  0  0  0  0  0  0  0  0  0  0
   -2.6739    9.7995   -0.0583 H   0  0  0  0  0  0  0  0  0  0  0  0
   -2.5238   10.8169   -1.5310 H   0  0  0  0  0  0  0  0  0  0  0  0
   -1.8870    9.1374   -1.5310 H   0  0  0  0  0  0  0  0  0  0  0  0
    3.3883   11.4168   -2.9253 H   0  0  0  0  0  0  0  0  0  0  0  0
    1.9285   11.8113   -3.8949 H   0  0  0  0  0  0  0  0  0  0  0  0
    3.3355   12.9280   -3.8949 H   0  0  0  0  0  0  0  0  0  0  0  0
    3.7892   12.9645   -0.6485 H   0  0  0  0  0  0  0  0  0  0  0  0
    4.0104   14.0322   -2.1470 H   0  0  0  0  0  0  0  0  0  0  0  0
    2.4591   14.6836    0.3745 H   0  0  0  0  0  0  0  0  0  0  0  0
    3.9662   15.4578   -0.2545 H   0  0  0  0  0  0  0  0  0  0  0  0
    3.9665   16.8664   -2.2386 H   0  0  0  0  0  0  0  0  0  0  0  0
    3.2900   15.5063   -3.1973 H   0  0  0  0  0  0  0  0  0  0  0  0
    2.4659   17.1024   -3.1973 H   0  0  0  0  0  0  0  0  0  0  0  0
  1  2  1  0
  2  3  1  0
  3  4  1  0
  4  5  1  0
  5  6  1  0
  6  7  1  0
  7  8  1  0
  7  9  1  0
  2 10  1  0
 10 11  1  0
 11 12  1  0
 12 13  1  0
 13 14  1  1
 13 15  1  0
 15 16  1  0
 16 17  1  0
 17 18  2  0
 18 19  1  0
 19 20  1  0
 20 21  1  0
 21 22  1  0
 22 23  1  0
 22 24  1  0
 24 25  1  0
 24 26  1  0
 19 27  1  0
 27 28  1  6
 27 29  1  0
 29 30  1  0
 30 31  1  0
 31 32  1  6
  7  5  1  0
 31 10  1  0
 31 13  1  0
 27 15  1  0
 24 18  1  0
  1 33  1  0
  1 34  1  0
  1 35  1  0
  2 36  1  6
  3 37  1  0
  3 38  1  0
  4 39  1  0
  4 40  1  0
  5 41  1  6
  8 42  1  0
  8 43  1  0
  8 44  1  0
  9 45  1  0
  9 46  1  0
  9 47  1  0
 10 48  1  1
 11 49  1  0
 11 50  1  0
 12 51  1  0
 12 52  1  0
 14 53  1  0
 14 54  1  0
 14 55  1  0
 15 56  1  6
 16 57  1  0
 16 58  1  0
 17 59  1  0
 19 60  1  1
 20 61  1  0
 20 62  1  0
 21 63  1  0
 21 64  1  0
 22 65  1  1
 23 66  1  0
 25 67  1  0
 25 68  1  0
 25 69  1  0
 26 70  1  0
 26 71  1  0
 26 72  1  0
 28 73  1  0
 28 74  1  0
 28 75  1  0
 29 76  1  0
 29 77  1  0
 30 78  1  0
 30 79  1  0
 32 80  1  0
 32 81  1  0
 32 82  1  0
M  END
>  <meeko>  (5) 
{"is_sidechain": [false], "intermolecular_energy": 2.731, "internal_energy": -0.839}

$$$$
EPH_relaxed_0001_pdb2pqr_Repair_5_r2_0001_out
     RDKit          3D

 82 86  0  0  0  0  0  0  0  0999 V2000
   -5.1740    5.8520   -1.6100 C   0  0  0  0  0  0  0  0  0  0  0  0
   -5.4450    7.3530   -1.7490 C   0  0  2  0  0  0  0  0  0  0  0  0
   -5.2020    8.1110   -0.4290 C   0  0  0  0  0  0  0  0  0  0  0  0
   -4.1530    9.2210   -0.5400 C   0  0  0  0  0  0  0  0  0  0  0  0
   -2.7810    8.6650   -0.7750 C   0  0  2  0  0  0  0  0  0  0  0  0
   -1.8150    9.0140    0.2250 O   0  0  0  0  0  0  0  0  0  0  0  0
   -1.5730    9.5260   -1.0950 C   0  0  0  0  0  0  0  0  0  0  0  0
   -1.6820   11.0150   -1.2000 C   0  0  0  0  0  0  0  0  0  0  0  0
   -0.4050    8.8910   -1.7830 C   0  0  0  0  0  0  0  0  0  0  0  0
   -6.8750    7.5800   -2.2250 C   0  0  1  0  0  0  0  0  0  0  0  0
   -7.1720    6.8830   -3.5790 C   0  0  0  0  0  0  0  0  0  0  0  0
   -8.6480    6.4120   -3.5250 C   0  0  0  0  0  0  0  0  0  0  0  0
   -9.2440    7.1360   -2.2950 C   0  0  1  0  0  0  0  0  0  0  0  0
   -9.5890    8.5710   -2.8030 C   0  0  0  0  0  0  0  0  0  0  0  0
  -10.4770    6.4510   -1.6200 C   0  0  2  0  0  0  0  0  0  0  0  0
  -11.7240    6.3260   -2.5130 C   0  0  0  0  0  0  0  0  0  0  0  0
  -12.6770    7.4730   -2.4410 C   0  0  0  0  0  0  0  0  0  0  0  0
  -12.6870    8.4240   -1.4880 C   0  0  0  0  0  0  0  0  0  0  0  0
  -11.7320    8.3480   -0.2900 C   0  0  1  0  0  0  0  0  0  0  0  0
  -12.5190    8.6300    1.0170 C   0  0  0  0  0  0  0  0  0  0  0  0
  -13.2860    9.9480    0.9650 C   0  0  0  0  0  0  0  0  0  0  0  0
  -14.2660    9.9620   -0.2050 C   0  0  2  0  0  0  0  0  0  0  0  0
  -15.2870    8.9890    0.0370 O   0  0  0  0  0  0  0  0  0  0  0  0
  -13.5890    9.6790   -1.5750 C   0  0  0  0  0  0  0  0  0  0  0  0
  -12.7060   10.8860   -1.9780 C   0  0  0  0  0  0  0  0  0  0  0  0
  -14.7060    9.5820   -2.6490 C   0  0  0  0  0  0  0  0  0  0  0  0
  -10.8420    7.0340   -0.1950 C   0  0  1  0  0  0  0  0  0  0  0  0
  -11.6250    5.9140    0.5570 C   0  0  0  0  0  0  0  0  0  0  0  0
   -9.5640    7.3410    0.6720 C   0  0  0  0  0  0  0  0  0  0  0  0
   -8.3390    7.9040   -0.0730 C   0  0  0  0  0  0  0  0  0  0  0  0
   -8.0180    7.0660   -1.3140 C   0  0  2  0  0  0  0  0  0  0  0  0
   -7.6460    5.6220   -0.8330 C   0  0  0  0  0  0  0  0  0  0  0  0
   -5.1258    5.5853   -0.5439 H   0  0  0  0  0  0  0  0  0  0  0  0
   -5.9846    5.2868   -2.0931 H   0  0  0  0  0  0  0  0  0  0  0  0
   -4.2169    5.6059   -2.0931 H   0  0  0  0  0  0  0  0  0  0  0  0
   -4.7382    7.7503   -2.4923 H   0  0  0  0  0  0  0  0  0  0  0  0
   -6.1523    8.5623   -0.1078 H   0  0  0  0  0  0  0  0  0  0  0  0
   -4.8187    7.3782    0.2963 H   0  0  0  0  0  0  0  0  0  0  0  0
   -4.4191    9.8804   -1.3793 H   0  0  0  0  0  0  0  0  0  0  0  0
   -4.1400    9.7770    0.4091 H   0  0  0  0  0  0  0  0  0  0  0  0
   -3.2001    7.7718   -1.2614 H   0  0  0  0  0  0  0  0  0  0  0  0
   -1.7140   11.4523   -0.1912 H   0  0  0  0  0  0  0  0  0  0  0  0
   -0.8103   11.4091   -1.7430 H   0  0  0  0  0  0  0  0  0  0  0  0
   -2.6018   11.2779   -1.7430 H   0  0  0  0  0  0  0  0  0  0  0  0
    0.2999    8.5078   -1.0305 H   0  0  0  0  0  0  0  0  0  0  0  0
   -0.7573    8.0602   -2.4121 H   0  0  0  0  0  0  0  0  0  0  0  0
    0.1007    9.6384   -2.4121 H   0  0  0  0  0  0  0  0  0  0  0  0
   -6.8858    8.6795   -2.2576 H   0  0  0  0  0  0  0  0  0  0  0  0
   -7.0304    7.5912   -4.4087 H   0  0  0  0  0  0  0  0  0  0  0  0
   -6.4922    6.0341   -3.7438 H   0  0  0  0  0  0  0  0  0  0  0  0
   -9.1817    6.7014   -4.4423 H   0  0  0  0  0  0  0  0  0  0  0  0
   -8.7342    5.3181   -3.4474 H   0  0  0  0  0  0  0  0  0  0  0  0
   -9.7489    9.2363   -1.9417 H   0  0  0  0  0  0  0  0  0  0  0  0
   -8.7573    8.9540   -3.4126 H   0  0  0  0  0  0  0  0  0  0  0  0
  -10.5039    8.5341   -3.4126 H   0  0  0  0  0  0  0  0  0  0  0  0
  -10.1191    5.4229   -1.4621 H   0  0  0  0  0  0  0  0  0  0  0  0
  -11.3872    6.2288   -3.5556 H   0  0  0  0  0  0  0  0  0  0  0  0
  -12.2755    5.4483   -2.1448 H   0  0  0  0  0  0  0  0  0  0  0  0
  -13.4356    7.5474   -3.2341 H   0  0  0  0  0  0  0  0  0  0  0  0
  -10.9792    9.1340   -0.4500 H   0  0  0  0  0  0  0  0  0  0  0  0
  -13.2352    7.8114    1.1810 H   0  0  0  0  0  0  0  0  0  0  0  0
  -11.7897    8.7001    1.8375 H   0  0  0  0  0  0  0  0  0  0  0  0
  -13.8443   10.0771    1.9040 H   0  0  0  0  0  0  0  0  0  0  0  0
  -12.5660   10.7686    0.8302 H   0  0  0  0  0  0  0  0  0  0  0  0
  -14.6896   10.9752   -0.2680 H   0  0  0  0  0  0  0  0  0  0  0  0
  -15.1290    8.2410   -0.5630 H   0  0  0  0  0  0  0  0  0  0  0  0
  -12.3376   11.3895   -1.0720 H   0  0  0  0  0  0  0  0  0  0  0  0
  -11.8517   10.5325   -2.5741 H   0  0  0  0  0  0  0  0  0  0  0  0
  -13.3015   11.5931   -2.5741 H   0  0  0  0  0  0  0  0  0  0  0  0
  -15.6845    9.4970   -2.1537 H   0  0  0  0  0  0  0  0  0  0  0  0
  -14.6901   10.4849   -3.2771 H   0  0  0  0  0  0  0  0  0  0  0  0
  -14.5347    8.6953   -3.2771 H   0  0  0  0  0  0  0  0  0  0  0  0
  -11.5226    6.0605    1.6424 H   0  0  0  0  0  0  0  0  0  0  0  0
  -12.6884    5.9604    0.2795 H   0  0  0  0  0  0  0  0  0  0  0  0
  -11.2162    4.9312    0.2795 H   0  0  0  0  0  0  0  0  0  0  0  0
   -9.8514    8.0731    1.4410 H   0  0  0  0  0  0  0  0  0  0  0  0
   -9.2400    6.3653    1.0632 H   0  0  0  0  0  0  0  0  0  0  0  0
   -8.5502    8.9383   -0.3822 H   0  0  0  0  0  0  0  0  0  0  0  0
   -7.4726    7.8733    0.6041 H   0  0  0  0  0  0  0  0  0  0  0  0
   -7.6384    5.5924    0.2666 H   0  0  0  0  0  0  0  0  0  0  0  0
   -8.3890    4.9059   -1.2139 H   0  0  0  0  0  0  0  0  0  0  0  0
   -6.6495    5.3540   -1.2139 H   0  0  0  0  0  0  0  0  0  0  0  0
  1  2  1  0
  2  3  1  0
  3  4  1  0
  4  5  1  0
  5  6  1  0
  6  7  1  0
  7  8  1  0
  7  9  1  0
  2 10  1  0
 10 11  1  0
 11 12  1  0
 12 13  1  0
 13 14  1  6
 13 15  1  0
 15 16  1  0
 16 17  1  0
 17 18  2  0
 18 19  1  0
 19 20  1  0
 20 21  1  0
 21 22  1  0
 22 23  1  0
 22 24  1  0
 24 25  1  0
 24 26  1  0
 19 27  1  0
 27 28  1  1
 27 29  1  0
 29 30  1  0
 30 31  1  0
 31 32  1  1
  7  5  1  0
 31 10  1  0
 31 13  1  0
 27 15  1  0
 24 18  1  0
  1 33  1  0
  1 34  1  0
  1 35  1  0
  2 36  1  6
  3 37  1  0
  3 38  1  0
  4 39  1  0
  4 40  1  0
  5 41  1  6
  8 42  1  0
  8 43  1  0
  8 44  1  0
  9 45  1  0
  9 46  1  0
  9 47  1  0
 10 48  1  6
 11 49  1  0
 11 50  1  0
 12 51  1  0
 12 52  1  0
 14 53  1  0
 14 54  1  0
 14 55  1  0
 15 56  1  1
 16 57  1  0
 16 58  1  0
 17 59  1  0
 19 60  1  6
 20 61  1  0
 20 62  1  0
 21 63  1  0
 21 64  1  0
 22 65  1  6
 23 66  1  0
 25 67  1  0
 25 68  1  0
 25 69  1  0
 26 70  1  0
 26 71  1  0
 26 72  1  0
 28 73  1  0
 28 74  1  0
 28 75  1  0
 29 76  1  0
 29 77  1  0
 30 78  1  0
 30 79  1  0
 32 80  1  0
 32 81  1  0
 32 82  1  0
M  END
>  <meeko>  (6) 
{"is_sidechain": [false], "intermolecular_energy": 2.731, "internal_energy": -0.839}

$$$$
EPH_relaxed_0001_pdb2pqr_Repair_5_r2_0001_out
     RDKit          3D

 82 86  0  0  0  0  0  0  0  0999 V2000
   -0.2610   10.5520   -4.0200 C   0  0  0  0  0  0  0  0  0  0  0  0
    0.8610   10.3090   -3.0070 C   0  0  2  0  0  0  0  0  0  0  0  0
    0.6570    9.0000   -2.2170 C   0  0  0  0  0  0  0  0  0  0  0  0
    0.2230    9.2190   -0.7650 C   0  0  0  0  0  0  0  0  0  0  0  0
   -1.1830    8.7560   -0.5310 C   0  0  2  0  0  0  0  0  0  0  0  0
   -2.0280    8.7990   -1.6880 O   0  0  0  0  0  0  0  0  0  0  0  0
   -2.3900    9.6730   -0.6070 C   0  0  0  0  0  0  0  0  0  0  0  0
   -2.2450   11.1280   -0.9260 C   0  0  0  0  0  0  0  0  0  0  0  0
   -3.6430    9.2660    0.1040 C   0  0  0  0  0  0  0  0  0  0  0  0
    0.9580   11.4870   -2.0460 C   0  0  1  0  0  0  0  0  0  0  0  0
    2.0330   11.2750   -0.9460 C   0  0  0  0  0  0  0  0  0  0  0  0
    2.6570   12.6640   -0.6560 C   0  0  0  0  0  0  0  0  0  0  0  0
    1.7050   13.6710   -1.3440 C   0  0  1  0  0  0  0  0  0  0  0  0
    0.5210   13.8520   -0.3430 C   0  0  0  0  0  0  0  0  0  0  0  0
    2.3300   15.0440   -1.7540 C   0  0  2  0  0  0  0  0  0  0  0  0
    2.8550   15.8970   -0.5860 C   0  0  0  0  0  0  0  0  0  0  0  0
    1.8650   16.8430    0.0070 C   0  0  0  0  0  0  0  0  0  0  0  0
    0.6980   17.2100   -0.5560 C   0  0  0  0  0  0  0  0  0  0  0  0
    0.3190   16.7330   -1.9640 C   0  0  1  0  0  0  0  0  0  0  0  0
   -0.2080   17.9330   -2.7930 C   0  0  0  0  0  0  0  0  0  0  0  0
   -1.3510   18.6670   -2.0980 C   0  0  0  0  0  0  0  0  0  0  0  0
   -0.9180   19.1760   -0.7260 C   0  0  2  0  0  0  0  0  0  0  0  0
    0.0740   20.1930   -0.9040 O   0  0  0  0  0  0  0  0  0  0  0  0
   -0.3590   18.0560    0.1950 C   0  0  0  0  0  0  0  0  0  0  0  0
   -1.5110   17.1190    0.6330 C   0  0  0  0  0  0  0  0  0  0  0  0
    0.1730   18.7250    1.4920 C   0  0  0  0  0  0  0  0  0  0  0  0
    1.4300   15.8990   -2.7360 C   0  0  1  0  0  0  0  0  0  0  0  0
    2.3910   16.8660   -3.4930 C   0  0  0  0  0  0  0  0  0  0  0  0
    0.7360   15.0120   -3.8360 C   0  0  0  0  0  0  0  0  0  0  0  0
    0.2460   13.6180   -3.3980 C   0  0  0  0  0  0  0  0  0  0  0  0
    1.3450   12.8630   -2.6440 C   0  0  2  0  0  0  0  0  0  0  0  0
    2.5410   12.6460   -3.6330 C   0  0  0  0  0  0  0  0  0  0  0  0
   -1.2003   10.7554   -3.4850 H   0  0  0  0  0  0  0  0  0  0  0  0
   -0.0043   11.4154   -4.6514 H   0  0  0  0  0  0  0  0  0  0  0  0
   -0.3845    9.6598   -4.6514 H   0  0  0  0  0  0  0  0  0  0  0  0
    1.8002   10.2113   -3.5712 H   0  0  0  0  0  0  0  0  0  0  0  0
   -0.1163    8.4049   -2.7247 H   0  0  0  0  0  0  0  0  0  0  0  0
    1.6296    8.4869   -2.1881 H   0  0  0  0  0  0  0  0  0  0  0  0
    0.8982    8.6575   -0.1026 H   0  0  0  0  0  0  0  0  0  0  0  0
    0.2689   10.2973   -0.5523 H   0  0  0  0  0  0  0  0  0  0  0  0
   -0.8453    8.0428    0.2353 H   0  0  0  0  0  0  0  0  0  0  0  0
   -2.1876   11.7044    0.0091 H   0  0  0  0  0  0  0  0  0  0  0  0
   -1.3267   11.2854   -1.5108 H   0  0  0  0  0  0  0  0  0  0  0  0
   -3.1142   11.4636   -1.5108 H   0  0  0  0  0  0  0  0  0  0  0  0
   -3.4814    9.3185    1.1908 H   0  0  0  0  0  0  0  0  0  0  0  0
   -4.4616    9.9444   -0.1782 H   0  0  0  0  0  0  0  0  0  0  0  0
   -3.9067    8.2360   -0.1782 H   0  0  0  0  0  0  0  0  0  0  0  0
   -0.0797   11.5127   -1.6818 H   0  0  0  0  0  0  0  0  0  0  0  0
    1.5678   10.8711   -0.0347 H   0  0  0  0  0  0  0  0  0  0  0  0
    2.7999   10.5590   -1.2764 H   0  0  0  0  0  0  0  0  0  0  0  0
    2.7028   12.8507    0.4271 H   0  0  0  0  0  0  0  0  0  0  0  0
    3.6888   12.7438   -1.0289 H   0  0  0  0  0  0  0  0  0  0  0  0
    0.9003   13.7940    0.6879 H   0  0  0  0  0  0  0  0  0  0  0  0
    0.0499   14.8326   -0.5058 H   0  0  0  0  0  0  0  0  0  0  0  0
   -0.2216   13.0569   -0.5058 H   0  0  0  0  0  0  0  0  0  0  0  0
    3.2200   14.7371   -2.3230 H   0  0  0  0  0  0  0  0  0  0  0  0
    3.1917   15.2150    0.2086 H   0  0  0  0  0  0  0  0  0  0  0  0
    3.6604   16.5202   -1.0019 H   0  0  0  0  0  0  0  0  0  0  0  0
    2.1092   17.2776    0.9875 H   0  0  0  0  0  0  0  0  0  0  0  0
   -0.4829   15.9924   -1.8284 H   0  0  0  0  0  0  0  0  0  0  0  0
    0.6188   18.6403   -2.9545 H   0  0  0  0  0  0  0  0  0  0  0  0
   -0.5942   17.5379   -3.7442 H   0  0  0  0  0  0  0  0  0  0  0  0
   -1.6598   19.5215   -2.7180 H   0  0  0  0  0  0  0  0  0  0  0  0
   -2.1884   17.9663   -1.9643 H   0  0  0  0  0  0  0  0  0  0  0  0
   -1.8120   19.5759   -0.2252 H   0  0  0  0  0  0  0  0  0  0  0  0
    0.9170   19.8430   -0.5700 H   0  0  0  0  0  0  0  0  0  0  0  0
   -1.5562   17.0822    1.7315 H   0  0  0  0  0  0  0  0  0  0  0  0
   -2.4644   17.5013    0.2394 H   0  0  0  0  0  0  0  0  0  0  0  0
   -1.3309   16.1077    0.2394 H   0  0  0  0  0  0  0  0  0  0  0  0
   -0.2404   18.2051    2.3688 H   0  0  0  0  0  0  0  0  0  0  0  0
    1.2710   18.6628    1.5128 H   0  0  0  0  0  0  0  0  0  0  0  0
   -0.1349   19.7808    1.5128 H   0  0  0  0  0  0  0  0  0  0  0  0
    2.9719   17.4505   -2.7643 H   0  0  0  0  0  0  0  0  0  0  0  0
    3.0766   16.2817   -4.1243 H   0  0  0  0  0  0  0  0  0  0  0  0
    1.8025   17.5479   -4.1243 H   0  0  0  0  0  0  0  0  0  0  0  0
   -0.1357   15.5684   -4.2108 H   0  0  0  0  0  0  0  0  0  0  0  0
    1.5177   14.8197   -4.5857 H   0  0  0  0  0  0  0  0  0  0  0  0
   -0.6276   13.7340   -2.7397 H   0  0  0  0  0  0  0  0  0  0  0  0
   -0.0226   13.0423   -4.2960 H   0  0  0  0  0  0  0  0  0  0  0  0
    3.4649   12.4784   -3.0600 H   0  0  0  0  0  0  0  0  0  0  0  0
    2.3385   11.7699   -4.2666 H   0  0  0  0  0  0  0  0  0  0  0  0
    2.6592   13.5374   -4.2666 H   0  0  0  0  0  0  0  0  0  0  0  0
  1  2  1  0
  2  3  1  0
  3  4  1  0
  4  5  1  0
  5  6  1  0
  6  7  1  0
  7  8  1  0
  7  9  1  0
  2 10  1  0
 10 11  1  0
 11 12  1  0
 12 13  1  0
 13 14  1  1
 13 15  1  0
 15 16  1  0
 16 17  1  0
 17 18  2  0
 18 19  1  0
 19 20  1  0
 20 21  1  0
 21 22  1  0
 22 23  1  0
 22 24  1  0
 24 25  1  0
 24 26  1  0
 19 27  1  0
 27 28  1  6
 27 29  1  0
 29 30  1  0
 30 31  1  0
 31 32  1  6
  7  5  1  0
 31 10  1  0
 31 13  1  0
 27 15  1  0
 24 18  1  0
  1 33  1  0
  1 34  1  0
  1 35  1  0
  2 36  1  6
  3 37  1  0
  3 38  1  0
  4 39  1  0
  4 40  1  0
  5 41  1  1
  8 42  1  0
  8 43  1  0
  8 44  1  0
  9 45  1  0
  9 46  1  0
  9 47  1  0
 10 48  1  1
 11 49  1  0
 11 50  1  0
 12 51  1  0
 12 52  1  0
 14 53  1  0
 14 54  1  0
 14 55  1  0
 15 56  1  6
 16 57  1  0
 16 58  1  0
 17 59  1  0
 19 60  1  1
 20 61  1  0
 20 62  1  0
 21 63  1  0
 21 64  1  0
 22 65  1  1
 23 66  1  0
 25 67  1  0
 25 68  1  0
 25 69  1  0
 26 70  1  0
 26 71  1  0
 26 72  1  0
 28 73  1  0
 28 74  1  0
 28 75  1  0
 29 76  1  0
 29 77  1  0
 30 78  1  0
 30 79  1  0
 32 80  1  0
 32 81  1  0
 32 82  1  0
M  END
>  <meeko>  (7) 
{"is_sidechain": [false], "intermolecular_energy": 2.731, "internal_energy": -0.839}

$$$$
EPH_relaxed_0001_pdb2pqr_Repair_5_r2_0001_out
     RDKit          3D

 82 86  0  0  0  0  0  0  0  0999 V2000
    0.3690    8.7980   -2.3460 C   0  0  0  0  0  0  0  0  0  0  0  0
    1.1140    9.9350   -3.0490 C   0  0  2  0  0  0  0  0  0  0  0  0
    2.6170    9.9460   -2.7050 C   0  0  0  0  0  0  0  0  0  0  0  0
    3.4990   10.5230   -3.8150 C   0  0  0  0  0  0  0  0  0  0  0  0
    4.8910   10.7960   -3.3320 C   0  0  2  0  0  0  0  0  0  0  0  0
    5.4670   12.0140   -3.8230 O   0  0  0  0  0  0  0  0  0  0  0  0
    6.1070   10.7970   -4.2400 C   0  0  0  0  0  0  0  0  0  0  0  0
    5.9870   10.5180   -5.7050 C   0  0  0  0  0  0  0  0  0  0  0  0
    7.4570   10.5850   -3.6290 C   0  0  0  0  0  0  0  0  0  0  0  0
    0.4860   11.2740   -2.6810 C   0  0  1  0  0  0  0  0  0  0  0  0
   -0.8830   11.1150   -1.9670 C   0  0  0  0  0  0  0  0  0  0  0  0
   -0.9800   12.2610   -0.9260 C   0  0  0  0  0  0  0  0  0  0  0  0
    0.1700   13.2260   -1.3000 C   0  0  1  0  0  0  0  0  0  0  0  0
   -0.3910   14.0800   -2.4800 C   0  0  0  0  0  0  0  0  0  0  0  0
    0.7190   14.1260   -0.1460 C   0  0  2  0  0  0  0  0  0  0  0  0
   -0.3000   15.1110    0.4550 C   0  0  0  0  0  0  0  0  0  0  0  0
   -0.3460   16.4550   -0.1930 C   0  0  0  0  0  0  0  0  0  0  0  0
    0.5880   16.9550   -1.0240 C   0  0  0  0  0  0  0  0  0  0  0  0
    1.8820   16.1830   -1.3110 C   0  0  1  0  0  0  0  0  0  0  0  0
    3.0940   17.1450   -1.2010 C   0  0  0  0  0  0  0  0  0  0  0  0
    2.9430   18.3800   -2.0850 C   0  0  0  0  0  0  0  0  0  0  0  0
    1.6750   19.1520   -1.7300 C   0  0  2  0  0  0  0  0  0  0  0  0
    1.8200   19.6980   -0.4150 O   0  0  0  0  0  0  0  0  0  0  0  0
    0.3890   18.2820   -1.7960 C   0  0  0  0  0  0  0  0  0  0  0  0
    0.0660   17.9420   -3.2720 C   0  0  0  0  0  0  0  0  0  0  0  0
   -0.7960   19.1430   -1.2800 C   0  0  0  0  0  0  0  0  0  0  0  0
    2.0890   14.8440   -0.4800 C   0  0  1  0  0  0  0  0  0  0  0  0
    2.7680   15.1650    0.8860 C   0  0  0  0  0  0  0  0  0  0  0  0
    3.0830   13.9040   -1.2600 C   0  0  0  0  0  0  0  0  0  0  0  0
    2.4650   12.9530   -2.3030 C   0  0  0  0  0  0  0  0  0  0  0  0
    1.2770   12.1880   -1.7110 C   0  0  2  0  0  0  0  0  0  0  0  0
    1.8140   11.3030   -0.5360 C   0  0  0  0  0  0  0  0  0  0  0  0
    0.4516    8.9241   -1.2564 H   0  0  0  0  0  0  0  0  0  0  0  0
   -0.6913    8.8186   -2.6382 H   0  0  0  0  0  0  0  0  0  0  0  0
    0.8112    7.8341   -2.6382 H   0  0  0  0  0  0  0  0  0  0  0  0
    1.0250    9.7676   -4.1325 H   0  0  0  0  0  0  0  0  0  0  0  0
    2.7610   10.5508   -1.7976 H   0  0  0  0  0  0  0  0  0  0  0  0
    2.9219    8.8985   -2.5645 H   0  0  0  0  0  0  0  0  0  0  0  0
    3.5446    9.8024   -4.6448 H   0  0  0  0  0  0  0  0  0  0  0  0
    3.0573   11.4754   -4.1435 H   0  0  0  0  0  0  0  0  0  0  0  0
    4.6838   10.2910   -2.3770 H   0  0  0  0  0  0  0  0  0  0  0  0
    5.5564    9.5168   -5.8535 H   0  0  0  0  0  0  0  0  0  0  0  0
    5.3331   11.2709   -6.1693 H   0  0  0  0  0  0  0  0  0  0  0  0
    6.9833   10.5612   -6.1693 H   0  0  0  0  0  0  0  0  0  0  0  0
    7.3695   10.5987   -2.5326 H   0  0  0  0  0  0  0  0  0  0  0  0
    7.8574    9.6130   -3.9527 H   0  0  0  0  0  0  0  0  0  0  0  0
    8.1361   11.3875   -3.9527 H   0  0  0  0  0  0  0  0  0  0  0  0
    0.4382   11.7360   -3.6781 H   0  0  0  0  0  0  0  0  0  0  0  0
   -1.7024   11.1954   -2.6965 H   0  0  0  0  0  0  0  0  0  0  0  0
   -0.9632   10.1316   -1.4807 H   0  0  0  0  0  0  0  0  0  0  0  0
   -1.9527   12.7697   -0.9979 H   0  0  0  0  0  0  0  0  0  0  0  0
   -0.8971   11.8939    0.1076 H   0  0  0  0  0  0  0  0  0  0  0  0
   -0.9532   14.9359   -2.0783 H   0  0  0  0  0  0  0  0  0  0  0  0
    0.4431   14.4461   -3.0966 H   0  0  0  0  0  0  0  0  0  0  0  0
   -1.0582   13.4599   -3.0966 H   0  0  0  0  0  0  0  0  0  0  0  0
    0.9279   13.3921    0.6463 H   0  0  0  0  0  0  0  0  0  0  0  0
   -1.2994   14.6591    0.3718 H   0  0  0  0  0  0  0  0  0  0  0  0
    0.0200   15.2844    1.4931 H   0  0  0  0  0  0  0  0  0  0  0  0
   -1.2164   17.0906    0.0270 H   0  0  0  0  0  0  0  0  0  0  0  0
    1.7923   15.8118   -2.3426 H   0  0  0  0  0  0  0  0  0  0  0  0
    3.1923   17.4701   -0.1548 H   0  0  0  0  0  0  0  0  0  0  0  0
    3.9861   16.5983   -1.5406 H   0  0  0  0  0  0  0  0  0  0  0  0
    3.8153   19.0346   -1.9414 H   0  0  0  0  0  0  0  0  0  0  0  0
    2.8749   18.0554   -3.1338 H   0  0  0  0  0  0  0  0  0  0  0  0
    1.5534   19.9482   -2.4792 H   0  0  0  0  0  0  0  0  0  0  0  0
    2.3230   19.0560    0.1150 H   0  0  0  0  0  0  0  0  0  0  0  0
   -0.6912   17.1449   -3.3074 H   0  0  0  0  0  0  0  0  0  0  0  0
   -0.3212   18.8384   -3.7785 H   0  0  0  0  0  0  0  0  0  0  0  0
    0.9811   17.6012   -3.7785 H   0  0  0  0  0  0  0  0  0  0  0  0
   -0.7970   19.1437   -0.1800 H   0  0  0  0  0  0  0  0  0  0  0  0
   -0.6872   20.1742   -1.6473 H   0  0  0  0  0  0  0  0  0  0  0  0
   -1.7431   18.7210   -1.6473 H   0  0  0  0  0  0  0  0  0  0  0  0
    2.1061   14.8521    1.7070 H   0  0  0  0  0  0  0  0  0  0  0  0
    3.7224   14.6227    0.9575 H   0  0  0  0  0  0  0  0  0  0  0  0
    2.9546   16.2467    0.9575 H   0  0  0  0  0  0  0  0  0  0  0  0
    3.8073   14.5460   -1.7827 H   0  0  0  0  0  0  0  0  0  0  0  0
    3.5192   13.2466   -0.4935 H   0  0  0  0  0  0  0  0  0  0  0  0
    2.1203   13.5409   -3.1665 H   0  0  0  0  0  0  0  0  0  0  0  0
    3.2308   12.2267   -2.6129 H   0  0  0  0  0  0  0  0  0  0  0  0
    1.5361   11.7611    0.4247 H   0  0  0  0  0  0  0  0  0  0  0  0
    1.3737   10.2972   -0.6037 H   0  0  0  0  0  0  0  0  0  0  0  0
    2.9094   11.2291   -0.6037 H   0  0  0  0  0  0  0  0  0  0  0  0
  1  2  1  0
  2  3  1  0
  3  4  1  0
  4  5  1  0
  5  6  1  0
  6  7  1  0
  7  8  1  0
  7  9  1  0
  2 10  1  0
 10 11  1  0
 11 12  1  0
 12 13  1  0
 13 14  1  6
 13 15  1  0
 15 16  1  0
 16 17  1  0
 17 18  2  0
 18 19  1  0
 19 20  1  0
 20 21  1  0
 21 22  1  0
 22 23  1  0
 22 24  1  0
 24 25  1  0
 24 26  1  0
 19 27  1  0
 27 28  1  1
 27 29  1  0
 29 30  1  0
 30 31  1  0
 31 32  1  1
  7  5  1  0
 31 10  1  0
 31 13  1  0
 27 15  1  0
 24 18  1  0
  1 33  1  0
  1 34  1  0
  1 35  1  0
  2 36  1  6
  3 37  1  0
  3 38  1  0
  4 39  1  0
  4 40  1  0
  5 41  1  1
  8 42  1  0
  8 43  1  0
  8 44  1  0
  9 45  1  0
  9 46  1  0
  9 47  1  0
 10 48  1  6
 11 49  1  0
 11 50  1  0
 12 51  1  0
 12 52  1  0
 14 53  1  0
 14 54  1  0
 14 55  1  0
 15 56  1  1
 16 57  1  0
 16 58  1  0
 17 59  1  0
 19 60  1  6
 20 61  1  0
 20 62  1  0
 21 63  1  0
 21 64  1  0
 22 65  1  6
 23 66  1  0
 25 67  1  0
 25 68  1  0
 25 69  1  0
 26 70  1  0
 26 71  1  0
 26 72  1  0
 28 73  1  0
 28 74  1  0
 28 75  1  0
 29 76  1  0
 29 77  1  0
 30 78  1  0
 30 79  1  0
 32 80  1  0
 32 81  1  0
 32 82  1  0
M  END
>  <meeko>  (8) 
{"is_sidechain": [false], "intermolecular_energy": 2.731, "internal_energy": -0.839}

$$$$
EPH_relaxed_0001_pdb2pqr_Repair_5_r2_0001_out
     RDKit          3D

 82 86  0  0  0  0  0  0  0  0999 V2000
   -3.7390    7.1950   -3.3970 C   0  0  0  0  0  0  0  0  0  0  0  0
   -3.7950    7.2730   -1.8690 C   0  0  2  0  0  0  0  0  0  0  0  0
   -5.2250    7.0720   -1.3290 C   0  0  0  0  0  0  0  0  0  0  0  0
   -6.3200    7.4780   -2.3190 C   0  0  0  0  0  0  0  0  0  0  0  0
   -7.6560    7.5990   -1.6500 C   0  0  2  0  0  0  0  0  0  0  0  0
   -8.1520    6.3810   -1.0800 O   0  0  0  0  0  0  0  0  0  0  0  0
   -8.9140    6.9270   -2.1680 C   0  0  0  0  0  0  0  0  0  0  0  0
   -8.8970    6.0870   -3.4060 C   0  0  0  0  0  0  0  0  0  0  0  0
  -10.2420    7.4810   -1.7550 C   0  0  0  0  0  0  0  0  0  0  0  0
   -3.2450    8.6140   -1.3960 C   0  0  1  0  0  0  0  0  0  0  0  0
   -3.8390    9.0570   -0.0330 C   0  0  0  0  0  0  0  0  0  0  0  0
   -2.7110    9.8020    0.7260 C   0  0  0  0  0  0  0  0  0  0  0  0
   -1.6220   10.0530   -0.3420 C   0  0  1  0  0  0  0  0  0  0  0  0
   -2.1060   11.3170   -1.1190 C   0  0  0  0  0  0  0  0  0  0  0  0
   -0.1610   10.2250    0.1870 C   0  0  2  0  0  0  0  0  0  0  0  0
    0.0600   11.4340    1.1130 C   0  0  0  0  0  0  0  0  0  0  0  0
    0.4590   12.6990    0.4260 C   0  0  0  0  0  0  0  0  0  0  0  0
    0.9090   12.7930   -0.8390 C   0  0  0  0  0  0  0  0  0  0  0  0
    1.1480   11.5370   -1.6860 C   0  0  1  0  0  0  0  0  0  0  0  0
    2.5270   11.6420   -2.3900 C   0  0  0  0  0  0  0  0  0  0  0  0
    2.6740   12.9270   -3.1990 C   0  0  0  0  0  0  0  0  0  0  0  0
    2.4870   14.1550   -2.3110 C   0  0  2  0  0  0  0  0  0  0  0  0
    3.5710   14.2190   -1.3790 O   0  0  0  0  0  0  0  0  0  0  0  0
    1.1360   14.1540   -1.5420 C   0  0  0  0  0  0  0  0  0  0  0  0
   -0.0290   14.3880   -2.5350 C   0  0  0  0  0  0  0  0  0  0  0  0
    1.1350   15.3710   -0.5780 C   0  0  0  0  0  0  0  0  0  0  0  0
    0.9500   10.1480   -0.9380 C   0  0  1  0  0  0  0  0  0  0  0  0
    2.2740    9.7320   -0.2280 C   0  0  0  0  0  0  0  0  0  0  0  0
    0.6460    9.0300   -2.0030 C   0  0  0  0  0  0  0  0  0  0  0  0
   -0.8300    8.8270   -2.3960 C   0  0  0  0  0  0  0  0  0  0  0  0
   -1.7170    8.7100   -1.1540 C   0  0  2  0  0  0  0  0  0  0  0  0
   -1.2680    7.4330   -0.3640 C   0  0  0  0  0  0  0  0  0  0  0  0
   -3.1219    6.3355   -3.6979 H   0  0  0  0  0  0  0  0  0  0  0  0
   -4.7570    7.0729   -3.7955 H   0  0  0  0  0  0  0  0  0  0  0  0
   -3.2978    8.1205   -3.7955 H   0  0  0  0  0  0  0  0  0  0  0  0
   -3.1742    6.4554   -1.4738 H   0  0  0  0  0  0  0  0  0  0  0  0
   -5.3567    6.0081   -1.0827 H   0  0  0  0  0  0  0  0  0  0  0  0
   -5.3304    7.7231   -0.4487 H   0  0  0  0  0  0  0  0  0  0  0  0
   -6.0555    8.4482   -2.7648 H   0  0  0  0  0  0  0  0  0  0  0  0
   -6.3922    6.6963   -3.0896 H   0  0  0  0  0  0  0  0  0  0  0  0
   -7.4415    8.6368   -1.3553 H   0  0  0  0  0  0  0  0  0  0  0  0
   -8.8755    5.0232   -3.1270 H   0  0  0  0  0  0  0  0  0  0  0  0
   -9.7995    6.2919   -4.0006 H   0  0  0  0  0  0  0  0  0  0  0  0
   -8.0036    6.3283   -4.0006 H   0  0  0  0  0  0  0  0  0  0  0  0
  -10.3032    7.5065   -0.6570 H   0  0  0  0  0  0  0  0  0  0  0  0
  -10.3535    8.5007   -2.1523 H   0  0  0  0  0  0  0  0  0  0  0  0
  -11.0451    6.8429   -2.1523 H   0  0  0  0  0  0  0  0  0  0  0  0
   -3.5312    9.2427   -2.2520 H   0  0  0  0  0  0  0  0  0  0  0  0
   -4.6952    9.7287   -0.1934 H   0  0  0  0  0  0  0  0  0  0  0  0
   -4.1963    8.1902    0.5424 H   0  0  0  0  0  0  0  0  0  0  0  0
   -3.0809   10.7540    1.1345 H   0  0  0  0  0  0  0  0  0  0  0  0
   -2.3311    9.2236    1.5811 H   0  0  0  0  0  0  0  0  0  0  0  0
   -2.4043   12.0962   -0.4021 H   0  0  0  0  0  0  0  0  0  0  0  0
   -1.2886   11.6940   -1.7513 H   0  0  0  0  0  0  0  0  0  0  0  0
   -2.9662   11.0517   -1.7513 H   0  0  0  0  0  0  0  0  0  0  0  0
   -0.0346    9.3355    0.8216 H   0  0  0  0  0  0  0  0  0  0  0  0
   -0.8783   11.6230    1.6552 H   0  0  0  0  0  0  0  0  0  0  0  0
    0.9012   11.1654    1.7689 H   0  0  0  0  0  0  0  0  0  0  0  0
    0.3782   13.6323    1.0025 H   0  0  0  0  0  0  0  0  0  0  0  0
    0.3449   11.5198   -2.4374 H   0  0  0  0  0  0  0  0  0  0  0  0
    3.3167   11.6148   -1.6247 H   0  0  0  0  0  0  0  0  0  0  0  0
    2.6109   10.7962   -3.0883 H   0  0  0  0  0  0  0  0  0  0  0  0
    3.6777   12.9569   -3.6481 H   0  0  0  0  0  0  0  0  0  0  0  0
    1.9018   12.9391   -3.9823 H   0  0  0  0  0  0  0  0  0  0  0  0
    2.4743   15.0381   -2.9667 H   0  0  0  0  0  0  0  0  0  0  0  0
    3.7140   13.3220   -1.0320 H   0  0  0  0  0  0  0  0  0  0  0  0
   -0.9568   14.5744   -1.9743 H   0  0  0  0  0  0  0  0  0  0  0  0
    0.1980   15.2585   -3.1680 H   0  0  0  0  0  0  0  0  0  0  0  0
   -0.1557   13.4974   -3.1680 H   0  0  0  0  0  0  0  0  0  0  0  0
    1.1353   15.0145    0.4626 H   0  0  0  0  0  0  0  0  0  0  0  0
    2.0326   15.9811   -0.7568 H   0  0  0  0  0  0  0  0  0  0  0  0
    0.2364   15.9797   -0.7568 H   0  0  0  0  0  0  0  0  0  0  0  0
    2.1348    9.7757    0.8623 H   0  0  0  0  0  0  0  0  0  0  0  0
    2.5415    8.7065   -0.5226 H   0  0  0  0  0  0  0  0  0  0  0  0
    3.0800   10.4202   -0.5226 H   0  0  0  0  0  0  0  0  0  0  0  0
    1.2022    9.2820   -2.9179 H   0  0  0  0  0  0  0  0  0  0  0  0
    0.9485    8.0869   -1.5243 H   0  0  0  0  0  0  0  0  0  0  0  0
   -1.1637    9.6859   -2.9968 H   0  0  0  0  0  0  0  0  0  0  0  0
   -0.9136    7.8957   -2.9755 H   0  0  0  0  0  0  0  0  0  0  0  0
   -1.3364    7.6274    0.7165 H   0  0  0  0  0  0  0  0  0  0  0  0
   -1.9236    6.5898   -0.6270 H   0  0  0  0  0  0  0  0  0  0  0  0
   -0.2290    7.1856   -0.6270 H   0  0  0  0  0  0  0  0  0  0  0  0
  1  2  1  0
  2  3  1  0
  3  4  1  0
  4  5  1  0
  5  6  1  0
  6  7  1  0
  7  8  1  0
  7  9  1  0
  2 10  1  0
 10 11  1  0
 11 12  1  0
 12 13  1  0
 13 14  1  6
 13 15  1  0
 15 16  1  0
 16 17  1  0
 17 18  2  0
 18 19  1  0
 19 20  1  0
 20 21  1  0
 21 22  1  0
 22 23  1  0
 22 24  1  0
 24 25  1  0
 24 26  1  0
 19 27  1  0
 27 28  1  1
 27 29  1  0
 29 30  1  0
 30 31  1  0
 31 32  1  1
  7  5  1  0
 31 10  1  0
 31 13  1  0
 27 15  1  0
 24 18  1  0
  1 33  1  0
  1 34  1  0
  1 35  1  0
  2 36  1  1
  3 37  1  0
  3 38  1  0
  4 39  1  0
  4 40  1  0
  5 41  1  1
  8 42  1  0
  8 43  1  0
  8 44  1  0
  9 45  1  0
  9 46  1  0
  9 47  1  0
 10 48  1  6
 11 49  1  0
 11 50  1  0
 12 51  1  0
 12 52  1  0
 14 53  1  0
 14 54  1  0
 14 55  1  0
 15 56  1  1
 16 57  1  0
 16 58  1  0
 17 59  1  0
 19 60  1  6
 20 61  1  0
 20 62  1  0
 21 63  1  0
 21 64  1  0
 22 65  1  6
 23 66  1  0
 25 67  1  0
 25 68  1  0
 25 69  1  0
 26 70  1  0
 26 71  1  0
 26 72  1  0
 28 73  1  0
 28 74  1  0
 28 75  1  0
 29 76  1  0
 29 77  1  0
 30 78  1  0
 30 79  1  0
 32 80  1  0
 32 81  1  0
 32 82  1  0
M  END
>  <meeko>  (9) 
{"is_sidechain": [false], "intermolecular_energy": 2.731, "internal_energy": -0.839}

$$$$
EPH_relaxed_0001_pdb2pqr_Repair_5_r2_0001_out
     RDKit          3D

 82 86  0  0  0  0  0  0  0  0999 V2000
   -0.2800   15.0880   -7.6030 C   0  0  0  0  0  0  0  0  0  0  0  0
    1.0900   15.0580   -6.9190 C   0  0  2  0  0  0  0  0  0  0  0  0
    2.2480   15.1450   -7.9340 C   0  0  0  0  0  0  0  0  0  0  0  0
    2.2930   16.4670   -8.7040 C   0  0  0  0  0  0  0  0  0  0  0  0
    1.8840   16.2890  -10.1350 C   0  0  2  0  0  0  0  0  0  0  0  0
    1.1960   15.0620  -10.4130 O   0  0  0  0  0  0  0  0  0  0  0  0
    2.4750   15.2300  -11.0480 C   0  0  0  0  0  0  0  0  0  0  0  0
    3.5240   14.2800  -10.5640 C   0  0  0  0  0  0  0  0  0  0  0  0
    2.3900   15.4340  -12.5280 C   0  0  0  0  0  0  0  0  0  0  0  0
    1.2250   13.7910   -6.0830 C   0  0  1  0  0  0  0  0  0  0  0  0
    2.6580   13.1980   -6.1230 C   0  0  0  0  0  0  0  0  0  0  0  0
    2.9310   12.5900   -4.7230 C   0  0  0  0  0  0  0  0  0  0  0  0
    1.5450   12.5550   -4.0370 C   0  0  1  0  0  0  0  0  0  0  0  0
    0.8520   11.2730   -4.5970 C   0  0  0  0  0  0  0  0  0  0  0  0
    1.5480   12.5730   -2.4740 C   0  0  2  0  0  0  0  0  0  0  0  0
    2.2290   11.3640   -1.8080 C   0  0  0  0  0  0  0  0  0  0  0  0
    1.3320   10.2080   -1.5140 C   0  0  0  0  0  0  0  0  0  0  0  0
   -0.0140   10.2440   -1.5090 C   0  0  0  0  0  0  0  0  0  0  0  0
   -0.7670   11.5630   -1.7240 C   0  0  1  0  0  0  0  0  0  0  0  0
   -1.8910   11.6970   -0.6630 C   0  0  0  0  0  0  0  0  0  0  0  0
   -2.8230   10.4890   -0.6430 C   0  0  0  0  0  0  0  0  0  0  0  0
   -2.0450    9.2040   -0.3680 C   0  0  2  0  0  0  0  0  0  0  0  0
   -1.5310    9.2530    0.9660 O   0  0  0  0  0  0  0  0  0  0  0  0
   -0.8800    8.9680   -1.3690 C   0  0  0  0  0  0  0  0  0  0  0  0
   -1.4550    8.6150   -2.7630 C   0  0  0  0  0  0  0  0  0  0  0  0
   -0.0910    7.7170   -0.8960 C   0  0  0  0  0  0  0  0  0  0  0  0
    0.1340   12.8680   -1.8260 C   0  0  1  0  0  0  0  0  0  0  0  0
    0.4070   13.4380   -0.4010 C   0  0  0  0  0  0  0  0  0  0  0  0
   -0.6600   13.9820   -2.6060 C   0  0  0  0  0  0  0  0  0  0  0  0
   -0.5270   13.9850   -4.1410 C   0  0  0  0  0  0  0  0  0  0  0  0
    0.9430   13.9080   -4.5640 C   0  0  2  0  0  0  0  0  0  0  0  0
    1.6610   15.1960   -4.0330 C   0  0  0  0  0  0  0  0  0  0  0  0
   -1.0710   15.1053   -6.8388 H   0  0  0  0  0  0  0  0  0  0  0  0
   -0.3568   15.9880   -8.2307 H   0  0  0  0  0  0  0  0  0  0  0  0
   -0.3961   14.1922   -8.2307 H   0  0  0  0  0  0  0  0  0  0  0  0
    1.1545   15.9423   -6.2680 H   0  0  0  0  0  0  0  0  0  0  0  0
    3.1966   15.0277   -7.3896 H   0  0  0  0  0  0  0  0  0  0  0  0
    2.0875   14.3472   -8.6741 H   0  0  0  0  0  0  0  0  0  0  0  0
    1.6091   17.1826   -8.2241 H   0  0  0  0  0  0  0  0  0  0  0  0
    3.3281   16.8389   -8.6868 H   0  0  0  0  0  0  0  0  0  0  0  0
    1.7461   17.3736  -10.2555 H   0  0  0  0  0  0  0  0  0  0  0  0
    3.5324   14.2724   -9.4641 H   0  0  0  0  0  0  0  0  0  0  0  0
    3.3026   13.2688  -10.9360 H   0  0  0  0  0  0  0  0  0  0  0  0
    4.5084   14.6002  -10.9360 H   0  0  0  0  0  0  0  0  0  0  0  0
    1.9747   16.4308  -12.7375 H   0  0  0  0  0  0  0  0  0  0  0  0
    3.3955   15.3560  -12.9672 H   0  0  0  0  0  0  0  0  0  0  0  0
    1.7374   14.6651  -12.9672 H   0  0  0  0  0  0  0  0  0  0  0  0
    0.4533   13.1711   -6.5628 H   0  0  0  0  0  0  0  0  0  0  0  0
    2.7229   12.4165   -6.8944 H   0  0  0  0  0  0  0  0  0  0  0  0
    3.3990   13.9732   -6.3678 H   0  0  0  0  0  0  0  0  0  0  0  0
    3.3451   11.5750   -4.8143 H   0  0  0  0  0  0  0  0  0  0  0  0
    3.6659   13.1745   -4.1500 H   0  0  0  0  0  0  0  0  0  0  0  0
    0.5123   10.6447   -3.7604 H   0  0  0  0  0  0  0  0  0  0  0  0
   -0.0124   11.5626   -5.2126 H   0  0  0  0  0  0  0  0  0  0  0  0
    1.5678   10.7084   -5.2126 H   0  0  0  0  0  0  0  0  0  0  0  0
    2.1893   13.4382   -2.2503 H   0  0  0  0  0  0  0  0  0  0  0  0
    3.0277   11.0125   -2.4777 H   0  0  0  0  0  0  0  0  0  0  0  0
    2.5951   11.7200   -0.8337 H   0  0  0  0  0  0  0  0  0  0  0  0
    1.8109    9.2453   -1.2818 H   0  0  0  0  0  0  0  0  0  0  0  0
   -1.2083   11.4998   -2.7296 H   0  0  0  0  0  0  0  0  0  0  0  0
   -1.4285   11.8021    0.3295 H   0  0  0  0  0  0  0  0  0  0  0  0
   -2.4935   12.5795   -0.9241 H   0  0  0  0  0  0  0  0  0  0  0  0
   -3.5770   10.6291    0.1456 H   0  0  0  0  0  0  0  0  0  0  0  0
   -3.3070   10.4026   -1.6270 H   0  0  0  0  0  0  0  0  0  0  0  0
   -2.7421    8.3624   -0.4940 H   0  0  0  0  0  0  0  0  0  0  0  0
   -2.2880    9.2210    1.5750 H   0  0  0  0  0  0  0  0  0  0  0  0
   -2.3867    8.0430   -2.6412 H   0  0  0  0  0  0  0  0  0  0  0  0
   -1.6633    9.5410   -3.3190 H   0  0  0  0  0  0  0  0  0  0  0  0
   -0.7235    8.0102   -3.3190 H   0  0  0  0  0  0  0  0  0  0  0  0
   -0.0732    7.6888    0.2035 H   0  0  0  0  0  0  0  0  0  0  0  0
   -0.5801    6.8089   -1.2782 H   0  0  0  0  0  0  0  0  0  0  0  0
    0.9392    7.7671   -1.2782 H   0  0  0  0  0  0  0  0  0  0  0  0
    0.0617   12.7170    0.3546 H   0  0  0  0  0  0  0  0  0  0  0  0
    1.4860   13.6116   -0.2760 H   0  0  0  0  0  0  0  0  0  0  0  0
   -0.1341   14.3875   -0.2760 H   0  0  0  0  0  0  0  0  0  0  0  0
   -1.7264   13.8611   -2.3647 H   0  0  0  0  0  0  0  0  0  0  0  0
   -0.2176   14.9339   -2.2772 H   0  0  0  0  0  0  0  0  0  0  0  0
   -1.0652   13.1175   -4.5505 H   0  0  0  0  0  0  0  0  0  0  0  0
   -0.9548   14.9215   -4.5283 H   0  0  0  0  0  0  0  0  0  0  0  0
    1.6579   15.1904   -2.9330 H   0  0  0  0  0  0  0  0  0  0  0  0
    2.6990   15.2135   -4.3967 H   0  0  0  0  0  0  0  0  0  0  0  0
    1.1300   16.0881   -4.3967 H   0  0  0  0  0  0  0  0  0  0  0  0
  1  2  1  0
  2  3  1  0
  3  4  1  0
  4  5  1  0
  5  6  1  0
  6  7  1  0
  7  8  1  0
  7  9  1  0
  2 10  1  0
 10 11  1  0
 11 12  1  0
 12 13  1  0
 13 14  1  1
 13 15  1  0
 15 16  1  0
 16 17  1  0
 17 18  2  0
 18 19  1  0
 19 20  1  0
 20 21  1  0
 21 22  1  0
 22 23  1  0
 22 24  1  0
 24 25  1  0
 24 26  1  0
 19 27  1  0
 27 28  1  1
 27 29  1  0
 29 30  1  0
 30 31  1  0
 31 32  1  1
  7  5  1  0
 31 10  1  0
 31 13  1  0
 27 15  1  0
 24 18  1  0
  1 33  1  0
  1 34  1  0
  1 35  1  0
  2 36  1  1
  3 37  1  0
  3 38  1  0
  4 39  1  0
  4 40  1  0
  5 41  1  6
  8 42  1  0
  8 43  1  0
  8 44  1  0
  9 45  1  0
  9 46  1  0
  9 47  1  0
 10 48  1  6
 11 49  1  0
 11 50  1  0
 12 51  1  0
 12 52  1  0
 14 53  1  0
 14 54  1  0
 14 55  1  0
 15 56  1  6
 16 57  1  0
 16 58  1  0
 17 59  1  0
 19 60  1  6
 20 61  1  0
 20 62  1  0
 21 63  1  0
 21 64  1  0
 22 65  1  1
 23 66  1  0
 25 67  1  0
 25 68  1  0
 25 69  1  0
 26 70  1  0
 26 71  1  0
 26 72  1  0
 28 73  1  0
 28 74  1  0
 28 75  1  0
 29 76  1  0
 29 77  1  0
 30 78  1  0
 30 79  1  0
 32 80  1  0
 32 81  1  0
 32 82  1  0
M  END
>  <meeko>  (10) 
{"is_sidechain": [false], "intermolecular_energy": 2.731, "internal_energy": -0.839}

$$$$
EPH_relaxed_0001_pdb2pqr_Repair_5_r2_0001_out
     RDKit          3D

 82 86  0  0  0  0  0  0  0  0999 V2000
   -2.3510    7.8900   -2.2820 C   0  0  0  0  0  0  0  0  0  0  0  0
   -2.1840    8.4410   -0.8640 C   0  0  2  0  0  0  0  0  0  0  0  0
   -3.5000    8.3870   -0.0610 C   0  0  0  0  0  0  0  0  0  0  0  0
   -4.7550    8.5130   -0.9290 C   0  0  0  0  0  0  0  0  0  0  0  0
   -5.5620    7.2500   -0.9230 C   0  0  2  0  0  0  0  0  0  0  0  0
   -5.6860    6.6130   -2.2010 O   0  0  0  0  0  0  0  0  0  0  0  0
   -6.9030    7.1110   -1.6200 C   0  0  0  0  0  0  0  0  0  0  0  0
   -7.5140    8.2520   -2.3720 C   0  0  0  0  0  0  0  0  0  0  0  0
   -7.8380    6.0340   -1.1640 C   0  0  0  0  0  0  0  0  0  0  0  0
   -1.6670    9.8740   -0.9200 C   0  0  1  0  0  0  0  0  0  0  0  0
   -1.2480   10.4130    0.4730 C   0  0  0  0  0  0  0  0  0  0  0  0
   -0.0310   11.3460    0.2440 C   0  0  0  0  0  0  0  0  0  0  0  0
    0.0030   11.5740   -1.2850 C   0  0  1  0  0  0  0  0  0  0  0  0
   -1.0590   12.6880   -1.5480 C   0  0  0  0  0  0  0  0  0  0  0  0
    1.3930   11.9460   -1.8970 C   0  0  2  0  0  0  0  0  0  0  0  0
    1.9940   13.2700   -1.3940 C   0  0  0  0  0  0  0  0  0  0  0  0
    1.6340   14.4780   -2.1940 C   0  0  0  0  0  0  0  0  0  0  0  0
    1.0960   14.4680   -3.4280 C   0  0  0  0  0  0  0  0  0  0  0  0
    0.8880   13.1500   -4.1850 C   0  0  1  0  0  0  0  0  0  0  0  0
    1.3990   13.3040   -5.6420 C   0  0  0  0  0  0  0  0  0  0  0  0
    0.7700   14.4950   -6.3590 C   0  0  0  0  0  0  0  0  0  0  0  0
    1.0480   15.7940   -5.6070 C   0  0  2  0  0  0  0  0  0  0  0  0
    2.4510   16.0700   -5.6660 O   0  0  0  0  0  0  0  0  0  0  0  0
    0.5850   15.7540   -4.1240 C   0  0  0  0  0  0  0  0  0  0  0  0
   -0.9620   15.7580   -4.0610 C   0  0  0  0  0  0  0  0  0  0  0  0
    1.0510   17.0690   -3.4420 C   0  0  0  0  0  0  0  0  0  0  0  0
    1.4540   11.8460   -3.4750 C   0  0  1  0  0  0  0  0  0  0  0  0
    2.9540   11.6430   -3.8510 C   0  0  0  0  0  0  0  0  0  0  0  0
    0.6850   10.5870   -4.0250 C   0  0  0  0  0  0  0  0  0  0  0  0
   -0.6200   10.2000   -3.3020 C   0  0  0  0  0  0  0  0  0  0  0  0
   -0.4110   10.1430   -1.7860 C   0  0  2  0  0  0  0  0  0  0  0  0
    0.6360    9.0160   -1.4890 C   0  0  0  0  0  0  0  0  0  0  0  0
   -2.6697    6.8384   -2.2316 H   0  0  0  0  0  0  0  0  0  0  0  0
   -3.1112    8.4783   -2.8168 H   0  0  0  0  0  0  0  0  0  0  0  0
   -1.3921    7.9573   -2.8168 H   0  0  0  0  0  0  0  0  0  0  0  0
   -1.4539    7.8024   -0.3452 H   0  0  0  0  0  0  0  0  0  0  0  0
   -3.5420    7.4263    0.4732 H   0  0  0  0  0  0  0  0  0  0  0  0
   -3.4947    9.2476    0.6241 H   0  0  0  0  0  0  0  0  0  0  0  0
   -5.3755    9.3344   -0.5415 H   0  0  0  0  0  0  0  0  0  0  0  0
   -4.4381    8.7126   -1.9633 H   0  0  0  0  0  0  0  0  0  0  0  0
   -5.2356    7.0181    0.1015 H   0  0  0  0  0  0  0  0  0  0  0  0
   -7.9096    8.9908   -1.6595 H   0  0  0  0  0  0  0  0  0  0  0  0
   -6.7489    8.7258   -3.0046 H   0  0  0  0  0  0  0  0  0  0  0  0
   -8.3325    7.8779   -3.0046 H   0  0  0  0  0  0  0  0  0  0  0  0
   -7.8599    6.0088   -0.0645 H   0  0  0  0  0  0  0  0  0  0  0  0
   -8.8487    6.2398   -1.5463 H   0  0  0  0  0  0  0  0  0  0  0  0
   -7.4923    5.0622   -1.5463 H   0  0  0  0  0  0  0  0  0  0  0  0
   -2.5434   10.3690   -1.3639 H   0  0  0  0  0  0  0  0  0  0  0  0
   -2.0771   10.9762    0.9263 H   0  0  0  0  0  0  0  0  0  0  0  0
   -0.9910    9.5887    1.1545 H   0  0  0  0  0  0  0  0  0  0  0  0
   -0.1669   12.2992    0.7759 H   0  0  0  0  0  0  0  0  0  0  0  0
    0.9057   10.9104    0.6219 H   0  0  0  0  0  0  0  0  0  0  0  0
   -1.4289   13.0760   -0.5875 H   0  0  0  0  0  0  0  0  0  0  0  0
   -0.5980   13.5061   -2.1209 H   0  0  0  0  0  0  0  0  0  0  0  0
   -1.8982   12.2667   -2.1209 H   0  0  0  0  0  0  0  0  0  0  0  0
    2.0447   11.1530   -1.5016 H   0  0  0  0  0  0  0  0  0  0  0  0
    1.6480   13.4301   -0.3622 H   0  0  0  0  0  0  0  0  0  0  0  0
    3.0852   13.1614   -1.4808 H   0  0  0  0  0  0  0  0  0  0  0  0
    1.8246   15.4599   -1.7361 H   0  0  0  0  0  0  0  0  0  0  0  0
   -0.1968   12.9680   -4.1867 H   0  0  0  0  0  0  0  0  0  0  0  0
    2.4902   13.4413   -5.6205 H   0  0  0  0  0  0  0  0  0  0  0  0
    1.1166   12.3949   -6.1931 H   0  0  0  0  0  0  0  0  0  0  0  0
    1.1914   14.5686   -7.3724 H   0  0  0  0  0  0  0  0  0  0  0  0
   -0.3184   14.3421   -6.4049 H   0  0  0  0  0  0  0  0  0  0  0  0
    0.4662   16.5893   -6.0959 H   0  0  0  0  0  0  0  0  0  0  0  0
    2.9200   15.2180   -5.6380 H   0  0  0  0  0  0  0  0  0  0  0  0
   -1.2862   15.7588   -3.0098 H   0  0  0  0  0  0  0  0  0  0  0  0
   -1.3471   16.6571   -4.5642 H   0  0  0  0  0  0  0  0  0  0  0  0
   -1.3518   14.8609   -4.5642 H   0  0  0  0  0  0  0  0  0  0  0  0
    1.0089   16.9502   -2.3492 H   0  0  0  0  0  0  0  0  0  0  0  0
    2.0837   17.2942   -3.7468 H   0  0  0  0  0  0  0  0  0  0  0  0
    0.3905   17.8941   -3.7468 H   0  0  0  0  0  0  0  0  0  0  0  0
    3.5544   11.5617   -2.9329 H   0  0  0  0  0  0  0  0  0  0  0  0
    3.0623   10.7220   -4.4426 H   0  0  0  0  0  0  0  0  0  0  0  0
    3.3032   12.5021   -4.4426 H   0  0  0  0  0  0  0  0  0  0  0  0
    0.4365   10.7827   -5.0785 H   0  0  0  0  0  0  0  0  0  0  0  0
    1.3668    9.7392   -3.8624 H   0  0  0  0  0  0  0  0  0  0  0  0
   -1.3934   10.9480   -3.5307 H   0  0  0  0  0  0  0  0  0  0  0  0
   -0.9319    9.2044   -3.6506 H   0  0  0  0  0  0  0  0  0  0  0  0
    0.7472    8.8963   -0.4012 H   0  0  0  0  0  0  0  0  0  0  0  0
    0.2899    8.0689   -1.9286 H   0  0  0  0  0  0  0  0  0  0  0  0
    1.6060    9.2915   -1.9286 H   0  0  0  0  0  0  0  0  0  0  0  0
  1  2  1  0
  2  3  1  0
  3  4  1  0
  4  5  1  0
  5  6  1  0
  6  7  1  0
  7  8  1  0
  7  9  1  0
  2 10  1  0
 10 11  1  0
 11 12  1  0
 12 13  1  0
 13 14  1  1
 13 15  1  0
 15 16  1  0
 16 17  1  0
 17 18  2  0
 18 19  1  0
 19 20  1  0
 20 21  1  0
 21 22  1  0
 22 23  1  0
 22 24  1  0
 24 25  1  0
 24 26  1  0
 19 27  1  0
 27 28  1  1
 27 29  1  0
 29 30  1  0
 30 31  1  0
 31 32  1  6
  7  5  1  0
 31 10  1  0
 31 13  1  0
 27 15  1  0
 24 18  1  0
  1 33  1  0
  1 34  1  0
  1 35  1  0
  2 36  1  1
  3 37  1  0
  3 38  1  0
  4 39  1  0
  4 40  1  0
  5 41  1  1
  8 42  1  0
  8 43  1  0
  8 44  1  0
  9 45  1  0
  9 46  1  0
  9 47  1  0
 10 48  1  6
 11 49  1  0
 11 50  1  0
 12 51  1  0
 12 52  1  0
 14 53  1  0
 14 54  1  0
 14 55  1  0
 15 56  1  1
 16 57  1  0
 16 58  1  0
 17 59  1  0
 19 60  1  6
 20 61  1  0
 20 62  1  0
 21 63  1  0
 21 64  1  0
 22 65  1  6
 23 66  1  0
 25 67  1  0
 25 68  1  0
 25 69  1  0
 26 70  1  0
 26 71  1  0
 26 72  1  0
 28 73  1  0
 28 74  1  0
 28 75  1  0
 29 76  1  0
 29 77  1  0
 30 78  1  0
 30 79  1  0
 32 80  1  0
 32 81  1  0
 32 82  1  0
M  END
>  <meeko>  (11) 
{"is_sidechain": [false], "intermolecular_energy": 2.731, "internal_energy": -0.839}

$$$$
EPH_relaxed_0001_pdb2pqr_Repair_5_r2_0001_out
     RDKit          3D

 82 86  0  0  0  0  0  0  0  0999 V2000
   -0.2030    9.3890   -2.3210 C   0  0  0  0  0  0  0  0  0  0  0  0
    0.9490   10.3090   -2.7330 C   0  0  2  0  0  0  0  0  0  0  0  0
    2.3030    9.5720   -2.7490 C   0  0  0  0  0  0  0  0  0  0  0  0
    3.2460   10.0410   -3.8610 C   0  0  0  0  0  0  0  0  0  0  0  0
    4.5580   10.5150   -3.3120 C   0  0  2  0  0  0  0  0  0  0  0  0
    4.9570   11.8180   -3.7560 O   0  0  0  0  0  0  0  0  0  0  0  0
    5.7950   10.7250   -4.1650 C   0  0  0  0  0  0  0  0  0  0  0  0
    5.7800   10.4640   -5.6380 C   0  0  0  0  0  0  0  0  0  0  0  0
    7.1350   10.7110   -3.4970 C   0  0  0  0  0  0  0  0  0  0  0  0
    1.0190   11.5070   -1.7930 C   0  0  1  0  0  0  0  0  0  0  0  0
    2.1200   11.3520   -0.7100 C   0  0  0  0  0  0  0  0  0  0  0  0
    2.6960   12.7690   -0.4530 C   0  0  0  0  0  0  0  0  0  0  0  0
    1.6960   13.7270   -1.1410 C   0  0  1  0  0  0  0  0  0  0  0  0
    0.5240   13.8820   -0.1220 C   0  0  0  0  0  0  0  0  0  0  0  0
    2.2630   15.1150   -1.5840 C   0  0  2  0  0  0  0  0  0  0  0  0
    2.7760   16.0070   -0.4390 C   0  0  0  0  0  0  0  0  0  0  0  0
    1.7610   16.9260    0.1560 C   0  0  0  0  0  0  0  0  0  0  0  0
    0.5730   17.2400   -0.3920 C   0  0  0  0  0  0  0  0  0  0  0  0
    0.1870   16.7250   -1.7850 C   0  0  1  0  0  0  0  0  0  0  0  0
   -0.3990   17.8910   -2.6230 C   0  0  0  0  0  0  0  0  0  0  0  0
   -1.5560   18.5940   -1.9200 C   0  0  0  0  0  0  0  0  0  0  0  0
   -1.1180   19.1420   -0.5650 C   0  0  2  0  0  0  0  0  0  0  0  0
   -0.1680   20.1910   -0.7770 O   0  0  0  0  0  0  0  0  0  0  0  0
   -0.5020   18.0590    0.3640 C   0  0  0  0  0  0  0  0  0  0  0  0
   -1.6110   17.0870    0.8380 C   0  0  0  0  0  0  0  0  0  0  0  0
    0.0260   18.7690    1.6400 C   0  0  0  0  0  0  0  0  0  0  0  0
    1.3150   15.9200   -2.5630 C   0  0  1  0  0  0  0  0  0  0  0  0
    2.2260   16.9090   -3.3520 C   0  0  0  0  0  0  0  0  0  0  0  0
    0.6350   14.9900   -3.6360 C   0  0  0  0  0  0  0  0  0  0  0  0
    0.2050   13.5870   -3.1670 C   0  0  0  0  0  0  0  0  0  0  0  0
    1.3440   12.8850   -2.4210 C   0  0  2  0  0  0  0  0  0  0  0  0
    2.5300   12.6960   -3.4270 C   0  0  0  0  0  0  0  0  0  0  0  0
   -0.2608    9.3428   -1.2235 H   0  0  0  0  0  0  0  0  0  0  0  0
   -1.1485    9.7833   -2.7217 H   0  0  0  0  0  0  0  0  0  0  0  0
   -0.0275    8.3797   -2.7217 H   0  0  0  0  0  0  0  0  0  0  0  0
    0.7480   10.6524   -3.7585 H   0  0  0  0  0  0  0  0  0  0  0  0
    2.7990    9.7358   -1.7809 H   0  0  0  0  0  0  0  0  0  0  0  0
    2.0885    8.5095   -2.9362 H   0  0  0  0  0  0  0  0  0  0  0  0
    3.4295    9.2032   -4.5497 H   0  0  0  0  0  0  0  0  0  0  0  0
    2.7684   10.8831   -4.3832 H   0  0  0  0  0  0  0  0  0  0  0  0
    4.3927    9.9619   -2.3756 H   0  0  0  0  0  0  0  0  0  0  0  0
    5.7177    9.3806   -5.8178 H   0  0  0  0  0  0  0  0  0  0  0  0
    4.9090   10.9613   -6.0896 H   0  0  0  0  0  0  0  0  0  0  0  0
    6.7023   10.8582   -6.0896 H   0  0  0  0  0  0  0  0  0  0  0  0
    7.0005   10.7124   -2.4053 H   0  0  0  0  0  0  0  0  0  0  0  0
    7.6851    9.8071   -3.7975 H   0  0  0  0  0  0  0  0  0  0  0  0
    7.7038   11.6033   -3.7975 H   0  0  0  0  0  0  0  0  0  0  0  0
   -0.0122   11.5023   -1.4100 H   0  0  0  0  0  0  0  0  0  0  0  0
    1.6865   10.9455    0.2157 H   0  0  0  0  0  0  0  0  0  0  0  0
    2.9073   10.6596   -1.0428 H   0  0  0  0  0  0  0  0  0  0  0  0
    2.7521   12.9756    0.6260 H   0  0  0  0  0  0  0  0  0  0  0  0
    3.7179   12.8813   -0.8443 H   0  0  0  0  0  0  0  0  0  0  0  0
    0.9199   13.8296    0.9029 H   0  0  0  0  0  0  0  0  0  0  0  0
    0.0308   14.8532   -0.2754 H   0  0  0  0  0  0  0  0  0  0  0  0
   -0.2047   13.0724   -0.2754 H   0  0  0  0  0  0  0  0  0  0  0  0
    3.1539   14.8311   -2.1633 H   0  0  0  0  0  0  0  0  0  0  0  0
    3.1515   15.3515    0.3606 H   0  0  0  0  0  0  0  0  0  0  0  0
    3.5505   16.6523   -0.8791 H   0  0  0  0  0  0  0  0  0  0  0  0
    2.0052   17.3856    1.1251 H   0  0  0  0  0  0  0  0  0  0  0  0
   -0.5841   15.9573   -1.6236 H   0  0  0  0  0  0  0  0  0  0  0  0
    0.3980   18.6255   -2.8106 H   0  0  0  0  0  0  0  0  0  0  0  0
   -0.7871   17.4658   -3.5603 H   0  0  0  0  0  0  0  0  0  0  0  0
   -1.9072   19.4258   -2.5484 H   0  0  0  0  0  0  0  0  0  0  0  0
   -2.3644   17.8655   -1.7597 H   0  0  0  0  0  0  0  0  0  0  0  0
   -2.0173   19.5177   -0.0550 H   0  0  0  0  0  0  0  0  0  0  0  0
    0.6330   19.7910   -1.1560 H   0  0  0  0  0  0  0  0  0  0  0  0
   -1.6349   17.0661    1.9375 H   0  0  0  0  0  0  0  0  0  0  0  0
   -2.5848   17.4278    0.4565 H   0  0  0  0  0  0  0  0  0  0  0  0
   -1.4009   16.0769    0.4565 H   0  0  0  0  0  0  0  0  0  0  0  0
   -0.3579   18.2528    2.5323 H   0  0  0  0  0  0  0  0  0  0  0  0
    1.1257   18.7426    1.6458 H   0  0  0  0  0  0  0  0  0  0  0  0
   -0.3157   19.8146    1.6458 H   0  0  0  0  0  0  0  0  0  0  0  0
    2.7958   17.5276   -2.6431 H   0  0  0  0  0  0  0  0  0  0  0  0
    2.9231   16.3401   -3.9848 H   0  0  0  0  0  0  0  0  0  0  0  0
    1.6019   17.5571   -3.9848 H   0  0  0  0  0  0  0  0  0  0  0  0
   -0.2632   15.5077   -4.0037 H   0  0  0  0  0  0  0  0  0  0  0  0
    1.4098   14.8141   -4.3968 H   0  0  0  0  0  0  0  0  0  0  0  0
   -0.6606   13.6819   -2.4949 H   0  0  0  0  0  0  0  0  0  0  0  0
   -0.0575   12.9870   -4.0508 H   0  0  0  0  0  0  0  0  0  0  0  0
    3.4652   12.5470   -2.8674 H   0  0  0  0  0  0  0  0  0  0  0  0
    2.3374   11.8172   -4.0600 H   0  0  0  0  0  0  0  0  0  0  0  0
    2.6201   13.5911   -4.0600 H   0  0  0  0  0  0  0  0  0  0  0  0
  1  2  1  0
  2  3  1  0
  3  4  1  0
  4  5  1  0
  5  6  1  0
  6  7  1  0
  7  8  1  0
  7  9  1  0
  2 10  1  0
 10 11  1  0
 11 12  1  0
 12 13  1  0
 13 14  1  1
 13 15  1  0
 15 16  1  0
 16 17  1  0
 17 18  2  0
 18 19  1  0
 19 20  1  0
 20 21  1  0
 21 22  1  0
 22 23  1  0
 22 24  1  0
 24 25  1  0
 24 26  1  0
 19 27  1  0
 27 28  1  6
 27 29  1  0
 29 30  1  0
 30 31  1  0
 31 32  1  6
  7  5  1  0
 31 10  1  0
 31 13  1  0
 27 15  1  0
 24 18  1  0
  1 33  1  0
  1 34  1  0
  1 35  1  0
  2 36  1  6
  3 37  1  0
  3 38  1  0
  4 39  1  0
  4 40  1  0
  5 41  1  1
  8 42  1  0
  8 43  1  0
  8 44  1  0
  9 45  1  0
  9 46  1  0
  9 47  1  0
 10 48  1  1
 11 49  1  0
 11 50  1  0
 12 51  1  0
 12 52  1  0
 14 53  1  0
 14 54  1  0
 14 55  1  0
 15 56  1  6
 16 57  1  0
 16 58  1  0
 17 59  1  0
 19 60  1  1
 20 61  1  0
 20 62  1  0
 21 63  1  0
 21 64  1  0
 22 65  1  1
 23 66  1  0
 25 67  1  0
 25 68  1  0
 25 69  1  0
 26 70  1  0
 26 71  1  0
 26 72  1  0
 28 73  1  0
 28 74  1  0
 28 75  1  0
 29 76  1  0
 29 77  1  0
 30 78  1  0
 30 79  1  0
 32 80  1  0
 32 81  1  0
 32 82  1  0
M  END
>  <meeko>  (12) 
{"is_sidechain": [false], "intermolecular_energy": 2.731, "internal_energy": -0.839}

$$$$
EPH_relaxed_0001_pdb2pqr_Repair_5_r2_0001_out
     RDKit          3D

 82 86  0  0  0  0  0  0  0  0999 V2000
    2.6340   18.4100   -3.3740 C   0  0  0  0  0  0  0  0  0  0  0  0
    2.0070   18.1470   -2.0020 C   0  0  2  0  0  0  0  0  0  0  0  0
    2.4620   19.1770   -0.9480 C   0  0  0  0  0  0  0  0  0  0  0  0
    1.5310   19.2690    0.2640 C   0  0  0  0  0  0  0  0  0  0  0  0
    0.2990   20.0650   -0.0420 C   0  0  2  0  0  0  0  0  0  0  0  0
   -0.6180   20.1940    1.0530 O   0  0  0  0  0  0  0  0  0  0  0  0
   -1.0940   19.4660   -0.0910 C   0  0  0  0  0  0  0  0  0  0  0  0
   -1.3270   18.0110    0.1690 C   0  0  0  0  0  0  0  0  0  0  0  0
   -2.1560   20.1850   -0.8640 C   0  0  0  0  0  0  0  0  0  0  0  0
    2.3510   16.7380   -1.5350 C   0  0  1  0  0  0  0  0  0  0  0  0
    3.1420   16.7270   -0.1990 C   0  0  0  0  0  0  0  0  0  0  0  0
    2.6810   15.4700    0.5830 C   0  0  0  0  0  0  0  0  0  0  0  0
    1.9000   14.6300   -0.4540 C   0  0  1  0  0  0  0  0  0  0  0  0
    2.9980   13.8750   -1.2670 C   0  0  0  0  0  0  0  0  0  0  0  0
    0.8290   13.6460    0.1200 C   0  0  2  0  0  0  0  0  0  0  0  0
    1.3830   12.5370    1.0310 C   0  0  0  0  0  0  0  0  0  0  0  0
    1.7650   11.2720    0.3360 C   0  0  0  0  0  0  0  0  0  0  0  0
    1.4060   10.9280   -0.9150 C   0  0  0  0  0  0  0  0  0  0  0  0
    0.4530   11.8100   -1.7320 C   0  0  1  0  0  0  0  0  0  0  0  0
   -0.6350   10.9230   -2.3930 C   0  0  0  0  0  0  0  0  0  0  0  0
   -0.0400    9.7860   -3.2180 C   0  0  0  0  0  0  0  0  0  0  0  0
    0.8550    8.8980   -2.3580 C   0  0  2  0  0  0  0  0  0  0  0  0
    0.0430    8.2220   -1.3930 O   0  0  0  0  0  0  0  0  0  0  0  0
    1.9830    9.6830   -1.6330 C   0  0  0  0  0  0  0  0  0  0  0  0
    3.0310   10.1620   -2.6680 C   0  0  0  0  0  0  0  0  0  0  0  0
    2.7230    8.6960   -0.6910 C   0  0  0  0  0  0  0  0  0  0  0  0
   -0.1610   13.0600   -0.9670 C   0  0  1  0  0  0  0  0  0  0  0  0
   -1.4550   12.6370   -0.2070 C   0  0  0  0  0  0  0  0  0  0  0  0
   -0.6000   14.1430   -2.0220 C   0  0  0  0  0  0  0  0  0  0  0  0
    0.4710   15.1610   -2.4600 C   0  0  0  0  0  0  0  0  0  0  0  0
    1.1710   15.7760   -1.2440 C   0  0  2  0  0  0  0  0  0  0  0  0
    0.0960   16.5610   -0.4180 C   0  0  0  0  0  0  0  0  0  0  0  0
    3.6410   18.8324   -3.2420 H   0  0  0  0  0  0  0  0  0  0  0  0
    2.7031   17.4650   -3.9328 H   0  0  0  0  0  0  0  0  0  0  0  0
    2.0083   19.1215   -3.9328 H   0  0  0  0  0  0  0  0  0  0  0  0
    0.9171   18.2468   -2.1120 H   0  0  0  0  0  0  0  0  0  0  0  0
    3.4645   18.8933   -0.5952 H   0  0  0  0  0  0  0  0  0  0  0  0
    2.4526   20.1626   -1.4364 H   0  0  0  0  0  0  0  0  0  0  0  0
    1.2337   18.2530    0.5630 H   0  0  0  0  0  0  0  0  0  0  0  0
    2.0738   19.7760    1.0753 H   0  0  0  0  0  0  0  0  0  0  0  0
    0.8552   20.6974   -0.7496 H   0  0  0  0  0  0  0  0  0  0  0  0
   -1.3556   17.8324    1.2540 H   0  0  0  0  0  0  0  0  0  0  0  0
   -2.2852   17.7075   -0.2779 H   0  0  0  0  0  0  0  0  0  0  0  0
   -0.5115   17.4235   -0.2779 H   0  0  0  0  0  0  0  0  0  0  0  0
   -2.8594   20.6612   -0.1650 H   0  0  0  0  0  0  0  0  0  0  0  0
   -1.6909   20.9547   -1.4974 H   0  0  0  0  0  0  0  0  0  0  0  0
   -2.6979   19.4673   -1.4974 H   0  0  0  0  0  0  0  0  0  0  0  0
    2.9154   16.3870   -2.4115 H   0  0  0  0  0  0  0  0  0  0  0  0
    4.2224   16.6738   -0.3988 H   0  0  0  0  0  0  0  0  0  0  0  0
    2.9533   17.6434    0.3794 H   0  0  0  0  0  0  0  0  0  0  0  0
    3.5479   14.9096    0.9631 H   0  0  0  0  0  0  0  0  0  0  0  0
    2.0677   15.7258    1.4596 H   0  0  0  0  0  0  0  0  0  0  0  0
    3.7010   13.3916   -0.5726 H   0  0  0  0  0  0  0  0  0  0  0  0
    2.5245   13.1106   -1.9006 H   0  0  0  0  0  0  0  0  0  0  0  0
    3.5423   14.5907   -1.9006 H   0  0  0  0  0  0  0  0  0  0  0  0
    0.2344   14.3004    0.7743 H   0  0  0  0  0  0  0  0  0  0  0  0
    2.2766   12.9290    1.5387 H   0  0  0  0  0  0  0  0  0  0  0  0
    0.5663   12.2717    1.7185 H   0  0  0  0  0  0  0  0  0  0  0  0
    2.3928   10.5611    0.8932 H   0  0  0  0  0  0  0  0  0  0  0  0
    1.0694   12.2856   -2.5090 H   0  0  0  0  0  0  0  0  0  0  0  0
   -1.2670   10.4920   -1.6025 H   0  0  0  0  0  0  0  0  0  0  0  0
   -1.2177   11.5607   -3.0740 H   0  0  0  0  0  0  0  0  0  0  0  0
   -0.8566    9.1781   -3.6346 H   0  0  0  0  0  0  0  0  0  0  0  0
    0.5679   10.2194   -4.0259 H   0  0  0  0  0  0  0  0  0  0  0  0
    1.3527    8.1831   -3.0297 H   0  0  0  0  0  0  0  0  0  0  0  0
    0.6330    7.8750   -0.7020 H   0  0  0  0  0  0  0  0  0  0  0  0
    3.9094   10.5635   -2.1415 H   0  0  0  0  0  0  0  0  0  0  0  0
    3.3373    9.3145   -3.2988 H   0  0  0  0  0  0  0  0  0  0  0  0
    2.5906   10.9482   -3.2988 H   0  0  0  0  0  0  0  0  0  0  0  0
    2.5202    8.9664    0.3558 H   0  0  0  0  0  0  0  0  0  0  0  0
    2.3680    7.6723   -0.8806 H   0  0  0  0  0  0  0  0  0  0  0  0
    3.8052    8.7498   -0.8806 H   0  0  0  0  0  0  0  0  0  0  0  0
   -1.2788   12.6946    0.8773 H   0  0  0  0  0  0  0  0  0  0  0  0
   -2.2786   13.3127   -0.4810 H   0  0  0  0  0  0  0  0  0  0  0  0
   -1.7205   11.6053   -0.4810 H   0  0  0  0  0  0  0  0  0  0  0  0
   -0.9415   13.6112   -2.9223 H   0  0  0  0  0  0  0  0  0  0  0  0
   -1.3743   14.7393   -1.5171 H   0  0  0  0  0  0  0  0  0  0  0  0
    1.2181   14.6509   -3.0857 H   0  0  0  0  0  0  0  0  0  0  0  0
   -0.0202   15.9657   -3.0268 H   0  0  0  0  0  0  0  0  0  0  0  0
    0.2860   16.4223    0.6565 H   0  0  0  0  0  0  0  0  0  0  0  0
    0.1532   17.6313   -0.6653 H   0  0  0  0  0  0  0  0  0  0  0  0
   -0.9061   16.1806   -0.6653 H   0  0  0  0  0  0  0  0  0  0  0  0
  1  2  1  0
  2  3  1  0
  3  4  1  0
  4  5  1  0
  5  6  1  0
  6  7  1  0
  7  8  1  0
  7  9  1  0
  2 10  1  0
 10 11  1  0
 11 12  1  0
 12 13  1  0
 13 14  1  6
 13 15  1  0
 15 16  1  0
 16 17  1  0
 17 18  2  0
 18 19  1  0
 19 20  1  0
 20 21  1  0
 21 22  1  0
 22 23  1  0
 22 24  1  0
 24 25  1  0
 24 26  1  0
 19 27  1  0
 27 28  1  1
 27 29  1  0
 29 30  1  0
 30 31  1  0
 31 32  1  1
  7  5  1  0
 31 10  1  0
 31 13  1  0
 27 15  1  0
 24 18  1  0
  1 33  1  0
  1 34  1  0
  1 35  1  0
  2 36  1  6
  3 37  1  0
  3 38  1  0
  4 39  1  0
  4 40  1  0
  5 41  1  6
  8 42  1  0
  8 43  1  0
  8 44  1  0
  9 45  1  0
  9 46  1  0
  9 47  1  0
 10 48  1  6
 11 49  1  0
 11 50  1  0
 12 51  1  0
 12 52  1  0
 14 53  1  0
 14 54  1  0
 14 55  1  0
 15 56  1  1
 16 57  1  0
 16 58  1  0
 17 59  1  0
 19 60  1  6
 20 61  1  0
 20 62  1  0
 21 63  1  0
 21 64  1  0
 22 65  1  6
 23 66  1  0
 25 67  1  0
 25 68  1  0
 25 69  1  0
 26 70  1  0
 26 71  1  0
 26 72  1  0
 28 73  1  0
 28 74  1  0
 28 75  1  0
 29 76  1  0
 29 77  1  0
 30 78  1  0
 30 79  1  0
 32 80  1  0
 32 81  1  0
 32 82  1  0
M  END
>  <meeko>  (13) 
{"is_sidechain": [false], "intermolecular_energy": 2.731, "internal_energy": -0.839}

$$$$
EPH_relaxed_0001_pdb2pqr_Repair_5_r2_0001_out
     RDKit          3D

 82 86  0  0  0  0  0  0  0  0999 V2000
    1.9930   10.8290   -5.0050 C   0  0  0  0  0  0  0  0  0  0  0  0
    1.2060   10.6860   -3.6990 C   0  0  2  0  0  0  0  0  0  0  0  0
    0.0230    9.7070   -3.8380 C   0  0  0  0  0  0  0  0  0  0  0  0
    0.0130    8.5990   -2.7810 C   0  0  0  0  0  0  0  0  0  0  0  0
   -0.0800    9.1580   -1.3940 C   0  0  2  0  0  0  0  0  0  0  0  0
   -0.3830    8.1920   -0.3780 O   0  0  0  0  0  0  0  0  0  0  0  0
   -1.3710    9.2120   -0.5990 C   0  0  0  0  0  0  0  0  0  0  0  0
   -2.6580    8.6990   -1.1650 C   0  0  0  0  0  0  0  0  0  0  0  0
   -1.4810   10.1970    0.5230 C   0  0  0  0  0  0  0  0  0  0  0  0
    0.7010   12.0510   -3.2450 C   0  0  1  0  0  0  0  0  0  0  0  0
   -0.7960   12.0290   -2.8390 C   0  0  0  0  0  0  0  0  0  0  0  0
   -0.9560   13.0290   -1.6640 C   0  0  0  0  0  0  0  0  0  0  0  0
    0.3670   13.8310   -1.6530 C   0  0  1  0  0  0  0  0  0  0  0  0
    0.1910   14.9130   -2.7640 C   0  0  0  0  0  0  0  0  0  0  0  0
    0.7760   14.4690   -0.2850 C   0  0  2  0  0  0  0  0  0  0  0  0
   -0.2030   15.5220    0.2630 C   0  0  0  0  0  0  0  0  0  0  0  0
    0.0720   16.9280   -0.1560 C   0  0  0  0  0  0  0  0  0  0  0  0
    1.2200   17.3710   -0.7030 C   0  0  0  0  0  0  0  0  0  0  0  0
    2.4290   16.4390   -0.8600 C   0  0  1  0  0  0  0  0  0  0  0  0
    3.7090   17.1640   -0.3690 C   0  0  0  0  0  0  0  0  0  0  0  0
    3.9180   18.5110   -1.0540 C   0  0  0  0  0  0  0  0  0  0  0  0
    2.7210   19.4300   -0.8260 C   0  0  2  0  0  0  0  0  0  0  0  0
    2.6560   19.7670    0.5630 O   0  0  0  0  0  0  0  0  0  0  0  0
    1.3720   18.8020   -1.2740 C   0  0  0  0  0  0  0  0  0  0  0  0
    1.3260   18.7150   -2.8200 C   0  0  0  0  0  0  0  0  0  0  0  0
    0.2320   19.7720   -0.8610 C   0  0  0  0  0  0  0  0  0  0  0  0
    2.2710   14.9870   -0.2330 C   0  0  1  0  0  0  0  0  0  0  0  0
    2.6820   15.0090    1.2710 C   0  0  0  0  0  0  0  0  0  0  0  0
    3.2700   14.0050   -0.9510 C   0  0  0  0  0  0  0  0  0  0  0  0
    2.7640   13.3140   -2.2320 C   0  0  0  0  0  0  0  0  0  0  0  0
    1.3850   12.6860   -2.0090 C   0  0  2  0  0  0  0  0  0  0  0  0
    1.5360   11.5780   -0.9110 C   0  0  0  0  0  0  0  0  0  0  0  0
    3.0516   11.0213   -4.7760 H   0  0  0  0  0  0  0  0  0  0  0  0
    1.9069    9.9005   -5.5885 H   0  0  0  0  0  0  0  0  0  0  0  0
    1.5858   11.6679   -5.5885 H   0  0  0  0  0  0  0  0  0  0  0  0
    1.8903   10.2719   -2.9439 H   0  0  0  0  0  0  0  0  0  0  0  0
   -0.9128   10.2786   -3.7507 H   0  0  0  0  0  0  0  0  0  0  0  0
    0.1255    9.2162   -4.8171 H   0  0  0  0  0  0  0  0  0  0  0  0
   -0.8519    7.9433   -2.9599 H   0  0  0  0  0  0  0  0  0  0  0  0
    0.9559    8.0384   -2.8626 H   0  0  0  0  0  0  0  0  0  0  0  0
    0.6762    9.9224   -1.6259 H   0  0  0  0  0  0  0  0  0  0  0  0
   -3.3376    8.4281   -0.3436 H   0  0  0  0  0  0  0  0  0  0  0  0
   -3.1237    9.4802   -1.7837 H   0  0  0  0  0  0  0  0  0  0  0  0
   -2.4586    7.8116   -1.7837 H   0  0  0  0  0  0  0  0  0  0  0  0
   -1.4217    9.6658    1.4844 H   0  0  0  0  0  0  0  0  0  0  0  0
   -0.6585   10.9242    0.4545 H   0  0  0  0  0  0  0  0  0  0  0  0
   -2.4437   10.7248    0.4545 H   0  0  0  0  0  0  0  0  0  0  0  0
    0.9280   12.6411   -4.1451 H   0  0  0  0  0  0  0  0  0  0  0  0
   -1.4233   12.3386   -3.6879 H   0  0  0  0  0  0  0  0  0  0  0  0
   -1.1098   11.0174   -2.5421 H   0  0  0  0  0  0  0  0  0  0  0  0
   -1.8135   13.6963   -1.8357 H   0  0  0  0  0  0  0  0  0  0  0  0
   -1.1448   12.5216   -0.7065 H   0  0  0  0  0  0  0  0  0  0  0  0
    0.0311   15.8958   -2.2966 H   0  0  0  0  0  0  0  0  0  0  0  0
    1.0954   14.9471   -3.3892 H   0  0  0  0  0  0  0  0  0  0  0  0
   -0.6776   14.6587   -3.3892 H   0  0  0  0  0  0  0  0  0  0  0  0
    0.7100   13.6136    0.4034 H   0  0  0  0  0  0  0  0  0  0  0  0
   -1.2141   15.2569   -0.0797 H   0  0  0  0  0  0  0  0  0  0  0  0
   -0.0892   15.5029    1.3569 H   0  0  0  0  0  0  0  0  0  0  0  0
   -0.7310   17.6645   -0.0052 H   0  0  0  0  0  0  0  0  0  0  0  0
    2.5109   16.2256   -1.9360 H   0  0  0  0  0  0  0  0  0  0  0  0
    3.6267   17.3290    0.7154 H   0  0  0  0  0  0  0  0  0  0  0  0
    4.5700   16.5261   -0.6175 H   0  0  0  0  0  0  0  0  0  0  0  0
    4.8208   18.9872   -0.6440 H   0  0  0  0  0  0  0  0  0  0  0  0
    4.0299   18.3417   -2.1351 H   0  0  0  0  0  0  0  0  0  0  0  0
    2.8713   20.3262   -1.4459 H   0  0  0  0  0  0  0  0  0  0  0  0
    3.1320   20.6070    0.6850 H   0  0  0  0  0  0  0  0  0  0  0  0
    0.8313   17.7794   -3.1200 H   0  0  0  0  0  0  0  0  0  0  0  0
    0.7630   19.5717   -3.2189 H   0  0  0  0  0  0  0  0  0  0  0  0
    2.3510   18.7321   -3.2189 H   0  0  0  0  0  0  0  0  0  0  0  0
    0.1729   19.8223    0.2363 H   0  0  0  0  0  0  0  0  0  0  0  0
    0.4398   20.7745   -1.2633 H   0  0  0  0  0  0  0  0  0  0  0  0
   -0.7243   19.4064   -1.2633 H   0  0  0  0  0  0  0  0  0  0  0  0
    1.7798   14.9607    1.8984 H   0  0  0  0  0  0  0  0  0  0  0  0
    3.3261   14.1440    1.4878 H   0  0  0  0  0  0  0  0  0  0  0  0
    3.2301   15.9378    1.4878 H   0  0  0  0  0  0  0  0  0  0  0  0
    4.1694   14.5802   -1.2161 H   0  0  0  0  0  0  0  0  0  0  0  0
    3.4397   13.1901   -0.2319 H   0  0  0  0  0  0  0  0  0  0  0  0
    2.6939   14.0586   -3.0386 H   0  0  0  0  0  0  0  0  0  0  0  0
    3.4721   12.5172   -2.5034 H   0  0  0  0  0  0  0  0  0  0  0  0
    1.4732   12.0387    0.0859 H   0  0  0  0  0  0  0  0  0  0  0  0
    0.7305   10.8375   -1.0241 H   0  0  0  0  0  0  0  0  0  0  0  0
    2.5103   11.0801   -1.0241 H   0  0  0  0  0  0  0  0  0  0  0  0
  1  2  1  0
  2  3  1  0
  3  4  1  0
  4  5  1  0
  5  6  1  0
  6  7  1  0
  7  8  1  0
  7  9  1  0
  2 10  1  0
 10 11  1  0
 11 12  1  0
 12 13  1  0
 13 14  1  6
 13 15  1  0
 15 16  1  0
 16 17  1  0
 17 18  2  0
 18 19  1  0
 19 20  1  0
 20 21  1  0
 21 22  1  0
 22 23  1  0
 22 24  1  0
 24 25  1  0
 24 26  1  0
 19 27  1  0
 27 28  1  1
 27 29  1  0
 29 30  1  0
 30 31  1  0
 31 32  1  1
  7  5  1  0
 31 10  1  0
 31 13  1  0
 27 15  1  0
 24 18  1  0
  1 33  1  0
  1 34  1  0
  1 35  1  0
  2 36  1  1
  3 37  1  0
  3 38  1  0
  4 39  1  0
  4 40  1  0
  5 41  1  1
  8 42  1  0
  8 43  1  0
  8 44  1  0
  9 45  1  0
  9 46  1  0
  9 47  1  0
 10 48  1  6
 11 49  1  0
 11 50  1  0
 12 51  1  0
 12 52  1  0
 14 53  1  0
 14 54  1  0
 14 55  1  0
 15 56  1  1
 16 57  1  0
 16 58  1  0
 17 59  1  0
 19 60  1  6
 20 61  1  0
 20 62  1  0
 21 63  1  0
 21 64  1  0
 22 65  1  6
 23 66  1  0
 25 67  1  0
 25 68  1  0
 25 69  1  0
 26 70  1  0
 26 71  1  0
 26 72  1  0
 28 73  1  0
 28 74  1  0
 28 75  1  0
 29 76  1  0
 29 77  1  0
 30 78  1  0
 30 79  1  0
 32 80  1  0
 32 81  1  0
 32 82  1  0
M  END
>  <meeko>  (14) 
{"is_sidechain": [false], "intermolecular_energy": 2.731, "internal_energy": -0.839}

$$$$
EPH_relaxed_0001_pdb2pqr_Repair_5_r2_0001_out
     RDKit          3D

 82 86  0  0  0  0  0  0  0  0999 V2000
    0.9140   20.0740   -2.0390 C   0  0  0  0  0  0  0  0  0  0  0  0
    0.2780   18.9020   -1.2860 C   0  0  2  0  0  0  0  0  0  0  0  0
    0.3860   19.0670    0.2430 C   0  0  0  0  0  0  0  0  0  0  0  0
    1.5910   19.9010    0.6880 C   0  0  0  0  0  0  0  0  0  0  0  0
    2.3070   19.2680    1.8430 C   0  0  2  0  0  0  0  0  0  0  0  0
    2.8400   20.1940    2.7980 O   0  0  0  0  0  0  0  0  0  0  0  0
    3.8000   19.4030    2.0780 C   0  0  0  0  0  0  0  0  0  0  0  0
    4.6670   20.1940    1.1490 C   0  0  0  0  0  0  0  0  0  0  0  0
    4.4880   18.3750    2.9210 C   0  0  0  0  0  0  0  0  0  0  0  0
    0.9300   17.5930   -1.7160 C   0  0  1  0  0  0  0  0  0  0  0  0
    2.4660   17.7210   -1.8940 C   0  0  0  0  0  0  0  0  0  0  0  0
    3.0820   16.3700   -1.4470 C   0  0  0  0  0  0  0  0  0  0  0  0
    1.8760   15.4060   -1.3460 C   0  0  1  0  0  0  0  0  0  0  0  0
    1.6080   14.9440   -2.8130 C   0  0  0  0  0  0  0  0  0  0  0  0
    2.0430   14.1890   -0.3790 C   0  0  2  0  0  0  0  0  0  0  0  0
    3.1660   13.2070   -0.7540 C   0  0  0  0  0  0  0  0  0  0  0  0
    2.7570   12.0820   -1.6460 C   0  0  0  0  0  0  0  0  0  0  0  0
    1.4900   11.7040   -1.8980 C   0  0  0  0  0  0  0  0  0  0  0  0
    0.3110   12.3730   -1.1790 C   0  0  1  0  0  0  0  0  0  0  0  0
   -0.6670   11.2840   -0.6660 C   0  0  0  0  0  0  0  0  0  0  0  0
   -1.1200   10.3360   -1.7720 C   0  0  0  0  0  0  0  0  0  0  0  0
    0.0760    9.6460   -2.4230 C   0  0  2  0  0  0  0  0  0  0  0  0
    0.6850    8.7760   -1.4640 O   0  0  0  0  0  0  0  0  0  0  0  0
    1.1360   10.6440   -2.9700 C   0  0  0  0  0  0  0  0  0  0  0  0
    0.5680   11.3780   -4.2100 C   0  0  0  0  0  0  0  0  0  0  0  0
    2.3520    9.8210   -3.4720 C   0  0  0  0  0  0  0  0  0  0  0  0
    0.6940   13.4290   -0.0550 C   0  0  1  0  0  0  0  0  0  0  0  0
    0.9080   12.7010    1.3070 C   0  0  0  0  0  0  0  0  0  0  0  0
   -0.5150   14.4170    0.1540 C   0  0  0  0  0  0  0  0  0  0  0  0
   -0.5590   15.6620   -0.7510 C   0  0  0  0  0  0  0  0  0  0  0  0
    0.7930   16.3830   -0.7590 C   0  0  2  0  0  0  0  0  0  0  0  0
    1.0790   16.8790    0.6990 C   0  0  0  0  0  0  0  0  0  0  0  0
    1.3095   20.8028   -1.3162 H   0  0  0  0  0  0  0  0  0  0  0  0
    1.7341   19.7021   -2.6708 H   0  0  0  0  0  0  0  0  0  0  0  0
    0.1553   20.5589   -2.6708 H   0  0  0  0  0  0  0  0  0  0  0  0
   -0.7918   18.8861   -1.5414 H   0  0  0  0  0  0  0  0  0  0  0  0
   -0.5292   19.5583    0.6049 H   0  0  0  0  0  0  0  0  0  0  0  0
    0.5172   18.0604    0.6668 H   0  0  0  0  0  0  0  0  0  0  0  0
    2.2900   19.9961   -0.1560 H   0  0  0  0  0  0  0  0  0  0  0  0
    1.2255   20.8873    1.0099 H   0  0  0  0  0  0  0  0  0  0  0  0
    1.6425   18.3923    1.8045 H   0  0  0  0  0  0  0  0  0  0  0  0
    5.3549   20.8216    1.7346 H   0  0  0  0  0  0  0  0  0  0  0  0
    5.2470   19.5074    0.5148 H   0  0  0  0  0  0  0  0  0  0  0  0
    4.0363   20.8344    0.5148 H   0  0  0  0  0  0  0  0  0  0  0  0
    4.3317   18.6086    3.9845 H   0  0  0  0  0  0  0  0  0  0  0  0
    4.0725   17.3810    2.6990 H   0  0  0  0  0  0  0  0  0  0  0  0
    5.5654   18.3800    2.6990 H   0  0  0  0  0  0  0  0  0  0  0  0
    0.3702   17.4040   -2.6438 H   0  0  0  0  0  0  0  0  0  0  0  0
    2.7101   17.9183   -2.9483 H   0  0  0  0  0  0  0  0  0  0  0  0
    2.8649   18.5540   -1.2965 H   0  0  0  0  0  0  0  0  0  0  0  0
    3.8069   16.0085   -2.1912 H   0  0  0  0  0  0  0  0  0  0  0  0
    3.6291   16.4550   -0.4965 H   0  0  0  0  0  0  0  0  0  0  0  0
    1.0561   13.9925   -2.8027 H   0  0  0  0  0  0  0  0  0  0  0  0
    1.0127   15.7076   -3.3349 H   0  0  0  0  0  0  0  0  0  0  0  0
    2.5664   14.8063   -3.3349 H   0  0  0  0  0  0  0  0  0  0  0  0
    2.3687   14.6720    0.5541 H   0  0  0  0  0  0  0  0  0  0  0  0
    3.9579   13.7749   -1.2643 H   0  0  0  0  0  0  0  0  0  0  0  0
    3.4936   12.7446    0.1888 H   0  0  0  0  0  0  0  0  0  0  0  0
    3.5593   11.5136   -2.1393 H   0  0  0  0  0  0  0  0  0  0  0  0
   -0.1899   12.9992   -1.9320 H   0  0  0  0  0  0  0  0  0  0  0  0
   -0.1628   10.6977    0.1163 H   0  0  0  0  0  0  0  0  0  0  0  0
   -1.5605   11.7944   -0.2772 H   0  0  0  0  0  0  0  0  0  0  0  0
   -1.7856    9.5730   -1.3420 H   0  0  0  0  0  0  0  0  0  0  0  0
   -1.6493   10.9196   -2.5397 H   0  0  0  0  0  0  0  0  0  0  0  0
   -0.3002    9.0815   -3.2889 H   0  0  0  0  0  0  0  0  0  0  0  0
    0.7330    7.8890   -1.8600 H   0  0  0  0  0  0  0  0  0  0  0  0
   -0.0746   12.2084   -3.8821 H   0  0  0  0  0  0  0  0  0  0  0  0
    1.3979   11.7731   -4.8143 H   0  0  0  0  0  0  0  0  0  0  0  0
   -0.0227   10.6738   -4.8143 H   0  0  0  0  0  0  0  0  0  0  0  0
    2.9172    9.4385   -2.6093 H   0  0  0  0  0  0  0  0  0  0  0  0
    1.9970    8.9768   -4.0813 H   0  0  0  0  0  0  0  0  0  0  0  0
    3.0038   10.4644   -4.0813 H   0  0  0  0  0  0  0  0  0  0  0  0
    0.7028   13.3990    2.1320 H   0  0  0  0  0  0  0  0  0  0  0  0
    0.2244   11.8419    1.3749 H   0  0  0  0  0  0  0  0  0  0  0  0
    1.9478   12.3485    1.3749 H   0  0  0  0  0  0  0  0  0  0  0  0
   -1.4418   13.8493   -0.0158 H   0  0  0  0  0  0  0  0  0  0  0  0
   -0.3940   14.8077    1.1751 H   0  0  0  0  0  0  0  0  0  0  0  0
   -0.8077   15.3524   -1.7768 H   0  0  0  0  0  0  0  0  0  0  0  0
   -1.3218   16.3519   -0.3611 H   0  0  0  0  0  0  0  0  0  0  0  0
    0.6637   16.1588    1.4194 H   0  0  0  0  0  0  0  0  0  0  0  0
    2.1651   16.9646    0.8508 H   0  0  0  0  0  0  0  0  0  0  0  0
    0.6090   17.8619    0.8508 H   0  0  0  0  0  0  0  0  0  0  0  0
  1  2  1  0
  2  3  1  0
  3  4  1  0
  4  5  1  0
  5  6  1  0
  6  7  1  0
  7  8  1  0
  7  9  1  0
  2 10  1  0
 10 11  1  0
 11 12  1  0
 12 13  1  0
 13 14  1  6
 13 15  1  0
 15 16  1  0
 16 17  1  0
 17 18  2  0
 18 19  1  0
 19 20  1  0
 20 21  1  0
 21 22  1  0
 22 23  1  0
 22 24  1  0
 24 25  1  0
 24 26  1  0
 19 27  1  0
 27 28  1  1
 27 29  1  0
 29 30  1  0
 30 31  1  0
 31 32  1  1
  7  5  1  0
 31 10  1  0
 31 13  1  0
 27 15  1  0
 24 18  1  0
  1 33  1  0
  1 34  1  0
  1 35  1  0
  2 36  1  1
  3 37  1  0
  3 38  1  0
  4 39  1  0
  4 40  1  0
  5 41  1  1
  8 42  1  0
  8 43  1  0
  8 44  1  0
  9 45  1  0
  9 46  1  0
  9 47  1  0
 10 48  1  6
 11 49  1  0
 11 50  1  0
 12 51  1  0
 12 52  1  0
 14 53  1  0
 14 54  1  0
 14 55  1  0
 15 56  1  1
 16 57  1  0
 16 58  1  0
 17 59  1  0
 19 60  1  6
 20 61  1  0
 20 62  1  0
 21 63  1  0
 21 64  1  0
 22 65  1  6
 23 66  1  0
 25 67  1  0
 25 68  1  0
 25 69  1  0
 26 70  1  0
 26 71  1  0
 26 72  1  0
 28 73  1  0
 28 74  1  0
 28 75  1  0
 29 76  1  0
 29 77  1  0
 30 78  1  0
 30 79  1  0
 32 80  1  0
 32 81  1  0
 32 82  1  0
M  END
>  <meeko>  (15) 
{"is_sidechain": [false], "intermolecular_energy": 2.731, "internal_energy": -0.839}

$$$$
EPH_relaxed_0001_pdb2pqr_Repair_5_r2_0001_out
     RDKit          3D

 82 86  0  0  0  0  0  0  0  0999 V2000
    0.8640   14.8260   -2.6070 C   0  0  0  0  0  0  0  0  0  0  0  0
    1.1550   14.1400   -3.9450 C   0  0  2  0  0  0  0  0  0  0  0  0
    0.4780   14.8630   -5.1270 C   0  0  0  0  0  0  0  0  0  0  0  0
    1.1550   14.6050   -6.4760 C   0  0  0  0  0  0  0  0  0  0  0  0
    0.8790   15.7060   -7.4550 C   0  0  2  0  0  0  0  0  0  0  0  0
    0.3780   15.2670   -8.7240 O   0  0  0  0  0  0  0  0  0  0  0  0
    1.6660   15.9020   -8.7370 C   0  0  0  0  0  0  0  0  0  0  0  0
    2.7920   14.9890   -9.1090 C   0  0  0  0  0  0  0  0  0  0  0  0
    1.6640   17.2550   -9.3780 C   0  0  0  0  0  0  0  0  0  0  0  0
    0.7000   12.6870   -3.8940 C   0  0  1  0  0  0  0  0  0  0  0  0
    1.8380   11.6920   -4.2470 C   0  0  0  0  0  0  0  0  0  0  0  0
    1.6170   10.4310   -3.3720 C   0  0  0  0  0  0  0  0  0  0  0  0
    0.1920   10.6000   -2.7970 C   0  0  1  0  0  0  0  0  0  0  0  0
   -0.7610   10.1280   -3.9400 C   0  0  0  0  0  0  0  0  0  0  0  0
   -0.1050    9.8560   -1.4550 C   0  0  2  0  0  0  0  0  0  0  0  0
   -0.0020    8.3220   -1.5230 C   0  0  0  0  0  0  0  0  0  0  0  0
   -1.2680    7.6120   -1.8700 C   0  0  0  0  0  0  0  0  0  0  0  0
   -2.5010    8.1520   -1.8390 C   0  0  0  0  0  0  0  0  0  0  0  0
   -2.7220    9.5820   -1.3300 C   0  0  1  0  0  0  0  0  0  0  0  0
   -3.9240    9.6020   -0.3490 C   0  0  0  0  0  0  0  0  0  0  0  0
   -5.1860    8.9980   -0.9570 C   0  0  0  0  0  0  0  0  0  0  0  0
   -4.9420    7.5570   -1.3980 C   0  0  2  0  0  0  0  0  0  0  0  0
   -4.7110    6.7530   -0.2370 O   0  0  0  0  0  0  0  0  0  0  0  0
   -3.7480    7.4110   -2.3810 C   0  0  0  0  0  0  0  0  0  0  0  0
   -4.1230    8.0280   -3.7510 C   0  0  0  0  0  0  0  0  0  0  0  0
   -3.5210    5.8960   -2.6360 C   0  0  0  0  0  0  0  0  0  0  0  0
   -1.4400   10.3140   -0.7400 C   0  0  1  0  0  0  0  0  0  0  0  0
   -1.2780    9.9680    0.7710 C   0  0  0  0  0  0  0  0  0  0  0  0
   -1.6570   11.8720   -0.8190 C   0  0  0  0  0  0  0  0  0  0  0  0
   -1.2330   12.5670   -2.1270 C   0  0  0  0  0  0  0  0  0  0  0  0
    0.1830   12.1500   -2.5360 C   0  0  2  0  0  0  0  0  0  0  0  0
    1.1660   12.6320   -1.4150 C   0  0  0  0  0  0  0  0  0  0  0  0
    1.1482   14.1561   -1.7821 H   0  0  0  0  0  0  0  0  0  0  0  0
    1.4442   15.7580   -2.5390 H   0  0  0  0  0  0  0  0  0  0  0  0
   -0.2094   15.0566   -2.5390 H   0  0  0  0  0  0  0  0  0  0  0  0
    2.2417   14.1834   -4.1098 H   0  0  0  0  0  0  0  0  0  0  0  0
   -0.5656   14.5213   -5.1913 H   0  0  0  0  0  0  0  0  0  0  0  0
    0.5550   15.9425   -4.9301 H   0  0  0  0  0  0  0  0  0  0  0  0
    2.2414   14.5300   -6.3210 H   0  0  0  0  0  0  0  0  0  0  0  0
    0.7500   13.6695   -6.8893 H   0  0  0  0  0  0  0  0  0  0  0  0
    0.6118   16.3953   -6.6404 H   0  0  0  0  0  0  0  0  0  0  0  0
    3.2681   14.6030   -8.1956 H   0  0  0  0  0  0  0  0  0  0  0  0
    2.4021   14.1489   -9.7024 H   0  0  0  0  0  0  0  0  0  0  0  0
    3.5334   15.5441   -9.7024 H   0  0  0  0  0  0  0  0  0  0  0  0
    1.6629   18.0304   -8.5978 H   0  0  0  0  0  0  0  0  0  0  0  0
    2.5620   17.3657  -10.0036 H   0  0  0  0  0  0  0  0  0  0  0  0
    0.7657   17.3630  -10.0036 H   0  0  0  0  0  0  0  0  0  0  0  0
   -0.1244   12.7270   -4.6212 H   0  0  0  0  0  0  0  0  0  0  0  0
    1.7914   11.4261   -5.3134 H   0  0  0  0  0  0  0  0  0  0  0  0
    2.8255   12.1373   -4.0558 H   0  0  0  0  0  0  0  0  0  0  0  0
    1.6837    9.5183   -3.9823 H   0  0  0  0  0  0  0  0  0  0  0  0
    2.3765   10.3329   -2.5823 H   0  0  0  0  0  0  0  0  0  0  0  0
   -1.6652    9.6802   -3.5020 H   0  0  0  0  0  0  0  0  0  0  0  0
   -1.0432   10.9905   -4.5617 H   0  0  0  0  0  0  0  0  0  0  0  0
   -0.2460    9.3808   -4.5617 H   0  0  0  0  0  0  0  0  0  0  0  0
    0.7275   10.1841   -0.8153 H   0  0  0  0  0  0  0  0  0  0  0  0
    0.7507    8.0654   -2.2830 H   0  0  0  0  0  0  0  0  0  0  0  0
    0.2644    7.9900   -0.5087 H   0  0  0  0  0  0  0  0  0  0  0  0
   -1.1870    6.5588   -2.1769 H   0  0  0  0  0  0  0  0  0  0  0  0
   -2.9544   10.1887   -2.2177 H   0  0  0  0  0  0  0  0  0  0  0  0
   -3.6554    9.0269    0.5494 H   0  0  0  0  0  0  0  0  0  0  0  0
   -4.1401   10.6532   -0.1075 H   0  0  0  0  0  0  0  0  0  0  0  0
   -5.9904    9.0138   -0.2069 H   0  0  0  0  0  0  0  0  0  0  0  0
   -5.4707    9.5919   -1.8380 H   0  0  0  0  0  0  0  0  0  0  0  0
   -5.8377    7.2220   -1.9416 H   0  0  0  0  0  0  0  0  0  0  0  0
   -5.4170    6.0860   -0.1960 H   0  0  0  0  0  0  0  0  0  0  0  0
   -4.6883    8.9581   -3.5918 H   0  0  0  0  0  0  0  0  0  0  0  0
   -3.2060    8.2486   -4.3171 H   0  0  0  0  0  0  0  0  0  0  0  0
   -4.7410    7.3156   -4.3171 H   0  0  0  0  0  0  0  0  0  0  0  0
   -3.4422    5.3699   -1.6732 H   0  0  0  0  0  0  0  0  0  0  0  0
   -4.3683    5.4894   -3.2077 H   0  0  0  0  0  0  0  0  0  0  0  0
   -2.5918    5.7556   -3.2077 H   0  0  0  0  0  0  0  0  0  0  0  0
   -1.6662   10.7972    1.3807 H   0  0  0  0  0  0  0  0  0  0  0  0
   -1.8401    9.0505    0.9994 H   0  0  0  0  0  0  0  0  0  0  0  0
   -0.2133    9.8122    0.9994 H   0  0  0  0  0  0  0  0  0  0  0  0
   -2.7296   12.0665   -0.6714 H   0  0  0  0  0  0  0  0  0  0  0  0
   -1.0009   12.2937   -0.0433 H   0  0  0  0  0  0  0  0  0  0  0  0
   -1.9352   12.2882   -2.9265 H   0  0  0  0  0  0  0  0  0  0  0  0
   -1.2451   13.6550   -1.9657 H   0  0  0  0  0  0  0  0  0  0  0  0
    0.7298   12.4181   -0.4281 H   0  0  0  0  0  0  0  0  0  0  0  0
    2.1245   12.1017   -1.5150 H   0  0  0  0  0  0  0  0  0  0  0  0
    1.3337   13.7145   -1.5150 H   0  0  0  0  0  0  0  0  0  0  0  0
  1  2  1  0
  2  3  1  0
  3  4  1  0
  4  5  1  0
  5  6  1  0
  6  7  1  0
  7  8  1  0
  7  9  1  0
  2 10  1  0
 10 11  1  0
 11 12  1  0
 12 13  1  0
 13 14  1  6
 13 15  1  0
 15 16  1  0
 16 17  1  0
 17 18  2  0
 18 19  1  0
 19 20  1  0
 20 21  1  0
 21 22  1  0
 22 23  1  0
 22 24  1  0
 24 25  1  0
 24 26  1  0
 19 27  1  0
 27 28  1  1
 27 29  1  0
 29 30  1  0
 30 31  1  0
 31 32  1  1
  7  5  1  0
 31 10  1  0
 31 13  1  0
 27 15  1  0
 24 18  1  0
  1 33  1  0
  1 34  1  0
  1 35  1  0
  2 36  1  6
  3 37  1  0
  3 38  1  0
  4 39  1  0
  4 40  1  0
  5 41  1  1
  8 42  1  0
  8 43  1  0
  8 44  1  0
  9 45  1  0
  9 46  1  0
  9 47  1  0
 10 48  1  6
 11 49  1  0
 11 50  1  0
 12 51  1  0
 12 52  1  0
 14 53  1  0
 14 54  1  0
 14 55  1  0
 15 56  1  1
 16 57  1  0
 16 58  1  0
 17 59  1  0
 19 60  1  6
 20 61  1  0
 20 62  1  0
 21 63  1  0
 21 64  1  0
 22 65  1  6
 23 66  1  0
 25 67  1  0
 25 68  1  0
 25 69  1  0
 26 70  1  0
 26 71  1  0
 26 72  1  0
 28 73  1  0
 28 74  1  0
 28 75  1  0
 29 76  1  0
 29 77  1  0
 30 78  1  0
 30 79  1  0
 32 80  1  0
 32 81  1  0
 32 82  1  0
M  END
>  <meeko>  (16) 
{"is_sidechain": [false], "intermolecular_energy": 2.731, "internal_energy": -0.839}

$$$$
EPH_relaxed_0001_pdb2pqr_Repair_5_r2_0001_out
     RDKit          3D

 82 86  0  0  0  0  0  0  0  0999 V2000
   -2.4370    7.7910    0.0410 C   0  0  0  0  0  0  0  0  0  0  0  0
   -3.1140    9.1630   -0.0290 C   0  0  2  0  0  0  0  0  0  0  0  0
   -4.5860    9.0610   -0.4760 C   0  0  0  0  0  0  0  0  0  0  0  0
   -5.1010    7.6230   -0.5780 C   0  0  0  0  0  0  0  0  0  0  0  0
   -5.8710    7.3980   -1.8440 C   0  0  2  0  0  0  0  0  0  0  0  0
   -6.7970    8.4420   -2.1750 O   0  0  0  0  0  0  0  0  0  0  0  0
   -7.3690    7.1570   -1.8800 C   0  0  0  0  0  0  0  0  0  0  0  0
   -8.1850    7.1280   -0.6260 C   0  0  0  0  0  0  0  0  0  0  0  0
   -7.9550    6.4700   -3.0740 C   0  0  0  0  0  0  0  0  0  0  0  0
   -2.3440   10.0760   -0.9750 C   0  0  1  0  0  0  0  0  0  0  0  0
   -2.9870   11.4820   -1.1040 C   0  0  0  0  0  0  0  0  0  0  0  0
   -1.8230   12.4930   -1.2720 C   0  0  0  0  0  0  0  0  0  0  0  0
   -0.5840   11.6150   -1.5660 C   0  0  1  0  0  0  0  0  0  0  0  0
   -0.6810   11.2820   -3.0880 C   0  0  0  0  0  0  0  0  0  0  0  0
    0.8040   12.2330   -1.1980 C   0  0  2  0  0  0  0  0  0  0  0  0
    1.1710   13.5160   -1.9650 C   0  0  0  0  0  0  0  0  0  0  0  0
    1.9180   13.3050   -3.2400 C   0  0  0  0  0  0  0  0  0  0  0  0
    2.5280   12.1630   -3.6100 C   0  0  0  0  0  0  0  0  0  0  0  0
    2.5860   10.9580   -2.6620 C   0  0  1  0  0  0  0  0  0  0  0  0
    4.0280   10.3880   -2.6370 C   0  0  0  0  0  0  0  0  0  0  0  0
    4.5510   10.0580   -4.0320 C   0  0  0  0  0  0  0  0  0  0  0  0
    4.5320   11.2940   -4.9280 C   0  0  2  0  0  0  0  0  0  0  0  0
    5.4830   12.2390   -4.4290 O   0  0  0  0  0  0  0  0  0  0  0  0
    3.1310   11.9610   -5.0220 C   0  0  0  0  0  0  0  0  0  0  0  0
    2.1750   11.0530   -5.8340 C   0  0  0  0  0  0  0  0  0  0  0  0
    3.2810   13.2730   -5.8380 C   0  0  0  0  0  0  0  0  0  0  0  0
    1.9980   11.1950   -1.2040 C   0  0  1  0  0  0  0  0  0  0  0  0
    3.1030   11.7810   -0.2730 C   0  0  0  0  0  0  0  0  0  0  0  0
    1.5870    9.8070   -0.5840 C   0  0  0  0  0  0  0  0  0  0  0  0
    0.1610    9.3060   -0.8860 C   0  0  0  0  0  0  0  0  0  0  0  0
   -0.8740   10.4010   -0.6100 C   0  0  2  0  0  0  0  0  0  0  0  0
   -0.8150   10.7410    0.9180 C   0  0  0  0  0  0  0  0  0  0  0  0
   -2.2959    7.5050    1.0938 H   0  0  0  0  0  0  0  0  0  0  0  0
   -3.0699    7.0438   -0.4602 H   0  0  0  0  0  0  0  0  0  0  0  0
   -1.4590    7.8387   -0.4602 H   0  0  0  0  0  0  0  0  0  0  0  0
   -3.1054    9.5883    0.9854 H   0  0  0  0  0  0  0  0  0  0  0  0
   -5.2082    9.6016    0.2524 H   0  0  0  0  0  0  0  0  0  0  0  0
   -4.6461    9.4958   -1.4846 H   0  0  0  0  0  0  0  0  0  0  0  0
   -4.2432    6.9348   -0.5555 H   0  0  0  0  0  0  0  0  0  0  0  0
   -5.7761    7.4397    0.2709 H   0  0  0  0  0  0  0  0  0  0  0  0
   -5.0252    6.8543   -2.2901 H   0  0  0  0  0  0  0  0  0  0  0  0
   -7.5164    7.1518    0.2472 H   0  0  0  0  0  0  0  0  0  0  0  0
   -8.8511    8.0030   -0.6017 H   0  0  0  0  0  0  0  0  0  0  0  0
   -8.7873    6.2079   -0.6017 H   0  0  0  0  0  0  0  0  0  0  0  0
   -8.6353    5.6724   -2.7409 H   0  0  0  0  0  0  0  0  0  0  0  0
   -8.5135    7.1993   -3.6792 H   0  0  0  0  0  0  0  0  0  0  0  0
   -7.1468    6.0335   -3.6792 H   0  0  0  0  0  0  0  0  0  0  0  0
   -2.3784    9.4651   -1.8891 H   0  0  0  0  0  0  0  0  0  0  0  0
   -3.6486   11.5168   -1.9821 H   0  0  0  0  0  0  0  0  0  0  0  0
   -3.5933   11.7217   -0.2180 H   0  0  0  0  0  0  0  0  0  0  0  0
   -2.0213   13.1780   -2.1095 H   0  0  0  0  0  0  0  0  0  0  0  0
   -1.6859   13.1236   -0.3812 H   0  0  0  0  0  0  0  0  0  0  0  0
   -0.9866   10.2330   -3.2151 H   0  0  0  0  0  0  0  0  0  0  0  0
   -1.4247   11.9404   -3.5607 H   0  0  0  0  0  0  0  0  0  0  0  0
    0.2999   11.4380   -3.5607 H   0  0  0  0  0  0  0  0  0  0  0  0
    0.6548   12.5417   -0.1528 H   0  0  0  0  0  0  0  0  0  0  0  0
    0.2383   14.0490   -2.2017 H   0  0  0  0  0  0  0  0  0  0  0  0
    1.8467   14.0815   -1.3064 H   0  0  0  0  0  0  0  0  0  0  0  0
    1.9750   14.1545   -3.9364 H   0  0  0  0  0  0  0  0  0  0  0  0
    1.8962   10.2092   -3.0785 H   0  0  0  0  0  0  0  0  0  0  0  0
    4.6940   11.1335   -2.1780 H   0  0  0  0  0  0  0  0  0  0  0  0
    4.0074    9.4528   -2.0583 H   0  0  0  0  0  0  0  0  0  0  0  0
    5.5837    9.6878   -3.9511 H   0  0  0  0  0  0  0  0  0  0  0  0
    3.9013    9.2907   -4.4782 H   0  0  0  0  0  0  0  0  0  0  0  0
    4.7925   10.9683   -5.9459 H   0  0  0  0  0  0  0  0  0  0  0  0
    5.9950   12.5690   -5.1860 H   0  0  0  0  0  0  0  0  0  0  0  0
    1.5543   10.4635   -5.1432 H   0  0  0  0  0  0  0  0  0  0  0  0
    1.5273   11.6765   -6.4678 H   0  0  0  0  0  0  0  0  0  0  0  0
    2.7643   10.3740   -6.4678 H   0  0  0  0  0  0  0  0  0  0  0  0
    3.3784   14.1245   -5.1485 H   0  0  0  0  0  0  0  0  0  0  0  0
    4.1778   13.2101   -6.4719 H   0  0  0  0  0  0  0  0  0  0  0  0
    2.3931   13.4141   -6.4719 H   0  0  0  0  0  0  0  0  0  0  0  0
    2.8158   11.6287    0.7779 H   0  0  0  0  0  0  0  0  0  0  0  0
    4.0572   11.2704   -0.4700 H   0  0  0  0  0  0  0  0  0  0  0  0
    3.2156   12.8573   -0.4700 H   0  0  0  0  0  0  0  0  0  0  0  0
    2.2920    9.0519   -0.9618 H   0  0  0  0  0  0  0  0  0  0  0  0
    1.6141    9.9589    0.5051 H   0  0  0  0  0  0  0  0  0  0  0  0
    0.0996    9.0110   -1.9439 H   0  0  0  0  0  0  0  0  0  0  0  0
   -0.0546    8.4467   -0.2339 H   0  0  0  0  0  0  0  0  0  0  0  0
   -0.9742    9.8239    1.5041 H   0  0  0  0  0  0  0  0  0  0  0  0
    0.1702   11.1654    1.1614 H   0  0  0  0  0  0  0  0  0  0  0  0
   -1.5996   11.4725    1.1614 H   0  0  0  0  0  0  0  0  0  0  0  0
  1  2  1  0
  2  3  1  0
  3  4  1  0
  4  5  1  0
  5  6  1  0
  6  7  1  0
  7  8  1  0
  7  9  1  0
  2 10  1  0
 10 11  1  0
 11 12  1  0
 12 13  1  0
 13 14  1  6
 13 15  1  0
 15 16  1  0
 16 17  1  0
 17 18  2  0
 18 19  1  0
 19 20  1  0
 20 21  1  0
 21 22  1  0
 22 23  1  0
 22 24  1  0
 24 25  1  0
 24 26  1  0
 19 27  1  0
 27 28  1  1
 27 29  1  0
 29 30  1  0
 30 31  1  0
 31 32  1  1
  7  5  1  0
 31 10  1  0
 31 13  1  0
 27 15  1  0
 24 18  1  0
  1 33  1  0
  1 34  1  0
  1 35  1  0
  2 36  1  1
  3 37  1  0
  3 38  1  0
  4 39  1  0
  4 40  1  0
  5 41  1  6
  8 42  1  0
  8 43  1  0
  8 44  1  0
  9 45  1  0
  9 46  1  0
  9 47  1  0
 10 48  1  6
 11 49  1  0
 11 50  1  0
 12 51  1  0
 12 52  1  0
 14 53  1  0
 14 54  1  0
 14 55  1  0
 15 56  1  1
 16 57  1  0
 16 58  1  0
 17 59  1  0
 19 60  1  6
 20 61  1  0
 20 62  1  0
 21 63  1  0
 21 64  1  0
 22 65  1  6
 23 66  1  0
 25 67  1  0
 25 68  1  0
 25 69  1  0
 26 70  1  0
 26 71  1  0
 26 72  1  0
 28 73  1  0
 28 74  1  0
 28 75  1  0
 29 76  1  0
 29 77  1  0
 30 78  1  0
 30 79  1  0
 32 80  1  0
 32 81  1  0
 32 82  1  0
M  END
>  <meeko>  (17) 
{"is_sidechain": [false], "intermolecular_energy": 2.731, "internal_energy": -0.839}

$$$$
EPH_relaxed_0001_pdb2pqr_Repair_5_r2_0001_out
     RDKit          3D

 82 86  0  0  0  0  0  0  0  0999 V2000
   -1.6930   14.8690    0.5830 C   0  0  0  0  0  0  0  0  0  0  0  0
   -0.3610   15.5650    0.2890 C   0  0  2  0  0  0  0  0  0  0  0  0
   -0.4650   16.5380   -0.9020 C   0  0  0  0  0  0  0  0  0  0  0  0
   -0.0080   17.9620   -0.5750 C   0  0  0  0  0  0  0  0  0  0  0  0
    1.4070   17.9900   -0.0820 C   0  0  2  0  0  0  0  0  0  0  0  0
    2.1010   19.2210   -0.3240 O   0  0  0  0  0  0  0  0  0  0  0  0
    2.6120   18.0620   -1.0010 C   0  0  0  0  0  0  0  0  0  0  0  0
    2.4570   18.1090   -2.4890 C   0  0  0  0  0  0  0  0  0  0  0  0
    3.9370   17.5960   -0.4830 C   0  0  0  0  0  0  0  0  0  0  0  0
    0.7200   14.5250    0.0190 C   0  0  1  0  0  0  0  0  0  0  0  0
    0.8520   13.4880    1.1670 C   0  0  0  0  0  0  0  0  0  0  0  0
    1.2130   12.1330    0.5060 C   0  0  0  0  0  0  0  0  0  0  0  0
    1.6010   12.4980   -0.9460 C   0  0  1  0  0  0  0  0  0  0  0  0
    3.0790   12.9900   -0.8540 C   0  0  0  0  0  0  0  0  0  0  0  0
    1.4350   11.3650   -2.0110 C   0  0  2  0  0  0  0  0  0  0  0  0
    2.3110   10.1210   -1.7830 C   0  0  0  0  0  0  0  0  0  0  0  0
    3.6520   10.1560   -2.4390 C   0  0  0  0  0  0  0  0  0  0  0  0
    4.0250   11.0100   -3.4100 C   0  0  0  0  0  0  0  0  0  0  0  0
    3.0230   12.0030   -4.0140 C   0  0  1  0  0  0  0  0  0  0  0  0
    3.1360   11.9770   -5.5610 C   0  0  0  0  0  0  0  0  0  0  0  0
    4.5620   12.2180   -6.0470 C   0  0  0  0  0  0  0  0  0  0  0  0
    5.5180   11.1770   -5.4720 C   0  0  2  0  0  0  0  0  0  0  0  0
    5.1890    9.8970   -6.0210 O   0  0  0  0  0  0  0  0  0  0  0  0
    5.4840   11.1050   -3.9200 C   0  0  0  0  0  0  0  0  0  0  0  0
    6.1250   12.3830   -3.3260 C   0  0  0  0  0  0  0  0  0  0  0  0
    6.3860    9.9210   -3.4770 C   0  0  0  0  0  0  0  0  0  0  0  0
    1.5220   11.8670   -3.5090 C   0  0  1  0  0  0  0  0  0  0  0  0
    0.7630   10.8150   -4.3750 C   0  0  0  0  0  0  0  0  0  0  0  0
    0.7800   13.2390   -3.7250 C   0  0  0  0  0  0  0  0  0  0  0  0
    0.8830   14.2710   -2.5860 C   0  0  0  0  0  0  0  0  0  0  0  0
    0.5500   13.6310   -1.2350 C   0  0  2  0  0  0  0  0  0  0  0  0
   -0.9390   13.1450   -1.2890 C   0  0  0  0  0  0  0  0  0  0  0  0
   -1.8355   14.7946    1.6712 H   0  0  0  0  0  0  0  0  0  0  0  0
   -2.5161   15.4523    0.1445 H   0  0  0  0  0  0  0  0  0  0  0  0
   -1.6842   13.8602    0.1445 H   0  0  0  0  0  0  0  0  0  0  0  0
   -0.0939   16.1572    1.1766 H   0  0  0  0  0  0  0  0  0  0  0  0
    0.1597   16.1523   -1.7211 H   0  0  0  0  0  0  0  0  0  0  0  0
   -1.5284   16.5969   -1.1771 H   0  0  0  0  0  0  0  0  0  0  0  0
   -0.0812   18.5775   -1.4837 H   0  0  0  0  0  0  0  0  0  0  0  0
   -0.6566   18.3562    0.2212 H   0  0  0  0  0  0  0  0  0  0  0  0
    1.1544   17.3191    0.7523 H   0  0  0  0  0  0  0  0  0  0  0  0
    1.4324   18.4197   -2.7413 H   0  0  0  0  0  0  0  0  0  0  0  0
    3.1730   18.8304   -2.9096 H   0  0  0  0  0  0  0  0  0  0  0  0
    2.6517   17.1114   -2.9096 H   0  0  0  0  0  0  0  0  0  0  0  0
    3.9230   17.6009    0.6169 H   0  0  0  0  0  0  0  0  0  0  0  0
    4.1328   16.5751   -0.8426 H   0  0  0  0  0  0  0  0  0  0  0  0
    4.7288   18.2696   -0.8426 H   0  0  0  0  0  0  0  0  0  0  0  0
    1.5872   15.1897   -0.1077 H   0  0  0  0  0  0  0  0  0  0  0  0
    1.6466   13.7932    1.8637 H   0  0  0  0  0  0  0  0  0  0  0  0
   -0.0840   13.4113    1.7396 H   0  0  0  0  0  0  0  0  0  0  0  0
    2.0587   11.6601    1.0267 H   0  0  0  0  0  0  0  0  0  0  0  0
    0.3814   11.4142    0.5473 H   0  0  0  0  0  0  0  0  0  0  0  0
    3.3683   13.0863    0.2029 H   0  0  0  0  0  0  0  0  0  0  0  0
    3.7390   12.2631   -1.3500 H   0  0  0  0  0  0  0  0  0  0  0  0
    3.1716   13.9674   -1.3500 H   0  0  0  0  0  0  0  0  0  0  0  0
    0.3992   11.0344   -1.8444 H   0  0  0  0  0  0  0  0  0  0  0  0
    2.4654   10.0080   -0.6998 H   0  0  0  0  0  0  0  0  0  0  0  0
    1.7701    9.2799   -2.2412 H   0  0  0  0  0  0  0  0  0  0  0  0
    4.3978    9.4219   -2.1000 H   0  0  0  0  0  0  0  0  0  0  0  0
    3.3121   12.9946   -3.6357 H   0  0  0  0  0  0  0  0  0  0  0  0
    2.8016   10.9934   -5.9226 H   0  0  0  0  0  0  0  0  0  0  0  0
    2.5069   12.7884   -5.9557 H   0  0  0  0  0  0  0  0  0  0  0  0
    4.5829   12.1581   -7.1452 H   0  0  0  0  0  0  0  0  0  0  0  0
    4.8840   13.2143   -5.7096 H   0  0  0  0  0  0  0  0  0  0  0  0
    6.5392   11.4776   -5.7490 H   0  0  0  0  0  0  0  0  0  0  0  0
    5.8290    9.2540   -5.6720 H   0  0  0  0  0  0  0  0  0  0  0  0
    6.0984   12.3300   -2.2276 H   0  0  0  0  0  0  0  0  0  0  0  0
    7.1688   12.4608   -3.6642 H   0  0  0  0  0  0  0  0  0  0  0  0
    5.5632   13.2662   -3.6642 H   0  0  0  0  0  0  0  0  0  0  0  0
    6.4197    9.8768   -2.3784 H   0  0  0  0  0  0  0  0  0  0  0  0
    5.9742    8.9795   -3.8694 H   0  0  0  0  0  0  0  0  0  0  0  0
    7.4031   10.0681   -3.8694 H   0  0  0  0  0  0  0  0  0  0  0  0
    0.2477   10.1007   -3.7160 H   0  0  0  0  0  0  0  0  0  0  0  0
    0.0247   11.3267   -5.0099 H   0  0  0  0  0  0  0  0  0  0  0  0
    1.4814   10.2757   -5.0099 H   0  0  0  0  0  0  0  0  0  0  0  0
    1.1946   13.7023   -4.6324 H   0  0  0  0  0  0  0  0  0  0  0  0
   -0.2879   12.9824   -3.7853 H   0  0  0  0  0  0  0  0  0  0  0  0
    1.9079   14.6692   -2.5527 H   0  0  0  0  0  0  0  0  0  0  0  0
    0.1621   15.0792   -2.7786 H   0  0  0  0  0  0  0  0  0  0  0  0
   -1.3213   13.0202   -0.2652 H   0  0  0  0  0  0  0  0  0  0  0  0
   -1.5491   13.8907   -1.8199 H   0  0  0  0  0  0  0  0  0  0  0  0
   -0.9917   12.1830   -1.8199 H   0  0  0  0  0  0  0  0  0  0  0  0
  1  2  1  0
  2  3  1  0
  3  4  1  0
  4  5  1  0
  5  6  1  0
  6  7  1  0
  7  8  1  0
  7  9  1  0
  2 10  1  0
 10 11  1  0
 11 12  1  0
 12 13  1  0
 13 14  1  1
 13 15  1  0
 15 16  1  0
 16 17  1  0
 17 18  2  0
 18 19  1  0
 19 20  1  0
 20 21  1  0
 21 22  1  0
 22 23  1  0
 22 24  1  0
 24 25  1  0
 24 26  1  0
 19 27  1  0
 27 28  1  6
 27 29  1  0
 29 30  1  0
 30 31  1  0
 31 32  1  6
  7  5  1  0
 31 10  1  0
 31 13  1  0
 27 15  1  0
 24 18  1  0
  1 33  1  0
  1 34  1  0
  1 35  1  0
  2 36  1  1
  3 37  1  0
  3 38  1  0
  4 39  1  0
  4 40  1  0
  5 41  1  1
  8 42  1  0
  8 43  1  0
  8 44  1  0
  9 45  1  0
  9 46  1  0
  9 47  1  0
 10 48  1  6
 11 49  1  0
 11 50  1  0
 12 51  1  0
 12 52  1  0
 14 53  1  0
 14 54  1  0
 14 55  1  0
 15 56  1  6
 16 57  1  0
 16 58  1  0
 17 59  1  0
 19 60  1  1
 20 61  1  0
 20 62  1  0
 21 63  1  0
 21 64  1  0
 22 65  1  1
 23 66  1  0
 25 67  1  0
 25 68  1  0
 25 69  1  0
 26 70  1  0
 26 71  1  0
 26 72  1  0
 28 73  1  0
 28 74  1  0
 28 75  1  0
 29 76  1  0
 29 77  1  0
 30 78  1  0
 30 79  1  0
 32 80  1  0
 32 81  1  0
 32 82  1  0
M  END
>  <meeko>  (18) 
{"is_sidechain": [false], "intermolecular_energy": 2.731, "internal_energy": -0.839}

$$$$
EPH_relaxed_0001_pdb2pqr_Repair_5_r2_0001_out
     RDKit          3D

 82 86  0  0  0  0  0  0  0  0999 V2000
    0.7880   14.7120   -4.7370 C   0  0  0  0  0  0  0  0  0  0  0  0
    0.5830   14.1540   -3.3260 C   0  0  2  0  0  0  0  0  0  0  0  0
    1.8290   14.3470   -2.4390 C   0  0  0  0  0  0  0  0  0  0  0  0
    1.6350   15.3760   -1.3220 C   0  0  0  0  0  0  0  0  0  0  0  0
    1.2140   16.7090   -1.8620 C   0  0  2  0  0  0  0  0  0  0  0  0
    2.1280   17.2890   -2.8020 O   0  0  0  0  0  0  0  0  0  0  0  0
    1.9510   18.0020   -1.5680 C   0  0  0  0  0  0  0  0  0  0  0  0
    3.1700   18.0250   -0.6990 C   0  0  0  0  0  0  0  0  0  0  0  0
    1.2140   19.2960   -1.7190 C   0  0  0  0  0  0  0  0  0  0  0  0
    0.2190   12.6760   -3.4000 C   0  0  1  0  0  0  0  0  0  0  0  0
    1.4500   11.7710   -3.6710 C   0  0  0  0  0  0  0  0  0  0  0  0
    1.2160   10.4520   -2.8910 C   0  0  0  0  0  0  0  0  0  0  0  0
   -0.2720   10.5050   -2.4730 C   0  0  1  0  0  0  0  0  0  0  0  0
   -1.0610   10.0440   -3.7380 C   0  0  0  0  0  0  0  0  0  0  0  0
   -0.6650    9.6690   -1.2110 C   0  0  2  0  0  0  0  0  0  0  0  0
   -0.4570    8.1500   -1.3440 C   0  0  0  0  0  0  0  0  0  0  0  0
   -1.6300    7.3890   -1.8670 C   0  0  0  0  0  0  0  0  0  0  0  0
   -2.8910    7.8540   -1.9490 C   0  0  0  0  0  0  0  0  0  0  0  0
   -3.2580    9.2370   -1.3970 C   0  0  1  0  0  0  0  0  0  0  0  0
   -4.5580    9.1320   -0.5580 C   0  0  0  0  0  0  0  0  0  0  0  0
   -5.7050    8.4910   -1.3330 C   0  0  0  0  0  0  0  0  0  0  0  0
   -5.3230    7.0940   -1.8160 C   0  0  2  0  0  0  0  0  0  0  0  0
   -5.1690    6.2390   -0.6780 O   0  0  0  0  0  0  0  0  0  0  0  0
   -4.0210    7.0730   -2.6650 C   0  0  0  0  0  0  0  0  0  0  0  0
   -4.2820    7.7450   -4.0350 C   0  0  0  0  0  0  0  0  0  0  0  0
   -3.6710    5.5910   -2.9670 C   0  0  0  0  0  0  0  0  0  0  0  0
   -2.0980   10.0080   -0.6300 C   0  0  1  0  0  0  0  0  0  0  0  0
   -2.0810    9.5860    0.8710 C   0  0  0  0  0  0  0  0  0  0  0  0
   -2.4030   11.5520   -0.6550 C   0  0  0  0  0  0  0  0  0  0  0  0
   -1.8850   12.3440   -1.8700 C   0  0  0  0  0  0  0  0  0  0  0  0
   -0.4090   12.0340   -2.1370 C   0  0  2  0  0  0  0  0  0  0  0  0
    0.4130   12.5080   -0.8900 C   0  0  0  0  0  0  0  0  0  0  0  0
    1.1667   15.7427   -4.6722 H   0  0  0  0  0  0  0  0  0  0  0  0
    1.5154   14.0874   -5.2762 H   0  0  0  0  0  0  0  0  0  0  0  0
   -0.1707   14.7068   -5.2762 H   0  0  0  0  0  0  0  0  0  0  0  0
   -0.2412   14.7168   -2.8634 H   0  0  0  0  0  0  0  0  0  0  0  0
    2.0821   13.3798   -1.9802 H   0  0  0  0  0  0  0  0  0  0  0  0
    2.6315   14.7254   -3.0893 H   0  0  0  0  0  0  0  0  0  0  0  0
    0.8606   15.0106   -0.6315 H   0  0  0  0  0  0  0  0  0  0  0  0
    2.5968   15.5046   -0.8040 H   0  0  0  0  0  0  0  0  0  0  0  0
    0.1524   16.4313   -1.7853 H   0  0  0  0  0  0  0  0  0  0  0  0
    2.8667   18.0193    0.3583 H   0  0  0  0  0  0  0  0  0  0  0  0
    3.7864   17.1383   -0.9084 H   0  0  0  0  0  0  0  0  0  0  0  0
    3.7525   18.9343   -0.9084 H   0  0  0  0  0  0  0  0  0  0  0  0
    0.9817   19.7039   -0.7242 H   0  0  0  0  0  0  0  0  0  0  0  0
    1.8398   20.0120   -2.2719 H   0  0  0  0  0  0  0  0  0  0  0  0
    0.2789   19.1230   -2.2719 H   0  0  0  0  0  0  0  0  0  0  0  0
   -0.5211   12.7086   -4.2132 H   0  0  0  0  0  0  0  0  0  0  0  0
    1.5381   11.5638   -4.7477 H   0  0  0  0  0  0  0  0  0  0  0  0
    2.3797   12.2616   -3.3472 H   0  0  0  0  0  0  0  0  0  0  0  0
    1.4078    9.5809   -3.5347 H   0  0  0  0  0  0  0  0  0  0  0  0
    1.8890   10.3535   -2.0265 H   0  0  0  0  0  0  0  0  0  0  0  0
   -1.9723    9.5116   -3.4279 H   0  0  0  0  0  0  0  0  0  0  0  0
   -1.3366   10.9232   -4.3389 H   0  0  0  0  0  0  0  0  0  0  0  0
   -0.4304    9.3723   -4.3389 H   0  0  0  0  0  0  0  0  0  0  0  0
    0.0699   10.0067   -0.4654 H   0  0  0  0  0  0  0  0  0  0  0  0
    0.3892    7.9813   -2.0263 H   0  0  0  0  0  0  0  0  0  0  0  0
   -0.2821    7.7764   -0.3243 H   0  0  0  0  0  0  0  0  0  0  0  0
   -1.4488    6.3613   -2.2149 H   0  0  0  0  0  0  0  0  0  0  0  0
   -3.4306    9.8778   -2.2743 H   0  0  0  0  0  0  0  0  0  0  0  0
   -4.3529    8.5238    0.3353 H   0  0  0  0  0  0  0  0  0  0  0  0
   -4.8659   10.1536   -0.2906 H   0  0  0  0  0  0  0  0  0  0  0  0
   -6.5854    8.4172   -0.6777 H   0  0  0  0  0  0  0  0  0  0  0  0
   -5.9296    9.1165   -2.2095 H   0  0  0  0  0  0  0  0  0  0  0  0
   -6.1311    6.7401   -2.4731 H   0  0  0  0  0  0  0  0  0  0  0  0
   -5.7660    5.4810   -0.7970 H   0  0  0  0  0  0  0  0  0  0  0  0
   -4.6761    8.7597   -3.8765 H   0  0  0  0  0  0  0  0  0  0  0  0
   -3.3405    7.8016   -4.6010 H   0  0  0  0  0  0  0  0  0  0  0  0
   -5.0149    7.1512   -4.6010 H   0  0  0  0  0  0  0  0  0  0  0  0
   -3.5420    5.0446   -2.0210 H   0  0  0  0  0  0  0  0  0  0  0  0
   -4.4856    5.1327   -3.5470 H   0  0  0  0  0  0  0  0  0  0  0  0
   -2.7374    5.5456   -3.5470 H   0  0  0  0  0  0  0  0  0  0  0  0
   -2.1172   10.4843    1.5049 H   0  0  0  0  0  0  0  0  0  0  0  0
   -2.9543    8.9519    1.0835 H   0  0  0  0  0  0  0  0  0  0  0  0
   -1.1595    9.0242    1.0835 H   0  0  0  0  0  0  0  0  0  0  0  0
   -3.4954   11.6758   -0.6186 H   0  0  0  0  0  0  0  0  0  0  0  0
   -1.8623   11.9656    0.2091 H   0  0  0  0  0  0  0  0  0  0  0  0
   -2.4763   12.0708   -2.7564 H   0  0  0  0  0  0  0  0  0  0  0  0
   -1.9850   13.4185   -1.6571 H   0  0  0  0  0  0  0  0  0  0  0  0
   -0.1096   12.2066    0.0298 H   0  0  0  0  0  0  0  0  0  0  0  0
    1.4115   12.0470   -0.9122 H   0  0  0  0  0  0  0  0  0  0  0  0
    0.5142   13.6031   -0.9122 H   0  0  0  0  0  0  0  0  0  0  0  0
  1  2  1  0
  2  3  1  0
  3  4  1  0
  4  5  1  0
  5  6  1  0
  6  7  1  0
  7  8  1  0
  7  9  1  0
  2 10  1  0
 10 11  1  0
 11 12  1  0
 12 13  1  0
 13 14  1  6
 13 15  1  0
 15 16  1  0
 16 17  1  0
 17 18  2  0
 18 19  1  0
 19 20  1  0
 20 21  1  0
 21 22  1  0
 22 23  1  0
 22 24  1  0
 24 25  1  0
 24 26  1  0
 19 27  1  0
 27 28  1  1
 27 29  1  0
 29 30  1  0
 30 31  1  0
 31 32  1  1
  7  5  1  0
 31 10  1  0
 31 13  1  0
 27 15  1  0
 24 18  1  0
  1 33  1  0
  1 34  1  0
  1 35  1  0
  2 36  1  1
  3 37  1  0
  3 38  1  0
  4 39  1  0
  4 40  1  0
  5 41  1  6
  8 42  1  0
  8 43  1  0
  8 44  1  0
  9 45  1  0
  9 46  1  0
  9 47  1  0
 10 48  1  6
 11 49  1  0
 11 50  1  0
 12 51  1  0
 12 52  1  0
 14 53  1  0
 14 54  1  0
 14 55  1  0
 15 56  1  1
 16 57  1  0
 16 58  1  0
 17 59  1  0
 19 60  1  6
 20 61  1  0
 20 62  1  0
 21 63  1  0
 21 64  1  0
 22 65  1  6
 23 66  1  0
 25 67  1  0
 25 68  1  0
 25 69  1  0
 26 70  1  0
 26 71  1  0
 26 72  1  0
 28 73  1  0
 28 74  1  0
 28 75  1  0
 29 76  1  0
 29 77  1  0
 30 78  1  0
 30 79  1  0
 32 80  1  0
 32 81  1  0
 32 82  1  0
M  END
>  <meeko>  (19) 
{"is_sidechain": [false], "intermolecular_energy": 2.731, "internal_energy": -0.839}

$$$$
