EPH_relaxed_0001_pdb2pqr_Repair_304_r2_0001_out
     RDKit          3D

 82 86  0  0  0  0  0  0  0  0999 V2000
    4.3820   16.7960   -0.3120 C   0  0  0  0  0  0  0  0  0  0  0  0
    3.0290   17.5000   -0.1820 C   0  0  2  0  0  0  0  0  0  0  0  0
    2.9540   18.3870    1.0760 C   0  0  0  0  0  0  0  0  0  0  0  0
    4.3240   18.7550    1.6520 C   0  0  0  0  0  0  0  0  0  0  0  0
    4.2130   19.3000    3.0440 C   0  0  2  0  0  0  0  0  0  0  0  0
    5.2670   20.1940    3.4230 O   0  0  0  0  0  0  0  0  0  0  0  0
    5.1880   18.9610    4.1560 C   0  0  0  0  0  0  0  0  0  0  0  0
    6.3450   18.0410    3.9250 C   0  0  0  0  0  0  0  0  0  0  0  0
    4.7420   19.1300    5.5750 C   0  0  0  0  0  0  0  0  0  0  0  0
    1.9070   16.4680   -0.1590 C   0  0  1  0  0  0  0  0  0  0  0  0
    0.5090   17.1000   -0.3920 C   0  0  0  0  0  0  0  0  0  0  0  0
   -0.3210   16.0660   -1.1970 C   0  0  0  0  0  0  0  0  0  0  0  0
    0.5000   14.7580   -1.1130 C   0  0  1  0  0  0  0  0  0  0  0  0
    0.1430   14.1490    0.2790 C   0  0  0  0  0  0  0  0  0  0  0  0
    0.2770   13.7280   -2.2680 C   0  0  2  0  0  0  0  0  0  0  0  0
   -1.1510   13.1660   -2.3750 C   0  0  0  0  0  0  0  0  0  0  0  0
   -1.4060   11.9200   -1.5940 C   0  0  0  0  0  0  0  0  0  0  0  0
   -0.4610   11.1200   -1.0670 C   0  0  0  0  0  0  0  0  0  0  0  0
    1.0280   11.3880   -1.3200 C   0  0  1  0  0  0  0  0  0  0  0  0
    1.7340   10.0620   -1.7100 C   0  0  0  0  0  0  0  0  0  0  0  0
    1.5060    8.9550   -0.6850 C   0  0  0  0  0  0  0  0  0  0  0  0
    0.0160    8.6780   -0.5040 C   0  0  2  0  0  0  0  0  0  0  0  0
   -0.5000    8.1230   -1.7180 O   0  0  0  0  0  0  0  0  0  0  0  0
   -0.8000    9.9430   -0.1190 C   0  0  0  0  0  0  0  0  0  0  0  0
   -0.4500   10.3680    1.3280 C   0  0  0  0  0  0  0  0  0  0  0  0
   -2.3040    9.5550   -0.1060 C   0  0  0  0  0  0  0  0  0  0  0  0
    1.3580   12.5740   -2.3250 C   0  0  1  0  0  0  0  0  0  0  0  0
    1.3660   12.0420   -3.7910 C   0  0  0  0  0  0  0  0  0  0  0  0
    2.8130   13.1020   -2.0370 C   0  0  0  0  0  0  0  0  0  0  0  0
    2.9540   14.2040   -0.9700 C   0  0  0  0  0  0  0  0  0  0  0  0
    1.9560   15.3400   -1.2200 C   0  0  2  0  0  0  0  0  0  0  0  0
    2.3050   15.9860   -2.6030 C   0  0  0  0  0  0  0  0  0  0  0  0
    4.7842   16.5867    0.6902 H   0  0  0  0  0  0  0  0  0  0  0  0
    4.2525   15.8509   -0.8598 H   0  0  0  0  0  0  0  0  0  0  0  0
    5.0816   17.4444   -0.8598 H   0  0  0  0  0  0  0  0  0  0  0  0
    2.9127   18.1573   -1.0563 H   0  0  0  0  0  0  0  0  0  0  0  0
    2.4261   19.3161    0.8149 H   0  0  0  0  0  0  0  0  0  0  0  0
    2.4262   17.8070    1.8474 H   0  0  0  0  0  0  0  0  0  0  0  0
    4.9559   17.8548    1.6711 H   0  0  0  0  0  0  0  0  0  0  0  0
    4.7660   19.5340    1.0134 H   0  0  0  0  0  0  0  0  0  0  0  0
    3.1146   19.2721    2.9920 H   0  0  0  0  0  0  0  0  0  0  0  0
    6.7539   17.7159    4.8930 H   0  0  0  0  0  0  0  0  0  0  0  0
    6.0069   17.1624    3.3561 H   0  0  0  0  0  0  0  0  0  0  0  0
    7.1249   18.5683    3.3561 H   0  0  0  0  0  0  0  0  0  0  0  0
    5.5520   18.8231    6.2530 H   0  0  0  0  0  0  0  0  0  0  0  0
    4.4914   20.1854    5.7574 H   0  0  0  0  0  0  0  0  0  0  0  0
    3.8549   18.5057    5.7574 H   0  0  0  0  0  0  0  0  0  0  0  0
    2.0645   16.0473    0.8451 H   0  0  0  0  0  0  0  0  0  0  0  0
    0.0221   17.3085    0.5721 H   0  0  0  0  0  0  0  0  0  0  0  0
    0.5917   18.0513   -0.9381 H   0  0  0  0  0  0  0  0  0  0  0  0
   -1.3152   15.9303   -0.7463 H   0  0  0  0  0  0  0  0  0  0  0  0
   -0.4923   16.3856   -2.2355 H   0  0  0  0  0  0  0  0  0  0  0  0
    0.5269   14.8039    1.0751 H   0  0  0  0  0  0  0  0  0  0  0  0
   -0.9496   14.0612    0.3715 H   0  0  0  0  0  0  0  0  0  0  0  0
    0.6001   13.1527    0.3715 H   0  0  0  0  0  0  0  0  0  0  0  0
    0.4223   14.3463   -3.1661 H   0  0  0  0  0  0  0  0  0  0  0  0
   -1.8480   13.9389   -2.0190 H   0  0  0  0  0  0  0  0  0  0  0  0
   -1.2938   12.8971   -3.4320 H   0  0  0  0  0  0  0  0  0  0  0  0
   -2.4555   11.6311   -1.4357 H   0  0  0  0  0  0  0  0  0  0  0  0
    1.4356   11.7621   -0.3693 H   0  0  0  0  0  0  0  0  0  0  0  0
    1.3442    9.7277   -2.6828 H   0  0  0  0  0  0  0  0  0  0  0  0
    2.8153   10.2594   -1.7537 H   0  0  0  0  0  0  0  0  0  0  0  0
    2.0036    8.0367   -1.0301 H   0  0  0  0  0  0  0  0  0  0  0  0
    1.9228    9.2787    0.2801 H   0  0  0  0  0  0  0  0  0  0  0  0
   -0.0892    7.9712    0.3323 H   0  0  0  0  0  0  0  0  0  0  0  0
   -0.7530    7.2020   -1.5360 H   0  0  0  0  0  0  0  0  0  0  0  0
   -0.9833    9.7204    2.0395 H   0  0  0  0  0  0  0  0  0  0  0  0
    0.6343   10.2718    1.4863 H   0  0  0  0  0  0  0  0  0  0  0  0
   -0.7523   11.4137    1.4863 H   0  0  0  0  0  0  0  0  0  0  0  0
   -2.6506    9.4656    0.9341 H   0  0  0  0  0  0  0  0  0  0  0  0
   -2.8876   10.3320   -0.6215 H   0  0  0  0  0  0  0  0  0  0  0  0
   -2.4389    8.5927   -0.6215 H   0  0  0  0  0  0  0  0  0  0  0  0
    1.3825   10.9422   -3.7819 H   0  0  0  0  0  0  0  0  0  0  0  0
    0.4625   12.3908   -4.3126 H   0  0  0  0  0  0  0  0  0  0  0  0
    2.2586   12.4178   -4.3126 H   0  0  0  0  0  0  0  0  0  0  0  0
    3.4198   12.2442   -1.7115 H   0  0  0  0  0  0  0  0  0  0  0  0
    3.1410   13.5687   -2.9775 H   0  0  0  0  0  0  0  0  0  0  0  0
    2.7641   13.7701    0.0228 H   0  0  0  0  0  0  0  0  0  0  0  0
    3.9732   14.6145   -1.0221 H   0  0  0  0  0  0  0  0  0  0  0  0
    2.8221   16.9432   -2.4405 H   0  0  0  0  0  0  0  0  0  0  0  0
    2.9592   15.3074   -3.1700 H   0  0  0  0  0  0  0  0  0  0  0  0
    1.3788   16.1612   -3.1700 H   0  0  0  0  0  0  0  0  0  0  0  0
  1  2  1  0
  2  3  1  0
  3  4  1  0
  4  5  1  0
  5  6  1  0
  6  7  1  0
  7  8  1  0
  7  9  1  0
  2 10  1  0
 10 11  1  0
 11 12  1  0
 12 13  1  0
 13 14  1  1
 13 15  1  0
 15 16  1  0
 16 17  1  0
 17 18  2  0
 18 19  1  0
 19 20  1  0
 20 21  1  0
 21 22  1  0
 22 23  1  0
 22 24  1  0
 24 25  1  0
 24 26  1  0
 19 27  1  0
 27 28  1  6
 27 29  1  0
 29 30  1  0
 30 31  1  0
 31 32  1  6
  7  5  1  0
 31 10  1  0
 31 13  1  0
 27 15  1  0
 24 18  1  0
  1 33  1  0
  1 34  1  0
  1 35  1  0
  2 36  1  6
  3 37  1  0
  3 38  1  0
  4 39  1  0
  4 40  1  0
  5 41  1  1
  8 42  1  0
  8 43  1  0
  8 44  1  0
  9 45  1  0
  9 46  1  0
  9 47  1  0
 10 48  1  1
 11 49  1  0
 11 50  1  0
 12 51  1  0
 12 52  1  0
 14 53  1  0
 14 54  1  0
 14 55  1  0
 15 56  1  6
 16 57  1  0
 16 58  1  0
 17 59  1  0
 19 60  1  1
 20 61  1  0
 20 62  1  0
 21 63  1  0
 21 64  1  0
 22 65  1  1
 23 66  1  0
 25 67  1  0
 25 68  1  0
 25 69  1  0
 26 70  1  0
 26 71  1  0
 26 72  1  0
 28 73  1  0
 28 74  1  0
 28 75  1  0
 29 76  1  0
 29 77  1  0
 30 78  1  0
 30 79  1  0
 32 80  1  0
 32 81  1  0
 32 82  1  0
M  END
>  <meeko>  (1) 
{"is_sidechain": [false], "intermolecular_energy": 2.731, "internal_energy": -0.839}

$$$$
EPH_relaxed_0001_pdb2pqr_Repair_304_r2_0001_out
     RDKit          3D

 82 86  0  0  0  0  0  0  0  0999 V2000
   -5.1810    5.8190   -1.7480 C   0  0  0  0  0  0  0  0  0  0  0  0
   -5.4740    7.3210   -1.7920 C   0  0  2  0  0  0  0  0  0  0  0  0
   -5.2430    7.9980   -0.4250 C   0  0  0  0  0  0  0  0  0  0  0  0
   -4.2060    9.1240   -0.4630 C   0  0  0  0  0  0  0  0  0  0  0  0
   -2.8380    8.6060   -0.7900 C   0  0  2  0  0  0  0  0  0  0  0  0
   -1.8300    8.9270    0.1770 O   0  0  0  0  0  0  0  0  0  0  0  0
   -1.6630    9.5040   -1.1280 C   0  0  0  0  0  0  0  0  0  0  0  0
   -1.8020   10.9940   -1.1580 C   0  0  0  0  0  0  0  0  0  0  0  0
   -0.5190    8.9250   -1.9020 C   0  0  0  0  0  0  0  0  0  0  0  0
   -6.9070    7.5580   -2.2540 C   0  0  1  0  0  0  0  0  0  0  0  0
   -7.2220    6.8600   -3.6040 C   0  0  0  0  0  0  0  0  0  0  0  0
   -8.7000    6.3990   -3.5350 C   0  0  0  0  0  0  0  0  0  0  0  0
   -9.2800    7.1310   -2.3020 C   0  0  1  0  0  0  0  0  0  0  0  0
   -9.6190    8.5670   -2.8100 C   0  0  0  0  0  0  0  0  0  0  0  0
  -10.5110    6.4560   -1.6130 C   0  0  2  0  0  0  0  0  0  0  0  0
  -11.7670    6.3380   -2.4940 C   0  0  0  0  0  0  0  0  0  0  0  0
  -12.7110    7.4920   -2.4170 C   0  0  0  0  0  0  0  0  0  0  0  0
  -12.7060    8.4440   -1.4660 C   0  0  0  0  0  0  0  0  0  0  0  0
  -11.7400    8.3640   -0.2760 C   0  0  1  0  0  0  0  0  0  0  0  0
  -12.5120    8.6560    1.0370 C   0  0  0  0  0  0  0  0  0  0  0  0
  -13.2710    9.9790    0.9890 C   0  0  0  0  0  0  0  0  0  0  0  0
  -14.2620    9.9970   -0.1720 C   0  0  2  0  0  0  0  0  0  0  0  0
  -15.2870    9.0320    0.0820 O   0  0  0  0  0  0  0  0  0  0  0  0
  -13.6000    9.7060   -1.5470 C   0  0  0  0  0  0  0  0  0  0  0  0
  -12.7110   10.9050   -1.9620 C   0  0  0  0  0  0  0  0  0  0  0  0
  -14.7280    9.6140   -2.6100 C   0  0  0  0  0  0  0  0  0  0  0  0
  -10.8590    7.0450   -0.1860 C   0  0  1  0  0  0  0  0  0  0  0  0
  -11.6420    5.9330    0.5750 C   0  0  0  0  0  0  0  0  0  0  0  0
   -9.5700    7.3450    0.6670 C   0  0  0  0  0  0  0  0  0  0  0  0
   -8.3480    7.8980   -0.0900 C   0  0  0  0  0  0  0  0  0  0  0  0
   -8.0450    7.0540   -1.3320 C   0  0  2  0  0  0  0  0  0  0  0  0
   -7.6780    5.6090   -0.8500 C   0  0  0  0  0  0  0  0  0  0  0  0
   -5.1165    5.4885   -0.7008 H   0  0  0  0  0  0  0  0  0  0  0  0
   -5.9895    5.2727   -2.2558 H   0  0  0  0  0  0  0  0  0  0  0  0
   -4.2264    5.6166   -2.2558 H   0  0  0  0  0  0  0  0  0  0  0  0
   -4.7726    7.7739   -2.5082 H   0  0  0  0  0  0  0  0  0  0  0  0
   -6.1992    8.4180   -0.0795 H   0  0  0  0  0  0  0  0  0  0  0  0
   -4.8539    7.2255    0.2546 H   0  0  0  0  0  0  0  0  0  0  0  0
   -4.5025    9.8562   -1.2285 H   0  0  0  0  0  0  0  0  0  0  0  0
   -4.1678    9.5892    0.5331 H   0  0  0  0  0  0  0  0  0  0  0  0
   -3.2652    7.7280   -1.2965 H   0  0  0  0  0  0  0  0  0  0  0  0
   -1.8380   11.3797   -0.1285 H   0  0  0  0  0  0  0  0  0  0  0  0
   -0.9408   11.4321   -1.6838 H   0  0  0  0  0  0  0  0  0  0  0  0
   -2.7293   11.2652   -1.6838 H   0  0  0  0  0  0  0  0  0  0  0  0
    0.2393    8.5412   -1.2036 H   0  0  0  0  0  0  0  0  0  0  0  0
   -0.8836    8.1029   -2.5354 H   0  0  0  0  0  0  0  0  0  0  0  0
   -0.0724    9.7056   -2.5354 H   0  0  0  0  0  0  0  0  0  0  0  0
   -6.9100    8.6575   -2.2877 H   0  0  0  0  0  0  0  0  0  0  0  0
   -7.0838    7.5656   -4.4365 H   0  0  0  0  0  0  0  0  0  0  0  0
   -6.5495    6.0061   -3.7734 H   0  0  0  0  0  0  0  0  0  0  0  0
   -9.2402    6.6889   -4.4483 H   0  0  0  0  0  0  0  0  0  0  0  0
   -8.7926    5.3060   -3.4529 H   0  0  0  0  0  0  0  0  0  0  0  0
   -9.7762    9.2330   -1.9488 H   0  0  0  0  0  0  0  0  0  0  0  0
   -8.7858    8.9465   -3.4197 H   0  0  0  0  0  0  0  0  0  0  0  0
  -10.5340    8.5338   -3.4197 H   0  0  0  0  0  0  0  0  0  0  0  0
  -10.1583    5.4261   -1.4552 H   0  0  0  0  0  0  0  0  0  0  0  0
  -11.4404    6.2353   -3.5394 H   0  0  0  0  0  0  0  0  0  0  0  0
  -12.3216    5.4657   -2.1178 H   0  0  0  0  0  0  0  0  0  0  0  0
  -13.4753    7.5707   -3.2042 H   0  0  0  0  0  0  0  0  0  0  0  0
  -10.9829    9.1438   -0.4451 H   0  0  0  0  0  0  0  0  0  0  0  0
  -13.2320    7.8427    1.2108 H   0  0  0  0  0  0  0  0  0  0  0  0
  -11.7738    8.7244    1.8496 H   0  0  0  0  0  0  0  0  0  0  0  0
  -13.8196   10.1139    1.9328 H   0  0  0  0  0  0  0  0  0  0  0  0
  -12.5468   10.7945    0.8455 H   0  0  0  0  0  0  0  0  0  0  0  0
  -14.6792   11.0129   -0.2337 H   0  0  0  0  0  0  0  0  0  0  0  0
  -15.2590    8.8150    1.0300 H   0  0  0  0  0  0  0  0  0  0  0  0
  -12.3351   11.4119   -1.0610 H   0  0  0  0  0  0  0  0  0  0  0  0
  -11.8619   10.5423   -2.5598 H   0  0  0  0  0  0  0  0  0  0  0  0
  -13.3048   11.6121   -2.5598 H   0  0  0  0  0  0  0  0  0  0  0  0
  -15.7020    9.5346   -2.1051 H   0  0  0  0  0  0  0  0  0  0  0  0
  -14.7136   10.5163   -3.2390 H   0  0  0  0  0  0  0  0  0  0  0  0
  -14.5675    8.7260   -3.2390 H   0  0  0  0  0  0  0  0  0  0  0  0
  -11.5347    6.0854    1.6591 H   0  0  0  0  0  0  0  0  0  0  0  0
  -12.7064    5.9814    0.3015 H   0  0  0  0  0  0  0  0  0  0  0  0
  -11.2376    4.9472    0.3015 H   0  0  0  0  0  0  0  0  0  0  0  0
   -9.8448    8.0806    1.4373 H   0  0  0  0  0  0  0  0  0  0  0  0
   -9.2488    6.3674    1.0558 H   0  0  0  0  0  0  0  0  0  0  0  0
   -8.5547    8.9330   -0.3998 H   0  0  0  0  0  0  0  0  0  0  0  0
   -7.4756    7.8636    0.5791 H   0  0  0  0  0  0  0  0  0  0  0  0
   -7.6707    5.5801    0.2496 H   0  0  0  0  0  0  0  0  0  0  0  0
   -8.4234    4.8951   -1.2306 H   0  0  0  0  0  0  0  0  0  0  0  0
   -6.6823    5.3373   -1.2306 H   0  0  0  0  0  0  0  0  0  0  0  0
  1  2  1  0
  2  3  1  0
  3  4  1  0
  4  5  1  0
  5  6  1  0
  6  7  1  0
  7  8  1  0
  7  9  1  0
  2 10  1  0
 10 11  1  0
 11 12  1  0
 12 13  1  0
 13 14  1  6
 13 15  1  0
 15 16  1  0
 16 17  1  0
 17 18  2  0
 18 19  1  0
 19 20  1  0
 20 21  1  0
 21 22  1  0
 22 23  1  0
 22 24  1  0
 24 25  1  0
 24 26  1  0
 19 27  1  0
 27 28  1  1
 27 29  1  0
 29 30  1  0
 30 31  1  0
 31 32  1  1
  7  5  1  0
 31 10  1  0
 31 13  1  0
 27 15  1  0
 24 18  1  0
  1 33  1  0
  1 34  1  0
  1 35  1  0
  2 36  1  6
  3 37  1  0
  3 38  1  0
  4 39  1  0
  4 40  1  0
  5 41  1  6
  8 42  1  0
  8 43  1  0
  8 44  1  0
  9 45  1  0
  9 46  1  0
  9 47  1  0
 10 48  1  6
 11 49  1  0
 11 50  1  0
 12 51  1  0
 12 52  1  0
 14 53  1  0
 14 54  1  0
 14 55  1  0
 15 56  1  1
 16 57  1  0
 16 58  1  0
 17 59  1  0
 19 60  1  6
 20 61  1  0
 20 62  1  0
 21 63  1  0
 21 64  1  0
 22 65  1  6
 23 66  1  0
 25 67  1  0
 25 68  1  0
 25 69  1  0
 26 70  1  0
 26 71  1  0
 26 72  1  0
 28 73  1  0
 28 74  1  0
 28 75  1  0
 29 76  1  0
 29 77  1  0
 30 78  1  0
 30 79  1  0
 32 80  1  0
 32 81  1  0
 32 82  1  0
M  END
>  <meeko>  (2) 
{"is_sidechain": [false], "intermolecular_energy": 2.731, "internal_energy": -0.839}

$$$$
EPH_relaxed_0001_pdb2pqr_Repair_304_r2_0001_out
     RDKit          3D

 82 86  0  0  0  0  0  0  0  0999 V2000
    0.8790   18.0140    0.2930 C   0  0  0  0  0  0  0  0  0  0  0  0
    1.8660   16.8840   -0.0180 C   0  0  2  0  0  0  0  0  0  0  0  0
    3.0690   17.3770   -0.8460 C   0  0  0  0  0  0  0  0  0  0  0  0
    4.2240   17.9130    0.0050 C   0  0  0  0  0  0  0  0  0  0  0  0
    3.7400   18.4570    1.3150 C   0  0  2  0  0  0  0  0  0  0  0  0
    3.9060   19.8720    1.4740 O   0  0  0  0  0  0  0  0  0  0  0  0
    4.6620   19.0410    2.3690 C   0  0  0  0  0  0  0  0  0  0  0  0
    6.1420   19.1100    2.1610 C   0  0  0  0  0  0  0  0  0  0  0  0
    4.1840   19.0930    3.7870 C   0  0  0  0  0  0  0  0  0  0  0  0
    1.1510   15.7590   -0.7560 C   0  0  1  0  0  0  0  0  0  0  0  0
    0.8520   16.1120   -2.2380 C   0  0  0  0  0  0  0  0  0  0  0  0
    0.9910   14.7970   -3.0480 C   0  0  0  0  0  0  0  0  0  0  0  0
    1.0360   13.6820   -1.9760 C   0  0  1  0  0  0  0  0  0  0  0  0
   -0.4570   13.4350   -1.5920 C   0  0  0  0  0  0  0  0  0  0  0  0
    1.7520   12.3550   -2.3890 C   0  0  2  0  0  0  0  0  0  0  0  0
    1.1030   11.6010   -3.5630 C   0  0  0  0  0  0  0  0  0  0  0  0
    0.0700   10.5940   -3.1810 C   0  0  0  0  0  0  0  0  0  0  0  0
   -0.1220   10.1020   -1.9430 C   0  0  0  0  0  0  0  0  0  0  0  0
    0.8130   10.4850   -0.7890 C   0  0  1  0  0  0  0  0  0  0  0  0
    1.2170    9.2100   -0.0040 C   0  0  0  0  0  0  0  0  0  0  0  0
    0.0100    8.4050    0.4670 C   0  0  0  0  0  0  0  0  0  0  0  0
   -0.8650    7.9920   -0.7150 C   0  0  2  0  0  0  0  0  0  0  0  0
   -0.1370    7.0630   -1.5240 O   0  0  0  0  0  0  0  0  0  0  0  0
   -1.3250    9.1950   -1.5850 C   0  0  0  0  0  0  0  0  0  0  0  0
   -2.3560   10.0420   -0.7990 C   0  0  0  0  0  0  0  0  0  0  0  0
   -2.0790    8.6290   -2.8190 C   0  0  0  0  0  0  0  0  0  0  0  0
    2.0640   11.3840   -1.1800 C   0  0  1  0  0  0  0  0  0  0  0  0
    3.2500   10.4770   -1.6310 C   0  0  0  0  0  0  0  0  0  0  0  0
    2.5600   12.1590    0.0980 C   0  0  0  0  0  0  0  0  0  0  0  0
    1.8970   13.5190    0.3860 C   0  0  0  0  0  0  0  0  0  0  0  0
    1.8870   14.4000   -0.8670 C   0  0  2  0  0  0  0  0  0  0  0  0
    3.3760   14.6840   -1.2650 C   0  0  0  0  0  0  0  0  0  0  0  0
    0.7813   18.1259    1.3829 H   0  0  0  0  0  0  0  0  0  0  0  0
    1.2500   18.9545   -0.1403 H   0  0  0  0  0  0  0  0  0  0  0  0
   -0.1029   17.7728   -0.1403 H   0  0  0  0  0  0  0  0  0  0  0  0
    2.2558   16.5106    0.9404 H   0  0  0  0  0  0  0  0  0  0  0  0
    3.4430   16.5367   -1.4493 H   0  0  0  0  0  0  0  0  0  0  0  0
    2.7118   18.2126   -1.4659 H   0  0  0  0  0  0  0  0  0  0  0  0
    4.9337   17.0952    0.1987 H   0  0  0  0  0  0  0  0  0  0  0  0
    4.7077   18.7311   -0.5488 H   0  0  0  0  0  0  0  0  0  0  0  0
    2.9490   17.6943    1.3668 H   0  0  0  0  0  0  0  0  0  0  0  0
    6.6487   19.1336    3.1370 H   0  0  0  0  0  0  0  0  0  0  0  0
    6.4745   18.2264    1.5965 H   0  0  0  0  0  0  0  0  0  0  0  0
    6.3909   20.0207    1.5965 H   0  0  0  0  0  0  0  0  0  0  0  0
    5.0433   18.9995    4.4673 H   0  0  0  0  0  0  0  0  0  0  0  0
    3.6759   20.0517    3.9677 H   0  0  0  0  0  0  0  0  0  0  0  0
    3.4816   18.2660    3.9677 H   0  0  0  0  0  0  0  0  0  0  0  0
    0.2627   15.6542   -0.1157 H   0  0  0  0  0  0  0  0  0  0  0  0
   -0.1690   16.5099   -2.3340 H   0  0  0  0  0  0  0  0  0  0  0  0
    1.5469   16.8797   -2.6091 H   0  0  0  0  0  0  0  0  0  0  0  0
    0.1279   14.6591   -3.7159 H   0  0  0  0  0  0  0  0  0  0  0  0
    1.8840   14.7948   -3.6903 H   0  0  0  0  0  0  0  0  0  0  0  0
   -0.5560   13.4186   -0.4966 H   0  0  0  0  0  0  0  0  0  0  0  0
   -1.0801   14.2423   -2.0044 H   0  0  0  0  0  0  0  0  0  0  0  0
   -0.7869   12.4701   -2.0044 H   0  0  0  0  0  0  0  0  0  0  0  0
    2.7201   12.7168   -2.7658 H   0  0  0  0  0  0  0  0  0  0  0  0
    0.6275   12.3425   -4.2218 H   0  0  0  0  0  0  0  0  0  0  0  0
    1.9135   11.0367   -4.0474 H   0  0  0  0  0  0  0  0  0  0  0  0
   -0.5902   10.2225   -3.9785 H   0  0  0  0  0  0  0  0  0  0  0  0
    0.2331   11.1552   -0.1374 H   0  0  0  0  0  0  0  0  0  0  0  0
    1.8317    8.5737   -0.6576 H   0  0  0  0  0  0  0  0  0  0  0  0
    1.7732    9.5305    0.8892 H   0  0  0  0  0  0  0  0  0  0  0  0
    0.3606    7.5021    0.9883 H   0  0  0  0  0  0  0  0  0  0  0  0
   -0.5880    9.0322    1.1445 H   0  0  0  0  0  0  0  0  0  0  0  0
   -1.7776    7.5330   -0.3069 H   0  0  0  0  0  0  0  0  0  0  0  0
   -0.7860    6.5110   -1.9940 H   0  0  0  0  0  0  0  0  0  0  0  0
   -2.1934    9.9084    0.2807 H   0  0  0  0  0  0  0  0  0  0  0  0
   -2.2333   11.1036   -1.0597 H   0  0  0  0  0  0  0  0  0  0  0  0
   -3.3736    9.7156   -1.0597 H   0  0  0  0  0  0  0  0  0  0  0  0
   -2.9161    8.0006   -2.4807 H   0  0  0  0  0  0  0  0  0  0  0  0
   -2.4667    9.4610   -3.4252 H   0  0  0  0  0  0  0  0  0  0  0  0
   -1.3883    8.0244   -3.4252 H   0  0  0  0  0  0  0  0  0  0  0  0
    3.7670   10.0816   -0.7442 H   0  0  0  0  0  0  0  0  0  0  0  0
    2.8641    9.6414   -2.2334 H   0  0  0  0  0  0  0  0  0  0  0  0
    3.9553   11.0683   -2.2334 H   0  0  0  0  0  0  0  0  0  0  0  0
    2.3833   11.5114    0.9694 H   0  0  0  0  0  0  0  0  0  0  0  0
    3.6175   12.3899   -0.0977 H   0  0  0  0  0  0  0  0  0  0  0  0
    0.8613   13.3517    0.7166 H   0  0  0  0  0  0  0  0  0  0  0  0
    2.4734   14.0312    1.1705 H   0  0  0  0  0  0  0  0  0  0  0  0
    3.9831   14.7998   -0.3550 H   0  0  0  0  0  0  0  0  0  0  0  0
    3.7633   13.8435   -1.8597 H   0  0  0  0  0  0  0  0  0  0  0  0
    3.4267   15.6080   -1.8597 H   0  0  0  0  0  0  0  0  0  0  0  0
  1  2  1  0
  2  3  1  0
  3  4  1  0
  4  5  1  0
  5  6  1  0
  6  7  1  0
  7  8  1  0
  7  9  1  0
  2 10  1  0
 10 11  1  0
 11 12  1  0
 12 13  1  0
 13 14  1  1
 13 15  1  0
 15 16  1  0
 16 17  1  0
 17 18  2  0
 18 19  1  0
 19 20  1  0
 20 21  1  0
 21 22  1  0
 22 23  1  0
 22 24  1  0
 24 25  1  0
 24 26  1  0
 19 27  1  0
 27 28  1  6
 27 29  1  0
 29 30  1  0
 30 31  1  0
 31 32  1  6
  7  5  1  0
 31 10  1  0
 31 13  1  0
 27 15  1  0
 24 18  1  0
  1 33  1  0
  1 34  1  0
  1 35  1  0
  2 36  1  1
  3 37  1  0
  3 38  1  0
  4 39  1  0
  4 40  1  0
  5 41  1  1
  8 42  1  0
  8 43  1  0
  8 44  1  0
  9 45  1  0
  9 46  1  0
  9 47  1  0
 10 48  1  1
 11 49  1  0
 11 50  1  0
 12 51  1  0
 12 52  1  0
 14 53  1  0
 14 54  1  0
 14 55  1  0
 15 56  1  6
 16 57  1  0
 16 58  1  0
 17 59  1  0
 19 60  1  1
 20 61  1  0
 20 62  1  0
 21 63  1  0
 21 64  1  0
 22 65  1  1
 23 66  1  0
 25 67  1  0
 25 68  1  0
 25 69  1  0
 26 70  1  0
 26 71  1  0
 26 72  1  0
 28 73  1  0
 28 74  1  0
 28 75  1  0
 29 76  1  0
 29 77  1  0
 30 78  1  0
 30 79  1  0
 32 80  1  0
 32 81  1  0
 32 82  1  0
M  END
>  <meeko>  (3) 
{"is_sidechain": [false], "intermolecular_energy": 2.731, "internal_energy": -0.839}

$$$$
EPH_relaxed_0001_pdb2pqr_Repair_304_r2_0001_out
     RDKit          3D

 82 86  0  0  0  0  0  0  0  0999 V2000
   -3.7290    7.2060   -3.4210 C   0  0  0  0  0  0  0  0  0  0  0  0
   -3.7520    7.2870   -1.8920 C   0  0  2  0  0  0  0  0  0  0  0  0
   -5.1670    7.0660   -1.3210 C   0  0  0  0  0  0  0  0  0  0  0  0
   -6.2840    7.2530   -2.3510 C   0  0  0  0  0  0  0  0  0  0  0  0
   -7.6120    7.4770   -1.6950 C   0  0  2  0  0  0  0  0  0  0  0  0
   -8.2070    6.3000   -1.1310 O   0  0  0  0  0  0  0  0  0  0  0  0
   -8.9140    6.9060   -2.2260 C   0  0  0  0  0  0  0  0  0  0  0  0
   -8.9510    6.0670   -3.4640 C   0  0  0  0  0  0  0  0  0  0  0  0
  -10.1990    7.5610   -1.8240 C   0  0  0  0  0  0  0  0  0  0  0  0
   -3.2100    8.6360   -1.4350 C   0  0  1  0  0  0  0  0  0  0  0  0
   -3.8290    9.1030   -0.0900 C   0  0  0  0  0  0  0  0  0  0  0  0
   -2.7140    9.8620    0.6750 C   0  0  0  0  0  0  0  0  0  0  0  0
   -1.6060   10.0940   -0.3790 C   0  0  1  0  0  0  0  0  0  0  0  0
   -2.0770   11.3440   -1.1870 C   0  0  0  0  0  0  0  0  0  0  0  0
   -0.1550   10.2770    0.1730 C   0  0  2  0  0  0  0  0  0  0  0  0
    0.0490   11.5030    1.0800 C   0  0  0  0  0  0  0  0  0  0  0  0
    0.4600   12.7540    0.3780 C   0  0  0  0  0  0  0  0  0  0  0  0
    0.9330   12.8260   -0.8800 C   0  0  0  0  0  0  0  0  0  0  0  0
    1.1870   11.5540   -1.7000 C   0  0  1  0  0  0  0  0  0  0  0  0
    2.5770   11.6470   -2.3810 C   0  0  0  0  0  0  0  0  0  0  0  0
    2.7390   12.9180   -3.2110 C   0  0  0  0  0  0  0  0  0  0  0  0
    2.5360   14.1610   -2.3480 C   0  0  2  0  0  0  0  0  0  0  0  0
    3.6040   14.2430   -1.3990 O   0  0  0  0  0  0  0  0  0  0  0  0
    1.1720   14.1740   -1.6040 C   0  0  0  0  0  0  0  0  0  0  0  0
    0.0250   14.3900   -2.6220 C   0  0  0  0  0  0  0  0  0  0  0  0
    1.1540   15.4090   -0.6620 C   0  0  0  0  0  0  0  0  0  0  0  0
    0.9750   10.1800   -0.9300 C   0  0  1  0  0  0  0  0  0  0  0  0
    2.2870    9.7770   -0.1900 C   0  0  0  0  0  0  0  0  0  0  0  0
    0.6900    9.0420   -1.9800 C   0  0  0  0  0  0  0  0  0  0  0  0
   -0.7780    8.8320   -2.3960 C   0  0  0  0  0  0  0  0  0  0  0  0
   -1.6880    8.7360   -1.1670 C   0  0  2  0  0  0  0  0  0  0  0  0
   -1.2520    7.4750   -0.3460 C   0  0  0  0  0  0  0  0  0  0  0  0
   -3.4406    6.1905   -3.7301 H   0  0  0  0  0  0  0  0  0  0  0  0
   -4.7289    7.4393   -3.8156 H   0  0  0  0  0  0  0  0  0  0  0  0
   -3.0009    7.9300   -3.8156 H   0  0  0  0  0  0  0  0  0  0  0  0
   -3.1111    6.4799   -1.5075 H   0  0  0  0  0  0  0  0  0  0  0  0
   -5.2261    6.0405   -0.9274 H   0  0  0  0  0  0  0  0  0  0  0  0
   -5.3201    7.8256   -0.5402 H   0  0  0  0  0  0  0  0  0  0  0  0
   -6.0462    8.1232   -2.9805 H   0  0  0  0  0  0  0  0  0  0  0  0
   -6.3505    6.3357   -2.9545 H   0  0  0  0  0  0  0  0  0  0  0  0
   -7.3200    8.4947   -1.3967 H   0  0  0  0  0  0  0  0  0  0  0  0
   -8.9979    5.0039   -3.1852 H   0  0  0  0  0  0  0  0  0  0  0  0
   -9.8384    6.3296   -4.0585 H   0  0  0  0  0  0  0  0  0  0  0  0
   -8.0439    6.2505   -4.0585 H   0  0  0  0  0  0  0  0  0  0  0  0
  -10.2656    7.5949   -0.7265 H   0  0  0  0  0  0  0  0  0  0  0  0
  -10.2298    8.5848   -2.2251 H   0  0  0  0  0  0  0  0  0  0  0  0
  -11.0456    6.9844   -2.2251 H   0  0  0  0  0  0  0  0  0  0  0  0
   -3.4795    9.2493   -2.3075 H   0  0  0  0  0  0  0  0  0  0  0  0
   -4.6824    9.7713   -0.2774 H   0  0  0  0  0  0  0  0  0  0  0  0
   -4.1968    8.2467    0.4944 H   0  0  0  0  0  0  0  0  0  0  0  0
   -3.0909   10.8211    1.0598 H   0  0  0  0  0  0  0  0  0  0  0  0
   -2.3491    9.2993    1.5469 H   0  0  0  0  0  0  0  0  0  0  0  0
   -2.3769   12.1399   -0.4894 H   0  0  0  0  0  0  0  0  0  0  0  0
   -1.2525   11.7031   -1.8205 H   0  0  0  0  0  0  0  0  0  0  0  0
   -2.9335   11.0698   -1.8205 H   0  0  0  0  0  0  0  0  0  0  0  0
   -0.0396    9.3998    0.8266 H   0  0  0  0  0  0  0  0  0  0  0  0
   -0.8990   11.7016    1.6013 H   0  0  0  0  0  0  0  0  0  0  0  0
    0.8782   11.2469    1.7558 H   0  0  0  0  0  0  0  0  0  0  0  0
    0.3686   13.6975    0.9361 H   0  0  0  0  0  0  0  0  0  0  0  0
    0.3978   11.5219   -2.4656 H   0  0  0  0  0  0  0  0  0  0  0  0
    3.3530   11.6337   -1.6015 H   0  0  0  0  0  0  0  0  0  0  0  0
    2.6727   10.7889   -3.0626 H   0  0  0  0  0  0  0  0  0  0  0  0
    3.7507   12.9401   -3.6423 H   0  0  0  0  0  0  0  0  0  0  0  0
    1.9816   12.9161   -4.0087 H   0  0  0  0  0  0  0  0  0  0  0  0
    2.5344   15.0323   -3.0194 H   0  0  0  0  0  0  0  0  0  0  0  0
    4.3470   13.7210   -1.7460 H   0  0  0  0  0  0  0  0  0  0  0  0
   -0.9165   14.5673   -2.0814 H   0  0  0  0  0  0  0  0  0  0  0  0
    0.2546   15.2607   -3.2538 H   0  0  0  0  0  0  0  0  0  0  0  0
   -0.0778   13.4954   -3.2538 H   0  0  0  0  0  0  0  0  0  0  0  0
    1.1589   15.0717    0.3850 H   0  0  0  0  0  0  0  0  0  0  0  0
    2.0432   16.0280   -0.8520 H   0  0  0  0  0  0  0  0  0  0  0  0
    0.2471   16.0019   -0.8520 H   0  0  0  0  0  0  0  0  0  0  0  0
    2.1250    9.8268    0.8969 H   0  0  0  0  0  0  0  0  0  0  0  0
    2.5670    8.7514   -0.4724 H   0  0  0  0  0  0  0  0  0  0  0  0
    3.0945   10.4685   -0.4724 H   0  0  0  0  0  0  0  0  0  0  0  0
    1.2630    9.2770   -2.8891 H   0  0  0  0  0  0  0  0  0  0  0  0
    0.9832    8.1079   -1.4785 H   0  0  0  0  0  0  0  0  0  0  0  0
   -1.1008    9.6804   -3.0174 H   0  0  0  0  0  0  0  0  0  0  0  0
   -0.8512    7.8910   -2.9610 H   0  0  0  0  0  0  0  0  0  0  0  0
   -1.3276    7.6935    0.7294 H   0  0  0  0  0  0  0  0  0  0  0  0
   -1.9100    6.6295   -0.5955 H   0  0  0  0  0  0  0  0  0  0  0  0
   -0.2123    7.2165   -0.5955 H   0  0  0  0  0  0  0  0  0  0  0  0
  1  2  1  0
  2  3  1  0
  3  4  1  0
  4  5  1  0
  5  6  1  0
  6  7  1  0
  7  8  1  0
  7  9  1  0
  2 10  1  0
 10 11  1  0
 11 12  1  0
 12 13  1  0
 13 14  1  6
 13 15  1  0
 15 16  1  0
 16 17  1  0
 17 18  2  0
 18 19  1  0
 19 20  1  0
 20 21  1  0
 21 22  1  0
 22 23  1  0
 22 24  1  0
 24 25  1  0
 24 26  1  0
 19 27  1  0
 27 28  1  1
 27 29  1  0
 29 30  1  0
 30 31  1  0
 31 32  1  1
  7  5  1  0
 31 10  1  0
 31 13  1  0
 27 15  1  0
 24 18  1  0
  1 33  1  0
  1 34  1  0
  1 35  1  0
  2 36  1  1
  3 37  1  0
  3 38  1  0
  4 39  1  0
  4 40  1  0
  5 41  1  1
  8 42  1  0
  8 43  1  0
  8 44  1  0
  9 45  1  0
  9 46  1  0
  9 47  1  0
 10 48  1  6
 11 49  1  0
 11 50  1  0
 12 51  1  0
 12 52  1  0
 14 53  1  0
 14 54  1  0
 14 55  1  0
 15 56  1  1
 16 57  1  0
 16 58  1  0
 17 59  1  0
 19 60  1  6
 20 61  1  0
 20 62  1  0
 21 63  1  0
 21 64  1  0
 22 65  1  6
 23 66  1  0
 25 67  1  0
 25 68  1  0
 25 69  1  0
 26 70  1  0
 26 71  1  0
 26 72  1  0
 28 73  1  0
 28 74  1  0
 28 75  1  0
 29 76  1  0
 29 77  1  0
 30 78  1  0
 30 79  1  0
 32 80  1  0
 32 81  1  0
 32 82  1  0
M  END
>  <meeko>  (4) 
{"is_sidechain": [false], "intermolecular_energy": 2.731, "internal_energy": -0.839}

$$$$
EPH_relaxed_0001_pdb2pqr_Repair_304_r2_0001_out
     RDKit          3D

 82 86  0  0  0  0  0  0  0  0999 V2000
   -0.2930   15.2810   -7.3820 C   0  0  0  0  0  0  0  0  0  0  0  0
    1.1140   15.1500   -6.7930 C   0  0  2  0  0  0  0  0  0  0  0  0
    2.2080   15.2300   -7.8770 C   0  0  0  0  0  0  0  0  0  0  0  0
    2.1850   16.5340   -8.6800 C   0  0  0  0  0  0  0  0  0  0  0  0
    1.7820   16.3010  -10.1040 C   0  0  2  0  0  0  0  0  0  0  0  0
    1.1540   15.0360  -10.3500 O   0  0  0  0  0  0  0  0  0  0  0  0
    2.4200   15.2500  -10.9930 C   0  0  0  0  0  0  0  0  0  0  0  0
    3.5160   14.3630  -10.4900 C   0  0  0  0  0  0  0  0  0  0  0  0
    2.3230   15.4130  -12.4780 C   0  0  0  0  0  0  0  0  0  0  0  0
    1.2370   13.8390   -6.0250 C   0  0  1  0  0  0  0  0  0  0  0  0
    2.6460   13.2020   -6.1530 C   0  0  0  0  0  0  0  0  0  0  0  0
    2.9510   12.5160   -4.7960 C   0  0  0  0  0  0  0  0  0  0  0  0
    1.5920   12.4920   -4.0570 C   0  0  1  0  0  0  0  0  0  0  0  0
    0.8340   11.2640   -4.6510 C   0  0  0  0  0  0  0  0  0  0  0  0
    1.6560   12.4320   -2.4960 C   0  0  2  0  0  0  0  0  0  0  0  0
    2.3200   11.1700   -1.9180 C   0  0  0  0  0  0  0  0  0  0  0  0
    1.3950   10.0310   -1.6450 C   0  0  0  0  0  0  0  0  0  0  0  0
    0.0520   10.1110   -1.5840 C   0  0  0  0  0  0  0  0  0  0  0  0
   -0.6620   11.4630   -1.7040 C   0  0  1  0  0  0  0  0  0  0  0  0
   -1.7390   11.5810   -0.5930 C   0  0  0  0  0  0  0  0  0  0  0  0
   -2.7110   10.4050   -0.5940 C   0  0  0  0  0  0  0  0  0  0  0  0
   -1.9690    9.0830   -0.4140 C   0  0  2  0  0  0  0  0  0  0  0  0
   -1.4020    9.0490    0.9000 O   0  0  0  0  0  0  0  0  0  0  0  0
   -0.8520    8.8590   -1.4710 C   0  0  0  0  0  0  0  0  0  0  0  0
   -1.4920    8.5960   -2.8570 C   0  0  0  0  0  0  0  0  0  0  0  0
   -0.0900    7.5610   -1.0920 C   0  0  0  0  0  0  0  0  0  0  0  0
    0.2800   12.7410   -1.7780 C   0  0  1  0  0  0  0  0  0  0  0  0
    0.6280   13.2300   -0.3390 C   0  0  0  0  0  0  0  0  0  0  0  0
   -0.5040   13.9180   -2.4700 C   0  0  0  0  0  0  0  0  0  0  0  0
   -0.4300   13.9940   -4.0070 C   0  0  0  0  0  0  0  0  0  0  0  0
    1.0190   13.8900   -4.4920 C   0  0  2  0  0  0  0  0  0  0  0  0
    1.8020   15.1240   -3.9290 C   0  0  0  0  0  0  0  0  0  0  0  0
   -1.0273   15.3494   -6.5658 H   0  0  0  0  0  0  0  0  0  0  0  0
   -0.3481   16.1882   -8.0017 H   0  0  0  0  0  0  0  0  0  0  0  0
   -0.5146   14.3996   -8.0017 H   0  0  0  0  0  0  0  0  0  0  0  0
    1.2653   15.9975   -6.1083 H   0  0  0  0  0  0  0  0  0  0  0  0
    3.1890   15.1409   -7.3875 H   0  0  0  0  0  0  0  0  0  0  0  0
    2.0173   14.4118   -8.5871 H   0  0  0  0  0  0  0  0  0  0  0  0
    1.4675   17.2262   -8.2152 H   0  0  0  0  0  0  0  0  0  0  0  0
    3.2004   16.9571   -8.6759 H   0  0  0  0  0  0  0  0  0  0  0  0
    1.5919   17.3746  -10.2499 H   0  0  0  0  0  0  0  0  0  0  0  0
    3.5136   14.3650   -9.3900 H   0  0  0  0  0  0  0  0  0  0  0  0
    3.3549   13.3380  -10.8552 H   0  0  0  0  0  0  0  0  0  0  0  0
    4.4849   14.7343  -10.8552 H   0  0  0  0  0  0  0  0  0  0  0  0
    1.7732   16.3370  -12.7103 H   0  0  0  0  0  0  0  0  0  0  0  0
    3.3341   15.4702  -12.9074 H   0  0  0  0  0  0  0  0  0  0  0  0
    1.7905   14.5516  -12.9074 H   0  0  0  0  0  0  0  0  0  0  0  0
    0.4257   13.2690   -6.5014 H   0  0  0  0  0  0  0  0  0  0  0  0
    2.6535   12.4585   -6.9636 H   0  0  0  0  0  0  0  0  0  0  0  0
    3.4038   13.9632   -6.3902 H   0  0  0  0  0  0  0  0  0  0  0  0
    3.3257   11.4938   -4.9531 H   0  0  0  0  0  0  0  0  0  0  0  0
    3.7271   13.0469   -4.2252 H   0  0  0  0  0  0  0  0  0  0  0  0
    0.4486   10.6396   -3.8315 H   0  0  0  0  0  0  0  0  0  0  0  0
   -0.0047   11.6152   -5.2701 H   0  0  0  0  0  0  0  0  0  0  0  0
    1.5238   10.6717   -5.2701 H   0  0  0  0  0  0  0  0  0  0  0  0
    2.3350   13.2636   -2.2563 H   0  0  0  0  0  0  0  0  0  0  0  0
    3.0795   10.8265   -2.6357 H   0  0  0  0  0  0  0  0  0  0  0  0
    2.7361   11.4644   -0.9432 H   0  0  0  0  0  0  0  0  0  0  0  0
    1.8485    9.0426   -1.4796 H   0  0  0  0  0  0  0  0  0  0  0  0
   -1.1438   11.4649   -2.6929 H   0  0  0  0  0  0  0  0  0  0  0  0
   -1.2350   11.6212    0.3839 H   0  0  0  0  0  0  0  0  0  0  0  0
   -2.3199   12.4948   -0.7865 H   0  0  0  0  0  0  0  0  0  0  0  0
   -3.4283   10.5303    0.2305 H   0  0  0  0  0  0  0  0  0  0  0  0
   -3.2355   10.3842   -1.5607 H   0  0  0  0  0  0  0  0  0  0  0  0
   -2.6993    8.2723   -0.5532 H   0  0  0  0  0  0  0  0  0  0  0  0
   -0.8060    9.8120    0.9830 H   0  0  0  0  0  0  0  0  0  0  0  0
   -2.5017    8.1811   -2.7218 H   0  0  0  0  0  0  0  0  0  0  0  0
   -1.5557    9.5408   -3.4167 H   0  0  0  0  0  0  0  0  0  0  0  0
   -0.8730    7.8794   -3.4167 H   0  0  0  0  0  0  0  0  0  0  0  0
   -0.0382    7.4728    0.0032 H   0  0  0  0  0  0  0  0  0  0  0  0
   -0.6204    6.6905   -1.5053 H   0  0  0  0  0  0  0  0  0  0  0  0
    0.9287    7.5999   -1.5053 H   0  0  0  0  0  0  0  0  0  0  0  0
    0.1549   12.5651    0.3986 H   0  0  0  0  0  0  0  0  0  0  0  0
    1.7191   13.2142   -0.2002 H   0  0  0  0  0  0  0  0  0  0  0  0
    0.2556   14.2557   -0.2002 H   0  0  0  0  0  0  0  0  0  0  0  0
   -1.5639   13.8201   -2.1925 H   0  0  0  0  0  0  0  0  0  0  0  0
   -0.0165   14.8372   -2.1130 H   0  0  0  0  0  0  0  0  0  0  0  0
   -1.0135   13.1664   -4.4367 H   0  0  0  0  0  0  0  0  0  0  0  0
   -0.8394   14.9624   -4.3303 H   0  0  0  0  0  0  0  0  0  0  0  0
    1.7856   15.0981   -2.8294 H   0  0  0  0  0  0  0  0  0  0  0  0
    2.8436   15.0891   -4.2811 H   0  0  0  0  0  0  0  0  0  0  0  0
    1.3268   16.0515   -4.2811 H   0  0  0  0  0  0  0  0  0  0  0  0
  1  2  1  0
  2  3  1  0
  3  4  1  0
  4  5  1  0
  5  6  1  0
  6  7  1  0
  7  8  1  0
  7  9  1  0
  2 10  1  0
 10 11  1  0
 11 12  1  0
 12 13  1  0
 13 14  1  6
 13 15  1  0
 15 16  1  0
 16 17  1  0
 17 18  2  0
 18 19  1  0
 19 20  1  0
 20 21  1  0
 21 22  1  0
 22 23  1  0
 22 24  1  0
 24 25  1  0
 24 26  1  0
 19 27  1  0
 27 28  1  1
 27 29  1  0
 29 30  1  0
 30 31  1  0
 31 32  1  1
  7  5  1  0
 31 10  1  0
 31 13  1  0
 27 15  1  0
 24 18  1  0
  1 33  1  0
  1 34  1  0
  1 35  1  0
  2 36  1  1
  3 37  1  0
  3 38  1  0
  4 39  1  0
  4 40  1  0
  5 41  1  6
  8 42  1  0
  8 43  1  0
  8 44  1  0
  9 45  1  0
  9 46  1  0
  9 47  1  0
 10 48  1  6
 11 49  1  0
 11 50  1  0
 12 51  1  0
 12 52  1  0
 14 53  1  0
 14 54  1  0
 14 55  1  0
 15 56  1  1
 16 57  1  0
 16 58  1  0
 17 59  1  0
 19 60  1  6
 20 61  1  0
 20 62  1  0
 21 63  1  0
 21 64  1  0
 22 65  1  1
 23 66  1  0
 25 67  1  0
 25 68  1  0
 25 69  1  0
 26 70  1  0
 26 71  1  0
 26 72  1  0
 28 73  1  0
 28 74  1  0
 28 75  1  0
 29 76  1  0
 29 77  1  0
 30 78  1  0
 30 79  1  0
 32 80  1  0
 32 81  1  0
 32 82  1  0
M  END
>  <meeko>  (5) 
{"is_sidechain": [false], "intermolecular_energy": 2.731, "internal_energy": -0.839}

$$$$
EPH_relaxed_0001_pdb2pqr_Repair_304_r2_0001_out
     RDKit          3D

 82 86  0  0  0  0  0  0  0  0999 V2000
    3.9700   17.1080    0.9140 C   0  0  0  0  0  0  0  0  0  0  0  0
    3.0080   17.4340   -0.2320 C   0  0  2  0  0  0  0  0  0  0  0  0
    2.4310   18.8590   -0.1180 C   0  0  0  0  0  0  0  0  0  0  0  0
    1.4040   19.0190    1.0060 C   0  0  0  0  0  0  0  0  0  0  0  0
    0.2650   19.9020    0.5960 C   0  0  2  0  0  0  0  0  0  0  0  0
   -0.6730   20.1940    1.6400 O   0  0  0  0  0  0  0  0  0  0  0  0
   -1.1760   19.4330    0.5300 C   0  0  0  0  0  0  0  0  0  0  0  0
   -1.5560   18.0280    0.8790 C   0  0  0  0  0  0  0  0  0  0  0  0
   -2.1370   20.1900   -0.3340 C   0  0  0  0  0  0  0  0  0  0  0  0
    1.8760   16.4140   -0.2670 C   0  0  1  0  0  0  0  0  0  0  0  0
    0.5260   17.0360   -0.7140 C   0  0  0  0  0  0  0  0  0  0  0  0
   -0.2170   15.9490   -1.5330 C   0  0  0  0  0  0  0  0  0  0  0  0
    0.5670   14.6460   -1.2530 C   0  0  1  0  0  0  0  0  0  0  0  0
    0.0360   14.1470    0.1270 C   0  0  0  0  0  0  0  0  0  0  0  0
    0.4680   13.5320   -2.3460 C   0  0  2  0  0  0  0  0  0  0  0  0
   -0.9460   12.9730   -2.5820 C   0  0  0  0  0  0  0  0  0  0  0  0
   -1.3130   11.7920   -1.7450 C   0  0  0  0  0  0  0  0  0  0  0  0
   -0.4500   11.0280   -1.0500 C   0  0  0  0  0  0  0  0  0  0  0  0
    1.0630   11.2660   -1.1410 C   0  0  1  0  0  0  0  0  0  0  0  0
    1.7900    9.9100   -1.3420 C   0  0  0  0  0  0  0  0  0  0  0  0
    1.4240    8.8860   -0.2730 C   0  0  0  0  0  0  0  0  0  0  0  0
   -0.0810    8.6330   -0.2520 C   0  0  2  0  0  0  0  0  0  0  0  0
   -0.4570    7.9900   -1.4740 O   0  0  0  0  0  0  0  0  0  0  0  0
   -0.9180    9.9290   -0.0640 C   0  0  0  0  0  0  0  0  0  0  0  0
   -0.7370   10.4610    1.3790 C   0  0  0  0  0  0  0  0  0  0  0  0
   -2.4180    9.5530   -0.2040 C   0  0  0  0  0  0  0  0  0  0  0  0
    1.5300   12.3700   -2.1850 C   0  0  1  0  0  0  0  0  0  0  0  0
    1.7040   11.7280   -3.5950 C   0  0  0  0  0  0  0  0  0  0  0  0
    2.9480   12.9090   -1.7640 C   0  0  0  0  0  0  0  0  0  0  0  0
    2.9770   14.0890   -0.7740 C   0  0  0  0  0  0  0  0  0  0  0  0
    2.0340   15.2080   -1.2270 C   0  0  2  0  0  0  0  0  0  0  0  0
    2.5560   15.7450   -2.6030 C   0  0  0  0  0  0  0  0  0  0  0  0
    3.4653   17.2790    1.8763 H   0  0  0  0  0  0  0  0  0  0  0  0
    4.2796   16.0548    0.8445 H   0  0  0  0  0  0  0  0  0  0  0  0
    4.8561   17.7560    0.8445 H   0  0  0  0  0  0  0  0  0  0  0  0
    3.5813   17.3844   -1.1695 H   0  0  0  0  0  0  0  0  0  0  0  0
    3.2613   19.5560    0.0685 H   0  0  0  0  0  0  0  0  0  0  0  0
    1.9092   19.0711   -1.0628 H   0  0  0  0  0  0  0  0  0  0  0  0
    1.0085   18.0274    1.2710 H   0  0  0  0  0  0  0  0  0  0  0  0
    1.9071   19.4860    1.8655 H   0  0  0  0  0  0  0  0  0  0  0  0
    0.9037   20.4277   -0.1291 H   0  0  0  0  0  0  0  0  0  0  0  0
   -1.5860   17.9172    1.9730 H   0  0  0  0  0  0  0  0  0  0  0  0
   -2.5477   17.8016    0.4602 H   0  0  0  0  0  0  0  0  0  0  0  0
   -0.8137   17.3326    0.4602 H   0  0  0  0  0  0  0  0  0  0  0  0
   -2.8423   20.7455    0.3016 H   0  0  0  0  0  0  0  0  0  0  0  0
   -1.5815   20.8958   -0.9691 H   0  0  0  0  0  0  0  0  0  0  0  0
   -2.6931   19.4847   -0.9691 H   0  0  0  0  0  0  0  0  0  0  0  0
    1.9056   16.0697    0.7773 H   0  0  0  0  0  0  0  0  0  0  0  0
   -0.0697   17.3209    0.1657 H   0  0  0  0  0  0  0  0  0  0  0  0
    0.6884   17.9423   -1.3158 H   0  0  0  0  0  0  0  0  0  0  0  0
   -1.2600   15.8545   -1.1966 H   0  0  0  0  0  0  0  0  0  0  0  0
   -0.2571   16.1895   -2.6056 H   0  0  0  0  0  0  0  0  0  0  0  0
    0.5795   14.6578    0.9355 H   0  0  0  0  0  0  0  0  0  0  0  0
   -1.0380   14.3702    0.2091 H   0  0  0  0  0  0  0  0  0  0  0  0
    0.1921   13.0612    0.2091 H   0  0  0  0  0  0  0  0  0  0  0  0
    0.7297   14.0784   -3.2641 H   0  0  0  0  0  0  0  0  0  0  0  0
   -1.6682   13.7758   -2.3723 H   0  0  0  0  0  0  0  0  0  0  0  0
   -0.9652   12.6244   -3.6251 H   0  0  0  0  0  0  0  0  0  0  0  0
   -2.3785   11.5239   -1.6920 H   0  0  0  0  0  0  0  0  0  0  0  0
    1.3593   11.7088   -0.1786 H   0  0  0  0  0  0  0  0  0  0  0  0
    1.5149    9.5050   -2.3270 H   0  0  0  0  0  0  0  0  0  0  0  0
    2.8715   10.0970   -1.2688 H   0  0  0  0  0  0  0  0  0  0  0  0
    1.9449    7.9410   -0.4865 H   0  0  0  0  0  0  0  0  0  0  0  0
    1.7274    9.2795    0.7084 H   0  0  0  0  0  0  0  0  0  0  0  0
   -0.2959    7.9929    0.6164 H   0  0  0  0  0  0  0  0  0  0  0  0
    0.3230    7.5170   -1.8100 H   0  0  0  0  0  0  0  0  0  0  0  0
   -1.0054    9.6721    2.0970 H   0  0  0  0  0  0  0  0  0  0  0  0
    0.3118   10.7551    1.5325 H   0  0  0  0  0  0  0  0  0  0  0  0
   -1.3888   11.3337    1.5325 H   0  0  0  0  0  0  0  0  0  0  0  0
   -2.8629    9.4415    0.7958 H   0  0  0  0  0  0  0  0  0  0  0  0
   -2.9452   10.3468   -0.7535 H   0  0  0  0  0  0  0  0  0  0  0  0
   -2.5085    8.6044   -0.7535 H   0  0  0  0  0  0  0  0  0  0  0  0
    1.9903   10.6717   -3.4841 H   0  0  0  0  0  0  0  0  0  0  0  0
    0.7554   11.7947   -4.1479 H   0  0  0  0  0  0  0  0  0  0  0  0
    2.4891   12.2646   -4.1479 H   0  0  0  0  0  0  0  0  0  0  0  0
    3.4978   12.0749   -1.3036 H   0  0  0  0  0  0  0  0  0  0  0  0
    3.3940   13.2997   -2.6905 H   0  0  0  0  0  0  0  0  0  0  0  0
    2.6632   13.7337    0.2186 H   0  0  0  0  0  0  0  0  0  0  0  0
    4.0012   14.4882   -0.7340 H   0  0  0  0  0  0  0  0  0  0  0  0
    3.3131   16.5239   -2.4293 H   0  0  0  0  0  0  0  0  0  0  0  0
    3.0047   14.9181   -3.1729 H   0  0  0  0  0  0  0  0  0  0  0  0
    1.7167   16.1701   -3.1729 H   0  0  0  0  0  0  0  0  0  0  0  0
  1  2  1  0
  2  3  1  0
  3  4  1  0
  4  5  1  0
  5  6  1  0
  6  7  1  0
  7  8  1  0
  7  9  1  0
  2 10  1  0
 10 11  1  0
 11 12  1  0
 12 13  1  0
 13 14  1  1
 13 15  1  0
 15 16  1  0
 16 17  1  0
 17 18  2  0
 18 19  1  0
 19 20  1  0
 20 21  1  0
 21 22  1  0
 22 23  1  0
 22 24  1  0
 24 25  1  0
 24 26  1  0
 19 27  1  0
 27 28  1  6
 27 29  1  0
 29 30  1  0
 30 31  1  0
 31 32  1  6
  7  5  1  0
 31 10  1  0
 31 13  1  0
 27 15  1  0
 24 18  1  0
  1 33  1  0
  1 34  1  0
  1 35  1  0
  2 36  1  6
  3 37  1  0
  3 38  1  0
  4 39  1  0
  4 40  1  0
  5 41  1  6
  8 42  1  0
  8 43  1  0
  8 44  1  0
  9 45  1  0
  9 46  1  0
  9 47  1  0
 10 48  1  1
 11 49  1  0
 11 50  1  0
 12 51  1  0
 12 52  1  0
 14 53  1  0
 14 54  1  0
 14 55  1  0
 15 56  1  6
 16 57  1  0
 16 58  1  0
 17 59  1  0
 19 60  1  1
 20 61  1  0
 20 62  1  0
 21 63  1  0
 21 64  1  0
 22 65  1  1
 23 66  1  0
 25 67  1  0
 25 68  1  0
 25 69  1  0
 26 70  1  0
 26 71  1  0
 26 72  1  0
 28 73  1  0
 28 74  1  0
 28 75  1  0
 29 76  1  0
 29 77  1  0
 30 78  1  0
 30 79  1  0
 32 80  1  0
 32 81  1  0
 32 82  1  0
M  END
>  <meeko>  (6) 
{"is_sidechain": [false], "intermolecular_energy": 2.731, "internal_energy": -0.839}

$$$$
EPH_relaxed_0001_pdb2pqr_Repair_304_r2_0001_out
     RDKit          3D

 82 86  0  0  0  0  0  0  0  0999 V2000
   -0.9320   16.2210   -5.9070 C   0  0  0  0  0  0  0  0  0  0  0  0
    0.2520   15.5690   -6.6260 C   0  0  2  0  0  0  0  0  0  0  0  0
   -0.0000   15.4170   -8.1390 C   0  0  0  0  0  0  0  0  0  0  0  0
    0.6440   16.5190   -8.9850 C   0  0  0  0  0  0  0  0  0  0  0  0
    2.0110   16.1280   -9.4570 C   0  0  2  0  0  0  0  0  0  0  0  0
    2.3890   16.6820  -10.7240 O   0  0  0  0  0  0  0  0  0  0  0  0
    2.2580   15.2520  -10.6720 C   0  0  0  0  0  0  0  0  0  0  0  0
    1.1260   14.7140  -11.4890 C   0  0  0  0  0  0  0  0  0  0  0  0
    3.5620   14.5240  -10.7760 C   0  0  0  0  0  0  0  0  0  0  0  0
    0.5510   14.2080   -6.0080 C   0  0  1  0  0  0  0  0  0  0  0  0
    1.7710   13.5090   -6.6640 C   0  0  0  0  0  0  0  0  0  0  0  0
    2.4950   12.7250   -5.5390 C   0  0  0  0  0  0  0  0  0  0  0  0
    1.4960   12.7250   -4.3590 C   0  0  1  0  0  0  0  0  0  0  0  0
    0.4910   11.5760   -4.6850 C   0  0  0  0  0  0  0  0  0  0  0  0
    2.1130   12.5640   -2.9310 C   0  0  2  0  0  0  0  0  0  0  0  0
    2.8500   11.2360   -2.6850 C   0  0  0  0  0  0  0  0  0  0  0  0
    2.0080   10.1300   -2.1390 C   0  0  0  0  0  0  0  0  0  0  0  0
    0.7870   10.2750   -1.5920 C   0  0  0  0  0  0  0  0  0  0  0  0
    0.1730   11.6660   -1.3900 C   0  0  1  0  0  0  0  0  0  0  0  0
   -0.4200   11.7690    0.0390 C   0  0  0  0  0  0  0  0  0  0  0  0
   -1.4070   10.6460    0.3450 C   0  0  0  0  0  0  0  0  0  0  0  0
   -0.7440    9.2800    0.1900 C   0  0  2  0  0  0  0  0  0  0  0  0
    0.2540    9.1340    1.2050 O   0  0  0  0  0  0  0  0  0  0  0  0
   -0.1020    9.0660   -1.2090 C   0  0  0  0  0  0  0  0  0  0  0  0
   -1.2140    8.9220   -2.2760 C   0  0  0  0  0  0  0  0  0  0  0  0
    0.6530    7.7090   -1.1840 C   0  0  0  0  0  0  0  0  0  0  0  0
    1.1120   12.8970   -1.7510 C   0  0  1  0  0  0  0  0  0  0  0  0
    1.9890   13.2770   -0.5180 C   0  0  0  0  0  0  0  0  0  0  0  0
    0.2160   14.1530   -2.0630 C   0  0  0  0  0  0  0  0  0  0  0  0
   -0.2630   14.3210   -3.5180 C   0  0  0  0  0  0  0  0  0  0  0  0
    0.9030   14.1740   -4.5000 C   0  0  2  0  0  0  0  0  0  0  0  0
    1.9210   15.3300   -4.2100 C   0  0  0  0  0  0  0  0  0  0  0  0
   -0.7889   16.1422   -4.8192 H   0  0  0  0  0  0  0  0  0  0  0  0
   -0.9956   17.2814   -6.1926 H   0  0  0  0  0  0  0  0  0  0  0  0
   -1.8621   15.7079   -6.1926 H   0  0  0  0  0  0  0  0  0  0  0  0
    1.1206   16.2323   -6.5010 H   0  0  0  0  0  0  0  0  0  0  0  0
    0.4072   14.4479   -8.4631 H   0  0  0  0  0  0  0  0  0  0  0  0
   -1.0869   15.4884   -8.2922 H   0  0  0  0  0  0  0  0  0  0  0  0
    0.0071   16.7146   -9.8603 H   0  0  0  0  0  0  0  0  0  0  0  0
    0.7416   17.4186   -8.3595 H   0  0  0  0  0  0  0  0  0  0  0  0
    2.3786   16.0748   -8.4216 H   0  0  0  0  0  0  0  0  0  0  0  0
    0.3371   14.3390  -10.8204 H   0  0  0  0  0  0  0  0  0  0  0  0
    0.7188   15.5149  -12.1236 H   0  0  0  0  0  0  0  0  0  0  0  0
    1.4899   13.8925  -12.1236 H   0  0  0  0  0  0  0  0  0  0  0  0
    3.9443   14.3106   -9.7669 H   0  0  0  0  0  0  0  0  0  0  0  0
    3.4121   13.5790  -11.3188 H   0  0  0  0  0  0  0  0  0  0  0  0
    4.2877   15.1475  -11.3188 H   0  0  0  0  0  0  0  0  0  0  0  0
   -0.4152   13.7111   -6.1798 H   0  0  0  0  0  0  0  0  0  0  0  0
    1.4339   12.8181   -7.4508 H   0  0  0  0  0  0  0  0  0  0  0  0
    2.4441   14.2438   -7.1298 H   0  0  0  0  0  0  0  0  0  0  0  0
    2.7148   11.6967   -5.8618 H   0  0  0  0  0  0  0  0  0  0  0  0
    3.4600   13.1786   -5.2688 H   0  0  0  0  0  0  0  0  0  0  0  0
    0.1123   11.1431   -3.7474 H   0  0  0  0  0  0  0  0  0  0  0  0
   -0.3498   11.9789   -5.2687 H   0  0  0  0  0  0  0  0  0  0  0  0
    1.0023   10.7963   -5.2687 H   0  0  0  0  0  0  0  0  0  0  0  0
    2.8895   13.3431   -2.9201 H   0  0  0  0  0  0  0  0  0  0  0  0
    3.2731   10.8997   -3.6431 H   0  0  0  0  0  0  0  0  0  0  0  0
    3.6092   11.4473   -1.9176 H   0  0  0  0  0  0  0  0  0  0  0  0
    2.4204    9.1114   -2.1881 H   0  0  0  0  0  0  0  0  0  0  0  0
   -0.6320   11.7535   -2.1345 H   0  0  0  0  0  0  0  0  0  0  0  0
    0.4035   11.7228    0.7668 H   0  0  0  0  0  0  0  0  0  0  0  0
   -0.9663   12.7214    0.1061 H   0  0  0  0  0  0  0  0  0  0  0  0
   -1.7682   10.7557    1.3782 H   0  0  0  0  0  0  0  0  0  0  0  0
   -2.2451   10.7121   -0.3644 H   0  0  0  0  0  0  0  0  0  0  0  0
   -1.5304    8.5179    0.2939 H   0  0  0  0  0  0  0  0  0  0  0  0
   -0.0480    9.6270    1.9870 H   0  0  0  0  0  0  0  0  0  0  0  0
   -2.1864    8.7961   -1.7775 H   0  0  0  0  0  0  0  0  0  0  0  0
   -1.2383    9.8245   -2.9044 H   0  0  0  0  0  0  0  0  0  0  0  0
   -1.0076    8.0431   -2.9044 H   0  0  0  0  0  0  0  0  0  0  0  0
    0.8231    7.4032   -0.1411 H   0  0  0  0  0  0  0  0  0  0  0  0
    0.0505    6.9447   -1.6966 H   0  0  0  0  0  0  0  0  0  0  0  0
    1.6202    7.8180   -1.6966 H   0  0  0  0  0  0  0  0  0  0  0  0
    1.4430   13.0404    0.4072 H   0  0  0  0  0  0  0  0  0  0  0  0
    2.9283   12.7051   -0.5459 H   0  0  0  0  0  0  0  0  0  0  0  0
    2.2141   14.3534   -0.5459 H   0  0  0  0  0  0  0  0  0  0  0  0
   -0.6770   14.0917   -1.4237 H   0  0  0  0  0  0  0  0  0  0  0  0
    0.8621   15.0222   -1.8706 H   0  0  0  0  0  0  0  0  0  0  0  0
   -1.0185   13.5526   -3.7390 H   0  0  0  0  0  0  0  0  0  0  0  0
   -0.6922   15.3274   -3.6317 H   0  0  0  0  0  0  0  0  0  0  0  0
    2.0323   15.4564   -3.1230 H   0  0  0  0  0  0  0  0  0  0  0  0
    2.8966   15.0789   -4.6518 H   0  0  0  0  0  0  0  0  0  0  0  0
    1.5485   16.2660   -4.6518 H   0  0  0  0  0  0  0  0  0  0  0  0
  1  2  1  0
  2  3  1  0
  3  4  1  0
  4  5  1  0
  5  6  1  0
  6  7  1  0
  7  8  1  0
  7  9  1  0
  2 10  1  0
 10 11  1  0
 11 12  1  0
 12 13  1  0
 13 14  1  6
 13 15  1  0
 15 16  1  0
 16 17  1  0
 17 18  2  0
 18 19  1  0
 19 20  1  0
 20 21  1  0
 21 22  1  0
 22 23  1  0
 22 24  1  0
 24 25  1  0
 24 26  1  0
 19 27  1  0
 27 28  1  1
 27 29  1  0
 29 30  1  0
 30 31  1  0
 31 32  1  6
  7  5  1  0
 31 10  1  0
 31 13  1  0
 27 15  1  0
 24 18  1  0
  1 33  1  0
  1 34  1  0
  1 35  1  0
  2 36  1  6
  3 37  1  0
  3 38  1  0
  4 39  1  0
  4 40  1  0
  5 41  1  1
  8 42  1  0
  8 43  1  0
  8 44  1  0
  9 45  1  0
  9 46  1  0
  9 47  1  0
 10 48  1  1
 11 49  1  0
 11 50  1  0
 12 51  1  0
 12 52  1  0
 14 53  1  0
 14 54  1  0
 14 55  1  0
 15 56  1  6
 16 57  1  0
 16 58  1  0
 17 59  1  0
 19 60  1  6
 20 61  1  0
 20 62  1  0
 21 63  1  0
 21 64  1  0
 22 65  1  1
 23 66  1  0
 25 67  1  0
 25 68  1  0
 25 69  1  0
 26 70  1  0
 26 71  1  0
 26 72  1  0
 28 73  1  0
 28 74  1  0
 28 75  1  0
 29 76  1  0
 29 77  1  0
 30 78  1  0
 30 79  1  0
 32 80  1  0
 32 81  1  0
 32 82  1  0
M  END
>  <meeko>  (7) 
{"is_sidechain": [false], "intermolecular_energy": 2.731, "internal_energy": -0.839}

$$$$
EPH_relaxed_0001_pdb2pqr_Repair_304_r2_0001_out
     RDKit          3D

 82 86  0  0  0  0  0  0  0  0999 V2000
    0.9430   14.7450   -2.5730 C   0  0  0  0  0  0  0  0  0  0  0  0
    1.1770   14.0730   -3.9290 C   0  0  2  0  0  0  0  0  0  0  0  0
    0.4620   14.8140   -5.0760 C   0  0  0  0  0  0  0  0  0  0  0  0
    1.1020   14.5900   -6.4480 C   0  0  0  0  0  0  0  0  0  0  0  0
    0.8790   15.7570   -7.3620 C   0  0  2  0  0  0  0  0  0  0  0  0
    0.3800   15.4130   -8.6610 O   0  0  0  0  0  0  0  0  0  0  0  0
    1.6910   16.0010   -8.6210 C   0  0  0  0  0  0  0  0  0  0  0  0
    2.7880   15.0710   -9.0340 C   0  0  0  0  0  0  0  0  0  0  0  0
    1.7460   17.3890   -9.1780 C   0  0  0  0  0  0  0  0  0  0  0  0
    0.7130   12.6220   -3.8770 C   0  0  1  0  0  0  0  0  0  0  0  0
    1.8480   11.6190   -4.2160 C   0  0  0  0  0  0  0  0  0  0  0  0
    1.6120   10.3630   -3.3390 C   0  0  0  0  0  0  0  0  0  0  0  0
    0.1820   10.5430   -2.7780 C   0  0  1  0  0  0  0  0  0  0  0  0
   -0.7630   10.0720   -3.9280 C   0  0  0  0  0  0  0  0  0  0  0  0
   -0.1320    9.8050   -1.4350 C   0  0  2  0  0  0  0  0  0  0  0  0
   -0.0370    8.2700   -1.4970 C   0  0  0  0  0  0  0  0  0  0  0  0
   -1.3050    7.5670   -1.8530 C   0  0  0  0  0  0  0  0  0  0  0  0
   -2.5350    8.1150   -1.8360 C   0  0  0  0  0  0  0  0  0  0  0  0
   -2.7520    9.5480   -1.3330 C   0  0  1  0  0  0  0  0  0  0  0  0
   -3.9620    9.5790   -0.3630 C   0  0  0  0  0  0  0  0  0  0  0  0
   -5.2220    8.9800   -0.9810 C   0  0  0  0  0  0  0  0  0  0  0  0
   -4.9830    7.5360   -1.4150 C   0  0  2  0  0  0  0  0  0  0  0  0
   -4.7680    6.7340   -0.2490 O   0  0  0  0  0  0  0  0  0  0  0  0
   -3.7810    7.3790   -2.3870 C   0  0  0  0  0  0  0  0  0  0  0  0
   -4.1400    7.9940   -3.7620 C   0  0  0  0  0  0  0  0  0  0  0  0
   -3.5620    5.8620   -2.6340 C   0  0  0  0  0  0  0  0  0  0  0  0
   -1.4710   10.2740   -0.7350 C   0  0  1  0  0  0  0  0  0  0  0  0
   -1.3250    9.9320    0.7800 C   0  0  0  0  0  0  0  0  0  0  0  0
   -1.6770   11.8330   -0.8210 C   0  0  0  0  0  0  0  0  0  0  0  0
   -1.2370   12.5210   -2.1270 C   0  0  0  0  0  0  0  0  0  0  0  0
    0.1800   12.0940   -2.5220 C   0  0  2  0  0  0  0  0  0  0  0  0
    1.1560   12.5740   -1.3940 C   0  0  0  0  0  0  0  0  0  0  0  0
    1.1890   14.0386   -1.7664 H   0  0  0  0  0  0  0  0  0  0  0  0
    1.5842   15.6349   -2.4893 H   0  0  0  0  0  0  0  0  0  0  0  0
   -0.1122   15.0442   -2.4893 H   0  0  0  0  0  0  0  0  0  0  0  0
    2.2569   14.1110   -4.1347 H   0  0  0  0  0  0  0  0  0  0  0  0
   -0.5803   14.4650   -5.1181 H   0  0  0  0  0  0  0  0  0  0  0  0
    0.5366   15.8898   -4.8588 H   0  0  0  0  0  0  0  0  0  0  0  0
    2.1840   14.4420   -6.3165 H   0  0  0  0  0  0  0  0  0  0  0  0
    0.6350   13.7042   -6.9033 H   0  0  0  0  0  0  0  0  0  0  0  0
    0.6252   16.4056   -6.5106 H   0  0  0  0  0  0  0  0  0  0  0  0
    3.2752   14.6580   -8.1384 H   0  0  0  0  0  0  0  0  0  0  0  0
    2.3669   14.2506   -9.6336 H   0  0  0  0  0  0  0  0  0  0  0  0
    3.5284   15.6207   -9.6336 H   0  0  0  0  0  0  0  0  0  0  0  0
    1.7748   18.1147   -8.3519 H   0  0  0  0  0  0  0  0  0  0  0  0
    2.6493   17.5007   -9.7958 H   0  0  0  0  0  0  0  0  0  0  0  0
    0.8544   17.5718   -9.7958 H   0  0  0  0  0  0  0  0  0  0  0  0
   -0.1041   12.6636   -4.6123 H   0  0  0  0  0  0  0  0  0  0  0  0
    1.8094   11.3495   -5.2818 H   0  0  0  0  0  0  0  0  0  0  0  0
    2.8363   12.0592   -4.0173 H   0  0  0  0  0  0  0  0  0  0  0  0
    1.6791    9.4476   -3.9453 H   0  0  0  0  0  0  0  0  0  0  0  0
    2.3636   10.2631   -2.5421 H   0  0  0  0  0  0  0  0  0  0  0  0
   -1.6687    9.6206   -3.4967 H   0  0  0  0  0  0  0  0  0  0  0  0
   -1.0437   10.9356   -4.5488 H   0  0  0  0  0  0  0  0  0  0  0  0
   -0.2424    9.3279   -4.5488 H   0  0  0  0  0  0  0  0  0  0  0  0
    0.6960   10.1298   -0.7878 H   0  0  0  0  0  0  0  0  0  0  0  0
    0.7207    8.0064   -2.2495 H   0  0  0  0  0  0  0  0  0  0  0  0
    0.2192    7.9394   -0.4796 H   0  0  0  0  0  0  0  0  0  0  0  0
   -1.2281    6.5120   -2.1548 H   0  0  0  0  0  0  0  0  0  0  0  0
   -2.9735   10.1531   -2.2245 H   0  0  0  0  0  0  0  0  0  0  0  0
   -3.7051    9.0056    0.5399 H   0  0  0  0  0  0  0  0  0  0  0  0
   -4.1739   10.6322   -0.1266 H   0  0  0  0  0  0  0  0  0  0  0  0
   -6.0333    9.0032   -0.2385 H   0  0  0  0  0  0  0  0  0  0  0  0
   -5.4945    9.5725   -1.8668 H   0  0  0  0  0  0  0  0  0  0  0  0
   -5.8758    7.2049   -1.9657 H   0  0  0  0  0  0  0  0  0  0  0  0
   -5.5620    6.8040    0.3070 H   0  0  0  0  0  0  0  0  0  0  0  0
   -4.6893    8.9350   -3.6106 H   0  0  0  0  0  0  0  0  0  0  0  0
   -3.2172    8.1948   -4.3261 H   0  0  0  0  0  0  0  0  0  0  0  0
   -4.7685    7.2892   -4.3261 H   0  0  0  0  0  0  0  0  0  0  0  0
   -3.4867    5.3404   -1.6685 H   0  0  0  0  0  0  0  0  0  0  0  0
   -4.4110    5.4570   -3.2043 H   0  0  0  0  0  0  0  0  0  0  0  0
   -2.6331    5.7137   -3.2043 H   0  0  0  0  0  0  0  0  0  0  0  0
   -1.6861   10.7779    1.3833 H   0  0  0  0  0  0  0  0  0  0  0  0
   -1.9190    9.0358    1.0125 H   0  0  0  0  0  0  0  0  0  0  0  0
   -0.2669    9.7411    1.0125 H   0  0  0  0  0  0  0  0  0  0  0  0
   -2.7495   12.0350   -0.6835 H   0  0  0  0  0  0  0  0  0  0  0  0
   -1.0250   12.2528   -0.0409 H   0  0  0  0  0  0  0  0  0  0  0  0
   -1.9337   12.2440   -2.9319 H   0  0  0  0  0  0  0  0  0  0  0  0
   -1.2438   13.6096   -1.9691 H   0  0  0  0  0  0  0  0  0  0  0  0
    0.7144   12.3568   -0.4102 H   0  0  0  0  0  0  0  0  0  0  0  0
    2.1157   12.0451   -1.4900 H   0  0  0  0  0  0  0  0  0  0  0  0
    1.3230   13.6570   -1.4900 H   0  0  0  0  0  0  0  0  0  0  0  0
  1  2  1  0
  2  3  1  0
  3  4  1  0
  4  5  1  0
  5  6  1  0
  6  7  1  0
  7  8  1  0
  7  9  1  0
  2 10  1  0
 10 11  1  0
 11 12  1  0
 12 13  1  0
 13 14  1  6
 13 15  1  0
 15 16  1  0
 16 17  1  0
 17 18  2  0
 18 19  1  0
 19 20  1  0
 20 21  1  0
 21 22  1  0
 22 23  1  0
 22 24  1  0
 24 25  1  0
 24 26  1  0
 19 27  1  0
 27 28  1  1
 27 29  1  0
 29 30  1  0
 30 31  1  0
 31 32  1  1
  7  5  1  0
 31 10  1  0
 31 13  1  0
 27 15  1  0
 24 18  1  0
  1 33  1  0
  1 34  1  0
  1 35  1  0
  2 36  1  6
  3 37  1  0
  3 38  1  0
  4 39  1  0
  4 40  1  0
  5 41  1  1
  8 42  1  0
  8 43  1  0
  8 44  1  0
  9 45  1  0
  9 46  1  0
  9 47  1  0
 10 48  1  6
 11 49  1  0
 11 50  1  0
 12 51  1  0
 12 52  1  0
 14 53  1  0
 14 54  1  0
 14 55  1  0
 15 56  1  1
 16 57  1  0
 16 58  1  0
 17 59  1  0
 19 60  1  6
 20 61  1  0
 20 62  1  0
 21 63  1  0
 21 64  1  0
 22 65  1  6
 23 66  1  0
 25 67  1  0
 25 68  1  0
 25 69  1  0
 26 70  1  0
 26 71  1  0
 26 72  1  0
 28 73  1  0
 28 74  1  0
 28 75  1  0
 29 76  1  0
 29 77  1  0
 30 78  1  0
 30 79  1  0
 32 80  1  0
 32 81  1  0
 32 82  1  0
M  END
>  <meeko>  (8) 
{"is_sidechain": [false], "intermolecular_energy": 2.731, "internal_energy": -0.839}

$$$$
EPH_relaxed_0001_pdb2pqr_Repair_304_r2_0001_out
     RDKit          3D

 82 86  0  0  0  0  0  0  0  0999 V2000
   -2.2250    7.8750   -2.3920 C   0  0  0  0  0  0  0  0  0  0  0  0
   -2.4510    8.2110   -0.9160 C   0  0  2  0  0  0  0  0  0  0  0  0
   -3.9000    8.6590   -0.6380 C   0  0  0  0  0  0  0  0  0  0  0  0
   -4.8950    7.4990   -0.5430 C   0  0  0  0  0  0  0  0  0  0  0  0
   -5.6850    7.3420   -1.8060 C   0  0  2  0  0  0  0  0  0  0  0  0
   -6.6180    8.3990   -2.0650 O   0  0  0  0  0  0  0  0  0  0  0  0
   -7.1830    7.0990   -1.8320 C   0  0  0  0  0  0  0  0  0  0  0  0
   -7.9790    7.0000   -0.5690 C   0  0  0  0  0  0  0  0  0  0  0  0
   -7.7860    6.4760   -3.0520 C   0  0  0  0  0  0  0  0  0  0  0  0
   -1.4770    9.2980   -0.4750 C   0  0  1  0  0  0  0  0  0  0  0  0
   -0.4680    8.7980    0.5930 C   0  0  0  0  0  0  0  0  0  0  0  0
    0.8720    9.5280    0.3200 C   0  0  0  0  0  0  0  0  0  0  0  0
    0.5050   10.6570   -0.6720 C   0  0  1  0  0  0  0  0  0  0  0  0
   -0.0800   11.7980    0.2170 C   0  0  0  0  0  0  0  0  0  0  0  0
    1.6620   11.1740   -1.5880 C   0  0  2  0  0  0  0  0  0  0  0  0
    2.8450   11.8170   -0.8440 C   0  0  0  0  0  0  0  0  0  0  0  0
    2.7370   13.2900   -0.6260 C   0  0  0  0  0  0  0  0  0  0  0  0
    1.8760   14.1120   -1.2540 C   0  0  0  0  0  0  0  0  0  0  0  0
    0.9570   13.5900   -2.3660 C   0  0  1  0  0  0  0  0  0  0  0  0
    0.9990   14.5640   -3.5730 C   0  0  0  0  0  0  0  0  0  0  0  0
    0.6770   16.0010   -3.1760 C   0  0  0  0  0  0  0  0  0  0  0  0
    1.6480   16.5040   -2.1110 C   0  0  2  0  0  0  0  0  0  0  0  0
    2.9540   16.6010   -2.6870 O   0  0  0  0  0  0  0  0  0  0  0  0
    1.6980   15.5970   -0.8510 C   0  0  0  0  0  0  0  0  0  0  0  0
    0.3730   15.7310   -0.0600 C   0  0  0  0  0  0  0  0  0  0  0  0
    2.8170   16.1370    0.0820 C   0  0  0  0  0  0  0  0  0  0  0  0
    1.1790   12.0760   -2.7950 C   0  0  1  0  0  0  0  0  0  0  0  0
    2.2890   11.9900   -3.8870 C   0  0  0  0  0  0  0  0  0  0  0  0
   -0.1410   11.5310   -3.4590 C   0  0  0  0  0  0  0  0  0  0  0  0
   -1.1940   10.9230   -2.5130 C   0  0  0  0  0  0  0  0  0  0  0  0
   -0.5550    9.9090   -1.5600 C   0  0  2  0  0  0  0  0  0  0  0  0
    0.0230    8.7380   -2.4250 C   0  0  0  0  0  0  0  0  0  0  0  0
   -1.6127    6.9646   -2.4712 H   0  0  0  0  0  0  0  0  0  0  0  0
   -3.1952    7.7082   -2.8828 H   0  0  0  0  0  0  0  0  0  0  0  0
   -1.7047    8.7107   -2.8828 H   0  0  0  0  0  0  0  0  0  0  0  0
   -2.2716    7.2933   -0.3367 H   0  0  0  0  0  0  0  0  0  0  0  0
   -3.9167    9.2098    0.3140 H   0  0  0  0  0  0  0  0  0  0  0  0
   -4.2128    9.2822   -1.4887 H   0  0  0  0  0  0  0  0  0  0  0  0
   -4.3405    6.5685   -0.3513 H   0  0  0  0  0  0  0  0  0  0  0  0
   -5.5969    7.7154    0.2759 H   0  0  0  0  0  0  0  0  0  0  0  0
   -4.8450    6.8261   -2.2941 H   0  0  0  0  0  0  0  0  0  0  0  0
   -7.3053    7.0838    0.2965 H   0  0  0  0  0  0  0  0  0  0  0  0
   -8.7193    7.8130   -0.5375 H   0  0  0  0  0  0  0  0  0  0  0  0
   -8.4976    6.0304   -0.5375 H   0  0  0  0  0  0  0  0  0  0  0  0
   -8.5216    5.7160   -2.7501 H   0  0  0  0  0  0  0  0  0  0  0  0
   -8.2851    7.2517   -3.6513 H   0  0  0  0  0  0  0  0  0  0  0  0
   -6.9944    6.0024   -3.6513 H   0  0  0  0  0  0  0  0  0  0  0  0
   -2.1925   10.0540   -0.1194 H   0  0  0  0  0  0  0  0  0  0  0  0
   -0.8329    9.0411    1.6018 H   0  0  0  0  0  0  0  0  0  0  0  0
   -0.3416    7.7068    0.5361 H   0  0  0  0  0  0  0  0  0  0  0  0
    1.2829    9.9468    1.2505 H   0  0  0  0  0  0  0  0  0  0  0  0
    1.6412    8.8524   -0.0823 H   0  0  0  0  0  0  0  0  0  0  0  0
    0.0521   11.5403    1.2782 H   0  0  0  0  0  0  0  0  0  0  0  0
    0.4469   12.7388   -0.0002 H   0  0  0  0  0  0  0  0  0  0  0  0
   -1.1515   11.9193   -0.0002 H   0  0  0  0  0  0  0  0  0  0  0  0
    2.0534   10.2424   -2.0226 H   0  0  0  0  0  0  0  0  0  0  0  0
    2.9309   11.3332    0.1402 H   0  0  0  0  0  0  0  0  0  0  0  0
    3.7254   11.6684   -1.4865 H   0  0  0  0  0  0  0  0  0  0  0  0
    3.4186   13.7415    0.1099 H   0  0  0  0  0  0  0  0  0  0  0  0
   -0.0563   13.5697   -1.9385 H   0  0  0  0  0  0  0  0  0  0  0  0
    2.0068   14.5371   -4.0130 H   0  0  0  0  0  0  0  0  0  0  0  0
    0.2343   14.2370   -4.2929 H   0  0  0  0  0  0  0  0  0  0  0  0
    0.7520   16.6452   -4.0645 H   0  0  0  0  0  0  0  0  0  0  0  0
   -0.3424   16.0310   -2.7637 H   0  0  0  0  0  0  0  0  0  0  0  0
    1.2886   17.4877   -1.7747 H   0  0  0  0  0  0  0  0  0  0  0  0
    3.0330   17.4810   -3.0930 H   0  0  0  0  0  0  0  0  0  0  0  0
    0.5863   15.7094    1.0189 H   0  0  0  0  0  0  0  0  0  0  0  0
   -0.1137   16.6830   -0.3186 H   0  0  0  0  0  0  0  0  0  0  0  0
   -0.2945   14.8958   -0.3186 H   0  0  0  0  0  0  0  0  0  0  0  0
    2.5202   15.9938    1.1315 H   0  0  0  0  0  0  0  0  0  0  0  0
    3.7518   15.5909   -0.1125 H   0  0  0  0  0  0  0  0  0  0  0  0
    2.9711   17.2086   -0.1125 H   0  0  0  0  0  0  0  0  0  0  0  0
    3.2740   11.9137   -3.4034 H   0  0  0  0  0  0  0  0  0  0  0  0
    2.1186   11.1024   -4.5140 H   0  0  0  0  0  0  0  0  0  0  0  0
    2.2573   12.8933   -4.5140 H   0  0  0  0  0  0  0  0  0  0  0  0
   -0.6159   12.3681   -3.9916 H   0  0  0  0  0  0  0  0  0  0  0  0
    0.1823   10.6996   -4.1026 H   0  0  0  0  0  0  0  0  0  0  0  0
   -1.6562   11.7287   -1.9238 H   0  0  0  0  0  0  0  0  0  0  0  0
   -1.9521   10.4051   -3.1189 H   0  0  0  0  0  0  0  0  0  0  0  0
    0.4118    7.9503   -1.7629 H   0  0  0  0  0  0  0  0  0  0  0  0
   -0.7738    8.3231   -3.0598 H   0  0  0  0  0  0  0  0  0  0  0  0
    0.8369    9.1182   -3.0598 H   0  0  0  0  0  0  0  0  0  0  0  0
  1  2  1  0
  2  3  1  0
  3  4  1  0
  4  5  1  0
  5  6  1  0
  6  7  1  0
  7  8  1  0
  7  9  1  0
  2 10  1  0
 10 11  1  0
 11 12  1  0
 12 13  1  0
 13 14  1  1
 13 15  1  0
 15 16  1  0
 16 17  1  0
 17 18  2  0
 18 19  1  0
 19 20  1  0
 20 21  1  0
 21 22  1  0
 22 23  1  0
 22 24  1  0
 24 25  1  0
 24 26  1  0
 19 27  1  0
 27 28  1  6
 27 29  1  0
 29 30  1  0
 30 31  1  0
 31 32  1  6
  7  5  1  0
 31 10  1  0
 31 13  1  0
 27 15  1  0
 24 18  1  0
  1 33  1  0
  1 34  1  0
  1 35  1  0
  2 36  1  1
  3 37  1  0
  3 38  1  0
  4 39  1  0
  4 40  1  0
  5 41  1  6
  8 42  1  0
  8 43  1  0
  8 44  1  0
  9 45  1  0
  9 46  1  0
  9 47  1  0
 10 48  1  1
 11 49  1  0
 11 50  1  0
 12 51  1  0
 12 52  1  0
 14 53  1  0
 14 54  1  0
 14 55  1  0
 15 56  1  6
 16 57  1  0
 16 58  1  0
 17 59  1  0
 19 60  1  1
 20 61  1  0
 20 62  1  0
 21 63  1  0
 21 64  1  0
 22 65  1  1
 23 66  1  0
 25 67  1  0
 25 68  1  0
 25 69  1  0
 26 70  1  0
 26 71  1  0
 26 72  1  0
 28 73  1  0
 28 74  1  0
 28 75  1  0
 29 76  1  0
 29 77  1  0
 30 78  1  0
 30 79  1  0
 32 80  1  0
 32 81  1  0
 32 82  1  0
M  END
>  <meeko>  (9) 
{"is_sidechain": [false], "intermolecular_energy": 2.731, "internal_energy": -0.839}

$$$$
EPH_relaxed_0001_pdb2pqr_Repair_304_r2_0001_out
     RDKit          3D

 82 86  0  0  0  0  0  0  0  0999 V2000
    3.3400   16.4930   -0.0440 C   0  0  0  0  0  0  0  0  0  0  0  0
    1.9630   16.9440   -0.5390 C   0  0  2  0  0  0  0  0  0  0  0  0
    1.1060   17.5450    0.5930 C   0  0  0  0  0  0  0  0  0  0  0  0
   -0.3970   17.5250    0.3040 C   0  0  0  0  0  0  0  0  0  0  0  0
   -0.7930   18.6130   -0.6480 C   0  0  2  0  0  0  0  0  0  0  0  0
   -0.6790   19.9410   -0.1210 O   0  0  0  0  0  0  0  0  0  0  0  0
   -2.0070   19.5000   -0.4460 C   0  0  0  0  0  0  0  0  0  0  0  0
   -2.9030   19.3390    0.7410 C   0  0  0  0  0  0  0  0  0  0  0  0
   -2.5950   20.1890   -1.6380 C   0  0  0  0  0  0  0  0  0  0  0  0
    1.2310   15.7710   -1.1800 C   0  0  1  0  0  0  0  0  0  0  0  0
    0.9240   16.0070   -2.6830 C   0  0  0  0  0  0  0  0  0  0  0  0
    1.0440   14.6300   -3.3860 C   0  0  0  0  0  0  0  0  0  0  0  0
    1.0860   13.6040   -2.2290 C   0  0  1  0  0  0  0  0  0  0  0  0
   -0.4060   13.4050   -1.8160 C   0  0  0  0  0  0  0  0  0  0  0  0
    1.7860   12.2410   -2.5390 C   0  0  2  0  0  0  0  0  0  0  0  0
    1.1200   11.4030   -3.6440 C   0  0  0  0  0  0  0  0  0  0  0  0
    0.0790   10.4400   -3.1750 C   0  0  0  0  0  0  0  0  0  0  0  0
   -0.1070   10.0510   -1.9000 C   0  0  0  0  0  0  0  0  0  0  0  0
    0.8410   10.5160   -0.7880 C   0  0  1  0  0  0  0  0  0  0  0  0
    1.2390    9.3030    0.0940 C   0  0  0  0  0  0  0  0  0  0  0  0
    0.0270    8.5510    0.6360 C   0  0  0  0  0  0  0  0  0  0  0  0
   -0.8610    8.0540   -0.5020 C   0  0  2  0  0  0  0  0  0  0  0  0
   -0.1500    7.0560   -1.2400 O   0  0  0  0  0  0  0  0  0  0  0  0
   -1.3170    9.1880   -1.4630 C   0  0  0  0  0  0  0  0  0  0  0  0
   -2.3330   10.1060   -0.7400 C   0  0  0  0  0  0  0  0  0  0  0  0
   -2.0860    8.5340   -2.6420 C   0  0  0  0  0  0  0  0  0  0  0  0
    2.0980   11.3660   -1.2580 C   0  0  1  0  0  0  0  0  0  0  0  0
    3.2700   10.4140   -1.6440 C   0  0  0  0  0  0  0  0  0  0  0  0
    2.6110   12.2360   -0.0500 C   0  0  0  0  0  0  0  0  0  0  0  0
    1.9640   13.6220    0.1320 C   0  0  0  0  0  0  0  0  0  0  0  0
    1.9530   14.4000   -1.1870 C   0  0  2  0  0  0  0  0  0  0  0  0
    3.4410   14.6350   -1.6170 C   0  0  0  0  0  0  0  0  0  0  0  0
    3.3511   16.4894    1.0559 H   0  0  0  0  0  0  0  0  0  0  0  0
    3.5495   15.4793   -0.4162 H   0  0  0  0  0  0  0  0  0  0  0  0
    4.1086   17.1864   -0.4162 H   0  0  0  0  0  0  0  0  0  0  0  0
    2.1236   17.7352   -1.2862 H   0  0  0  0  0  0  0  0  0  0  0  0
    1.2907   16.9688    1.5117 H   0  0  0  0  0  0  0  0  0  0  0  0
    1.4000   18.6002    0.6931 H   0  0  0  0  0  0  0  0  0  0  0  0
   -0.6625   16.5524   -0.1358 H   0  0  0  0  0  0  0  0  0  0  0  0
   -0.9307   17.6878    1.2520 H   0  0  0  0  0  0  0  0  0  0  0  0
   -0.4477   18.0190   -1.5071 H   0  0  0  0  0  0  0  0  0  0  0  0
   -2.3127   19.4451    1.6631 H   0  0  0  0  0  0  0  0  0  0  0  0
   -3.6864   20.1108    0.7164 H   0  0  0  0  0  0  0  0  0  0  0  0
   -3.3688   18.3428    0.7164 H   0  0  0  0  0  0  0  0  0  0  0  0
   -3.2750   20.9858   -1.3025 H   0  0  0  0  0  0  0  0  0  0  0  0
   -1.7878   20.6267   -2.2437 H   0  0  0  0  0  0  0  0  0  0  0  0
   -3.1542   19.4607   -2.2437 H   0  0  0  0  0  0  0  0  0  0  0  0
    0.3466   15.7274   -0.5274 H   0  0  0  0  0  0  0  0  0  0  0  0
   -0.0938   16.4064   -2.8035 H   0  0  0  0  0  0  0  0  0  0  0  0
    1.6234   16.7353   -3.1192 H   0  0  0  0  0  0  0  0  0  0  0  0
    0.1747   14.4482   -4.0350 H   0  0  0  0  0  0  0  0  0  0  0  0
    1.9322   14.5672   -4.0319 H   0  0  0  0  0  0  0  0  0  0  0  0
   -0.4845   13.3945   -0.7189 H   0  0  0  0  0  0  0  0  0  0  0  0
   -1.0112   14.2304   -2.2190 H   0  0  0  0  0  0  0  0  0  0  0  0
   -0.7738   12.4499   -2.2190 H   0  0  0  0  0  0  0  0  0  0  0  0
    2.7550   12.5611   -2.9495 H   0  0  0  0  0  0  0  0  0  0  0  0
    0.6467   12.0947   -4.3565 H   0  0  0  0  0  0  0  0  0  0  0  0
    1.9208   10.7931   -4.0876 H   0  0  0  0  0  0  0  0  0  0  0  0
   -0.5917   10.0130   -3.9352 H   0  0  0  0  0  0  0  0  0  0  0  0
    0.2729   11.2433   -0.1894 H   0  0  0  0  0  0  0  0  0  0  0  0
    1.8424    8.6101   -0.5108 H   0  0  0  0  0  0  0  0  0  0  0  0
    1.8056    9.6877    0.9548 H   0  0  0  0  0  0  0  0  0  0  0  0
    0.3724    7.6891    1.2257 H   0  0  0  0  0  0  0  0  0  0  0  0
   -0.5594    9.2372    1.2646 H   0  0  0  0  0  0  0  0  0  0  0  0
   -1.7740    7.6388   -0.0503 H   0  0  0  0  0  0  0  0  0  0  0  0
   -0.3640    7.1760   -2.1800 H   0  0  0  0  0  0  0  0  0  0  0  0
   -2.2143    9.9987    0.3483 H   0  0  0  0  0  0  0  0  0  0  0  0
   -2.1511   11.1521   -1.0273 H   0  0  0  0  0  0  0  0  0  0  0  0
   -3.3554    9.8193   -1.0273 H   0  0  0  0  0  0  0  0  0  0  0  0
   -2.8678    7.8691   -2.2460 H   0  0  0  0  0  0  0  0  0  0  0  0
   -2.5495    9.3189   -3.2578 H   0  0  0  0  0  0  0  0  0  0  0  0
   -1.3858    7.9505   -3.2578 H   0  0  0  0  0  0  0  0  0  0  0  0
    3.7451   10.0281   -0.7300 H   0  0  0  0  0  0  0  0  0  0  0  0
    2.8798    9.5739   -2.2372 H   0  0  0  0  0  0  0  0  0  0  0  0
    4.0123   10.9681   -2.2372 H   0  0  0  0  0  0  0  0  0  0  0  0
    2.4341   11.6625    0.8719 H   0  0  0  0  0  0  0  0  0  0  0  0
    3.6693   12.4392   -0.2707 H   0  0  0  0  0  0  0  0  0  0  0  0
    0.9292   13.4928    0.4820 H   0  0  0  0  0  0  0  0  0  0  0  0
    2.5520   14.1892    0.8686 H   0  0  0  0  0  0  0  0  0  0  0  0
    4.0704   14.7344   -0.7204 H   0  0  0  0  0  0  0  0  0  0  0  0
    3.7888   13.7807   -2.2163 H   0  0  0  0  0  0  0  0  0  0  0  0
    3.5086   15.5549   -2.2163 H   0  0  0  0  0  0  0  0  0  0  0  0
  1  2  1  0
  2  3  1  0
  3  4  1  0
  4  5  1  0
  5  6  1  0
  6  7  1  0
  7  8  1  0
  7  9  1  0
  2 10  1  0
 10 11  1  0
 11 12  1  0
 12 13  1  0
 13 14  1  1
 13 15  1  0
 15 16  1  0
 16 17  1  0
 17 18  2  0
 18 19  1  0
 19 20  1  0
 20 21  1  0
 21 22  1  0
 22 23  1  0
 22 24  1  0
 24 25  1  0
 24 26  1  0
 19 27  1  0
 27 28  1  6
 27 29  1  0
 29 30  1  0
 30 31  1  0
 31 32  1  6
  7  5  1  0
 31 10  1  0
 31 13  1  0
 27 15  1  0
 24 18  1  0
  1 33  1  0
  1 34  1  0
  1 35  1  0
  2 36  1  6
  3 37  1  0
  3 38  1  0
  4 39  1  0
  4 40  1  0
  5 41  1  6
  8 42  1  0
  8 43  1  0
  8 44  1  0
  9 45  1  0
  9 46  1  0
  9 47  1  0
 10 48  1  1
 11 49  1  0
 11 50  1  0
 12 51  1  0
 12 52  1  0
 14 53  1  0
 14 54  1  0
 14 55  1  0
 15 56  1  6
 16 57  1  0
 16 58  1  0
 17 59  1  0
 19 60  1  1
 20 61  1  0
 20 62  1  0
 21 63  1  0
 21 64  1  0
 22 65  1  1
 23 66  1  0
 25 67  1  0
 25 68  1  0
 25 69  1  0
 26 70  1  0
 26 71  1  0
 26 72  1  0
 28 73  1  0
 28 74  1  0
 28 75  1  0
 29 76  1  0
 29 77  1  0
 30 78  1  0
 30 79  1  0
 32 80  1  0
 32 81  1  0
 32 82  1  0
M  END
>  <meeko>  (10) 
{"is_sidechain": [false], "intermolecular_energy": 2.731, "internal_energy": -0.839}

$$$$
EPH_relaxed_0001_pdb2pqr_Repair_304_r2_0001_out
     RDKit          3D

 82 86  0  0  0  0  0  0  0  0999 V2000
    2.3430   16.7690   -7.2400 C   0  0  0  0  0  0  0  0  0  0  0  0
    1.4280   15.5430   -7.1590 C   0  0  2  0  0  0  0  0  0  0  0  0
    0.1700   15.6980   -8.0370 C   0  0  0  0  0  0  0  0  0  0  0  0
    0.4690   16.1720   -9.4620 C   0  0  0  0  0  0  0  0  0  0  0  0
    1.8890   15.8950   -9.8520 C   0  0  2  0  0  0  0  0  0  0  0  0
    2.3090   16.5240  -11.0690 O   0  0  0  0  0  0  0  0  0  0  0  0
    2.2780   15.0880  -11.0770 C   0  0  0  0  0  0  0  0  0  0  0  0
    1.2440   14.5060  -11.9890 C   0  0  0  0  0  0  0  0  0  0  0  0
    3.6350   14.4560  -11.1160 C   0  0  0  0  0  0  0  0  0  0  0  0
    1.0250   15.2900   -5.7110 C   0  0  1  0  0  0  0  0  0  0  0  0
   -0.3390   15.9350   -5.3490 C   0  0  0  0  0  0  0  0  0  0  0  0
   -1.0320   14.9820   -4.3430 C   0  0  0  0  0  0  0  0  0  0  0  0
    0.0800   14.0000   -3.9060 C   0  0  1  0  0  0  0  0  0  0  0  0
    0.8880   14.7690   -2.8140 C   0  0  0  0  0  0  0  0  0  0  0  0
   -0.3940   12.6010   -3.3940 C   0  0  2  0  0  0  0  0  0  0  0  0
   -1.2660   12.6310   -2.1270 C   0  0  0  0  0  0  0  0  0  0  0  0
   -0.5190   12.5360   -0.8370 C   0  0  0  0  0  0  0  0  0  0  0  0
    0.7620   12.1480   -0.7020 C   0  0  0  0  0  0  0  0  0  0  0  0
    1.5690   11.6580   -1.9120 C   0  0  1  0  0  0  0  0  0  0  0  0
    2.3220   10.3540   -1.5380 C   0  0  0  0  0  0  0  0  0  0  0  0
    3.1830   10.5130   -0.2890 C   0  0  0  0  0  0  0  0  0  0  0  0
    2.3360   10.9450    0.9060 C   0  0  2  0  0  0  0  0  0  0  0  0
    1.4430    9.8800    1.2470 O   0  0  0  0  0  0  0  0  0  0  0  0
    1.5230   12.2430    0.6430 C   0  0  0  0  0  0  0  0  0  0  0  0
    2.4860   13.4540    0.5720 C   0  0  0  0  0  0  0  0  0  0  0  0
    0.6070   12.4900    1.8720 C   0  0  0  0  0  0  0  0  0  0  0  0
    0.7630   11.5280   -3.2750 C   0  0  1  0  0  0  0  0  0  0  0  0
    0.0820   10.1280   -3.3600 C   0  0  0  0  0  0  0  0  0  0  0  0
    1.7750   11.6030   -4.4790 C   0  0  0  0  0  0  0  0  0  0  0  0
    2.1110   13.0060   -5.0180 C   0  0  0  0  0  0  0  0  0  0  0  0
    0.8360   13.8170   -5.2720 C   0  0  2  0  0  0  0  0  0  0  0  0
    0.0140   13.0780   -6.3830 C   0  0  0  0  0  0  0  0  0  0  0  0
    2.5948   17.1064   -6.2237 H   0  0  0  0  0  0  0  0  0  0  0  0
    3.2654   16.5033   -7.7772 H   0  0  0  0  0  0  0  0  0  0  0  0
    1.8258   17.5777   -7.7772 H   0  0  0  0  0  0  0  0  0  0  0  0
    1.9942   14.6817   -7.5431 H   0  0  0  0  0  0  0  0  0  0  0  0
   -0.3359   14.7229   -8.0942 H   0  0  0  0  0  0  0  0  0  0  0  0
   -0.4576   16.4692   -7.5665 H   0  0  0  0  0  0  0  0  0  0  0  0
   -0.2009   15.6483  -10.1598 H   0  0  0  0  0  0  0  0  0  0  0  0
    0.3083   17.2595   -9.5023 H   0  0  0  0  0  0  0  0  0  0  0  0
    2.1901   15.8254   -8.7963 H   0  0  0  0  0  0  0  0  0  0  0  0
    0.4399   14.0534  -11.3902 H   0  0  0  0  0  0  0  0  0  0  0  0
    0.8255   15.3011  -12.6236 H   0  0  0  0  0  0  0  0  0  0  0  0
    1.7066   13.7357  -12.6236 H   0  0  0  0  0  0  0  0  0  0  0  0
    3.9918   14.2898  -10.0888 H   0  0  0  0  0  0  0  0  0  0  0  0
    3.5758   13.4928  -11.6439 H   0  0  0  0  0  0  0  0  0  0  0  0
    4.3342   15.1211  -11.6439 H   0  0  0  0  0  0  0  0  0  0  0  0
    1.8953   15.7265   -5.1992 H   0  0  0  0  0  0  0  0  0  0  0  0
   -0.1811   16.9216   -4.8888 H   0  0  0  0  0  0  0  0  0  0  0  0
   -0.9581   16.0791   -6.2468 H   0  0  0  0  0  0  0  0  0  0  0  0
   -1.4164   15.5430   -3.4784 H   0  0  0  0  0  0  0  0  0  0  0  0
   -1.8953   14.4640   -4.7861 H   0  0  0  0  0  0  0  0  0  0  0  0
    0.5523   14.4495   -1.8164 H   0  0  0  0  0  0  0  0  0  0  0  0
    1.9598   14.5491   -2.9280 H   0  0  0  0  0  0  0  0  0  0  0  0
    0.7214   15.8503   -2.9280 H   0  0  0  0  0  0  0  0  0  0  0  0
   -1.0575   12.2656   -4.2048 H   0  0  0  0  0  0  0  0  0  0  0  0
   -1.8300   13.5754   -2.1246 H   0  0  0  0  0  0  0  0  0  0  0  0
   -1.9050   11.7369   -2.1756 H   0  0  0  0  0  0  0  0  0  0  0  0
   -1.0624   12.8062    0.0804 H   0  0  0  0  0  0  0  0  0  0  0  0
    2.2928   12.4547   -2.1387 H   0  0  0  0  0  0  0  0  0  0  0  0
    1.5829    9.5594   -1.3579 H   0  0  0  0  0  0  0  0  0  0  0  0
    2.9907   10.1031   -2.3746 H   0  0  0  0  0  0  0  0  0  0  0  0
    3.6655    9.5515   -0.0595 H   0  0  0  0  0  0  0  0  0  0  0  0
    3.9405   11.2872   -0.4808 H   0  0  0  0  0  0  0  0  0  0  0  0
    3.0242   11.1678    1.7347 H   0  0  0  0  0  0  0  0  0  0  0  0
    1.8130    9.0580    0.8830 H   0  0  0  0  0  0  0  0  0  0  0  0
    2.7436   13.7779    1.5912 H   0  0  0  0  0  0  0  0  0  0  0  0
    3.4022   13.1631    0.0372 H   0  0  0  0  0  0  0  0  0  0  0  0
    1.9962   14.2811    0.0372 H   0  0  0  0  0  0  0  0  0  0  0  0
    1.1833   12.3346    2.7960 H   0  0  0  0  0  0  0  0  0  0  0  0
    0.2282   13.5224    1.8454 H   0  0  0  0  0  0  0  0  0  0  0  0
   -0.2395   11.7880    1.8454 H   0  0  0  0  0  0  0  0  0  0  0  0
   -0.1029    9.7479   -2.3444 H   0  0  0  0  0  0  0  0  0  0  0  0
   -0.8734   10.2171   -3.8978 H   0  0  0  0  0  0  0  0  0  0  0  0
    0.7419    9.4313   -3.8978 H   0  0  0  0  0  0  0  0  0  0  0  0
    2.7166   11.1381   -4.1516 H   0  0  0  0  0  0  0  0  0  0  0  0
    1.2713   11.0885   -5.3106 H   0  0  0  0  0  0  0  0  0  0  0  0
    2.7329   13.5350   -4.2808 H   0  0  0  0  0  0  0  0  0  0  0  0
    2.6512   12.8954   -5.9698 H   0  0  0  0  0  0  0  0  0  0  0  0
   -0.7250   12.4136   -5.9115 H   0  0  0  0  0  0  0  0  0  0  0  0
   -0.5054   13.8188   -7.0087 H   0  0  0  0  0  0  0  0  0  0  0  0
    0.6955   12.4830   -7.0087 H   0  0  0  0  0  0  0  0  0  0  0  0
  1  2  1  0
  2  3  1  0
  3  4  1  0
  4  5  1  0
  5  6  1  0
  6  7  1  0
  7  8  1  0
  7  9  1  0
  2 10  1  0
 10 11  1  0
 11 12  1  0
 12 13  1  0
 13 14  1  1
 13 15  1  0
 15 16  1  0
 16 17  1  0
 17 18  2  0
 18 19  1  0
 19 20  1  0
 20 21  1  0
 21 22  1  0
 22 23  1  0
 22 24  1  0
 24 25  1  0
 24 26  1  0
 19 27  1  0
 27 28  1  1
 27 29  1  0
 29 30  1  0
 30 31  1  0
 31 32  1  6
  7  5  1  0
 31 10  1  0
 31 13  1  0
 27 15  1  0
 24 18  1  0
  1 33  1  0
  1 34  1  0
  1 35  1  0
  2 36  1  6
  3 37  1  0
  3 38  1  0
  4 39  1  0
  4 40  1  0
  5 41  1  1
  8 42  1  0
  8 43  1  0
  8 44  1  0
  9 45  1  0
  9 46  1  0
  9 47  1  0
 10 48  1  1
 11 49  1  0
 11 50  1  0
 12 51  1  0
 12 52  1  0
 14 53  1  0
 14 54  1  0
 14 55  1  0
 15 56  1  6
 16 57  1  0
 16 58  1  0
 17 59  1  0
 19 60  1  6
 20 61  1  0
 20 62  1  0
 21 63  1  0
 21 64  1  0
 22 65  1  1
 23 66  1  0
 25 67  1  0
 25 68  1  0
 25 69  1  0
 26 70  1  0
 26 71  1  0
 26 72  1  0
 28 73  1  0
 28 74  1  0
 28 75  1  0
 29 76  1  0
 29 77  1  0
 30 78  1  0
 30 79  1  0
 32 80  1  0
 32 81  1  0
 32 82  1  0
M  END
>  <meeko>  (11) 
{"is_sidechain": [false], "intermolecular_energy": 2.731, "internal_energy": -0.839}

$$$$
EPH_relaxed_0001_pdb2pqr_Repair_304_r2_0001_out
     RDKit          3D

 82 86  0  0  0  0  0  0  0  0999 V2000
   -2.4360    7.7980   -0.0150 C   0  0  0  0  0  0  0  0  0  0  0  0
   -3.0930    9.1800   -0.0540 C   0  0  2  0  0  0  0  0  0  0  0  0
   -4.5740    9.1080   -0.4770 C   0  0  0  0  0  0  0  0  0  0  0  0
   -5.1190    7.6800   -0.5680 C   0  0  0  0  0  0  0  0  0  0  0  0
   -5.8940    7.4610   -1.8310 C   0  0  2  0  0  0  0  0  0  0  0  0
   -6.8530    8.4840   -2.1290 O   0  0  0  0  0  0  0  0  0  0  0  0
   -7.3840    7.1770   -1.8600 C   0  0  0  0  0  0  0  0  0  0  0  0
   -8.1870    7.0940   -0.6000 C   0  0  0  0  0  0  0  0  0  0  0  0
   -7.9610    6.5000   -3.0650 C   0  0  0  0  0  0  0  0  0  0  0  0
   -2.3250   10.0940   -1.0010 C   0  0  1  0  0  0  0  0  0  0  0  0
   -2.9700   11.5000   -1.1290 C   0  0  0  0  0  0  0  0  0  0  0  0
   -1.8070   12.5120   -1.2980 C   0  0  0  0  0  0  0  0  0  0  0  0
   -0.5680   11.6350   -1.5950 C   0  0  1  0  0  0  0  0  0  0  0  0
   -0.6670   11.3020   -3.1170 C   0  0  0  0  0  0  0  0  0  0  0  0
    0.8210   12.2540   -1.2300 C   0  0  2  0  0  0  0  0  0  0  0  0
    1.1850   13.5370   -1.9970 C   0  0  0  0  0  0  0  0  0  0  0  0
    1.9300   13.3270   -3.2740 C   0  0  0  0  0  0  0  0  0  0  0  0
    2.5400   12.1860   -3.6440 C   0  0  0  0  0  0  0  0  0  0  0  0
    2.6010   10.9810   -2.6970 C   0  0  1  0  0  0  0  0  0  0  0  0
    4.0440   10.4120   -2.6750 C   0  0  0  0  0  0  0  0  0  0  0  0
    4.5640   10.0830   -4.0710 C   0  0  0  0  0  0  0  0  0  0  0  0
    4.5420   11.3190   -4.9660 C   0  0  2  0  0  0  0  0  0  0  0  0
    5.4940   12.2650   -4.4690 O   0  0  0  0  0  0  0  0  0  0  0  0
    3.1410   11.9850   -5.0570 C   0  0  0  0  0  0  0  0  0  0  0  0
    2.1840   11.0760   -5.8680 C   0  0  0  0  0  0  0  0  0  0  0  0
    3.2890   13.2970   -5.8740 C   0  0  0  0  0  0  0  0  0  0  0  0
    2.0160   11.2170   -1.2380 C   0  0  1  0  0  0  0  0  0  0  0  0
    3.1220   11.8040   -0.3090 C   0  0  0  0  0  0  0  0  0  0  0  0
    1.6070    9.8280   -0.6180 C   0  0  0  0  0  0  0  0  0  0  0  0
    0.1810    9.3270   -0.9170 C   0  0  0  0  0  0  0  0  0  0  0  0
   -0.8550   10.4210   -0.6390 C   0  0  2  0  0  0  0  0  0  0  0  0
   -0.7930   10.7610    0.8890 C   0  0  0  0  0  0  0  0  0  0  0  0
   -2.2900    7.4908    1.0311 H   0  0  0  0  0  0  0  0  0  0  0  0
   -3.0841    7.0694   -0.5240 H   0  0  0  0  0  0  0  0  0  0  0  0
   -1.4618    7.8406   -0.5240 H   0  0  0  0  0  0  0  0  0  0  0  0
   -3.0610    9.5900    0.9662 H   0  0  0  0  0  0  0  0  0  0  0  0
   -5.1732    9.6621    0.2605 H   0  0  0  0  0  0  0  0  0  0  0  0
   -4.6421    9.5431   -1.4850 H   0  0  0  0  0  0  0  0  0  0  0  0
   -4.2756    6.9744   -0.5406 H   0  0  0  0  0  0  0  0  0  0  0  0
   -5.7974    7.5176    0.2825 H   0  0  0  0  0  0  0  0  0  0  0  0
   -5.0370    6.9525   -2.2968 H   0  0  0  0  0  0  0  0  0  0  0  0
   -7.5151    7.1634    0.2682 H   0  0  0  0  0  0  0  0  0  0  0  0
   -8.9104    7.9222   -0.5710 H   0  0  0  0  0  0  0  0  0  0  0  0
   -8.7257    6.1354   -0.5710 H   0  0  0  0  0  0  0  0  0  0  0  0
   -8.6435    5.6992   -2.7441 H   0  0  0  0  0  0  0  0  0  0  0  0
   -8.5152    7.2344   -3.6680 H   0  0  0  0  0  0  0  0  0  0  0  0
   -7.1481    6.0692   -3.6680 H   0  0  0  0  0  0  0  0  0  0  0  0
   -2.3600    9.4825   -1.9147 H   0  0  0  0  0  0  0  0  0  0  0  0
   -3.6326   11.5344   -2.0064 H   0  0  0  0  0  0  0  0  0  0  0  0
   -3.5758   11.7389   -0.2424 H   0  0  0  0  0  0  0  0  0  0  0  0
   -2.0072   13.1977   -2.1345 H   0  0  0  0  0  0  0  0  0  0  0  0
   -1.6688   13.1418   -0.4068 H   0  0  0  0  0  0  0  0  0  0  0  0
   -0.9784   10.2546   -3.2437 H   0  0  0  0  0  0  0  0  0  0  0  0
   -1.4071   11.9643   -3.5899 H   0  0  0  0  0  0  0  0  0  0  0  0
    0.3147   11.4524   -3.5899 H   0  0  0  0  0  0  0  0  0  0  0  0
    0.6739   12.5622   -0.1844 H   0  0  0  0  0  0  0  0  0  0  0  0
    0.2513   14.0691   -2.2317 H   0  0  0  0  0  0  0  0  0  0  0  0
    1.8614   14.1030   -1.3396 H   0  0  0  0  0  0  0  0  0  0  0  0
    1.9848   14.1764   -3.9708 H   0  0  0  0  0  0  0  0  0  0  0  0
    1.9111   10.2318   -3.1125 H   0  0  0  0  0  0  0  0  0  0  0  0
    4.7103   11.1579   -2.2172 H   0  0  0  0  0  0  0  0  0  0  0  0
    4.0255    9.4767   -2.0964 H   0  0  0  0  0  0  0  0  0  0  0  0
    5.5971    9.7135   -3.9926 H   0  0  0  0  0  0  0  0  0  0  0  0
    3.9140    9.3153   -4.5161 H   0  0  0  0  0  0  0  0  0  0  0  0
    4.8003   10.9935   -5.9845 H   0  0  0  0  0  0  0  0  0  0  0  0
    5.4240   13.0670   -5.0130 H   0  0  0  0  0  0  0  0  0  0  0  0
    1.5638   10.4869   -5.1763 H   0  0  0  0  0  0  0  0  0  0  0  0
    1.5358   11.6990   -6.5018 H   0  0  0  0  0  0  0  0  0  0  0  0
    2.7729   10.3966   -6.5018 H   0  0  0  0  0  0  0  0  0  0  0  0
    3.3851   14.1491   -5.1850 H   0  0  0  0  0  0  0  0  0  0  0  0
    4.1859   13.2350   -6.5079 H   0  0  0  0  0  0  0  0  0  0  0  0
    2.4009   13.4364   -6.5079 H   0  0  0  0  0  0  0  0  0  0  0  0
    2.8363   11.6523    0.7424 H   0  0  0  0  0  0  0  0  0  0  0  0
    4.0761   11.2936   -0.5070 H   0  0  0  0  0  0  0  0  0  0  0  0
    3.2340   12.8802   -0.5070 H   0  0  0  0  0  0  0  0  0  0  0  0
    2.3114    9.0735   -0.9981 H   0  0  0  0  0  0  0  0  0  0  0  0
    1.6368    9.9789    0.4712 H   0  0  0  0  0  0  0  0  0  0  0  0
    0.1178    9.0322   -1.9749 H   0  0  0  0  0  0  0  0  0  0  0  0
   -0.0327    8.4680   -0.2640 H   0  0  0  0  0  0  0  0  0  0  0  0
   -0.9600    9.8454    1.4754 H   0  0  0  0  0  0  0  0  0  0  0  0
    0.1958   11.1770    1.1322 H   0  0  0  0  0  0  0  0  0  0  0  0
   -1.5713   11.4993    1.1322 H   0  0  0  0  0  0  0  0  0  0  0  0
  1  2  1  0
  2  3  1  0
  3  4  1  0
  4  5  1  0
  5  6  1  0
  6  7  1  0
  7  8  1  0
  7  9  1  0
  2 10  1  0
 10 11  1  0
 11 12  1  0
 12 13  1  0
 13 14  1  6
 13 15  1  0
 15 16  1  0
 16 17  1  0
 17 18  2  0
 18 19  1  0
 19 20  1  0
 20 21  1  0
 21 22  1  0
 22 23  1  0
 22 24  1  0
 24 25  1  0
 24 26  1  0
 19 27  1  0
 27 28  1  1
 27 29  1  0
 29 30  1  0
 30 31  1  0
 31 32  1  1
  7  5  1  0
 31 10  1  0
 31 13  1  0
 27 15  1  0
 24 18  1  0
  1 33  1  0
  1 34  1  0
  1 35  1  0
  2 36  1  1
  3 37  1  0
  3 38  1  0
  4 39  1  0
  4 40  1  0
  5 41  1  6
  8 42  1  0
  8 43  1  0
  8 44  1  0
  9 45  1  0
  9 46  1  0
  9 47  1  0
 10 48  1  6
 11 49  1  0
 11 50  1  0
 12 51  1  0
 12 52  1  0
 14 53  1  0
 14 54  1  0
 14 55  1  0
 15 56  1  1
 16 57  1  0
 16 58  1  0
 17 59  1  0
 19 60  1  6
 20 61  1  0
 20 62  1  0
 21 63  1  0
 21 64  1  0
 22 65  1  6
 23 66  1  0
 25 67  1  0
 25 68  1  0
 25 69  1  0
 26 70  1  0
 26 71  1  0
 26 72  1  0
 28 73  1  0
 28 74  1  0
 28 75  1  0
 29 76  1  0
 29 77  1  0
 30 78  1  0
 30 79  1  0
 32 80  1  0
 32 81  1  0
 32 82  1  0
M  END
>  <meeko>  (12) 
{"is_sidechain": [false], "intermolecular_energy": 2.731, "internal_energy": -0.839}

$$$$
EPH_relaxed_0001_pdb2pqr_Repair_304_r2_0001_out
     RDKit          3D

 82 86  0  0  0  0  0  0  0  0999 V2000
    0.6620   14.9210   -6.7920 C   0  0  0  0  0  0  0  0  0  0  0  0
    2.0490   14.2990   -6.6110 C   0  0  2  0  0  0  0  0  0  0  0  0
    2.6530   13.8280   -7.9500 C   0  0  0  0  0  0  0  0  0  0  0  0
    2.6570   14.9070   -9.0360 C   0  0  0  0  0  0  0  0  0  0  0  0
    1.2700   15.3710   -9.3620 C   0  0  2  0  0  0  0  0  0  0  0  0
    1.1840   16.2540  -10.4880 O   0  0  0  0  0  0  0  0  0  0  0  0
    0.8150   16.8110   -9.2170 C   0  0  0  0  0  0  0  0  0  0  0  0
    1.7430   17.8780   -8.7270 C   0  0  0  0  0  0  0  0  0  0  0  0
   -0.6500   17.0880   -9.0820 C   0  0  0  0  0  0  0  0  0  0  0  0
    1.9720   13.1310   -5.6350 C   0  0  1  0  0  0  0  0  0  0  0  0
    3.3650   12.5290   -5.3110 C   0  0  0  0  0  0  0  0  0  0  0  0
    3.3240   12.0780   -3.8290 C   0  0  0  0  0  0  0  0  0  0  0  0
    1.8250   12.1250   -3.4480 C   0  0  1  0  0  0  0  0  0  0  0  0
    1.2280   10.7940   -4.0020 C   0  0  0  0  0  0  0  0  0  0  0  0
    1.5030   12.3150   -1.9300 C   0  0  2  0  0  0  0  0  0  0  0  0
    1.9980   11.1830   -1.0120 C   0  0  0  0  0  0  0  0  0  0  0  0
    1.0260   10.0710   -0.7910 C   0  0  0  0  0  0  0  0  0  0  0  0
   -0.2890   10.1140   -1.0720 C   0  0  0  0  0  0  0  0  0  0  0  0
   -0.9440   11.4050   -1.5800 C   0  0  1  0  0  0  0  0  0  0  0  0
   -2.2600   11.6600   -0.7980 C   0  0  0  0  0  0  0  0  0  0  0  0
   -3.2090   10.4670   -0.8450 C   0  0  0  0  0  0  0  0  0  0  0  0
   -2.5410    9.2170   -0.2790 C   0  0  2  0  0  0  0  0  0  0  0  0
   -2.3150    9.4090    1.1210 O   0  0  0  0  0  0  0  0  0  0  0  0
   -1.2010    8.8660   -0.9820 C   0  0  0  0  0  0  0  0  0  0  0  0
   -1.4830    8.3650   -2.4200 C   0  0  0  0  0  0  0  0  0  0  0  0
   -0.5620    7.6700   -0.2240 C   0  0  0  0  0  0  0  0  0  0  0  0
   -0.0050   12.6860   -1.6290 C   0  0  1  0  0  0  0  0  0  0  0  0
   -0.0180   13.4090   -0.2470 C   0  0  0  0  0  0  0  0  0  0  0  0
   -0.5880   13.7120   -2.6710 C   0  0  0  0  0  0  0  0  0  0  0  0
   -0.1390   13.5460   -4.1350 C   0  0  0  0  0  0  0  0  0  0  0  0
    1.3840   13.4160   -4.2300 C   0  0  2  0  0  0  0  0  0  0  0  0
    2.0120   14.7500   -3.7010 C   0  0  0  0  0  0  0  0  0  0  0  0
    0.2179   15.1202   -5.8055 H   0  0  0  0  0  0  0  0  0  0  0  0
    0.7532   15.8644   -7.3503 H   0  0  0  0  0  0  0  0  0  0  0  0
    0.0182   14.2254   -7.3503 H   0  0  0  0  0  0  0  0  0  0  0  0
    2.7109   15.0785   -6.2058 H   0  0  0  0  0  0  0  0  0  0  0  0
    3.6912   13.5118   -7.7707 H   0  0  0  0  0  0  0  0  0  0  0  0
    2.0213   13.0053   -8.3162 H   0  0  0  0  0  0  0  0  0  0  0  0
    3.2464   15.7660   -8.6828 H   0  0  0  0  0  0  0  0  0  0  0  0
    3.0967   14.4748   -9.9469 H   0  0  0  0  0  0  0  0  0  0  0  0
    0.8425   14.4224   -9.0051 H   0  0  0  0  0  0  0  0  0  0  0  0
    1.7475   17.8832   -7.6270 H   0  0  0  0  0  0  0  0  0  0  0  0
    2.7595   17.6781   -9.0969 H   0  0  0  0  0  0  0  0  0  0  0  0
    1.4041   18.8569   -9.0969 H   0  0  0  0  0  0  0  0  0  0  0  0
   -0.9169   17.1385   -8.0161 H   0  0  0  0  0  0  0  0  0  0  0  0
   -0.8879   18.0470   -9.5654 H   0  0  0  0  0  0  0  0  0  0  0  0
   -1.2216   16.2820   -9.5654 H   0  0  0  0  0  0  0  0  0  0  0  0
    1.2995   12.4661   -6.1968 H   0  0  0  0  0  0  0  0  0  0  0  0
    3.5661   11.6668   -5.9638 H   0  0  0  0  0  0  0  0  0  0  0  0
    4.1627   13.2681   -5.4768 H   0  0  0  0  0  0  0  0  0  0  0  0
    3.7199   11.0572   -3.7226 H   0  0  0  0  0  0  0  0  0  0  0  0
    3.9395   12.7190   -3.1807 H   0  0  0  0  0  0  0  0  0  0  0  0
    0.9370   10.1453   -3.1626 H   0  0  0  0  0  0  0  0  0  0  0  0
    0.3436   11.0168   -4.6169 H   0  0  0  0  0  0  0  0  0  0  0  0
    1.9825   10.2816   -4.6169 H   0  0  0  0  0  0  0  0  0  0  0  0
    2.1063   13.1970   -1.6689 H   0  0  0  0  0  0  0  0  0  0  0  0
    2.9076   10.7557   -1.4592 H   0  0  0  0  0  0  0  0  0  0  0  0
    2.1658   11.6414   -0.0263 H   0  0  0  0  0  0  0  0  0  0  0  0
    1.4186    9.1373   -0.3620 H   0  0  0  0  0  0  0  0  0  0  0  0
   -1.1686   11.2345   -2.6432 H   0  0  0  0  0  0  0  0  0  0  0  0
   -2.0107   11.8711    0.2524 H   0  0  0  0  0  0  0  0  0  0  0  0
   -2.7703   12.5114   -1.2720 H   0  0  0  0  0  0  0  0  0  0  0  0
   -4.1058   10.6965   -0.2507 H   0  0  0  0  0  0  0  0  0  0  0  0
   -3.4814   10.2757   -1.8934 H   0  0  0  0  0  0  0  0  0  0  0  0
   -3.2196    8.3702   -0.4593 H   0  0  0  0  0  0  0  0  0  0  0  0
   -2.5380   10.3320    1.3310 H   0  0  0  0  0  0  0  0  0  0  0  0
   -2.0221    7.4072   -2.3755 H   0  0  0  0  0  0  0  0  0  0  0  0
   -2.0963    9.1065   -2.9530 H   0  0  0  0  0  0  0  0  0  0  0  0
   -0.5309    8.2254   -2.9530 H   0  0  0  0  0  0  0  0  0  0  0  0
   -0.6496    7.8340    0.8602 H   0  0  0  0  0  0  0  0  0  0  0  0
   -1.0841    6.7413   -0.4977 H   0  0  0  0  0  0  0  0  0  0  0  0
    0.5002    7.5878   -0.4977 H   0  0  0  0  0  0  0  0  0  0  0  0
   -0.0045   12.6602    0.5587 H   0  0  0  0  0  0  0  0  0  0  0  0
    0.8687   14.0545   -0.1625 H   0  0  0  0  0  0  0  0  0  0  0  0
   -0.9273   14.0222   -0.1625 H   0  0  0  0  0  0  0  0  0  0  0  0
   -1.6842   13.6239   -2.6471 H   0  0  0  0  0  0  0  0  0  0  0  0
   -0.1973   14.6920   -2.3595 H   0  0  0  0  0  0  0  0  0  0  0  0
   -0.6042   12.6414   -4.5537 H   0  0  0  0  0  0  0  0  0  0  0  0
   -0.4509   14.4364   -4.7006 H   0  0  0  0  0  0  0  0  0  0  0  0
    2.0098   14.7454   -2.6010 H   0  0  0  0  0  0  0  0  0  0  0  0
    3.0462   14.8381   -4.0653 H   0  0  0  0  0  0  0  0  0  0  0  0
    1.4210   15.6032   -4.0653 H   0  0  0  0  0  0  0  0  0  0  0  0
  1  2  1  0
  2  3  1  0
  3  4  1  0
  4  5  1  0
  5  6  1  0
  6  7  1  0
  7  8  1  0
  7  9  1  0
  2 10  1  0
 10 11  1  0
 11 12  1  0
 12 13  1  0
 13 14  1  6
 13 15  1  0
 15 16  1  0
 16 17  1  0
 17 18  2  0
 18 19  1  0
 19 20  1  0
 20 21  1  0
 21 22  1  0
 22 23  1  0
 22 24  1  0
 24 25  1  0
 24 26  1  0
 19 27  1  0
 27 28  1  1
 27 29  1  0
 29 30  1  0
 30 31  1  0
 31 32  1  1
  7  5  1  0
 31 10  1  0
 31 13  1  0
 27 15  1  0
 24 18  1  0
  1 33  1  0
  1 34  1  0
  1 35  1  0
  2 36  1  1
  3 37  1  0
  3 38  1  0
  4 39  1  0
  4 40  1  0
  5 41  1  6
  8 42  1  0
  8 43  1  0
  8 44  1  0
  9 45  1  0
  9 46  1  0
  9 47  1  0
 10 48  1  6
 11 49  1  0
 11 50  1  0
 12 51  1  0
 12 52  1  0
 14 53  1  0
 14 54  1  0
 14 55  1  0
 15 56  1  1
 16 57  1  0
 16 58  1  0
 17 59  1  0
 19 60  1  6
 20 61  1  0
 20 62  1  0
 21 63  1  0
 21 64  1  0
 22 65  1  1
 23 66  1  0
 25 67  1  0
 25 68  1  0
 25 69  1  0
 26 70  1  0
 26 71  1  0
 26 72  1  0
 28 73  1  0
 28 74  1  0
 28 75  1  0
 29 76  1  0
 29 77  1  0
 30 78  1  0
 30 79  1  0
 32 80  1  0
 32 81  1  0
 32 82  1  0
M  END
>  <meeko>  (13) 
{"is_sidechain": [false], "intermolecular_energy": 2.731, "internal_energy": -0.839}

$$$$
EPH_relaxed_0001_pdb2pqr_Repair_304_r2_0001_out
     RDKit          3D

 82 86  0  0  0  0  0  0  0  0999 V2000
  -15.2520    8.5650    0.3420 C   0  0  0  0  0  0  0  0  0  0  0  0
  -14.3620    8.9700   -0.8370 C   0  0  2  0  0  0  0  0  0  0  0  0
  -14.6080    8.0900   -2.0790 C   0  0  0  0  0  0  0  0  0  0  0  0
  -14.6290    8.8740   -3.3940 C   0  0  0  0  0  0  0  0  0  0  0  0
  -15.2870   10.2100   -3.2320 C   0  0  2  0  0  0  0  0  0  0  0  0
  -14.9950   11.1510   -4.2730 O   0  0  0  0  0  0  0  0  0  0  0  0
  -14.5220   11.4920   -2.9600 C   0  0  0  0  0  0  0  0  0  0  0  0
  -13.0310   11.4990   -2.8330 C   0  0  0  0  0  0  0  0  0  0  0  0
  -15.2500   12.6420   -2.3360 C   0  0  0  0  0  0  0  0  0  0  0  0
  -12.8950    8.8990   -0.4290 C   0  0  1  0  0  0  0  0  0  0  0  0
  -12.6970    8.9800    1.1080 C   0  0  0  0  0  0  0  0  0  0  0  0
  -11.4890    8.0720    1.4520 C   0  0  0  0  0  0  0  0  0  0  0  0
  -10.8300    7.7650    0.0860 C   0  0  1  0  0  0  0  0  0  0  0  0
   -9.9580    9.0200   -0.2290 C   0  0  0  0  0  0  0  0  0  0  0  0
   -9.9950    6.4460    0.0030 C   0  0  2  0  0  0  0  0  0  0  0  0
   -8.7700    6.3890    0.9330 C   0  0  0  0  0  0  0  0  0  0  0  0
   -7.4980    6.9010    0.3430 C   0  0  0  0  0  0  0  0  0  0  0  0
   -7.2750    7.1210   -0.9660 C   0  0  0  0  0  0  0  0  0  0  0  0
   -8.3320    6.7570   -2.0170 C   0  0  1  0  0  0  0  0  0  0  0  0
   -7.6570    6.0020   -3.1920 C   0  0  0  0  0  0  0  0  0  0  0  0
   -6.4840    6.7760   -3.7870 C   0  0  0  0  0  0  0  0  0  0  0  0
   -5.4280    7.0680   -2.7250 C   0  0  2  0  0  0  0  0  0  0  0  0
   -4.8370    5.8330   -2.3100 O   0  0  0  0  0  0  0  0  0  0  0  0
   -5.9940    7.8180   -1.4870 C   0  0  0  0  0  0  0  0  0  0  0  0
   -6.3580    9.2710   -1.8800 C   0  0  0  0  0  0  0  0  0  0  0  0
   -4.8600    7.9250   -0.4330 C   0  0  0  0  0  0  0  0  0  0  0  0
   -9.6230    6.0070   -1.4710 C   0  0  1  0  0  0  0  0  0  0  0  0
   -9.3650    4.4700   -1.4260 C   0  0  0  0  0  0  0  0  0  0  0  0
  -10.8110    6.2280   -2.4800 C   0  0  0  0  0  0  0  0  0  0  0  0
  -11.6730    7.4880   -2.2720 C   0  0  0  0  0  0  0  0  0  0  0  0
  -12.1130    7.6170   -0.8100 C   0  0  2  0  0  0  0  0  0  0  0  0
  -13.0110    6.3790   -0.4700 C   0  0  0  0  0  0  0  0  0  0  0  0
  -14.7385    8.7987    1.2863 H   0  0  0  0  0  0  0  0  0  0  0  0
  -16.2003    9.1202    0.2932 H   0  0  0  0  0  0  0  0  0  0  0  0
  -15.4563    7.4852    0.2932 H   0  0  0  0  0  0  0  0  0  0  0  0
  -14.6220   10.0037   -1.1089 H   0  0  0  0  0  0  0  0  0  0  0  0
  -13.8074    7.3378   -2.1358 H   0  0  0  0  0  0  0  0  0  0  0  0
  -15.6027    7.6358   -1.9594 H   0  0  0  0  0  0  0  0  0  0  0  0
  -13.5943    9.0253   -3.7354 H   0  0  0  0  0  0  0  0  0  0  0  0
  -15.2061    8.2945   -4.1296 H   0  0  0  0  0  0  0  0  0  0  0  0
  -16.1543    9.7492   -2.7366 H   0  0  0  0  0  0  0  0  0  0  0  0
  -12.7537   11.5003   -1.7685 H   0  0  0  0  0  0  0  0  0  0  0  0
  -12.6174   10.6028   -3.3186 H   0  0  0  0  0  0  0  0  0  0  0  0
  -12.6259   12.3991   -3.3186 H   0  0  0  0  0  0  0  0  0  0  0  0
  -15.1971   12.5584   -1.2405 H   0  0  0  0  0  0  0  0  0  0  0  0
  -14.7850   13.5866   -2.6546 H   0  0  0  0  0  0  0  0  0  0  0  0
  -16.3027   12.6258   -2.6546 H   0  0  0  0  0  0  0  0  0  0  0  0
  -12.5052    9.7597   -0.9922 H   0  0  0  0  0  0  0  0  0  0  0  0
  -12.4889   10.0174    1.4089 H   0  0  0  0  0  0  0  0  0  0  0  0
  -13.6019    8.6519    1.6405 H   0  0  0  0  0  0  0  0  0  0  0  0
  -10.7845    8.5971    2.1138 H   0  0  0  0  0  0  0  0  0  0  0  0
  -11.7922    7.1580    1.9837 H   0  0  0  0  0  0  0  0  0  0  0  0
   -9.6336    9.4869    0.7127 H   0  0  0  0  0  0  0  0  0  0  0  0
   -9.0752    8.7165   -0.8109 H   0  0  0  0  0  0  0  0  0  0  0  0
  -10.5504    9.7414   -0.8109 H   0  0  0  0  0  0  0  0  0  0  0  0
  -10.6993    5.6958    0.3917 H   0  0  0  0  0  0  0  0  0  0  0  0
   -8.9946    6.9874    1.8283 H   0  0  0  0  0  0  0  0  0  0  0  0
   -8.5994    5.3236    1.1470 H   0  0  0  0  0  0  0  0  0  0  0  0
   -6.6725    7.1169    1.0372 H   0  0  0  0  0  0  0  0  0  0  0  0
   -8.7448    7.7115   -2.3756 H   0  0  0  0  0  0  0  0  0  0  0  0
   -7.2896    5.0327   -2.8239 H   0  0  0  0  0  0  0  0  0  0  0  0
   -8.4097    5.8749   -3.9840 H   0  0  0  0  0  0  0  0  0  0  0  0
   -6.0299    6.1789   -4.5915 H   0  0  0  0  0  0  0  0  0  0  0  0
   -6.8585    7.7320   -4.1817 H   0  0  0  0  0  0  0  0  0  0  0  0
   -4.6796    7.7337   -3.1796 H   0  0  0  0  0  0  0  0  0  0  0  0
   -4.2490    5.5330   -3.0240 H   0  0  0  0  0  0  0  0  0  0  0  0
   -6.5081    9.8703   -0.9699 H   0  0  0  0  0  0  0  0  0  0  0  0
   -5.5410    9.7056   -2.4746 H   0  0  0  0  0  0  0  0  0  0  0  0
   -7.2834    9.2691   -2.4746 H   0  0  0  0  0  0  0  0  0  0  0  0
   -5.2933    7.8841    0.5772 H   0  0  0  0  0  0  0  0  0  0  0  0
   -4.1571    7.0892   -0.5646 H   0  0  0  0  0  0  0  0  0  0  0  0
   -4.3258    8.8775   -0.5646 H   0  0  0  0  0  0  0  0  0  0  0  0
   -9.3093    4.1381   -0.3788 H   0  0  0  0  0  0  0  0  0  0  0  0
  -10.1876    3.9451   -1.9337 H   0  0  0  0  0  0  0  0  0  0  0  0
   -8.4161    4.2425   -1.9337 H   0  0  0  0  0  0  0  0  0  0  0  0
  -10.3829    6.2809   -3.4919 H   0  0  0  0  0  0  0  0  0  0  0  0
  -11.4930    5.3814   -2.3120 H   0  0  0  0  0  0  0  0  0  0  0  0
  -11.0859    8.3755   -2.5506 H   0  0  0  0  0  0  0  0  0  0  0  0
  -12.5708    7.4064   -2.9023 H   0  0  0  0  0  0  0  0  0  0  0  0
  -13.0890    6.2715    0.6219 H   0  0  0  0  0  0  0  0  0  0  0  0
  -14.0143    6.5255   -0.8966 H   0  0  0  0  0  0  0  0  0  0  0  0
  -12.5602    5.4708   -0.8966 H   0  0  0  0  0  0  0  0  0  0  0  0
  1  2  1  0
  2  3  1  0
  3  4  1  0
  4  5  1  0
  5  6  1  0
  6  7  1  0
  7  8  1  0
  7  9  1  0
  2 10  1  0
 10 11  1  0
 11 12  1  0
 12 13  1  0
 13 14  1  6
 13 15  1  0
 15 16  1  0
 16 17  1  0
 17 18  2  0
 18 19  1  0
 19 20  1  0
 20 21  1  0
 21 22  1  0
 22 23  1  0
 22 24  1  0
 24 25  1  0
 24 26  1  0
 19 27  1  0
 27 28  1  1
 27 29  1  0
 29 30  1  0
 30 31  1  0
 31 32  1  1
  7  5  1  0
 31 10  1  0
 31 13  1  0
 27 15  1  0
 24 18  1  0
  1 33  1  0
  1 34  1  0
  1 35  1  0
  2 36  1  6
  3 37  1  0
  3 38  1  0
  4 39  1  0
  4 40  1  0
  5 41  1  1
  8 42  1  0
  8 43  1  0
  8 44  1  0
  9 45  1  0
  9 46  1  0
  9 47  1  0
 10 48  1  6
 11 49  1  0
 11 50  1  0
 12 51  1  0
 12 52  1  0
 14 53  1  0
 14 54  1  0
 14 55  1  0
 15 56  1  1
 16 57  1  0
 16 58  1  0
 17 59  1  0
 19 60  1  6
 20 61  1  0
 20 62  1  0
 21 63  1  0
 21 64  1  0
 22 65  1  6
 23 66  1  0
 25 67  1  0
 25 68  1  0
 25 69  1  0
 26 70  1  0
 26 71  1  0
 26 72  1  0
 28 73  1  0
 28 74  1  0
 28 75  1  0
 29 76  1  0
 29 77  1  0
 30 78  1  0
 30 79  1  0
 32 80  1  0
 32 81  1  0
 32 82  1  0
M  END
>  <meeko>  (14) 
{"is_sidechain": [false], "intermolecular_energy": 2.731, "internal_energy": -0.839}

$$$$
EPH_relaxed_0001_pdb2pqr_Repair_304_r2_0001_out
     RDKit          3D

 82 86  0  0  0  0  0  0  0  0999 V2000
   -0.4970   16.9310   -1.7870 C   0  0  0  0  0  0  0  0  0  0  0  0
   -0.3630   16.2030   -0.4470 C   0  0  2  0  0  0  0  0  0  0  0  0
   -0.0770   17.1740    0.7160 C   0  0  0  0  0  0  0  0  0  0  0  0
    0.4100   18.5530    0.2610 C   0  0  0  0  0  0  0  0  0  0  0  0
    1.5890   19.0160    1.0600 C   0  0  2  0  0  0  0  0  0  0  0  0
    2.4850   19.8870    0.3570 O   0  0  0  0  0  0  0  0  0  0  0  0
    3.0190   18.6130    0.7520 C   0  0  0  0  0  0  0  0  0  0  0  0
    3.3450   17.7070   -0.3940 C   0  0  0  0  0  0  0  0  0  0  0  0
    4.0390   18.7000    1.8450 C   0  0  0  0  0  0  0  0  0  0  0  0
    0.7390   15.1540   -0.5320 C   0  0  1  0  0  0  0  0  0  0  0  0
    0.8990   14.3460    0.7830 C   0  0  0  0  0  0  0  0  0  0  0  0
    1.2860   12.9010    0.3760 C   0  0  0  0  0  0  0  0  0  0  0  0
    1.6600   13.0040   -1.1210 C   0  0  1  0  0  0  0  0  0  0  0  0
    3.1280   13.5360   -1.1320 C   0  0  0  0  0  0  0  0  0  0  0  0
    1.5140   11.6940   -1.9610 C   0  0  2  0  0  0  0  0  0  0  0  0
    2.4190   10.5310   -1.5190 C   0  0  0  0  0  0  0  0  0  0  0  0
    3.7550   10.4740   -2.1820 C   0  0  0  0  0  0  0  0  0  0  0  0
    4.1050   11.1450   -3.2950 C   0  0  0  0  0  0  0  0  0  0  0  0
    3.0790   11.9910   -4.0600 C   0  0  1  0  0  0  0  0  0  0  0  0
    3.1860   11.6870   -5.5770 C   0  0  0  0  0  0  0  0  0  0  0  0
    4.6040   11.8650   -6.1110 C   0  0  0  0  0  0  0  0  0  0  0  0
    5.5850   10.9650   -5.3650 C   0  0  2  0  0  0  0  0  0  0  0  0
    5.2820    9.6000   -5.6690 O   0  0  0  0  0  0  0  0  0  0  0  0
    5.5600   11.1750   -3.8250 C   0  0  0  0  0  0  0  0  0  0  0  0
    6.1750   12.5540   -3.4770 C   0  0  0  0  0  0  0  0  0  0  0  0
    6.4890   10.1110   -3.1820 C   0  0  0  0  0  0  0  0  0  0  0  0
    1.5840   11.9170   -3.5270 C   0  0  1  0  0  0  0  0  0  0  0  0
    0.8440   10.7100   -4.1810 C   0  0  0  0  0  0  0  0  0  0  0  0
    0.8110   13.2110   -3.9820 C   0  0  0  0  0  0  0  0  0  0  0  0
    0.8960   14.4350   -3.0490 C   0  0  0  0  0  0  0  0  0  0  0  0
    0.5830   14.0440   -1.6020 C   0  0  2  0  0  0  0  0  0  0  0  0
   -0.8950   13.5260   -1.5550 C   0  0  0  0  0  0  0  0  0  0  0  0
   -0.6934   17.9982   -1.6065 H   0  0  0  0  0  0  0  0  0  0  0  0
    0.4364   16.8216   -2.3587 H   0  0  0  0  0  0  0  0  0  0  0  0
   -1.3302   16.4964   -2.3587 H   0  0  0  0  0  0  0  0  0  0  0  0
   -1.3262   15.7139   -0.2396 H   0  0  0  0  0  0  0  0  0  0  0  0
   -1.0036   17.3062    1.2939 H   0  0  0  0  0  0  0  0  0  0  0  0
    0.7313   16.7291    1.3149 H   0  0  0  0  0  0  0  0  0  0  0  0
    0.6977   18.4974   -0.7993 H   0  0  0  0  0  0  0  0  0  0  0  0
   -0.4089   19.2721    0.4103 H   0  0  0  0  0  0  0  0  0  0  0  0
    0.9989   18.9912    1.9880 H   0  0  0  0  0  0  0  0  0  0  0  0
    3.6937   16.7379   -0.0076 H   0  0  0  0  0  0  0  0  0  0  0  0
    2.4453   17.5545   -1.0083 H   0  0  0  0  0  0  0  0  0  0  0  0
    4.1355   18.1627   -1.0083 H   0  0  0  0  0  0  0  0  0  0  0  0
    3.5345   18.6570    2.8216 H   0  0  0  0  0  0  0  0  0  0  0  0
    4.7422   17.8586    1.7581 H   0  0  0  0  0  0  0  0  0  0  0  0
    4.5895   19.6484    1.7581 H   0  0  0  0  0  0  0  0  0  0  0  0
    1.5911   15.8026   -0.7835 H   0  0  0  0  0  0  0  0  0  0  0  0
    1.6902   14.7889    1.4058 H   0  0  0  0  0  0  0  0  0  0  0  0
   -0.0325   14.3554    1.3681 H   0  0  0  0  0  0  0  0  0  0  0  0
    2.1438   12.5477    0.9671 H   0  0  0  0  0  0  0  0  0  0  0  0
    0.4701   12.1850    0.5537 H   0  0  0  0  0  0  0  0  0  0  0  0
    3.4796   13.6634   -0.0975 H   0  0  0  0  0  0  0  0  0  0  0  0
    3.7753   12.8153   -1.6531 H   0  0  0  0  0  0  0  0  0  0  0  0
    3.1633   14.5041   -1.6531 H   0  0  0  0  0  0  0  0  0  0  0  0
    0.4863   11.3782   -1.7283 H   0  0  0  0  0  0  0  0  0  0  0  0
    2.5814   10.6201   -0.4347 H   0  0  0  0  0  0  0  0  0  0  0  0
    1.8947    9.6096   -1.8123 H   0  0  0  0  0  0  0  0  0  0  0  0
    4.5182    9.8290   -1.7221 H   0  0  0  0  0  0  0  0  0  0  0  0
    3.3475   13.0406   -3.8696 H   0  0  0  0  0  0  0  0  0  0  0  0
    2.8715   10.6474   -5.7513 H   0  0  0  0  0  0  0  0  0  0  0  0
    2.5378   12.4004   -6.1069 H   0  0  0  0  0  0  0  0  0  0  0  0
    4.6209   11.6074   -7.1803 H   0  0  0  0  0  0  0  0  0  0  0  0
    4.9060   12.9123   -5.9627 H   0  0  0  0  0  0  0  0  0  0  0  0
    6.5977   11.2315   -5.7016 H   0  0  0  0  0  0  0  0  0  0  0  0
    4.6920    9.5950   -6.4420 H   0  0  0  0  0  0  0  0  0  0  0  0
    6.2257   12.6676   -2.3841 H   0  0  0  0  0  0  0  0  0  0  0  0
    7.1882   12.6209   -3.8999 H   0  0  0  0  0  0  0  0  0  0  0  0
    5.5477   13.3525   -3.8999 H   0  0  0  0  0  0  0  0  0  0  0  0
    6.4259   10.1833   -2.0862 H   0  0  0  0  0  0  0  0  0  0  0  0
    6.1732    9.1071   -3.5020 H   0  0  0  0  0  0  0  0  0  0  0  0
    7.5263   10.2885   -3.5020 H   0  0  0  0  0  0  0  0  0  0  0  0
    0.4427   10.0554   -3.3933 H   0  0  0  0  0  0  0  0  0  0  0  0
    0.0180   11.0810   -4.8055 H   0  0  0  0  0  0  0  0  0  0  0  0
    1.5494   10.1422   -4.8055 H   0  0  0  0  0  0  0  0  0  0  0  0
    1.2115   13.5108   -4.9617 H   0  0  0  0  0  0  0  0  0  0  0  0
   -0.2513   12.9254   -3.9863 H   0  0  0  0  0  0  0  0  0  0  0  0
    1.9119   14.8540   -3.0968 H   0  0  0  0  0  0  0  0  0  0  0  0
    0.1565   15.1795   -3.3789 H   0  0  0  0  0  0  0  0  0  0  0  0
   -1.2115   13.4151   -0.5074 H   0  0  0  0  0  0  0  0  0  0  0  0
   -1.5526   14.2472   -2.0623 H   0  0  0  0  0  0  0  0  0  0  0  0
   -0.9585   12.5520   -2.0623 H   0  0  0  0  0  0  0  0  0  0  0  0
  1  2  1  0
  2  3  1  0
  3  4  1  0
  4  5  1  0
  5  6  1  0
  6  7  1  0
  7  8  1  0
  7  9  1  0
  2 10  1  0
 10 11  1  0
 11 12  1  0
 12 13  1  0
 13 14  1  1
 13 15  1  0
 15 16  1  0
 16 17  1  0
 17 18  2  0
 18 19  1  0
 19 20  1  0
 20 21  1  0
 21 22  1  0
 22 23  1  0
 22 24  1  0
 24 25  1  0
 24 26  1  0
 19 27  1  0
 27 28  1  6
 27 29  1  0
 29 30  1  0
 30 31  1  0
 31 32  1  6
  7  5  1  0
 31 10  1  0
 31 13  1  0
 27 15  1  0
 24 18  1  0
  1 33  1  0
  1 34  1  0
  1 35  1  0
  2 36  1  1
  3 37  1  0
  3 38  1  0
  4 39  1  0
  4 40  1  0
  5 41  1  1
  8 42  1  0
  8 43  1  0
  8 44  1  0
  9 45  1  0
  9 46  1  0
  9 47  1  0
 10 48  1  6
 11 49  1  0
 11 50  1  0
 12 51  1  0
 12 52  1  0
 14 53  1  0
 14 54  1  0
 14 55  1  0
 15 56  1  6
 16 57  1  0
 16 58  1  0
 17 59  1  0
 19 60  1  6
 20 61  1  0
 20 62  1  0
 21 63  1  0
 21 64  1  0
 22 65  1  6
 23 66  1  0
 25 67  1  0
 25 68  1  0
 25 69  1  0
 26 70  1  0
 26 71  1  0
 26 72  1  0
 28 73  1  0
 28 74  1  0
 28 75  1  0
 29 76  1  0
 29 77  1  0
 30 78  1  0
 30 79  1  0
 32 80  1  0
 32 81  1  0
 32 82  1  0
M  END
>  <meeko>  (15) 
{"is_sidechain": [false], "intermolecular_energy": 2.731, "internal_energy": -0.839}

$$$$
EPH_relaxed_0001_pdb2pqr_Repair_304_r2_0001_out
     RDKit          3D

 82 86  0  0  0  0  0  0  0  0999 V2000
   -0.6140   16.8560   -1.1640 C   0  0  0  0  0  0  0  0  0  0  0  0
   -0.9040   15.6000   -0.3370 C   0  0  2  0  0  0  0  0  0  0  0  0
   -1.1930   15.9320    1.1410 C   0  0  0  0  0  0  0  0  0  0  0  0
   -1.7090   17.3570    1.3620 C   0  0  0  0  0  0  0  0  0  0  0  0
   -1.4320   18.2370    0.1810 C   0  0  2  0  0  0  0  0  0  0  0  0
   -0.6960   19.4290    0.4820 O   0  0  0  0  0  0  0  0  0  0  0  0
   -2.0380   19.6160    0.0050 C   0  0  0  0  0  0  0  0  0  0  0  0
   -2.9710   20.1940    1.0220 C   0  0  0  0  0  0  0  0  0  0  0  0
   -2.1130   20.1940   -1.3740 C   0  0  0  0  0  0  0  0  0  0  0  0
    0.2690   14.6320   -0.4340 C   0  0  1  0  0  0  0  0  0  0  0  0
    0.4070   13.7330    0.8240 C   0  0  0  0  0  0  0  0  0  0  0  0
    0.9130   12.3520    0.3330 C   0  0  0  0  0  0  0  0  0  0  0  0
    1.3630   12.5980   -1.1260 C   0  0  1  0  0  0  0  0  0  0  0  0
    2.7900   13.2180   -1.0060 C   0  0  0  0  0  0  0  0  0  0  0  0
    1.3530   11.3520   -2.0710 C   0  0  2  0  0  0  0  0  0  0  0  0
    2.3060   10.2150   -1.6620 C   0  0  0  0  0  0  0  0  0  0  0  0
    3.6790   10.2940   -2.2440 C   0  0  0  0  0  0  0  0  0  0  0  0
    4.0460   11.0730   -3.2790 C   0  0  0  0  0  0  0  0  0  0  0  0
    3.0120   11.9120   -4.0400 C   0  0  1  0  0  0  0  0  0  0  0  0
    3.2250   11.7370   -5.5660 C   0  0  0  0  0  0  0  0  0  0  0  0
    4.6560   12.0450   -5.9960 C   0  0  0  0  0  0  0  0  0  0  0  0
    5.6510   11.1510   -5.2610 C   0  0  2  0  0  0  0  0  0  0  0  0
    5.4570    9.7980   -5.6860 O   0  0  0  0  0  0  0  0  0  0  0  0
    5.5240   11.2360   -3.7140 C   0  0  0  0  0  0  0  0  0  0  0  0
    6.0250   12.6170   -3.2250 C   0  0  0  0  0  0  0  0  0  0  0  0
    6.4840   10.1830   -3.0980 C   0  0  0  0  0  0  0  0  0  0  0  0
    1.4970   11.7030   -3.6070 C   0  0  1  0  0  0  0  0  0  0  0  0
    0.8770   10.5090   -4.3960 C   0  0  0  0  0  0  0  0  0  0  0  0
    0.6670   12.9790   -4.0090 C   0  0  0  0  0  0  0  0  0  0  0  0
    0.6160   14.1270   -2.9830 C   0  0  0  0  0  0  0  0  0  0  0  0
    0.2480   13.6030   -1.5920 C   0  0  2  0  0  0  0  0  0  0  0  0
   -1.1920   12.9930   -1.6760 C   0  0  0  0  0  0  0  0  0  0  0  0
   -0.4186   17.7024   -0.4891 H   0  0  0  0  0  0  0  0  0  0  0  0
    0.2676   16.6818   -1.7984 H   0  0  0  0  0  0  0  0  0  0  0  0
   -1.4827   17.0859   -1.7984 H   0  0  0  0  0  0  0  0  0  0  0  0
   -1.8081   15.1311   -0.7526 H   0  0  0  0  0  0  0  0  0  0  0  0
   -1.9503   15.2266    1.5138 H   0  0  0  0  0  0  0  0  0  0  0  0
   -0.2390   15.8479    1.6820 H   0  0  0  0  0  0  0  0  0  0  0  0
   -2.7952   17.3203    1.5321 H   0  0  0  0  0  0  0  0  0  0  0  0
   -1.1872   17.7790    2.2335 H   0  0  0  0  0  0  0  0  0  0  0  0
   -1.3785   17.3641   -0.4862 H   0  0  0  0  0  0  0  0  0  0  0  0
   -2.6004   19.9644    2.0319 H   0  0  0  0  0  0  0  0  0  0  0  0
   -3.0262   21.2848    0.8909 H   0  0  0  0  0  0  0  0  0  0  0  0
   -3.9722   19.7577    0.8909 H   0  0  0  0  0  0  0  0  0  0  0  0
   -2.2543   21.2829   -1.3080 H   0  0  0  0  0  0  0  0  0  0  0  0
   -1.1792   19.9775   -1.9136 H   0  0  0  0  0  0  0  0  0  0  0  0
   -2.9606   19.7463   -1.9136 H   0  0  0  0  0  0  0  0  0  0  0  0
    1.0889   15.3500   -0.5835 H   0  0  0  0  0  0  0  0  0  0  0  0
    1.1296   14.1733    1.5269 H   0  0  0  0  0  0  0  0  0  0  0  0
   -0.5549   13.6376    1.3489 H   0  0  0  0  0  0  0  0  0  0  0  0
    1.7579   12.0072    0.9471 H   0  0  0  0  0  0  0  0  0  0  0  0
    0.1387   11.5740    0.4053 H   0  0  0  0  0  0  0  0  0  0  0  0
    3.0522   13.3319    0.0562 H   0  0  0  0  0  0  0  0  0  0  0  0
    3.5198   12.5558   -1.4948 H   0  0  0  0  0  0  0  0  0  0  0  0
    2.8040   14.2033   -1.4948 H   0  0  0  0  0  0  0  0  0  0  0  0
    0.3370   10.9554   -1.9281 H   0  0  0  0  0  0  0  0  0  0  0  0
    2.4000   10.2278   -0.5661 H   0  0  0  0  0  0  0  0  0  0  0  0
    1.8614    9.2887   -2.0549 H   0  0  0  0  0  0  0  0  0  0  0  0
    4.4561    9.6625   -1.7887 H   0  0  0  0  0  0  0  0  0  0  0  0
    3.1991   12.9579   -3.7552 H   0  0  0  0  0  0  0  0  0  0  0  0
    2.9913   10.6970   -5.8377 H   0  0  0  0  0  0  0  0  0  0  0  0
    2.5616   12.4485   -6.0795 H   0  0  0  0  0  0  0  0  0  0  0  0
    4.7510   11.8752   -7.0786 H   0  0  0  0  0  0  0  0  0  0  0  0
    4.8784   13.0939   -5.7501 H   0  0  0  0  0  0  0  0  0  0  0  0
    6.6614   11.5054   -5.5129 H   0  0  0  0  0  0  0  0  0  0  0  0
    6.2330    9.5410   -6.2120 H   0  0  0  0  0  0  0  0  0  0  0  0
    6.0319   12.6361   -2.1252 H   0  0  0  0  0  0  0  0  0  0  0  0
    7.0438   12.7917   -3.6012 H   0  0  0  0  0  0  0  0  0  0  0  0
    5.3552   13.4043   -3.6012 H   0  0  0  0  0  0  0  0  0  0  0  0
    6.4335   10.2384   -2.0006 H   0  0  0  0  0  0  0  0  0  0  0  0
    6.1857    9.1771   -3.4285 H   0  0  0  0  0  0  0  0  0  0  0  0
    7.5131   10.3873   -3.4285 H   0  0  0  0  0  0  0  0  0  0  0  0
    0.4895    9.7627   -3.6869 H   0  0  0  0  0  0  0  0  0  0  0  0
    0.0550   10.8750   -5.0288 H   0  0  0  0  0  0  0  0  0  0  0  0
    1.6492   10.0472   -5.0288 H   0  0  0  0  0  0  0  0  0  0  0  0
    1.1023   13.3805   -4.9360 H   0  0  0  0  0  0  0  0  0  0  0  0
   -0.3718   12.6291   -4.1008 H   0  0  0  0  0  0  0  0  0  0  0  0
    1.6025   14.6114   -2.9357 H   0  0  0  0  0  0  0  0  0  0  0  0
   -0.1520   14.8476   -3.3008 H   0  0  0  0  0  0  0  0  0  0  0  0
   -1.5804   12.8285   -0.6601 H   0  0  0  0  0  0  0  0  0  0  0  0
   -1.8539   13.6880   -2.2135 H   0  0  0  0  0  0  0  0  0  0  0  0
   -1.1532   12.0340   -2.2135 H   0  0  0  0  0  0  0  0  0  0  0  0
  1  2  1  0
  2  3  1  0
  3  4  1  0
  4  5  1  0
  5  6  1  0
  6  7  1  0
  7  8  1  0
  7  9  1  0
  2 10  1  0
 10 11  1  0
 11 12  1  0
 12 13  1  0
 13 14  1  1
 13 15  1  0
 15 16  1  0
 16 17  1  0
 17 18  2  0
 18 19  1  0
 19 20  1  0
 20 21  1  0
 21 22  1  0
 22 23  1  0
 22 24  1  0
 24 25  1  0
 24 26  1  0
 19 27  1  0
 27 28  1  6
 27 29  1  0
 29 30  1  0
 30 31  1  0
 31 32  1  6
  7  5  1  0
 31 10  1  0
 31 13  1  0
 27 15  1  0
 24 18  1  0
  1 33  1  0
  1 34  1  0
  1 35  1  0
  2 36  1  6
  3 37  1  0
  3 38  1  0
  4 39  1  0
  4 40  1  0
  5 41  1  6
  8 42  1  0
  8 43  1  0
  8 44  1  0
  9 45  1  0
  9 46  1  0
  9 47  1  0
 10 48  1  6
 11 49  1  0
 11 50  1  0
 12 51  1  0
 12 52  1  0
 14 53  1  0
 14 54  1  0
 14 55  1  0
 15 56  1  6
 16 57  1  0
 16 58  1  0
 17 59  1  0
 19 60  1  6
 20 61  1  0
 20 62  1  0
 21 63  1  0
 21 64  1  0
 22 65  1  1
 23 66  1  0
 25 67  1  0
 25 68  1  0
 25 69  1  0
 26 70  1  0
 26 71  1  0
 26 72  1  0
 28 73  1  0
 28 74  1  0
 28 75  1  0
 29 76  1  0
 29 77  1  0
 30 78  1  0
 30 79  1  0
 32 80  1  0
 32 81  1  0
 32 82  1  0
M  END
>  <meeko>  (16) 
{"is_sidechain": [false], "intermolecular_energy": 2.731, "internal_energy": -0.839}

$$$$
EPH_relaxed_0001_pdb2pqr_Repair_304_r2_0001_out
     RDKit          3D

 82 86  0  0  0  0  0  0  0  0999 V2000
    0.9340   14.6190   -4.8710 C   0  0  0  0  0  0  0  0  0  0  0  0
    0.5560   14.1150   -3.4750 C   0  0  2  0  0  0  0  0  0  0  0  0
    1.6910   14.3300   -2.4530 C   0  0  0  0  0  0  0  0  0  0  0  0
    1.5470   15.6150   -1.6340 C   0  0  0  0  0  0  0  0  0  0  0  0
    2.8610   16.0600   -1.0660 C   0  0  2  0  0  0  0  0  0  0  0  0
    2.9900   15.8870    0.3510 O   0  0  0  0  0  0  0  0  0  0  0  0
    3.0090   17.2420   -0.1260 C   0  0  0  0  0  0  0  0  0  0  0  0
    1.8250   18.0540    0.2990 C   0  0  0  0  0  0  0  0  0  0  0  0
    4.3470   17.9030   -0.0120 C   0  0  0  0  0  0  0  0  0  0  0  0
    0.1840   12.6380   -3.5380 C   0  0  1  0  0  0  0  0  0  0  0  0
    1.4000   11.7300   -3.8610 C   0  0  0  0  0  0  0  0  0  0  0  0
    1.1920   10.4090   -3.0760 C   0  0  0  0  0  0  0  0  0  0  0  0
   -0.2780   10.4660   -2.5990 C   0  0  1  0  0  0  0  0  0  0  0  0
   -1.1180   10.0120   -3.8330 C   0  0  0  0  0  0  0  0  0  0  0  0
   -0.6240    9.6280   -1.3250 C   0  0  2  0  0  0  0  0  0  0  0  0
   -0.4270    8.1090   -1.4700 C   0  0  0  0  0  0  0  0  0  0  0  0
   -1.6230    7.3540   -1.9480 C   0  0  0  0  0  0  0  0  0  0  0  0
   -2.8840    7.8230   -1.9780 C   0  0  0  0  0  0  0  0  0  0  0  0
   -3.2230    9.2070   -1.4080 C   0  0  1  0  0  0  0  0  0  0  0  0
   -4.4900    9.1030   -0.5180 C   0  0  0  0  0  0  0  0  0  0  0  0
   -5.6690    8.4690   -1.2500 C   0  0  0  0  0  0  0  0  0  0  0  0
   -5.3110    7.0720   -1.7510 C   0  0  2  0  0  0  0  0  0  0  0  0
   -5.1160    6.2130   -0.6230 O   0  0  0  0  0  0  0  0  0  0  0  0
   -4.0440    7.0490   -2.6510 C   0  0  0  0  0  0  0  0  0  0  0  0
   -4.3580    7.7260   -4.0080 C   0  0  0  0  0  0  0  0  0  0  0  0
   -3.7130    5.5670   -2.9720 C   0  0  0  0  0  0  0  0  0  0  0  0
   -2.0310    9.9700   -0.6860 C   0  0  1  0  0  0  0  0  0  0  0  0
   -1.9550    9.5440    0.8120 C   0  0  0  0  0  0  0  0  0  0  0  0
   -2.3310   11.5160   -0.6940 C   0  0  0  0  0  0  0  0  0  0  0  0
   -1.8580   12.3100   -1.9270 C   0  0  0  0  0  0  0  0  0  0  0  0
   -0.3950   11.9950   -2.2530 C   0  0  2  0  0  0  0  0  0  0  0  0
    0.4770   12.4620   -1.0380 C   0  0  0  0  0  0  0  0  0  0  0  0
    1.5917   15.4959   -4.7786 H   0  0  0  0  0  0  0  0  0  0  0  0
    1.4594   13.8227   -5.4185 H   0  0  0  0  0  0  0  0  0  0  0  0
    0.0224   14.9004   -5.4185 H   0  0  0  0  0  0  0  0  0  0  0  0
   -0.3100   14.7017   -3.1348 H   0  0  0  0  0  0  0  0  0  0  0  0
    1.7005   13.4758   -1.7600 H   0  0  0  0  0  0  0  0  0  0  0  0
    2.6264   14.4170   -3.0253 H   0  0  0  0  0  0  0  0  0  0  0  0
    1.1520   16.4097   -2.2839 H   0  0  0  0  0  0  0  0  0  0  0  0
    0.8620   15.4136   -0.7972 H   0  0  0  0  0  0  0  0  0  0  0  0
    3.3820   15.7867   -1.9955 H   0  0  0  0  0  0  0  0  0  0  0  0
    1.7778   18.0864    1.3975 H   0  0  0  0  0  0  0  0  0  0  0  0
    1.9216   19.0768   -0.0941 H   0  0  0  0  0  0  0  0  0  0  0  0
    0.9057   17.5954   -0.0941 H   0  0  0  0  0  0  0  0  0  0  0  0
    4.6040   18.0299    1.0500 H   0  0  0  0  0  0  0  0  0  0  0  0
    5.1080   17.2772   -0.5011 H   0  0  0  0  0  0  0  0  0  0  0  0
    4.3124   18.8877   -0.5011 H   0  0  0  0  0  0  0  0  0  0  0  0
   -0.5883   12.6751   -4.3205 H   0  0  0  0  0  0  0  0  0  0  0  0
    1.4443   11.5260   -4.9410 H   0  0  0  0  0  0  0  0  0  0  0  0
    2.3438   12.2163   -3.5734 H   0  0  0  0  0  0  0  0  0  0  0  0
    1.3548    9.5392   -3.7294 H   0  0  0  0  0  0  0  0  0  0  0  0
    1.8984   10.3054   -2.2392 H   0  0  0  0  0  0  0  0  0  0  0  0
   -2.0370    9.5153   -3.4883 H   0  0  0  0  0  0  0  0  0  0  0  0
   -1.3817   10.8904   -4.4403 H   0  0  0  0  0  0  0  0  0  0  0  0
   -0.5276    9.3102   -4.4403 H   0  0  0  0  0  0  0  0  0  0  0  0
    0.1412    9.9616   -0.6086 H   0  0  0  0  0  0  0  0  0  0  0  0
    0.3908    7.9390   -2.1858 H   0  0  0  0  0  0  0  0  0  0  0  0
   -0.2128    7.7319   -0.4591 H   0  0  0  0  0  0  0  0  0  0  0  0
   -1.4595    6.3269   -2.3062 H   0  0  0  0  0  0  0  0  0  0  0  0
   -3.4273    9.8523   -2.2751 H   0  0  0  0  0  0  0  0  0  0  0  0
   -4.2519    8.4904    0.3641 H   0  0  0  0  0  0  0  0  0  0  0  0
   -4.7834   10.1245   -0.2344 H   0  0  0  0  0  0  0  0  0  0  0  0
   -6.5238    8.3967   -0.5615 H   0  0  0  0  0  0  0  0  0  0  0  0
   -5.9251    9.0980   -2.1153 H   0  0  0  0  0  0  0  0  0  0  0  0
   -6.1457    6.7227   -2.3765 H   0  0  0  0  0  0  0  0  0  0  0  0
   -5.3120    6.7300    0.1770 H   0  0  0  0  0  0  0  0  0  0  0  0
   -4.8147    8.7107   -3.8295 H   0  0  0  0  0  0  0  0  0  0  0  0
   -3.4264    7.8520   -4.5792 H   0  0  0  0  0  0  0  0  0  0  0  0
   -5.0559    7.0962   -4.5792 H   0  0  0  0  0  0  0  0  0  0  0  0
   -3.5881    5.0076   -2.0332 H   0  0  0  0  0  0  0  0  0  0  0  0
   -4.5347    5.1258   -3.5552 H   0  0  0  0  0  0  0  0  0  0  0  0
   -2.7816    5.5173   -3.5552 H   0  0  0  0  0  0  0  0  0  0  0  0
   -2.1121   10.4247    1.4521 H   0  0  0  0  0  0  0  0  0  0  0  0
   -2.7338    8.7956    1.0204 H   0  0  0  0  0  0  0  0  0  0  0  0
   -0.9654    9.1111    1.0204 H   0  0  0  0  0  0  0  0  0  0  0  0
   -3.4206   11.6438   -0.6140 H   0  0  0  0  0  0  0  0  0  0  0  0
   -1.7553   11.9249    0.1494 H   0  0  0  0  0  0  0  0  0  0  0  0
   -2.4849   12.0417   -2.7901 H   0  0  0  0  0  0  0  0  0  0  0  0
   -1.9452   13.3843   -1.7073 H   0  0  0  0  0  0  0  0  0  0  0  0
   -0.0279   12.1916   -0.0989 H   0  0  0  0  0  0  0  0  0  0  0  0
    1.4596   11.9694   -1.0810 H   0  0  0  0  0  0  0  0  0  0  0  0
    0.6115   13.5529   -1.0810 H   0  0  0  0  0  0  0  0  0  0  0  0
  1  2  1  0
  2  3  1  0
  3  4  1  0
  4  5  1  0
  5  6  1  0
  6  7  1  0
  7  8  1  0
  7  9  1  0
  2 10  1  0
 10 11  1  0
 11 12  1  0
 12 13  1  0
 13 14  1  6
 13 15  1  0
 15 16  1  0
 16 17  1  0
 17 18  2  0
 18 19  1  0
 19 20  1  0
 20 21  1  0
 21 22  1  0
 22 23  1  0
 22 24  1  0
 24 25  1  0
 24 26  1  0
 19 27  1  0
 27 28  1  1
 27 29  1  0
 29 30  1  0
 30 31  1  0
 31 32  1  1
  7  5  1  0
 31 10  1  0
 31 13  1  0
 27 15  1  0
 24 18  1  0
  1 33  1  0
  1 34  1  0
  1 35  1  0
  2 36  1  1
  3 37  1  0
  3 38  1  0
  4 39  1  0
  4 40  1  0
  5 41  1  6
  8 42  1  0
  8 43  1  0
  8 44  1  0
  9 45  1  0
  9 46  1  0
  9 47  1  0
 10 48  1  6
 11 49  1  0
 11 50  1  0
 12 51  1  0
 12 52  1  0
 14 53  1  0
 14 54  1  0
 14 55  1  0
 15 56  1  1
 16 57  1  0
 16 58  1  0
 17 59  1  0
 19 60  1  6
 20 61  1  0
 20 62  1  0
 21 63  1  0
 21 64  1  0
 22 65  1  6
 23 66  1  0
 25 67  1  0
 25 68  1  0
 25 69  1  0
 26 70  1  0
 26 71  1  0
 26 72  1  0
 28 73  1  0
 28 74  1  0
 28 75  1  0
 29 76  1  0
 29 77  1  0
 30 78  1  0
 30 79  1  0
 32 80  1  0
 32 81  1  0
 32 82  1  0
M  END
>  <meeko>  (17) 
{"is_sidechain": [false], "intermolecular_energy": 2.731, "internal_energy": -0.839}

$$$$
EPH_relaxed_0001_pdb2pqr_Repair_304_r2_0001_out
     RDKit          3D

 82 86  0  0  0  0  0  0  0  0999 V2000
  -14.1080    9.6870    0.1470 C   0  0  0  0  0  0  0  0  0  0  0  0
  -13.3530    8.9100   -0.9350 C   0  0  2  0  0  0  0  0  0  0  0  0
  -14.0550    7.5860   -1.2960 C   0  0  0  0  0  0  0  0  0  0  0  0
  -15.2790    7.7640   -2.1990 C   0  0  0  0  0  0  0  0  0  0  0  0
  -15.0370    7.2220   -3.5750 C   0  0  2  0  0  0  0  0  0  0  0  0
  -13.8180    7.6640   -4.1860 O   0  0  0  0  0  0  0  0  0  0  0  0
  -15.0350    8.0820   -4.8240 C   0  0  0  0  0  0  0  0  0  0  0  0
  -15.2820    9.5570   -4.7570 C   0  0  0  0  0  0  0  0  0  0  0  0
  -15.2800    7.4240   -6.1470 C   0  0  0  0  0  0  0  0  0  0  0  0
  -11.9250    8.6350   -0.4780 C   0  0  1  0  0  0  0  0  0  0  0  0
  -11.8550    8.1250    0.9860 C   0  0  0  0  0  0  0  0  0  0  0  0
  -10.6860    7.1090    1.0500 C   0  0  0  0  0  0  0  0  0  0  0  0
   -9.9180    7.3130   -0.2770 C   0  0  1  0  0  0  0  0  0  0  0  0
   -9.0140    8.5610   -0.0290 C   0  0  0  0  0  0  0  0  0  0  0  0
   -9.0880    6.0920   -0.7910 C   0  0  2  0  0  0  0  0  0  0  0  0
   -7.9450    5.6430    0.1370 C   0  0  0  0  0  0  0  0  0  0  0  0
   -6.6250    6.2900   -0.1200 C   0  0  0  0  0  0  0  0  0  0  0  0
   -6.2930    6.9780   -1.2280 C   0  0  0  0  0  0  0  0  0  0  0  0
   -7.2620    7.0770   -2.4140 C   0  0  1  0  0  0  0  0  0  0  0  0
   -6.4960    6.7940   -3.7330 C   0  0  0  0  0  0  0  0  0  0  0  0
   -5.2730    7.6900   -3.9030 C   0  0  0  0  0  0  0  0  0  0  0  0
   -4.3060    7.5210   -2.7340 C   0  0  2  0  0  0  0  0  0  0  0  0
   -3.7610    6.1980   -2.7740 O   0  0  0  0  0  0  0  0  0  0  0  0
   -4.9680    7.7710   -1.3500 C   0  0  0  0  0  0  0  0  0  0  0  0
   -5.2870    9.2780   -1.1910 C   0  0  0  0  0  0  0  0  0  0  0  0
   -3.9240    7.4300   -0.2520 C   0  0  0  0  0  0  0  0  0  0  0  0
   -8.5980    6.2260   -2.2890 C   0  0  1  0  0  0  0  0  0  0  0  0
   -8.3560    4.7760   -2.8100 C   0  0  0  0  0  0  0  0  0  0  0  0
   -9.6970    6.8550   -3.2240 C   0  0  0  0  0  0  0  0  0  0  0  0
  -10.5650    7.9760   -2.6200 C   0  0  0  0  0  0  0  0  0  0  0  0
  -11.1230    7.5620   -1.2560 C   0  0  2  0  0  0  0  0  0  0  0  0
  -12.0550    6.3220   -1.4760 C   0  0  0  0  0  0  0  0  0  0  0  0
  -13.7781    9.3475    1.1399 H   0  0  0  0  0  0  0  0  0  0  0  0
  -13.9000   10.7618    0.0392 H   0  0  0  0  0  0  0  0  0  0  0  0
  -15.1883    9.5100    0.0392 H   0  0  0  0  0  0  0  0  0  0  0  0
  -13.3393    9.5339   -1.8409 H   0  0  0  0  0  0  0  0  0  0  0  0
  -13.3317    6.9398   -1.8149 H   0  0  0  0  0  0  0  0  0  0  0  0
  -14.4122    7.1445   -0.3539 H   0  0  0  0  0  0  0  0  0  0  0  0
  -16.1321    7.2328   -1.7517 H   0  0  0  0  0  0  0  0  0  0  0  0
  -15.4865    8.8407   -2.2865 H   0  0  0  0  0  0  0  0  0  0  0  0
  -15.5588    6.2867   -3.3242 H   0  0  0  0  0  0  0  0  0  0  0  0
  -15.3348    9.8725   -3.7045 H   0  0  0  0  0  0  0  0  0  0  0  0
  -14.4605   10.0895   -5.2586 H   0  0  0  0  0  0  0  0  0  0  0  0
  -16.2321    9.7928   -5.2586 H   0  0  0  0  0  0  0  0  0  0  0  0
  -15.6596    6.4044   -5.9847 H   0  0  0  0  0  0  0  0  0  0  0  0
  -16.0218    8.0056   -6.7140 H   0  0  0  0  0  0  0  0  0  0  0  0
  -14.3385    7.3788   -6.7140 H   0  0  0  0  0  0  0  0  0  0  0  0
  -11.4832    9.6284   -0.6450 H   0  0  0  0  0  0  0  0  0  0  0  0
  -11.6652    8.9645    1.6710 H   0  0  0  0  0  0  0  0  0  0  0  0
  -12.8033    7.6555    1.2866 H   0  0  0  0  0  0  0  0  0  0  0  0
  -10.0353    7.3196    1.9115 H   0  0  0  0  0  0  0  0  0  0  0  0
  -11.0390    6.0744    1.1726 H   0  0  0  0  0  0  0  0  0  0  0  0
   -8.8983    8.7207    1.0532 H   0  0  0  0  0  0  0  0  0  0  0  0
   -8.0259    8.3940   -0.4827 H   0  0  0  0  0  0  0  0  0  0  0  0
   -9.4807    9.4478   -0.4827 H   0  0  0  0  0  0  0  0  0  0  0  0
   -9.8275    5.2779   -0.7692 H   0  0  0  0  0  0  0  0  0  0  0  0
   -8.2388    5.8694    1.1726 H   0  0  0  0  0  0  0  0  0  0  0  0
   -7.8007    4.5695   -0.0547 H   0  0  0  0  0  0  0  0  0  0  0  0
   -5.8580    6.1966    0.6629 H   0  0  0  0  0  0  0  0  0  0  0  0
   -7.6377    8.1109   -2.4156 H   0  0  0  0  0  0  0  0  0  0  0  0
   -6.1667    5.7444   -3.7313 H   0  0  0  0  0  0  0  0  0  0  0  0
   -7.1810    7.0020   -4.5682 H   0  0  0  0  0  0  0  0  0  0  0  0
   -4.7581    7.4228   -4.8376 H   0  0  0  0  0  0  0  0  0  0  0  0
   -5.6069    8.7376   -3.9337 H   0  0  0  0  0  0  0  0  0  0  0  0
   -3.5173    8.2796   -2.8463 H   0  0  0  0  0  0  0  0  0  0  0  0
   -3.3330    6.0830   -3.6390 H   0  0  0  0  0  0  0  0  0  0  0  0
   -5.3405    9.5306   -0.1217 H   0  0  0  0  0  0  0  0  0  0  0  0
   -4.4949    9.8729   -1.6692 H   0  0  0  0  0  0  0  0  0  0  0  0
   -6.2522    9.5009   -1.6692 H   0  0  0  0  0  0  0  0  0  0  0  0
   -4.3745    7.5772    0.7407 H   0  0  0  0  0  0  0  0  0  0  0  0
   -3.6079    6.3819   -0.3595 H   0  0  0  0  0  0  0  0  0  0  0  0
   -3.0501    8.0894   -0.3595 H   0  0  0  0  0  0  0  0  0  0  0  0
   -8.2421    4.0934   -1.9550 H   0  0  0  0  0  0  0  0  0  0  0  0
   -9.2135    4.4581   -3.4212 H   0  0  0  0  0  0  0  0  0  0  0  0
   -7.4417    4.7538   -3.4212 H   0  0  0  0  0  0  0  0  0  0  0  0
   -9.1863    7.2684   -4.1062 H   0  0  0  0  0  0  0  0  0  0  0  0
  -10.3965    6.0336   -3.4387 H   0  0  0  0  0  0  0  0  0  0  0  0
   -9.9510    8.8805   -2.4981 H   0  0  0  0  0  0  0  0  0  0  0  0
  -11.4079    8.1715   -3.2992 H   0  0  0  0  0  0  0  0  0  0  0  0
  -12.3606    5.9154   -0.5007 H   0  0  0  0  0  0  0  0  0  0  0  0
  -12.9473    6.6296   -2.0409 H   0  0  0  0  0  0  0  0  0  0  0  0
  -11.5114    5.5504   -2.0409 H   0  0  0  0  0  0  0  0  0  0  0  0
  1  2  1  0
  2  3  1  0
  3  4  1  0
  4  5  1  0
  5  6  1  0
  6  7  1  0
  7  8  1  0
  7  9  1  0
  2 10  1  0
 10 11  1  0
 11 12  1  0
 12 13  1  0
 13 14  1  1
 13 15  1  0
 15 16  1  0
 16 17  1  0
 17 18  2  0
 18 19  1  0
 19 20  1  0
 20 21  1  0
 21 22  1  0
 22 23  1  0
 22 24  1  0
 24 25  1  0
 24 26  1  0
 19 27  1  0
 27 28  1  6
 27 29  1  0
 29 30  1  0
 30 31  1  0
 31 32  1  6
  7  5  1  0
 31 10  1  0
 31 13  1  0
 27 15  1  0
 24 18  1  0
  1 33  1  0
  1 34  1  0
  1 35  1  0
  2 36  1  6
  3 37  1  0
  3 38  1  0
  4 39  1  0
  4 40  1  0
  5 41  1  6
  8 42  1  0
  8 43  1  0
  8 44  1  0
  9 45  1  0
  9 46  1  0
  9 47  1  0
 10 48  1  1
 11 49  1  0
 11 50  1  0
 12 51  1  0
 12 52  1  0
 14 53  1  0
 14 54  1  0
 14 55  1  0
 15 56  1  6
 16 57  1  0
 16 58  1  0
 17 59  1  0
 19 60  1  6
 20 61  1  0
 20 62  1  0
 21 63  1  0
 21 64  1  0
 22 65  1  6
 23 66  1  0
 25 67  1  0
 25 68  1  0
 25 69  1  0
 26 70  1  0
 26 71  1  0
 26 72  1  0
 28 73  1  0
 28 74  1  0
 28 75  1  0
 29 76  1  0
 29 77  1  0
 30 78  1  0
 30 79  1  0
 32 80  1  0
 32 81  1  0
 32 82  1  0
M  END
>  <meeko>  (18) 
{"is_sidechain": [false], "intermolecular_energy": 2.731, "internal_energy": -0.839}

$$$$
