EPH_relaxed_0001_pdb2pqr_Repair_207_r2_0001_out
     RDKit          3D

 82 86  0  0  0  0  0  0  0  0999 V2000
   -1.5550    8.5560   -1.7800 C   0  0  0  0  0  0  0  0  0  0  0  0
   -1.9650    9.1590   -0.4330 C   0  0  2  0  0  0  0  0  0  0  0  0
   -3.4470    9.5840   -0.4150 C   0  0  0  0  0  0  0  0  0  0  0  0
   -4.4220    8.4120   -0.2810 C   0  0  0  0  0  0  0  0  0  0  0  0
   -5.0600    8.0690   -1.5930 C   0  0  2  0  0  0  0  0  0  0  0  0
   -6.3380    8.6800   -1.8150 O   0  0  0  0  0  0  0  0  0  0  0  0
   -6.3300    7.2470   -1.7160 C   0  0  0  0  0  0  0  0  0  0  0  0
   -7.0360    6.7160   -0.5080 C   0  0  0  0  0  0  0  0  0  0  0  0
   -6.6090    6.5520   -3.0120 C   0  0  0  0  0  0  0  0  0  0  0  0
   -1.0760   10.3540   -0.1070 C   0  0  1  0  0  0  0  0  0  0  0  0
    0.0380   10.0080    0.9170 C   0  0  0  0  0  0  0  0  0  0  0  0
    1.2820   10.8450    0.5240 C   0  0  0  0  0  0  0  0  0  0  0  0
    0.7500   11.8810   -0.4940 C   0  0  1  0  0  0  0  0  0  0  0  0
    0.1100   13.0070    0.3770 C   0  0  0  0  0  0  0  0  0  0  0  0
    1.7950   12.4550   -1.5050 C   0  0  2  0  0  0  0  0  0  0  0  0
    2.9520   13.2450   -0.8690 C   0  0  0  0  0  0  0  0  0  0  0  0
    2.7140   14.7110   -0.7140 C   0  0  0  0  0  0  0  0  0  0  0  0
    1.7420   15.4140   -1.3240 C   0  0  0  0  0  0  0  0  0  0  0  0
    0.8140   14.7500   -2.3490 C   0  0  1  0  0  0  0  0  0  0  0  0
    0.6910   15.6580   -3.6000 C   0  0  0  0  0  0  0  0  0  0  0  0
    0.2540   17.0780   -3.2520 C   0  0  0  0  0  0  0  0  0  0  0  0
    1.2330   17.7260   -2.2760 C   0  0  2  0  0  0  0  0  0  0  0  0
    2.4880   17.9140   -2.9380 O   0  0  0  0  0  0  0  0  0  0  0  0
    1.4460   16.8950   -0.9800 C   0  0  0  0  0  0  0  0  0  0  0  0
    0.1630   16.9450   -0.1130 C   0  0  0  0  0  0  0  0  0  0  0  0
    2.5590   17.5860   -0.1470 C   0  0  0  0  0  0  0  0  0  0  0  0
    1.1560   13.2430   -2.7200 C   0  0  1  0  0  0  0  0  0  0  0  0
    2.2030   13.2040   -3.8750 C   0  0  0  0  0  0  0  0  0  0  0  0
   -0.1410   12.5420   -3.2720 C   0  0  0  0  0  0  0  0  0  0  0  0
   -1.0730   11.8890   -2.2330 C   0  0  0  0  0  0  0  0  0  0  0  0
   -0.2830   10.9910   -1.2760 C   0  0  2  0  0  0  0  0  0  0  0  0
    0.3530    9.8350   -2.1210 C   0  0  0  0  0  0  0  0  0  0  0  0
   -0.9440    7.6574   -1.6087 H   0  0  0  0  0  0  0  0  0  0  0  0
   -2.4560    8.2838   -2.3493 H   0  0  0  0  0  0  0  0  0  0  0  0
   -0.9705    9.2938   -2.3493 H   0  0  0  0  0  0  0  0  0  0  0  0
   -1.8357    8.3797    0.3325 H   0  0  0  0  0  0  0  0  0  0  0  0
   -3.6028   10.2642    0.4353 H   0  0  0  0  0  0  0  0  0  0  0  0
   -3.6548   10.0658   -1.3818 H   0  0  0  0  0  0  0  0  0  0  0  0
   -3.8741    7.5331    0.0896 H   0  0  0  0  0  0  0  0  0  0  0  0
   -5.2168    8.7056    0.4205 H   0  0  0  0  0  0  0  0  0  0  0  0
   -4.0756    7.9833   -2.0764 H   0  0  0  0  0  0  0  0  0  0  0  0
   -6.5400    7.0891    0.4002 H   0  0  0  0  0  0  0  0  0  0  0  0
   -8.0833    7.0521   -0.5181 H   0  0  0  0  0  0  0  0  0  0  0  0
   -7.0036    5.6165   -0.5181 H   0  0  0  0  0  0  0  0  0  0  0  0
   -7.0119    5.5484   -2.8106 H   0  0  0  0  0  0  0  0  0  0  0  0
   -7.3436    7.1330   -3.5889 H   0  0  0  0  0  0  0  0  0  0  0  0
   -5.6766    6.4638   -3.5889 H   0  0  0  0  0  0  0  0  0  0  0  0
   -1.8393   11.0573    0.2573 H   0  0  0  0  0  0  0  0  0  0  0  0
   -0.2883   10.2692    1.9345 H   0  0  0  0  0  0  0  0  0  0  0  0
    0.2658    8.9319    0.9044 H   0  0  0  0  0  0  0  0  0  0  0  0
    1.7053   11.3488    1.4055 H   0  0  0  0  0  0  0  0  0  0  0  0
    2.0871   10.2237    0.1046 H   0  0  0  0  0  0  0  0  0  0  0  0
    0.2456   12.7684    1.4422 H   0  0  0  0  0  0  0  0  0  0  0  0
    0.5975   13.9669    0.1513 H   0  0  0  0  0  0  0  0  0  0  0  0
   -0.9642   13.0793    0.1513 H   0  0  0  0  0  0  0  0  0  0  0  0
    2.2486   11.5426   -1.9194 H   0  0  0  0  0  0  0  0  0  0  0  0
    3.1426   12.8242    0.1293 H   0  0  0  0  0  0  0  0  0  0  0  0
    3.8033   13.1461   -1.5586 H   0  0  0  0  0  0  0  0  0  0  0  0
    3.3903   15.2629   -0.0447 H   0  0  0  0  0  0  0  0  0  0  0  0
   -0.1656   14.6572   -1.8572 H   0  0  0  0  0  0  0  0  0  0  0  0
    1.6695   15.7029   -4.1006 H   0  0  0  0  0  0  0  0  0  0  0  0
   -0.0789   15.2227   -4.2540 H   0  0  0  0  0  0  0  0  0  0  0  0
    0.2134   17.6781   -4.1730 H   0  0  0  0  0  0  0  0  0  0  0  0
   -0.7375   17.0341   -2.7777 H   0  0  0  0  0  0  0  0  0  0  0  0
    0.7999   18.6880   -1.9646 H   0  0  0  0  0  0  0  0  0  0  0  0
    3.1460   17.3600   -2.4850 H   0  0  0  0  0  0  0  0  0  0  0  0
    0.4393   16.9342    0.9517 H   0  0  0  0  0  0  0  0  0  0  0  0
   -0.3956   17.8656   -0.3376 H   0  0  0  0  0  0  0  0  0  0  0  0
   -0.4656   16.0707   -0.3376 H   0  0  0  0  0  0  0  0  0  0  0  0
    2.3491   17.4557    0.9249 H   0  0  0  0  0  0  0  0  0  0  0  0
    3.5320   17.1329   -0.3878 H   0  0  0  0  0  0  0  0  0  0  0  0
    2.5845   18.6590   -0.3878 H   0  0  0  0  0  0  0  0  0  0  0  0
    3.2168   13.1662   -3.4498 H   0  0  0  0  0  0  0  0  0  0  0  0
    2.0320   12.3116   -4.4950 H   0  0  0  0  0  0  0  0  0  0  0  0
    2.0988   14.1066   -4.4950 H   0  0  0  0  0  0  0  0  0  0  0  0
   -0.7253   13.3012   -3.8126 H   0  0  0  0  0  0  0  0  0  0  0  0
    0.2232   11.7114   -3.8945 H   0  0  0  0  0  0  0  0  0  0  0  0
   -1.5754   12.6779   -1.6540 H   0  0  0  0  0  0  0  0  0  0  0  0
   -1.8122   11.2713   -2.7640 H   0  0  0  0  0  0  0  0  0  0  0  0
    0.7714    9.0744   -1.4454 H   0  0  0  0  0  0  0  0  0  0  0  0
   -0.4199    9.3766   -2.7554 H   0  0  0  0  0  0  0  0  0  0  0  0
    1.1539   10.2424   -2.7554 H   0  0  0  0  0  0  0  0  0  0  0  0
  1  2  1  0
  2  3  1  0
  3  4  1  0
  4  5  1  0
  5  6  1  0
  6  7  1  0
  7  8  1  0
  7  9  1  0
  2 10  1  0
 10 11  1  0
 11 12  1  0
 12 13  1  0
 13 14  1  1
 13 15  1  0
 15 16  1  0
 16 17  1  0
 17 18  2  0
 18 19  1  0
 19 20  1  0
 20 21  1  0
 21 22  1  0
 22 23  1  0
 22 24  1  0
 24 25  1  0
 24 26  1  0
 19 27  1  0
 27 28  1  6
 27 29  1  0
 29 30  1  0
 30 31  1  0
 31 32  1  6
  7  5  1  0
 31 10  1  0
 31 13  1  0
 27 15  1  0
 24 18  1  0
  1 33  1  0
  1 34  1  0
  1 35  1  0
  2 36  1  1
  3 37  1  0
  3 38  1  0
  4 39  1  0
  4 40  1  0
  5 41  1  6
  8 42  1  0
  8 43  1  0
  8 44  1  0
  9 45  1  0
  9 46  1  0
  9 47  1  0
 10 48  1  1
 11 49  1  0
 11 50  1  0
 12 51  1  0
 12 52  1  0
 14 53  1  0
 14 54  1  0
 14 55  1  0
 15 56  1  6
 16 57  1  0
 16 58  1  0
 17 59  1  0
 19 60  1  1
 20 61  1  0
 20 62  1  0
 21 63  1  0
 21 64  1  0
 22 65  1  1
 23 66  1  0
 25 67  1  0
 25 68  1  0
 25 69  1  0
 26 70  1  0
 26 71  1  0
 26 72  1  0
 28 73  1  0
 28 74  1  0
 28 75  1  0
 29 76  1  0
 29 77  1  0
 30 78  1  0
 30 79  1  0
 32 80  1  0
 32 81  1  0
 32 82  1  0
M  END
>  <meeko>  (1) 
{"is_sidechain": [false], "intermolecular_energy": 2.731, "internal_energy": -0.839}

$$$$
EPH_relaxed_0001_pdb2pqr_Repair_207_r2_0001_out
     RDKit          3D

 82 86  0  0  0  0  0  0  0  0999 V2000
    4.2040   17.6720   -0.5020 C   0  0  0  0  0  0  0  0  0  0  0  0
    2.8460   18.2170   -0.0520 C   0  0  2  0  0  0  0  0  0  0  0  0
    2.9180   18.8830    1.3370 C   0  0  0  0  0  0  0  0  0  0  0  0
    4.2670   18.6990    2.0380 C   0  0  0  0  0  0  0  0  0  0  0  0
    4.2410   19.2320    3.4380 C   0  0  2  0  0  0  0  0  0  0  0  0
    5.2640   20.1920    3.7330 O   0  0  0  0  0  0  0  0  0  0  0  0
    5.3280   18.9550    4.4590 C   0  0  0  0  0  0  0  0  0  0  0  0
    6.5180   18.1120    4.1230 C   0  0  0  0  0  0  0  0  0  0  0  0
    4.9960   19.0910    5.9130 C   0  0  0  0  0  0  0  0  0  0  0  0
    1.8140   17.0960   -0.0390 C   0  0  1  0  0  0  0  0  0  0  0  0
    0.3760   17.6030   -0.3290 C   0  0  0  0  0  0  0  0  0  0  0  0
   -0.3380   16.4870   -1.1350 C   0  0  0  0  0  0  0  0  0  0  0  0
    0.5850   15.2540   -0.9960 C   0  0  1  0  0  0  0  0  0  0  0  0
    0.2350   14.6460    0.3980 C   0  0  0  0  0  0  0  0  0  0  0  0
    0.4860   14.1860   -2.1340 C   0  0  2  0  0  0  0  0  0  0  0  0
   -0.8860   13.5040   -2.2710 C   0  0  0  0  0  0  0  0  0  0  0  0
   -1.0620   12.2570   -1.4690 C   0  0  0  0  0  0  0  0  0  0  0  0
   -0.0700   11.5500   -0.8950 C   0  0  0  0  0  0  0  0  0  0  0  0
    1.3990   11.9370   -1.1090 C   0  0  1  0  0  0  0  0  0  0  0  0
    2.2250   10.6680   -1.4460 C   0  0  0  0  0  0  0  0  0  0  0  0
    2.0570    9.5660   -0.4040 C   0  0  0  0  0  0  0  0  0  0  0  0
    0.5900    9.1690   -0.2620 C   0  0  2  0  0  0  0  0  0  0  0  0
    0.1610    8.5480   -1.4780 O   0  0  0  0  0  0  0  0  0  0  0  0
   -0.3410   10.3680    0.0690 C   0  0  0  0  0  0  0  0  0  0  0  0
   -0.0740   10.8510    1.5160 C   0  0  0  0  0  0  0  0  0  0  0  0
   -1.8060    9.8560    0.0450 C   0  0  0  0  0  0  0  0  0  0  0  0
    1.6610   13.1260   -2.1310 C   0  0  1  0  0  0  0  0  0  0  0  0
    1.7600   12.5670   -3.5830 C   0  0  0  0  0  0  0  0  0  0  0  0
    3.0570   13.7800   -1.8110 C   0  0  0  0  0  0  0  0  0  0  0  0
    3.0710   14.9120   -0.7650 C   0  0  0  0  0  0  0  0  0  0  0  0
    1.9910   15.9540   -1.0720 C   0  0  2  0  0  0  0  0  0  0  0  0
    2.3290   16.5990   -2.4590 C   0  0  0  0  0  0  0  0  0  0  0  0
    4.8122   17.4279    0.3815 H   0  0  0  0  0  0  0  0  0  0  0  0
    4.0533   16.7647   -1.1054 H   0  0  0  0  0  0  0  0  0  0  0  0
    4.7223   18.4318   -1.1054 H   0  0  0  0  0  0  0  0  0  0  0  0
    2.5452   18.9908   -0.7736 H   0  0  0  0  0  0  0  0  0  0  0  0
    2.7337   19.9606    1.2155 H   0  0  0  0  0  0  0  0  0  0  0  0
    2.1590   18.3962    1.9670 H   0  0  0  0  0  0  0  0  0  0  0  0
    4.5092   17.6264    2.0693 H   0  0  0  0  0  0  0  0  0  0  0  0
    5.0267   19.2582    1.4721 H   0  0  0  0  0  0  0  0  0  0  0  0
    3.1463   19.1327    3.4800 H   0  0  0  0  0  0  0  0  0  0  0  0
    6.9996   17.7709    5.0513 H   0  0  0  0  0  0  0  0  0  0  0  0
    6.1954   17.2399    3.5354 H   0  0  0  0  0  0  0  0  0  0  0  0
    7.2337   18.7056    3.5354 H   0  0  0  0  0  0  0  0  0  0  0  0
    5.8465   18.7426    6.5174 H   0  0  0  0  0  0  0  0  0  0  0  0
    4.7893   20.1463    6.1448 H   0  0  0  0  0  0  0  0  0  0  0  0
    4.1084   18.4840    6.1448 H   0  0  0  0  0  0  0  0  0  0  0  0
    1.9735   16.7114    0.9791 H   0  0  0  0  0  0  0  0  0  0  0  0
   -0.1575   17.7891    0.6148 H   0  0  0  0  0  0  0  0  0  0  0  0
    0.3964   18.5467   -0.8939 H   0  0  0  0  0  0  0  0  0  0  0  0
   -1.3317   16.2778   -0.7122 H   0  0  0  0  0  0  0  0  0  0  0  0
   -0.5006   16.7700   -2.1854 H   0  0  0  0  0  0  0  0  0  0  0  0
    0.6149   15.3060    1.1917 H   0  0  0  0  0  0  0  0  0  0  0  0
   -0.8567   14.5498    0.4924 H   0  0  0  0  0  0  0  0  0  0  0  0
    0.7001   13.6536    0.4924 H   0  0  0  0  0  0  0  0  0  0  0  0
    0.6080   14.7955   -3.0415 H   0  0  0  0  0  0  0  0  0  0  0  0
   -1.6560   14.2230   -1.9545 H   0  0  0  0  0  0  0  0  0  0  0  0
   -0.9714   13.2020   -3.3253 H   0  0  0  0  0  0  0  0  0  0  0  0
   -2.0884   11.8844   -1.3358 H   0  0  0  0  0  0  0  0  0  0  0  0
    1.7434   12.3636   -0.1553 H   0  0  0  0  0  0  0  0  0  0  0  0
    1.8967   10.2827   -2.4226 H   0  0  0  0  0  0  0  0  0  0  0  0
    3.2868   10.9550   -1.4599 H   0  0  0  0  0  0  0  0  0  0  0  0
    2.6398    8.6859   -0.7135 H   0  0  0  0  0  0  0  0  0  0  0  0
    2.4145    9.9422    0.5659 H   0  0  0  0  0  0  0  0  0  0  0  0
    0.5177    8.4733    0.5870 H   0  0  0  0  0  0  0  0  0  0  0  0
   -0.1220    9.2530   -2.0840 H   0  0  0  0  0  0  0  0  0  0  0  0
   -0.4796   10.1173    2.2282 H   0  0  0  0  0  0  0  0  0  0  0  0
    1.0097   10.9549    1.6738 H   0  0  0  0  0  0  0  0  0  0  0  0
   -0.5624   11.8239    1.6738 H   0  0  0  0  0  0  0  0  0  0  0  0
   -2.1672    9.7298    1.0763 H   0  0  0  0  0  0  0  0  0  0  0  0
   -2.4408   10.5855   -0.4792 H   0  0  0  0  0  0  0  0  0  0  0  0
   -1.8482    8.8898   -0.4792 H   0  0  0  0  0  0  0  0  0  0  0  0
    1.9517   11.4844   -3.5468 H   0  0  0  0  0  0  0  0  0  0  0  0
    0.8147   12.7544   -4.1133 H   0  0  0  0  0  0  0  0  0  0  0  0
    2.5834   13.0677   -4.1133 H   0  0  0  0  0  0  0  0  0  0  0  0
    3.7224   12.9830   -1.4476 H   0  0  0  0  0  0  0  0  0  0  0  0
    3.3753   14.2534   -2.7515 H   0  0  0  0  0  0  0  0  0  0  0  0
    2.8856   14.4840    0.2312 H   0  0  0  0  0  0  0  0  0  0  0  0
    4.0537   15.4054   -0.7946 H   0  0  0  0  0  0  0  0  0  0  0  0
    2.8343   17.5633   -2.3016 H   0  0  0  0  0  0  0  0  0  0  0  0
    2.9905   15.9264   -3.0247 H   0  0  0  0  0  0  0  0  0  0  0  0
    1.3995   16.7602   -3.0247 H   0  0  0  0  0  0  0  0  0  0  0  0
  1  2  1  0
  2  3  1  0
  3  4  1  0
  4  5  1  0
  5  6  1  0
  6  7  1  0
  7  8  1  0
  7  9  1  0
  2 10  1  0
 10 11  1  0
 11 12  1  0
 12 13  1  0
 13 14  1  1
 13 15  1  0
 15 16  1  0
 16 17  1  0
 17 18  2  0
 18 19  1  0
 19 20  1  0
 20 21  1  0
 21 22  1  0
 22 23  1  0
 22 24  1  0
 24 25  1  0
 24 26  1  0
 19 27  1  0
 27 28  1  6
 27 29  1  0
 29 30  1  0
 30 31  1  0
 31 32  1  6
  7  5  1  0
 31 10  1  0
 31 13  1  0
 27 15  1  0
 24 18  1  0
  1 33  1  0
  1 34  1  0
  1 35  1  0
  2 36  1  6
  3 37  1  0
  3 38  1  0
  4 39  1  0
  4 40  1  0
  5 41  1  1
  8 42  1  0
  8 43  1  0
  8 44  1  0
  9 45  1  0
  9 46  1  0
  9 47  1  0
 10 48  1  1
 11 49  1  0
 11 50  1  0
 12 51  1  0
 12 52  1  0
 14 53  1  0
 14 54  1  0
 14 55  1  0
 15 56  1  6
 16 57  1  0
 16 58  1  0
 17 59  1  0
 19 60  1  1
 20 61  1  0
 20 62  1  0
 21 63  1  0
 21 64  1  0
 22 65  1  1
 23 66  1  0
 25 67  1  0
 25 68  1  0
 25 69  1  0
 26 70  1  0
 26 71  1  0
 26 72  1  0
 28 73  1  0
 28 74  1  0
 28 75  1  0
 29 76  1  0
 29 77  1  0
 30 78  1  0
 30 79  1  0
 32 80  1  0
 32 81  1  0
 32 82  1  0
M  END
>  <meeko>  (2) 
{"is_sidechain": [false], "intermolecular_energy": 2.731, "internal_energy": -0.839}

$$$$
EPH_relaxed_0001_pdb2pqr_Repair_207_r2_0001_out
     RDKit          3D

 82 86  0  0  0  0  0  0  0  0999 V2000
   -3.4240    9.3350    0.4000 C   0  0  0  0  0  0  0  0  0  0  0  0
   -2.5460    9.6640   -0.8100 C   0  0  2  0  0  0  0  0  0  0  0  0
   -1.8930    8.4050   -1.4140 C   0  0  0  0  0  0  0  0  0  0  0  0
   -2.8200    7.6140   -2.3410 C   0  0  0  0  0  0  0  0  0  0  0  0
   -4.2480    7.6880   -1.8900 C   0  0  2  0  0  0  0  0  0  0  0  0
   -4.7840    6.4530   -1.3970 O   0  0  0  0  0  0  0  0  0  0  0  0
   -5.3850    6.9720   -2.5940 C   0  0  0  0  0  0  0  0  0  0  0  0
   -5.1450    6.1310   -3.8090 C   0  0  0  0  0  0  0  0  0  0  0  0
   -6.7800    7.4780   -2.3980 C   0  0  0  0  0  0  0  0  0  0  0  0
   -1.4710   10.6700   -0.4140 C   0  0  1  0  0  0  0  0  0  0  0  0
   -0.3480   10.0350    0.4480 C   0  0  0  0  0  0  0  0  0  0  0  0
    0.9730   10.7440    0.0550 C   0  0  0  0  0  0  0  0  0  0  0  0
    0.5250   11.9760   -0.7650 C   0  0  1  0  0  0  0  0  0  0  0  0
    0.1220   13.0430    0.3000 C   0  0  0  0  0  0  0  0  0  0  0  0
    1.5660   12.5440   -1.7850 C   0  0  2  0  0  0  0  0  0  0  0  0
    2.8700   13.0720   -1.1610 C   0  0  0  0  0  0  0  0  0  0  0  0
    2.8600   14.5190   -0.7940 C   0  0  0  0  0  0  0  0  0  0  0  0
    1.9590   15.4260   -1.2140 C   0  0  0  0  0  0  0  0  0  0  0  0
    0.8710   15.0460   -2.2270 C   0  0  1  0  0  0  0  0  0  0  0  0
    0.7910   16.1320   -3.3320 C   0  0  0  0  0  0  0  0  0  0  0  0
    0.5930   17.5330   -2.7620 C   0  0  0  0  0  0  0  0  0  0  0  0
    1.7250   17.8970   -1.8050 C   0  0  2  0  0  0  0  0  0  0  0  0
    2.9410   18.0070   -2.5500 O   0  0  0  0  0  0  0  0  0  0  0  0
    1.9080   16.8690   -0.6530 C   0  0  0  0  0  0  0  0  0  0  0  0
    0.7130   16.9670    0.3270 C   0  0  0  0  0  0  0  0  0  0  0  0
    3.1680   17.2780    0.1560 C   0  0  0  0  0  0  0  0  0  0  0  0
    0.9620   13.5750   -2.8220 C   0  0  1  0  0  0  0  0  0  0  0  0
    1.9040   13.5610   -4.0640 C   0  0  0  0  0  0  0  0  0  0  0  0
   -0.4600   13.1410   -3.3380 C   0  0  0  0  0  0  0  0  0  0  0  0
   -1.3990   12.4780   -2.3130 C   0  0  0  0  0  0  0  0  0  0  0  0
   -0.6810   11.3540   -1.5580 C   0  0  2  0  0  0  0  0  0  0  0  0
   -0.2840   10.2560   -2.6020 C   0  0  0  0  0  0  0  0  0  0  0  0
   -2.8667    9.5438    1.3251 H   0  0  0  0  0  0  0  0  0  0  0  0
   -4.3333    9.9534    0.3722 H   0  0  0  0  0  0  0  0  0  0  0  0
   -3.7030    8.2713    0.3722 H   0  0  0  0  0  0  0  0  0  0  0  0
   -3.1970   10.1000   -1.5821 H   0  0  0  0  0  0  0  0  0  0  0  0
   -1.0085    8.7150   -1.9898 H   0  0  0  0  0  0  0  0  0  0  0  0
   -1.6368    7.7421   -0.5744 H   0  0  0  0  0  0  0  0  0  0  0  0
   -2.7451    8.0272   -3.3577 H   0  0  0  0  0  0  0  0  0  0  0  0
   -2.5077    6.5595   -2.3208 H   0  0  0  0  0  0  0  0  0  0  0  0
   -4.1188    8.7330   -1.5718 H   0  0  0  0  0  0  0  0  0  0  0  0
   -4.8552    5.1156   -3.5007 H   0  0  0  0  0  0  0  0  0  0  0  0
   -6.0654    6.0832   -4.4095 H   0  0  0  0  0  0  0  0  0  0  0  0
   -4.3380    6.5762   -4.4095 H   0  0  0  0  0  0  0  0  0  0  0  0
   -6.9941    7.5556   -1.3218 H   0  0  0  0  0  0  0  0  0  0  0  0
   -6.8793    8.4694   -2.8641 H   0  0  0  0  0  0  0  0  0  0  0  0
   -7.4918    6.7808   -2.8641 H   0  0  0  0  0  0  0  0  0  0  0  0
   -2.0947   11.4106    0.1081 H   0  0  0  0  0  0  0  0  0  0  0  0
   -0.5575   10.1899    1.5167 H   0  0  0  0  0  0  0  0  0  0  0  0
   -0.2814    8.9510    0.2732 H   0  0  0  0  0  0  0  0  0  0  0  0
    1.5284   11.0555    0.9520 H   0  0  0  0  0  0  0  0  0  0  0  0
    1.6463   10.0862   -0.5142 H   0  0  0  0  0  0  0  0  0  0  0  0
    0.2774   12.6316    1.3083 H   0  0  0  0  0  0  0  0  0  0  0  0
    0.7425   13.9421    0.1712 H   0  0  0  0  0  0  0  0  0  0  0  0
   -0.9379   13.3074    0.1712 H   0  0  0  0  0  0  0  0  0  0  0  0
    1.8499   11.6475   -2.3557 H   0  0  0  0  0  0  0  0  0  0  0  0
    3.0699   12.4911   -0.2485 H   0  0  0  0  0  0  0  0  0  0  0  0
    3.6450   12.9589   -1.9333 H   0  0  0  0  0  0  0  0  0  0  0  0
    3.6566   14.8738   -0.1235 H   0  0  0  0  0  0  0  0  0  0  0  0
   -0.0733   15.0167   -1.6636 H   0  0  0  0  0  0  0  0  0  0  0  0
    1.7263   16.1157   -3.9108 H   0  0  0  0  0  0  0  0  0  0  0  0
   -0.0799   15.9023   -3.9635 H   0  0  0  0  0  0  0  0  0  0  0  0
    0.5730   18.2585   -3.5886 H   0  0  0  0  0  0  0  0  0  0  0  0
   -0.3568   17.5557   -2.2075 H   0  0  0  0  0  0  0  0  0  0  0  0
    1.4618   18.8543   -1.3315 H   0  0  0  0  0  0  0  0  0  0  0  0
    3.4670   17.2090   -2.3730 H   0  0  0  0  0  0  0  0  0  0  0  0
    1.0842   16.9366    1.3620 H   0  0  0  0  0  0  0  0  0  0  0  0
    0.1764   17.9122    0.1575 H   0  0  0  0  0  0  0  0  0  0  0  0
    0.0296   16.1219    0.1575 H   0  0  0  0  0  0  0  0  0  0  0  0
    2.9515   17.2077    1.2322 H   0  0  0  0  0  0  0  0  0  0  0  0
    4.0000   16.6038   -0.0954 H   0  0  0  0  0  0  0  0  0  0  0  0
    3.4454   18.3123   -0.0954 H   0  0  0  0  0  0  0  0  0  0  0  0
    2.9517   13.5454   -3.7294 H   0  0  0  0  0  0  0  0  0  0  0  0
    1.6991   12.6658   -4.6695 H   0  0  0  0  0  0  0  0  0  0  0  0
    1.7258   14.4619   -4.6695 H   0  0  0  0  0  0  0  0  0  0  0  0
   -0.9650   14.0413   -3.7180 H   0  0  0  0  0  0  0  0  0  0  0  0
   -0.2671   12.3661   -4.0945 H   0  0  0  0  0  0  0  0  0  0  0  0
   -1.7378   13.2366   -1.5920 H   0  0  0  0  0  0  0  0  0  0  0  0
   -2.2568   12.0473   -2.8504 H   0  0  0  0  0  0  0  0  0  0  0  0
    0.0440    9.3489   -2.0733 H   0  0  0  0  0  0  0  0  0  0  0  0
   -1.1532   10.0186   -3.2330 H   0  0  0  0  0  0  0  0  0  0  0  0
    0.5360   10.6294   -3.2330 H   0  0  0  0  0  0  0  0  0  0  0  0
  1  2  1  0
  2  3  1  0
  3  4  1  0
  4  5  1  0
  5  6  1  0
  6  7  1  0
  7  8  1  0
  7  9  1  0
  2 10  1  0
 10 11  1  0
 11 12  1  0
 12 13  1  0
 13 14  1  1
 13 15  1  0
 15 16  1  0
 16 17  1  0
 17 18  2  0
 18 19  1  0
 19 20  1  0
 20 21  1  0
 21 22  1  0
 22 23  1  0
 22 24  1  0
 24 25  1  0
 24 26  1  0
 19 27  1  0
 27 28  1  6
 27 29  1  0
 29 30  1  0
 30 31  1  0
 31 32  1  6
  7  5  1  0
 31 10  1  0
 31 13  1  0
 27 15  1  0
 24 18  1  0
  1 33  1  0
  1 34  1  0
  1 35  1  0
  2 36  1  6
  3 37  1  0
  3 38  1  0
  4 39  1  0
  4 40  1  0
  5 41  1  1
  8 42  1  0
  8 43  1  0
  8 44  1  0
  9 45  1  0
  9 46  1  0
  9 47  1  0
 10 48  1  1
 11 49  1  0
 11 50  1  0
 12 51  1  0
 12 52  1  0
 14 53  1  0
 14 54  1  0
 14 55  1  0
 15 56  1  6
 16 57  1  0
 16 58  1  0
 17 59  1  0
 19 60  1  1
 20 61  1  0
 20 62  1  0
 21 63  1  0
 21 64  1  0
 22 65  1  1
 23 66  1  0
 25 67  1  0
 25 68  1  0
 25 69  1  0
 26 70  1  0
 26 71  1  0
 26 72  1  0
 28 73  1  0
 28 74  1  0
 28 75  1  0
 29 76  1  0
 29 77  1  0
 30 78  1  0
 30 79  1  0
 32 80  1  0
 32 81  1  0
 32 82  1  0
M  END
>  <meeko>  (3) 
{"is_sidechain": [false], "intermolecular_energy": 2.731, "internal_energy": -0.839}

$$$$
EPH_relaxed_0001_pdb2pqr_Repair_207_r2_0001_out
     RDKit          3D

 82 86  0  0  0  0  0  0  0  0999 V2000
    1.6180   19.0210   -2.3940 C   0  0  0  0  0  0  0  0  0  0  0  0
    0.6160   18.3230   -1.4710 C   0  0  2  0  0  0  0  0  0  0  0  0
    1.1180   18.2530   -0.0150 C   0  0  0  0  0  0  0  0  0  0  0  0
    1.5690   19.6050    0.5460 C   0  0  0  0  0  0  0  0  0  0  0  0
    3.0300   19.6060    0.8800 C   0  0  2  0  0  0  0  0  0  0  0  0
    3.4800   18.4540    1.6050 O   0  0  0  0  0  0  0  0  0  0  0  0
    3.5640   19.7110    2.2970 C   0  0  0  0  0  0  0  0  0  0  0  0
    2.6440   19.8210    3.4710 C   0  0  0  0  0  0  0  0  0  0  0  0
    4.9660   20.1940    2.4990 C   0  0  0  0  0  0  0  0  0  0  0  0
    0.3230   16.9190   -1.9880 C   0  0  1  0  0  0  0  0  0  0  0  0
    0.4800   16.8060   -3.5280 C   0  0  0  0  0  0  0  0  0  0  0  0
    1.0350   15.3870   -3.8170 C   0  0  0  0  0  0  0  0  0  0  0  0
    0.8660   14.6230   -2.4830 C   0  0  1  0  0  0  0  0  0  0  0  0
   -0.6280   14.1720   -2.4660 C   0  0  0  0  0  0  0  0  0  0  0  0
    1.8350   13.4180   -2.2500 C   0  0  2  0  0  0  0  0  0  0  0  0
    1.7000   12.2660   -3.2610 C   0  0  0  0  0  0  0  0  0  0  0  0
    0.7300   11.1960   -2.8830 C   0  0  0  0  0  0  0  0  0  0  0  0
    0.2090   11.0110   -1.6550 C   0  0  0  0  0  0  0  0  0  0  0  0
    0.6650   11.8700   -0.4680 C   0  0  1  0  0  0  0  0  0  0  0  0
    0.9460   10.9560    0.7540 C   0  0  0  0  0  0  0  0  0  0  0  0
   -0.2400   10.0620    1.1010 C   0  0  0  0  0  0  0  0  0  0  0  0
   -0.6260    9.1820   -0.0850 C   0  0  2  0  0  0  0  0  0  0  0  0
    0.4330    8.2520   -0.3330 O   0  0  0  0  0  0  0  0  0  0  0  0
   -0.9240    9.9930   -1.3770 C   0  0  0  0  0  0  0  0  0  0  0  0
   -2.2500   10.7750   -1.2080 C   0  0  0  0  0  0  0  0  0  0  0  0
   -1.1610    8.9810   -2.5310 C   0  0  0  0  0  0  0  0  0  0  0  0
    1.8550   12.8810   -0.7610 C   0  0  1  0  0  0  0  0  0  0  0  0
    3.2250   12.1630   -0.5650 C   0  0  0  0  0  0  0  0  0  0  0  0
    1.8100   14.0470    0.2960 C   0  0  0  0  0  0  0  0  0  0  0  0
    0.9280   15.2630   -0.0470 C   0  0  0  0  0  0  0  0  0  0  0  0
    1.2170   15.7670   -1.4640 C   0  0  2  0  0  0  0  0  0  0  0  0
    2.7070   16.2490   -1.5060 C   0  0  0  0  0  0  0  0  0  0  0  0
    2.3711   19.5456   -1.7877 H   0  0  0  0  0  0  0  0  0  0  0  0
    2.1148   18.2725   -3.0288 H   0  0  0  0  0  0  0  0  0  0  0  0
    1.0881   19.7464   -3.0288 H   0  0  0  0  0  0  0  0  0  0  0  0
   -0.3073   18.9209   -1.4737 H   0  0  0  0  0  0  0  0  0  0  0  0
    0.3022   17.8699    0.6157 H   0  0  0  0  0  0  0  0  0  0  0  0
    1.9979   17.5928   -0.0095 H   0  0  0  0  0  0  0  0  0  0  0  0
    1.3741   20.3854   -0.2043 H   0  0  0  0  0  0  0  0  0  0  0  0
    1.0053   19.7983    1.4706 H   0  0  0  0  0  0  0  0  0  0  0  0
    3.2638   20.1619   -0.0399 H   0  0  0  0  0  0  0  0  0  0  0  0
    3.2268   19.7513    4.4013 H   0  0  0  0  0  0  0  0  0  0  0  0
    2.1209   20.7881    3.4376 H   0  0  0  0  0  0  0  0  0  0  0  0
    1.9077   19.0045    3.4376 H   0  0  0  0  0  0  0  0  0  0  0  0
    5.1771   20.2667    3.5761 H   0  0  0  0  0  0  0  0  0  0  0  0
    5.6682   19.4860    2.0347 H   0  0  0  0  0  0  0  0  0  0  0  0
    5.0831   21.1843    2.0347 H   0  0  0  0  0  0  0  0  0  0  0  0
   -0.7048   16.7954   -1.6161 H   0  0  0  0  0  0  0  0  0  0  0  0
   -0.4953   16.9388   -4.0192 H   0  0  0  0  0  0  0  0  0  0  0  0
    1.1573   17.5818   -3.9144 H   0  0  0  0  0  0  0  0  0  0  0  0
    0.4596   14.9008   -4.6186 H   0  0  0  0  0  0  0  0  0  0  0  0
    2.0814   15.4092   -4.1554 H   0  0  0  0  0  0  0  0  0  0  0  0
   -0.9682   14.0693   -1.4250 H   0  0  0  0  0  0  0  0  0  0  0  0
   -1.2440   14.9242   -2.9805 H   0  0  0  0  0  0  0  0  0  0  0  0
   -0.7249   13.2046   -2.9805 H   0  0  0  0  0  0  0  0  0  0  0  0
    2.8204   13.8681   -2.4408 H   0  0  0  0  0  0  0  0  0  0  0  0
    1.3773   12.6932   -4.2219 H   0  0  0  0  0  0  0  0  0  0  0  0
    2.6865   11.7812   -3.3033 H   0  0  0  0  0  0  0  0  0  0  0  0
    0.4142   10.5001   -3.6742 H   0  0  0  0  0  0  0  0  0  0  0  0
   -0.1718   12.5475   -0.2427 H   0  0  0  0  0  0  0  0  0  0  0  0
    1.8130   10.3187    0.5256 H   0  0  0  0  0  0  0  0  0  0  0  0
    1.1384   11.6064    1.6200 H   0  0  0  0  0  0  0  0  0  0  0  0
    0.0301    9.4202    1.9525 H   0  0  0  0  0  0  0  0  0  0  0  0
   -1.0978   10.7010    1.3576 H   0  0  0  0  0  0  0  0  0  0  0  0
   -1.5577    8.6605    0.1797 H   0  0  0  0  0  0  0  0  0  0  0  0
    0.5540    8.1940   -1.2960 H   0  0  0  0  0  0  0  0  0  0  0  0
   -2.4665   10.9027   -0.1371 H   0  0  0  0  0  0  0  0  0  0  0  0
   -2.1564   11.7625   -1.6834 H   0  0  0  0  0  0  0  0  0  0  0  0
   -3.0689   10.2153   -1.6834 H   0  0  0  0  0  0  0  0  0  0  0  0
   -1.3927    7.9918   -2.1094 H   0  0  0  0  0  0  0  0  0  0  0  0
   -2.0036    9.3220   -3.1505 H   0  0  0  0  0  0  0  0  0  0  0  0
   -0.2546    8.9124   -3.1505 H   0  0  0  0  0  0  0  0  0  0  0  0
    3.4317   12.0547    0.5100 H   0  0  0  0  0  0  0  0  0  0  0  0
    3.1880   11.1684   -1.0333 H   0  0  0  0  0  0  0  0  0  0  0  0
    4.0219   12.7594   -1.0333 H   0  0  0  0  0  0  0  0  0  0  0  0
    1.4405   13.6243    1.2420 H   0  0  0  0  0  0  0  0  0  0  0  0
    2.8371   14.4389    0.3357 H   0  0  0  0  0  0  0  0  0  0  0  0
   -0.1303   14.9710    0.0223 H   0  0  0  0  0  0  0  0  0  0  0  0
    1.1518   16.0709    0.6652 H   0  0  0  0  0  0  0  0  0  0  0  0
    3.0822   16.3704   -0.4791 H   0  0  0  0  0  0  0  0  0  0  0  0
    3.3190   15.5030   -2.0342 H   0  0  0  0  0  0  0  0  0  0  0  0
    2.7661   17.2121   -2.0342 H   0  0  0  0  0  0  0  0  0  0  0  0
  1  2  1  0
  2  3  1  0
  3  4  1  0
  4  5  1  0
  5  6  1  0
  6  7  1  0
  7  8  1  0
  7  9  1  0
  2 10  1  0
 10 11  1  0
 11 12  1  0
 12 13  1  0
 13 14  1  1
 13 15  1  0
 15 16  1  0
 16 17  1  0
 17 18  2  0
 18 19  1  0
 19 20  1  0
 20 21  1  0
 21 22  1  0
 22 23  1  0
 22 24  1  0
 24 25  1  0
 24 26  1  0
 19 27  1  0
 27 28  1  1
 27 29  1  0
 29 30  1  0
 30 31  1  0
 31 32  1  1
  7  5  1  0
 31 10  1  0
 31 13  1  0
 27 15  1  0
 24 18  1  0
  1 33  1  0
  1 34  1  0
  1 35  1  0
  2 36  1  1
  3 37  1  0
  3 38  1  0
  4 39  1  0
  4 40  1  0
  5 41  1  6
  8 42  1  0
  8 43  1  0
  8 44  1  0
  9 45  1  0
  9 46  1  0
  9 47  1  0
 10 48  1  6
 11 49  1  0
 11 50  1  0
 12 51  1  0
 12 52  1  0
 14 53  1  0
 14 54  1  0
 14 55  1  0
 15 56  1  6
 16 57  1  0
 16 58  1  0
 17 59  1  0
 19 60  1  1
 20 61  1  0
 20 62  1  0
 21 63  1  0
 21 64  1  0
 22 65  1  1
 23 66  1  0
 25 67  1  0
 25 68  1  0
 25 69  1  0
 26 70  1  0
 26 71  1  0
 26 72  1  0
 28 73  1  0
 28 74  1  0
 28 75  1  0
 29 76  1  0
 29 77  1  0
 30 78  1  0
 30 79  1  0
 32 80  1  0
 32 81  1  0
 32 82  1  0
M  END
>  <meeko>  (4) 
{"is_sidechain": [false], "intermolecular_energy": 2.731, "internal_energy": -0.839}

$$$$
EPH_relaxed_0001_pdb2pqr_Repair_207_r2_0001_out
     RDKit          3D

 82 86  0  0  0  0  0  0  0  0999 V2000
    2.1880   18.2590   -2.7940 C   0  0  0  0  0  0  0  0  0  0  0  0
    1.0630   17.7550   -1.8860 C   0  0  2  0  0  0  0  0  0  0  0  0
    1.4810   17.7300   -0.4020 C   0  0  0  0  0  0  0  0  0  0  0  0
    1.2940   19.0710    0.3130 C   0  0  0  0  0  0  0  0  0  0  0  0
   -0.0070   19.7180   -0.0550 C   0  0  2  0  0  0  0  0  0  0  0  0
   -0.7740   20.1940    1.0590 O   0  0  0  0  0  0  0  0  0  0  0  0
   -1.3610   19.1300    0.2930 C   0  0  0  0  0  0  0  0  0  0  0  0
   -1.4830   17.8380    1.0400 C   0  0  0  0  0  0  0  0  0  0  0  0
   -2.5520   19.5510   -0.5100 C   0  0  0  0  0  0  0  0  0  0  0  0
    0.6240   16.3630   -2.3260 C   0  0  1  0  0  0  0  0  0  0  0  0
    0.7170   16.1660   -3.8630 C   0  0  0  0  0  0  0  0  0  0  0  0
    1.1280   14.6900   -4.1000 C   0  0  0  0  0  0  0  0  0  0  0  0
    0.9350   14.0060   -2.7270 C   0  0  1  0  0  0  0  0  0  0  0  0
   -0.5930   13.6990   -2.6430 C   0  0  0  0  0  0  0  0  0  0  0  0
    1.7960   12.7270   -2.4650 C   0  0  2  0  0  0  0  0  0  0  0  0
    1.5200   11.5490   -3.4150 C   0  0  0  0  0  0  0  0  0  0  0  0
    0.4690   10.5930   -2.9570 C   0  0  0  0  0  0  0  0  0  0  0  0
   -0.0250   10.5130   -1.7070 C   0  0  0  0  0  0  0  0  0  0  0  0
    0.5490   11.3770   -0.5770 C   0  0  1  0  0  0  0  0  0  0  0  0
    0.7860   10.4970    0.6780 C   0  0  0  0  0  0  0  0  0  0  0  0
   -0.4650    9.7360    1.1040 C   0  0  0  0  0  0  0  0  0  0  0  0
   -0.9720    8.8430   -0.0270 C   0  0  2  0  0  0  0  0  0  0  0  0
   -0.0130    7.8080   -0.2610 O   0  0  0  0  0  0  0  0  0  0  0  0
   -1.2370    9.6190   -1.3470 C   0  0  0  0  0  0  0  0  0  0  0  0
   -2.4780   10.5290   -1.1760 C   0  0  0  0  0  0  0  0  0  0  0  0
   -1.6060    8.5830   -2.4430 C   0  0  0  0  0  0  0  0  0  0  0  0
    1.8170   12.2580   -0.9530 C   0  0  1  0  0  0  0  0  0  0  0  0
    3.1200   11.4230   -0.7640 C   0  0  0  0  0  0  0  0  0  0  0  0
    1.9160   13.4700    0.0470 C   0  0  0  0  0  0  0  0  0  0  0  0
    1.1390   14.7460   -0.3270 C   0  0  0  0  0  0  0  0  0  0  0  0
    1.4250   15.1570   -1.7750 C   0  0  2  0  0  0  0  0  0  0  0  0
    2.9510   15.4940   -1.8850 C   0  0  0  0  0  0  0  0  0  0  0  0
    3.0187   18.6312   -2.1764 H   0  0  0  0  0  0  0  0  0  0  0  0
    2.5440   17.4343   -3.4290 H   0  0  0  0  0  0  0  0  0  0  0  0
    1.8096   19.0736   -3.4290 H   0  0  0  0  0  0  0  0  0  0  0  0
    0.2222   18.4579   -1.9806 H   0  0  0  0  0  0  0  0  0  0  0  0
    0.8751   16.9725    0.1167 H   0  0  0  0  0  0  0  0  0  0  0  0
    2.5560   17.4984   -0.3748 H   0  0  0  0  0  0  0  0  0  0  0  0
    1.3132   18.9014    1.3997 H   0  0  0  0  0  0  0  0  0  0  0  0
    2.1099   19.7411    0.0045 H   0  0  0  0  0  0  0  0  0  0  0  0
    0.4160   20.0864   -1.0012 H   0  0  0  0  0  0  0  0  0  0  0  0
   -1.4642   18.0367    2.1217 H   0  0  0  0  0  0  0  0  0  0  0  0
   -2.4314   17.3485    0.7735 H   0  0  0  0  0  0  0  0  0  0  0  0
   -0.6430   17.1796    0.7735 H   0  0  0  0  0  0  0  0  0  0  0  0
   -3.3683   19.8396    0.1685 H   0  0  0  0  0  0  0  0  0  0  0  0
   -2.2821   20.4082   -1.1443 H   0  0  0  0  0  0  0  0  0  0  0  0
   -2.8808   18.7146   -1.1443 H   0  0  0  0  0  0  0  0  0  0  0  0
   -0.3974   16.3539   -1.9177 H   0  0  0  0  0  0  0  0  0  0  0  0
   -0.2581   16.3676   -4.3305 H   0  0  0  0  0  0  0  0  0  0  0  0
    1.4497   16.8564   -4.3063 H   0  0  0  0  0  0  0  0  0  0  0  0
    0.4830   14.2245   -4.8598 H   0  0  0  0  0  0  0  0  0  0  0  0
    2.1598   14.5986   -4.4701 H   0  0  0  0  0  0  0  0  0  0  0  0
   -0.8972   13.6379   -1.5877 H   0  0  0  0  0  0  0  0  0  0  0  0
   -1.1562   14.5019   -3.1411 H   0  0  0  0  0  0  0  0  0  0  0  0
   -0.8024   12.7408   -3.1411 H   0  0  0  0  0  0  0  0  0  0  0  0
    2.8120   13.0732   -2.7059 H   0  0  0  0  0  0  0  0  0  0  0  0
    1.2050   11.9612   -4.3850 H   0  0  0  0  0  0  0  0  0  0  0  0
    2.4554   10.9722   -3.4641 H   0  0  0  0  0  0  0  0  0  0  0  0
    0.0637    9.8947   -3.7041 H   0  0  0  0  0  0  0  0  0  0  0  0
   -0.2137   12.1393   -0.3599 H   0  0  0  0  0  0  0  0  0  0  0  0
    1.5813    9.7708    0.4542 H   0  0  0  0  0  0  0  0  0  0  0  0
    1.0682   11.1648    1.5053 H   0  0  0  0  0  0  0  0  0  0  0  0
   -0.2263    9.1108    1.9770 H   0  0  0  0  0  0  0  0  0  0  0  0
   -1.2503   10.4640    1.3557 H   0  0  0  0  0  0  0  0  0  0  0  0
   -1.9386    8.4243    0.2899 H   0  0  0  0  0  0  0  0  0  0  0  0
    0.8690    8.2170   -0.2570 H   0  0  0  0  0  0  0  0  0  0  0  0
   -2.6795   10.6768   -0.1048 H   0  0  0  0  0  0  0  0  0  0  0  0
   -2.2870   11.5026   -1.6509 H   0  0  0  0  0  0  0  0  0  0  0  0
   -3.3492   10.0541   -1.6509 H   0  0  0  0  0  0  0  0  0  0  0  0
   -1.9388    7.6487   -1.9672 H   0  0  0  0  0  0  0  0  0  0  0  0
   -2.4164    8.9845   -3.0691 H   0  0  0  0  0  0  0  0  0  0  0  0
   -0.7242    8.3818   -3.0691 H   0  0  0  0  0  0  0  0  0  0  0  0
    3.3206   11.2945    0.3099 H   0  0  0  0  0  0  0  0  0  0  0  0
    2.9948   10.4365   -1.2343 H   0  0  0  0  0  0  0  0  0  0  0  0
    3.9640   11.9489   -1.2343 H   0  0  0  0  0  0  0  0  0  0  0  0
    1.5421   13.1271    1.0230 H   0  0  0  0  0  0  0  0  0  0  0  0
    2.9755   13.7654    0.0361 H   0  0  0  0  0  0  0  0  0  0  0  0
    0.0613   14.5577   -0.2124 H   0  0  0  0  0  0  0  0  0  0  0  0
    1.4603   15.5604    0.3390 H   0  0  0  0  0  0  0  0  0  0  0  0
    3.3793   15.5886   -0.8762 H   0  0  0  0  0  0  0  0  0  0  0  0
    3.4663   14.6880   -2.4280 H   0  0  0  0  0  0  0  0  0  0  0  0
    3.0789   16.4420   -2.4280 H   0  0  0  0  0  0  0  0  0  0  0  0
  1  2  1  0
  2  3  1  0
  3  4  1  0
  4  5  1  0
  5  6  1  0
  6  7  1  0
  7  8  1  0
  7  9  1  0
  2 10  1  0
 10 11  1  0
 11 12  1  0
 12 13  1  0
 13 14  1  1
 13 15  1  0
 15 16  1  0
 16 17  1  0
 17 18  2  0
 18 19  1  0
 19 20  1  0
 20 21  1  0
 21 22  1  0
 22 23  1  0
 22 24  1  0
 24 25  1  0
 24 26  1  0
 19 27  1  0
 27 28  1  6
 27 29  1  0
 29 30  1  0
 30 31  1  0
 31 32  1  1
  7  5  1  0
 31 10  1  0
 31 13  1  0
 27 15  1  0
 24 18  1  0
  1 33  1  0
  1 34  1  0
  1 35  1  0
  2 36  1  1
  3 37  1  0
  3 38  1  0
  4 39  1  0
  4 40  1  0
  5 41  1  6
  8 42  1  0
  8 43  1  0
  8 44  1  0
  9 45  1  0
  9 46  1  0
  9 47  1  0
 10 48  1  1
 11 49  1  0
 11 50  1  0
 12 51  1  0
 12 52  1  0
 14 53  1  0
 14 54  1  0
 14 55  1  0
 15 56  1  6
 16 57  1  0
 16 58  1  0
 17 59  1  0
 19 60  1  1
 20 61  1  0
 20 62  1  0
 21 63  1  0
 21 64  1  0
 22 65  1  1
 23 66  1  0
 25 67  1  0
 25 68  1  0
 25 69  1  0
 26 70  1  0
 26 71  1  0
 26 72  1  0
 28 73  1  0
 28 74  1  0
 28 75  1  0
 29 76  1  0
 29 77  1  0
 30 78  1  0
 30 79  1  0
 32 80  1  0
 32 81  1  0
 32 82  1  0
M  END
>  <meeko>  (5) 
{"is_sidechain": [false], "intermolecular_energy": 2.731, "internal_energy": -0.839}

$$$$
EPH_relaxed_0001_pdb2pqr_Repair_207_r2_0001_out
     RDKit          3D

 82 86  0  0  0  0  0  0  0  0999 V2000
    0.2620    8.9700   -2.2800 C   0  0  0  0  0  0  0  0  0  0  0  0
    1.0100   10.1360   -2.9320 C   0  0  2  0  0  0  0  0  0  0  0  0
    2.5160   10.1180   -2.5980 C   0  0  0  0  0  0  0  0  0  0  0  0
    3.4080   10.5740   -3.7560 C   0  0  0  0  0  0  0  0  0  0  0  0
    4.8140   10.8300   -3.3040 C   0  0  2  0  0  0  0  0  0  0  0  0
    5.3970   12.0360   -3.8150 O   0  0  0  0  0  0  0  0  0  0  0  0
    6.0100   10.8070   -4.2380 C   0  0  0  0  0  0  0  0  0  0  0  0
    5.8540   10.5200   -5.6990 C   0  0  0  0  0  0  0  0  0  0  0  0
    7.3690   10.5800   -3.6540 C   0  0  0  0  0  0  0  0  0  0  0  0
    0.3950   11.4590   -2.4920 C   0  0  1  0  0  0  0  0  0  0  0  0
   -0.8990   11.2680   -1.6570 C   0  0  0  0  0  0  0  0  0  0  0  0
   -0.9210   12.4010   -0.6000 C   0  0  0  0  0  0  0  0  0  0  0  0
    0.1720   13.3910   -1.0670 C   0  0  1  0  0  0  0  0  0  0  0  0
   -0.5110   14.2460   -2.1800 C   0  0  0  0  0  0  0  0  0  0  0  0
    0.8090   14.2910    0.0420 C   0  0  2  0  0  0  0  0  0  0  0  0
   -0.1680   15.2500    0.7450 C   0  0  0  0  0  0  0  0  0  0  0  0
   -0.2970   16.5990    0.1190 C   0  0  0  0  0  0  0  0  0  0  0  0
    0.5470   17.1250   -0.7880 C   0  0  0  0  0  0  0  0  0  0  0  0
    1.8230   16.3800   -1.2010 C   0  0  1  0  0  0  0  0  0  0  0  0
    3.0220   17.3640   -1.1930 C   0  0  0  0  0  0  0  0  0  0  0  0
    2.7680   18.6040   -2.0450 C   0  0  0  0  0  0  0  0  0  0  0  0
    1.5250   19.3490   -1.5670 C   0  0  2  0  0  0  0  0  0  0  0  0
    1.7810   19.8840   -0.2650 O   0  0  0  0  0  0  0  0  0  0  0  0
    0.2540   18.4550   -1.5240 C   0  0  0  0  0  0  0  0  0  0  0  0
   -0.1970   18.1230   -2.9680 C   0  0  0  0  0  0  0  0  0  0  0  0
   -0.8940   19.2880   -0.8920 C   0  0  0  0  0  0  0  0  0  0  0  0
    2.1290   15.0370   -0.4080 C   0  0  1  0  0  0  0  0  0  0  0  0
    2.9260   15.3580    0.8940 C   0  0  0  0  0  0  0  0  0  0  0  0
    3.0640   14.1240   -1.2860 C   0  0  0  0  0  0  0  0  0  0  0  0
    2.3700   13.1710   -2.2780 C   0  0  0  0  0  0  0  0  0  0  0  0
    1.2550   12.3780   -1.5890 C   0  0  2  0  0  0  0  0  0  0  0  0
    1.9140   11.4920   -0.4780 C   0  0  0  0  0  0  0  0  0  0  0  0
    0.3213    9.0625   -1.1855 H   0  0  0  0  0  0  0  0  0  0  0  0
   -0.7923    8.9899   -2.5930 H   0  0  0  0  0  0  0  0  0  0  0  0
    0.7196    8.0199   -2.5930 H   0  0  0  0  0  0  0  0  0  0  0  0
    0.9116   10.0248   -4.0219 H   0  0  0  0  0  0  0  0  0  0  0  0
    2.6899   10.7860   -1.7416 H   0  0  0  0  0  0  0  0  0  0  0  0
    2.7841    9.0743   -2.3769 H   0  0  0  0  0  0  0  0  0  0  0  0
    3.4186    9.7904   -4.5280 H   0  0  0  0  0  0  0  0  0  0  0  0
    2.9990   11.5141   -4.1548 H   0  0  0  0  0  0  0  0  0  0  0  0
    4.6199   10.3346   -2.3412 H   0  0  0  0  0  0  0  0  0  0  0  0
    5.3324    9.5605   -5.8305 H   0  0  0  0  0  0  0  0  0  0  0  0
    5.2684   11.3232   -6.1700 H   0  0  0  0  0  0  0  0  0  0  0  0
    6.8466   10.4654   -6.1700 H   0  0  0  0  0  0  0  0  0  0  0  0
    7.3028   10.5911   -2.5561 H   0  0  0  0  0  0  0  0  0  0  0  0
    7.7536    9.6052   -3.9883 H   0  0  0  0  0  0  0  0  0  0  0  0
    8.0495   11.3769   -3.9883 H   0  0  0  0  0  0  0  0  0  0  0  0
    0.2474   11.9293   -3.4754 H   0  0  0  0  0  0  0  0  0  0  0  0
   -1.7833   11.3395   -2.3073 H   0  0  0  0  0  0  0  0  0  0  0  0
   -0.9159   10.2789   -1.1759 H   0  0  0  0  0  0  0  0  0  0  0  0
   -1.9052   12.8916   -0.5770 H   0  0  0  0  0  0  0  0  0  0  0  0
   -0.7371   12.0260    0.4176 H   0  0  0  0  0  0  0  0  0  0  0  0
   -1.1330   15.0246   -1.7144 H   0  0  0  0  0  0  0  0  0  0  0  0
    0.2611   14.7185   -2.8050 H   0  0  0  0  0  0  0  0  0  0  0  0
   -1.1424   13.5974   -2.8050 H   0  0  0  0  0  0  0  0  0  0  0  0
    1.1035   13.5541    0.8038 H   0  0  0  0  0  0  0  0  0  0  0  0
   -1.1626   14.7801    0.7483 H   0  0  0  0  0  0  0  0  0  0  0  0
    0.2421   15.4190    1.7516 H   0  0  0  0  0  0  0  0  0  0  0  0
   -1.1549   17.2157    0.4250 H   0  0  0  0  0  0  0  0  0  0  0  0
    1.6460   16.0162   -2.2239 H   0  0  0  0  0  0  0  0  0  0  0  0
    3.2109   17.6810   -0.1567 H   0  0  0  0  0  0  0  0  0  0  0  0
    3.8883   16.8376   -1.6201 H   0  0  0  0  0  0  0  0  0  0  0  0
    3.6381   19.2734   -1.9749 H   0  0  0  0  0  0  0  0  0  0  0  0
    2.6089   18.2878   -3.0865 H   0  0  0  0  0  0  0  0  0  0  0  0
    1.3206   20.1501   -2.2926 H   0  0  0  0  0  0  0  0  0  0  0  0
    2.3530   19.2550    0.2050 H   0  0  0  0  0  0  0  0  0  0  0  0
   -1.0825   17.4712   -2.9349 H   0  0  0  0  0  0  0  0  0  0  0  0
   -0.4469   19.0543   -3.4974 H   0  0  0  0  0  0  0  0  0  0  0  0
    0.6180   17.6077   -3.4974 H   0  0  0  0  0  0  0  0  0  0  0  0
   -0.8234   19.2368    0.2045 H   0  0  0  0  0  0  0  0  0  0  0  0
   -0.8084   20.3356   -1.2164 H   0  0  0  0  0  0  0  0  0  0  0  0
   -1.8634   18.8817   -1.2164 H   0  0  0  0  0  0  0  0  0  0  0  0
    2.3104   15.1101    1.7713 H   0  0  0  0  0  0  0  0  0  0  0  0
    3.8503   14.7620    0.9144 H   0  0  0  0  0  0  0  0  0  0  0  0
    3.1793   16.4283    0.9144 H   0  0  0  0  0  0  0  0  0  0  0  0
    3.7251   14.7847   -1.8660 H   0  0  0  0  0  0  0  0  0  0  0  0
    3.5813   13.4682   -0.5702 H   0  0  0  0  0  0  0  0  0  0  0  0
    1.9372   13.7602   -3.0999 H   0  0  0  0  0  0  0  0  0  0  0  0
    3.1173   12.4620   -2.6639 H   0  0  0  0  0  0  0  0  0  0  0  0
    1.6293   11.8748    0.5131 H   0  0  0  0  0  0  0  0  0  0  0  0
    1.5671   10.4535   -0.5835 H   0  0  0  0  0  0  0  0  0  0  0  0
    3.0084   11.5255   -0.5835 H   0  0  0  0  0  0  0  0  0  0  0  0
  1  2  1  0
  2  3  1  0
  3  4  1  0
  4  5  1  0
  5  6  1  0
  6  7  1  0
  7  8  1  0
  7  9  1  0
  2 10  1  0
 10 11  1  0
 11 12  1  0
 12 13  1  0
 13 14  1  6
 13 15  1  0
 15 16  1  0
 16 17  1  0
 17 18  2  0
 18 19  1  0
 19 20  1  0
 20 21  1  0
 21 22  1  0
 22 23  1  0
 22 24  1  0
 24 25  1  0
 24 26  1  0
 19 27  1  0
 27 28  1  1
 27 29  1  0
 29 30  1  0
 30 31  1  0
 31 32  1  1
  7  5  1  0
 31 10  1  0
 31 13  1  0
 27 15  1  0
 24 18  1  0
  1 33  1  0
  1 34  1  0
  1 35  1  0
  2 36  1  6
  3 37  1  0
  3 38  1  0
  4 39  1  0
  4 40  1  0
  5 41  1  1
  8 42  1  0
  8 43  1  0
  8 44  1  0
  9 45  1  0
  9 46  1  0
  9 47  1  0
 10 48  1  6
 11 49  1  0
 11 50  1  0
 12 51  1  0
 12 52  1  0
 14 53  1  0
 14 54  1  0
 14 55  1  0
 15 56  1  1
 16 57  1  0
 16 58  1  0
 17 59  1  0
 19 60  1  6
 20 61  1  0
 20 62  1  0
 21 63  1  0
 21 64  1  0
 22 65  1  6
 23 66  1  0
 25 67  1  0
 25 68  1  0
 25 69  1  0
 26 70  1  0
 26 71  1  0
 26 72  1  0
 28 73  1  0
 28 74  1  0
 28 75  1  0
 29 76  1  0
 29 77  1  0
 30 78  1  0
 30 79  1  0
 32 80  1  0
 32 81  1  0
 32 82  1  0
M  END
>  <meeko>  (6) 
{"is_sidechain": [false], "intermolecular_energy": 2.731, "internal_energy": -0.839}

$$$$
EPH_relaxed_0001_pdb2pqr_Repair_207_r2_0001_out
     RDKit          3D

 82 86  0  0  0  0  0  0  0  0999 V2000
    2.0740   19.4100   -1.7380 C   0  0  0  0  0  0  0  0  0  0  0  0
    1.6100   19.2700   -0.2860 C   0  0  2  0  0  0  0  0  0  0  0  0
    2.6700   19.7720    0.7150 C   0  0  0  0  0  0  0  0  0  0  0  0
    3.5630   18.6610    1.2750 C   0  0  0  0  0  0  0  0  0  0  0  0
    3.9210   18.9070    2.7090 C   0  0  2  0  0  0  0  0  0  0  0  0
    4.5040   20.1910    2.9680 O   0  0  0  0  0  0  0  0  0  0  0  0
    5.3490   19.0530    3.2010 C   0  0  0  0  0  0  0  0  0  0  0  0
    6.5120   18.9560    2.2630 C   0  0  0  0  0  0  0  0  0  0  0  0
    5.6360   18.8020    4.6490 C   0  0  0  0  0  0  0  0  0  0  0  0
    1.2610   17.8160    0.0110 C   0  0  1  0  0  0  0  0  0  0  0  0
   -0.0090   17.6730    0.8910 C   0  0  0  0  0  0  0  0  0  0  0  0
   -0.7410   16.3910    0.4160 C   0  0  0  0  0  0  0  0  0  0  0  0
    0.2880   15.6650   -0.4810 C   0  0  1  0  0  0  0  0  0  0  0  0
    1.2270   14.9120    0.5130 C   0  0  0  0  0  0  0  0  0  0  0  0
   -0.2980   14.7010   -1.5640 C   0  0  2  0  0  0  0  0  0  0  0  0
   -1.0930   13.5050   -1.0100 C   0  0  0  0  0  0  0  0  0  0  0  0
   -0.2920   12.2720   -0.7500 C   0  0  0  0  0  0  0  0  0  0  0  0
    0.9490   12.0340   -1.2150 C   0  0  0  0  0  0  0  0  0  0  0  0
    1.6350   13.0170   -2.1710 C   0  0  1  0  0  0  0  0  0  0  0  0
    2.2700   12.2350   -3.3510 C   0  0  0  0  0  0  0  0  0  0  0  0
    3.2080   11.1280   -2.8810 C   0  0  0  0  0  0  0  0  0  0  0  0
    2.4750   10.1380   -1.9790 C   0  0  2  0  0  0  0  0  0  0  0  0
    1.4990    9.4410   -2.7580 O   0  0  0  0  0  0  0  0  0  0  0  0
    1.7870   10.8130   -0.7600 C   0  0  0  0  0  0  0  0  0  0  0  0
    2.8630   11.3070    0.2380 C   0  0  0  0  0  0  0  0  0  0  0  0
    0.9670    9.7270   -0.0130 C   0  0  0  0  0  0  0  0  0  0  0  0
    0.7480   14.2430   -2.6590 C   0  0  1  0  0  0  0  0  0  0  0  0
   -0.0760   13.8350   -3.9190 C   0  0  0  0  0  0  0  0  0  0  0  0
    1.6960   15.4170   -3.1090 C   0  0  0  0  0  0  0  0  0  0  0  0
    2.1450   16.4050   -2.0160 C   0  0  0  0  0  0  0  0  0  0  0  0
    0.9470   16.8990   -1.1980 C   0  0  2  0  0  0  0  0  0  0  0  0
   -0.0050   17.6800   -2.1680 C   0  0  0  0  0  0  0  0  0  0  0  0
    3.1269   19.7277   -1.7574 H   0  0  0  0  0  0  0  0  0  0  0  0
    1.9737   18.4416   -2.2500 H   0  0  0  0  0  0  0  0  0  0  0  0
    1.4548   20.1613   -2.2500 H   0  0  0  0  0  0  0  0  0  0  0  0
    0.7164   19.8997   -0.1633 H   0  0  0  0  0  0  0  0  0  0  0  0
    3.3093   20.5071    0.2042 H   0  0  0  0  0  0  0  0  0  0  0  0
    2.1270   20.2078    1.5666 H   0  0  0  0  0  0  0  0  0  0  0  0
    3.0284   17.7025    1.2005 H   0  0  0  0  0  0  0  0  0  0  0  0
    4.4932   18.6405    0.6882 H   0  0  0  0  0  0  0  0  0  0  0  0
    3.0831   18.2816    3.0507 H   0  0  0  0  0  0  0  0  0  0  0  0
    7.4443   18.8782    2.8416 H   0  0  0  0  0  0  0  0  0  0  0  0
    6.3984   18.0642    1.6291 H   0  0  0  0  0  0  0  0  0  0  0  0
    6.5477   19.8543    1.6291 H   0  0  0  0  0  0  0  0  0  0  0  0
    4.9514   19.4008    5.2677 H   0  0  0  0  0  0  0  0  0  0  0  0
    5.4925   17.7344    4.8715 H   0  0  0  0  0  0  0  0  0  0  0  0
    6.6750   19.0865    4.8715 H   0  0  0  0  0  0  0  0  0  0  0  0
    2.1970   17.4972    0.4930 H   0  0  0  0  0  0  0  0  0  0  0  0
    0.2728   17.5778    1.9500 H   0  0  0  0  0  0  0  0  0  0  0  0
   -0.6574   18.5564    0.7949 H   0  0  0  0  0  0  0  0  0  0  0  0
   -1.0199   15.7623    1.2744 H   0  0  0  0  0  0  0  0  0  0  0  0
   -1.6749   16.6176   -0.1192 H   0  0  0  0  0  0  0  0  0  0  0  0
    0.9324   15.1483    1.5461 H   0  0  0  0  0  0  0  0  0  0  0  0
    1.1433   13.8279    0.3467 H   0  0  0  0  0  0  0  0  0  0  0  0
    2.2670   15.2292    0.3467 H   0  0  0  0  0  0  0  0  0  0  0  0
   -1.0343   15.3390   -2.0747 H   0  0  0  0  0  0  0  0  0  0  0  0
   -1.5569   13.8151   -0.0620 H   0  0  0  0  0  0  0  0  0  0  0  0
   -1.8209   13.2362   -1.7896 H   0  0  0  0  0  0  0  0  0  0  0  0
   -0.7545   11.4928   -0.1263 H   0  0  0  0  0  0  0  0  0  0  0  0
    2.4230   13.5115   -1.5840 H   0  0  0  0  0  0  0  0  0  0  0  0
    1.4646   11.7844   -3.9495 H   0  0  0  0  0  0  0  0  0  0  0  0
    2.8638   12.9472   -3.9427 H   0  0  0  0  0  0  0  0  0  0  0  0
    3.6013   10.5930   -3.7580 H   0  0  0  0  0  0  0  0  0  0  0  0
    4.0292   11.5834   -2.3081 H   0  0  0  0  0  0  0  0  0  0  0  0
    3.2255    9.4453   -1.5705 H   0  0  0  0  0  0  0  0  0  0  0  0
    0.9730   10.1050   -3.2350 H   0  0  0  0  0  0  0  0  0  0  0  0
    2.5103   11.1451    1.2673 H   0  0  0  0  0  0  0  0  0  0  0  0
    3.7962   10.7472    0.0778 H   0  0  0  0  0  0  0  0  0  0  0  0
    3.0468   12.3796    0.0778 H   0  0  0  0  0  0  0  0  0  0  0  0
    1.0740    9.8688    1.0726 H   0  0  0  0  0  0  0  0  0  0  0  0
   -0.0938    9.8126   -0.2911 H   0  0  0  0  0  0  0  0  0  0  0  0
    1.3397    8.7301   -0.2911 H   0  0  0  0  0  0  0  0  0  0  0  0
   -1.0205   13.3674   -3.6038 H   0  0  0  0  0  0  0  0  0  0  0  0
   -0.2929   14.7298   -4.5209 H   0  0  0  0  0  0  0  0  0  0  0  0
    0.5042   13.1201   -4.5209 H   0  0  0  0  0  0  0  0  0  0  0  0
    2.6011   14.9664   -3.5424 H   0  0  0  0  0  0  0  0  0  0  0  0
    1.0981   16.0167   -3.8110 H   0  0  0  0  0  0  0  0  0  0  0  0
    2.8557   15.9006   -1.3448 H   0  0  0  0  0  0  0  0  0  0  0  0
    2.6207   17.2709   -2.4996 H   0  0  0  0  0  0  0  0  0  0  0  0
   -0.7238   18.2697   -1.5802 H   0  0  0  0  0  0  0  0  0  0  0  0
    0.5900   18.3535   -2.8022 H   0  0  0  0  0  0  0  0  0  0  0  0
   -0.5493   16.9648   -2.8022 H   0  0  0  0  0  0  0  0  0  0  0  0
  1  2  1  0
  2  3  1  0
  3  4  1  0
  4  5  1  0
  5  6  1  0
  6  7  1  0
  7  8  1  0
  7  9  1  0
  2 10  1  0
 10 11  1  0
 11 12  1  0
 12 13  1  0
 13 14  1  1
 13 15  1  0
 15 16  1  0
 16 17  1  0
 17 18  2  0
 18 19  1  0
 19 20  1  0
 20 21  1  0
 21 22  1  0
 22 23  1  0
 22 24  1  0
 24 25  1  0
 24 26  1  0
 19 27  1  0
 27 28  1  6
 27 29  1  0
 29 30  1  0
 30 31  1  0
 31 32  1  6
  7  5  1  0
 31 10  1  0
 31 13  1  0
 27 15  1  0
 24 18  1  0
  1 33  1  0
  1 34  1  0
  1 35  1  0
  2 36  1  6
  3 37  1  0
  3 38  1  0
  4 39  1  0
  4 40  1  0
  5 41  1  1
  8 42  1  0
  8 43  1  0
  8 44  1  0
  9 45  1  0
  9 46  1  0
  9 47  1  0
 10 48  1  1
 11 49  1  0
 11 50  1  0
 12 51  1  0
 12 52  1  0
 14 53  1  0
 14 54  1  0
 14 55  1  0
 15 56  1  6
 16 57  1  0
 16 58  1  0
 17 59  1  0
 19 60  1  1
 20 61  1  0
 20 62  1  0
 21 63  1  0
 21 64  1  0
 22 65  1  1
 23 66  1  0
 25 67  1  0
 25 68  1  0
 25 69  1  0
 26 70  1  0
 26 71  1  0
 26 72  1  0
 28 73  1  0
 28 74  1  0
 28 75  1  0
 29 76  1  0
 29 77  1  0
 30 78  1  0
 30 79  1  0
 32 80  1  0
 32 81  1  0
 32 82  1  0
M  END
>  <meeko>  (7) 
{"is_sidechain": [false], "intermolecular_energy": 2.731, "internal_energy": -0.839}

$$$$
EPH_relaxed_0001_pdb2pqr_Repair_207_r2_0001_out
     RDKit          3D

 82 86  0  0  0  0  0  0  0  0999 V2000
    0.1120    9.5630   -2.4730 C   0  0  0  0  0  0  0  0  0  0  0  0
    1.2190   10.5440   -2.8680 C   0  0  2  0  0  0  0  0  0  0  0  0
    2.5920    9.8530   -2.9920 C   0  0  0  0  0  0  0  0  0  0  0  0
    3.5450   10.5480   -3.9670 C   0  0  0  0  0  0  0  0  0  0  0  0
    4.9040   10.7490   -3.3660 C   0  0  2  0  0  0  0  0  0  0  0  0
    5.5390   11.9840   -3.7200 O   0  0  0  0  0  0  0  0  0  0  0  0
    6.1820   10.7860   -4.1820 C   0  0  0  0  0  0  0  0  0  0  0  0
    6.1640   10.6200   -5.6700 C   0  0  0  0  0  0  0  0  0  0  0  0
    7.4790   10.4940   -3.4940 C   0  0  0  0  0  0  0  0  0  0  0  0
    1.2960   11.6780   -1.8520 C   0  0  1  0  0  0  0  0  0  0  0  0
    2.4800   11.5130   -0.8620 C   0  0  0  0  0  0  0  0  0  0  0  0
    3.0000   12.9390   -0.5460 C   0  0  0  0  0  0  0  0  0  0  0  0
    1.9040   13.8840   -1.0920 C   0  0  1  0  0  0  0  0  0  0  0  0
    0.8040   13.9030    0.0150 C   0  0  0  0  0  0  0  0  0  0  0  0
    2.3650   15.3290   -1.4730 C   0  0  2  0  0  0  0  0  0  0  0  0
    2.9140   16.1680   -0.3060 C   0  0  0  0  0  0  0  0  0  0  0  0
    1.9000   16.9860    0.4230 C   0  0  0  0  0  0  0  0  0  0  0  0
    0.6600   17.2690   -0.0170 C   0  0  0  0  0  0  0  0  0  0  0  0
    0.2000   16.8290   -1.4130 C   0  0  1  0  0  0  0  0  0  0  0  0
   -0.5050   18.0140   -2.1230 C   0  0  0  0  0  0  0  0  0  0  0  0
   -1.6420   18.6010   -1.2930 C   0  0  0  0  0  0  0  0  0  0  0  0
   -1.1340   19.0810    0.0650 C   0  0  2  0  0  0  0  0  0  0  0  0
   -0.2580   20.1930   -0.1380 O   0  0  0  0  0  0  0  0  0  0  0  0
   -0.3970   17.9740    0.8690 C   0  0  0  0  0  0  0  0  0  0  0  0
   -1.4170   16.9110    1.3470 C   0  0  0  0  0  0  0  0  0  0  0  0
    0.1860   18.6240    2.1520 C   0  0  0  0  0  0  0  0  0  0  0  0
    1.3080   16.1430   -2.3230 C   0  0  1  0  0  0  0  0  0  0  0  0
    2.1060   17.2330   -3.1020 C   0  0  0  0  0  0  0  0  0  0  0  0
    0.5990   15.2510   -3.4100 C   0  0  0  0  0  0  0  0  0  0  0  0
    0.2780   13.7970   -3.0140 C   0  0  0  0  0  0  0  0  0  0  0  0
    1.5030   13.1120   -2.4010 C   0  0  2  0  0  0  0  0  0  0  0  0
    2.6200   13.0580   -3.4980 C   0  0  0  0  0  0  0  0  0  0  0  0
    0.0471    9.5055   -1.3764 H   0  0  0  0  0  0  0  0  0  0  0  0
   -0.8489    9.9115   -2.8794 H   0  0  0  0  0  0  0  0  0  0  0  0
    0.3424    8.5671   -2.8794 H   0  0  0  0  0  0  0  0  0  0  0  0
    0.9635   10.9488   -3.8584 H   0  0  0  0  0  0  0  0  0  0  0  0
    3.0633    9.8363   -1.9982 H   0  0  0  0  0  0  0  0  0  0  0  0
    2.4088    8.8428   -3.3868 H   0  0  0  0  0  0  0  0  0  0  0  0
    3.6431    9.9296   -4.8714 H   0  0  0  0  0  0  0  0  0  0  0  0
    3.1274   11.5365   -4.2087 H   0  0  0  0  0  0  0  0  0  0  0  0
    4.6171   10.1802   -2.4692 H   0  0  0  0  0  0  0  0  0  0  0  0
    6.0485    9.5547   -5.9187 H   0  0  0  0  0  0  0  0  0  0  0  0
    5.3222   11.1885   -6.0922 H   0  0  0  0  0  0  0  0  0  0  0  0
    7.1081   10.9948   -6.0922 H   0  0  0  0  0  0  0  0  0  0  0  0
    7.3317   10.5272   -2.4044 H   0  0  0  0  0  0  0  0  0  0  0  0
    7.8319    9.4939   -3.7860 H   0  0  0  0  0  0  0  0  0  0  0  0
    8.2265   11.2463   -3.7860 H   0  0  0  0  0  0  0  0  0  0  0  0
    0.2972   11.5890   -1.3998 H   0  0  0  0  0  0  0  0  0  0  0  0
    2.1369   11.0217    0.0605 H   0  0  0  0  0  0  0  0  0  0  0  0
    3.2751   10.8898   -1.2972 H   0  0  0  0  0  0  0  0  0  0  0  0
    3.1253   13.0752    0.5383 H   0  0  0  0  0  0  0  0  0  0  0  0
    3.9830   13.1345   -0.9993 H   0  0  0  0  0  0  0  0  0  0  0  0
    1.2811   13.8948    1.0061 H   0  0  0  0  0  0  0  0  0  0  0  0
    0.1933   14.8118   -0.0905 H   0  0  0  0  0  0  0  0  0  0  0  0
    0.1623   13.0158   -0.0905 H   0  0  0  0  0  0  0  0  0  0  0  0
    3.2244   15.1363   -2.1320 H   0  0  0  0  0  0  0  0  0  0  0  0
    3.3802   15.4818    0.4163 H   0  0  0  0  0  0  0  0  0  0  0  0
    3.6199   16.8843   -0.7516 H   0  0  0  0  0  0  0  0  0  0  0  0
    2.1911   17.3919    1.4031 H   0  0  0  0  0  0  0  0  0  0  0  0
   -0.5171   16.0102   -1.2537 H   0  0  0  0  0  0  0  0  0  0  0  0
    0.2372   18.8035   -2.3124 H   0  0  0  0  0  0  0  0  0  0  0  0
   -0.9381   17.6321   -3.0593 H   0  0  0  0  0  0  0  0  0  0  0  0
   -2.0811   19.4518   -1.8345 H   0  0  0  0  0  0  0  0  0  0  0  0
   -2.3976   17.8186   -1.1290 H   0  0  0  0  0  0  0  0  0  0  0  0
   -2.0110   19.3706    0.6624 H   0  0  0  0  0  0  0  0  0  0  0  0
    0.0370   20.1710   -1.0640 H   0  0  0  0  0  0  0  0  0  0  0  0
   -1.4369   16.8903    2.4466 H   0  0  0  0  0  0  0  0  0  0  0  0
   -2.4173   17.1657    0.9669 H   0  0  0  0  0  0  0  0  0  0  0  0
   -1.1212   15.9220    0.9669 H   0  0  0  0  0  0  0  0  0  0  0  0
   -0.2487   18.1393    3.0386 H   0  0  0  0  0  0  0  0  0  0  0  0
    1.2786   18.4970    2.1634 H   0  0  0  0  0  0  0  0  0  0  0  0
   -0.0586   19.6964    2.1634 H   0  0  0  0  0  0  0  0  0  0  0  0
    2.5997   17.9073   -2.3867 H   0  0  0  0  0  0  0  0  0  0  0  0
    2.8653   16.7497   -3.7344 H   0  0  0  0  0  0  0  0  0  0  0  0
    1.4159   17.8108   -3.7344 H   0  0  0  0  0  0  0  0  0  0  0  0
   -0.3495   15.7408   -3.6753 H   0  0  0  0  0  0  0  0  0  0  0  0
    1.3232   15.1716   -4.2342 H   0  0  0  0  0  0  0  0  0  0  0  0
   -0.5400   13.7967   -2.2785 H   0  0  0  0  0  0  0  0  0  0  0  0
   -0.0167   13.2444   -3.9183 H   0  0  0  0  0  0  0  0  0  0  0  0
    3.6068   13.0103   -3.0144 H   0  0  0  0  0  0  0  0  0  0  0  0
    2.4754   12.1658   -4.1249 H   0  0  0  0  0  0  0  0  0  0  0  0
    2.5621   13.9600   -4.1249 H   0  0  0  0  0  0  0  0  0  0  0  0
  1  2  1  0
  2  3  1  0
  3  4  1  0
  4  5  1  0
  5  6  1  0
  6  7  1  0
  7  8  1  0
  7  9  1  0
  2 10  1  0
 10 11  1  0
 11 12  1  0
 12 13  1  0
 13 14  1  1
 13 15  1  0
 15 16  1  0
 16 17  1  0
 17 18  2  0
 18 19  1  0
 19 20  1  0
 20 21  1  0
 21 22  1  0
 22 23  1  0
 22 24  1  0
 24 25  1  0
 24 26  1  0
 19 27  1  0
 27 28  1  6
 27 29  1  0
 29 30  1  0
 30 31  1  0
 31 32  1  6
  7  5  1  0
 31 10  1  0
 31 13  1  0
 27 15  1  0
 24 18  1  0
  1 33  1  0
  1 34  1  0
  1 35  1  0
  2 36  1  6
  3 37  1  0
  3 38  1  0
  4 39  1  0
  4 40  1  0
  5 41  1  1
  8 42  1  0
  8 43  1  0
  8 44  1  0
  9 45  1  0
  9 46  1  0
  9 47  1  0
 10 48  1  1
 11 49  1  0
 11 50  1  0
 12 51  1  0
 12 52  1  0
 14 53  1  0
 14 54  1  0
 14 55  1  0
 15 56  1  6
 16 57  1  0
 16 58  1  0
 17 59  1  0
 19 60  1  1
 20 61  1  0
 20 62  1  0
 21 63  1  0
 21 64  1  0
 22 65  1  1
 23 66  1  0
 25 67  1  0
 25 68  1  0
 25 69  1  0
 26 70  1  0
 26 71  1  0
 26 72  1  0
 28 73  1  0
 28 74  1  0
 28 75  1  0
 29 76  1  0
 29 77  1  0
 30 78  1  0
 30 79  1  0
 32 80  1  0
 32 81  1  0
 32 82  1  0
M  END
>  <meeko>  (8) 
{"is_sidechain": [false], "intermolecular_energy": 2.731, "internal_energy": -0.839}

$$$$
EPH_relaxed_0001_pdb2pqr_Repair_207_r2_0001_out
     RDKit          3D

 82 86  0  0  0  0  0  0  0  0999 V2000
   -0.9300   20.1430   -0.9930 C   0  0  0  0  0  0  0  0  0  0  0  0
   -0.0990   19.3070   -0.0150 C   0  0  2  0  0  0  0  0  0  0  0  0
    0.9330   20.1620    0.7480 C   0  0  0  0  0  0  0  0  0  0  0  0
    2.3300   19.5380    0.8020 C   0  0  0  0  0  0  0  0  0  0  0  0
    3.0520   19.9020    2.0640 C   0  0  2  0  0  0  0  0  0  0  0  0
    4.4460   20.1910    1.8940 O   0  0  0  0  0  0  0  0  0  0  0  0
    4.1300   19.0380    2.6900 C   0  0  0  0  0  0  0  0  0  0  0  0
    4.5460   17.7400    2.0730 C   0  0  0  0  0  0  0  0  0  0  0  0
    4.4290   19.2110    4.1470 C   0  0  0  0  0  0  0  0  0  0  0  0
    0.6080   18.1830   -0.7630 C   0  0  1  0  0  0  0  0  0  0  0  0
    2.1100   18.4820   -1.0110 C   0  0  0  0  0  0  0  0  0  0  0  0
    2.8580   17.1270   -0.9120 C   0  0  0  0  0  0  0  0  0  0  0  0
    1.7380   16.0600   -0.9440 C   0  0  1  0  0  0  0  0  0  0  0  0
    1.3820   15.8980   -2.4550 C   0  0  0  0  0  0  0  0  0  0  0  0
    2.0740   14.6860   -0.2780 C   0  0  2  0  0  0  0  0  0  0  0  0
    3.2300   13.9100   -0.9330 C   0  0  0  0  0  0  0  0  0  0  0  0
    2.8310   12.9680   -2.0200 C   0  0  0  0  0  0  0  0  0  0  0  0
    1.5780   12.5400   -2.2630 C   0  0  0  0  0  0  0  0  0  0  0  0
    0.4180   12.9330   -1.3390 C   0  0  1  0  0  0  0  0  0  0  0  0
   -0.4320   11.6770   -1.0110 C   0  0  0  0  0  0  0  0  0  0  0  0
   -0.9060   10.9490   -2.2650 C   0  0  0  0  0  0  0  0  0  0  0  0
    0.2780   10.5230   -3.1290 C   0  0  2  0  0  0  0  0  0  0  0  0
    1.0270    9.5270   -2.4260 O   0  0  0  0  0  0  0  0  0  0  0  0
    1.2120   11.7040   -3.5140 C   0  0  0  0  0  0  0  0  0  0  0  0
    0.4900   12.6310   -4.5240 C   0  0  0  0  0  0  0  0  0  0  0  0
    2.4390   11.1180   -4.2640 C   0  0  0  0  0  0  0  0  0  0  0  0
    0.8160   13.7570   -0.0390 C   0  0  1  0  0  0  0  0  0  0  0  0
    1.1970   12.7790    1.1140 C   0  0  0  0  0  0  0  0  0  0  0  0
   -0.4390   14.5660    0.4610 C   0  0  0  0  0  0  0  0  0  0  0  0
   -0.6500   15.9660   -0.1460 C   0  0  0  0  0  0  0  0  0  0  0  0
    0.6400   16.7890   -0.0870 C   0  0  2  0  0  0  0  0  0  0  0  0
    1.0120   16.9890    1.4220 C   0  0  0  0  0  0  0  0  0  0  0  0
   -1.5958   20.8128   -0.4290 H   0  0  0  0  0  0  0  0  0  0  0  0
   -0.2585   20.7415   -1.6262 H   0  0  0  0  0  0  0  0  0  0  0  0
   -1.5325   19.4751   -1.6262 H   0  0  0  0  0  0  0  0  0  0  0  0
   -0.7903   18.8824    0.7278 H   0  0  0  0  0  0  0  0  0  0  0  0
    1.0087   21.1404    0.2510 H   0  0  0  0  0  0  0  0  0  0  0  0
    0.5776   20.2446    1.7857 H   0  0  0  0  0  0  0  0  0  0  0  0
    2.2337   18.4435    0.7496 H   0  0  0  0  0  0  0  0  0  0  0  0
    2.9108   19.9241   -0.0486 H   0  0  0  0  0  0  0  0  0  0  0  0
    2.1437   20.3639    2.4782 H   0  0  0  0  0  0  0  0  0  0  0  0
    4.7785   17.0146    2.8666 H   0  0  0  0  0  0  0  0  0  0  0  0
    3.7274   17.3514    1.4494 H   0  0  0  0  0  0  0  0  0  0  0  0
    5.4380   17.8997    1.4494 H   0  0  0  0  0  0  0  0  0  0  0  0
    3.6288   18.7480    4.7430 H   0  0  0  0  0  0  0  0  0  0  0  0
    5.3887   18.7287    4.3842 H   0  0  0  0  0  0  0  0  0  0  0  0
    4.4891   20.2834    4.3842 H   0  0  0  0  0  0  0  0  0  0  0  0
   -0.0128   18.1468   -1.6704 H   0  0  0  0  0  0  0  0  0  0  0  0
    2.2492   18.9194   -2.0107 H   0  0  0  0  0  0  0  0  0  0  0  0
    2.4965   19.2014   -0.2741 H   0  0  0  0  0  0  0  0  0  0  0  0
    3.5419   16.9978   -1.7638 H   0  0  0  0  0  0  0  0  0  0  0  0
    3.4755   17.0566   -0.0044 H   0  0  0  0  0  0  0  0  0  0  0  0
    0.3845   15.4441   -2.5501 H   0  0  0  0  0  0  0  0  0  0  0  0
    1.3833   16.8853   -2.9399 H   0  0  0  0  0  0  0  0  0  0  0  0
    2.1273   15.2504   -2.9399 H   0  0  0  0  0  0  0  0  0  0  0  0
    2.4406   14.9873    0.7144 H   0  0  0  0  0  0  0  0  0  0  0  0
    3.9325   14.6418   -1.3584 H   0  0  0  0  0  0  0  0  0  0  0  0
    3.6683   13.2888   -0.1380 H   0  0  0  0  0  0  0  0  0  0  0  0
    3.6281   12.5918   -2.6780 H   0  0  0  0  0  0  0  0  0  0  0  0
   -0.1884   13.6567   -1.9034 H   0  0  0  0  0  0  0  0  0  0  0  0
    0.1774   10.9855   -0.4107 H   0  0  0  0  0  0  0  0  0  0  0  0
   -1.3241   12.0113   -0.4611 H   0  0  0  0  0  0  0  0  0  0  0  0
   -1.4755   10.0557   -1.9690 H   0  0  0  0  0  0  0  0  0  0  0  0
   -1.5392   11.6326   -2.8496 H   0  0  0  0  0  0  0  0  0  0  0  0
   -0.1276   10.1242   -4.0705 H   0  0  0  0  0  0  0  0  0  0  0  0
    1.0000    9.7510   -1.4800 H   0  0  0  0  0  0  0  0  0  0  0  0
   -0.0963   13.3837   -3.9765 H   0  0  0  0  0  0  0  0  0  0  0  0
    1.2354   13.1356   -5.1563 H   0  0  0  0  0  0  0  0  0  0  0  0
   -0.1817   12.0318   -5.1563 H   0  0  0  0  0  0  0  0  0  0  0  0
    3.1807   10.7638   -3.5330 H   0  0  0  0  0  0  0  0  0  0  0  0
    2.1157   10.2771   -4.8951 H   0  0  0  0  0  0  0  0  0  0  0  0
    2.8898   11.8980   -4.8951 H   0  0  0  0  0  0  0  0  0  0  0  0
    1.0082   13.2636    2.0833 H   0  0  0  0  0  0  0  0  0  0  0  0
    0.5889   11.8657    1.0361 H   0  0  0  0  0  0  0  0  0  0  0  0
    2.2627   12.5177    1.0361 H   0  0  0  0  0  0  0  0  0  0  0  0
   -1.3331   13.9668    0.2342 H   0  0  0  0  0  0  0  0  0  0  0  0
   -0.2606   14.7407    1.5323 H   0  0  0  0  0  0  0  0  0  0  0  0
   -0.9615   15.8599   -1.1956 H   0  0  0  0  0  0  0  0  0  0  0  0
   -1.4253   16.4870    0.4349 H   0  0  0  0  0  0  0  0  0  0  0  0
    0.2194   16.5629    2.0546 H   0  0  0  0  0  0  0  0  0  0  0  0
    1.9642   16.4812    1.6353 H   0  0  0  0  0  0  0  0  0  0  0  0
    1.1136   18.0633    1.6353 H   0  0  0  0  0  0  0  0  0  0  0  0
  1  2  1  0
  2  3  1  0
  3  4  1  0
  4  5  1  0
  5  6  1  0
  6  7  1  0
  7  8  1  0
  7  9  1  0
  2 10  1  0
 10 11  1  0
 11 12  1  0
 12 13  1  0
 13 14  1  6
 13 15  1  0
 15 16  1  0
 16 17  1  0
 17 18  2  0
 18 19  1  0
 19 20  1  0
 20 21  1  0
 21 22  1  0
 22 23  1  0
 22 24  1  0
 24 25  1  0
 24 26  1  0
 19 27  1  0
 27 28  1  1
 27 29  1  0
 29 30  1  0
 30 31  1  0
 31 32  1  1
  7  5  1  0
 31 10  1  0
 31 13  1  0
 27 15  1  0
 24 18  1  0
  1 33  1  0
  1 34  1  0
  1 35  1  0
  2 36  1  1
  3 37  1  0
  3 38  1  0
  4 39  1  0
  4 40  1  0
  5 41  1  1
  8 42  1  0
  8 43  1  0
  8 44  1  0
  9 45  1  0
  9 46  1  0
  9 47  1  0
 10 48  1  6
 11 49  1  0
 11 50  1  0
 12 51  1  0
 12 52  1  0
 14 53  1  0
 14 54  1  0
 14 55  1  0
 15 56  1  1
 16 57  1  0
 16 58  1  0
 17 59  1  0
 19 60  1  6
 20 61  1  0
 20 62  1  0
 21 63  1  0
 21 64  1  0
 22 65  1  6
 23 66  1  0
 25 67  1  0
 25 68  1  0
 25 69  1  0
 26 70  1  0
 26 71  1  0
 26 72  1  0
 28 73  1  0
 28 74  1  0
 28 75  1  0
 29 76  1  0
 29 77  1  0
 30 78  1  0
 30 79  1  0
 32 80  1  0
 32 81  1  0
 32 82  1  0
M  END
>  <meeko>  (9) 
{"is_sidechain": [false], "intermolecular_energy": 2.731, "internal_energy": -0.839}

$$$$
EPH_relaxed_0001_pdb2pqr_Repair_207_r2_0001_out
     RDKit          3D

 82 86  0  0  0  0  0  0  0  0999 V2000
   -5.1550    5.8340   -1.8380 C   0  0  0  0  0  0  0  0  0  0  0  0
   -5.4680    7.3320   -1.8570 C   0  0  2  0  0  0  0  0  0  0  0  0
   -5.2460    7.9890   -0.4800 C   0  0  0  0  0  0  0  0  0  0  0  0
   -4.2220    9.1270   -0.4990 C   0  0  0  0  0  0  0  0  0  0  0  0
   -2.8450    8.6280   -0.8170 C   0  0  2  0  0  0  0  0  0  0  0  0
   -1.8440    8.9780    0.1480 O   0  0  0  0  0  0  0  0  0  0  0  0
   -1.6840    9.5410   -1.1650 C   0  0  0  0  0  0  0  0  0  0  0  0
   -1.8480   11.0280   -1.2140 C   0  0  0  0  0  0  0  0  0  0  0  0
   -0.5300    8.9710   -1.9290 C   0  0  0  0  0  0  0  0  0  0  0  0
   -6.9040    7.5570   -2.3160 C   0  0  1  0  0  0  0  0  0  0  0  0
   -7.2180    6.8520   -3.6620 C   0  0  0  0  0  0  0  0  0  0  0  0
   -8.6940    6.3820   -3.5870 C   0  0  0  0  0  0  0  0  0  0  0  0
   -9.2740    7.1130   -2.3540 C   0  0  1  0  0  0  0  0  0  0  0  0
   -9.6250    8.5450   -2.8660 C   0  0  0  0  0  0  0  0  0  0  0  0
  -10.4980    6.4330   -1.6590 C   0  0  2  0  0  0  0  0  0  0  0  0
  -11.7560    6.3020   -2.5360 C   0  0  0  0  0  0  0  0  0  0  0  0
  -12.7080    7.4500   -2.4590 C   0  0  0  0  0  0  0  0  0  0  0  0
  -12.7060    8.4060   -1.5120 C   0  0  0  0  0  0  0  0  0  0  0  0
  -11.7370    8.3370   -0.3250 C   0  0  1  0  0  0  0  0  0  0  0  0
  -12.5070    8.6270    0.9900 C   0  0  0  0  0  0  0  0  0  0  0  0
  -13.2740    9.9440    0.9400 C   0  0  0  0  0  0  0  0  0  0  0  0
  -14.2690    9.9520   -0.2170 C   0  0  2  0  0  0  0  0  0  0  0  0
  -15.2870    8.9810    0.0430 O   0  0  0  0  0  0  0  0  0  0  0  0
  -13.6090    9.6610   -1.5940 C   0  0  0  0  0  0  0  0  0  0  0  0
  -12.7310   10.8650   -2.0150 C   0  0  0  0  0  0  0  0  0  0  0  0
  -14.7400    9.5580   -2.6530 C   0  0  0  0  0  0  0  0  0  0  0  0
  -10.8460    7.0240   -0.2330 C   0  0  1  0  0  0  0  0  0  0  0  0
  -11.6190    5.9080    0.5350 C   0  0  0  0  0  0  0  0  0  0  0  0
   -9.5570    7.3360    0.6150 C   0  0  0  0  0  0  0  0  0  0  0  0
   -8.3410    7.8940   -0.1480 C   0  0  0  0  0  0  0  0  0  0  0  0
   -8.0360    7.0480   -1.3880 C   0  0  2  0  0  0  0  0  0  0  0  0
   -7.6570    5.6070   -0.9030 C   0  0  0  0  0  0  0  0  0  0  0  0
   -5.0826    5.4877   -0.7964 H   0  0  0  0  0  0  0  0  0  0  0  0
   -5.9579    5.2851   -2.3520 H   0  0  0  0  0  0  0  0  0  0  0  0
   -4.1995    5.6525   -2.3520 H   0  0  0  0  0  0  0  0  0  0  0  0
   -4.7726    7.8065   -2.5650 H   0  0  0  0  0  0  0  0  0  0  0  0
   -6.2071    8.3925   -0.1287 H   0  0  0  0  0  0  0  0  0  0  0  0
   -4.8487    7.2102    0.1875 H   0  0  0  0  0  0  0  0  0  0  0  0
   -4.5198    9.8619   -1.2614 H   0  0  0  0  0  0  0  0  0  0  0  0
   -4.1987    9.5842    0.5012 H   0  0  0  0  0  0  0  0  0  0  0  0
   -3.2567    7.7367   -1.3130 H   0  0  0  0  0  0  0  0  0  0  0  0
   -1.8919   11.4260   -0.1895 H   0  0  0  0  0  0  0  0  0  0  0  0
   -0.9936   11.4738   -1.7443 H   0  0  0  0  0  0  0  0  0  0  0  0
   -2.7790   11.2769   -1.7443 H   0  0  0  0  0  0  0  0  0  0  0  0
    0.2273    8.5969   -1.2243 H   0  0  0  0  0  0  0  0  0  0  0  0
   -0.8824    8.1433   -2.5621 H   0  0  0  0  0  0  0  0  0  0  0  0
   -0.0869    9.7539   -2.5621 H   0  0  0  0  0  0  0  0  0  0  0  0
   -6.9149    8.6563   -2.3543 H   0  0  0  0  0  0  0  0  0  0  0  0
   -7.0863    7.5551   -4.4977 H   0  0  0  0  0  0  0  0  0  0  0  0
   -6.5407    6.0017   -3.8300 H   0  0  0  0  0  0  0  0  0  0  0  0
   -9.2390    6.6667   -4.4991 H   0  0  0  0  0  0  0  0  0  0  0  0
   -8.7798    5.2886   -3.5023 H   0  0  0  0  0  0  0  0  0  0  0  0
   -9.7885    9.2118   -2.0066 H   0  0  0  0  0  0  0  0  0  0  0  0
   -8.7946    8.9300   -3.4761 H   0  0  0  0  0  0  0  0  0  0  0  0
  -10.5393    8.5024   -3.4761 H   0  0  0  0  0  0  0  0  0  0  0  0
  -10.1371    5.4064   -1.4983 H   0  0  0  0  0  0  0  0  0  0  0  0
  -11.4321    6.1983   -3.5821 H   0  0  0  0  0  0  0  0  0  0  0  0
  -12.3028    5.4264   -2.1560 H   0  0  0  0  0  0  0  0  0  0  0  0
  -13.4762    7.5201   -3.2431 H   0  0  0  0  0  0  0  0  0  0  0  0
  -10.9868    9.1224   -0.4991 H   0  0  0  0  0  0  0  0  0  0  0  0
  -13.2212    7.8095    1.1681 H   0  0  0  0  0  0  0  0  0  0  0  0
  -11.7672    8.7019    1.8006 H   0  0  0  0  0  0  0  0  0  0  0  0
  -13.8200   10.0787    1.8853 H   0  0  0  0  0  0  0  0  0  0  0  0
  -12.5554   10.7634    0.7908 H   0  0  0  0  0  0  0  0  0  0  0  0
  -14.6934   10.9649   -0.2799 H   0  0  0  0  0  0  0  0  0  0  0  0
  -15.0050    8.4580    0.8120 H   0  0  0  0  0  0  0  0  0  0  0  0
  -12.3570   11.3779   -1.1167 H   0  0  0  0  0  0  0  0  0  0  0  0
  -11.8805   10.5070   -2.6137 H   0  0  0  0  0  0  0  0  0  0  0  0
  -13.3318   11.5654   -2.6137 H   0  0  0  0  0  0  0  0  0  0  0  0
  -15.7114    9.4695   -2.1446 H   0  0  0  0  0  0  0  0  0  0  0  0
  -14.7363   10.4602   -3.2823 H   0  0  0  0  0  0  0  0  0  0  0  0
  -14.5734    8.6713   -3.2823 H   0  0  0  0  0  0  0  0  0  0  0  0
  -11.5100    6.0654    1.6182 H   0  0  0  0  0  0  0  0  0  0  0  0
  -12.6844    5.9472    0.2642 H   0  0  0  0  0  0  0  0  0  0  0  0
  -11.2078    4.9244    0.2642 H   0  0  0  0  0  0  0  0  0  0  0  0
   -9.8345    8.0729    1.3831 H   0  0  0  0  0  0  0  0  0  0  0  0
   -9.2282    6.3623    1.0071 H   0  0  0  0  0  0  0  0  0  0  0  0
   -8.5554    8.9266   -0.4608 H   0  0  0  0  0  0  0  0  0  0  0  0
   -7.4664    7.8671    0.5186 H   0  0  0  0  0  0  0  0  0  0  0  0
   -7.6500    5.5803    0.1967 H   0  0  0  0  0  0  0  0  0  0  0  0
   -8.3961    4.8861   -1.2826 H   0  0  0  0  0  0  0  0  0  0  0  0
   -6.6589    5.3430   -1.2826 H   0  0  0  0  0  0  0  0  0  0  0  0
  1  2  1  0
  2  3  1  0
  3  4  1  0
  4  5  1  0
  5  6  1  0
  6  7  1  0
  7  8  1  0
  7  9  1  0
  2 10  1  0
 10 11  1  0
 11 12  1  0
 12 13  1  0
 13 14  1  6
 13 15  1  0
 15 16  1  0
 16 17  1  0
 17 18  2  0
 18 19  1  0
 19 20  1  0
 20 21  1  0
 21 22  1  0
 22 23  1  0
 22 24  1  0
 24 25  1  0
 24 26  1  0
 19 27  1  0
 27 28  1  1
 27 29  1  0
 29 30  1  0
 30 31  1  0
 31 32  1  1
  7  5  1  0
 31 10  1  0
 31 13  1  0
 27 15  1  0
 24 18  1  0
  1 33  1  0
  1 34  1  0
  1 35  1  0
  2 36  1  6
  3 37  1  0
  3 38  1  0
  4 39  1  0
  4 40  1  0
  5 41  1  6
  8 42  1  0
  8 43  1  0
  8 44  1  0
  9 45  1  0
  9 46  1  0
  9 47  1  0
 10 48  1  6
 11 49  1  0
 11 50  1  0
 12 51  1  0
 12 52  1  0
 14 53  1  0
 14 54  1  0
 14 55  1  0
 15 56  1  1
 16 57  1  0
 16 58  1  0
 17 59  1  0
 19 60  1  6
 20 61  1  0
 20 62  1  0
 21 63  1  0
 21 64  1  0
 22 65  1  6
 23 66  1  0
 25 67  1  0
 25 68  1  0
 25 69  1  0
 26 70  1  0
 26 71  1  0
 26 72  1  0
 28 73  1  0
 28 74  1  0
 28 75  1  0
 29 76  1  0
 29 77  1  0
 30 78  1  0
 30 79  1  0
 32 80  1  0
 32 81  1  0
 32 82  1  0
M  END
>  <meeko>  (10) 
{"is_sidechain": [false], "intermolecular_energy": 2.731, "internal_energy": -0.839}

$$$$
EPH_relaxed_0001_pdb2pqr_Repair_207_r2_0001_out
     RDKit          3D

 82 86  0  0  0  0  0  0  0  0999 V2000
   -0.1240    9.4480   -4.1300 C   0  0  0  0  0  0  0  0  0  0  0  0
    0.0690    9.6010   -2.6180 C   0  0  2  0  0  0  0  0  0  0  0  0
   -0.7170    8.5400   -1.8220 C   0  0  0  0  0  0  0  0  0  0  0  0
   -2.2310    8.6010   -2.0420 C   0  0  0  0  0  0  0  0  0  0  0  0
   -2.7550    7.3340   -2.6460 C   0  0  2  0  0  0  0  0  0  0  0  0
   -3.7850    7.5190   -3.6260 O   0  0  0  0  0  0  0  0  0  0  0  0
   -4.1680    6.8250   -2.4270 C   0  0  0  0  0  0  0  0  0  0  0  0
   -5.1440    7.5740   -1.5760 C   0  0  0  0  0  0  0  0  0  0  0  0
   -4.4440    5.3680   -2.6360 C   0  0  0  0  0  0  0  0  0  0  0  0
   -0.3530   10.9990   -2.1800 C   0  0  1  0  0  0  0  0  0  0  0  0
   -1.5150   10.9770   -1.1510 C   0  0  0  0  0  0  0  0  0  0  0  0
   -1.2730   12.1600   -0.1790 C   0  0  0  0  0  0  0  0  0  0  0  0
   -0.1830   13.0140   -0.8670 C   0  0  1  0  0  0  0  0  0  0  0  0
   -0.9510   13.8720   -1.9210 C   0  0  0  0  0  0  0  0  0  0  0  0
    0.6940   13.9040    0.0730 C   0  0  2  0  0  0  0  0  0  0  0  0
   -0.0740   14.9890    0.8480 C   0  0  0  0  0  0  0  0  0  0  0  0
   -0.1800   16.3100    0.1610 C   0  0  0  0  0  0  0  0  0  0  0  0
    0.5570   16.7040   -0.8940 C   0  0  0  0  0  0  0  0  0  0  0  0
    1.6840   15.8190   -1.4430 C   0  0  1  0  0  0  0  0  0  0  0  0
    2.9520   16.6810   -1.6770 C   0  0  0  0  0  0  0  0  0  0  0  0
    2.6800   17.8930   -2.5620 C   0  0  0  0  0  0  0  0  0  0  0  0
    1.5950   18.7790   -1.9550 C   0  0  2  0  0  0  0  0  0  0  0  0
    2.0950   19.3540   -0.7430 O   0  0  0  0  0  0  0  0  0  0  0  0
    0.2720   18.0160   -1.6650 C   0  0  0  0  0  0  0  0  0  0  0  0
   -0.4240   17.6550   -3.0000 C   0  0  0  0  0  0  0  0  0  0  0  0
   -0.6870   18.9880   -0.9250 C   0  0  0  0  0  0  0  0  0  0  0  0
    1.9900   14.4950   -0.6170 C   0  0  1  0  0  0  0  0  0  0  0  0
    3.0020   14.8040    0.5280 C   0  0  0  0  0  0  0  0  0  0  0  0
    2.6930   13.4510   -1.5630 C   0  0  0  0  0  0  0  0  0  0  0  0
    1.7740   12.5200   -2.3760 C   0  0  0  0  0  0  0  0  0  0  0  0
    0.7130   11.8760   -1.4780 C   0  0  2  0  0  0  0  0  0  0  0  0
    1.4560   10.9890   -0.4210 C   0  0  0  0  0  0  0  0  0  0  0  0
   -0.9723    8.7755   -4.3252 H   0  0  0  0  0  0  0  0  0  0  0  0
   -0.3271   10.4331   -4.5753 H   0  0  0  0  0  0  0  0  0  0  0  0
    0.7888    9.0255   -4.5753 H   0  0  0  0  0  0  0  0  0  0  0  0
    1.1372    9.4501   -2.4033 H   0  0  0  0  0  0  0  0  0  0  0  0
   -0.3619    7.5443   -2.1261 H   0  0  0  0  0  0  0  0  0  0  0  0
   -0.5391    8.7418   -0.7554 H   0  0  0  0  0  0  0  0  0  0  0  0
   -2.7256    8.7652   -1.0733 H   0  0  0  0  0  0  0  0  0  0  0  0
   -2.4433    9.4259   -2.7380 H   0  0  0  0  0  0  0  0  0  0  0  0
   -1.7723    6.8506   -2.5431 H   0  0  0  0  0  0  0  0  0  0  0  0
   -4.9152    7.3984   -0.5145 H   0  0  0  0  0  0  0  0  0  0  0  0
   -5.0705    8.6497   -1.7939 H   0  0  0  0  0  0  0  0  0  0  0  0
   -6.1640    7.2247   -1.7939 H   0  0  0  0  0  0  0  0  0  0  0  0
   -4.5385    4.8691   -1.6602 H   0  0  0  0  0  0  0  0  0  0  0  0
   -5.3806    5.2495   -3.2006 H   0  0  0  0  0  0  0  0  0  0  0  0
   -3.6157    4.9152   -3.2006 H   0  0  0  0  0  0  0  0  0  0  0  0
   -0.6088   11.4300   -3.1592 H   0  0  0  0  0  0  0  0  0  0  0  0
   -2.4793   11.1006   -1.6657 H   0  0  0  0  0  0  0  0  0  0  0  0
   -1.5452   10.0201   -0.6093 H   0  0  0  0  0  0  0  0  0  0  0  0
   -2.1948   12.7443   -0.0415 H   0  0  0  0  0  0  0  0  0  0  0  0
   -0.9674   11.8214    0.8220 H   0  0  0  0  0  0  0  0  0  0  0  0
   -1.5984   14.5953   -1.4036 H   0  0  0  0  0  0  0  0  0  0  0  0
   -0.2287   14.4117   -2.5511 H   0  0  0  0  0  0  0  0  0  0  0  0
   -1.5671   13.2136   -2.5511 H   0  0  0  0  0  0  0  0  0  0  0  0
    1.0358   13.1820    0.8292 H   0  0  0  0  0  0  0  0  0  0  0  0
   -1.0934   14.6185    1.0310 H   0  0  0  0  0  0  0  0  0  0  0  0
    0.5012   15.1701    1.7680 H   0  0  0  0  0  0  0  0  0  0  0  0
   -0.9233   17.0216    0.5499 H   0  0  0  0  0  0  0  0  0  0  0  0
    1.3200   15.4228   -2.4025 H   0  0  0  0  0  0  0  0  0  0  0  0
    3.3245   17.0319   -0.7033 H   0  0  0  0  0  0  0  0  0  0  0  0
    3.6934   16.0517   -2.1912 H   0  0  0  0  0  0  0  0  0  0  0  0
    3.6058   18.4778   -2.6662 H   0  0  0  0  0  0  0  0  0  0  0  0
    2.3357   17.5398   -3.5452 H   0  0  0  0  0  0  0  0  0  0  0  0
    1.3522   19.5571   -2.6936 H   0  0  0  0  0  0  0  0  0  0  0  0
    3.0630   19.2650   -0.7530 H   0  0  0  0  0  0  0  0  0  0  0  0
   -1.3827   17.1578   -2.7910 H   0  0  0  0  0  0  0  0  0  0  0  0
   -0.6054   18.5727   -3.5788 H   0  0  0  0  0  0  0  0  0  0  0  0
    0.2216   16.9781   -3.5788 H   0  0  0  0  0  0  0  0  0  0  0  0
   -0.5664   18.8657    0.1615 H   0  0  0  0  0  0  0  0  0  0  0  0
   -0.4476   20.0242   -1.2062 H   0  0  0  0  0  0  0  0  0  0  0  0
   -1.7263   18.7626   -1.2062 H   0  0  0  0  0  0  0  0  0  0  0  0
    2.5115   14.6542    1.5012 H   0  0  0  0  0  0  0  0  0  0  0  0
    3.8665   14.1289    0.4454 H   0  0  0  0  0  0  0  0  0  0  0  0
    3.3420   15.8469    0.4454 H   0  0  0  0  0  0  0  0  0  0  0  0
    3.3123   14.0136   -2.2772 H   0  0  0  0  0  0  0  0  0  0  0  0
    3.2536   12.7854   -0.8902 H   0  0  0  0  0  0  0  0  0  0  0  0
    1.2735   13.1049   -3.1618 H   0  0  0  0  0  0  0  0  0  0  0  0
    2.3875   11.7229   -2.8211 H   0  0  0  0  0  0  0  0  0  0  0  0
    1.1807   11.3177    0.5920 H   0  0  0  0  0  0  0  0  0  0  0  0
    1.1659    9.9366   -0.5565 H   0  0  0  0  0  0  0  0  0  0  0  0
    2.5429   11.0901   -0.5565 H   0  0  0  0  0  0  0  0  0  0  0  0
  1  2  1  0
  2  3  1  0
  3  4  1  0
  4  5  1  0
  5  6  1  0
  6  7  1  0
  7  8  1  0
  7  9  1  0
  2 10  1  0
 10 11  1  0
 11 12  1  0
 12 13  1  0
 13 14  1  6
 13 15  1  0
 15 16  1  0
 16 17  1  0
 17 18  2  0
 18 19  1  0
 19 20  1  0
 20 21  1  0
 21 22  1  0
 22 23  1  0
 22 24  1  0
 24 25  1  0
 24 26  1  0
 19 27  1  0
 27 28  1  1
 27 29  1  0
 29 30  1  0
 30 31  1  0
 31 32  1  1
  7  5  1  0
 31 10  1  0
 31 13  1  0
 27 15  1  0
 24 18  1  0
  1 33  1  0
  1 34  1  0
  1 35  1  0
  2 36  1  6
  3 37  1  0
  3 38  1  0
  4 39  1  0
  4 40  1  0
  5 41  1  6
  8 42  1  0
  8 43  1  0
  8 44  1  0
  9 45  1  0
  9 46  1  0
  9 47  1  0
 10 48  1  6
 11 49  1  0
 11 50  1  0
 12 51  1  0
 12 52  1  0
 14 53  1  0
 14 54  1  0
 14 55  1  0
 15 56  1  1
 16 57  1  0
 16 58  1  0
 17 59  1  0
 19 60  1  6
 20 61  1  0
 20 62  1  0
 21 63  1  0
 21 64  1  0
 22 65  1  6
 23 66  1  0
 25 67  1  0
 25 68  1  0
 25 69  1  0
 26 70  1  0
 26 71  1  0
 26 72  1  0
 28 73  1  0
 28 74  1  0
 28 75  1  0
 29 76  1  0
 29 77  1  0
 30 78  1  0
 30 79  1  0
 32 80  1  0
 32 81  1  0
 32 82  1  0
M  END
>  <meeko>  (11) 
{"is_sidechain": [false], "intermolecular_energy": 2.731, "internal_energy": -0.839}

$$$$
EPH_relaxed_0001_pdb2pqr_Repair_207_r2_0001_out
     RDKit          3D

 82 86  0  0  0  0  0  0  0  0999 V2000
   -0.2910   17.3390   -1.9700 C   0  0  0  0  0  0  0  0  0  0  0  0
   -0.3710   16.4790   -0.7050 C   0  0  2  0  0  0  0  0  0  0  0  0
   -0.2670   17.3240    0.5800 C   0  0  0  0  0  0  0  0  0  0  0  0
    0.4420   18.6660    0.3780 C   0  0  0  0  0  0  0  0  0  0  0  0
    1.9150   18.5590    0.6350 C   0  0  2  0  0  0  0  0  0  0  0  0
    2.6850   19.6790    0.1780 O   0  0  0  0  0  0  0  0  0  0  0  0
    2.9480   18.4230   -0.4680 C   0  0  0  0  0  0  0  0  0  0  0  0
    2.5500   18.3840   -1.9100 C   0  0  0  0  0  0  0  0  0  0  0  0
    4.2840   17.8380   -0.1280 C   0  0  0  0  0  0  0  0  0  0  0  0
    0.7280   15.4230   -0.7250 C   0  0  1  0  0  0  0  0  0  0  0  0
    0.8930   14.7070    0.6420 C   0  0  0  0  0  0  0  0  0  0  0  0
    1.2740   13.2360    0.3330 C   0  0  0  0  0  0  0  0  0  0  0  0
    1.6400   13.2350   -1.1690 C   0  0  1  0  0  0  0  0  0  0  0  0
    3.1090   13.7600   -1.2250 C   0  0  0  0  0  0  0  0  0  0  0  0
    1.4860   11.8710   -1.9170 C   0  0  2  0  0  0  0  0  0  0  0  0
    2.3890   10.7380   -1.4000 C   0  0  0  0  0  0  0  0  0  0  0  0
    3.7220   10.6310   -2.0650 C   0  0  0  0  0  0  0  0  0  0  0  0
    4.0670   11.2240   -3.2240 C   0  0  0  0  0  0  0  0  0  0  0  0
    3.0390   12.0180   -4.0400 C   0  0  1  0  0  0  0  0  0  0  0  0
    3.1370   11.6100   -5.5330 C   0  0  0  0  0  0  0  0  0  0  0  0
    4.5520   11.7470   -6.0860 C   0  0  0  0  0  0  0  0  0  0  0  0
    5.5350   10.8970   -5.2850 C   0  0  2  0  0  0  0  0  0  0  0  0
    5.2270    9.5160   -5.4930 O   0  0  0  0  0  0  0  0  0  0  0  0
    5.5190   11.2130   -3.7630 C   0  0  0  0  0  0  0  0  0  0  0  0
    6.1400   12.6100   -3.5140 C   0  0  0  0  0  0  0  0  0  0  0  0
    6.4490   10.1920   -3.0530 C   0  0  0  0  0  0  0  0  0  0  0  0
    1.5470   11.9860   -3.4940 C   0  0  1  0  0  0  0  0  0  0  0  0
    0.8000   10.7390   -4.0610 C   0  0  0  0  0  0  0  0  0  0  0  0
    0.7750   13.2480   -4.0330 C   0  0  0  0  0  0  0  0  0  0  0  0
    0.8690   14.5320   -3.1870 C   0  0  0  0  0  0  0  0  0  0  0  0
    0.5630   14.2430   -1.7150 C   0  0  2  0  0  0  0  0  0  0  0  0
   -0.9160   13.7340   -1.6240 C   0  0  0  0  0  0  0  0  0  0  0  0
   -0.1925   18.3977   -1.6880 H   0  0  0  0  0  0  0  0  0  0  0  0
    0.5828   17.0353   -2.5652 H   0  0  0  0  0  0  0  0  0  0  0  0
   -1.2058   17.2017   -2.5652 H   0  0  0  0  0  0  0  0  0  0  0  0
   -1.3565   15.9904   -0.6987 H   0  0  0  0  0  0  0  0  0  0  0  0
   -1.2842   17.5207    0.9496 H   0  0  0  0  0  0  0  0  0  0  0  0
    0.3354   16.7466    1.2967 H   0  0  0  0  0  0  0  0  0  0  0  0
    0.2842   19.0001   -0.6581 H   0  0  0  0  0  0  0  0  0  0  0  0
    0.0206   19.3876    1.0934 H   0  0  0  0  0  0  0  0  0  0  0  0
    1.7373   17.9825    1.5548 H   0  0  0  0  0  0  0  0  0  0  0  0
    1.4579   18.2770   -1.9862 H   0  0  0  0  0  0  0  0  0  0  0  0
    2.8622   19.3170   -2.4019 H   0  0  0  0  0  0  0  0  0  0  0  0
    3.0374   17.5293   -2.4019 H   0  0  0  0  0  0  0  0  0  0  0  0
    4.3954   17.7892    0.9653 H   0  0  0  0  0  0  0  0  0  0  0  0
    4.3587   16.8248   -0.5498 H   0  0  0  0  0  0  0  0  0  0  0  0
    5.0792   18.4703   -0.5498 H   0  0  0  0  0  0  0  0  0  0  0  0
    1.5804   16.0497   -1.0262 H   0  0  0  0  0  0  0  0  0  0  0  0
    1.6888   15.1893    1.2287 H   0  0  0  0  0  0  0  0  0  0  0  0
   -0.0351   14.7596    1.2301 H   0  0  0  0  0  0  0  0  0  0  0  0
    2.1340   12.9214    0.9424 H   0  0  0  0  0  0  0  0  0  0  0  0
    0.4572   12.5363    0.5637 H   0  0  0  0  0  0  0  0  0  0  0  0
    3.4891   13.8958   -0.2017 H   0  0  0  0  0  0  0  0  0  0  0  0
    3.7388   13.0313   -1.7564 H   0  0  0  0  0  0  0  0  0  0  0  0
    3.1343   14.7228   -1.7564 H   0  0  0  0  0  0  0  0  0  0  0  0
    0.4586   11.5749   -1.6587 H   0  0  0  0  0  0  0  0  0  0  0  0
    2.5574   10.9011   -0.3253 H   0  0  0  0  0  0  0  0  0  0  0  0
    1.8601    9.8003   -1.6257 H   0  0  0  0  0  0  0  0  0  0  0  0
    4.4860   10.0164   -1.5664 H   0  0  0  0  0  0  0  0  0  0  0  0
    3.3110   13.0776   -3.9247 H   0  0  0  0  0  0  0  0  0  0  0  0
    2.8193   10.5617   -5.6335 H   0  0  0  0  0  0  0  0  0  0  0  0
    2.4875   12.2872   -6.1071 H   0  0  0  0  0  0  0  0  0  0  0  0
    4.5621   11.4167   -7.1352 H   0  0  0  0  0  0  0  0  0  0  0  0
    4.8576   12.8011   -6.0119 H   0  0  0  0  0  0  0  0  0  0  0  0
    6.5467   11.1362   -5.6444 H   0  0  0  0  0  0  0  0  0  0  0  0
    4.8620    9.4280   -6.3900 H   0  0  0  0  0  0  0  0  0  0  0  0
    6.2193   12.7883   -2.4315 H   0  0  0  0  0  0  0  0  0  0  0  0
    7.1416   12.6520   -3.9669 H   0  0  0  0  0  0  0  0  0  0  0  0
    5.5002   13.3817   -3.9669 H   0  0  0  0  0  0  0  0  0  0  0  0
    6.3493   10.3015   -1.9630 H   0  0  0  0  0  0  0  0  0  0  0  0
    6.1643    9.1708   -3.3465 H   0  0  0  0  0  0  0  0  0  0  0  0
    7.4922   10.3805   -3.3465 H   0  0  0  0  0  0  0  0  0  0  0  0
    0.4308   10.1227   -3.2281 H   0  0  0  0  0  0  0  0  0  0  0  0
   -0.0492   11.0692   -4.6773 H   0  0  0  0  0  0  0  0  0  0  0  0
    1.4918   10.1461   -4.6773 H   0  0  0  0  0  0  0  0  0  0  0  0
    1.1708   13.4784   -5.0331 H   0  0  0  0  0  0  0  0  0  0  0  0
   -0.2881   12.9663   -4.0123 H   0  0  0  0  0  0  0  0  0  0  0  0
    1.8860   14.9431   -3.2690 H   0  0  0  0  0  0  0  0  0  0  0  0
    0.1297   15.2544   -3.5633 H   0  0  0  0  0  0  0  0  0  0  0  0
   -1.2052   13.6345   -0.5674 H   0  0  0  0  0  0  0  0  0  0  0  0
   -1.5829   14.4543   -2.1204 H   0  0  0  0  0  0  0  0  0  0  0  0
   -0.9983   12.7558   -2.1204 H   0  0  0  0  0  0  0  0  0  0  0  0
  1  2  1  0
  2  3  1  0
  3  4  1  0
  4  5  1  0
  5  6  1  0
  6  7  1  0
  7  8  1  0
  7  9  1  0
  2 10  1  0
 10 11  1  0
 11 12  1  0
 12 13  1  0
 13 14  1  1
 13 15  1  0
 15 16  1  0
 16 17  1  0
 17 18  2  0
 18 19  1  0
 19 20  1  0
 20 21  1  0
 21 22  1  0
 22 23  1  0
 22 24  1  0
 24 25  1  0
 24 26  1  0
 19 27  1  0
 27 28  1  6
 27 29  1  0
 29 30  1  0
 30 31  1  0
 31 32  1  6
  7  5  1  0
 31 10  1  0
 31 13  1  0
 27 15  1  0
 24 18  1  0
  1 33  1  0
  1 34  1  0
  1 35  1  0
  2 36  1  1
  3 37  1  0
  3 38  1  0
  4 39  1  0
  4 40  1  0
  5 41  1  1
  8 42  1  0
  8 43  1  0
  8 44  1  0
  9 45  1  0
  9 46  1  0
  9 47  1  0
 10 48  1  6
 11 49  1  0
 11 50  1  0
 12 51  1  0
 12 52  1  0
 14 53  1  0
 14 54  1  0
 14 55  1  0
 15 56  1  6
 16 57  1  0
 16 58  1  0
 17 59  1  0
 19 60  1  6
 20 61  1  0
 20 62  1  0
 21 63  1  0
 21 64  1  0
 22 65  1  6
 23 66  1  0
 25 67  1  0
 25 68  1  0
 25 69  1  0
 26 70  1  0
 26 71  1  0
 26 72  1  0
 28 73  1  0
 28 74  1  0
 28 75  1  0
 29 76  1  0
 29 77  1  0
 30 78  1  0
 30 79  1  0
 32 80  1  0
 32 81  1  0
 32 82  1  0
M  END
>  <meeko>  (12) 
{"is_sidechain": [false], "intermolecular_energy": 2.731, "internal_energy": -0.839}

$$$$
EPH_relaxed_0001_pdb2pqr_Repair_207_r2_0001_out
     RDKit          3D

 82 86  0  0  0  0  0  0  0  0999 V2000
   -4.0830    7.5090   -3.7460 C   0  0  0  0  0  0  0  0  0  0  0  0
   -3.6450    7.2930   -2.2950 C   0  0  2  0  0  0  0  0  0  0  0  0
   -4.7760    6.7060   -1.4280 C   0  0  0  0  0  0  0  0  0  0  0  0
   -6.1170    6.5960   -2.1580 C   0  0  0  0  0  0  0  0  0  0  0  0
   -7.2540    6.3960   -1.2020 C   0  0  2  0  0  0  0  0  0  0  0  0
   -8.3400    5.6150   -1.7180 O   0  0  0  0  0  0  0  0  0  0  0  0
   -8.6360    6.9870   -1.4100 C   0  0  0  0  0  0  0  0  0  0  0  0
   -8.9540    7.8250   -2.6090 C   0  0  0  0  0  0  0  0  0  0  0  0
   -9.5280    7.1580   -0.2200 C   0  0  0  0  0  0  0  0  0  0  0  0
   -3.1600    8.6090   -1.6970 C   0  0  1  0  0  0  0  0  0  0  0  0
   -3.8280    8.9280   -0.3330 C   0  0  0  0  0  0  0  0  0  0  0  0
   -2.7590    9.6450    0.5320 C   0  0  0  0  0  0  0  0  0  0  0  0
   -1.6330   10.0100   -0.4630 C   0  0  1  0  0  0  0  0  0  0  0  0
   -2.1240   11.3150   -1.1640 C   0  0  0  0  0  0  0  0  0  0  0  0
   -0.2030   10.1830    0.1450 C   0  0  2  0  0  0  0  0  0  0  0  0
   -0.0640   11.3240    1.1690 C   0  0  0  0  0  0  0  0  0  0  0  0
    0.3230   12.6480    0.5990 C   0  0  0  0  0  0  0  0  0  0  0  0
    0.8260   12.8530   -0.6320 C   0  0  0  0  0  0  0  0  0  0  0  0
    1.1430   11.6730   -1.5600 C   0  0  1  0  0  0  0  0  0  0  0  0
    2.5470   11.8730   -2.1900 C   0  0  0  0  0  0  0  0  0  0  0  0
    2.6870   13.2210   -2.8910 C   0  0  0  0  0  0  0  0  0  0  0  0
    2.4210   14.3700   -1.9220 C   0  0  2  0  0  0  0  0  0  0  0  0
    3.4600   14.3940   -0.9390 O   0  0  0  0  0  0  0  0  0  0  0  0
    1.0380   14.2710   -1.2190 C   0  0  0  0  0  0  0  0  0  0  0  0
   -0.0880   14.5460   -2.2450 C   0  0  0  0  0  0  0  0  0  0  0  0
    0.9550   15.4090   -0.1670 C   0  0  0  0  0  0  0  0  0  0  0  0
    0.9580   10.2260   -0.9290 C   0  0  1  0  0  0  0  0  0  0  0  0
    2.2630    9.7950   -0.1930 C   0  0  0  0  0  0  0  0  0  0  0  0
    0.7380    9.1840   -2.0890 C   0  0  0  0  0  0  0  0  0  0  0  0
   -0.7110    8.9700   -2.5650 C   0  0  0  0  0  0  0  0  0  0  0  0
   -1.6490    8.7310   -1.3770 C   0  0  2  0  0  0  0  0  0  0  0  0
   -1.1930    7.4110   -0.6660 C   0  0  0  0  0  0  0  0  0  0  0  0
   -5.0694    7.9955   -3.7627 H   0  0  0  0  0  0  0  0  0  0  0  0
   -3.3499    8.1489   -4.2589 H   0  0  0  0  0  0  0  0  0  0  0  0
   -4.1444    6.5378   -4.2589 H   0  0  0  0  0  0  0  0  0  0  0  0
   -2.8226    6.5625   -2.3032 H   0  0  0  0  0  0  0  0  0  0  0  0
   -4.4756    5.6999   -1.1000 H   0  0  0  0  0  0  0  0  0  0  0  0
   -4.9250    7.3956   -0.5840 H   0  0  0  0  0  0  0  0  0  0  0  0
   -6.2893    7.5207   -2.7283 H   0  0  0  0  0  0  0  0  0  0  0  0
   -6.0731    5.7231   -2.8260 H   0  0  0  0  0  0  0  0  0  0  0  0
   -6.5661    6.4125   -0.3438 H   0  0  0  0  0  0  0  0  0  0  0  0
   -9.3266    8.8069   -2.2817 H   0  0  0  0  0  0  0  0  0  0  0  0
   -8.0448    7.9606   -3.2132 H   0  0  0  0  0  0  0  0  0  0  0  0
   -9.7243    7.3233   -3.2132 H   0  0  0  0  0  0  0  0  0  0  0  0
   -8.9368    7.0447    0.7007 H   0  0  0  0  0  0  0  0  0  0  0  0
   -9.9822    8.1596   -0.2431 H   0  0  0  0  0  0  0  0  0  0  0  0
  -10.3204    6.3954   -0.2431 H   0  0  0  0  0  0  0  0  0  0  0  0
   -3.4279    9.2928   -2.5159 H   0  0  0  0  0  0  0  0  0  0  0  0
   -4.6978    9.5848   -0.4816 H   0  0  0  0  0  0  0  0  0  0  0  0
   -4.1820    8.0094    0.1578 H   0  0  0  0  0  0  0  0  0  0  0  0
   -3.1775   10.5511    0.9943 H   0  0  0  0  0  0  0  0  0  0  0  0
   -2.3980    9.0136    1.3572 H   0  0  0  0  0  0  0  0  0  0  0  0
   -2.4034   12.0576   -0.4021 H   0  0  0  0  0  0  0  0  0  0  0  0
   -1.3167   11.7199   -1.7920 H   0  0  0  0  0  0  0  0  0  0  0  0
   -2.9980   11.0873   -1.7920 H   0  0  0  0  0  0  0  0  0  0  0  0
   -0.0747    9.2511    0.7153 H   0  0  0  0  0  0  0  0  0  0  0  0
   -1.0314   11.4430    1.6788 H   0  0  0  0  0  0  0  0  0  0  0  0
    0.7553   11.0310    1.8420 H   0  0  0  0  0  0  0  0  0  0  0  0
    0.1853   13.5314    1.2398 H   0  0  0  0  0  0  0  0  0  0  0  0
    0.3746   11.6894   -2.3470 H   0  0  0  0  0  0  0  0  0  0  0  0
    3.3032   11.8095   -1.3936 H   0  0  0  0  0  0  0  0  0  0  0  0
    2.6887   11.0870   -2.9464 H   0  0  0  0  0  0  0  0  0  0  0  0
    3.7079   13.3152   -3.2895 H   0  0  0  0  0  0  0  0  0  0  0  0
    1.9499   13.2712   -3.7059 H   0  0  0  0  0  0  0  0  0  0  0  0
    2.4083   15.3002   -2.5089 H   0  0  0  0  0  0  0  0  0  0  0  0
    3.1410   13.9060   -0.1610 H   0  0  0  0  0  0  0  0  0  0  0  0
   -1.0225   14.7742   -1.7115 H   0  0  0  0  0  0  0  0  0  0  0  0
    0.1923   15.4021   -2.8763 H   0  0  0  0  0  0  0  0  0  0  0  0
   -0.2339   13.6571   -2.8763 H   0  0  0  0  0  0  0  0  0  0  0  0
    0.9865   14.9767    0.8440 H   0  0  0  0  0  0  0  0  0  0  0  0
    1.8056   16.0938   -0.2997 H   0  0  0  0  0  0  0  0  0  0  0  0
    0.0141   15.9631   -0.2997 H   0  0  0  0  0  0  0  0  0  0  0  0
    2.1050    9.8472    0.8943 H   0  0  0  0  0  0  0  0  0  0  0  0
    2.5207    8.7640   -0.4770 H   0  0  0  0  0  0  0  0  0  0  0  0
    3.0840   10.4697   -0.4770 H   0  0  0  0  0  0  0  0  0  0  0  0
    1.3264    9.5211   -2.9551 H   0  0  0  0  0  0  0  0  0  0  0  0
    1.0488    8.2160   -1.6690 H   0  0  0  0  0  0  0  0  0  0  0  0
   -1.0452    9.8631   -3.1134 H   0  0  0  0  0  0  0  0  0  0  0  0
   -0.7387    8.0848   -3.2174 H   0  0  0  0  0  0  0  0  0  0  0  0
   -1.2399    7.5469    0.4246 H   0  0  0  0  0  0  0  0  0  0  0  0
   -1.8584    6.5865   -0.9617 H   0  0  0  0  0  0  0  0  0  0  0  0
   -0.1606    7.1730   -0.9617 H   0  0  0  0  0  0  0  0  0  0  0  0
  1  2  1  0
  2  3  1  0
  3  4  1  0
  4  5  1  0
  5  6  1  0
  6  7  1  0
  7  8  1  0
  7  9  1  0
  2 10  1  0
 10 11  1  0
 11 12  1  0
 12 13  1  0
 13 14  1  6
 13 15  1  0
 15 16  1  0
 16 17  1  0
 17 18  2  0
 18 19  1  0
 19 20  1  0
 20 21  1  0
 21 22  1  0
 22 23  1  0
 22 24  1  0
 24 25  1  0
 24 26  1  0
 19 27  1  0
 27 28  1  1
 27 29  1  0
 29 30  1  0
 30 31  1  0
 31 32  1  1
  7  5  1  0
 31 10  1  0
 31 13  1  0
 27 15  1  0
 24 18  1  0
  1 33  1  0
  1 34  1  0
  1 35  1  0
  2 36  1  6
  3 37  1  0
  3 38  1  0
  4 39  1  0
  4 40  1  0
  5 41  1  1
  8 42  1  0
  8 43  1  0
  8 44  1  0
  9 45  1  0
  9 46  1  0
  9 47  1  0
 10 48  1  6
 11 49  1  0
 11 50  1  0
 12 51  1  0
 12 52  1  0
 14 53  1  0
 14 54  1  0
 14 55  1  0
 15 56  1  1
 16 57  1  0
 16 58  1  0
 17 59  1  0
 19 60  1  6
 20 61  1  0
 20 62  1  0
 21 63  1  0
 21 64  1  0
 22 65  1  6
 23 66  1  0
 25 67  1  0
 25 68  1  0
 25 69  1  0
 26 70  1  0
 26 71  1  0
 26 72  1  0
 28 73  1  0
 28 74  1  0
 28 75  1  0
 29 76  1  0
 29 77  1  0
 30 78  1  0
 30 79  1  0
 32 80  1  0
 32 81  1  0
 32 82  1  0
M  END
>  <meeko>  (13) 
{"is_sidechain": [false], "intermolecular_energy": 2.731, "internal_energy": -0.839}

$$$$
EPH_relaxed_0001_pdb2pqr_Repair_207_r2_0001_out
     RDKit          3D

 82 86  0  0  0  0  0  0  0  0999 V2000
    0.9480    9.1270   -0.0740 C   0  0  0  0  0  0  0  0  0  0  0  0
    1.1020    9.8700   -1.4040 C   0  0  2  0  0  0  0  0  0  0  0  0
    2.5780    9.9970   -1.8310 C   0  0  0  0  0  0  0  0  0  0  0  0
    2.7620   10.4390   -3.2860 C   0  0  0  0  0  0  0  0  0  0  0  0
    1.6920   11.3970   -3.7140 C   0  0  2  0  0  0  0  0  0  0  0  0
    1.0270   11.0460   -4.9350 O   0  0  0  0  0  0  0  0  0  0  0  0
    1.7910   12.2620   -4.9560 C   0  0  0  0  0  0  0  0  0  0  0  0
    2.9920   12.2110   -5.8480 C   0  0  0  0  0  0  0  0  0  0  0  0
    0.9530   13.5000   -5.0350 C   0  0  0  0  0  0  0  0  0  0  0  0
    0.4680   11.2520   -1.3040 C   0  0  1  0  0  0  0  0  0  0  0  0
   -0.8130   11.2600   -0.4270 C   0  0  0  0  0  0  0  0  0  0  0  0
   -0.8430   12.6230    0.3100 C   0  0  0  0  0  0  0  0  0  0  0  0
    0.2270   13.4790   -0.4090 C   0  0  1  0  0  0  0  0  0  0  0  0
   -0.4830   14.0140   -1.6920 C   0  0  0  0  0  0  0  0  0  0  0  0
    0.8600   14.6380    0.4270 C   0  0  2  0  0  0  0  0  0  0  0  0
   -0.1250   15.7300    0.8790 C   0  0  0  0  0  0  0  0  0  0  0  0
   -0.2850   16.8750   -0.0650 C   0  0  0  0  0  0  0  0  0  0  0  0
    0.5390   17.1670   -1.0880 C   0  0  0  0  0  0  0  0  0  0  0  0
    1.8230   16.3600   -1.3190 C   0  0  1  0  0  0  0  0  0  0  0  0
    3.0050   17.3310   -1.5780 C   0  0  0  0  0  0  0  0  0  0  0  0
    2.7190   18.3110   -2.7120 C   0  0  0  0  0  0  0  0  0  0  0  0
    1.4680   19.1350   -2.4180 C   0  0  2  0  0  0  0  0  0  0  0  0
    1.7290   19.9860   -1.2980 O   0  0  0  0  0  0  0  0  0  0  0  0
    0.2140   18.2640   -2.1320 C   0  0  0  0  0  0  0  0  0  0  0  0
   -0.2480   17.5700   -3.4380 C   0  0  0  0  0  0  0  0  0  0  0  0
   -0.9410   19.2130   -1.7130 C   0  0  0  0  0  0  0  0  0  0  0  0
    2.1620   15.2660   -0.2180 C   0  0  1  0  0  0  0  0  0  0  0  0
    2.9670   15.9160    0.9480 C   0  0  0  0  0  0  0  0  0  0  0  0
    3.1020   14.1730   -0.8510 C   0  0  0  0  0  0  0  0  0  0  0  0
    2.4150   12.9910   -1.5600 C   0  0  0  0  0  0  0  0  0  0  0  0
    1.3220   12.3820   -0.6760 C   0  0  2  0  0  0  0  0  0  0  0  0
    2.0090   11.8150    0.6130 C   0  0  0  0  0  0  0  0  0  0  0  0
    1.0939    9.8311    0.7584 H   0  0  0  0  0  0  0  0  0  0  0  0
   -0.0597    8.6903   -0.0125 H   0  0  0  0  0  0  0  0  0  0  0  0
    1.6992    8.3258   -0.0125 H   0  0  0  0  0  0  0  0  0  0  0  0
    0.5853    9.2790   -2.1746 H   0  0  0  0  0  0  0  0  0  0  0  0
    3.0658   10.7366   -1.1790 H   0  0  0  0  0  0  0  0  0  0  0  0
    3.0264    8.9967   -1.7397 H   0  0  0  0  0  0  0  0  0  0  0  0
    3.7413   10.9294   -3.3884 H   0  0  0  0  0  0  0  0  0  0  0  0
    2.6991    9.5465   -3.9260 H   0  0  0  0  0  0  0  0  0  0  0  0
    1.4534   11.6343   -2.6667 H   0  0  0  0  0  0  0  0  0  0  0  0
    3.9036   12.1723   -5.2337 H   0  0  0  0  0  0  0  0  0  0  0  0
    2.9394   11.3143   -6.4829 H   0  0  0  0  0  0  0  0  0  0  0  0
    3.0156   13.1090   -6.4829 H   0  0  0  0  0  0  0  0  0  0  0  0
    0.7171   13.8485   -4.0187 H   0  0  0  0  0  0  0  0  0  0  0  0
    1.5069   14.2840   -5.5722 H   0  0  0  0  0  0  0  0  0  0  0  0
    0.0193   13.2771   -5.5722 H   0  0  0  0  0  0  0  0  0  0  0  0
    0.3002   11.4556   -2.3719 H   0  0  0  0  0  0  0  0  0  0  0  0
   -1.7060   11.1522   -1.0602 H   0  0  0  0  0  0  0  0  0  0  0  0
   -0.8065   10.4246    0.2886 H   0  0  0  0  0  0  0  0  0  0  0  0
   -1.8355   13.0893    0.2239 H   0  0  0  0  0  0  0  0  0  0  0  0
   -0.6406   12.5199    1.3863 H   0  0  0  0  0  0  0  0  0  0  0  0
   -1.3306   14.6527   -1.4027 H   0  0  0  0  0  0  0  0  0  0  0  0
    0.2311   14.6005   -2.2887 H   0  0  0  0  0  0  0  0  0  0  0  0
   -0.8499   13.1659   -2.2887 H   0  0  0  0  0  0  0  0  0  0  0  0
    1.1753   14.1212    1.3454 H   0  0  0  0  0  0  0  0  0  0  0  0
   -1.1112   15.2624    1.0163 H   0  0  0  0  0  0  0  0  0  0  0  0
    0.2942   16.1541    1.8033 H   0  0  0  0  0  0  0  0  0  0  0  0
   -1.1503   17.5366    0.0886 H   0  0  0  0  0  0  0  0  0  0  0  0
    1.6402   15.7472   -2.2140 H   0  0  0  0  0  0  0  0  0  0  0  0
    3.1998   17.9026   -0.6586 H   0  0  0  0  0  0  0  0  0  0  0  0
    3.8760   16.7263   -1.8708 H   0  0  0  0  0  0  0  0  0  0  0  0
    3.5777   18.9888   -2.8273 H   0  0  0  0  0  0  0  0  0  0  0  0
    2.5536   17.7392   -3.6370 H   0  0  0  0  0  0  0  0  0  0  0  0
    1.2415   19.7235   -3.3193 H   0  0  0  0  0  0  0  0  0  0  0  0
    0.9060   20.4600   -1.0910 H   0  0  0  0  0  0  0  0  0  0  0  0
   -0.8417   16.6781   -3.1890 H   0  0  0  0  0  0  0  0  0  0  0  0
   -0.8628   18.2673   -4.0261 H   0  0  0  0  0  0  0  0  0  0  0  0
    0.6325   17.2719   -4.0261 H   0  0  0  0  0  0  0  0  0  0  0  0
   -0.9975   19.2594   -0.6154 H   0  0  0  0  0  0  0  0  0  0  0  0
   -0.7517   20.2199   -2.1133 H   0  0  0  0  0  0  0  0  0  0  0  0
   -1.8921   18.8320   -2.1133 H   0  0  0  0  0  0  0  0  0  0  0  0
    2.5528   15.5816    1.9106 H   0  0  0  0  0  0  0  0  0  0  0  0
    4.0224   15.6138    0.8781 H   0  0  0  0  0  0  0  0  0  0  0  0
    2.8939   17.0113    0.8781 H   0  0  0  0  0  0  0  0  0  0  0  0
    3.7456   14.6747   -1.5886 H   0  0  0  0  0  0  0  0  0  0  0  0
    3.6368   13.7261    0.0001 H   0  0  0  0  0  0  0  0  0  0  0  0
    1.9629   13.3472   -2.4974 H   0  0  0  0  0  0  0  0  0  0  0  0
    3.1704   12.2185   -1.7662 H   0  0  0  0  0  0  0  0  0  0  0  0
    1.5117   12.2254    1.5042 H   0  0  0  0  0  0  0  0  0  0  0  0
    1.9271   10.7181    0.6199 H   0  0  0  0  0  0  0  0  0  0  0  0
    3.0705   12.1035    0.6199 H   0  0  0  0  0  0  0  0  0  0  0  0
  1  2  1  0
  2  3  1  0
  3  4  1  0
  4  5  1  0
  5  6  1  0
  6  7  1  0
  7  8  1  0
  7  9  1  0
  2 10  1  0
 10 11  1  0
 11 12  1  0
 12 13  1  0
 13 14  1  6
 13 15  1  0
 15 16  1  0
 16 17  1  0
 17 18  2  0
 18 19  1  0
 19 20  1  0
 20 21  1  0
 21 22  1  0
 22 23  1  0
 22 24  1  0
 24 25  1  0
 24 26  1  0
 19 27  1  0
 27 28  1  1
 27 29  1  0
 29 30  1  0
 30 31  1  0
 31 32  1  1
  7  5  1  0
 31 10  1  0
 31 13  1  0
 27 15  1  0
 24 18  1  0
  1 33  1  0
  1 34  1  0
  1 35  1  0
  2 36  1  6
  3 37  1  0
  3 38  1  0
  4 39  1  0
  4 40  1  0
  5 41  1  1
  8 42  1  0
  8 43  1  0
  8 44  1  0
  9 45  1  0
  9 46  1  0
  9 47  1  0
 10 48  1  6
 11 49  1  0
 11 50  1  0
 12 51  1  0
 12 52  1  0
 14 53  1  0
 14 54  1  0
 14 55  1  0
 15 56  1  1
 16 57  1  0
 16 58  1  0
 17 59  1  0
 19 60  1  6
 20 61  1  0
 20 62  1  0
 21 63  1  0
 21 64  1  0
 22 65  1  6
 23 66  1  0
 25 67  1  0
 25 68  1  0
 25 69  1  0
 26 70  1  0
 26 71  1  0
 26 72  1  0
 28 73  1  0
 28 74  1  0
 28 75  1  0
 29 76  1  0
 29 77  1  0
 30 78  1  0
 30 79  1  0
 32 80  1  0
 32 81  1  0
 32 82  1  0
M  END
>  <meeko>  (14) 
{"is_sidechain": [false], "intermolecular_energy": 2.731, "internal_energy": -0.839}

$$$$
EPH_relaxed_0001_pdb2pqr_Repair_207_r2_0001_out
     RDKit          3D

 82 86  0  0  0  0  0  0  0  0999 V2000
   -0.9390   16.3930   -5.9020 C   0  0  0  0  0  0  0  0  0  0  0  0
    0.1720   15.7030   -6.6970 C   0  0  2  0  0  0  0  0  0  0  0  0
   -0.2110   15.5040   -8.1780 C   0  0  0  0  0  0  0  0  0  0  0  0
    0.4400   16.5170   -9.1230 C   0  0  0  0  0  0  0  0  0  0  0  0
    1.8450   16.1260   -9.4710 C   0  0  2  0  0  0  0  0  0  0  0  0
    2.3310   16.6750  -10.7030 O   0  0  0  0  0  0  0  0  0  0  0  0
    2.2000   15.2450  -10.6540 C   0  0  0  0  0  0  0  0  0  0  0  0
    1.1450   14.7000  -11.5650 C   0  0  0  0  0  0  0  0  0  0  0  0
    3.5090   14.5200  -10.6380 C   0  0  0  0  0  0  0  0  0  0  0  0
    0.5080   14.3590   -6.0620 C   0  0  1  0  0  0  0  0  0  0  0  0
    1.7360   13.6760   -6.7210 C   0  0  0  0  0  0  0  0  0  0  0  0
    2.4900   12.9260   -5.5930 C   0  0  0  0  0  0  0  0  0  0  0  0
    1.5050   12.9230   -4.4000 C   0  0  1  0  0  0  0  0  0  0  0  0
    0.5210   11.7480   -4.6960 C   0  0  0  0  0  0  0  0  0  0  0  0
    2.1420   12.7990   -2.9780 C   0  0  2  0  0  0  0  0  0  0  0  0
    2.9110   11.4910   -2.7200 C   0  0  0  0  0  0  0  0  0  0  0  0
    2.1000   10.3770   -2.1470 C   0  0  0  0  0  0  0  0  0  0  0  0
    0.8830   10.5030   -1.5870 C   0  0  0  0  0  0  0  0  0  0  0  0
    0.2410   11.8840   -1.4000 C   0  0  1  0  0  0  0  0  0  0  0  0
   -0.3370   11.9960    0.0350 C   0  0  0  0  0  0  0  0  0  0  0  0
   -1.2960   10.8570    0.3700 C   0  0  0  0  0  0  0  0  0  0  0  0
   -0.6040    9.5040    0.2290 C   0  0  2  0  0  0  0  0  0  0  0  0
    0.4080    9.3960    1.2340 O   0  0  0  0  0  0  0  0  0  0  0  0
    0.0260    9.2810   -1.1740 C   0  0  0  0  0  0  0  0  0  0  0  0
   -1.0960    9.0960   -2.2250 C   0  0  0  0  0  0  0  0  0  0  0  0
    0.8110    7.9420   -1.1370 C   0  0  0  0  0  0  0  0  0  0  0  0
    1.1490   13.1290   -1.7920 C   0  0  1  0  0  0  0  0  0  0  0  0
    2.0310   13.5470   -0.5760 C   0  0  0  0  0  0  0  0  0  0  0  0
    0.2210   14.3600   -2.1130 C   0  0  0  0  0  0  0  0  0  0  0  0
   -0.2790   14.4930   -3.5640 C   0  0  0  0  0  0  0  0  0  0  0  0
    0.8780   14.3560   -4.5570 C   0  0  2  0  0  0  0  0  0  0  0  0
    1.8730   15.5390   -4.2990 C   0  0  0  0  0  0  0  0  0  0  0  0
   -0.7475   16.2741   -4.8253 H   0  0  0  0  0  0  0  0  0  0  0  0
   -0.9601   17.4634   -6.1546 H   0  0  0  0  0  0  0  0  0  0  0  0
   -1.9078   15.9374   -6.1546 H   0  0  0  0  0  0  0  0  0  0  0  0
    1.0546   16.3589   -6.6690 H   0  0  0  0  0  0  0  0  0  0  0  0
    0.0992   14.4941   -8.4843 H   0  0  0  0  0  0  0  0  0  0  0  0
   -1.2990   15.6490   -8.2511 H   0  0  0  0  0  0  0  0  0  0  0  0
   -0.1534   16.5750  -10.0474 H   0  0  0  0  0  0  0  0  0  0  0  0
    0.4710   17.4913   -8.6133 H   0  0  0  0  0  0  0  0  0  0  0  0
    2.1203   16.0784   -8.4071 H   0  0  0  0  0  0  0  0  0  0  0  0
    0.3257   14.2768  -10.9653 H   0  0  0  0  0  0  0  0  0  0  0  0
    0.7547   15.5093  -12.1996 H   0  0  0  0  0  0  0  0  0  0  0  0
    1.5792   13.9134  -12.1996 H   0  0  0  0  0  0  0  0  0  0  0  0
    3.8200   14.3477   -9.5970 H   0  0  0  0  0  0  0  0  0  0  0  0
    3.3994   13.5540  -11.1526 H   0  0  0  0  0  0  0  0  0  0  0  0
    4.2697   15.1254  -11.1526 H   0  0  0  0  0  0  0  0  0  0  0  0
   -0.4491   13.8389   -6.2155 H   0  0  0  0  0  0  0  0  0  0  0  0
    1.4053   12.9655   -7.4928 H   0  0  0  0  0  0  0  0  0  0  0  0
    2.3875   14.4180   -7.2057 H   0  0  0  0  0  0  0  0  0  0  0  0
    2.7283   11.8977   -5.9024 H   0  0  0  0  0  0  0  0  0  0  0  0
    3.4479   13.4048   -5.3418 H   0  0  0  0  0  0  0  0  0  0  0  0
    0.1636   11.3212   -3.7473 H   0  0  0  0  0  0  0  0  0  0  0  0
   -0.3356   12.1240   -5.2747 H   0  0  0  0  0  0  0  0  0  0  0  0
    1.0416   10.9707   -5.2747 H   0  0  0  0  0  0  0  0  0  0  0  0
    2.9010   13.5951   -2.9890 H   0  0  0  0  0  0  0  0  0  0  0  0
    3.3301   11.1486   -3.6777 H   0  0  0  0  0  0  0  0  0  0  0  0
    3.6746   11.7308   -1.9654 H   0  0  0  0  0  0  0  0  0  0  0  0
    2.5340    9.3670   -2.1857 H   0  0  0  0  0  0  0  0  0  0  0  0
   -0.5744   11.9433   -2.1360 H   0  0  0  0  0  0  0  0  0  0  0  0
    0.4961   11.9783    0.7531 H   0  0  0  0  0  0  0  0  0  0  0  0
   -0.9028   12.9374    0.0946 H   0  0  0  0  0  0  0  0  0  0  0  0
   -1.6482   10.9753    1.4053 H   0  0  0  0  0  0  0  0  0  0  0  0
   -2.1435   10.8933   -0.3303 H   0  0  0  0  0  0  0  0  0  0  0  0
   -1.3721    8.7266    0.3545 H   0  0  0  0  0  0  0  0  0  0  0  0
    0.4950    8.4560    1.4660 H   0  0  0  0  0  0  0  0  0  0  0  0
   -2.0562    8.9377   -1.7123 H   0  0  0  0  0  0  0  0  0  0  0  0
   -1.1605    9.9956   -2.8547 H   0  0  0  0  0  0  0  0  0  0  0  0
   -0.8683    8.2233   -2.8547 H   0  0  0  0  0  0  0  0  0  0  0  0
    0.9839    7.6471   -0.0915 H   0  0  0  0  0  0  0  0  0  0  0  0
    0.2278    7.1609   -1.6467 H   0  0  0  0  0  0  0  0  0  0  0  0
    1.7775    8.0694   -1.6467 H   0  0  0  0  0  0  0  0  0  0  0  0
    1.5075   13.2989    0.3591 H   0  0  0  0  0  0  0  0  0  0  0  0
    2.9885   13.0069   -0.6146 H   0  0  0  0  0  0  0  0  0  0  0  0
    2.2192   14.6301   -0.6146 H   0  0  0  0  0  0  0  0  0  0  0  0
   -0.6626   14.2894   -1.4617 H   0  0  0  0  0  0  0  0  0  0  0  0
    0.8495   15.2465   -1.9427 H   0  0  0  0  0  0  0  0  0  0  0  0
   -1.0194   13.7043   -3.7632 H   0  0  0  0  0  0  0  0  0  0  0  0
   -0.7325   15.4873   -3.6889 H   0  0  0  0  0  0  0  0  0  0  0  0
    1.9959   15.6851   -3.2157 H   0  0  0  0  0  0  0  0  0  0  0  0
    2.8481   15.3030   -4.7501 H   0  0  0  0  0  0  0  0  0  0  0  0
    1.4734   16.4592   -4.7501 H   0  0  0  0  0  0  0  0  0  0  0  0
  1  2  1  0
  2  3  1  0
  3  4  1  0
  4  5  1  0
  5  6  1  0
  6  7  1  0
  7  8  1  0
  7  9  1  0
  2 10  1  0
 10 11  1  0
 11 12  1  0
 12 13  1  0
 13 14  1  6
 13 15  1  0
 15 16  1  0
 16 17  1  0
 17 18  2  0
 18 19  1  0
 19 20  1  0
 20 21  1  0
 21 22  1  0
 22 23  1  0
 22 24  1  0
 24 25  1  0
 24 26  1  0
 19 27  1  0
 27 28  1  1
 27 29  1  0
 29 30  1  0
 30 31  1  0
 31 32  1  6
  7  5  1  0
 31 10  1  0
 31 13  1  0
 27 15  1  0
 24 18  1  0
  1 33  1  0
  1 34  1  0
  1 35  1  0
  2 36  1  6
  3 37  1  0
  3 38  1  0
  4 39  1  0
  4 40  1  0
  5 41  1  1
  8 42  1  0
  8 43  1  0
  8 44  1  0
  9 45  1  0
  9 46  1  0
  9 47  1  0
 10 48  1  1
 11 49  1  0
 11 50  1  0
 12 51  1  0
 12 52  1  0
 14 53  1  0
 14 54  1  0
 14 55  1  0
 15 56  1  6
 16 57  1  0
 16 58  1  0
 17 59  1  0
 19 60  1  6
 20 61  1  0
 20 62  1  0
 21 63  1  0
 21 64  1  0
 22 65  1  1
 23 66  1  0
 25 67  1  0
 25 68  1  0
 25 69  1  0
 26 70  1  0
 26 71  1  0
 26 72  1  0
 28 73  1  0
 28 74  1  0
 28 75  1  0
 29 76  1  0
 29 77  1  0
 30 78  1  0
 30 79  1  0
 32 80  1  0
 32 81  1  0
 32 82  1  0
M  END
>  <meeko>  (15) 
{"is_sidechain": [false], "intermolecular_energy": 2.731, "internal_energy": -0.839}

$$$$
EPH_relaxed_0001_pdb2pqr_Repair_207_r2_0001_out
     RDKit          3D

 82 86  0  0  0  0  0  0  0  0999 V2000
    3.8420   17.5160    0.7610 C   0  0  0  0  0  0  0  0  0  0  0  0
    2.8510   17.8310   -0.3630 C   0  0  2  0  0  0  0  0  0  0  0  0
    2.2020   19.2190   -0.1940 C   0  0  0  0  0  0  0  0  0  0  0  0
    1.1400   19.2720    0.9080 C   0  0  0  0  0  0  0  0  0  0  0  0
   -0.0820   20.0180    0.4650 C   0  0  2  0  0  0  0  0  0  0  0  0
   -1.0770   20.1950    1.4820 O   0  0  0  0  0  0  0  0  0  0  0  0
   -1.4560   19.3840    0.3580 C   0  0  0  0  0  0  0  0  0  0  0  0
   -1.6790   17.9430    0.6940 C   0  0  0  0  0  0  0  0  0  0  0  0
   -2.4730   20.0270   -0.5330 C   0  0  0  0  0  0  0  0  0  0  0  0
    1.7720   16.7550   -0.4210 C   0  0  1  0  0  0  0  0  0  0  0  0
    0.4270   17.2880   -0.9840 C   0  0  0  0  0  0  0  0  0  0  0  0
   -0.2080   16.1290   -1.7960 C   0  0  0  0  0  0  0  0  0  0  0  0
    0.6160   14.8810   -1.4030 C   0  0  1  0  0  0  0  0  0  0  0  0
    0.0180   14.4200   -0.0360 C   0  0  0  0  0  0  0  0  0  0  0  0
    0.6420   13.7150   -2.4440 C   0  0  2  0  0  0  0  0  0  0  0  0
   -0.7250   13.0760   -2.7430 C   0  0  0  0  0  0  0  0  0  0  0  0
   -1.0910   11.9170   -1.8750 C   0  0  0  0  0  0  0  0  0  0  0  0
   -0.2420   11.2300   -1.0890 C   0  0  0  0  0  0  0  0  0  0  0  0
    1.2600   11.5390   -1.0930 C   0  0  1  0  0  0  0  0  0  0  0  0
    2.0610   10.2130   -1.1810 C   0  0  0  0  0  0  0  0  0  0  0  0
    1.6720    9.2210   -0.0880 C   0  0  0  0  0  0  0  0  0  0  0  0
    0.1830    8.8950   -0.1530 C   0  0  2  0  0  0  0  0  0  0  0  0
   -0.0800    8.1790   -1.3640 O   0  0  0  0  0  0  0  0  0  0  0  0
   -0.7240   10.1550   -0.0830 C   0  0  0  0  0  0  0  0  0  0  0  0
   -0.6660   10.7610    1.3410 C   0  0  0  0  0  0  0  0  0  0  0  0
   -2.1920    9.6990   -0.3010 C   0  0  0  0  0  0  0  0  0  0  0  0
    1.7440   12.6150   -2.1580 C   0  0  1  0  0  0  0  0  0  0  0  0
    2.0420   11.9190   -3.5210 C   0  0  0  0  0  0  0  0  0  0  0  0
    3.1040   13.2430   -1.6730 C   0  0  0  0  0  0  0  0  0  0  0  0
    3.0110   14.4660   -0.7410 C   0  0  0  0  0  0  0  0  0  0  0  0
    2.0500   15.5160   -1.3080 C   0  0  2  0  0  0  0  0  0  0  0  0
    2.6380   16.0150   -2.6730 C   0  0  0  0  0  0  0  0  0  0  0  0
    3.3538   17.6712    1.7344 H   0  0  0  0  0  0  0  0  0  0  0  0
    4.1700   16.4693    0.6780 H   0  0  0  0  0  0  0  0  0  0  0  0
    4.7141   18.1812    0.6780 H   0  0  0  0  0  0  0  0  0  0  0  0
    3.4152   17.8438   -1.3072 H   0  0  0  0  0  0  0  0  0  0  0  0
    2.9921   19.9444    0.0500 H   0  0  0  0  0  0  0  0  0  0  0  0
    1.6944   19.4540   -1.1412 H   0  0  0  0  0  0  0  0  0  0  0  0
    0.8528   18.2445    1.1759 H   0  0  0  0  0  0  0  0  0  0  0  0
    1.5691   19.7996    1.7726 H   0  0  0  0  0  0  0  0  0  0  0  0
    0.5111   20.6171   -0.2416 H   0  0  0  0  0  0  0  0  0  0  0  0
   -1.6980   17.8200    1.7869 H   0  0  0  0  0  0  0  0  0  0  0  0
   -2.6390   17.6122    0.2710 H   0  0  0  0  0  0  0  0  0  0  0  0
   -0.8639   17.3375    0.2710 H   0  0  0  0  0  0  0  0  0  0  0  0
   -3.2437   20.5143    0.0822 H   0  0  0  0  0  0  0  0  0  0  0  0
   -1.9813   20.7787   -1.1679 H   0  0  0  0  0  0  0  0  0  0  0  0
   -2.9412   19.2604   -1.1679 H   0  0  0  0  0  0  0  0  0  0  0  0
    1.7476   16.4609    0.6387 H   0  0  0  0  0  0  0  0  0  0  0  0
   -0.2389   17.5823   -0.1594 H   0  0  0  0  0  0  0  0  0  0  0  0
    0.5866   18.1732   -1.6172 H   0  0  0  0  0  0  0  0  0  0  0  0
   -1.2656   15.9978   -1.5236 H   0  0  0  0  0  0  0  0  0  0  0  0
   -0.1877   16.3183   -2.8794 H   0  0  0  0  0  0  0  0  0  0  0  0
    0.5966   14.8660    0.7864 H   0  0  0  0  0  0  0  0  0  0  0  0
   -1.0302   14.7459    0.0342 H   0  0  0  0  0  0  0  0  0  0  0  0
    0.0665   13.3233    0.0342 H   0  0  0  0  0  0  0  0  0  0  0  0
    0.9386   14.2316   -3.3687 H   0  0  0  0  0  0  0  0  0  0  0  0
   -1.4965   13.8503   -2.6193 H   0  0  0  0  0  0  0  0  0  0  0  0
   -0.6584   12.6801   -3.7671 H   0  0  0  0  0  0  0  0  0  0  0  0
   -2.1437   11.5980   -1.8786 H   0  0  0  0  0  0  0  0  0  0  0  0
    1.4697   12.0398   -0.1363 H   0  0  0  0  0  0  0  0  0  0  0  0
    1.8711    9.7506   -2.1608 H   0  0  0  0  0  0  0  0  0  0  0  0
    3.1255   10.4563   -1.0479 H   0  0  0  0  0  0  0  0  0  0  0  0
    2.2496    8.2943   -0.2206 H   0  0  0  0  0  0  0  0  0  0  0  0
    1.8902    9.6732    0.8907 H   0  0  0  0  0  0  0  0  0  0  0  0
   -0.0597    8.2850    0.7296 H   0  0  0  0  0  0  0  0  0  0  0  0
   -0.8160    8.6260   -1.8160 H   0  0  0  0  0  0  0  0  0  0  0  0
   -0.7431    9.9552    2.0858 H   0  0  0  0  0  0  0  0  0  0  0  0
    0.2872   11.2935    1.4743 H   0  0  0  0  0  0  0  0  0  0  0  0
   -1.5009   11.4647    1.4743 H   0  0  0  0  0  0  0  0  0  0  0  0
   -2.6778    9.5481    0.6743 H   0  0  0  0  0  0  0  0  0  0  0  0
   -2.7356   10.4706   -0.8659 H   0  0  0  0  0  0  0  0  0  0  0  0
   -2.2027    8.7552   -0.8659 H   0  0  0  0  0  0  0  0  0  0  0  0
    2.4689   10.9219   -3.3379 H   0  0  0  0  0  0  0  0  0  0  0  0
    1.1080   11.8185   -4.0933 H   0  0  0  0  0  0  0  0  0  0  0  0
    2.7593   12.5255   -4.0933 H   0  0  0  0  0  0  0  0  0  0  0  0
    3.6608   12.4590   -1.1387 H   0  0  0  0  0  0  0  0  0  0  0  0
    3.5919   13.6137   -2.5865 H   0  0  0  0  0  0  0  0  0  0  0  0
    2.6473   14.1404    0.2447 H   0  0  0  0  0  0  0  0  0  0  0  0
    4.0106   14.9167   -0.6531 H   0  0  0  0  0  0  0  0  0  0  0  0
    3.4640   16.7159   -2.4821 H   0  0  0  0  0  0  0  0  0  0  0  0
    3.0124   15.1548   -3.2473 H   0  0  0  0  0  0  0  0  0  0  0  0
    1.8502   16.5244   -3.2473 H   0  0  0  0  0  0  0  0  0  0  0  0
  1  2  1  0
  2  3  1  0
  3  4  1  0
  4  5  1  0
  5  6  1  0
  6  7  1  0
  7  8  1  0
  7  9  1  0
  2 10  1  0
 10 11  1  0
 11 12  1  0
 12 13  1  0
 13 14  1  1
 13 15  1  0
 15 16  1  0
 16 17  1  0
 17 18  2  0
 18 19  1  0
 19 20  1  0
 20 21  1  0
 21 22  1  0
 22 23  1  0
 22 24  1  0
 24 25  1  0
 24 26  1  0
 19 27  1  0
 27 28  1  6
 27 29  1  0
 29 30  1  0
 30 31  1  0
 31 32  1  6
  7  5  1  0
 31 10  1  0
 31 13  1  0
 27 15  1  0
 24 18  1  0
  1 33  1  0
  1 34  1  0
  1 35  1  0
  2 36  1  6
  3 37  1  0
  3 38  1  0
  4 39  1  0
  4 40  1  0
  5 41  1  6
  8 42  1  0
  8 43  1  0
  8 44  1  0
  9 45  1  0
  9 46  1  0
  9 47  1  0
 10 48  1  1
 11 49  1  0
 11 50  1  0
 12 51  1  0
 12 52  1  0
 14 53  1  0
 14 54  1  0
 14 55  1  0
 15 56  1  6
 16 57  1  0
 16 58  1  0
 17 59  1  0
 19 60  1  1
 20 61  1  0
 20 62  1  0
 21 63  1  0
 21 64  1  0
 22 65  1  1
 23 66  1  0
 25 67  1  0
 25 68  1  0
 25 69  1  0
 26 70  1  0
 26 71  1  0
 26 72  1  0
 28 73  1  0
 28 74  1  0
 28 75  1  0
 29 76  1  0
 29 77  1  0
 30 78  1  0
 30 79  1  0
 32 80  1  0
 32 81  1  0
 32 82  1  0
M  END
>  <meeko>  (16) 
{"is_sidechain": [false], "intermolecular_energy": 2.731, "internal_energy": -0.839}

$$$$
