EPH_relaxed_0001_pdb2pqr_Repair_212_r2_0001_out
     RDKit          3D

 82 86  0  0  0  0  0  0  0  0999 V2000
   -1.5960    8.5760   -1.8150 C   0  0  0  0  0  0  0  0  0  0  0  0
   -1.9990    9.1530   -0.4550 C   0  0  2  0  0  0  0  0  0  0  0  0
   -3.4880    9.5540   -0.4130 C   0  0  0  0  0  0  0  0  0  0  0  0
   -4.4430    8.3640   -0.2910 C   0  0  0  0  0  0  0  0  0  0  0  0
   -5.0740    8.0230   -1.6060 C   0  0  2  0  0  0  0  0  0  0  0  0
   -6.3390    8.6530   -1.8440 O   0  0  0  0  0  0  0  0  0  0  0  0
   -6.3560    7.2210   -1.7360 C   0  0  0  0  0  0  0  0  0  0  0  0
   -7.0820    6.7100   -0.5320 C   0  0  0  0  0  0  0  0  0  0  0  0
   -6.6340    6.5220   -3.0300 C   0  0  0  0  0  0  0  0  0  0  0  0
   -1.1260   10.3570   -0.1220 C   0  0  1  0  0  0  0  0  0  0  0  0
   -0.0460   10.0350    0.9450 C   0  0  0  0  0  0  0  0  0  0  0  0
    1.2080   10.8690    0.5790 C   0  0  0  0  0  0  0  0  0  0  0  0
    0.7070   11.8830   -0.4760 C   0  0  1  0  0  0  0  0  0  0  0  0
    0.0350   13.0240    0.3510 C   0  0  0  0  0  0  0  0  0  0  0  0
    1.7840   12.4430   -1.4620 C   0  0  2  0  0  0  0  0  0  0  0  0
    2.9160   13.2490   -0.8030 C   0  0  0  0  0  0  0  0  0  0  0  0
    2.6690   14.7160   -0.6840 C   0  0  0  0  0  0  0  0  0  0  0  0
    1.7150   15.4040   -1.3390 C   0  0  0  0  0  0  0  0  0  0  0  0
    0.8240   14.7170   -2.3820 C   0  0  1  0  0  0  0  0  0  0  0  0
    0.7400   15.6010   -3.6540 C   0  0  0  0  0  0  0  0  0  0  0  0
    0.2880   17.0260   -3.3480 C   0  0  0  0  0  0  0  0  0  0  0  0
    1.2310   17.6950   -2.3520 C   0  0  2  0  0  0  0  0  0  0  0  0
    2.5070   17.8760   -2.9750 O   0  0  0  0  0  0  0  0  0  0  0  0
    1.4030   16.8900   -1.0340 C   0  0  0  0  0  0  0  0  0  0  0  0
    0.0920   16.9520   -0.2120 C   0  0  0  0  0  0  0  0  0  0  0  0
    2.4860   17.6010   -0.1780 C   0  0  0  0  0  0  0  0  0  0  0  0
    1.1840   13.2050   -2.7130 C   0  0  1  0  0  0  0  0  0  0  0  0
    2.2680   13.1480   -3.8320 C   0  0  0  0  0  0  0  0  0  0  0  0
   -0.0920   12.4890   -3.2940 C   0  0  0  0  0  0  0  0  0  0  0  0
   -1.0560   11.8520   -2.2760 C   0  0  0  0  0  0  0  0  0  0  0  0
   -0.2970   10.9750   -1.2760 C   0  0  2  0  0  0  0  0  0  0  0  0
    0.3720    9.8060   -2.0760 C   0  0  0  0  0  0  0  0  0  0  0  0
   -0.9721    7.6827   -1.6640 H   0  0  0  0  0  0  0  0  0  0  0  0
   -2.4995    8.3011   -2.3790 H   0  0  0  0  0  0  0  0  0  0  0  0
   -1.0269    9.3297   -2.3790 H   0  0  0  0  0  0  0  0  0  0  0  0
   -1.8477    8.3648    0.2972 H   0  0  0  0  0  0  0  0  0  0  0  0
   -3.6452   10.2154    0.4518 H   0  0  0  0  0  0  0  0  0  0  0  0
   -3.7140   10.0507   -1.3681 H   0  0  0  0  0  0  0  0  0  0  0  0
   -3.8803    7.4911    0.0714 H   0  0  0  0  0  0  0  0  0  0  0  0
   -5.2431    8.6372    0.4127 H   0  0  0  0  0  0  0  0  0  0  0  0
   -4.0866    7.9180   -2.0794 H   0  0  0  0  0  0  0  0  0  0  0  0
   -6.5774    7.0652    0.3786 H   0  0  0  0  0  0  0  0  0  0  0  0
   -8.1182    7.0790   -0.5446 H   0  0  0  0  0  0  0  0  0  0  0  0
   -7.0843    5.6101   -0.5446 H   0  0  0  0  0  0  0  0  0  0  0  0
   -7.0334    5.5176   -2.8258 H   0  0  0  0  0  0  0  0  0  0  0  0
   -7.3710    7.0992   -3.6076 H   0  0  0  0  0  0  0  0  0  0  0  0
   -5.7019    6.4354   -3.6076 H   0  0  0  0  0  0  0  0  0  0  0  0
   -1.9032   11.0640    0.2037 H   0  0  0  0  0  0  0  0  0  0  0  0
   -0.4074   10.3140    1.9458 H   0  0  0  0  0  0  0  0  0  0  0  0
    0.1857    8.9598    0.9599 H   0  0  0  0  0  0  0  0  0  0  0  0
    1.5993   11.3912    1.4646 H   0  0  0  0  0  0  0  0  0  0  0  0
    2.0293   10.2433    0.1996 H   0  0  0  0  0  0  0  0  0  0  0  0
    0.1560   12.8186    1.4249 H   0  0  0  0  0  0  0  0  0  0  0  0
    0.5117   13.9845    0.1054 H   0  0  0  0  0  0  0  0  0  0  0  0
   -1.0361   13.0729    0.1054 H   0  0  0  0  0  0  0  0  0  0  0  0
    2.2545   11.5246   -1.8431 H   0  0  0  0  0  0  0  0  0  0  0  0
    3.0741   12.8479    0.2090 H   0  0  0  0  0  0  0  0  0  0  0  0
    3.7901   13.1403   -1.4619 H   0  0  0  0  0  0  0  0  0  0  0  0
    3.3215   15.2830   -0.0037 H   0  0  0  0  0  0  0  0  0  0  0  0
   -0.1712   14.6296   -1.9216 H   0  0  0  0  0  0  0  0  0  0  0  0
    1.7344   15.6396   -4.1228 H   0  0  0  0  0  0  0  0  0  0  0  0
   -0.0068   15.1508   -4.3245 H   0  0  0  0  0  0  0  0  0  0  0  0
    0.2775   17.6086   -4.2810 H   0  0  0  0  0  0  0  0  0  0  0  0
   -0.7191   16.9880   -2.9071 H   0  0  0  0  0  0  0  0  0  0  0  0
    0.7841   18.6606   -2.0731 H   0  0  0  0  0  0  0  0  0  0  0  0
    2.7670   17.0230   -3.3640 H   0  0  0  0  0  0  0  0  0  0  0  0
    0.3315   16.9407    0.8616 H   0  0  0  0  0  0  0  0  0  0  0  0
   -0.4509   17.8768   -0.4568 H   0  0  0  0  0  0  0  0  0  0  0  0
   -0.5358   16.0825   -0.4568 H   0  0  0  0  0  0  0  0  0  0  0  0
    2.2638   17.4551    0.8894 H   0  0  0  0  0  0  0  0  0  0  0  0
    3.4736   17.1750   -0.4085 H   0  0  0  0  0  0  0  0  0  0  0  0
    2.4878   18.6766   -0.4085 H   0  0  0  0  0  0  0  0  0  0  0  0
    3.2663   13.0955   -3.3731 H   0  0  0  0  0  0  0  0  0  0  0  0
    2.1041   12.2572   -4.4562 H   0  0  0  0  0  0  0  0  0  0  0  0
    2.1984   14.0510   -4.4562 H   0  0  0  0  0  0  0  0  0  0  0  0
   -0.6602   13.2360   -3.8678 H   0  0  0  0  0  0  0  0  0  0  0  0
    0.2957   11.6481   -3.8878 H   0  0  0  0  0  0  0  0  0  0  0  0
   -1.5804   12.6496   -1.7294 H   0  0  0  0  0  0  0  0  0  0  0  0
   -1.7743   11.2215   -2.8205 H   0  0  0  0  0  0  0  0  0  0  0  0
    0.7916    9.0727   -1.3716 H   0  0  0  0  0  0  0  0  0  0  0  0
   -0.3825    9.3161   -2.7091 H   0  0  0  0  0  0  0  0  0  0  0  0
    1.1766   10.2083   -2.7091 H   0  0  0  0  0  0  0  0  0  0  0  0
  1  2  1  0
  2  3  1  0
  3  4  1  0
  4  5  1  0
  5  6  1  0
  6  7  1  0
  7  8  1  0
  7  9  1  0
  2 10  1  0
 10 11  1  0
 11 12  1  0
 12 13  1  0
 13 14  1  1
 13 15  1  0
 15 16  1  0
 16 17  1  0
 17 18  2  0
 18 19  1  0
 19 20  1  0
 20 21  1  0
 21 22  1  0
 22 23  1  0
 22 24  1  0
 24 25  1  0
 24 26  1  0
 19 27  1  0
 27 28  1  6
 27 29  1  0
 29 30  1  0
 30 31  1  0
 31 32  1  6
  7  5  1  0
 31 10  1  0
 31 13  1  0
 27 15  1  0
 24 18  1  0
  1 33  1  0
  1 34  1  0
  1 35  1  0
  2 36  1  1
  3 37  1  0
  3 38  1  0
  4 39  1  0
  4 40  1  0
  5 41  1  6
  8 42  1  0
  8 43  1  0
  8 44  1  0
  9 45  1  0
  9 46  1  0
  9 47  1  0
 10 48  1  1
 11 49  1  0
 11 50  1  0
 12 51  1  0
 12 52  1  0
 14 53  1  0
 14 54  1  0
 14 55  1  0
 15 56  1  6
 16 57  1  0
 16 58  1  0
 17 59  1  0
 19 60  1  1
 20 61  1  0
 20 62  1  0
 21 63  1  0
 21 64  1  0
 22 65  1  1
 23 66  1  0
 25 67  1  0
 25 68  1  0
 25 69  1  0
 26 70  1  0
 26 71  1  0
 26 72  1  0
 28 73  1  0
 28 74  1  0
 28 75  1  0
 29 76  1  0
 29 77  1  0
 30 78  1  0
 30 79  1  0
 32 80  1  0
 32 81  1  0
 32 82  1  0
M  END
>  <meeko>  (1) 
{"is_sidechain": [false], "intermolecular_energy": 2.731, "internal_energy": -0.839}

$$$$
EPH_relaxed_0001_pdb2pqr_Repair_212_r2_0001_out
     RDKit          3D

 82 86  0  0  0  0  0  0  0  0999 V2000
    2.0190   19.6250   -0.6450 C   0  0  0  0  0  0  0  0  0  0  0  0
    2.4130   18.4110    0.2020 C   0  0  2  0  0  0  0  0  0  0  0  0
    3.8590   17.9550   -0.0760 C   0  0  0  0  0  0  0  0  0  0  0  0
    4.8450   18.3180    1.0380 C   0  0  0  0  0  0  0  0  0  0  0  0
    4.1730   19.0670    2.1500 C   0  0  2  0  0  0  0  0  0  0  0  0
    4.9090   20.1940    2.6420 O   0  0  0  0  0  0  0  0  0  0  0  0
    4.7090   19.1150    3.5690 C   0  0  0  0  0  0  0  0  0  0  0  0
    5.9670   18.4010    3.9530 C   0  0  0  0  0  0  0  0  0  0  0  0
    3.7610   19.4430    4.6800 C   0  0  0  0  0  0  0  0  0  0  0  0
    1.4460   17.2620   -0.0540 C   0  0  1  0  0  0  0  0  0  0  0  0
    0.1500   17.7210   -0.7740 C   0  0  0  0  0  0  0  0  0  0  0  0
   -0.2720   16.5650   -1.7170 C   0  0  0  0  0  0  0  0  0  0  0  0
    0.5920   15.3620   -1.2700 C   0  0  1  0  0  0  0  0  0  0  0  0
   -0.1440   14.7810   -0.0220 C   0  0  0  0  0  0  0  0  0  0  0  0
    0.8560   14.2620   -2.3490 C   0  0  2  0  0  0  0  0  0  0  0  0
   -0.4000   13.5380   -2.8640 C   0  0  0  0  0  0  0  0  0  0  0  0
   -0.7830   12.3090   -2.1080 C   0  0  0  0  0  0  0  0  0  0  0  0
    0.0070   11.6450   -1.2430 C   0  0  0  0  0  0  0  0  0  0  0  0
    1.4650   12.0670   -1.0250 C   0  0  1  0  0  0  0  0  0  0  0  0
    2.3780   10.8140   -1.0590 C   0  0  0  0  0  0  0  0  0  0  0  0
    1.9290    9.7360   -0.0770 C   0  0  0  0  0  0  0  0  0  0  0  0
    0.4940    9.3010   -0.3630 C   0  0  2  0  0  0  0  0  0  0  0  0
    0.4580    8.6360   -1.6300 O   0  0  0  0  0  0  0  0  0  0  0  0
   -0.5160   10.4820   -0.3640 C   0  0  0  0  0  0  0  0  0  0  0  0
   -0.7000   11.0100    1.0800 C   0  0  0  0  0  0  0  0  0  0  0  0
   -1.8980    9.9290   -0.8040 C   0  0  0  0  0  0  0  0  0  0  0  0
    1.9970   13.2360   -1.9620 C   0  0  1  0  0  0  0  0  0  0  0  0
    2.5330   12.6410   -3.3000 C   0  0  0  0  0  0  0  0  0  0  0  0
    3.2220   13.9370   -1.2650 C   0  0  0  0  0  0  0  0  0  0  0  0
    2.9030   15.0960   -0.3010 C   0  0  0  0  0  0  0  0  0  0  0  0
    1.9430   16.0990   -0.9480 C   0  0  2  0  0  0  0  0  0  0  0  0
    2.6660   16.7170   -2.1940 C   0  0  0  0  0  0  0  0  0  0  0  0
    1.7477   20.4610    0.0164 H   0  0  0  0  0  0  0  0  0  0  0  0
    2.8675   19.9201   -1.2798 H   0  0  0  0  0  0  0  0  0  0  0  0
    1.1589   19.3656   -1.2798 H   0  0  0  0  0  0  0  0  0  0  0  0
    2.3590   18.7128    1.2584 H   0  0  0  0  0  0  0  0  0  0  0  0
    3.8607   16.8618   -0.1984 H   0  0  0  0  0  0  0  0  0  0  0  0
    4.1923   18.4800   -0.9833 H   0  0  0  0  0  0  0  0  0  0  0  0
    5.2812   17.3932    1.4435 H   0  0  0  0  0  0  0  0  0  0  0  0
    5.6239   18.9658    0.6094 H   0  0  0  0  0  0  0  0  0  0  0  0
    3.1793   18.8262    1.7443 H   0  0  0  0  0  0  0  0  0  0  0  0
    6.0438   18.3574    5.0495 H   0  0  0  0  0  0  0  0  0  0  0  0
    5.9476   17.3793    3.5459 H   0  0  0  0  0  0  0  0  0  0  0  0
    6.8343   18.9415    3.5459 H   0  0  0  0  0  0  0  0  0  0  0  0
    4.2562   19.2717    5.6472 H   0  0  0  0  0  0  0  0  0  0  0  0
    3.4587   20.4980    4.6046 H   0  0  0  0  0  0  0  0  0  0  0  0
    2.8714   18.8004    4.6046 H   0  0  0  0  0  0  0  0  0  0  0  0
    1.3035   16.9085    0.9779 H   0  0  0  0  0  0  0  0  0  0  0  0
   -0.6430   17.9176   -0.0375 H   0  0  0  0  0  0  0  0  0  0  0  0
    0.3201   18.6493   -1.3392 H   0  0  0  0  0  0  0  0  0  0  0  0
   -1.3422   16.3393   -1.6000 H   0  0  0  0  0  0  0  0  0  0  0  0
   -0.1217   16.8156   -2.7775 H   0  0  0  0  0  0  0  0  0  0  0  0
    0.3339   15.1583    0.8941 H   0  0  0  0  0  0  0  0  0  0  0  0
   -1.1988   15.0926   -0.0403 H   0  0  0  0  0  0  0  0  0  0  0  0
   -0.0858   13.6827   -0.0403 H   0  0  0  0  0  0  0  0  0  0  0  0
    1.2305   14.8506   -3.1994 H   0  0  0  0  0  0  0  0  0  0  0  0
   -1.2427   14.2433   -2.8154 H   0  0  0  0  0  0  0  0  0  0  0  0
   -0.1621   13.2052   -3.8851 H   0  0  0  0  0  0  0  0  0  0  0  0
   -1.7959   11.9124   -2.2713 H   0  0  0  0  0  0  0  0  0  0  0  0
    1.5013   12.5279   -0.0269 H   0  0  0  0  0  0  0  0  0  0  0  0
    2.3622   10.3937   -2.0754 H   0  0  0  0  0  0  0  0  0  0  0  0
    3.3903   11.1305   -0.7674 H   0  0  0  0  0  0  0  0  0  0  0  0
    2.5944    8.8650   -0.1696 H   0  0  0  0  0  0  0  0  0  0  0  0
    1.9745   10.1482    0.9418 H   0  0  0  0  0  0  0  0  0  0  0  0
    0.1859    8.6261    0.4492 H   0  0  0  0  0  0  0  0  0  0  0  0
   -0.3760    8.8800   -2.0670 H   0  0  0  0  0  0  0  0  0  0  0  0
   -0.4253   10.2218    1.7964 H   0  0  0  0  0  0  0  0  0  0  0  0
   -0.0546   11.8872    1.2347 H   0  0  0  0  0  0  0  0  0  0  0  0
   -1.7508   11.2961    1.2347 H   0  0  0  0  0  0  0  0  0  0  0  0
   -2.4974    9.6892    0.0866 H   0  0  0  0  0  0  0  0  0  0  0  0
   -2.4217   10.6868   -1.4052 H   0  0  0  0  0  0  0  0  0  0  0  0
   -1.7543    9.0191   -1.4052 H   0  0  0  0  0  0  0  0  0  0  0  0
    3.2546   11.8399   -3.0820 H   0  0  0  0  0  0  0  0  0  0  0  0
    1.6939   12.2305   -3.8809 H   0  0  0  0  0  0  0  0  0  0  0  0
    3.0285   13.4328   -3.8809 H   0  0  0  0  0  0  0  0  0  0  0  0
    3.7643   13.1689   -0.6940 H   0  0  0  0  0  0  0  0  0  0  0  0
    3.7966   14.3939   -2.0842 H   0  0  0  0  0  0  0  0  0  0  0  0
    2.4386   14.6893    0.6094 H   0  0  0  0  0  0  0  0  0  0  0  0
    3.8406   15.6162   -0.0556 H   0  0  0  0  0  0  0  0  0  0  0  0
    3.4618   17.3972   -1.8562 H   0  0  0  0  0  0  0  0  0  0  0  0
    3.1054   15.9110   -2.8001 H   0  0  0  0  0  0  0  0  0  0  0  0
    1.9382   17.2765   -2.8001 H   0  0  0  0  0  0  0  0  0  0  0  0
  1  2  1  0
  2  3  1  0
  3  4  1  0
  4  5  1  0
  5  6  1  0
  6  7  1  0
  7  8  1  0
  7  9  1  0
  2 10  1  0
 10 11  1  0
 11 12  1  0
 12 13  1  0
 13 14  1  1
 13 15  1  0
 15 16  1  0
 16 17  1  0
 17 18  2  0
 18 19  1  0
 19 20  1  0
 20 21  1  0
 21 22  1  0
 22 23  1  0
 22 24  1  0
 24 25  1  0
 24 26  1  0
 19 27  1  0
 27 28  1  6
 27 29  1  0
 29 30  1  0
 30 31  1  0
 31 32  1  6
  7  5  1  0
 31 10  1  0
 31 13  1  0
 27 15  1  0
 24 18  1  0
  1 33  1  0
  1 34  1  0
  1 35  1  0
  2 36  1  1
  3 37  1  0
  3 38  1  0
  4 39  1  0
  4 40  1  0
  5 41  1  1
  8 42  1  0
  8 43  1  0
  8 44  1  0
  9 45  1  0
  9 46  1  0
  9 47  1  0
 10 48  1  1
 11 49  1  0
 11 50  1  0
 12 51  1  0
 12 52  1  0
 14 53  1  0
 14 54  1  0
 14 55  1  0
 15 56  1  6
 16 57  1  0
 16 58  1  0
 17 59  1  0
 19 60  1  1
 20 61  1  0
 20 62  1  0
 21 63  1  0
 21 64  1  0
 22 65  1  1
 23 66  1  0
 25 67  1  0
 25 68  1  0
 25 69  1  0
 26 70  1  0
 26 71  1  0
 26 72  1  0
 28 73  1  0
 28 74  1  0
 28 75  1  0
 29 76  1  0
 29 77  1  0
 30 78  1  0
 30 79  1  0
 32 80  1  0
 32 81  1  0
 32 82  1  0
M  END
>  <meeko>  (2) 
{"is_sidechain": [false], "intermolecular_energy": 2.731, "internal_energy": -0.839}

$$$$
EPH_relaxed_0001_pdb2pqr_Repair_212_r2_0001_out
     RDKit          3D

 82 86  0  0  0  0  0  0  0  0999 V2000
    0.4020   18.4030    0.0220 C   0  0  0  0  0  0  0  0  0  0  0  0
    1.4940   17.3580   -0.2250 C   0  0  2  0  0  0  0  0  0  0  0  0
    2.6900   17.9420   -1.0040 C   0  0  0  0  0  0  0  0  0  0  0  0
    3.9210   18.2080   -0.1330 C   0  0  0  0  0  0  0  0  0  0  0  0
    3.5380   18.6600    1.2440 C   0  0  2  0  0  0  0  0  0  0  0  0
    3.7950   20.0450    1.5130 O   0  0  0  0  0  0  0  0  0  0  0  0
    4.5450   19.0980    2.2910 C   0  0  0  0  0  0  0  0  0  0  0  0
    6.0140   19.1050    2.0060 C   0  0  0  0  0  0  0  0  0  0  0  0
    4.1450   19.0510    3.7330 C   0  0  0  0  0  0  0  0  0  0  0  0
    0.9140   16.1670   -0.9770 C   0  0  1  0  0  0  0  0  0  0  0  0
    0.7650   16.4360   -2.4980 C   0  0  0  0  0  0  0  0  0  0  0  0
    1.0480   15.0940   -3.2200 C   0  0  0  0  0  0  0  0  0  0  0  0
    1.0220   14.0330   -2.0950 C   0  0  1  0  0  0  0  0  0  0  0  0
   -0.4920   13.7330   -1.8620 C   0  0  0  0  0  0  0  0  0  0  0  0
    1.8360   12.7250   -2.3600 C   0  0  2  0  0  0  0  0  0  0  0  0
    1.3530   11.8870   -3.5570 C   0  0  0  0  0  0  0  0  0  0  0  0
    0.3270   10.8500   -3.2370 C   0  0  0  0  0  0  0  0  0  0  0  0
    0.0220   10.4060   -2.0040 C   0  0  0  0  0  0  0  0  0  0  0  0
    0.8070   10.8870   -0.7770 C   0  0  1  0  0  0  0  0  0  0  0  0
    1.1770    9.6700    0.1110 C   0  0  0  0  0  0  0  0  0  0  0  0
   -0.0390    8.8310    0.4890 C   0  0  0  0  0  0  0  0  0  0  0  0
   -0.7600    8.3230   -0.7570 C   0  0  2  0  0  0  0  0  0  0  0  0
    0.0910    7.3930   -1.4340 O   0  0  0  0  0  0  0  0  0  0  0  0
   -1.1730    9.4600   -1.7320 C   0  0  0  0  0  0  0  0  0  0  0  0
   -2.3190   10.2920   -1.1050 C   0  0  0  0  0  0  0  0  0  0  0  0
   -1.7620    8.8030   -3.0090 C   0  0  0  0  0  0  0  0  0  0  0  0
    2.0550   11.8260   -1.0760 C   0  0  1  0  0  0  0  0  0  0  0  0
    3.3200   10.9570   -1.3510 C   0  0  0  0  0  0  0  0  0  0  0  0
    2.3730   12.6820    0.2060 C   0  0  0  0  0  0  0  0  0  0  0  0
    1.6250   14.0210    0.3510 C   0  0  0  0  0  0  0  0  0  0  0  0
    1.7150   14.8420   -0.9390 C   0  0  2  0  0  0  0  0  0  0  0  0
    3.2250   15.1780   -1.1880 C   0  0  0  0  0  0  0  0  0  0  0  0
    0.2614   18.5375    1.1046 H   0  0  0  0  0  0  0  0  0  0  0  0
    0.7011   19.3599   -0.4306 H   0  0  0  0  0  0  0  0  0  0  0  0
   -0.5408   18.0621   -0.4306 H   0  0  0  0  0  0  0  0  0  0  0  0
    1.8670   17.0308    0.7567 H   0  0  0  0  0  0  0  0  0  0  0  0
    2.9709   17.2300   -1.7941 H   0  0  0  0  0  0  0  0  0  0  0  0
    2.3670   18.9124   -1.4090 H   0  0  0  0  0  0  0  0  0  0  0  0
    4.5086   17.2815   -0.0536 H   0  0  0  0  0  0  0  0  0  0  0  0
    4.5093   19.0083   -0.6056 H   0  0  0  0  0  0  0  0  0  0  0  0
    2.7074   17.9394    1.2750 H   0  0  0  0  0  0  0  0  0  0  0  0
    6.5715   19.1077    2.9543 H   0  0  0  0  0  0  0  0  0  0  0  0
    6.2795   18.2081    1.4271 H   0  0  0  0  0  0  0  0  0  0  0  0
    6.2709   20.0044    1.4271 H   0  0  0  0  0  0  0  0  0  0  0  0
    5.0391   19.1561    4.3651 H   0  0  0  0  0  0  0  0  0  0  0  0
    3.4462   19.8732    3.9467 H   0  0  0  0  0  0  0  0  0  0  0  0
    3.6558   18.0892    3.9467 H   0  0  0  0  0  0  0  0  0  0  0  0
   -0.0337   16.0492   -0.4311 H   0  0  0  0  0  0  0  0  0  0  0  0
   -0.2553   16.7796   -2.7236 H   0  0  0  0  0  0  0  0  0  0  0  0
    1.4633   17.2181   -2.8307 H   0  0  0  0  0  0  0  0  0  0  0  0
    0.2704   14.8846   -3.9694 H   0  0  0  0  0  0  0  0  0  0  0  0
    2.0057   15.1051   -3.7610 H   0  0  0  0  0  0  0  0  0  0  0  0
   -0.6958   13.6926   -0.7818 H   0  0  0  0  0  0  0  0  0  0  0  0
   -1.0981   14.5285   -2.3200 H   0  0  0  0  0  0  0  0  0  0  0  0
   -0.7490   12.7665   -2.3200 H   0  0  0  0  0  0  0  0  0  0  0  0
    2.8230   13.1161   -2.6478 H   0  0  0  0  0  0  0  0  0  0  0  0
    0.9220   12.5734   -4.3007 H   0  0  0  0  0  0  0  0  0  0  0  0
    2.2351   11.3401   -3.9214 H   0  0  0  0  0  0  0  0  0  0  0  0
   -0.2263   10.4121   -4.0809 H   0  0  0  0  0  0  0  0  0  0  0  0
    0.1305   11.5582   -0.2276 H   0  0  0  0  0  0  0  0  0  0  0  0
    1.8866    9.0346   -0.4393 H   0  0  0  0  0  0  0  0  0  0  0  0
    1.6179   10.0572    1.0414 H   0  0  0  0  0  0  0  0  0  0  0  0
    0.2900    7.9707    1.0904 H   0  0  0  0  0  0  0  0  0  0  0  0
   -0.7340    9.4597    1.0650 H   0  0  0  0  0  0  0  0  0  0  0  0
   -1.6917    7.8408   -0.4262 H   0  0  0  0  0  0  0  0  0  0  0  0
    0.5620    7.8800   -2.1320 H   0  0  0  0  0  0  0  0  0  0  0  0
   -2.2506   10.2423   -0.0083 H   0  0  0  0  0  0  0  0  0  0  0  0
   -2.2325   11.3391   -1.4307 H   0  0  0  0  0  0  0  0  0  0  0  0
   -3.2879    9.8855   -1.4307 H   0  0  0  0  0  0  0  0  0  0  0  0
   -2.4707    8.0125   -2.7211 H   0  0  0  0  0  0  0  0  0  0  0  0
   -2.2851    9.5650   -3.6054 H   0  0  0  0  0  0  0  0  0  0  0  0
   -0.9476    8.3659   -3.6054 H   0  0  0  0  0  0  0  0  0  0  0  0
    3.7683   10.6491   -0.3948 H   0  0  0  0  0  0  0  0  0  0  0  0
    3.0336   10.0641   -1.9261 H   0  0  0  0  0  0  0  0  0  0  0  0
    4.0507   11.5447   -1.9261 H   0  0  0  0  0  0  0  0  0  0  0  0
    2.1289   12.0677    1.0852 H   0  0  0  0  0  0  0  0  0  0  0  0
    3.4348   12.9542    0.1139 H   0  0  0  0  0  0  0  0  0  0  0  0
    0.5673   13.8197    0.5763 H   0  0  0  0  0  0  0  0  0  0  0  0
    2.0897   14.5958    1.1656 H   0  0  0  0  0  0  0  0  0  0  0  0
    3.7392   15.2924   -0.2224 H   0  0  0  0  0  0  0  0  0  0  0  0
    3.6930   14.3620   -1.7582 H   0  0  0  0  0  0  0  0  0  0  0  0
    3.3028   16.1154   -1.7582 H   0  0  0  0  0  0  0  0  0  0  0  0
  1  2  1  0
  2  3  1  0
  3  4  1  0
  4  5  1  0
  5  6  1  0
  6  7  1  0
  7  8  1  0
  7  9  1  0
  2 10  1  0
 10 11  1  0
 11 12  1  0
 12 13  1  0
 13 14  1  1
 13 15  1  0
 15 16  1  0
 16 17  1  0
 17 18  2  0
 18 19  1  0
 19 20  1  0
 20 21  1  0
 21 22  1  0
 22 23  1  0
 22 24  1  0
 24 25  1  0
 24 26  1  0
 19 27  1  0
 27 28  1  6
 27 29  1  0
 29 30  1  0
 30 31  1  0
 31 32  1  6
  7  5  1  0
 31 10  1  0
 31 13  1  0
 27 15  1  0
 24 18  1  0
  1 33  1  0
  1 34  1  0
  1 35  1  0
  2 36  1  1
  3 37  1  0
  3 38  1  0
  4 39  1  0
  4 40  1  0
  5 41  1  1
  8 42  1  0
  8 43  1  0
  8 44  1  0
  9 45  1  0
  9 46  1  0
  9 47  1  0
 10 48  1  1
 11 49  1  0
 11 50  1  0
 12 51  1  0
 12 52  1  0
 14 53  1  0
 14 54  1  0
 14 55  1  0
 15 56  1  6
 16 57  1  0
 16 58  1  0
 17 59  1  0
 19 60  1  1
 20 61  1  0
 20 62  1  0
 21 63  1  0
 21 64  1  0
 22 65  1  1
 23 66  1  0
 25 67  1  0
 25 68  1  0
 25 69  1  0
 26 70  1  0
 26 71  1  0
 26 72  1  0
 28 73  1  0
 28 74  1  0
 28 75  1  0
 29 76  1  0
 29 77  1  0
 30 78  1  0
 30 79  1  0
 32 80  1  0
 32 81  1  0
 32 82  1  0
M  END
>  <meeko>  (3) 
{"is_sidechain": [false], "intermolecular_energy": 2.731, "internal_energy": -0.839}

$$$$
EPH_relaxed_0001_pdb2pqr_Repair_212_r2_0001_out
     RDKit          3D

 82 86  0  0  0  0  0  0  0  0999 V2000
    2.3470   18.0580   -2.6860 C   0  0  0  0  0  0  0  0  0  0  0  0
    1.0440   17.6730   -1.9800 C   0  0  2  0  0  0  0  0  0  0  0  0
    1.1720   17.7440   -0.4450 C   0  0  0  0  0  0  0  0  0  0  0  0
    0.8230   19.1160    0.1390 C   0  0  0  0  0  0  0  0  0  0  0  0
   -0.6240   19.2030    0.5220 C   0  0  2  0  0  0  0  0  0  0  0  0
   -1.4810   18.2810   -0.1640 O   0  0  0  0  0  0  0  0  0  0  0  0
   -1.7120   19.6750   -0.4240 C   0  0  0  0  0  0  0  0  0  0  0  0
   -1.4010   20.0930   -1.8260 C   0  0  0  0  0  0  0  0  0  0  0  0
   -2.9910   20.1930    0.1590 C   0  0  0  0  0  0  0  0  0  0  0  0
    0.6180   16.2720   -2.4030 C   0  0  1  0  0  0  0  0  0  0  0  0
    0.7370   16.0490   -3.9350 C   0  0  0  0  0  0  0  0  0  0  0  0
    1.1580   14.5710   -4.1400 C   0  0  0  0  0  0  0  0  0  0  0  0
    0.9460   13.9100   -2.7580 C   0  0  1  0  0  0  0  0  0  0  0  0
   -0.5820   13.5970   -2.6930 C   0  0  0  0  0  0  0  0  0  0  0  0
    1.8080   12.6400   -2.4600 C   0  0  2  0  0  0  0  0  0  0  0  0
    1.5530   11.4440   -3.3930 C   0  0  0  0  0  0  0  0  0  0  0  0
    0.4990   10.4910   -2.9350 C   0  0  0  0  0  0  0  0  0  0  0  0
   -0.0140   10.4300   -1.6920 C   0  0  0  0  0  0  0  0  0  0  0  0
    0.5370   11.3170   -0.5690 C   0  0  1  0  0  0  0  0  0  0  0  0
    0.7590   10.4600    0.7060 C   0  0  0  0  0  0  0  0  0  0  0  0
   -0.4960    9.7000    1.1250 C   0  0  0  0  0  0  0  0  0  0  0  0
   -0.9800    8.7860    0.0020 C   0  0  2  0  0  0  0  0  0  0  0  0
   -0.0130    7.7510   -0.1990 O   0  0  0  0  0  0  0  0  0  0  0  0
   -1.2280    9.5370   -1.3360 C   0  0  0  0  0  0  0  0  0  0  0  0
   -2.4760   10.4450   -1.2000 C   0  0  0  0  0  0  0  0  0  0  0  0
   -1.5760    8.4810   -2.4190 C   0  0  0  0  0  0  0  0  0  0  0  0
    1.8070   12.1980   -0.9400 C   0  0  1  0  0  0  0  0  0  0  0  0
    3.1110   11.3720   -0.7160 C   0  0  0  0  0  0  0  0  0  0  0  0
    1.8860   13.4270    0.0410 C   0  0  0  0  0  0  0  0  0  0  0  0
    1.1090   14.6930   -0.3680 C   0  0  0  0  0  0  0  0  0  0  0  0
    1.4160   15.0790   -1.8180 C   0  0  2  0  0  0  0  0  0  0  0  0
    2.9420   15.4210   -1.9100 C   0  0  0  0  0  0  0  0  0  0  0  0
    3.1176   18.2857   -1.9348 H   0  0  0  0  0  0  0  0  0  0  0  0
    2.6842   17.2211   -3.3152 H   0  0  0  0  0  0  0  0  0  0  0  0
    2.1752   18.9438   -3.3152 H   0  0  0  0  0  0  0  0  0  0  0  0
    0.2769   18.4016   -2.2811 H   0  0  0  0  0  0  0  0  0  0  0  0
    0.4950   16.9969   -0.0051 H   0  0  0  0  0  0  0  0  0  0  0  0
    2.2268   17.5496   -0.2010 H   0  0  0  0  0  0  0  0  0  0  0  0
    1.4397   19.2904    1.0330 H   0  0  0  0  0  0  0  0  0  0  0  0
    1.0208   19.8769   -0.6303 H   0  0  0  0  0  0  0  0  0  0  0  0
   -0.3595   19.4978    1.5482 H   0  0  0  0  0  0  0  0  0  0  0  0
   -0.7445   20.9754   -1.8084 H   0  0  0  0  0  0  0  0  0  0  0  0
   -0.8943   19.2694   -2.3503 H   0  0  0  0  0  0  0  0  0  0  0  0
   -2.3355   20.3416   -2.3503 H   0  0  0  0  0  0  0  0  0  0  0  0
   -2.9300   20.1683    1.2570 H   0  0  0  0  0  0  0  0  0  0  0  0
   -3.1540   21.2280   -0.1760 H   0  0  0  0  0  0  0  0  0  0  0  0
   -3.8283   19.5631   -0.1760 H   0  0  0  0  0  0  0  0  0  0  0  0
   -0.4100   16.2651   -2.0115 H   0  0  0  0  0  0  0  0  0  0  0  0
   -0.2311   16.2382   -4.4217 H   0  0  0  0  0  0  0  0  0  0  0  0
    1.4740   16.7349   -4.3781 H   0  0  0  0  0  0  0  0  0  0  0  0
    0.5271   14.0895   -4.9017 H   0  0  0  0  0  0  0  0  0  0  0  0
    2.1959   14.4778   -4.4923 H   0  0  0  0  0  0  0  0  0  0  0  0
   -0.8986   13.5321   -1.6415 H   0  0  0  0  0  0  0  0  0  0  0  0
   -1.1423   14.3990   -3.1958 H   0  0  0  0  0  0  0  0  0  0  0  0
   -0.7818   12.6393   -3.1958 H   0  0  0  0  0  0  0  0  0  0  0  0
    2.8259   12.9868   -2.6913 H   0  0  0  0  0  0  0  0  0  0  0  0
    1.2520   11.8373   -4.3752 H   0  0  0  0  0  0  0  0  0  0  0  0
    2.4917   10.8710   -3.4166 H   0  0  0  0  0  0  0  0  0  0  0  0
    0.1085    9.7782   -3.6762 H   0  0  0  0  0  0  0  0  0  0  0  0
   -0.2332   12.0788   -0.3782 H   0  0  0  0  0  0  0  0  0  0  0  0
    1.5613    9.7341    0.5078 H   0  0  0  0  0  0  0  0  0  0  0  0
    1.0253   11.1433    1.5259 H   0  0  0  0  0  0  0  0  0  0  0  0
   -0.2687    9.0909    2.0123 H   0  0  0  0  0  0  0  0  0  0  0  0
   -1.2886   10.4283    1.3515 H   0  0  0  0  0  0  0  0  0  0  0  0
   -1.9498    8.3689    0.3113 H   0  0  0  0  0  0  0  0  0  0  0  0
    0.0260    7.5660   -1.1530 H   0  0  0  0  0  0  0  0  0  0  0  0
   -2.6977   10.6063   -0.1347 H   0  0  0  0  0  0  0  0  0  0  0  0
   -2.2798   11.4129   -1.6844 H   0  0  0  0  0  0  0  0  0  0  0  0
   -3.3366    9.9604   -1.6844 H   0  0  0  0  0  0  0  0  0  0  0  0
   -1.8847    7.5443   -1.9319 H   0  0  0  0  0  0  0  0  0  0  0  0
   -2.3980    8.8563   -3.0463 H   0  0  0  0  0  0  0  0  0  0  0  0
   -0.6919    8.2941   -3.0463 H   0  0  0  0  0  0  0  0  0  0  0  0
    3.2917   11.2575    0.3630 H   0  0  0  0  0  0  0  0  0  0  0  0
    2.9998   10.3792   -1.1765 H   0  0  0  0  0  0  0  0  0  0  0  0
    3.9611   11.8967   -1.1765 H   0  0  0  0  0  0  0  0  0  0  0  0
    1.4984   13.0993    1.0169 H   0  0  0  0  0  0  0  0  0  0  0  0
    2.9444   13.7266    0.0426 H   0  0  0  0  0  0  0  0  0  0  0  0
    0.0305   14.5018   -0.2670 H   0  0  0  0  0  0  0  0  0  0  0  0
    1.4160   15.5207    0.2882 H   0  0  0  0  0  0  0  0  0  0  0  0
    3.3586   15.5144   -0.8962 H   0  0  0  0  0  0  0  0  0  0  0  0
    3.4659   14.6180   -2.4492 H   0  0  0  0  0  0  0  0  0  0  0  0
    3.0730   16.3708   -2.4492 H   0  0  0  0  0  0  0  0  0  0  0  0
  1  2  1  0
  2  3  1  0
  3  4  1  0
  4  5  1  0
  5  6  1  0
  6  7  1  0
  7  8  1  0
  7  9  1  0
  2 10  1  0
 10 11  1  0
 11 12  1  0
 12 13  1  0
 13 14  1  1
 13 15  1  0
 15 16  1  0
 16 17  1  0
 17 18  2  0
 18 19  1  0
 19 20  1  0
 20 21  1  0
 21 22  1  0
 22 23  1  0
 22 24  1  0
 24 25  1  0
 24 26  1  0
 19 27  1  0
 27 28  1  6
 27 29  1  0
 29 30  1  0
 30 31  1  0
 31 32  1  1
  7  5  1  0
 31 10  1  0
 31 13  1  0
 27 15  1  0
 24 18  1  0
  1 33  1  0
  1 34  1  0
  1 35  1  0
  2 36  1  6
  3 37  1  0
  3 38  1  0
  4 39  1  0
  4 40  1  0
  5 41  1  1
  8 42  1  0
  8 43  1  0
  8 44  1  0
  9 45  1  0
  9 46  1  0
  9 47  1  0
 10 48  1  1
 11 49  1  0
 11 50  1  0
 12 51  1  0
 12 52  1  0
 14 53  1  0
 14 54  1  0
 14 55  1  0
 15 56  1  6
 16 57  1  0
 16 58  1  0
 17 59  1  0
 19 60  1  1
 20 61  1  0
 20 62  1  0
 21 63  1  0
 21 64  1  0
 22 65  1  1
 23 66  1  0
 25 67  1  0
 25 68  1  0
 25 69  1  0
 26 70  1  0
 26 71  1  0
 26 72  1  0
 28 73  1  0
 28 74  1  0
 28 75  1  0
 29 76  1  0
 29 77  1  0
 30 78  1  0
 30 79  1  0
 32 80  1  0
 32 81  1  0
 32 82  1  0
M  END
>  <meeko>  (4) 
{"is_sidechain": [false], "intermolecular_energy": 2.731, "internal_energy": -0.839}

$$$$
EPH_relaxed_0001_pdb2pqr_Repair_212_r2_0001_out
     RDKit          3D

 82 86  0  0  0  0  0  0  0  0999 V2000
    2.2010   18.0200   -2.6000 C   0  0  0  0  0  0  0  0  0  0  0  0
    0.6770   17.8780   -2.6450 C   0  0  2  0  0  0  0  0  0  0  0  0
    0.0110   18.3520   -1.3380 C   0  0  0  0  0  0  0  0  0  0  0  0
    0.7670   17.9330   -0.0740 C   0  0  0  0  0  0  0  0  0  0  0  0
    1.3000   19.1180    0.6720 C   0  0  2  0  0  0  0  0  0  0  0  0
    2.1990   19.9440   -0.0800 O   0  0  0  0  0  0  0  0  0  0  0  0
    2.7580   19.2740    1.0620 C   0  0  0  0  0  0  0  0  0  0  0  0
    3.7740   18.2300    0.7180 C   0  0  0  0  0  0  0  0  0  0  0  0
    3.1020   20.1940    2.1920 C   0  0  0  0  0  0  0  0  0  0  0  0
    0.2980   16.4290   -2.9270 C   0  0  1  0  0  0  0  0  0  0  0  0
    0.3300   16.0860   -4.4400 C   0  0  0  0  0  0  0  0  0  0  0  0
    0.8130   14.6170   -4.5560 C   0  0  0  0  0  0  0  0  0  0  0  0
    0.7240   14.0620   -3.1150 C   0  0  1  0  0  0  0  0  0  0  0  0
   -0.7780   13.6860   -2.9220 C   0  0  0  0  0  0  0  0  0  0  0  0
    1.6680   12.8630   -2.7770 C   0  0  2  0  0  0  0  0  0  0  0  0
    1.4160   11.5840   -3.5940 C   0  0  0  0  0  0  0  0  0  0  0  0
    0.4440   10.6240   -2.9920 C   0  0  0  0  0  0  0  0  0  0  0  0
    0.0150   10.6420   -1.7160 C   0  0  0  0  0  0  0  0  0  0  0  0
    0.5910   11.6420   -0.7060 C   0  0  1  0  0  0  0  0  0  0  0  0
    0.9370   10.9040    0.6140 C   0  0  0  0  0  0  0  0  0  0  0  0
   -0.2480   10.1240    1.1760 C   0  0  0  0  0  0  0  0  0  0  0  0
   -0.7550    9.0990    0.1640 C   0  0  2  0  0  0  0  0  0  0  0  0
    0.2500    8.0970   -0.0200 O   0  0  0  0  0  0  0  0  0  0  0  0
   -1.1260    9.7260   -1.2090 C   0  0  0  0  0  0  0  0  0  0  0  0
   -2.4080   10.5820   -1.0610 C   0  0  0  0  0  0  0  0  0  0  0  0
   -1.4860    8.5690   -2.1800 C   0  0  0  0  0  0  0  0  0  0  0  0
    1.7870   12.5470   -1.2310 C   0  0  1  0  0  0  0  0  0  0  0  0
    3.1440   11.8040   -1.0310 C   0  0  0  0  0  0  0  0  0  0  0  0
    1.8640   13.8550   -0.3570 C   0  0  0  0  0  0  0  0  0  0  0  0
    0.9990   15.0460   -0.8110 C   0  0  0  0  0  0  0  0  0  0  0  0
    1.1920   15.3260   -2.3050 C   0  0  2  0  0  0  0  0  0  0  0  0
    2.6890   15.7300   -2.5260 C   0  0  0  0  0  0  0  0  0  0  0  0
    2.5356   18.0512   -1.5526 H   0  0  0  0  0  0  0  0  0  0  0  0
    2.6644   17.1611   -3.1075 H   0  0  0  0  0  0  0  0  0  0  0  0
    2.4978   18.9497   -3.1075 H   0  0  0  0  0  0  0  0  0  0  0  0
    0.3084   18.5231   -3.4561 H   0  0  0  0  0  0  0  0  0  0  0  0
   -0.0502   19.4501   -1.3580 H   0  0  0  0  0  0  0  0  0  0  0  0
   -0.9800   17.8769   -1.2919 H   0  0  0  0  0  0  0  0  0  0  0  0
    0.0821   17.3768    0.5830 H   0  0  0  0  0  0  0  0  0  0  0  0
    1.6193   17.3067   -0.3762 H   0  0  0  0  0  0  0  0  0  0  0  0
    0.3684   19.2027    1.2507 H   0  0  0  0  0  0  0  0  0  0  0  0
    4.1891   17.8035    1.6431 H   0  0  0  0  0  0  0  0  0  0  0  0
    3.2961   17.4333    0.1291 H   0  0  0  0  0  0  0  0  0  0  0  0
    4.5834   18.6861    0.1291 H   0  0  0  0  0  0  0  0  0  0  0  0
    2.9121   19.6861    3.1491 H   0  0  0  0  0  0  0  0  0  0  0  0
    4.1646   20.4713    2.1286 H   0  0  0  0  0  0  0  0  0  0  0  0
    2.4821   21.1004    2.1286 H   0  0  0  0  0  0  0  0  0  0  0  0
   -0.7013   16.4076   -2.4678 H   0  0  0  0  0  0  0  0  0  0  0  0
   -0.6759   16.1893   -4.8731 H   0  0  0  0  0  0  0  0  0  0  0  0
    1.0009   16.7664   -4.9850 H   0  0  0  0  0  0  0  0  0  0  0  0
    0.1606   14.0460   -5.2330 H   0  0  0  0  0  0  0  0  0  0  0  0
    1.8298   14.5436   -4.9692 H   0  0  0  0  0  0  0  0  0  0  0  0
   -1.0065   13.6288   -1.8475 H   0  0  0  0  0  0  0  0  0  0  0  0
   -1.4113   14.4533   -3.3912 H   0  0  0  0  0  0  0  0  0  0  0  0
   -0.9751   12.7108   -3.3912 H   0  0  0  0  0  0  0  0  0  0  0  0
    2.6498   13.2372   -3.1026 H   0  0  0  0  0  0  0  0  0  0  0  0
    1.0329   11.8813   -4.5813 H   0  0  0  0  0  0  0  0  0  0  0  0
    2.3796   11.0551   -3.6363 H   0  0  0  0  0  0  0  0  0  0  0  0
    0.0445    9.8352   -3.6464 H   0  0  0  0  0  0  0  0  0  0  0  0
   -0.2032   12.3808   -0.5232 H   0  0  0  0  0  0  0  0  0  0  0  0
    1.7612   10.2019    0.4199 H   0  0  0  0  0  0  0  0  0  0  0  0
    1.2194   11.6640    1.3574 H   0  0  0  0  0  0  0  0  0  0  0  0
    0.0664    9.6013    2.0913 H   0  0  0  0  0  0  0  0  0  0  0  0
   -1.0610   10.8311    1.3974 H   0  0  0  0  0  0  0  0  0  0  0  0
   -1.6800    8.6637    0.5700 H   0  0  0  0  0  0  0  0  0  0  0  0
    0.2570    7.8570   -0.9620 H   0  0  0  0  0  0  0  0  0  0  0  0
   -2.6291   10.7296    0.0064 H   0  0  0  0  0  0  0  0  0  0  0  0
   -2.2540   11.5591   -1.5421 H   0  0  0  0  0  0  0  0  0  0  0  0
   -3.2515   10.0653   -1.5421 H   0  0  0  0  0  0  0  0  0  0  0  0
   -1.7637    7.6765   -1.6000 H   0  0  0  0  0  0  0  0  0  0  0  0
   -2.3323    8.8722   -2.8139 H   0  0  0  0  0  0  0  0  0  0  0  0
   -0.6171    8.3386   -2.8139 H   0  0  0  0  0  0  0  0  0  0  0  0
    3.3463   11.6932    0.0445 H   0  0  0  0  0  0  0  0  0  0  0  0
    3.0899   10.8096   -1.4983 H   0  0  0  0  0  0  0  0  0  0  0  0
    3.9526   12.3852   -1.4983 H   0  0  0  0  0  0  0  0  0  0  0  0
    1.5559   13.5906    0.6653 H   0  0  0  0  0  0  0  0  0  0  0  0
    2.9035   14.2024   -0.4501 H   0  0  0  0  0  0  0  0  0  0  0  0
   -0.0596   14.8145   -0.6221 H   0  0  0  0  0  0  0  0  0  0  0  0
    1.3051   15.9379   -0.2446 H   0  0  0  0  0  0  0  0  0  0  0  0
    3.1807   15.8627   -1.5510 H   0  0  0  0  0  0  0  0  0  0  0  0
    3.2028   14.9384   -3.0911 H   0  0  0  0  0  0  0  0  0  0  0  0
    2.7348   16.6726   -3.0911 H   0  0  0  0  0  0  0  0  0  0  0  0
  1  2  1  0
  2  3  1  0
  3  4  1  0
  4  5  1  0
  5  6  1  0
  6  7  1  0
  7  8  1  0
  7  9  1  0
  2 10  1  0
 10 11  1  0
 11 12  1  0
 12 13  1  0
 13 14  1  1
 13 15  1  0
 15 16  1  0
 16 17  1  0
 17 18  2  0
 18 19  1  0
 19 20  1  0
 20 21  1  0
 21 22  1  0
 22 23  1  0
 22 24  1  0
 24 25  1  0
 24 26  1  0
 19 27  1  0
 27 28  1  6
 27 29  1  0
 29 30  1  0
 30 31  1  0
 31 32  1  1
  7  5  1  0
 31 10  1  0
 31 13  1  0
 27 15  1  0
 24 18  1  0
  1 33  1  0
  1 34  1  0
  1 35  1  0
  2 36  1  6
  3 37  1  0
  3 38  1  0
  4 39  1  0
  4 40  1  0
  5 41  1  1
  8 42  1  0
  8 43  1  0
  8 44  1  0
  9 45  1  0
  9 46  1  0
  9 47  1  0
 10 48  1  1
 11 49  1  0
 11 50  1  0
 12 51  1  0
 12 52  1  0
 14 53  1  0
 14 54  1  0
 14 55  1  0
 15 56  1  6
 16 57  1  0
 16 58  1  0
 17 59  1  0
 19 60  1  1
 20 61  1  0
 20 62  1  0
 21 63  1  0
 21 64  1  0
 22 65  1  1
 23 66  1  0
 25 67  1  0
 25 68  1  0
 25 69  1  0
 26 70  1  0
 26 71  1  0
 26 72  1  0
 28 73  1  0
 28 74  1  0
 28 75  1  0
 29 76  1  0
 29 77  1  0
 30 78  1  0
 30 79  1  0
 32 80  1  0
 32 81  1  0
 32 82  1  0
M  END
>  <meeko>  (5) 
{"is_sidechain": [false], "intermolecular_energy": 2.731, "internal_energy": -0.839}

$$$$
EPH_relaxed_0001_pdb2pqr_Repair_212_r2_0001_out
     RDKit          3D

 82 86  0  0  0  0  0  0  0  0999 V2000
    3.8350   17.3150    0.9040 C   0  0  0  0  0  0  0  0  0  0  0  0
    3.5100   16.6520   -0.4370 C   0  0  2  0  0  0  0  0  0  0  0  0
    3.2450   17.6880   -1.5480 C   0  0  0  0  0  0  0  0  0  0  0  0
    2.4380   18.9010   -1.0780 C   0  0  0  0  0  0  0  0  0  0  0  0
    1.0530   18.9000   -1.6500 C   0  0  2  0  0  0  0  0  0  0  0  0
    0.5550   20.1940   -2.0160 O   0  0  0  0  0  0  0  0  0  0  0  0
   -0.1410   19.5250   -0.9520 C   0  0  0  0  0  0  0  0  0  0  0  0
   -0.0040   20.1930    0.3800 C   0  0  0  0  0  0  0  0  0  0  0  0
   -1.5130   19.0600   -1.3280 C   0  0  0  0  0  0  0  0  0  0  0  0
    2.3040   15.7330   -0.2840 C   0  0  1  0  0  0  0  0  0  0  0  0
    0.9780   16.5150   -0.0850 C   0  0  0  0  0  0  0  0  0  0  0  0
   -0.1320   15.7010   -0.7980 C   0  0  0  0  0  0  0  0  0  0  0  0
    0.5180   14.3290   -1.0930 C   0  0  1  0  0  0  0  0  0  0  0  0
    0.4110   13.5380    0.2480 C   0  0  0  0  0  0  0  0  0  0  0  0
   -0.0850   13.5220   -2.2890 C   0  0  2  0  0  0  0  0  0  0  0  0
   -1.5590   13.1130   -2.1230 C   0  0  0  0  0  0  0  0  0  0  0  0
   -1.7830   11.7840   -1.4790 C   0  0  0  0  0  0  0  0  0  0  0  0
   -0.8500   10.8300   -1.3090 C   0  0  0  0  0  0  0  0  0  0  0  0
    0.5650   11.0030   -1.8750 C   0  0  1  0  0  0  0  0  0  0  0  0
    0.9960    9.7000   -2.6000 C   0  0  0  0  0  0  0  0  0  0  0  0
    0.8700    8.4670   -1.7100 C   0  0  0  0  0  0  0  0  0  0  0  0
   -0.5640    8.2970   -1.2140 C   0  0  2  0  0  0  0  0  0  0  0  0
   -1.4050    7.9920   -2.3310 O   0  0  0  0  0  0  0  0  0  0  0  0
   -1.1100    9.5510   -0.4760 C   0  0  0  0  0  0  0  0  0  0  0  0
   -0.3930    9.7050    0.8880 C   0  0  0  0  0  0  0  0  0  0  0  0
   -2.6080    9.3000   -0.1530 C   0  0  0  0  0  0  0  0  0  0  0  0
    0.8040   12.3010   -2.7600 C   0  0  1  0  0  0  0  0  0  0  0  0
    0.4150   12.0130   -4.2430 C   0  0  0  0  0  0  0  0  0  0  0  0
    2.3410   12.6460   -2.7630 C   0  0  0  0  0  0  0  0  0  0  0  0
    2.8530   13.5450   -1.6220 C   0  0  0  0  0  0  0  0  0  0  0  0
    1.9730   14.7900   -1.4680 C   0  0  2  0  0  0  0  0  0  0  0  0
    2.0780   15.6170   -2.7940 C   0  0  0  0  0  0  0  0  0  0  0  0
    3.5130   16.6581    1.7254 H   0  0  0  0  0  0  0  0  0  0  0  0
    4.9192   17.4863    0.9751 H   0  0  0  0  0  0  0  0  0  0  0  0
    3.3063   18.2770    0.9751 H   0  0  0  0  0  0  0  0  0  0  0  0
    4.3899   16.0639   -0.7369 H   0  0  0  0  0  0  0  0  0  0  0  0
    4.2135   18.0423   -1.9308 H   0  0  0  0  0  0  0  0  0  0  0  0
    2.6471   17.1841   -2.3217 H   0  0  0  0  0  0  0  0  0  0  0  0
    2.3704   18.8807    0.0197 H   0  0  0  0  0  0  0  0  0  0  0  0
    2.9516   19.8100   -1.4244 H   0  0  0  0  0  0  0  0  0  0  0  0
    1.2116   17.9059   -2.0934 H   0  0  0  0  0  0  0  0  0  0  0  0
   -0.1559   19.4524    1.1790 H   0  0  0  0  0  0  0  0  0  0  0  0
    1.0021   20.6284    0.4701 H   0  0  0  0  0  0  0  0  0  0  0  0
   -0.7575   20.9893    0.4701 H   0  0  0  0  0  0  0  0  0  0  0  0
   -2.0959   18.8624   -0.4163 H   0  0  0  0  0  0  0  0  0  0  0  0
   -2.0140   19.8385   -1.9220 H   0  0  0  0  0  0  0  0  0  0  0  0
   -1.4375   18.1373   -1.9220 H   0  0  0  0  0  0  0  0  0  0  0  0
    2.6307   15.1444    0.5860 H   0  0  0  0  0  0  0  0  0  0  0  0
    0.7502   16.6080    0.9871 H   0  0  0  0  0  0  0  0  0  0  0  0
    1.0520   17.5307   -0.5007 H   0  0  0  0  0  0  0  0  0  0  0  0
   -1.0080   15.5828   -0.1433 H   0  0  0  0  0  0  0  0  0  0  0  0
   -0.4913   16.1972   -1.7116 H   0  0  0  0  0  0  0  0  0  0  0  0
    0.5053   14.2353    1.0935 H   0  0  0  0  0  0  0  0  0  0  0  0
   -0.5639   13.0310    0.2979 H   0  0  0  0  0  0  0  0  0  0  0  0
    1.2162   12.7902    0.2979 H   0  0  0  0  0  0  0  0  0  0  0  0
   -0.0702   14.2609   -3.1037 H   0  0  0  0  0  0  0  0  0  0  0  0
   -2.0567   13.8771   -1.5079 H   0  0  0  0  0  0  0  0  0  0  0  0
   -1.9689   13.0314   -3.1405 H   0  0  0  0  0  0  0  0  0  0  0  0
   -2.7972   11.5669   -1.1126 H   0  0  0  0  0  0  0  0  0  0  0  0
    1.2189   11.1821   -1.0088 H   0  0  0  0  0  0  0  0  0  0  0  0
    0.3589    9.5621   -3.4861 H   0  0  0  0  0  0  0  0  0  0  0  0
    2.0555    9.8060   -2.8762 H   0  0  0  0  0  0  0  0  0  0  0  0
    1.1598    7.5759   -2.2861 H   0  0  0  0  0  0  0  0  0  0  0  0
    1.5303    8.5932   -0.8393 H   0  0  0  0  0  0  0  0  0  0  0  0
   -0.5642    7.4770   -0.4808 H   0  0  0  0  0  0  0  0  0  0  0  0
   -2.2490    8.4560   -2.1990 H   0  0  0  0  0  0  0  0  0  0  0  0
   -1.1163    9.5496    1.7021 H   0  0  0  0  0  0  0  0  0  0  0  0
    0.4119    8.9593    0.9654 H   0  0  0  0  0  0  0  0  0  0  0  0
    0.0347   10.7155    0.9654 H   0  0  0  0  0  0  0  0  0  0  0  0
   -2.7490    9.2764    0.9377 H   0  0  0  0  0  0  0  0  0  0  0  0
   -3.2165   10.1087   -0.5839 H   0  0  0  0  0  0  0  0  0  0  0  0
   -2.9197    8.3371   -0.5839 H   0  0  0  0  0  0  0  0  0  0  0  0
   -0.4688   11.3587   -4.2698 H   0  0  0  0  0  0  0  0  0  0  0  0
    0.1853   12.9605   -4.7525 H   0  0  0  0  0  0  0  0  0  0  0  0
    1.2542   11.5168   -4.7525 H   0  0  0  0  0  0  0  0  0  0  0  0
    2.8952   11.6971   -2.7133 H   0  0  0  0  0  0  0  0  0  0  0  0
    2.5038   13.2272   -3.6826 H   0  0  0  0  0  0  0  0  0  0  0  0
    2.8386   12.9755   -0.6810 H   0  0  0  0  0  0  0  0  0  0  0  0
    3.8772   13.8668   -1.8616 H   0  0  0  0  0  0  0  0  0  0  0  0
    2.2132   16.6816   -2.5524 H   0  0  0  0  0  0  0  0  0  0  0  0
    2.9383   15.2620   -3.3804 H   0  0  0  0  0  0  0  0  0  0  0  0
    1.1563   15.4882   -3.3804 H   0  0  0  0  0  0  0  0  0  0  0  0
  1  2  1  0
  2  3  1  0
  3  4  1  0
  4  5  1  0
  5  6  1  0
  6  7  1  0
  7  8  1  0
  7  9  1  0
  2 10  1  0
 10 11  1  0
 11 12  1  0
 12 13  1  0
 13 14  1  1
 13 15  1  0
 15 16  1  0
 16 17  1  0
 17 18  2  0
 18 19  1  0
 19 20  1  0
 20 21  1  0
 21 22  1  0
 22 23  1  0
 22 24  1  0
 24 25  1  0
 24 26  1  0
 19 27  1  0
 27 28  1  6
 27 29  1  0
 29 30  1  0
 30 31  1  0
 31 32  1  6
  7  5  1  0
 31 10  1  0
 31 13  1  0
 27 15  1  0
 24 18  1  0
  1 33  1  0
  1 34  1  0
  1 35  1  0
  2 36  1  6
  3 37  1  0
  3 38  1  0
  4 39  1  0
  4 40  1  0
  5 41  1  6
  8 42  1  0
  8 43  1  0
  8 44  1  0
  9 45  1  0
  9 46  1  0
  9 47  1  0
 10 48  1  1
 11 49  1  0
 11 50  1  0
 12 51  1  0
 12 52  1  0
 14 53  1  0
 14 54  1  0
 14 55  1  0
 15 56  1  6
 16 57  1  0
 16 58  1  0
 17 59  1  0
 19 60  1  1
 20 61  1  0
 20 62  1  0
 21 63  1  0
 21 64  1  0
 22 65  1  1
 23 66  1  0
 25 67  1  0
 25 68  1  0
 25 69  1  0
 26 70  1  0
 26 71  1  0
 26 72  1  0
 28 73  1  0
 28 74  1  0
 28 75  1  0
 29 76  1  0
 29 77  1  0
 30 78  1  0
 30 79  1  0
 32 80  1  0
 32 81  1  0
 32 82  1  0
M  END
>  <meeko>  (6) 
{"is_sidechain": [false], "intermolecular_energy": 2.731, "internal_energy": -0.839}

$$$$
EPH_relaxed_0001_pdb2pqr_Repair_212_r2_0001_out
     RDKit          3D

 82 86  0  0  0  0  0  0  0  0999 V2000
   -5.1980    5.7660   -1.5570 C   0  0  0  0  0  0  0  0  0  0  0  0
   -5.4450    7.2710   -1.6910 C   0  0  2  0  0  0  0  0  0  0  0  0
   -5.2090    8.0190   -0.3640 C   0  0  0  0  0  0  0  0  0  0  0  0
   -4.1810    9.1490   -0.4690 C   0  0  0  0  0  0  0  0  0  0  0  0
   -2.8150    8.6270   -0.8010 C   0  0  2  0  0  0  0  0  0  0  0  0
   -1.8010    8.9510    0.1600 O   0  0  0  0  0  0  0  0  0  0  0  0
   -1.6400    9.5210   -1.1490 C   0  0  0  0  0  0  0  0  0  0  0  0
   -1.7770   11.0110   -1.1840 C   0  0  0  0  0  0  0  0  0  0  0  0
   -0.5020    8.9370   -1.9250 C   0  0  0  0  0  0  0  0  0  0  0  0
   -6.8650    7.5220   -2.1850 C   0  0  1  0  0  0  0  0  0  0  0  0
   -7.1530    6.8390   -3.5490 C   0  0  0  0  0  0  0  0  0  0  0  0
   -8.6360    6.3890   -3.5200 C   0  0  0  0  0  0  0  0  0  0  0  0
   -9.2390    7.1130   -2.2930 C   0  0  1  0  0  0  0  0  0  0  0  0
   -9.5560    8.5560   -2.7940 C   0  0  0  0  0  0  0  0  0  0  0  0
  -10.4900    6.4400   -1.6400 C   0  0  2  0  0  0  0  0  0  0  0  0
  -11.7260    6.3400   -2.5510 C   0  0  0  0  0  0  0  0  0  0  0  0
  -12.6640    7.4990   -2.4850 C   0  0  0  0  0  0  0  0  0  0  0  0
  -12.6740    8.4430   -1.5250 C   0  0  0  0  0  0  0  0  0  0  0  0
  -11.7380    8.3440   -0.3130 C   0  0  1  0  0  0  0  0  0  0  0  0
  -12.5380    8.6280    0.9850 C   0  0  0  0  0  0  0  0  0  0  0  0
  -13.2860    9.9570    0.9320 C   0  0  0  0  0  0  0  0  0  0  0  0
  -14.2490    9.9940   -0.2520 C   0  0  2  0  0  0  0  0  0  0  0  0
  -15.2870    9.0340   -0.0310 O   0  0  0  0  0  0  0  0  0  0  0  0
  -13.5570    9.7120   -1.6140 C   0  0  0  0  0  0  0  0  0  0  0  0
  -12.6510   10.9090   -1.9950 C   0  0  0  0  0  0  0  0  0  0  0  0
  -14.6600    9.6380   -2.7040 C   0  0  0  0  0  0  0  0  0  0  0  0
  -10.8680    7.0180   -0.2160 C   0  0  1  0  0  0  0  0  0  0  0  0
  -11.6760    5.9040    0.5160 C   0  0  0  0  0  0  0  0  0  0  0  0
   -9.5980    7.3000    0.6710 C   0  0  0  0  0  0  0  0  0  0  0  0
   -8.3540    7.8510   -0.0520 C   0  0  0  0  0  0  0  0  0  0  0  0
   -8.0280    7.0170   -1.2950 C   0  0  2  0  0  0  0  0  0  0  0  0
   -7.6820    5.5650   -0.8190 C   0  0  0  0  0  0  0  0  0  0  0  0
   -5.1535    5.4951   -0.4918 H   0  0  0  0  0  0  0  0  0  0  0  0
   -6.0178    5.2153   -2.0415 H   0  0  0  0  0  0  0  0  0  0  0  0
   -4.2452    5.5062   -2.0415 H   0  0  0  0  0  0  0  0  0  0  0  0
   -4.7220    7.6612   -2.4224 H   0  0  0  0  0  0  0  0  0  0  0  0
   -6.1657    8.4494   -0.0330 H   0  0  0  0  0  0  0  0  0  0  0  0
   -4.8088    7.2857    0.3517 H   0  0  0  0  0  0  0  0  0  0  0  0
   -4.4976    9.8467   -1.2583 H   0  0  0  0  0  0  0  0  0  0  0  0
   -4.1270    9.6552    0.5061 H   0  0  0  0  0  0  0  0  0  0  0  0
   -3.2464    7.7476   -1.3015 H   0  0  0  0  0  0  0  0  0  0  0  0
   -1.8128   11.4002   -0.1558 H   0  0  0  0  0  0  0  0  0  0  0  0
   -0.9151   11.4462   -1.7110 H   0  0  0  0  0  0  0  0  0  0  0  0
   -2.7038   11.2817   -1.7110 H   0  0  0  0  0  0  0  0  0  0  0  0
    0.2555    8.5483   -1.2285 H   0  0  0  0  0  0  0  0  0  0  0  0
   -0.8725    8.1176   -2.5585 H   0  0  0  0  0  0  0  0  0  0  0  0
   -0.0523    9.7157   -2.5585 H   0  0  0  0  0  0  0  0  0  0  0  0
   -6.8595    8.6217   -2.2086 H   0  0  0  0  0  0  0  0  0  0  0  0
   -6.9893    7.5512   -4.3712 H   0  0  0  0  0  0  0  0  0  0  0  0
   -6.4833    5.9814   -3.7103 H   0  0  0  0  0  0  0  0  0  0  0  0
   -9.1522    6.6928   -4.4426 H   0  0  0  0  0  0  0  0  0  0  0  0
   -8.7392    5.2960   -3.4520 H   0  0  0  0  0  0  0  0  0  0  0  0
   -9.7020    9.2205   -1.9296 H   0  0  0  0  0  0  0  0  0  0  0  0
   -8.7175    8.9252   -3.4028 H   0  0  0  0  0  0  0  0  0  0  0  0
  -10.4720    8.5398   -3.4028 H   0  0  0  0  0  0  0  0  0  0  0  0
  -10.1477    5.4063   -1.4844 H   0  0  0  0  0  0  0  0  0  0  0  0
  -11.3757    6.2453   -3.5894 H   0  0  0  0  0  0  0  0  0  0  0  0
  -12.2951    5.4682   -2.1959 H   0  0  0  0  0  0  0  0  0  0  0  0
  -13.4100    7.5896   -3.2883 H   0  0  0  0  0  0  0  0  0  0  0  0
  -10.9726    9.1209   -0.4562 H   0  0  0  0  0  0  0  0  0  0  0  0
  -13.2676    7.8184    1.1339 H   0  0  0  0  0  0  0  0  0  0  0  0
  -11.8188    8.6824    1.8155 H   0  0  0  0  0  0  0  0  0  0  0  0
  -13.8560   10.0868    1.8638 H   0  0  0  0  0  0  0  0  0  0  0  0
  -12.5526   10.7683    0.8137 H   0  0  0  0  0  0  0  0  0  0  0  0
  -14.6571   11.0136   -0.3140 H   0  0  0  0  0  0  0  0  0  0  0  0
  -15.0230    8.2090   -0.4720 H   0  0  0  0  0  0  0  0  0  0  0  0
  -12.2825   11.3958   -1.0800 H   0  0  0  0  0  0  0  0  0  0  0  0
  -11.7974   10.5486   -2.5878 H   0  0  0  0  0  0  0  0  0  0  0  0
  -13.2296   11.6327   -2.5878 H   0  0  0  0  0  0  0  0  0  0  0  0
  -15.6470    9.5718   -2.2229 H   0  0  0  0  0  0  0  0  0  0  0  0
  -14.6174   10.5410   -3.3307 H   0  0  0  0  0  0  0  0  0  0  0  0
  -14.4971    8.7488   -3.3307 H   0  0  0  0  0  0  0  0  0  0  0  0
  -11.5801    6.0362    1.6038 H   0  0  0  0  0  0  0  0  0  0  0  0
  -12.7361    5.9722    0.2304 H   0  0  0  0  0  0  0  0  0  0  0  0
  -11.2820    4.9175    0.2304 H   0  0  0  0  0  0  0  0  0  0  0  0
   -9.8858    8.0304    1.4415 H   0  0  0  0  0  0  0  0  0  0  0  0
   -9.2936    6.3166    1.0586 H   0  0  0  0  0  0  0  0  0  0  0  0
   -8.5456    8.8906   -0.3563 H   0  0  0  0  0  0  0  0  0  0  0  0
   -7.4979    7.8031    0.6370 H   0  0  0  0  0  0  0  0  0  0  0  0
   -7.6741    5.5317    0.2805 H   0  0  0  0  0  0  0  0  0  0  0  0
   -8.4382    4.8637   -1.2016 H   0  0  0  0  0  0  0  0  0  0  0  0
   -6.6908    5.2801   -1.2016 H   0  0  0  0  0  0  0  0  0  0  0  0
  1  2  1  0
  2  3  1  0
  3  4  1  0
  4  5  1  0
  5  6  1  0
  6  7  1  0
  7  8  1  0
  7  9  1  0
  2 10  1  0
 10 11  1  0
 11 12  1  0
 12 13  1  0
 13 14  1  6
 13 15  1  0
 15 16  1  0
 16 17  1  0
 17 18  2  0
 18 19  1  0
 19 20  1  0
 20 21  1  0
 21 22  1  0
 22 23  1  0
 22 24  1  0
 24 25  1  0
 24 26  1  0
 19 27  1  0
 27 28  1  1
 27 29  1  0
 29 30  1  0
 30 31  1  0
 31 32  1  1
  7  5  1  0
 31 10  1  0
 31 13  1  0
 27 15  1  0
 24 18  1  0
  1 33  1  0
  1 34  1  0
  1 35  1  0
  2 36  1  6
  3 37  1  0
  3 38  1  0
  4 39  1  0
  4 40  1  0
  5 41  1  6
  8 42  1  0
  8 43  1  0
  8 44  1  0
  9 45  1  0
  9 46  1  0
  9 47  1  0
 10 48  1  6
 11 49  1  0
 11 50  1  0
 12 51  1  0
 12 52  1  0
 14 53  1  0
 14 54  1  0
 14 55  1  0
 15 56  1  1
 16 57  1  0
 16 58  1  0
 17 59  1  0
 19 60  1  6
 20 61  1  0
 20 62  1  0
 21 63  1  0
 21 64  1  0
 22 65  1  6
 23 66  1  0
 25 67  1  0
 25 68  1  0
 25 69  1  0
 26 70  1  0
 26 71  1  0
 26 72  1  0
 28 73  1  0
 28 74  1  0
 28 75  1  0
 29 76  1  0
 29 77  1  0
 30 78  1  0
 30 79  1  0
 32 80  1  0
 32 81  1  0
 32 82  1  0
M  END
>  <meeko>  (7) 
{"is_sidechain": [false], "intermolecular_energy": 2.731, "internal_energy": -0.839}

$$$$
EPH_relaxed_0001_pdb2pqr_Repair_212_r2_0001_out
     RDKit          3D

 82 86  0  0  0  0  0  0  0  0999 V2000
    3.8310   17.9070    0.5460 C   0  0  0  0  0  0  0  0  0  0  0  0
    2.6430   18.4260   -0.2680 C   0  0  2  0  0  0  0  0  0  0  0  0
    1.9430   19.6150    0.4200 C   0  0  0  0  0  0  0  0  0  0  0  0
    0.6020   19.2510    1.0630 C   0  0  0  0  0  0  0  0  0  0  0  0
   -0.5430   19.9460    0.3890 C   0  0  2  0  0  0  0  0  0  0  0  0
   -1.6740   20.1940    1.2330 O   0  0  0  0  0  0  0  0  0  0  0  0
   -1.8880   19.2910    0.1360 C   0  0  0  0  0  0  0  0  0  0  0  0
   -2.1580   17.8790    0.5530 C   0  0  0  0  0  0  0  0  0  0  0  0
   -2.7640   19.8490   -0.9420 C   0  0  0  0  0  0  0  0  0  0  0  0
    1.6440   17.3000   -0.5060 C   0  0  1  0  0  0  0  0  0  0  0  0
    0.4410   17.7430   -1.3810 C   0  0  0  0  0  0  0  0  0  0  0  0
    0.0450   16.5220   -2.2500 C   0  0  0  0  0  0  0  0  0  0  0  0
    0.8040   15.3320   -1.6170 C   0  0  1  0  0  0  0  0  0  0  0  0
   -0.0670   14.9040   -0.3950 C   0  0  0  0  0  0  0  0  0  0  0  0
    1.1050   14.1230   -2.5630 C   0  0  2  0  0  0  0  0  0  0  0  0
   -0.1370   13.4080   -3.1230 C   0  0  0  0  0  0  0  0  0  0  0  0
   -0.6460   12.2730   -2.2970 C   0  0  0  0  0  0  0  0  0  0  0  0
    0.0290   11.6620   -1.3060 C   0  0  0  0  0  0  0  0  0  0  0  0
    1.4830   12.0410   -0.9940 C   0  0  1  0  0  0  0  0  0  0  0  0
    2.3300   10.7510   -0.8310 C   0  0  0  0  0  0  0  0  0  0  0  0
    1.7420    9.7920    0.2000 C   0  0  0  0  0  0  0  0  0  0  0  0
    0.3180    9.3940   -0.1760 C   0  0  2  0  0  0  0  0  0  0  0  0
    0.3580    8.6130   -1.3750 O   0  0  0  0  0  0  0  0  0  0  0  0
   -0.6270   10.6120   -0.3770 C   0  0  0  0  0  0  0  0  0  0  0  0
   -0.9100   11.2820    0.9900 C   0  0  0  0  0  0  0  0  0  0  0  0
   -1.9910   10.0780   -0.8900 C   0  0  0  0  0  0  0  0  0  0  0  0
    2.1530   13.0900   -1.9810 C   0  0  1  0  0  0  0  0  0  0  0  0
    2.7740   12.3490   -3.2050 C   0  0  0  0  0  0  0  0  0  0  0  0
    3.3470   13.8020   -1.2410 C   0  0  0  0  0  0  0  0  0  0  0  0
    3.0050   15.0600   -0.4200 C   0  0  0  0  0  0  0  0  0  0  0  0
    2.1580   16.0370   -1.2420 C   0  0  2  0  0  0  0  0  0  0  0  0
    3.0170   16.5020   -2.4670 C   0  0  0  0  0  0  0  0  0  0  0  0
    3.6102   18.0035    1.6193 H   0  0  0  0  0  0  0  0  0  0  0  0
    4.0087   16.8493    0.3018 H   0  0  0  0  0  0  0  0  0  0  0  0
    4.7278   18.4953    0.3018 H   0  0  0  0  0  0  0  0  0  0  0  0
    3.0339   18.7855   -1.2313 H   0  0  0  0  0  0  0  0  0  0  0  0
    2.6096   20.0045    1.2036 H   0  0  0  0  0  0  0  0  0  0  0  0
    1.7333   20.3606   -0.3611 H   0  0  0  0  0  0  0  0  0  0  0  0
    0.4536   18.1637    0.9869 H   0  0  0  0  0  0  0  0  0  0  0  0
    0.6274   19.5728    2.1146 H   0  0  0  0  0  0  0  0  0  0  0  0
    0.1472   20.4924   -0.2706 H   0  0  0  0  0  0  0  0  0  0  0  0
   -2.1699   17.8169    1.6512 H   0  0  0  0  0  0  0  0  0  0  0  0
   -3.1334   17.5599    0.1571 H   0  0  0  0  0  0  0  0  0  0  0  0
   -1.3691   17.2225    0.1571 H   0  0  0  0  0  0  0  0  0  0  0  0
   -3.6085   20.3869   -0.4865 H   0  0  0  0  0  0  0  0  0  0  0  0
   -2.1811   20.5426   -1.5658 H   0  0  0  0  0  0  0  0  0  0  0  0
   -3.1461   19.0275   -1.5658 H   0  0  0  0  0  0  0  0  0  0  0  0
    1.3935   17.0530    0.5362 H   0  0  0  0  0  0  0  0  0  0  0  0
   -0.4025   18.0421   -0.7414 H   0  0  0  0  0  0  0  0  0  0  0  0
    0.7071   18.6053   -2.0101 H   0  0  0  0  0  0  0  0  0  0  0  0
   -1.0415   16.3542   -2.2123 H   0  0  0  0  0  0  0  0  0  0  0  0
    0.3002   16.6637   -3.3106 H   0  0  0  0  0  0  0  0  0  0  0  0
    0.4572   15.1616    0.5371 H   0  0  0  0  0  0  0  0  0  0  0  0
   -1.0322   15.4304   -0.4304 H   0  0  0  0  0  0  0  0  0  0  0  0
   -0.2400   13.8183   -0.4304 H   0  0  0  0  0  0  0  0  0  0  0  0
    1.5829   14.6112   -3.4251 H   0  0  0  0  0  0  0  0  0  0  0  0
   -0.9438   14.1500   -3.2150 H   0  0  0  0  0  0  0  0  0  0  0  0
    0.1711   12.9707   -4.0842 H   0  0  0  0  0  0  0  0  0  0  0  0
   -1.6589   11.9050   -2.5173 H   0  0  0  0  0  0  0  0  0  0  0  0
    1.4564   12.5933   -0.0431 H   0  0  0  0  0  0  0  0  0  0  0  0
    2.3805   10.2371   -1.8023 H   0  0  0  0  0  0  0  0  0  0  0  0
    3.3285   11.0492   -0.4787 H   0  0  0  0  0  0  0  0  0  0  0  0
    2.3674    8.8884    0.2491 H   0  0  0  0  0  0  0  0  0  0  0  0
    1.7192   10.2972    1.1768 H   0  0  0  0  0  0  0  0  0  0  0  0
   -0.0935    8.8133    0.6627 H   0  0  0  0  0  0  0  0  0  0  0  0
   -0.3120    7.9140   -1.2930 H   0  0  0  0  0  0  0  0  0  0  0  0
   -0.6208   10.5972    1.8008 H   0  0  0  0  0  0  0  0  0  0  0  0
   -0.3278   12.2118    1.0701 H   0  0  0  0  0  0  0  0  0  0  0  0
   -1.9825   11.5129    1.0701 H   0  0  0  0  0  0  0  0  0  0  0  0
   -2.6324    9.8269   -0.0324 H   0  0  0  0  0  0  0  0  0  0  0  0
   -2.4811   10.8507   -1.5006 H   0  0  0  0  0  0  0  0  0  0  0  0
   -1.8262    9.1780   -1.5006 H   0  0  0  0  0  0  0  0  0  0  0  0
    3.4427   11.5511   -2.8499 H   0  0  0  0  0  0  0  0  0  0  0  0
    1.9702   11.9098   -3.8142 H   0  0  0  0  0  0  0  0  0  0  0  0
    3.3470   13.0636   -3.8142 H   0  0  0  0  0  0  0  0  0  0  0  0
    3.7975   13.0695   -0.5551 H   0  0  0  0  0  0  0  0  0  0  0  0
    4.0131   14.1540   -2.0425 H   0  0  0  0  0  0  0  0  0  0  0  0
    2.4423   14.7624    0.4771 H   0  0  0  0  0  0  0  0  0  0  0  0
    3.9429   15.5604   -0.1374 H   0  0  0  0  0  0  0  0  0  0  0  0
    3.9311   16.9968   -2.1071 H   0  0  0  0  0  0  0  0  0  0  0  0
    3.2890   15.6280   -3.0770 H   0  0  0  0  0  0  0  0  0  0  0  0
    2.4339   17.2077   -3.0770 H   0  0  0  0  0  0  0  0  0  0  0  0
  1  2  1  0
  2  3  1  0
  3  4  1  0
  4  5  1  0
  5  6  1  0
  6  7  1  0
  7  8  1  0
  7  9  1  0
  2 10  1  0
 10 11  1  0
 11 12  1  0
 12 13  1  0
 13 14  1  1
 13 15  1  0
 15 16  1  0
 16 17  1  0
 17 18  2  0
 18 19  1  0
 19 20  1  0
 20 21  1  0
 21 22  1  0
 22 23  1  0
 22 24  1  0
 24 25  1  0
 24 26  1  0
 19 27  1  0
 27 28  1  6
 27 29  1  0
 29 30  1  0
 30 31  1  0
 31 32  1  6
  7  5  1  0
 31 10  1  0
 31 13  1  0
 27 15  1  0
 24 18  1  0
  1 33  1  0
  1 34  1  0
  1 35  1  0
  2 36  1  6
  3 37  1  0
  3 38  1  0
  4 39  1  0
  4 40  1  0
  5 41  1  6
  8 42  1  0
  8 43  1  0
  8 44  1  0
  9 45  1  0
  9 46  1  0
  9 47  1  0
 10 48  1  1
 11 49  1  0
 11 50  1  0
 12 51  1  0
 12 52  1  0
 14 53  1  0
 14 54  1  0
 14 55  1  0
 15 56  1  6
 16 57  1  0
 16 58  1  0
 17 59  1  0
 19 60  1  1
 20 61  1  0
 20 62  1  0
 21 63  1  0
 21 64  1  0
 22 65  1  1
 23 66  1  0
 25 67  1  0
 25 68  1  0
 25 69  1  0
 26 70  1  0
 26 71  1  0
 26 72  1  0
 28 73  1  0
 28 74  1  0
 28 75  1  0
 29 76  1  0
 29 77  1  0
 30 78  1  0
 30 79  1  0
 32 80  1  0
 32 81  1  0
 32 82  1  0
M  END
>  <meeko>  (8) 
{"is_sidechain": [false], "intermolecular_energy": 2.731, "internal_energy": -0.839}

$$$$
EPH_relaxed_0001_pdb2pqr_Repair_212_r2_0001_out
     RDKit          3D

 82 86  0  0  0  0  0  0  0  0999 V2000
    0.3760    8.8770   -2.5860 C   0  0  0  0  0  0  0  0  0  0  0  0
    1.1460   10.0440   -3.2120 C   0  0  2  0  0  0  0  0  0  0  0  0
    2.6370   10.0320   -2.8180 C   0  0  0  0  0  0  0  0  0  0  0  0
    3.5600   10.6270   -3.8860 C   0  0  0  0  0  0  0  0  0  0  0  0
    4.9500   10.8320   -3.3650 C   0  0  2  0  0  0  0  0  0  0  0  0
    5.5810   12.0430   -3.8020 O   0  0  0  0  0  0  0  0  0  0  0  0
    6.1840   10.8170   -4.2470 C   0  0  0  0  0  0  0  0  0  0  0  0
    6.0860   10.5920   -5.7230 C   0  0  0  0  0  0  0  0  0  0  0  0
    7.5120   10.5350   -3.6150 C   0  0  0  0  0  0  0  0  0  0  0  0
    0.5090   11.3660   -2.8020 C   0  0  1  0  0  0  0  0  0  0  0  0
   -0.8620   11.1770   -2.1000 C   0  0  0  0  0  0  0  0  0  0  0  0
   -0.9690   12.2870   -1.0230 C   0  0  0  0  0  0  0  0  0  0  0  0
    0.1770   13.2700   -1.3590 C   0  0  1  0  0  0  0  0  0  0  0  0
   -0.3840   14.1590   -2.5130 C   0  0  0  0  0  0  0  0  0  0  0  0
    0.7160   14.1340   -0.1730 C   0  0  2  0  0  0  0  0  0  0  0  0
   -0.3100   15.0930    0.4550 C   0  0  0  0  0  0  0  0  0  0  0  0
   -0.3600   16.4580   -0.1480 C   0  0  0  0  0  0  0  0  0  0  0  0
    0.5740   16.9900   -0.9580 C   0  0  0  0  0  0  0  0  0  0  0  0
    1.8740   16.2340   -1.2640 C   0  0  1  0  0  0  0  0  0  0  0  0
    3.0800   17.1980   -1.1170 C   0  0  0  0  0  0  0  0  0  0  0  0
    2.9260   18.4600   -1.9600 C   0  0  0  0  0  0  0  0  0  0  0  0
    1.6530   19.2150   -1.5860 C   0  0  2  0  0  0  0  0  0  0  0  0
    1.7900   19.7170   -0.2530 O   0  0  0  0  0  0  0  0  0  0  0  0
    0.3720   18.3410   -1.6870 C   0  0  0  0  0  0  0  0  0  0  0  0
    0.0570   18.0480   -3.1750 C   0  0  0  0  0  0  0  0  0  0  0  0
   -0.8200   19.1770   -1.1480 C   0  0  0  0  0  0  0  0  0  0  0  0
    2.0840   14.8690   -0.4770 C   0  0  1  0  0  0  0  0  0  0  0  0
    2.7560   15.1480    0.9020 C   0  0  0  0  0  0  0  0  0  0  0  0
    3.0860   13.9610   -1.2830 C   0  0  0  0  0  0  0  0  0  0  0  0
    2.4780   13.0410   -2.3590 C   0  0  0  0  0  0  0  0  0  0  0  0
    1.2910   12.2520   -1.7990 C   0  0  2  0  0  0  0  0  0  0  0  0
    1.8280   11.3310   -0.6510 C   0  0  0  0  0  0  0  0  0  0  0  0
    0.4251    8.9514   -1.4896 H   0  0  0  0  0  0  0  0  0  0  0  0
   -0.6747    8.9154   -2.9094 H   0  0  0  0  0  0  0  0  0  0  0  0
    0.8247    7.9262   -2.9094 H   0  0  0  0  0  0  0  0  0  0  0  0
    1.0921    9.9292   -4.3047 H   0  0  0  0  0  0  0  0  0  0  0  0
    2.7564   10.6139   -1.8922 H   0  0  0  0  0  0  0  0  0  0  0  0
    2.9280    8.9788   -2.6916 H   0  0  0  0  0  0  0  0  0  0  0  0
    3.5989    9.9417   -4.7456 H   0  0  0  0  0  0  0  0  0  0  0  0
    3.1563   11.6068   -4.1811 H   0  0  0  0  0  0  0  0  0  0  0  0
    4.7035   10.3042   -2.4319 H   0  0  0  0  0  0  0  0  0  0  0  0
    5.6535    9.5989   -5.9146 H   0  0  0  0  0  0  0  0  0  0  0  0
    5.4428   11.3645   -6.1698 H   0  0  0  0  0  0  0  0  0  0  0  0
    7.0897   10.6472   -6.1698 H   0  0  0  0  0  0  0  0  0  0  0  0
    7.4090   10.5569   -2.5200 H   0  0  0  0  0  0  0  0  0  0  0  0
    7.8647    9.5419   -3.9304 H   0  0  0  0  0  0  0  0  0  0  0  0
    8.2378   11.2990   -3.9304 H   0  0  0  0  0  0  0  0  0  0  0  0
    0.4628   11.8600   -3.7837 H   0  0  0  0  0  0  0  0  0  0  0  0
   -1.6786   11.2775   -2.8301 H   0  0  0  0  0  0  0  0  0  0  0  0
   -0.9395   10.1777   -1.6468 H   0  0  0  0  0  0  0  0  0  0  0  0
   -1.9441   12.7927   -1.0824 H   0  0  0  0  0  0  0  0  0  0  0  0
   -0.8881   11.8860   -0.0019 H   0  0  0  0  0  0  0  0  0  0  0  0
   -0.9249   15.0162   -2.0857 H   0  0  0  0  0  0  0  0  0  0  0  0
    0.4484   14.5229   -3.1333 H   0  0  0  0  0  0  0  0  0  0  0  0
   -1.0707   13.5643   -3.1333 H   0  0  0  0  0  0  0  0  0  0  0  0
    0.9246   13.3756    0.5960 H   0  0  0  0  0  0  0  0  0  0  0  0
   -1.3067   14.6393    0.3520 H   0  0  0  0  0  0  0  0  0  0  0  0
    0.0045   15.2333    1.4997 H   0  0  0  0  0  0  0  0  0  0  0  0
   -1.2343   17.0817    0.0899 H   0  0  0  0  0  0  0  0  0  0  0  0
    1.7912   15.8962   -2.3076 H   0  0  0  0  0  0  0  0  0  0  0  0
    3.1721   17.4889   -0.0602 H   0  0  0  0  0  0  0  0  0  0  0  0
    3.9765   16.6676   -1.4705 H   0  0  0  0  0  0  0  0  0  0  0  0
    3.7946   19.1135   -1.7915 H   0  0  0  0  0  0  0  0  0  0  0  0
    2.8628   18.1689   -3.0189 H   0  0  0  0  0  0  0  0  0  0  0  0
    1.5306   20.0356   -2.3083 H   0  0  0  0  0  0  0  0  0  0  0  0
    2.5260   20.3520   -0.2520 H   0  0  0  0  0  0  0  0  0  0  0  0
   -0.7471   17.3001   -3.2392 H   0  0  0  0  0  0  0  0  0  0  0  0
   -0.2645   18.9755   -3.6713 H   0  0  0  0  0  0  0  0  0  0  0  0
    0.9589   17.6603   -3.6713 H   0  0  0  0  0  0  0  0  0  0  0  0
   -0.8067   19.1677   -0.0481 H   0  0  0  0  0  0  0  0  0  0  0  0
   -0.7332   20.2131   -1.5070 H   0  0  0  0  0  0  0  0  0  0  0  0
   -1.7646   18.7425   -1.5070 H   0  0  0  0  0  0  0  0  0  0  0  0
    2.0669   14.8619    1.7103 H   0  0  0  0  0  0  0  0  0  0  0  0
    3.6820   14.5600    0.9843 H   0  0  0  0  0  0  0  0  0  0  0  0
    2.9932   16.2190    0.9843 H   0  0  0  0  0  0  0  0  0  0  0  0
    3.8085   14.6239   -1.7815 H   0  0  0  0  0  0  0  0  0  0  0  0
    3.5229   13.2814   -0.5365 H   0  0  0  0  0  0  0  0  0  0  0  0
    2.1351   13.6546   -3.2051 H   0  0  0  0  0  0  0  0  0  0  0  0
    3.2490   12.3285   -2.6874 H   0  0  0  0  0  0  0  0  0  0  0  0
    1.5709   11.7719    0.3234 H   0  0  0  0  0  0  0  0  0  0  0  0
    1.3692   10.3348   -0.7352 H   0  0  0  0  0  0  0  0  0  0  0  0
    2.9210   11.2396   -0.7352 H   0  0  0  0  0  0  0  0  0  0  0  0
  1  2  1  0
  2  3  1  0
  3  4  1  0
  4  5  1  0
  5  6  1  0
  6  7  1  0
  7  8  1  0
  7  9  1  0
  2 10  1  0
 10 11  1  0
 11 12  1  0
 12 13  1  0
 13 14  1  6
 13 15  1  0
 15 16  1  0
 16 17  1  0
 17 18  2  0
 18 19  1  0
 19 20  1  0
 20 21  1  0
 21 22  1  0
 22 23  1  0
 22 24  1  0
 24 25  1  0
 24 26  1  0
 19 27  1  0
 27 28  1  1
 27 29  1  0
 29 30  1  0
 30 31  1  0
 31 32  1  1
  7  5  1  0
 31 10  1  0
 31 13  1  0
 27 15  1  0
 24 18  1  0
  1 33  1  0
  1 34  1  0
  1 35  1  0
  2 36  1  6
  3 37  1  0
  3 38  1  0
  4 39  1  0
  4 40  1  0
  5 41  1  1
  8 42  1  0
  8 43  1  0
  8 44  1  0
  9 45  1  0
  9 46  1  0
  9 47  1  0
 10 48  1  6
 11 49  1  0
 11 50  1  0
 12 51  1  0
 12 52  1  0
 14 53  1  0
 14 54  1  0
 14 55  1  0
 15 56  1  1
 16 57  1  0
 16 58  1  0
 17 59  1  0
 19 60  1  6
 20 61  1  0
 20 62  1  0
 21 63  1  0
 21 64  1  0
 22 65  1  6
 23 66  1  0
 25 67  1  0
 25 68  1  0
 25 69  1  0
 26 70  1  0
 26 71  1  0
 26 72  1  0
 28 73  1  0
 28 74  1  0
 28 75  1  0
 29 76  1  0
 29 77  1  0
 30 78  1  0
 30 79  1  0
 32 80  1  0
 32 81  1  0
 32 82  1  0
M  END
>  <meeko>  (9) 
{"is_sidechain": [false], "intermolecular_energy": 2.731, "internal_energy": -0.839}

$$$$
EPH_relaxed_0001_pdb2pqr_Repair_212_r2_0001_out
     RDKit          3D

 82 86  0  0  0  0  0  0  0  0999 V2000
    3.1650   18.8010   -1.1620 C   0  0  0  0  0  0  0  0  0  0  0  0
    2.7450   17.7480   -2.1910 C   0  0  2  0  0  0  0  0  0  0  0  0
    1.3340   18.0140   -2.7520 C   0  0  0  0  0  0  0  0  0  0  0  0
    0.6940   19.3010   -2.2230 C   0  0  0  0  0  0  0  0  0  0  0  0
   -0.5880   19.0250   -1.4970 C   0  0  2  0  0  0  0  0  0  0  0  0
   -1.2620   20.1920   -1.0080 O   0  0  0  0  0  0  0  0  0  0  0  0
   -0.7790   19.2750   -0.0130 C   0  0  0  0  0  0  0  0  0  0  0  0
    0.3260   19.8240    0.8350 C   0  0  0  0  0  0  0  0  0  0  0  0
   -1.8660   18.5360    0.7030 C   0  0  0  0  0  0  0  0  0  0  0  0
    2.8050   16.3590   -1.5670 C   0  0  1  0  0  0  0  0  0  0  0  0
    3.3240   16.3820   -0.1050 C   0  0  0  0  0  0  0  0  0  0  0  0
    2.5610   15.2690    0.6580 C   0  0  0  0  0  0  0  0  0  0  0  0
    1.8820   14.4310   -0.4500 C   0  0  1  0  0  0  0  0  0  0  0  0
    3.0010   13.4790   -0.9760 C   0  0  0  0  0  0  0  0  0  0  0  0
    0.6010   13.6400   -0.0310 C   0  0  2  0  0  0  0  0  0  0  0  0
    0.8210   12.5650    1.0480 C   0  0  0  0  0  0  0  0  0  0  0  0
    1.1530   11.2030    0.5330 C   0  0  0  0  0  0  0  0  0  0  0  0
    0.9910   10.7860   -0.7370 C   0  0  0  0  0  0  0  0  0  0  0  0
    0.3340   11.6930   -1.7860 C   0  0  1  0  0  0  0  0  0  0  0  0
   -0.7200   10.8810   -2.5840 C   0  0  0  0  0  0  0  0  0  0  0  0
   -0.1400    9.6090   -3.1930 C   0  0  0  0  0  0  0  0  0  0  0  0
    0.4520    8.7070   -2.1130 C   0  0  2  0  0  0  0  0  0  0  0  0
   -0.6090    8.2270   -1.2820 O   0  0  0  0  0  0  0  0  0  0  0  0
    1.5200    9.4200   -1.2380 C   0  0  0  0  0  0  0  0  0  0  0  0
    2.7970    9.6710   -2.0770 C   0  0  0  0  0  0  0  0  0  0  0  0
    1.9320    8.4460   -0.1010 C   0  0  0  0  0  0  0  0  0  0  0  0
   -0.2390   13.0740   -1.2470 C   0  0  1  0  0  0  0  0  0  0  0  0
   -1.6970   12.8800   -0.7300 C   0  0  0  0  0  0  0  0  0  0  0  0
   -0.3240   14.0960   -2.4420 C   0  0  0  0  0  0  0  0  0  0  0  0
    0.9360   14.9340   -2.7310 C   0  0  0  0  0  0  0  0  0  0  0  0
    1.4730   15.5750   -1.4480 C   0  0  2  0  0  0  0  0  0  0  0  0
    0.3770   16.5560   -0.9080 C   0  0  0  0  0  0  0  0  0  0  0  0
    3.0074   18.4058   -0.1476 H   0  0  0  0  0  0  0  0  0  0  0  0
    4.2289   19.0442   -1.2995 H   0  0  0  0  0  0  0  0  0  0  0  0
    2.5605   19.7096   -1.2995 H   0  0  0  0  0  0  0  0  0  0  0  0
    3.4506   17.8080   -3.0327 H   0  0  0  0  0  0  0  0  0  0  0  0
    1.4036   18.0855   -3.8475 H   0  0  0  0  0  0  0  0  0  0  0  0
    0.6956   17.1797   -2.4257 H   0  0  0  0  0  0  0  0  0  0  0  0
    1.3964   19.7907   -1.5325 H   0  0  0  0  0  0  0  0  0  0  0  0
    0.4686   19.9500   -3.0820 H   0  0  0  0  0  0  0  0  0  0  0  0
   -0.7840   18.1458   -2.1283 H   0  0  0  0  0  0  0  0  0  0  0  0
    0.0706   19.6971    1.8974 H   0  0  0  0  0  0  0  0  0  0  0  0
    1.2593   19.2848    0.6153 H   0  0  0  0  0  0  0  0  0  0  0  0
    0.4600   20.8935    0.6153 H   0  0  0  0  0  0  0  0  0  0  0  0
   -1.7220   18.6339    1.7891 H   0  0  0  0  0  0  0  0  0  0  0  0
   -2.8424   18.9583    0.4230 H   0  0  0  0  0  0  0  0  0  0  0  0
   -1.8325   17.4728    0.4230 H   0  0  0  0  0  0  0  0  0  0  0  0
    3.4716   15.8621   -2.2873 H   0  0  0  0  0  0  0  0  0  0  0  0
    4.4056   16.1827   -0.0838 H   0  0  0  0  0  0  0  0  0  0  0  0
    3.1556   17.3653    0.3585 H   0  0  0  0  0  0  0  0  0  0  0  0
    3.2586   14.6496    1.2408 H   0  0  0  0  0  0  0  0  0  0  0  0
    1.8346   15.6781    1.3756 H   0  0  0  0  0  0  0  0  0  0  0  0
    3.5302   13.0288   -0.1232 H   0  0  0  0  0  0  0  0  0  0  0  0
    2.5488   12.6845   -1.5878 H   0  0  0  0  0  0  0  0  0  0  0  0
    3.7128   14.0526   -1.5878 H   0  0  0  0  0  0  0  0  0  0  0  0
   -0.0116   14.4201    0.4446 H   0  0  0  0  0  0  0  0  0  0  0  0
    1.6483   12.8954    1.6933 H   0  0  0  0  0  0  0  0  0  0  0  0
   -0.1378   12.4647    1.5777 H   0  0  0  0  0  0  0  0  0  0  0  0
    1.5647   10.4794    1.2519 H   0  0  0  0  0  0  0  0  0  0  0  0
    1.1423   12.0174   -2.4578 H   0  0  0  0  0  0  0  0  0  0  0  0
   -1.5401   10.6046   -1.9050 H   0  0  0  0  0  0  0  0  0  0  0  0
   -1.0744   11.5151   -3.4101 H   0  0  0  0  0  0  0  0  0  0  0  0
   -0.9387    9.0649   -3.7183 H   0  0  0  0  0  0  0  0  0  0  0  0
    0.6603    9.8889   -3.8938 H   0  0  0  0  0  0  0  0  0  0  0  0
    0.9658    7.8771   -2.6202 H   0  0  0  0  0  0  0  0  0  0  0  0
   -0.5710    7.2550   -1.2880 H   0  0  0  0  0  0  0  0  0  0  0  0
    3.6508    9.8388   -1.4040 H   0  0  0  0  0  0  0  0  0  0  0  0
    2.9969    8.7950   -2.7115 H   0  0  0  0  0  0  0  0  0  0  0  0
    2.6505   10.5575   -2.7115 H   0  0  0  0  0  0  0  0  0  0  0  0
    1.7334    8.9154    0.8738 H   0  0  0  0  0  0  0  0  0  0  0  0
    1.3500    7.5164   -0.1857 H   0  0  0  0  0  0  0  0  0  0  0  0
    3.0044    8.2162   -0.1857 H   0  0  0  0  0  0  0  0  0  0  0  0
   -1.6990   12.8797    0.3700 H   0  0  0  0  0  0  0  0  0  0  0  0
   -2.3288   13.7020   -1.0976 H   0  0  0  0  0  0  0  0  0  0  0  0
   -2.0919   11.9214   -1.0976 H   0  0  0  0  0  0  0  0  0  0  0  0
   -0.5596   13.5248   -3.3521 H   0  0  0  0  0  0  0  0  0  0  0  0
   -1.0918   14.8248   -2.1430 H   0  0  0  0  0  0  0  0  0  0  0  0
    1.7114   14.2821   -3.1596 H   0  0  0  0  0  0  0  0  0  0  0  0
    0.6713   15.7334   -3.4388 H   0  0  0  0  0  0  0  0  0  0  0  0
    0.3868   16.5472    0.1919 H   0  0  0  0  0  0  0  0  0  0  0  0
    0.5864   17.5740   -1.2684 H   0  0  0  0  0  0  0  0  0  0  0  0
   -0.6116   16.2355   -1.2684 H   0  0  0  0  0  0  0  0  0  0  0  0
  1  2  1  0
  2  3  1  0
  3  4  1  0
  4  5  1  0
  5  6  1  0
  6  7  1  0
  7  8  1  0
  7  9  1  0
  2 10  1  0
 10 11  1  0
 11 12  1  0
 12 13  1  0
 13 14  1  6
 13 15  1  0
 15 16  1  0
 16 17  1  0
 17 18  2  0
 18 19  1  0
 19 20  1  0
 20 21  1  0
 21 22  1  0
 22 23  1  0
 22 24  1  0
 24 25  1  0
 24 26  1  0
 19 27  1  0
 27 28  1  1
 27 29  1  0
 29 30  1  0
 30 31  1  0
 31 32  1  1
  7  5  1  0
 31 10  1  0
 31 13  1  0
 27 15  1  0
 24 18  1  0
  1 33  1  0
  1 34  1  0
  1 35  1  0
  2 36  1  6
  3 37  1  0
  3 38  1  0
  4 39  1  0
  4 40  1  0
  5 41  1  6
  8 42  1  0
  8 43  1  0
  8 44  1  0
  9 45  1  0
  9 46  1  0
  9 47  1  0
 10 48  1  6
 11 49  1  0
 11 50  1  0
 12 51  1  0
 12 52  1  0
 14 53  1  0
 14 54  1  0
 14 55  1  0
 15 56  1  1
 16 57  1  0
 16 58  1  0
 17 59  1  0
 19 60  1  6
 20 61  1  0
 20 62  1  0
 21 63  1  0
 21 64  1  0
 22 65  1  6
 23 66  1  0
 25 67  1  0
 25 68  1  0
 25 69  1  0
 26 70  1  0
 26 71  1  0
 26 72  1  0
 28 73  1  0
 28 74  1  0
 28 75  1  0
 29 76  1  0
 29 77  1  0
 30 78  1  0
 30 79  1  0
 32 80  1  0
 32 81  1  0
 32 82  1  0
M  END
>  <meeko>  (10) 
{"is_sidechain": [false], "intermolecular_energy": 2.731, "internal_energy": -0.839}

$$$$
EPH_relaxed_0001_pdb2pqr_Repair_212_r2_0001_out
     RDKit          3D

 82 86  0  0  0  0  0  0  0  0999 V2000
   -0.9330   16.3890   -5.8600 C   0  0  0  0  0  0  0  0  0  0  0  0
    0.1650   15.6960   -6.6720 C   0  0  2  0  0  0  0  0  0  0  0  0
   -0.2360   15.5090   -8.1490 C   0  0  0  0  0  0  0  0  0  0  0  0
    0.4240   16.5130   -9.0970 C   0  0  0  0  0  0  0  0  0  0  0  0
    1.8320   16.1180   -9.4300 C   0  0  2  0  0  0  0  0  0  0  0  0
    2.3400   16.6830  -10.6460 O   0  0  0  0  0  0  0  0  0  0  0  0
    2.1990   15.2530  -10.6220 C   0  0  0  0  0  0  0  0  0  0  0  0
    1.1540   14.7290  -11.5570 C   0  0  0  0  0  0  0  0  0  0  0  0
    3.5030   14.5190  -10.5980 C   0  0  0  0  0  0  0  0  0  0  0  0
    0.4990   14.3460   -6.0470 C   0  0  1  0  0  0  0  0  0  0  0  0
    1.7270   13.6680   -6.7120 C   0  0  0  0  0  0  0  0  0  0  0  0
    2.4800   12.9080   -5.5900 C   0  0  0  0  0  0  0  0  0  0  0  0
    1.4940   12.8950   -4.3980 C   0  0  1  0  0  0  0  0  0  0  0  0
    0.5090   11.7230   -4.7040 C   0  0  0  0  0  0  0  0  0  0  0  0
    2.1310   12.7580   -2.9770 C   0  0  2  0  0  0  0  0  0  0  0  0
    2.8980   11.4470   -2.7300 C   0  0  0  0  0  0  0  0  0  0  0  0
    2.0860   10.3290   -2.1660 C   0  0  0  0  0  0  0  0  0  0  0  0
    0.8680   10.4520   -1.6060 C   0  0  0  0  0  0  0  0  0  0  0  0
    0.2280   11.8320   -1.4070 C   0  0  1  0  0  0  0  0  0  0  0  0
   -0.3510   11.9320    0.0280 C   0  0  0  0  0  0  0  0  0  0  0  0
   -1.3100   10.7920    0.3540 C   0  0  0  0  0  0  0  0  0  0  0  0
   -0.6210    9.4380    0.2010 C   0  0  2  0  0  0  0  0  0  0  0  0
    0.3920    9.3210    1.2060 O   0  0  0  0  0  0  0  0  0  0  0  0
    0.0100    9.2270   -1.2040 C   0  0  0  0  0  0  0  0  0  0  0  0
   -1.1120    9.0530   -2.2570 C   0  0  0  0  0  0  0  0  0  0  0  0
    0.7940    7.8870   -1.1780 C   0  0  0  0  0  0  0  0  0  0  0  0
    1.1370   13.0790   -1.7880 C   0  0  1  0  0  0  0  0  0  0  0  0
    2.0190   13.4860   -0.5680 C   0  0  0  0  0  0  0  0  0  0  0  0
    0.2110   14.3140   -2.0980 C   0  0  0  0  0  0  0  0  0  0  0  0
   -0.2880   14.4600   -3.5480 C   0  0  0  0  0  0  0  0  0  0  0  0
    0.8690   14.3310   -4.5430 C   0  0  2  0  0  0  0  0  0  0  0  0
    1.8660   15.5090   -4.2740 C   0  0  0  0  0  0  0  0  0  0  0  0
   -0.7309   16.2614   -4.7863 H   0  0  0  0  0  0  0  0  0  0  0  0
   -0.9490   17.4612   -6.1052 H   0  0  0  0  0  0  0  0  0  0  0  0
   -1.9078   15.9422   -6.1052 H   0  0  0  0  0  0  0  0  0  0  0  0
    1.0528   16.3451   -6.6512 H   0  0  0  0  0  0  0  0  0  0  0  0
    0.0526   14.4946   -8.4616 H   0  0  0  0  0  0  0  0  0  0  0  0
   -1.3218   15.6739   -8.2109 H   0  0  0  0  0  0  0  0  0  0  0  0
   -0.1615   16.5635  -10.0268 H   0  0  0  0  0  0  0  0  0  0  0  0
    0.4517   17.4915   -8.5952 H   0  0  0  0  0  0  0  0  0  0  0  0
    2.0911   16.0518   -8.3630 H   0  0  0  0  0  0  0  0  0  0  0  0
    0.3190   14.3103  -10.9761 H   0  0  0  0  0  0  0  0  0  0  0  0
    0.7850   15.5487  -12.1910 H   0  0  0  0  0  0  0  0  0  0  0  0
    1.5901   13.9430  -12.1910 H   0  0  0  0  0  0  0  0  0  0  0  0
    3.8080   14.3473   -9.5552 H   0  0  0  0  0  0  0  0  0  0  0  0
    3.3892   13.5524  -11.1106 H   0  0  0  0  0  0  0  0  0  0  0  0
    4.2703   15.1178  -11.1106 H   0  0  0  0  0  0  0  0  0  0  0  0
   -0.4585   13.8276   -6.2037 H   0  0  0  0  0  0  0  0  0  0  0  0
    1.3961   12.9643   -7.4900 H   0  0  0  0  0  0  0  0  0  0  0  0
    2.3790   14.4136   -7.1904 H   0  0  0  0  0  0  0  0  0  0  0  0
    2.7183   11.8823   -5.9081 H   0  0  0  0  0  0  0  0  0  0  0  0
    3.4379   13.3842   -5.3339 H   0  0  0  0  0  0  0  0  0  0  0  0
    0.1469   11.2921   -3.7589 H   0  0  0  0  0  0  0  0  0  0  0  0
   -0.3445   12.1034   -5.2844 H   0  0  0  0  0  0  0  0  0  0  0  0
    1.0306   10.9477   -5.2844 H   0  0  0  0  0  0  0  0  0  0  0  0
    2.8914   13.5529   -2.9809 H   0  0  0  0  0  0  0  0  0  0  0  0
    3.3164   11.1120   -3.6906 H   0  0  0  0  0  0  0  0  0  0  0  0
    3.6618   11.6797   -1.9734 H   0  0  0  0  0  0  0  0  0  0  0  0
    2.5194    9.3190   -2.2118 H   0  0  0  0  0  0  0  0  0  0  0  0
   -0.5868   11.8988   -2.1429 H   0  0  0  0  0  0  0  0  0  0  0  0
    0.4817   11.9083    0.7464 H   0  0  0  0  0  0  0  0  0  0  0  0
   -0.9170   12.8729    0.0941 H   0  0  0  0  0  0  0  0  0  0  0  0
   -1.6609   10.9022    1.3907 H   0  0  0  0  0  0  0  0  0  0  0  0
   -2.1575   10.8355   -0.3458 H   0  0  0  0  0  0  0  0  0  0  0  0
   -1.3902    8.6605    0.3191 H   0  0  0  0  0  0  0  0  0  0  0  0
    0.4740   10.1860    1.6430 H   0  0  0  0  0  0  0  0  0  0  0  0
   -2.0746    8.9037   -1.7459 H   0  0  0  0  0  0  0  0  0  0  0  0
   -1.1669    9.9534   -2.8865 H   0  0  0  0  0  0  0  0  0  0  0  0
   -0.8916    8.1783   -2.8865 H   0  0  0  0  0  0  0  0  0  0  0  0
    0.9704    7.5856   -0.1349 H   0  0  0  0  0  0  0  0  0  0  0  0
    0.2083    7.1095   -1.6903 H   0  0  0  0  0  0  0  0  0  0  0  0
    1.7587    8.0166   -1.6903 H   0  0  0  0  0  0  0  0  0  0  0  0
    1.4897   13.2418    0.3648 H   0  0  0  0  0  0  0  0  0  0  0  0
    2.9710   12.9362   -0.6041 H   0  0  0  0  0  0  0  0  0  0  0  0
    2.2184   14.5672   -0.6041 H   0  0  0  0  0  0  0  0  0  0  0  0
   -0.6730   14.2390   -1.4476 H   0  0  0  0  0  0  0  0  0  0  0  0
    0.8404   15.1983   -1.9193 H   0  0  0  0  0  0  0  0  0  0  0  0
   -1.0290   13.6736   -3.7542 H   0  0  0  0  0  0  0  0  0  0  0  0
   -0.7402   15.4560   -3.6640 H   0  0  0  0  0  0  0  0  0  0  0  0
    1.9843   15.6488   -3.1894 H   0  0  0  0  0  0  0  0  0  0  0  0
    2.8424   15.2725   -4.7219 H   0  0  0  0  0  0  0  0  0  0  0  0
    1.4713   16.4329   -4.7219 H   0  0  0  0  0  0  0  0  0  0  0  0
  1  2  1  0
  2  3  1  0
  3  4  1  0
  4  5  1  0
  5  6  1  0
  6  7  1  0
  7  8  1  0
  7  9  1  0
  2 10  1  0
 10 11  1  0
 11 12  1  0
 12 13  1  0
 13 14  1  6
 13 15  1  0
 15 16  1  0
 16 17  1  0
 17 18  2  0
 18 19  1  0
 19 20  1  0
 20 21  1  0
 21 22  1  0
 22 23  1  0
 22 24  1  0
 24 25  1  0
 24 26  1  0
 19 27  1  0
 27 28  1  1
 27 29  1  0
 29 30  1  0
 30 31  1  0
 31 32  1  6
  7  5  1  0
 31 10  1  0
 31 13  1  0
 27 15  1  0
 24 18  1  0
  1 33  1  0
  1 34  1  0
  1 35  1  0
  2 36  1  6
  3 37  1  0
  3 38  1  0
  4 39  1  0
  4 40  1  0
  5 41  1  1
  8 42  1  0
  8 43  1  0
  8 44  1  0
  9 45  1  0
  9 46  1  0
  9 47  1  0
 10 48  1  1
 11 49  1  0
 11 50  1  0
 12 51  1  0
 12 52  1  0
 14 53  1  0
 14 54  1  0
 14 55  1  0
 15 56  1  6
 16 57  1  0
 16 58  1  0
 17 59  1  0
 19 60  1  6
 20 61  1  0
 20 62  1  0
 21 63  1  0
 21 64  1  0
 22 65  1  1
 23 66  1  0
 25 67  1  0
 25 68  1  0
 25 69  1  0
 26 70  1  0
 26 71  1  0
 26 72  1  0
 28 73  1  0
 28 74  1  0
 28 75  1  0
 29 76  1  0
 29 77  1  0
 30 78  1  0
 30 79  1  0
 32 80  1  0
 32 81  1  0
 32 82  1  0
M  END
>  <meeko>  (11) 
{"is_sidechain": [false], "intermolecular_energy": 2.731, "internal_energy": -0.839}

$$$$
EPH_relaxed_0001_pdb2pqr_Repair_212_r2_0001_out
     RDKit          3D

 82 86  0  0  0  0  0  0  0  0999 V2000
    0.0430    9.2310   -1.8210 C   0  0  0  0  0  0  0  0  0  0  0  0
    1.0550   10.2310   -2.3890 C   0  0  2  0  0  0  0  0  0  0  0  0
    2.4650    9.6210   -2.5180 C   0  0  0  0  0  0  0  0  0  0  0  0
    3.2970   10.2290   -3.6500 C   0  0  0  0  0  0  0  0  0  0  0  0
    4.7000   10.5210   -3.2110 C   0  0  2  0  0  0  0  0  0  0  0  0
    5.1990   11.8030   -3.6120 O   0  0  0  0  0  0  0  0  0  0  0  0
    5.8660   10.6600   -4.1720 C   0  0  0  0  0  0  0  0  0  0  0  0
    5.6810   10.5110   -5.6500 C   0  0  0  0  0  0  0  0  0  0  0  0
    7.2530   10.4560   -3.6490 C   0  0  0  0  0  0  0  0  0  0  0  0
    1.1040   11.4750   -1.5110 C   0  0  1  0  0  0  0  0  0  0  0  0
    2.1880   11.3830   -0.4040 C   0  0  0  0  0  0  0  0  0  0  0  0
    2.7530   12.8130   -0.2110 C   0  0  0  0  0  0  0  0  0  0  0  0
    1.7600   13.7300   -0.9620 C   0  0  1  0  0  0  0  0  0  0  0  0
    0.5710   13.9310    0.0290 C   0  0  0  0  0  0  0  0  0  0  0  0
    2.3270   15.0970   -1.4670 C   0  0  2  0  0  0  0  0  0  0  0  0
    2.8170   16.0480   -0.3610 C   0  0  0  0  0  0  0  0  0  0  0  0
    1.7890   16.9910    0.1700 C   0  0  0  0  0  0  0  0  0  0  0  0
    0.6080   17.2700   -0.4120 C   0  0  0  0  0  0  0  0  0  0  0  0
    0.2480   16.6830   -1.7830 C   0  0  1  0  0  0  0  0  0  0  0  0
   -0.3300   17.8010   -2.6890 C   0  0  0  0  0  0  0  0  0  0  0  0
   -1.5020   18.5330   -2.0420 C   0  0  0  0  0  0  0  0  0  0  0  0
   -1.0880   19.1520   -0.7090 C   0  0  2  0  0  0  0  0  0  0  0  0
   -0.1400   20.1940   -0.9600 O   0  0  0  0  0  0  0  0  0  0  0  0
   -0.4820   18.1210    0.2840 C   0  0  0  0  0  0  0  0  0  0  0  0
   -1.5940   17.1690    0.7890 C   0  0  0  0  0  0  0  0  0  0  0  0
    0.0220   18.8980    1.5300 C   0  0  0  0  0  0  0  0  0  0  0  0
    1.3910   15.8450   -2.5010 C   0  0  1  0  0  0  0  0  0  0  0  0
    2.3110   16.7970   -3.3250 C   0  0  0  0  0  0  0  0  0  0  0  0
    0.7330   14.8580   -3.5350 C   0  0  0  0  0  0  0  0  0  0  0  0
    0.3020   13.4780   -3.0020 C   0  0  0  0  0  0  0  0  0  0  0  0
    1.4330   12.8220   -2.2030 C   0  0  2  0  0  0  0  0  0  0  0  0
    2.6350   12.5870   -3.1790 C   0  0  0  0  0  0  0  0  0  0  0  0
    0.0743    9.2619   -0.7219 H   0  0  0  0  0  0  0  0  0  0  0  0
   -0.9673    9.4954   -2.1666 H   0  0  0  0  0  0  0  0  0  0  0  0
    0.2953    8.2176   -2.1666 H   0  0  0  0  0  0  0  0  0  0  0  0
    0.7197   10.5027   -3.4008 H   0  0  0  0  0  0  0  0  0  0  0  0
    3.0000    9.7794   -1.5700 H   0  0  0  0  0  0  0  0  0  0  0  0
    2.3337    8.5543   -2.7525 H   0  0  0  0  0  0  0  0  0  0  0  0
    3.3267    9.5205   -4.4909 H   0  0  0  0  0  0  0  0  0  0  0  0
    2.8270   11.1772   -3.9501 H   0  0  0  0  0  0  0  0  0  0  0  0
    4.5634    9.9222   -2.2985 H   0  0  0  0  0  0  0  0  0  0  0  0
    4.8382    9.8322   -5.8474 H   0  0  0  0  0  0  0  0  0  0  0  0
    5.4710   11.4951   -6.0943 H   0  0  0  0  0  0  0  0  0  0  0  0
    6.5978   10.0962   -6.0943 H   0  0  0  0  0  0  0  0  0  0  0  0
    7.2342   10.4588   -2.5492 H   0  0  0  0  0  0  0  0  0  0  0  0
    7.6415    9.4911   -4.0067 H   0  0  0  0  0  0  0  0  0  0  0  0
    7.9029   11.2682   -4.0067 H   0  0  0  0  0  0  0  0  0  0  0  0
    0.0666   11.4828   -1.1454 H   0  0  0  0  0  0  0  0  0  0  0  0
    1.7414   11.0224    0.5344 H   0  0  0  0  0  0  0  0  0  0  0  0
    2.9840   10.6791   -0.6884 H   0  0  0  0  0  0  0  0  0  0  0  0
    2.7914   13.0744    0.8568 H   0  0  0  0  0  0  0  0  0  0  0  0
    3.7803   12.9103   -0.5920 H   0  0  0  0  0  0  0  0  0  0  0  0
    0.9409   13.8685    1.0630 H   0  0  0  0  0  0  0  0  0  0  0  0
    0.1168   14.9187   -0.1388 H   0  0  0  0  0  0  0  0  0  0  0  0
   -0.1827   13.1475   -0.1388 H   0  0  0  0  0  0  0  0  0  0  0  0
    3.2283   14.7900   -2.0178 H   0  0  0  0  0  0  0  0  0  0  0  0
    3.1818   15.4357    0.4769 H   0  0  0  0  0  0  0  0  0  0  0  0
    3.5960   16.6740   -0.8207 H   0  0  0  0  0  0  0  0  0  0  0  0
    2.0160   17.5013    1.1176 H   0  0  0  0  0  0  0  0  0  0  0  0
   -0.5218   15.9202   -1.5943 H   0  0  0  0  0  0  0  0  0  0  0  0
    0.4664   18.5294   -2.9013 H   0  0  0  0  0  0  0  0  0  0  0  0
   -0.7009   17.3258   -3.6091 H   0  0  0  0  0  0  0  0  0  0  0  0
   -1.8464   19.3298   -2.7177 H   0  0  0  0  0  0  0  0  0  0  0  0
   -2.3101   17.8097   -1.8580 H   0  0  0  0  0  0  0  0  0  0  0  0
   -1.9969   19.5481   -0.2325 H   0  0  0  0  0  0  0  0  0  0  0  0
    0.3840   19.9350   -1.7360 H   0  0  0  0  0  0  0  0  0  0  0  0
   -1.6004   17.1635    1.8890 H   0  0  0  0  0  0  0  0  0  0  0  0
   -2.5699   17.5159    0.4184 H   0  0  0  0  0  0  0  0  0  0  0  0
   -1.4017   16.1513    0.4184 H   0  0  0  0  0  0  0  0  0  0  0  0
   -0.3119   18.3832    2.4430 H   0  0  0  0  0  0  0  0  0  0  0  0
    1.1210   18.9419    1.5149 H   0  0  0  0  0  0  0  0  0  0  0  0
   -0.3860   19.9194    1.5149 H   0  0  0  0  0  0  0  0  0  0  0  0
    2.9081   17.4149   -2.6383 H   0  0  0  0  0  0  0  0  0  0  0  0
    2.9828   16.1997   -3.9590 H   0  0  0  0  0  0  0  0  0  0  0  0
    1.6911   17.4480   -3.9590 H   0  0  0  0  0  0  0  0  0  0  0  0
   -0.1616   15.3513   -3.9428 H   0  0  0  0  0  0  0  0  0  0  0  0
    1.5209   14.6478   -4.2732 H   0  0  0  0  0  0  0  0  0  0  0  0
   -0.5748   13.6019   -2.3495 H   0  0  0  0  0  0  0  0  0  0  0  0
    0.0563   12.8321   -3.8579 H   0  0  0  0  0  0  0  0  0  0  0  0
    3.5507   12.4080   -2.5964 H   0  0  0  0  0  0  0  0  0  0  0  0
    2.4269   11.7125   -3.8130 H   0  0  0  0  0  0  0  0  0  0  0  0
    2.7716   13.4754   -3.8130 H   0  0  0  0  0  0  0  0  0  0  0  0
  1  2  1  0
  2  3  1  0
  3  4  1  0
  4  5  1  0
  5  6  1  0
  6  7  1  0
  7  8  1  0
  7  9  1  0
  2 10  1  0
 10 11  1  0
 11 12  1  0
 12 13  1  0
 13 14  1  1
 13 15  1  0
 15 16  1  0
 16 17  1  0
 17 18  2  0
 18 19  1  0
 19 20  1  0
 20 21  1  0
 21 22  1  0
 22 23  1  0
 22 24  1  0
 24 25  1  0
 24 26  1  0
 19 27  1  0
 27 28  1  6
 27 29  1  0
 29 30  1  0
 30 31  1  0
 31 32  1  6
  7  5  1  0
 31 10  1  0
 31 13  1  0
 27 15  1  0
 24 18  1  0
  1 33  1  0
  1 34  1  0
  1 35  1  0
  2 36  1  6
  3 37  1  0
  3 38  1  0
  4 39  1  0
  4 40  1  0
  5 41  1  1
  8 42  1  0
  8 43  1  0
  8 44  1  0
  9 45  1  0
  9 46  1  0
  9 47  1  0
 10 48  1  1
 11 49  1  0
 11 50  1  0
 12 51  1  0
 12 52  1  0
 14 53  1  0
 14 54  1  0
 14 55  1  0
 15 56  1  6
 16 57  1  0
 16 58  1  0
 17 59  1  0
 19 60  1  1
 20 61  1  0
 20 62  1  0
 21 63  1  0
 21 64  1  0
 22 65  1  1
 23 66  1  0
 25 67  1  0
 25 68  1  0
 25 69  1  0
 26 70  1  0
 26 71  1  0
 26 72  1  0
 28 73  1  0
 28 74  1  0
 28 75  1  0
 29 76  1  0
 29 77  1  0
 30 78  1  0
 30 79  1  0
 32 80  1  0
 32 81  1  0
 32 82  1  0
M  END
>  <meeko>  (12) 
{"is_sidechain": [false], "intermolecular_energy": 2.731, "internal_energy": -0.839}

$$$$
EPH_relaxed_0001_pdb2pqr_Repair_212_r2_0001_out
     RDKit          3D

 82 86  0  0  0  0  0  0  0  0999 V2000
   -4.0290    7.3690   -3.5530 C   0  0  0  0  0  0  0  0  0  0  0  0
   -3.6860    7.2800   -2.0630 C   0  0  2  0  0  0  0  0  0  0  0  0
   -4.8940    6.8330   -1.2150 C   0  0  0  0  0  0  0  0  0  0  0  0
   -6.1570    6.5610   -2.0370 C   0  0  0  0  0  0  0  0  0  0  0  0
   -7.3510    6.3360   -1.1600 C   0  0  2  0  0  0  0  0  0  0  0  0
   -8.4170    5.6020   -1.7770 O   0  0  0  0  0  0  0  0  0  0  0  0
   -8.7090    6.9630   -1.4190 C   0  0  0  0  0  0  0  0  0  0  0  0
   -8.9410    7.8640   -2.5910 C   0  0  0  0  0  0  0  0  0  0  0  0
   -9.6660    7.0930   -0.2760 C   0  0  0  0  0  0  0  0  0  0  0  0
   -3.1710    8.6260   -1.5680 C   0  0  1  0  0  0  0  0  0  0  0  0
   -3.8290    9.0620   -0.2310 C   0  0  0  0  0  0  0  0  0  0  0  0
   -2.7430    9.8180    0.5760 C   0  0  0  0  0  0  0  0  0  0  0  0
   -1.6110   10.0810   -0.4440 C   0  0  1  0  0  0  0  0  0  0  0  0
   -2.0740   11.3410   -1.2410 C   0  0  0  0  0  0  0  0  0  0  0  0
   -0.1760   10.2690    0.1480 C   0  0  2  0  0  0  0  0  0  0  0  0
   -0.0090   11.4800    1.0820 C   0  0  0  0  0  0  0  0  0  0  0  0
    0.4060   12.7490    0.4140 C   0  0  0  0  0  0  0  0  0  0  0  0
    0.9100   12.8490   -0.8300 C   0  0  0  0  0  0  0  0  0  0  0  0
    1.1990   11.5950   -1.6660 C   0  0  1  0  0  0  0  0  0  0  0  0
    2.6050   11.7150   -2.3110 C   0  0  0  0  0  0  0  0  0  0  0  0
    2.7730   13.0030   -3.1120 C   0  0  0  0  0  0  0  0  0  0  0  0
    2.5350   14.2270   -2.2330 C   0  0  2  0  0  0  0  0  0  0  0  0
    3.5770   14.3030   -1.2550 O   0  0  0  0  0  0  0  0  0  0  0  0
    1.1520   14.2120   -1.5230 C   0  0  0  0  0  0  0  0  0  0  0  0
    0.0290   14.4350   -2.5660 C   0  0  0  0  0  0  0  0  0  0  0  0
    1.0970   15.4290   -0.5600 C   0  0  0  0  0  0  0  0  0  0  0  0
    0.9830   10.2050   -0.9280 C   0  0  1  0  0  0  0  0  0  0  0  0
    2.2800    9.8020   -0.1620 C   0  0  0  0  0  0  0  0  0  0  0  0
    0.7370    9.0830   -2.0050 C   0  0  0  0  0  0  0  0  0  0  0  0
   -0.7180    8.8650   -2.4620 C   0  0  0  0  0  0  0  0  0  0  0  0
   -1.6570    8.7380   -1.2590 C   0  0  2  0  0  0  0  0  0  0  0  0
   -1.2290    7.4660   -0.4510 C   0  0  0  0  0  0  0  0  0  0  0  0
   -5.0877    7.6437   -3.6698 H   0  0  0  0  0  0  0  0  0  0  0  0
   -3.3972    8.1330   -4.0297 H   0  0  0  0  0  0  0  0  0  0  0  0
   -3.8484    6.3942   -4.0297 H   0  0  0  0  0  0  0  0  0  0  0  0
   -2.9021    6.5169   -1.9481 H   0  0  0  0  0  0  0  0  0  0  0  0
   -4.6214    5.9103   -0.6818 H   0  0  0  0  0  0  0  0  0  0  0  0
   -5.1290    7.6605   -0.5294 H   0  0  0  0  0  0  0  0  0  0  0  0
   -6.3512    7.4255   -2.6888 H   0  0  0  0  0  0  0  0  0  0  0  0
   -5.9905    5.6497   -2.6302 H   0  0  0  0  0  0  0  0  0  0  0  0
   -6.7151    6.2972   -0.2633 H   0  0  0  0  0  0  0  0  0  0  0  0
   -9.2004    8.8714   -2.2334 H   0  0  0  0  0  0  0  0  0  0  0  0
   -8.0268    7.9154   -3.2006 H   0  0  0  0  0  0  0  0  0  0  0  0
   -9.7663    7.4675   -3.2006 H   0  0  0  0  0  0  0  0  0  0  0  0
   -9.1155    7.0182    0.6734 H   0  0  0  0  0  0  0  0  0  0  0  0
  -10.1721    8.0681   -0.3306 H   0  0  0  0  0  0  0  0  0  0  0  0
  -10.4139    6.2882   -0.3306 H   0  0  0  0  0  0  0  0  0  0  0  0
   -3.4253    9.2517   -2.4362 H   0  0  0  0  0  0  0  0  0  0  0  0
   -4.6845    9.7248   -0.4282 H   0  0  0  0  0  0  0  0  0  0  0  0
   -4.2021    8.1912    0.3281 H   0  0  0  0  0  0  0  0  0  0  0  0
   -3.1402   10.7658    0.9682 H   0  0  0  0  0  0  0  0  0  0  0  0
   -2.3946    9.2430    1.4466 H   0  0  0  0  0  0  0  0  0  0  0  0
   -2.3654   12.1339   -0.5364 H   0  0  0  0  0  0  0  0  0  0  0  0
   -1.2484   11.6982   -1.8741 H   0  0  0  0  0  0  0  0  0  0  0  0
   -2.9345   11.0787   -1.8741 H   0  0  0  0  0  0  0  0  0  0  0  0
   -0.0670    9.3809    0.7878 H   0  0  0  0  0  0  0  0  0  0  0  0
   -0.9723   11.6586    1.5822 H   0  0  0  0  0  0  0  0  0  0  0  0
    0.8057   11.2202    1.7739 H   0  0  0  0  0  0  0  0  0  0  0  0
    0.2901   13.6809    0.9868 H   0  0  0  0  0  0  0  0  0  0  0  0
    0.4292   11.5692   -2.4513 H   0  0  0  0  0  0  0  0  0  0  0  0
    3.3619   11.6946   -1.5131 H   0  0  0  0  0  0  0  0  0  0  0  0
    2.7268   10.8711   -3.0060 H   0  0  0  0  0  0  0  0  0  0  0  0
    3.7948   13.0441   -3.5173 H   0  0  0  0  0  0  0  0  0  0  0  0
    2.0350   13.0078   -3.9277 H   0  0  0  0  0  0  0  0  0  0  0  0
    2.5413   15.1099   -2.8891 H   0  0  0  0  0  0  0  0  0  0  0  0
    4.2460   13.6360   -1.4860 H   0  0  0  0  0  0  0  0  0  0  0  0
   -0.9219   14.6238   -2.0463 H   0  0  0  0  0  0  0  0  0  0  0  0
    0.2806   15.3007   -3.1963 H   0  0  0  0  0  0  0  0  0  0  0  0
   -0.0693   13.5388   -3.1963 H   0  0  0  0  0  0  0  0  0  0  0  0
    1.1130   15.0739    0.4810 H   0  0  0  0  0  0  0  0  0  0  0  0
    1.9667   16.0781   -0.7394 H   0  0  0  0  0  0  0  0  0  0  0  0
    0.1723   15.9970   -0.7394 H   0  0  0  0  0  0  0  0  0  0  0  0
    2.0985    9.8584    0.9214 H   0  0  0  0  0  0  0  0  0  0  0  0
    2.5618    8.7740   -0.4335 H   0  0  0  0  0  0  0  0  0  0  0  0
    3.0948   10.4893   -0.4335 H   0  0  0  0  0  0  0  0  0  0  0  0
    1.3302    9.3403   -2.8949 H   0  0  0  0  0  0  0  0  0  0  0  0
    1.0277    8.1432   -1.5127 H   0  0  0  0  0  0  0  0  0  0  0  0
   -1.0342    9.7207   -3.0766 H   0  0  0  0  0  0  0  0  0  0  0  0
   -0.7668    7.9335   -3.0450 H   0  0  0  0  0  0  0  0  0  0  0  0
   -1.2994    7.6753    0.6266 H   0  0  0  0  0  0  0  0  0  0  0  0
   -1.8948    6.6284   -0.7061 H   0  0  0  0  0  0  0  0  0  0  0  0
   -0.1923    7.2012   -0.7061 H   0  0  0  0  0  0  0  0  0  0  0  0
  1  2  1  0
  2  3  1  0
  3  4  1  0
  4  5  1  0
  5  6  1  0
  6  7  1  0
  7  8  1  0
  7  9  1  0
  2 10  1  0
 10 11  1  0
 11 12  1  0
 12 13  1  0
 13 14  1  6
 13 15  1  0
 15 16  1  0
 16 17  1  0
 17 18  2  0
 18 19  1  0
 19 20  1  0
 20 21  1  0
 21 22  1  0
 22 23  1  0
 22 24  1  0
 24 25  1  0
 24 26  1  0
 19 27  1  0
 27 28  1  1
 27 29  1  0
 29 30  1  0
 30 31  1  0
 31 32  1  1
  7  5  1  0
 31 10  1  0
 31 13  1  0
 27 15  1  0
 24 18  1  0
  1 33  1  0
  1 34  1  0
  1 35  1  0
  2 36  1  6
  3 37  1  0
  3 38  1  0
  4 39  1  0
  4 40  1  0
  5 41  1  1
  8 42  1  0
  8 43  1  0
  8 44  1  0
  9 45  1  0
  9 46  1  0
  9 47  1  0
 10 48  1  6
 11 49  1  0
 11 50  1  0
 12 51  1  0
 12 52  1  0
 14 53  1  0
 14 54  1  0
 14 55  1  0
 15 56  1  1
 16 57  1  0
 16 58  1  0
 17 59  1  0
 19 60  1  6
 20 61  1  0
 20 62  1  0
 21 63  1  0
 21 64  1  0
 22 65  1  6
 23 66  1  0
 25 67  1  0
 25 68  1  0
 25 69  1  0
 26 70  1  0
 26 71  1  0
 26 72  1  0
 28 73  1  0
 28 74  1  0
 28 75  1  0
 29 76  1  0
 29 77  1  0
 30 78  1  0
 30 79  1  0
 32 80  1  0
 32 81  1  0
 32 82  1  0
M  END
>  <meeko>  (13) 
{"is_sidechain": [false], "intermolecular_energy": 2.731, "internal_energy": -0.839}

$$$$
EPH_relaxed_0001_pdb2pqr_Repair_212_r2_0001_out
     RDKit          3D

 82 86  0  0  0  0  0  0  0  0999 V2000
   -1.9520    7.7780   -2.1750 C   0  0  0  0  0  0  0  0  0  0  0  0
   -2.1150    8.4520   -0.8100 C   0  0  2  0  0  0  0  0  0  0  0  0
   -3.5800    8.4420   -0.3290 C   0  0  0  0  0  0  0  0  0  0  0  0
   -4.5610    7.8690   -1.3560 C   0  0  0  0  0  0  0  0  0  0  0  0
   -5.7170    7.1810   -0.6940 C   0  0  2  0  0  0  0  0  0  0  0  0
   -6.2430    6.0630   -1.4200 O   0  0  0  0  0  0  0  0  0  0  0  0
   -7.1260    7.1850   -1.2570 C   0  0  0  0  0  0  0  0  0  0  0  0
   -7.4540    7.8920   -2.5340 C   0  0  0  0  0  0  0  0  0  0  0  0
   -8.2680    6.9220   -0.3260 C   0  0  0  0  0  0  0  0  0  0  0  0
   -1.5970    9.8840   -0.8710 C   0  0  1  0  0  0  0  0  0  0  0  0
   -1.1430   10.4150    0.5140 C   0  0  0  0  0  0  0  0  0  0  0  0
    0.0710   11.3460    0.2610 C   0  0  0  0  0  0  0  0  0  0  0  0
    0.0690   11.5830   -1.2670 C   0  0  1  0  0  0  0  0  0  0  0  0
   -0.9970   12.7000   -1.4980 C   0  0  0  0  0  0  0  0  0  0  0  0
    1.4440   11.9550   -1.9110 C   0  0  2  0  0  0  0  0  0  0  0  0
    2.0600   13.2750   -1.4160 C   0  0  0  0  0  0  0  0  0  0  0  0
    1.6830   14.4880   -2.2000 C   0  0  0  0  0  0  0  0  0  0  0  0
    1.1170   14.4850   -3.4200 C   0  0  0  0  0  0  0  0  0  0  0  0
    0.8870   13.1720   -4.1800 C   0  0  1  0  0  0  0  0  0  0  0  0
    1.3630   13.3330   -5.6470 C   0  0  0  0  0  0  0  0  0  0  0  0
    0.7200   14.5290   -6.3430 C   0  0  0  0  0  0  0  0  0  0  0  0
    1.0190   15.8230   -5.5910 C   0  0  2  0  0  0  0  0  0  0  0  0
    2.4200   16.0960   -5.6820 O   0  0  0  0  0  0  0  0  0  0  0  0
    0.5920   15.7760   -4.0970 C   0  0  0  0  0  0  0  0  0  0  0  0
   -0.9540   15.7830   -3.9970 C   0  0  0  0  0  0  0  0  0  0  0  0
    1.0770   17.0860   -3.4200 C   0  0  0  0  0  0  0  0  0  0  0  0
    1.4670   11.8630   -3.4900 C   0  0  1  0  0  0  0  0  0  0  0  0
    2.9570   11.6590   -3.9030 C   0  0  0  0  0  0  0  0  0  0  0  0
    0.6810   10.6080   -4.0280 C   0  0  0  0  0  0  0  0  0  0  0  0
   -0.6060   10.2200   -3.2760 C   0  0  0  0  0  0  0  0  0  0  0  0
   -0.3610   10.1550   -1.7660 C   0  0  2  0  0  0  0  0  0  0  0  0
    0.6910    9.0240   -1.5000 C   0  0  0  0  0  0  0  0  0  0  0  0
   -1.6956    6.7179   -2.0322 H   0  0  0  0  0  0  0  0  0  0  0  0
   -2.8946    7.8548   -2.7368 H   0  0  0  0  0  0  0  0  0  0  0  0
   -1.1487    8.2771   -2.7368 H   0  0  0  0  0  0  0  0  0  0  0  0
   -1.5245    7.8742   -0.0837 H   0  0  0  0  0  0  0  0  0  0  0  0
   -3.6410    7.8346    0.5861 H   0  0  0  0  0  0  0  0  0  0  0  0
   -3.8693    9.4893   -0.1575 H   0  0  0  0  0  0  0  0  0  0  0  0
   -4.9443    8.6900   -1.9797 H   0  0  0  0  0  0  0  0  0  0  0  0
   -4.0245    7.1278   -1.9666 H   0  0  0  0  0  0  0  0  0  0  0  0
   -5.3204    7.4219    0.3033 H   0  0  0  0  0  0  0  0  0  0  0  0
   -7.9069    8.8683   -2.3067 H   0  0  0  0  0  0  0  0  0  0  0  0
   -6.5334    8.0417   -3.1171 H   0  0  0  0  0  0  0  0  0  0  0  0
   -8.1628    7.2858   -3.1171 H   0  0  0  0  0  0  0  0  0  0  0  0
   -7.9191    7.0023    0.7141 H   0  0  0  0  0  0  0  0  0  0  0  0
   -9.0637    7.6604   -0.5039 H   0  0  0  0  0  0  0  0  0  0  0  0
   -8.6605    5.9099   -0.5039 H   0  0  0  0  0  0  0  0  0  0  0  0
   -2.4830   10.3829   -1.2907 H   0  0  0  0  0  0  0  0  0  0  0  0
   -1.9594   10.9781    0.9898 H   0  0  0  0  0  0  0  0  0  0  0  0
   -0.8719    9.5864    1.1848 H   0  0  0  0  0  0  0  0  0  0  0  0
   -0.0492   12.2964    0.8015 H   0  0  0  0  0  0  0  0  0  0  0  0
    1.0152   10.9054    0.6136 H   0  0  0  0  0  0  0  0  0  0  0  0
   -1.3533   13.0733   -0.5266 H   0  0  0  0  0  0  0  0  0  0  0  0
   -0.5446   13.5269   -2.0651 H   0  0  0  0  0  0  0  0  0  0  0  0
   -1.8441   12.2868   -2.0651 H   0  0  0  0  0  0  0  0  0  0  0  0
    2.1030   11.1581   -1.5359 H   0  0  0  0  0  0  0  0  0  0  0  0
    1.7401   13.4301   -0.3750 H   0  0  0  0  0  0  0  0  0  0  0  0
    3.1484   13.1647   -1.5306 H   0  0  0  0  0  0  0  0  0  0  0  0
    1.8852   15.4671   -1.7411 H   0  0  0  0  0  0  0  0  0  0  0  0
   -0.1980   12.9926   -4.1581 H   0  0  0  0  0  0  0  0  0  0  0  0
    2.4547   13.4679   -5.6507 H   0  0  0  0  0  0  0  0  0  0  0  0
    1.0651   12.4275   -6.1959 H   0  0  0  0  0  0  0  0  0  0  0  0
    1.1175   14.6069   -7.3657 H   0  0  0  0  0  0  0  0  0  0  0  0
   -0.3695   14.3789   -6.3643 H   0  0  0  0  0  0  0  0  0  0  0  0
    0.4272   16.6220   -6.0616 H   0  0  0  0  0  0  0  0  0  0  0  0
    2.7640   16.1760   -4.7760 H   0  0  0  0  0  0  0  0  0  0  0  0
   -1.2530   15.7844   -2.9384 H   0  0  0  0  0  0  0  0  0  0  0  0
   -1.3493   16.6829   -4.4908 H   0  0  0  0  0  0  0  0  0  0  0  0
   -1.3574   14.8867   -4.4908 H   0  0  0  0  0  0  0  0  0  0  0  0
    1.0345   16.9713   -2.3268 H   0  0  0  0  0  0  0  0  0  0  0  0
    2.1124   17.2957   -3.7267 H   0  0  0  0  0  0  0  0  0  0  0  0
    0.4278   17.9194   -3.7267 H   0  0  0  0  0  0  0  0  0  0  0  0
    3.5794   11.5738   -3.0000 H   0  0  0  0  0  0  0  0  0  0  0  0
    3.0494   10.7398   -4.5001 H   0  0  0  0  0  0  0  0  0  0  0  0
    3.2931   12.5195   -4.5001 H   0  0  0  0  0  0  0  0  0  0  0  0
    0.4072   10.8101   -5.0740 H   0  0  0  0  0  0  0  0  0  0  0  0
    1.3645    9.7578   -3.8865 H   0  0  0  0  0  0  0  0  0  0  0  0
   -1.3833   10.9705   -3.4823 H   0  0  0  0  0  0  0  0  0  0  0  0
   -0.9279    9.2266   -3.6218 H   0  0  0  0  0  0  0  0  0  0  0  0
    0.8172    8.8883   -0.4157 H   0  0  0  0  0  0  0  0  0  0  0  0
    0.3394    8.0833   -1.9488 H   0  0  0  0  0  0  0  0  0  0  0  0
    1.6547    9.3067   -1.9488 H   0  0  0  0  0  0  0  0  0  0  0  0
  1  2  1  0
  2  3  1  0
  3  4  1  0
  4  5  1  0
  5  6  1  0
  6  7  1  0
  7  8  1  0
  7  9  1  0
  2 10  1  0
 10 11  1  0
 11 12  1  0
 12 13  1  0
 13 14  1  1
 13 15  1  0
 15 16  1  0
 16 17  1  0
 17 18  2  0
 18 19  1  0
 19 20  1  0
 20 21  1  0
 21 22  1  0
 22 23  1  0
 22 24  1  0
 24 25  1  0
 24 26  1  0
 19 27  1  0
 27 28  1  6
 27 29  1  0
 29 30  1  0
 30 31  1  0
 31 32  1  6
  7  5  1  0
 31 10  1  0
 31 13  1  0
 27 15  1  0
 24 18  1  0
  1 33  1  0
  1 34  1  0
  1 35  1  0
  2 36  1  1
  3 37  1  0
  3 38  1  0
  4 39  1  0
  4 40  1  0
  5 41  1  1
  8 42  1  0
  8 43  1  0
  8 44  1  0
  9 45  1  0
  9 46  1  0
  9 47  1  0
 10 48  1  6
 11 49  1  0
 11 50  1  0
 12 51  1  0
 12 52  1  0
 14 53  1  0
 14 54  1  0
 14 55  1  0
 15 56  1  1
 16 57  1  0
 16 58  1  0
 17 59  1  0
 19 60  1  6
 20 61  1  0
 20 62  1  0
 21 63  1  0
 21 64  1  0
 22 65  1  6
 23 66  1  0
 25 67  1  0
 25 68  1  0
 25 69  1  0
 26 70  1  0
 26 71  1  0
 26 72  1  0
 28 73  1  0
 28 74  1  0
 28 75  1  0
 29 76  1  0
 29 77  1  0
 30 78  1  0
 30 79  1  0
 32 80  1  0
 32 81  1  0
 32 82  1  0
M  END
>  <meeko>  (14) 
{"is_sidechain": [false], "intermolecular_energy": 2.731, "internal_energy": -0.839}

$$$$
EPH_relaxed_0001_pdb2pqr_Repair_212_r2_0001_out
     RDKit          3D

 82 86  0  0  0  0  0  0  0  0999 V2000
    2.9120   11.4250   -5.3390 C   0  0  0  0  0  0  0  0  0  0  0  0
    1.9000   11.1140   -4.2320 C   0  0  2  0  0  0  0  0  0  0  0  0
    0.7910   10.1560   -4.7110 C   0  0  0  0  0  0  0  0  0  0  0  0
   -0.2920    9.8950   -3.6610 C   0  0  0  0  0  0  0  0  0  0  0  0
    0.2300    9.0820   -2.5160 C   0  0  2  0  0  0  0  0  0  0  0  0
   -0.6260    8.0080   -2.1050 O   0  0  0  0  0  0  0  0  0  0  0  0
   -0.4180    9.0560   -1.1440 C   0  0  0  0  0  0  0  0  0  0  0  0
   -1.6450    9.8590   -0.8450 C   0  0  0  0  0  0  0  0  0  0  0  0
    0.4110    8.6400    0.0310 C   0  0  0  0  0  0  0  0  0  0  0  0
    1.2840   12.4080   -3.7140 C   0  0  1  0  0  0  0  0  0  0  0  0
   -0.2580   12.3150   -3.5600 C   0  0  0  0  0  0  0  0  0  0  0  0
   -0.6360   13.1680   -2.3220 C   0  0  0  0  0  0  0  0  0  0  0  0
    0.6400   13.9830   -2.0050 C   0  0  1  0  0  0  0  0  0  0  0  0
    0.6050   15.1850   -3.0010 C   0  0  0  0  0  0  0  0  0  0  0  0
    0.8040   14.4630   -0.5260 C   0  0  2  0  0  0  0  0  0  0  0  0
   -0.2860   15.4290   -0.0290 C   0  0  0  0  0  0  0  0  0  0  0  0
    0.0040   16.8790   -0.2360 C   0  0  0  0  0  0  0  0  0  0  0  0
    1.2080   17.4010   -0.5360 C   0  0  0  0  0  0  0  0  0  0  0  0
    2.4570   16.5130   -0.6000 C   0  0  1  0  0  0  0  0  0  0  0  0
    3.6180   17.1960    0.1710 C   0  0  0  0  0  0  0  0  0  0  0  0
    3.8860   18.6170   -0.3140 C   0  0  0  0  0  0  0  0  0  0  0  0
    2.6370   19.4840   -0.1810 C   0  0  2  0  0  0  0  0  0  0  0  0
    2.3410   19.6550    1.2090 O   0  0  0  0  0  0  0  0  0  0  0  0
    1.3990   18.8910   -0.9100 C   0  0  0  0  0  0  0  0  0  0  0  0
    1.6020   18.9860   -2.4420 C   0  0  0  0  0  0  0  0  0  0  0  0
    0.1750   19.7880   -0.5790 C   0  0  0  0  0  0  0  0  0  0  0  0
    2.2520   14.9950   -0.1750 C   0  0  1  0  0  0  0  0  0  0  0  0
    2.4180   14.8480    1.3690 C   0  0  0  0  0  0  0  0  0  0  0  0
    3.3860   14.1200   -0.8290 C   0  0  0  0  0  0  0  0  0  0  0  0
    3.1150   13.5760   -2.2440 C   0  0  0  0  0  0  0  0  0  0  0  0
    1.7400   12.9050   -2.3190 C   0  0  2  0  0  0  0  0  0  0  0  0
    1.7520   11.6780   -1.3440 C   0  0  0  0  0  0  0  0  0  0  0  0
    3.8707   11.7196   -4.8872 H   0  0  0  0  0  0  0  0  0  0  0  0
    3.0599   10.5308   -5.9624 H   0  0  0  0  0  0  0  0  0  0  0  0
    2.5322   12.2479   -5.9624 H   0  0  0  0  0  0  0  0  0  0  0  0
    2.4425   10.6090   -3.4192 H   0  0  0  0  0  0  0  0  0  0  0  0
    0.3142   10.5937   -5.6004 H   0  0  0  0  0  0  0  0  0  0  0  0
    1.2710    9.1897   -4.9250 H   0  0  0  0  0  0  0  0  0  0  0  0
   -0.6556   10.8594   -3.2767 H   0  0  0  0  0  0  0  0  0  0  0  0
   -1.1048    9.3296   -4.1403 H   0  0  0  0  0  0  0  0  0  0  0  0
    1.2680    9.2511   -2.8385 H   0  0  0  0  0  0  0  0  0  0  0  0
   -1.7722    9.9423    0.2444 H   0  0  0  0  0  0  0  0  0  0  0  0
   -1.5405   10.8640   -1.2798 H   0  0  0  0  0  0  0  0  0  0  0  0
   -2.5241    9.3610   -1.2798 H   0  0  0  0  0  0  0  0  0  0  0  0
   -0.1135    8.9032    0.9614 H   0  0  0  0  0  0  0  0  0  0  0  0
    0.5750    7.5528   -0.0025 H   0  0  0  0  0  0  0  0  0  0  0  0
    1.3807    9.1583   -0.0025 H   0  0  0  0  0  0  0  0  0  0  0  0
    1.6320   13.1026   -4.4927 H   0  0  0  0  0  0  0  0  0  0  0  0
   -0.7530   12.7115   -4.4587 H   0  0  0  0  0  0  0  0  0  0  0  0
   -0.5801   11.2708   -3.4335 H   0  0  0  0  0  0  0  0  0  0  0  0
   -1.4770   13.8380   -2.5542 H   0  0  0  0  0  0  0  0  0  0  0  0
   -0.9575   12.5490   -1.4714 H   0  0  0  0  0  0  0  0  0  0  0  0
    0.5775   16.1285   -2.4362 H   0  0  0  0  0  0  0  0  0  0  0  0
    1.5042   15.1628   -3.6342 H   0  0  0  0  0  0  0  0  0  0  0  0
   -0.2914   15.1105   -3.6342 H   0  0  0  0  0  0  0  0  0  0  0  0
    0.6594   13.5323    0.0422 H   0  0  0  0  0  0  0  0  0  0  0  0
   -1.2195   15.1900   -0.5595 H   0  0  0  0  0  0  0  0  0  0  0  0
   -0.3481   15.2835    1.0596 H   0  0  0  0  0  0  0  0  0  0  0  0
   -0.8375   17.5801   -0.1348 H   0  0  0  0  0  0  0  0  0  0  0  0
    2.7152   16.4282   -1.6659 H   0  0  0  0  0  0  0  0  0  0  0  0
    3.3592   17.2310    1.2395 H   0  0  0  0  0  0  0  0  0  0  0  0
    4.5291   16.6055   -0.0057 H   0  0  0  0  0  0  0  0  0  0  0  0
    4.6949   19.0563    0.2883 H   0  0  0  0  0  0  0  0  0  0  0  0
    4.1741   18.5772   -1.3748 H   0  0  0  0  0  0  0  0  0  0  0  0
    2.8520   20.4490   -0.6633 H   0  0  0  0  0  0  0  0  0  0  0  0
    2.3890   18.7800    1.6300 H   0  0  0  0  0  0  0  0  0  0  0  0
    2.5795   19.4434   -2.6547 H   0  0  0  0  0  0  0  0  0  0  0  0
    1.5660   17.9775   -2.8799 H   0  0  0  0  0  0  0  0  0  0  0  0
    0.8047   19.6045   -2.8799 H   0  0  0  0  0  0  0  0  0  0  0  0
    0.0643   19.8691    0.5124 H   0  0  0  0  0  0  0  0  0  0  0  0
    0.3278   20.7895   -1.0075 H   0  0  0  0  0  0  0  0  0  0  0  0
   -0.7340   19.3406   -1.0075 H   0  0  0  0  0  0  0  0  0  0  0  0
    1.6885   15.4940    1.8794 H   0  0  0  0  0  0  0  0  0  0  0  0
    2.2459   13.8008    1.6582 H   0  0  0  0  0  0  0  0  0  0  0  0
    3.4367   15.1456    1.6582 H   0  0  0  0  0  0  0  0  0  0  0  0
    4.2955   14.7368   -0.8782 H   0  0  0  0  0  0  0  0  0  0  0  0
    3.4670   13.2290   -0.1890 H   0  0  0  0  0  0  0  0  0  0  0  0
    3.1489   14.4085   -2.9622 H   0  0  0  0  0  0  0  0  0  0  0  0
    3.8843   12.8277   -2.4856 H   0  0  0  0  0  0  0  0  0  0  0  0
    1.7485   12.0361   -0.3039 H   0  0  0  0  0  0  0  0  0  0  0  0
    0.8599   11.0596   -1.5219 H   0  0  0  0  0  0  0  0  0  0  0  0
    2.6561   11.0771   -1.5219 H   0  0  0  0  0  0  0  0  0  0  0  0
  1  2  1  0
  2  3  1  0
  3  4  1  0
  4  5  1  0
  5  6  1  0
  6  7  1  0
  7  8  1  0
  7  9  1  0
  2 10  1  0
 10 11  1  0
 11 12  1  0
 12 13  1  0
 13 14  1  6
 13 15  1  0
 15 16  1  0
 16 17  1  0
 17 18  2  0
 18 19  1  0
 19 20  1  0
 20 21  1  0
 21 22  1  0
 22 23  1  0
 22 24  1  0
 24 25  1  0
 24 26  1  0
 19 27  1  0
 27 28  1  1
 27 29  1  0
 29 30  1  0
 30 31  1  0
 31 32  1  1
  7  5  1  0
 31 10  1  0
 31 13  1  0
 27 15  1  0
 24 18  1  0
  1 33  1  0
  1 34  1  0
  1 35  1  0
  2 36  1  1
  3 37  1  0
  3 38  1  0
  4 39  1  0
  4 40  1  0
  5 41  1  1
  8 42  1  0
  8 43  1  0
  8 44  1  0
  9 45  1  0
  9 46  1  0
  9 47  1  0
 10 48  1  6
 11 49  1  0
 11 50  1  0
 12 51  1  0
 12 52  1  0
 14 53  1  0
 14 54  1  0
 14 55  1  0
 15 56  1  1
 16 57  1  0
 16 58  1  0
 17 59  1  0
 19 60  1  6
 20 61  1  0
 20 62  1  0
 21 63  1  0
 21 64  1  0
 22 65  1  6
 23 66  1  0
 25 67  1  0
 25 68  1  0
 25 69  1  0
 26 70  1  0
 26 71  1  0
 26 72  1  0
 28 73  1  0
 28 74  1  0
 28 75  1  0
 29 76  1  0
 29 77  1  0
 30 78  1  0
 30 79  1  0
 32 80  1  0
 32 81  1  0
 32 82  1  0
M  END
>  <meeko>  (15) 
{"is_sidechain": [false], "intermolecular_energy": 2.731, "internal_energy": -0.839}

$$$$
EPH_relaxed_0001_pdb2pqr_Repair_212_r2_0001_out
     RDKit          3D

 82 86  0  0  0  0  0  0  0  0999 V2000
    4.2490   19.6290    0.7050 C   0  0  0  0  0  0  0  0  0  0  0  0
    2.7850   20.0120    0.9410 C   0  0  2  0  0  0  0  0  0  0  0  0
    2.4660   20.1930    2.4380 C   0  0  0  0  0  0  0  0  0  0  0  0
    3.0920   19.1220    3.3350 C   0  0  0  0  0  0  0  0  0  0  0  0
    4.5890   19.1990    3.3280 C   0  0  2  0  0  0  0  0  0  0  0  0
    5.2390   18.2910    4.2270 O   0  0  0  0  0  0  0  0  0  0  0  0
    5.4070   19.6890    4.5090 C   0  0  0  0  0  0  0  0  0  0  0  0
    4.7530   20.1370    5.7790 C   0  0  0  0  0  0  0  0  0  0  0  0
    6.7940   20.1930    4.2580 C   0  0  0  0  0  0  0  0  0  0  0  0
    1.8690   18.9540    0.3370 C   0  0  1  0  0  0  0  0  0  0  0  0
    1.0260   19.4990   -0.8470 C   0  0  0  0  0  0  0  0  0  0  0  0
    0.8780   18.3370   -1.8630 C   0  0  0  0  0  0  0  0  0  0  0  0
    1.3460   17.0820   -1.0900 C   0  0  1  0  0  0  0  0  0  0  0  0
    0.1140   16.6560   -0.2320 C   0  0  0  0  0  0  0  0  0  0  0  0
    1.8820   15.8970   -1.9580 C   0  0  2  0  0  0  0  0  0  0  0  0
    0.8550   15.2760   -2.9200 C   0  0  0  0  0  0  0  0  0  0  0  0
    0.0630   14.1400   -2.3620 C   0  0  0  0  0  0  0  0  0  0  0  0
    0.3620   13.4530   -1.2440 C   0  0  0  0  0  0  0  0  0  0  0  0
    1.6550   13.7360   -0.4680 C   0  0  1  0  0  0  0  0  0  0  0  0
    2.3520   12.3950   -0.1170 C   0  0  0  0  0  0  0  0  0  0  0  0
    1.4280   11.4300    0.6200 C   0  0  0  0  0  0  0  0  0  0  0  0
    0.1820   11.1280   -0.2080 C   0  0  2  0  0  0  0  0  0  0  0  0
    0.5700   10.3950   -1.3740 O   0  0  0  0  0  0  0  0  0  0  0  0
   -0.5980   12.4050   -0.6290 C   0  0  0  0  0  0  0  0  0  0  0  0
   -1.2740   13.0350    0.6130 C   0  0  0  0  0  0  0  0  0  0  0  0
   -1.7490   11.9710   -1.5760 C   0  0  0  0  0  0  0  0  0  0  0  0
    2.6480   14.7840   -1.1330 C   0  0  1  0  0  0  0  0  0  0  0  0
    3.5940   14.0580   -2.1370 C   0  0  0  0  0  0  0  0  0  0  0  0
    3.5720   15.3970   -0.0150 C   0  0  0  0  0  0  0  0  0  0  0  0
    3.0380   16.6390    0.7240 C   0  0  0  0  0  0  0  0  0  0  0  0
    2.5380   17.6940   -0.2670 C   0  0  2  0  0  0  0  0  0  0  0  0
    3.7600   18.1570   -1.1300 C   0  0  0  0  0  0  0  0  0  0  0  0
    4.7541   19.4969    1.6732 H   0  0  0  0  0  0  0  0  0  0  0  0
    4.2949   18.6886    0.1361 H   0  0  0  0  0  0  0  0  0  0  0  0
    4.7495   20.4264    0.1361 H   0  0  0  0  0  0  0  0  0  0  0  0
    2.6118   20.9800    0.4482 H   0  0  0  0  0  0  0  0  0  0  0  0
    2.8424   21.1762    2.7568 H   0  0  0  0  0  0  0  0  0  0  0  0
    1.3749   20.1055    2.5468 H   0  0  0  0  0  0  0  0  0  0  0  0
    2.7325   19.2647    4.3647 H   0  0  0  0  0  0  0  0  0  0  0  0
    2.7975   18.1354    2.9479 H   0  0  0  0  0  0  0  0  0  0  0  0
    4.5938   19.4725    2.2626 H   0  0  0  0  0  0  0  0  0  0  0  0
    5.3186   19.7495    6.6392 H   0  0  0  0  0  0  0  0  0  0  0  0
    4.7375   21.2363    5.8155 H   0  0  0  0  0  0  0  0  0  0  0  0
    3.7223   19.7543    5.8155 H   0  0  0  0  0  0  0  0  0  0  0  0
    7.2972   20.3758    5.2189 H   0  0  0  0  0  0  0  0  0  0  0  0
    7.3588   19.4426    3.6853 H   0  0  0  0  0  0  0  0  0  0  0  0
    6.7453   21.1309    3.6853 H   0  0  0  0  0  0  0  0  0  0  0  0
    1.2900   18.6798    1.2312 H   0  0  0  0  0  0  0  0  0  0  0  0
    0.0357   19.8194   -0.4911 H   0  0  0  0  0  0  0  0  0  0  0  0
    1.5129   20.3695   -1.3108 H   0  0  0  0  0  0  0  0  0  0  0  0
   -0.1697   18.2295   -2.1803 H   0  0  0  0  0  0  0  0  0  0  0  0
    1.4638   18.5059   -2.7786 H   0  0  0  0  0  0  0  0  0  0  0  0
    0.3634   16.7422    0.8359 H   0  0  0  0  0  0  0  0  0  0  0  0
   -0.7384   17.3116   -0.4636 H   0  0  0  0  0  0  0  0  0  0  0  0
   -0.1514   15.6139   -0.4636 H   0  0  0  0  0  0  0  0  0  0  0  0
    2.6284   16.3916   -2.5970 H   0  0  0  0  0  0  0  0  0  0  0  0
    0.1508   16.0656   -3.2211 H   0  0  0  0  0  0  0  0  0  0  0  0
    1.4352   14.8600   -3.7568 H   0  0  0  0  0  0  0  0  0  0  0  0
   -0.8414   13.8391   -2.9111 H   0  0  0  0  0  0  0  0  0  0  0  0
    1.3493   14.2509    0.4547 H   0  0  0  0  0  0  0  0  0  0  0  0
    2.6886   11.9181   -1.0493 H   0  0  0  0  0  0  0  0  0  0  0  0
    3.1969   12.6226    0.5496 H   0  0  0  0  0  0  0  0  0  0  0  0
    1.9680   10.4914    0.8132 H   0  0  0  0  0  0  0  0  0  0  0  0
    1.1162   11.8962    1.5662 H   0  0  0  0  0  0  0  0  0  0  0  0
   -0.4990   10.5385    0.4235 H   0  0  0  0  0  0  0  0  0  0  0  0
   -0.0700   10.5990   -2.0770 H   0  0  0  0  0  0  0  0  0  0  0  0
   -0.8254   12.6169    1.5262 H   0  0  0  0  0  0  0  0  0  0  0  0
   -1.1261   14.1249    0.5977 H   0  0  0  0  0  0  0  0  0  0  0  0
   -2.3508   12.8108    0.5977 H   0  0  0  0  0  0  0  0  0  0  0  0
   -2.6128   11.6453   -0.9779 H   0  0  0  0  0  0  0  0  0  0  0  0
   -2.0418   12.8205   -2.2106 H   0  0  0  0  0  0  0  0  0  0  0  0
   -1.4080   11.1397   -2.2106 H   0  0  0  0  0  0  0  0  0  0  0  0
    4.3464   13.4806   -1.5798 H   0  0  0  0  0  0  0  0  0  0  0  0
    3.0048   13.3781   -2.7698 H   0  0  0  0  0  0  0  0  0  0  0  0
    4.0984   14.8031   -2.7698 H   0  0  0  0  0  0  0  0  0  0  0  0
    3.7497   14.6135    0.7364 H   0  0  0  0  0  0  0  0  0  0  0  0
    4.4730   15.7419   -0.5435 H   0  0  0  0  0  0  0  0  0  0  0  0
    2.2071   16.3383    1.3791 H   0  0  0  0  0  0  0  0  0  0  0  0
    3.8570   17.0740    1.3157 H   0  0  0  0  0  0  0  0  0  0  0  0
    4.5806   18.4679   -0.4667 H   0  0  0  0  0  0  0  0  0  0  0  0
    4.0971   17.3243   -1.7648 H   0  0  0  0  0  0  0  0  0  0  0  0
    3.4607   19.0040   -1.7648 H   0  0  0  0  0  0  0  0  0  0  0  0
  1  2  1  0
  2  3  1  0
  3  4  1  0
  4  5  1  0
  5  6  1  0
  6  7  1  0
  7  8  1  0
  7  9  1  0
  2 10  1  0
 10 11  1  0
 11 12  1  0
 12 13  1  0
 13 14  1  1
 13 15  1  0
 15 16  1  0
 16 17  1  0
 17 18  2  0
 18 19  1  0
 19 20  1  0
 20 21  1  0
 21 22  1  0
 22 23  1  0
 22 24  1  0
 24 25  1  0
 24 26  1  0
 19 27  1  0
 27 28  1  6
 27 29  1  0
 29 30  1  0
 30 31  1  0
 31 32  1  6
  7  5  1  0
 31 10  1  0
 31 13  1  0
 27 15  1  0
 24 18  1  0
  1 33  1  0
  1 34  1  0
  1 35  1  0
  2 36  1  6
  3 37  1  0
  3 38  1  0
  4 39  1  0
  4 40  1  0
  5 41  1  6
  8 42  1  0
  8 43  1  0
  8 44  1  0
  9 45  1  0
  9 46  1  0
  9 47  1  0
 10 48  1  1
 11 49  1  0
 11 50  1  0
 12 51  1  0
 12 52  1  0
 14 53  1  0
 14 54  1  0
 14 55  1  0
 15 56  1  6
 16 57  1  0
 16 58  1  0
 17 59  1  0
 19 60  1  1
 20 61  1  0
 20 62  1  0
 21 63  1  0
 21 64  1  0
 22 65  1  1
 23 66  1  0
 25 67  1  0
 25 68  1  0
 25 69  1  0
 26 70  1  0
 26 71  1  0
 26 72  1  0
 28 73  1  0
 28 74  1  0
 28 75  1  0
 29 76  1  0
 29 77  1  0
 30 78  1  0
 30 79  1  0
 32 80  1  0
 32 81  1  0
 32 82  1  0
M  END
>  <meeko>  (16) 
{"is_sidechain": [false], "intermolecular_energy": 2.731, "internal_energy": -0.839}

$$$$
EPH_relaxed_0001_pdb2pqr_Repair_212_r2_0001_out
     RDKit          3D

 82 86  0  0  0  0  0  0  0  0999 V2000
    0.9660   14.9710   -2.7000 C   0  0  0  0  0  0  0  0  0  0  0  0
    1.2040   14.2970   -4.0550 C   0  0  2  0  0  0  0  0  0  0  0  0
    0.4700   15.0230   -5.2010 C   0  0  0  0  0  0  0  0  0  0  0  0
    0.9570   14.6210   -6.5950 C   0  0  0  0  0  0  0  0  0  0  0  0
    0.7960   15.7370   -7.5820 C   0  0  2  0  0  0  0  0  0  0  0  0
    0.4030   15.3220   -8.8970 O   0  0  0  0  0  0  0  0  0  0  0  0
    1.7010   15.9280   -8.7850 C   0  0  0  0  0  0  0  0  0  0  0  0
    2.8360   14.9930   -9.0630 C   0  0  0  0  0  0  0  0  0  0  0  0
    1.7880   17.2870   -9.4060 C   0  0  0  0  0  0  0  0  0  0  0  0
    0.7630   12.8400   -3.9950 C   0  0  1  0  0  0  0  0  0  0  0  0
    1.8950   11.8560   -4.3950 C   0  0  0  0  0  0  0  0  0  0  0  0
    1.7170   10.5890   -3.5190 C   0  0  0  0  0  0  0  0  0  0  0  0
    0.3120   10.7430   -2.8910 C   0  0  1  0  0  0  0  0  0  0  0  0
   -0.6780   10.2690   -4.0010 C   0  0  0  0  0  0  0  0  0  0  0  0
    0.0710    9.9900   -1.5430 C   0  0  2  0  0  0  0  0  0  0  0  0
    0.1840    8.4570   -1.6230 C   0  0  0  0  0  0  0  0  0  0  0  0
   -1.0890    7.7390   -1.9270 C   0  0  0  0  0  0  0  0  0  0  0  0
   -2.3240    8.2690   -1.8480 C   0  0  0  0  0  0  0  0  0  0  0  0
   -2.5380    9.6940   -1.3240 C   0  0  1  0  0  0  0  0  0  0  0  0
   -3.7030    9.6990   -0.2990 C   0  0  0  0  0  0  0  0  0  0  0  0
   -4.9810    9.0880   -0.8630 C   0  0  0  0  0  0  0  0  0  0  0  0
   -4.7420    7.6510   -1.3210 C   0  0  2  0  0  0  0  0  0  0  0  0
   -4.4620    6.8430   -0.1740 O   0  0  0  0  0  0  0  0  0  0  0  0
   -3.5840    7.5200   -2.3490 C   0  0  0  0  0  0  0  0  0  0  0  0
   -4.0140    8.1410   -3.7000 C   0  0  0  0  0  0  0  0  0  0  0  0
   -3.3550    6.0080   -2.6190 C   0  0  0  0  0  0  0  0  0  0  0  0
   -1.2410   10.4340   -0.7780 C   0  0  1  0  0  0  0  0  0  0  0  0
   -1.0210   10.0810    0.7250 C   0  0  0  0  0  0  0  0  0  0  0  0
   -1.4730   11.9900   -0.8400 C   0  0  0  0  0  0  0  0  0  0  0  0
   -1.1030   12.6950   -2.1590 C   0  0  0  0  0  0  0  0  0  0  0  0
    0.3000   12.2920   -2.6220 C   0  0  2  0  0  0  0  0  0  0  0  0
    1.3200   12.7760   -1.5350 C   0  0  0  0  0  0  0  0  0  0  0  0
    1.2145   14.2674   -1.8918 H   0  0  0  0  0  0  0  0  0  0  0  0
    1.6032   15.8638   -2.6176 H   0  0  0  0  0  0  0  0  0  0  0  0
   -0.0906   15.2657   -2.6176 H   0  0  0  0  0  0  0  0  0  0  0  0
    2.2821   14.3506   -4.2668 H   0  0  0  0  0  0  0  0  0  0  0  0
   -0.6029   14.7918   -5.1278 H   0  0  0  0  0  0  0  0  0  0  0  0
    0.6764   16.0973   -5.0856 H   0  0  0  0  0  0  0  0  0  0  0  0
    2.0210   14.3482   -6.5359 H   0  0  0  0  0  0  0  0  0  0  0  0
    0.3501   13.7700   -6.9379 H   0  0  0  0  0  0  0  0  0  0  0  0
    0.4709   16.4241   -6.7868 H   0  0  0  0  0  0  0  0  0  0  0  0
    3.2628   14.6414   -8.1121 H   0  0  0  0  0  0  0  0  0  0  0  0
    2.4687   14.1319   -9.6406 H   0  0  0  0  0  0  0  0  0  0  0  0
    3.6108   15.5184   -9.6406 H   0  0  0  0  0  0  0  0  0  0  0  0
    1.8368   18.0494   -8.6145 H   0  0  0  0  0  0  0  0  0  0  0  0
    2.6919   17.3478  -10.0299 H   0  0  0  0  0  0  0  0  0  0  0  0
    0.8993   17.4626  -10.0299 H   0  0  0  0  0  0  0  0  0  0  0  0
   -0.0877   12.8769   -4.6914 H   0  0  0  0  0  0  0  0  0  0  0  0
    1.8110   11.5948   -5.4602 H   0  0  0  0  0  0  0  0  0  0  0  0
    2.8853   12.3085   -4.2382 H   0  0  0  0  0  0  0  0  0  0  0  0
    1.7690    9.6798   -4.1360 H   0  0  0  0  0  0  0  0  0  0  0  0
    2.5058   10.4937   -2.7582 H   0  0  0  0  0  0  0  0  0  0  0  0
   -1.5757    9.8392   -3.5325 H   0  0  0  0  0  0  0  0  0  0  0  0
   -0.9658   11.1270   -4.6263 H   0  0  0  0  0  0  0  0  0  0  0  0
   -0.1901    9.5068   -4.6263 H   0  0  0  0  0  0  0  0  0  0  0  0
    0.9237   10.3210   -0.9319 H   0  0  0  0  0  0  0  0  0  0  0  0
    0.9101    8.2104   -2.4117 H   0  0  0  0  0  0  0  0  0  0  0  0
    0.4909    8.1217   -0.6213 H   0  0  0  0  0  0  0  0  0  0  0  0
   -1.0114    6.6880   -2.2422 H   0  0  0  0  0  0  0  0  0  0  0  0
   -2.8084   10.3030   -2.1993 H   0  0  0  0  0  0  0  0  0  0  0  0
   -3.3967    9.1215    0.5857 H   0  0  0  0  0  0  0  0  0  0  0  0
   -3.9185   10.7471   -0.0438 H   0  0  0  0  0  0  0  0  0  0  0  0
   -5.7571    9.0932   -0.0835 H   0  0  0  0  0  0  0  0  0  0  0  0
   -5.3028    9.6841   -1.7296 H   0  0  0  0  0  0  0  0  0  0  0  0
   -5.6544    7.3114   -1.8330 H   0  0  0  0  0  0  0  0  0  0  0  0
   -4.7060    7.3560    0.6150 H   0  0  0  0  0  0  0  0  0  0  0  0
   -4.6312    9.0323   -3.5139 H   0  0  0  0  0  0  0  0  0  0  0  0
   -3.1198    8.4273   -4.2731 H   0  0  0  0  0  0  0  0  0  0  0  0
   -4.5966    7.4047   -4.2731 H   0  0  0  0  0  0  0  0  0  0  0  0
   -3.2739    5.4727   -1.6615 H   0  0  0  0  0  0  0  0  0  0  0  0
   -4.2024    5.6056   -3.1934 H   0  0  0  0  0  0  0  0  0  0  0  0
   -2.4264    5.8746   -3.1934 H   0  0  0  0  0  0  0  0  0  0  0  0
   -1.4979   10.8463    1.3550 H   0  0  0  0  0  0  0  0  0  0  0  0
   -1.4672    9.0988    0.9401 H   0  0  0  0  0  0  0  0  0  0  0  0
    0.0573   10.0489    0.9401 H   0  0  0  0  0  0  0  0  0  0  0  0
   -2.5409   12.1751   -0.6518 H   0  0  0  0  0  0  0  0  0  0  0  0
   -0.7923   12.4130   -0.0865 H   0  0  0  0  0  0  0  0  0  0  0  0
   -1.8319   12.4144   -2.9336 H   0  0  0  0  0  0  0  0  0  0  0  0
   -1.1179   13.7821   -1.9915 H   0  0  0  0  0  0  0  0  0  0  0  0
    0.9088   12.5809   -0.5336 H   0  0  0  0  0  0  0  0  0  0  0  0
    2.2686   12.2320   -1.6542 H   0  0  0  0  0  0  0  0  0  0  0  0
    1.4985   13.8548   -1.6542 H   0  0  0  0  0  0  0  0  0  0  0  0
  1  2  1  0
  2  3  1  0
  3  4  1  0
  4  5  1  0
  5  6  1  0
  6  7  1  0
  7  8  1  0
  7  9  1  0
  2 10  1  0
 10 11  1  0
 11 12  1  0
 12 13  1  0
 13 14  1  6
 13 15  1  0
 15 16  1  0
 16 17  1  0
 17 18  2  0
 18 19  1  0
 19 20  1  0
 20 21  1  0
 21 22  1  0
 22 23  1  0
 22 24  1  0
 24 25  1  0
 24 26  1  0
 19 27  1  0
 27 28  1  1
 27 29  1  0
 29 30  1  0
 30 31  1  0
 31 32  1  1
  7  5  1  0
 31 10  1  0
 31 13  1  0
 27 15  1  0
 24 18  1  0
  1 33  1  0
  1 34  1  0
  1 35  1  0
  2 36  1  6
  3 37  1  0
  3 38  1  0
  4 39  1  0
  4 40  1  0
  5 41  1  1
  8 42  1  0
  8 43  1  0
  8 44  1  0
  9 45  1  0
  9 46  1  0
  9 47  1  0
 10 48  1  6
 11 49  1  0
 11 50  1  0
 12 51  1  0
 12 52  1  0
 14 53  1  0
 14 54  1  0
 14 55  1  0
 15 56  1  1
 16 57  1  0
 16 58  1  0
 17 59  1  0
 19 60  1  6
 20 61  1  0
 20 62  1  0
 21 63  1  0
 21 64  1  0
 22 65  1  6
 23 66  1  0
 25 67  1  0
 25 68  1  0
 25 69  1  0
 26 70  1  0
 26 71  1  0
 26 72  1  0
 28 73  1  0
 28 74  1  0
 28 75  1  0
 29 76  1  0
 29 77  1  0
 30 78  1  0
 30 79  1  0
 32 80  1  0
 32 81  1  0
 32 82  1  0
M  END
>  <meeko>  (17) 
{"is_sidechain": [false], "intermolecular_energy": 2.731, "internal_energy": -0.839}

$$$$
