EPH_relaxed_0001_pdb2pqr_Repair_315_r2_0001_out
     RDKit          3D

 82 86  0  0  0  0  0  0  0  0999 V2000
    3.1230   17.3600   -2.6180 C   0  0  0  0  0  0  0  0  0  0  0  0
    1.7180   17.5130   -3.2070 C   0  0  2  0  0  0  0  0  0  0  0  0
    0.8200   18.4190   -2.3420 C   0  0  0  0  0  0  0  0  0  0  0  0
    0.8100   18.0390   -0.8580 C   0  0  0  0  0  0  0  0  0  0  0  0
    1.1860   19.1990    0.0130 C   0  0  2  0  0  0  0  0  0  0  0  0
    2.2760   19.9900   -0.4800 O   0  0  0  0  0  0  0  0  0  0  0  0
    2.5060   19.2940    0.7560 C   0  0  0  0  0  0  0  0  0  0  0  0
    3.5340   18.2100    0.6610 C   0  0  0  0  0  0  0  0  0  0  0  0
    2.5940   20.1940    1.9480 C   0  0  0  0  0  0  0  0  0  0  0  0
    1.0710   16.1420   -3.3710 C   0  0  1  0  0  0  0  0  0  0  0  0
    0.8050   15.7800   -4.8560 C   0  0  0  0  0  0  0  0  0  0  0  0
    1.0210   14.2510   -4.9900 C   0  0  0  0  0  0  0  0  0  0  0  0
    1.0770   13.7360   -3.5320 C   0  0  1  0  0  0  0  0  0  0  0  0
   -0.4160   13.6140   -3.0930 C   0  0  0  0  0  0  0  0  0  0  0  0
    1.8580   12.4020   -3.3000 C   0  0  2  0  0  0  0  0  0  0  0  0
    1.2760   11.1720   -4.0180 C   0  0  0  0  0  0  0  0  0  0  0  0
    0.2720   10.3920   -3.2360 C   0  0  0  0  0  0  0  0  0  0  0  0
    0.0610   10.4960   -1.9100 C   0  0  0  0  0  0  0  0  0  0  0  0
    0.9440   11.4000   -1.0410 C   0  0  1  0  0  0  0  0  0  0  0  0
    1.3740   10.6320    0.2360 C   0  0  0  0  0  0  0  0  0  0  0  0
    0.1850   10.0630    1.0050 C   0  0  0  0  0  0  0  0  0  0  0  0
   -0.6350    9.1240    0.1250 C   0  0  2  0  0  0  0  0  0  0  0  0
    0.1530    7.9680   -0.1750 O   0  0  0  0  0  0  0  0  0  0  0  0
   -1.1160    9.7860   -1.1970 C   0  0  0  0  0  0  0  0  0  0  0  0
   -2.2030   10.8430   -0.8830 C   0  0  0  0  0  0  0  0  0  0  0  0
   -1.8080    8.6930   -2.0540 C   0  0  0  0  0  0  0  0  0  0  0  0
    2.1700   12.0900   -1.7810 C   0  0  1  0  0  0  0  0  0  0  0  0
    3.4040   11.1360   -1.7670 C   0  0  0  0  0  0  0  0  0  0  0  0
    2.5950   13.3780   -0.9810 C   0  0  0  0  0  0  0  0  0  0  0  0
    1.8700   14.6890   -1.3390 C   0  0  0  0  0  0  0  0  0  0  0  0
    1.8640   14.9150   -2.8540 C   0  0  2  0  0  0  0  0  0  0  0  0
    3.3520   15.0640   -3.3220 C   0  0  0  0  0  0  0  0  0  0  0  0
    3.0629   17.3666   -1.5197 H   0  0  0  0  0  0  0  0  0  0  0  0
    3.5605   16.4089   -2.9556 H   0  0  0  0  0  0  0  0  0  0  0  0
    3.7550   18.1946   -2.9556 H   0  0  0  0  0  0  0  0  0  0  0  0
    1.8227   17.9952   -4.1901 H   0  0  0  0  0  0  0  0  0  0  0  0
    1.1805   19.4542   -2.4331 H   0  0  0  0  0  0  0  0  0  0  0  0
   -0.2091   18.2992   -2.7117 H   0  0  0  0  0  0  0  0  0  0  0  0
   -0.1997   17.6996   -0.5836 H   0  0  0  0  0  0  0  0  0  0  0  0
    1.5498   17.2397   -0.7034 H   0  0  0  0  0  0  0  0  0  0  0  0
    0.1434   19.3199    0.3422 H   0  0  0  0  0  0  0  0  0  0  0  0
    3.8311   17.8967    1.6727 H   0  0  0  0  0  0  0  0  0  0  0  0
    3.1115   17.3503    0.1202 H   0  0  0  0  0  0  0  0  0  0  0  0
    4.4149   18.5864    0.1202 H   0  0  0  0  0  0  0  0  0  0  0  0
    2.5352   19.5922    2.8669 H   0  0  0  0  0  0  0  0  0  0  0  0
    3.5497   20.7383    1.9267 H   0  0  0  0  0  0  0  0  0  0  0  0
    1.7619   20.9131    1.9267 H   0  0  0  0  0  0  0  0  0  0  0  0
    0.1676   16.2908   -2.7613 H   0  0  0  0  0  0  0  0  0  0  0  0
   -0.2274   16.0421   -5.1305 H   0  0  0  0  0  0  0  0  0  0  0  0
    1.4805   16.3341   -5.5244 H   0  0  0  0  0  0  0  0  0  0  0  0
    0.1852   13.7869   -5.5340 H   0  0  0  0  0  0  0  0  0  0  0  0
    1.9329   14.0062   -5.5544 H   0  0  0  0  0  0  0  0  0  0  0  0
   -0.4760   13.6091   -1.9946 H   0  0  0  0  0  0  0  0  0  0  0  0
   -0.9852   14.4686   -3.4875 H   0  0  0  0  0  0  0  0  0  0  0  0
   -0.8389   12.6783   -3.4875 H   0  0  0  0  0  0  0  0  0  0  0  0
    2.8222   12.6050   -3.7890 H   0  0  0  0  0  0  0  0  0  0  0  0
    0.7923   11.5165   -4.9439 H   0  0  0  0  0  0  0  0  0  0  0  0
    2.1229   10.4913   -4.1897 H   0  0  0  0  0  0  0  0  0  0  0  0
   -0.3479    9.6714   -3.7895 H   0  0  0  0  0  0  0  0  0  0  0  0
    0.3181   12.2613   -0.7646 H   0  0  0  0  0  0  0  0  0  0  0  0
    2.0341    9.8023   -0.0570 H   0  0  0  0  0  0  0  0  0  0  0  0
    1.8888   11.3449    0.8969 H   0  0  0  0  0  0  0  0  0  0  0  0
    0.5546    9.5063    1.8788 H   0  0  0  0  0  0  0  0  0  0  0  0
   -0.4582   10.8965    1.3237 H   0  0  0  0  0  0  0  0  0  0  0  0
   -1.5408    8.8527    0.6871 H   0  0  0  0  0  0  0  0  0  0  0  0
    0.9440    7.9960    0.3900 H   0  0  0  0  0  0  0  0  0  0  0  0
   -2.3096   10.9467    0.2069 H   0  0  0  0  0  0  0  0  0  0  0  0
   -1.9097   11.8105   -1.3164 H   0  0  0  0  0  0  0  0  0  0  0  0
   -3.1619   10.5227   -1.3164 H   0  0  0  0  0  0  0  0  0  0  0  0
   -2.2779    7.9508   -1.3919 H   0  0  0  0  0  0  0  0  0  0  0  0
   -2.5772    9.1571   -2.6888 H   0  0  0  0  0  0  0  0  0  0  0  0
   -1.0595    8.1963   -2.6888 H   0  0  0  0  0  0  0  0  0  0  0  0
    3.6867   10.9174   -0.7267 H   0  0  0  0  0  0  0  0  0  0  0  0
    3.1484   10.1983   -2.2822 H   0  0  0  0  0  0  0  0  0  0  0  0
    4.2471   11.6195   -2.2822 H   0  0  0  0  0  0  0  0  0  0  0  0
    2.4174   13.1804    0.0864 H   0  0  0  0  0  0  0  0  0  0  0  0
    3.6480   13.5490   -1.2494 H   0  0  0  0  0  0  0  0  0  0  0  0
    0.8320   14.6363   -0.9787 H   0  0  0  0  0  0  0  0  0  0  0  0
    2.4009   15.5256   -0.8613 H   0  0  0  0  0  0  0  0  0  0  0  0
    4.0084   15.1297   -2.4418 H   0  0  0  0  0  0  0  0  0  0  0  0
    3.6356   14.1898   -3.9264 H   0  0  0  0  0  0  0  0  0  0  0  0
    3.4566   15.9771   -3.9264 H   0  0  0  0  0  0  0  0  0  0  0  0
  1  2  1  0
  2  3  1  0
  3  4  1  0
  4  5  1  0
  5  6  1  0
  6  7  1  0
  7  8  1  0
  7  9  1  0
  2 10  1  0
 10 11  1  0
 11 12  1  0
 12 13  1  0
 13 14  1  1
 13 15  1  0
 15 16  1  0
 16 17  1  0
 17 18  2  0
 18 19  1  0
 19 20  1  0
 20 21  1  0
 21 22  1  0
 22 23  1  0
 22 24  1  0
 24 25  1  0
 24 26  1  0
 19 27  1  0
 27 28  1  6
 27 29  1  0
 29 30  1  0
 30 31  1  0
 31 32  1  6
  7  5  1  0
 31 10  1  0
 31 13  1  0
 27 15  1  0
 24 18  1  0
  1 33  1  0
  1 34  1  0
  1 35  1  0
  2 36  1  6
  3 37  1  0
  3 38  1  0
  4 39  1  0
  4 40  1  0
  5 41  1  1
  8 42  1  0
  8 43  1  0
  8 44  1  0
  9 45  1  0
  9 46  1  0
  9 47  1  0
 10 48  1  1
 11 49  1  0
 11 50  1  0
 12 51  1  0
 12 52  1  0
 14 53  1  0
 14 54  1  0
 14 55  1  0
 15 56  1  6
 16 57  1  0
 16 58  1  0
 17 59  1  0
 19 60  1  1
 20 61  1  0
 20 62  1  0
 21 63  1  0
 21 64  1  0
 22 65  1  1
 23 66  1  0
 25 67  1  0
 25 68  1  0
 25 69  1  0
 26 70  1  0
 26 71  1  0
 26 72  1  0
 28 73  1  0
 28 74  1  0
 28 75  1  0
 29 76  1  0
 29 77  1  0
 30 78  1  0
 30 79  1  0
 32 80  1  0
 32 81  1  0
 32 82  1  0
M  END
>  <meeko>  (1) 
{"is_sidechain": [false], "intermolecular_energy": 2.731, "internal_energy": -0.839}

$$$$
EPH_relaxed_0001_pdb2pqr_Repair_315_r2_0001_out
     RDKit          3D

 82 86  0  0  0  0  0  0  0  0999 V2000
    2.7780   17.2320   -1.6430 C   0  0  0  0  0  0  0  0  0  0  0  0
    1.8420   17.3480   -2.8500 C   0  0  2  0  0  0  0  0  0  0  0  0
    0.8140   18.4840   -2.6810 C   0  0  0  0  0  0  0  0  0  0  0  0
    1.0620   19.3610   -1.4510 C   0  0  0  0  0  0  0  0  0  0  0  0
   -0.2000   20.0070   -0.9660 C   0  0  2  0  0  0  0  0  0  0  0  0
   -0.2710   20.1940    0.4530 O   0  0  0  0  0  0  0  0  0  0  0  0
   -1.2340   19.2920   -0.1160 C   0  0  0  0  0  0  0  0  0  0  0  0
   -1.0510   17.8660    0.2990 C   0  0  0  0  0  0  0  0  0  0  0  0
   -2.6350   19.8180   -0.1000 C   0  0  0  0  0  0  0  0  0  0  0  0
    1.1230   16.0240   -3.0790 C   0  0  1  0  0  0  0  0  0  0  0  0
    0.7350   15.8040   -4.5650 C   0  0  0  0  0  0  0  0  0  0  0  0
    0.8700   14.2840   -4.8420 C   0  0  0  0  0  0  0  0  0  0  0  0
    1.0050   13.6430   -3.4420 C   0  0  1  0  0  0  0  0  0  0  0  0
   -0.4570   13.5430   -2.9040 C   0  0  0  0  0  0  0  0  0  0  0  0
    1.7380   12.2630   -3.3810 C   0  0  2  0  0  0  0  0  0  0  0  0
    1.0500   11.1240   -4.1540 C   0  0  0  0  0  0  0  0  0  0  0  0
    0.0690   10.3210   -3.3670 C   0  0  0  0  0  0  0  0  0  0  0  0
   -0.0410   10.3170   -2.0250 C   0  0  0  0  0  0  0  0  0  0  0  0
    0.9420   11.1070   -1.1520 C   0  0  1  0  0  0  0  0  0  0  0  0
    1.4260   10.2130    0.0210 C   0  0  0  0  0  0  0  0  0  0  0  0
    0.2700    9.6280    0.8260 C   0  0  0  0  0  0  0  0  0  0  0  0
   -0.6540    8.8030   -0.0660 C   0  0  2  0  0  0  0  0  0  0  0  0
    0.0570    7.6460   -0.5200 O   0  0  0  0  0  0  0  0  0  0  0  0
   -1.1960    9.5960   -1.2870 C   0  0  0  0  0  0  0  0  0  0  0  0
   -2.2080   10.6650   -0.8060 C   0  0  0  0  0  0  0  0  0  0  0  0
   -1.9980    8.6100   -2.1790 C   0  0  0  0  0  0  0  0  0  0  0  0
    2.1430   11.8080   -1.9210 C   0  0  1  0  0  0  0  0  0  0  0  0
    3.3300   10.8080   -2.0790 C   0  0  0  0  0  0  0  0  0  0  0  0
    2.6830   13.0030   -1.0490 C   0  0  0  0  0  0  0  0  0  0  0  0
    1.9960   14.3690   -1.2420 C   0  0  0  0  0  0  0  0  0  0  0  0
    1.8930   14.7260   -2.7280 C   0  0  2  0  0  0  0  0  0  0  0  0
    3.3490   14.8560   -3.2910 C   0  0  0  0  0  0  0  0  0  0  0  0
    2.1911   17.3047   -0.7155 H   0  0  0  0  0  0  0  0  0  0  0  0
    3.2971   16.2627   -1.6734 H   0  0  0  0  0  0  0  0  0  0  0  0
    3.5180   18.0453   -1.6734 H   0  0  0  0  0  0  0  0  0  0  0  0
    2.4608   17.5913   -3.7263 H   0  0  0  0  0  0  0  0  0  0  0  0
    0.8518   19.1224   -3.5760 H   0  0  0  0  0  0  0  0  0  0  0  0
   -0.1692   18.0099   -2.5446 H   0  0  0  0  0  0  0  0  0  0  0  0
    1.4748   18.7362   -0.6453 H   0  0  0  0  0  0  0  0  0  0  0  0
    1.7669   20.1565   -1.7342 H   0  0  0  0  0  0  0  0  0  0  0  0
   -0.2842   20.5911   -1.8943 H   0  0  0  0  0  0  0  0  0  0  0  0
   -1.0428   17.8019    1.3971 H   0  0  0  0  0  0  0  0  0  0  0  0
   -1.8787   17.2596   -0.0975 H   0  0  0  0  0  0  0  0  0  0  0  0
   -0.0970   17.4883   -0.0975 H   0  0  0  0  0  0  0  0  0  0  0  0
   -2.9679   19.9430    0.9410 H   0  0  0  0  0  0  0  0  0  0  0  0
   -2.6678   20.7897   -0.6146 H   0  0  0  0  0  0  0  0  0  0  0  0
   -3.2991   19.1080   -0.6146 H   0  0  0  0  0  0  0  0  0  0  0  0
    0.2736   16.1548   -2.3924 H   0  0  0  0  0  0  0  0  0  0  0  0
   -0.3012   16.1301   -4.7383 H   0  0  0  0  0  0  0  0  0  0  0  0
    1.3856   16.3868   -5.2337 H   0  0  0  0  0  0  0  0  0  0  0  0
   -0.0228   13.9027   -5.3592 H   0  0  0  0  0  0  0  0  0  0  0  0
    1.7275   14.0528   -5.4911 H   0  0  0  0  0  0  0  0  0  0  0  0
   -0.4438   13.5439   -1.8041 H   0  0  0  0  0  0  0  0  0  0  0  0
   -1.0400   14.4034   -3.2644 H   0  0  0  0  0  0  0  0  0  0  0  0
   -0.9174   12.6113   -3.2644 H   0  0  0  0  0  0  0  0  0  0  0  0
    2.6734   12.4690   -3.9220 H   0  0  0  0  0  0  0  0  0  0  0  0
    0.5185   11.5664   -5.0094 H   0  0  0  0  0  0  0  0  0  0  0  0
    1.8499   10.4271   -4.4447 H   0  0  0  0  0  0  0  0  0  0  0  0
   -0.6228    9.6779   -3.9308 H   0  0  0  0  0  0  0  0  0  0  0  0
    0.3781   11.9658   -0.7590 H   0  0  0  0  0  0  0  0  0  0  0  0
    2.0240    9.3860   -0.3894 H   0  0  0  0  0  0  0  0  0  0  0  0
    2.0194   10.8440    0.6990 H   0  0  0  0  0  0  0  0  0  0  0  0
    0.6744    8.9828    1.6198 H   0  0  0  0  0  0  0  0  0  0  0  0
   -0.3092   10.4559    1.2608 H   0  0  0  0  0  0  0  0  0  0  0  0
   -1.5295    8.5206    0.5371 H   0  0  0  0  0  0  0  0  0  0  0  0
    0.5840    7.3130    0.2260 H   0  0  0  0  0  0  0  0  0  0  0  0
   -2.2262   10.6842    0.2937 H   0  0  0  0  0  0  0  0  0  0  0  0
   -1.9061   11.6525   -1.1850 H   0  0  0  0  0  0  0  0  0  0  0  0
   -3.2106   10.4176   -1.1850 H   0  0  0  0  0  0  0  0  0  0  0  0
   -2.5633    7.9150   -1.5407 H   0  0  0  0  0  0  0  0  0  0  0  0
   -2.6962    9.1750   -2.8141 H   0  0  0  0  0  0  0  0  0  0  0  0
   -1.3027    8.0415   -2.8141 H   0  0  0  0  0  0  0  0  0  0  0  0
    3.6893   10.5053   -1.0844 H   0  0  0  0  0  0  0  0  0  0  0  0
    2.9901    9.9199   -2.6320 H   0  0  0  0  0  0  0  0  0  0  0  0
    4.1475   11.2937   -2.6320 H   0  0  0  0  0  0  0  0  0  0  0  0
    2.5714   12.7207    0.0083 H   0  0  0  0  0  0  0  0  0  0  0  0
    3.7217   13.1537   -1.3783 H   0  0  0  0  0  0  0  0  0  0  0  0
    0.9848   14.3273   -0.8110 H   0  0  0  0  0  0  0  0  0  0  0  0
    2.5982   15.1388   -0.7373 H   0  0  0  0  0  0  0  0  0  0  0  0
    4.0611   14.9196   -2.4550 H   0  0  0  0  0  0  0  0  0  0  0  0
    3.5841   13.9753   -3.9067 H   0  0  0  0  0  0  0  0  0  0  0  0
    3.4243   15.7644   -3.9067 H   0  0  0  0  0  0  0  0  0  0  0  0
  1  2  1  0
  2  3  1  0
  3  4  1  0
  4  5  1  0
  5  6  1  0
  6  7  1  0
  7  8  1  0
  7  9  1  0
  2 10  1  0
 10 11  1  0
 11 12  1  0
 12 13  1  0
 13 14  1  1
 13 15  1  0
 15 16  1  0
 16 17  1  0
 17 18  2  0
 18 19  1  0
 19 20  1  0
 20 21  1  0
 21 22  1  0
 22 23  1  0
 22 24  1  0
 24 25  1  0
 24 26  1  0
 19 27  1  0
 27 28  1  6
 27 29  1  0
 29 30  1  0
 30 31  1  0
 31 32  1  6
  7  5  1  0
 31 10  1  0
 31 13  1  0
 27 15  1  0
 24 18  1  0
  1 33  1  0
  1 34  1  0
  1 35  1  0
  2 36  1  6
  3 37  1  0
  3 38  1  0
  4 39  1  0
  4 40  1  0
  5 41  1  6
  8 42  1  0
  8 43  1  0
  8 44  1  0
  9 45  1  0
  9 46  1  0
  9 47  1  0
 10 48  1  1
 11 49  1  0
 11 50  1  0
 12 51  1  0
 12 52  1  0
 14 53  1  0
 14 54  1  0
 14 55  1  0
 15 56  1  6
 16 57  1  0
 16 58  1  0
 17 59  1  0
 19 60  1  1
 20 61  1  0
 20 62  1  0
 21 63  1  0
 21 64  1  0
 22 65  1  1
 23 66  1  0
 25 67  1  0
 25 68  1  0
 25 69  1  0
 26 70  1  0
 26 71  1  0
 26 72  1  0
 28 73  1  0
 28 74  1  0
 28 75  1  0
 29 76  1  0
 29 77  1  0
 30 78  1  0
 30 79  1  0
 32 80  1  0
 32 81  1  0
 32 82  1  0
M  END
>  <meeko>  (2) 
{"is_sidechain": [false], "intermolecular_energy": 2.731, "internal_energy": -0.839}

$$$$
EPH_relaxed_0001_pdb2pqr_Repair_315_r2_0001_out
     RDKit          3D

 82 86  0  0  0  0  0  0  0  0999 V2000
    4.0090   18.4170    0.2410 C   0  0  0  0  0  0  0  0  0  0  0  0
    3.0160   18.8160   -0.8540 C   0  0  2  0  0  0  0  0  0  0  0  0
    2.1990   20.0660   -0.4680 C   0  0  0  0  0  0  0  0  0  0  0  0
    1.2060   19.8240    0.6730 C   0  0  0  0  0  0  0  0  0  0  0  0
   -0.1920   20.1940    0.2790 C   0  0  2  0  0  0  0  0  0  0  0  0
   -1.1400   20.1820    1.3540 O   0  0  0  0  0  0  0  0  0  0  0  0
   -1.3550   19.2200    0.3100 C   0  0  0  0  0  0  0  0  0  0  0  0
   -1.1720   17.7990    0.7440 C   0  0  0  0  0  0  0  0  0  0  0  0
   -2.5530   19.5090   -0.5390 C   0  0  0  0  0  0  0  0  0  0  0  0
    2.0780   17.6530   -1.1540 C   0  0  1  0  0  0  0  0  0  0  0  0
    0.8940   18.0610   -2.0700 C   0  0  0  0  0  0  0  0  0  0  0  0
    0.5880   16.8410   -2.9770 C   0  0  0  0  0  0  0  0  0  0  0  0
    1.3720   15.6730   -2.3360 C   0  0  1  0  0  0  0  0  0  0  0  0
    0.4710   15.1830   -1.1590 C   0  0  0  0  0  0  0  0  0  0  0  0
    1.7650   14.4980   -3.2900 C   0  0  2  0  0  0  0  0  0  0  0  0
    0.5800   13.7410   -3.9140 C   0  0  0  0  0  0  0  0  0  0  0  0
    0.0880   12.5690   -3.1320 C   0  0  0  0  0  0  0  0  0  0  0  0
    0.7490   11.9680   -2.1250 C   0  0  0  0  0  0  0  0  0  0  0  0
    2.1700   12.4020   -1.7460 C   0  0  1  0  0  0  0  0  0  0  0  0
    3.0660   11.1480   -1.5710 C   0  0  0  0  0  0  0  0  0  0  0  0
    2.4800   10.1430   -0.5840 C   0  0  0  0  0  0  0  0  0  0  0  0
    1.0910    9.6910   -1.0260 C   0  0  2  0  0  0  0  0  0  0  0  0
    1.2150    8.9380   -2.2360 O   0  0  0  0  0  0  0  0  0  0  0  0
    0.1030   10.8710   -1.2430 C   0  0  0  0  0  0  0  0  0  0  0  0
   -0.2660   11.5000    0.1230 C   0  0  0  0  0  0  0  0  0  0  0  0
   -1.2150   10.2890   -1.8230 C   0  0  0  0  0  0  0  0  0  0  0  0
    2.8330   13.5000   -2.6840 C   0  0  1  0  0  0  0  0  0  0  0  0
    3.5350   12.8120   -3.8950 C   0  0  0  0  0  0  0  0  0  0  0  0
    3.9630   14.2480   -1.8820 C   0  0  0  0  0  0  0  0  0  0  0  0
    3.5320   15.4730   -1.0530 C   0  0  0  0  0  0  0  0  0  0  0  0
    2.6770   16.4290   -1.8910 C   0  0  2  0  0  0  0  0  0  0  0  0
    3.5640   16.9550   -3.0700 C   0  0  0  0  0  0  0  0  0  0  0  0
    3.5586   18.5980    1.2281 H   0  0  0  0  0  0  0  0  0  0  0  0
    4.2560   17.3498    0.1408 H   0  0  0  0  0  0  0  0  0  0  0  0
    4.9258   19.0166    0.1408 H   0  0  0  0  0  0  0  0  0  0  0  0
    3.5974   19.0657   -1.7538 H   0  0  0  0  0  0  0  0  0  0  0  0
    2.8987   20.8561   -0.1578 H   0  0  0  0  0  0  0  0  0  0  0  0
    1.6098   20.3508   -1.3522 H   0  0  0  0  0  0  0  0  0  0  0  0
    1.2293   18.7587    0.9459 H   0  0  0  0  0  0  0  0  0  0  0  0
    1.5010   20.4555    1.5240 H   0  0  0  0  0  0  0  0  0  0  0  0
    0.1823   20.8721   -0.5020 H   0  0  0  0  0  0  0  0  0  0  0  0
   -1.1656   17.7492    1.8429 H   0  0  0  0  0  0  0  0  0  0  0  0
   -1.9988   17.1871    0.3540 H   0  0  0  0  0  0  0  0  0  0  0  0
   -0.2172   17.4166    0.3540 H   0  0  0  0  0  0  0  0  0  0  0  0
   -3.4185   19.7178    0.1070 H   0  0  0  0  0  0  0  0  0  0  0  0
   -2.3499   20.3839   -1.1740 H   0  0  0  0  0  0  0  0  0  0  0  0
   -2.7712   18.6377   -1.1740 H   0  0  0  0  0  0  0  0  0  0  0  0
    1.7958   17.3744   -0.1280 H   0  0  0  0  0  0  0  0  0  0  0  0
    0.0126   18.3106   -1.4610 H   0  0  0  0  0  0  0  0  0  0  0  0
    1.1474   18.9463   -2.6716 H   0  0  0  0  0  0  0  0  0  0  0  0
   -0.4906   16.6255   -2.9873 H   0  0  0  0  0  0  0  0  0  0  0  0
    0.8797   17.0151   -4.0232 H   0  0  0  0  0  0  0  0  0  0  0  0
    0.9463   15.4415   -0.2012 H   0  0  0  0  0  0  0  0  0  0  0  0
   -0.5132   15.6701   -1.2232 H   0  0  0  0  0  0  0  0  0  0  0  0
    0.3450   14.0921   -1.2232 H   0  0  0  0  0  0  0  0  0  0  0  0
    2.2560   15.0240   -4.1220 H   0  0  0  0  0  0  0  0  0  0  0  0
   -0.2543   14.4491   -4.0260 H   0  0  0  0  0  0  0  0  0  0  0  0
    0.9467   13.3367   -4.8690 H   0  0  0  0  0  0  0  0  0  0  0  0
   -0.8978   12.1619   -3.4011 H   0  0  0  0  0  0  0  0  0  0  0  0
    2.0797   12.9323   -0.7865 H   0  0  0  0  0  0  0  0  0  0  0  0
    3.1797   10.6568   -2.5486 H   0  0  0  0  0  0  0  0  0  0  0  0
    4.0344   11.4829   -1.1709 H   0  0  0  0  0  0  0  0  0  0  0  0
    3.1424    9.2667   -0.5265 H   0  0  0  0  0  0  0  0  0  0  0  0
    2.3952   10.6263    0.4005 H   0  0  0  0  0  0  0  0  0  0  0  0
    0.6709    9.0757   -0.2167 H   0  0  0  0  0  0  0  0  0  0  0  0
    0.5520    9.2760   -2.8620 H   0  0  0  0  0  0  0  0  0  0  0  0
    0.1096   10.8598    0.9349 H   0  0  0  0  0  0  0  0  0  0  0  0
    0.1898   12.4980    0.2023 H   0  0  0  0  0  0  0  0  0  0  0  0
   -1.3595   11.5890    0.2023 H   0  0  0  0  0  0  0  0  0  0  0  0
   -1.8804    9.9952   -0.9979 H   0  0  0  0  0  0  0  0  0  0  0  0
   -1.7118   11.0514   -2.4410 H   0  0  0  0  0  0  0  0  0  0  0  0
   -0.9862    9.4082   -2.4410 H   0  0  0  0  0  0  0  0  0  0  0  0
    4.2751   12.0866   -3.5261 H   0  0  0  0  0  0  0  0  0  0  0  0
    2.7838   12.2906   -4.5065 H   0  0  0  0  0  0  0  0  0  0  0  0
    4.0411   13.5735   -4.5065 H   0  0  0  0  0  0  0  0  0  0  0  0
    4.4172   13.5221   -1.1915 H   0  0  0  0  0  0  0  0  0  0  0  0
    4.6452   14.6447   -2.6483 H   0  0  0  0  0  0  0  0  0  0  0  0
    2.9467   15.1329   -0.1860 H   0  0  0  0  0  0  0  0  0  0  0  0
    4.4345   16.0079   -0.7224 H   0  0  0  0  0  0  0  0  0  0  0  0
    4.4431   17.4763   -2.6632 H   0  0  0  0  0  0  0  0  0  0  0  0
    3.8940   16.1065   -3.6874 H   0  0  0  0  0  0  0  0  0  0  0  0
    2.9778   17.6516   -3.6874 H   0  0  0  0  0  0  0  0  0  0  0  0
  1  2  1  0
  2  3  1  0
  3  4  1  0
  4  5  1  0
  5  6  1  0
  6  7  1  0
  7  8  1  0
  7  9  1  0
  2 10  1  0
 10 11  1  0
 11 12  1  0
 12 13  1  0
 13 14  1  1
 13 15  1  0
 15 16  1  0
 16 17  1  0
 17 18  2  0
 18 19  1  0
 19 20  1  0
 20 21  1  0
 21 22  1  0
 22 23  1  0
 22 24  1  0
 24 25  1  0
 24 26  1  0
 19 27  1  0
 27 28  1  6
 27 29  1  0
 29 30  1  0
 30 31  1  0
 31 32  1  6
  7  5  1  0
 31 10  1  0
 31 13  1  0
 27 15  1  0
 24 18  1  0
  1 33  1  0
  1 34  1  0
  1 35  1  0
  2 36  1  6
  3 37  1  0
  3 38  1  0
  4 39  1  0
  4 40  1  0
  5 41  1  6
  8 42  1  0
  8 43  1  0
  8 44  1  0
  9 45  1  0
  9 46  1  0
  9 47  1  0
 10 48  1  1
 11 49  1  0
 11 50  1  0
 12 51  1  0
 12 52  1  0
 14 53  1  0
 14 54  1  0
 14 55  1  0
 15 56  1  6
 16 57  1  0
 16 58  1  0
 17 59  1  0
 19 60  1  1
 20 61  1  0
 20 62  1  0
 21 63  1  0
 21 64  1  0
 22 65  1  1
 23 66  1  0
 25 67  1  0
 25 68  1  0
 25 69  1  0
 26 70  1  0
 26 71  1  0
 26 72  1  0
 28 73  1  0
 28 74  1  0
 28 75  1  0
 29 76  1  0
 29 77  1  0
 30 78  1  0
 30 79  1  0
 32 80  1  0
 32 81  1  0
 32 82  1  0
M  END
>  <meeko>  (3) 
{"is_sidechain": [false], "intermolecular_energy": 2.731, "internal_energy": -0.839}

$$$$
EPH_relaxed_0001_pdb2pqr_Repair_315_r2_0001_out
     RDKit          3D

 82 86  0  0  0  0  0  0  0  0999 V2000
    4.6310   17.7530   -0.9190 C   0  0  0  0  0  0  0  0  0  0  0  0
    3.2480   18.3480   -0.6380 C   0  0  2  0  0  0  0  0  0  0  0  0
    3.1760   19.0170    0.7500 C   0  0  0  0  0  0  0  0  0  0  0  0
    4.2640   18.5460    1.7180 C   0  0  0  0  0  0  0  0  0  0  0  0
    4.1150   19.1780    3.0690 C   0  0  2  0  0  0  0  0  0  0  0  0
    5.0820   20.1940    3.3640 O   0  0  0  0  0  0  0  0  0  0  0  0
    5.1310   19.0160    4.1850 C   0  0  0  0  0  0  0  0  0  0  0  0
    6.3690   18.1960    4.0000 C   0  0  0  0  0  0  0  0  0  0  0  0
    4.6860   19.2450    5.5960 C   0  0  0  0  0  0  0  0  0  0  0  0
    2.1830   17.2640   -0.7500 C   0  0  1  0  0  0  0  0  0  0  0  0
    0.8200   17.8150   -1.2480 C   0  0  0  0  0  0  0  0  0  0  0  0
    0.1840   16.7070   -2.1260 C   0  0  0  0  0  0  0  0  0  0  0  0
    1.0310   15.4460   -1.8370 C   0  0  1  0  0  0  0  0  0  0  0  0
    0.4670   14.8820   -0.4950 C   0  0  0  0  0  0  0  0  0  0  0  0
    1.0510   14.3560   -2.9570 C   0  0  2  0  0  0  0  0  0  0  0  0
   -0.3130   13.7190   -3.2740 C   0  0  0  0  0  0  0  0  0  0  0  0
   -0.6460   12.4980   -2.4820 C   0  0  0  0  0  0  0  0  0  0  0  0
    0.2270   11.7700   -1.7620 C   0  0  0  0  0  0  0  0  0  0  0  0
    1.7260   12.1000   -1.7740 C   0  0  1  0  0  0  0  0  0  0  0  0
    2.5410   10.7960   -1.9700 C   0  0  0  0  0  0  0  0  0  0  0  0
    2.1880    9.7250   -0.9420 C   0  0  0  0  0  0  0  0  0  0  0  0
    0.7020    9.3820   -1.0000 C   0  0  2  0  0  0  0  0  0  0  0  0
    0.4240    8.7490   -2.2530 O   0  0  0  0  0  0  0  0  0  0  0  0
   -0.2200   10.6210   -0.8250 C   0  0  0  0  0  0  0  0  0  0  0  0
   -0.1400   11.1270    0.6370 C   0  0  0  0  0  0  0  0  0  0  0  0
   -1.6860   10.1610   -1.0450 C   0  0  0  0  0  0  0  0  0  0  0  0
    2.1730   13.2550   -2.7700 C   0  0  1  0  0  0  0  0  0  0  0  0
    2.4520   12.6600   -4.1840 C   0  0  0  0  0  0  0  0  0  0  0  0
    3.5340   13.8670   -2.2690 C   0  0  0  0  0  0  0  0  0  0  0  0
    3.4450   15.0210   -1.2530 C   0  0  0  0  0  0  0  0  0  0  0  0
    2.4590   16.0940   -1.7260 C   0  0  2  0  0  0  0  0  0  0  0  0
    3.0120   16.6950   -3.0640 C   0  0  0  0  0  0  0  0  0  0  0  0
    5.1369   17.5354    0.0332 H   0  0  0  0  0  0  0  0  0  0  0  0
    4.5198   16.8231   -1.4960 H   0  0  0  0  0  0  0  0  0  0  0  0
    5.2297   18.4732   -1.4960 H   0  0  0  0  0  0  0  0  0  0  0  0
    3.0636   19.1283   -1.3910 H   0  0  0  0  0  0  0  0  0  0  0  0
    3.2767   20.1043    0.6170 H   0  0  0  0  0  0  0  0  0  0  0  0
    2.2089   18.7357    1.1923 H   0  0  0  0  0  0  0  0  0  0  0  0
    4.1964   17.4534    1.8261 H   0  0  0  0  0  0  0  0  0  0  0  0
    5.2405   18.8416    1.3068 H   0  0  0  0  0  0  0  0  0  0  0  0
    3.0239   19.0416    3.0390 H   0  0  0  0  0  0  0  0  0  0  0  0
    6.7792   17.9243    4.9838 H   0  0  0  0  0  0  0  0  0  0  0  0
    6.1229   17.2817    3.4401 H   0  0  0  0  0  0  0  0  0  0  0  0
    7.1149   18.7793    3.4401 H   0  0  0  0  0  0  0  0  0  0  0  0
    5.4461   18.8538    6.2883 H   0  0  0  0  0  0  0  0  0  0  0  0
    4.5534   20.3233    5.7682 H   0  0  0  0  0  0  0  0  0  0  0  0
    3.7315   18.7261    5.7682 H   0  0  0  0  0  0  0  0  0  0  0  0
    2.1841   16.8968    0.2869 H   0  0  0  0  0  0  0  0  0  0  0  0
    0.1673   18.0414   -0.3920 H   0  0  0  0  0  0  0  0  0  0  0  0
    0.9550   18.7443   -1.8209 H   0  0  0  0  0  0  0  0  0  0  0  0
   -0.8662   16.5425   -1.8433 H   0  0  0  0  0  0  0  0  0  0  0  0
    0.1805   16.9715   -3.1937 H   0  0  0  0  0  0  0  0  0  0  0  0
    0.9649   15.3799    0.3501 H   0  0  0  0  0  0  0  0  0  0  0  0
   -0.6158   15.0694   -0.4447 H   0  0  0  0  0  0  0  0  0  0  0  0
    0.6544   13.7992   -0.4447 H   0  0  0  0  0  0  0  0  0  0  0  0
    1.3214   14.9406   -3.8487 H   0  0  0  0  0  0  0  0  0  0  0  0
   -1.0923   14.4714   -3.0825 H   0  0  0  0  0  0  0  0  0  0  0  0
   -0.2613   13.3958   -4.3242 H   0  0  0  0  0  0  0  0  0  0  0  0
   -1.6944   12.1652   -2.4875 H   0  0  0  0  0  0  0  0  0  0  0  0
    1.9501   12.5354   -0.7890 H   0  0  0  0  0  0  0  0  0  0  0  0
    2.3366   10.4003   -2.9758 H   0  0  0  0  0  0  0  0  0  0  0  0
    3.6047   11.0447   -1.8411 H   0  0  0  0  0  0  0  0  0  0  0  0
    2.7751    8.8185   -1.1505 H   0  0  0  0  0  0  0  0  0  0  0  0
    2.4202   10.1113    0.0614 H   0  0  0  0  0  0  0  0  0  0  0  0
    0.4856    8.7086   -0.1576 H   0  0  0  0  0  0  0  0  0  0  0  0
    0.6310    9.3860   -2.9570 H   0  0  0  0  0  0  0  0  0  0  0  0
   -0.2739   10.2800    1.3260 H   0  0  0  0  0  0  0  0  0  0  0  0
    0.8425   11.5899    0.8116 H   0  0  0  0  0  0  0  0  0  0  0  0
   -0.9318   11.8704    0.8116 H   0  0  0  0  0  0  0  0  0  0  0  0
   -2.1726   10.0083   -0.0703 H   0  0  0  0  0  0  0  0  0  0  0  0
   -2.2311   10.9313   -1.6103 H   0  0  0  0  0  0  0  0  0  0  0  0
   -1.6933    9.2174   -1.6103 H   0  0  0  0  0  0  0  0  0  0  0  0
    2.9169   11.6686   -4.0794 H   0  0  0  0  0  0  0  0  0  0  0  0
    1.5048   12.5645   -4.7351 H   0  0  0  0  0  0  0  0  0  0  0  0
    3.1312   13.3271   -4.7351 H   0  0  0  0  0  0  0  0  0  0  0  0
    4.1113   13.0558   -1.8013 H   0  0  0  0  0  0  0  0  0  0  0  0
    3.9981   14.3070   -3.1640 H   0  0  0  0  0  0  0  0  0  0  0  0
    3.1064   14.6228   -0.2851 H   0  0  0  0  0  0  0  0  0  0  0  0
    4.4404   15.4787   -1.1544 H   0  0  0  0  0  0  0  0  0  0  0  0
    3.7407   17.4870   -2.8366 H   0  0  0  0  0  0  0  0  0  0  0  0
    3.5026   15.9017   -3.6471 H   0  0  0  0  0  0  0  0  0  0  0  0
    2.1807   17.1180   -3.6471 H   0  0  0  0  0  0  0  0  0  0  0  0
  1  2  1  0
  2  3  1  0
  3  4  1  0
  4  5  1  0
  5  6  1  0
  6  7  1  0
  7  8  1  0
  7  9  1  0
  2 10  1  0
 10 11  1  0
 11 12  1  0
 12 13  1  0
 13 14  1  1
 13 15  1  0
 15 16  1  0
 16 17  1  0
 17 18  2  0
 18 19  1  0
 19 20  1  0
 20 21  1  0
 21 22  1  0
 22 23  1  0
 22 24  1  0
 24 25  1  0
 24 26  1  0
 19 27  1  0
 27 28  1  6
 27 29  1  0
 29 30  1  0
 30 31  1  0
 31 32  1  6
  7  5  1  0
 31 10  1  0
 31 13  1  0
 27 15  1  0
 24 18  1  0
  1 33  1  0
  1 34  1  0
  1 35  1  0
  2 36  1  6
  3 37  1  0
  3 38  1  0
  4 39  1  0
  4 40  1  0
  5 41  1  1
  8 42  1  0
  8 43  1  0
  8 44  1  0
  9 45  1  0
  9 46  1  0
  9 47  1  0
 10 48  1  1
 11 49  1  0
 11 50  1  0
 12 51  1  0
 12 52  1  0
 14 53  1  0
 14 54  1  0
 14 55  1  0
 15 56  1  6
 16 57  1  0
 16 58  1  0
 17 59  1  0
 19 60  1  1
 20 61  1  0
 20 62  1  0
 21 63  1  0
 21 64  1  0
 22 65  1  1
 23 66  1  0
 25 67  1  0
 25 68  1  0
 25 69  1  0
 26 70  1  0
 26 71  1  0
 26 72  1  0
 28 73  1  0
 28 74  1  0
 28 75  1  0
 29 76  1  0
 29 77  1  0
 30 78  1  0
 30 79  1  0
 32 80  1  0
 32 81  1  0
 32 82  1  0
M  END
>  <meeko>  (4) 
{"is_sidechain": [false], "intermolecular_energy": 2.731, "internal_energy": -0.839}

$$$$
EPH_relaxed_0001_pdb2pqr_Repair_315_r2_0001_out
     RDKit          3D

 82 86  0  0  0  0  0  0  0  0999 V2000
   -0.6650    8.1190   -1.3800 C   0  0  0  0  0  0  0  0  0  0  0  0
   -0.9500    9.3140   -0.4660 C   0  0  2  0  0  0  0  0  0  0  0  0
   -2.2780   10.0120   -0.8220 C   0  0  0  0  0  0  0  0  0  0  0  0
   -3.4810    9.4820   -0.0370 C   0  0  0  0  0  0  0  0  0  0  0  0
   -3.8820    8.1130   -0.4950 C   0  0  2  0  0  0  0  0  0  0  0  0
   -4.0480    7.9810   -1.9130 O   0  0  0  0  0  0  0  0  0  0  0  0
   -5.2300    7.8010   -1.1180 C   0  0  0  0  0  0  0  0  0  0  0  0
   -6.2640    8.8640   -1.3150 C   0  0  0  0  0  0  0  0  0  0  0  0
   -5.7240    6.3880   -1.0830 C   0  0  0  0  0  0  0  0  0  0  0  0
    0.1990   10.3120   -0.5420 C   0  0  1  0  0  0  0  0  0  0  0  0
    1.5900    9.6300   -0.4420 C   0  0  0  0  0  0  0  0  0  0  0  0
    2.5500   10.4370   -1.3530 C   0  0  0  0  0  0  0  0  0  0  0  0
    1.7770   11.7360   -1.6810 C   0  0  1  0  0  0  0  0  0  0  0  0
    1.9860   12.6530   -0.4350 C   0  0  0  0  0  0  0  0  0  0  0  0
    2.1780   12.4630   -3.0060 C   0  0  2  0  0  0  0  0  0  0  0  0
    3.6290   12.9710   -3.0580 C   0  0  0  0  0  0  0  0  0  0  0  0
    3.8360   14.3640   -2.5620 C   0  0  0  0  0  0  0  0  0  0  0  0
    2.8650   15.2740   -2.3590 C   0  0  0  0  0  0  0  0  0  0  0  0
    1.4080   14.9680   -2.7300 C   0  0  1  0  0  0  0  0  0  0  0  0
    0.8070   16.1710   -3.5030 C   0  0  0  0  0  0  0  0  0  0  0  0
    0.9520   17.4860   -2.7440 C   0  0  0  0  0  0  0  0  0  0  0  0
    2.4180   17.7840   -2.4450 C   0  0  2  0  0  0  0  0  0  0  0  0
    3.0990   18.0330   -3.6790 O   0  0  0  0  0  0  0  0  0  0  0  0
    3.1330   16.6380   -1.6760 C   0  0  0  0  0  0  0  0  0  0  0  0
    2.5940   16.5690   -0.2260 C   0  0  0  0  0  0  0  0  0  0  0  0
    4.6370   17.0040   -1.5630 C   0  0  0  0  0  0  0  0  0  0  0  0
    1.1570   13.5820   -3.4660 C   0  0  1  0  0  0  0  0  0  0  0  0
    1.3480   13.7530   -5.0040 C   0  0  0  0  0  0  0  0  0  0  0  0
   -0.3420   13.1490   -3.2500 C   0  0  0  0  0  0  0  0  0  0  0  0
   -0.6530   12.3310   -1.9820 C   0  0  0  0  0  0  0  0  0  0  0  0
    0.3230   11.1590   -1.8330 C   0  0  2  0  0  0  0  0  0  0  0  0
    0.1190   10.2080   -3.0610 C   0  0  0  0  0  0  0  0  0  0  0  0
   -0.4531    7.2307   -0.7668 H   0  0  0  0  0  0  0  0  0  0  0  0
   -1.5422    7.9256   -2.0149 H   0  0  0  0  0  0  0  0  0  0  0  0
    0.2051    8.3423   -2.0149 H   0  0  0  0  0  0  0  0  0  0  0  0
   -1.0423    8.9311    0.5611 H   0  0  0  0  0  0  0  0  0  0  0  0
   -2.1726   11.0867   -0.6125 H   0  0  0  0  0  0  0  0  0  0  0  0
   -2.4731    9.8092   -1.8854 H   0  0  0  0  0  0  0  0  0  0  0  0
   -3.2189    9.4383    1.0304 H   0  0  0  0  0  0  0  0  0  0  0  0
   -4.3283   10.1625   -0.2073 H   0  0  0  0  0  0  0  0  0  0  0  0
   -3.3254    7.6474    0.3317 H   0  0  0  0  0  0  0  0  0  0  0  0
   -6.6127    9.2224   -0.3352 H   0  0  0  0  0  0  0  0  0  0  0  0
   -5.8260    9.7018   -1.8773 H   0  0  0  0  0  0  0  0  0  0  0  0
   -7.1136    8.4494   -1.8773 H   0  0  0  0  0  0  0  0  0  0  0  0
   -5.8370    6.0649   -0.0376 H   0  0  0  0  0  0  0  0  0  0  0  0
   -6.6968    6.3269   -1.5928 H   0  0  0  0  0  0  0  0  0  0  0  0
   -5.0012    5.7341   -1.5928 H   0  0  0  0  0  0  0  0  0  0  0  0
   -0.0634   10.9591    0.3080 H   0  0  0  0  0  0  0  0  0  0  0  0
    1.9480    9.6504    0.5979 H   0  0  0  0  0  0  0  0  0  0  0  0
    1.5375    8.5775   -0.7574 H   0  0  0  0  0  0  0  0  0  0  0  0
    3.4868   10.6657   -0.8238 H   0  0  0  0  0  0  0  0  0  0  0  0
    2.8326    9.8799   -2.2584 H   0  0  0  0  0  0  0  0  0  0  0  0
    1.8511   12.0613    0.4825 H   0  0  0  0  0  0  0  0  0  0  0  0
    3.0027   13.0723   -0.4547 H   0  0  0  0  0  0  0  0  0  0  0  0
    1.2514   13.4715   -0.4547 H   0  0  0  0  0  0  0  0  0  0  0  0
    2.1186   11.6523   -3.7471 H   0  0  0  0  0  0  0  0  0  0  0  0
    4.2470   12.2972   -2.4463 H   0  0  0  0  0  0  0  0  0  0  0  0
    3.9091   12.9823   -4.1217 H   0  0  0  0  0  0  0  0  0  0  0  0
    4.8691   14.6727   -2.3441 H   0  0  0  0  0  0  0  0  0  0  0  0
    0.8735   14.8319   -1.7783 H   0  0  0  0  0  0  0  0  0  0  0  0
    1.3242   16.2629   -4.4694 H   0  0  0  0  0  0  0  0  0  0  0  0
   -0.2680   15.9790   -3.6355 H   0  0  0  0  0  0  0  0  0  0  0  0
    0.5360   18.3015   -3.3539 H   0  0  0  0  0  0  0  0  0  0  0  0
    0.4091   17.4031   -1.7909 H   0  0  0  0  0  0  0  0  0  0  0  0
    2.4473   18.6668   -1.7894 H   0  0  0  0  0  0  0  0  0  0  0  0
    2.6510   18.7760   -4.1170 H   0  0  0  0  0  0  0  0  0  0  0  0
    3.4296   16.6760    0.4813 H   0  0  0  0  0  0  0  0  0  0  0  0
    1.8707   17.3819   -0.0646 H   0  0  0  0  0  0  0  0  0  0  0  0
    2.0988   15.6001   -0.0646 H   0  0  0  0  0  0  0  0  0  0  0  0
    4.9190   17.0726   -0.5020 H   0  0  0  0  0  0  0  0  0  0  0  0
    5.2414   16.2267   -2.0535 H   0  0  0  0  0  0  0  0  0  0  0  0
    4.8166   17.9721   -2.0535 H   0  0  0  0  0  0  0  0  0  0  0  0
    2.1551   14.4756   -5.1952 H   0  0  0  0  0  0  0  0  0  0  0  0
    1.6109   12.7829   -5.4509 H   0  0  0  0  0  0  0  0  0  0  0  0
    0.4128   14.1212   -5.4509 H   0  0  0  0  0  0  0  0  0  0  0  0
   -0.9508   14.0644   -3.2131 H   0  0  0  0  0  0  0  0  0  0  0  0
   -0.5712   12.4765   -4.0898 H   0  0  0  0  0  0  0  0  0  0  0  0
   -0.5672   12.9850   -1.1017 H   0  0  0  0  0  0  0  0  0  0  0  0
   -1.6737   11.9294   -2.0649 H   0  0  0  0  0  0  0  0  0  0  0  0
   -0.0993    9.1905   -2.7045 H   0  0  0  0  0  0  0  0  0  0  0  0
   -0.7217   10.5712   -3.6704 H   0  0  0  0  0  0  0  0  0  0  0  0
    1.0347   10.1945   -3.6704 H   0  0  0  0  0  0  0  0  0  0  0  0
  1  2  1  0
  2  3  1  0
  3  4  1  0
  4  5  1  0
  5  6  1  0
  6  7  1  0
  7  8  1  0
  7  9  1  0
  2 10  1  0
 10 11  1  0
 11 12  1  0
 12 13  1  0
 13 14  1  1
 13 15  1  0
 15 16  1  0
 16 17  1  0
 17 18  2  0
 18 19  1  0
 19 20  1  0
 20 21  1  0
 21 22  1  0
 22 23  1  0
 22 24  1  0
 24 25  1  0
 24 26  1  0
 19 27  1  0
 27 28  1  6
 27 29  1  0
 29 30  1  0
 30 31  1  0
 31 32  1  6
  7  5  1  0
 31 10  1  0
 31 13  1  0
 27 15  1  0
 24 18  1  0
  1 33  1  0
  1 34  1  0
  1 35  1  0
  2 36  1  1
  3 37  1  0
  3 38  1  0
  4 39  1  0
  4 40  1  0
  5 41  1  1
  8 42  1  0
  8 43  1  0
  8 44  1  0
  9 45  1  0
  9 46  1  0
  9 47  1  0
 10 48  1  1
 11 49  1  0
 11 50  1  0
 12 51  1  0
 12 52  1  0
 14 53  1  0
 14 54  1  0
 14 55  1  0
 15 56  1  6
 16 57  1  0
 16 58  1  0
 17 59  1  0
 19 60  1  1
 20 61  1  0
 20 62  1  0
 21 63  1  0
 21 64  1  0
 22 65  1  1
 23 66  1  0
 25 67  1  0
 25 68  1  0
 25 69  1  0
 26 70  1  0
 26 71  1  0
 26 72  1  0
 28 73  1  0
 28 74  1  0
 28 75  1  0
 29 76  1  0
 29 77  1  0
 30 78  1  0
 30 79  1  0
 32 80  1  0
 32 81  1  0
 32 82  1  0
M  END
>  <meeko>  (5) 
{"is_sidechain": [false], "intermolecular_energy": 2.731, "internal_energy": -0.839}

$$$$
EPH_relaxed_0001_pdb2pqr_Repair_315_r2_0001_out
     RDKit          3D

 82 86  0  0  0  0  0  0  0  0999 V2000
   -0.8120    8.9520   -2.0740 C   0  0  0  0  0  0  0  0  0  0  0  0
   -1.1840    9.2850   -0.6260 C   0  0  2  0  0  0  0  0  0  0  0  0
   -2.7110    9.3530   -0.4200 C   0  0  0  0  0  0  0  0  0  0  0  0
   -3.4850    8.2880   -1.2010 C   0  0  0  0  0  0  0  0  0  0  0  0
   -4.9190    8.2160   -0.7690 C   0  0  2  0  0  0  0  0  0  0  0  0
   -5.3530    6.9160   -0.3500 O   0  0  0  0  0  0  0  0  0  0  0  0
   -5.9830    7.4460   -1.5270 C   0  0  0  0  0  0  0  0  0  0  0  0
   -5.6600    6.6950   -2.7810 C   0  0  0  0  0  0  0  0  0  0  0  0
   -7.4180    7.8210   -1.3260 C   0  0  0  0  0  0  0  0  0  0  0  0
   -0.5440   10.6060   -0.2160 C   0  0  1  0  0  0  0  0  0  0  0  0
    0.4370   10.4500    0.9760 C   0  0  0  0  0  0  0  0  0  0  0  0
    1.5890   11.4620    0.7430 C   0  0  0  0  0  0  0  0  0  0  0  0
    1.0720   12.3880   -0.3830 C   0  0  1  0  0  0  0  0  0  0  0  0
    0.1450   13.4170    0.3380 C   0  0  0  0  0  0  0  0  0  0  0  0
    2.1620   13.1010   -1.2470 C   0  0  2  0  0  0  0  0  0  0  0  0
    3.0770   14.0680   -0.4750 C   0  0  0  0  0  0  0  0  0  0  0  0
    2.6030   15.4820   -0.4140 C   0  0  0  0  0  0  0  0  0  0  0  0
    1.6420   16.0200   -1.1890 C   0  0  0  0  0  0  0  0  0  0  0  0
    0.9920   15.2060   -2.3150 C   0  0  1  0  0  0  0  0  0  0  0  0
    0.9290   16.0660   -3.6050 C   0  0  0  0  0  0  0  0  0  0  0  0
    0.2380   17.4070   -3.3810 C   0  0  0  0  0  0  0  0  0  0  0  0
    0.9480   18.2110   -2.2940 C   0  0  2  0  0  0  0  0  0  0  0  0
    2.2470   18.5790   -2.7680 O   0  0  0  0  0  0  0  0  0  0  0  0
    1.0790   17.4420   -0.9500 C   0  0  0  0  0  0  0  0  0  0  0  0
   -0.3150   17.3090   -0.2880 C   0  0  0  0  0  0  0  0  0  0  0  0
    1.9360   18.3080    0.0130 C   0  0  0  0  0  0  0  0  0  0  0  0
    1.6080   13.7640   -2.5730 C   0  0  1  0  0  0  0  0  0  0  0  0
    2.8140   13.8680   -3.5560 C   0  0  0  0  0  0  0  0  0  0  0  0
    0.5300   12.8640   -3.2860 C   0  0  0  0  0  0  0  0  0  0  0  0
   -0.4430   12.0920   -2.3750 C   0  0  0  0  0  0  0  0  0  0  0  0
    0.3150   11.3390   -1.2770 C   0  0  2  0  0  0  0  0  0  0  0  0
    1.2390   10.2820   -1.9710 C   0  0  0  0  0  0  0  0  0  0  0  0
    0.0076    8.2184   -2.0826 H   0  0  0  0  0  0  0  0  0  0  0  0
   -1.6872    8.5301   -2.5897 H   0  0  0  0  0  0  0  0  0  0  0  0
   -0.4892    9.8684   -2.5897 H   0  0  0  0  0  0  0  0  0  0  0  0
   -0.8008    8.4731    0.0096 H   0  0  0  0  0  0  0  0  0  0  0  0
   -2.9232    9.2209    0.6512 H   0  0  0  0  0  0  0  0  0  0  0  0
   -3.0429   10.3321   -0.7958 H   0  0  0  0  0  0  0  0  0  0  0  0
   -3.4474    8.5341   -2.2725 H   0  0  0  0  0  0  0  0  0  0  0  0
   -3.0182    7.3116   -1.0041 H   0  0  0  0  0  0  0  0  0  0  0  0
   -4.8826    9.2496   -0.3942 H   0  0  0  0  0  0  0  0  0  0  0  0
   -5.2376    5.7130   -2.5218 H   0  0  0  0  0  0  0  0  0  0  0  0
   -6.5776    6.5552   -3.3713 H   0  0  0  0  0  0  0  0  0  0  0  0
   -4.9274    7.2649   -3.3713 H   0  0  0  0  0  0  0  0  0  0  0  0
   -7.6348    7.8777   -0.2491 H   0  0  0  0  0  0  0  0  0  0  0  0
   -7.6098    8.7994   -1.7906 H   0  0  0  0  0  0  0  0  0  0  0  0
   -8.0640    7.0615   -1.7906 H   0  0  0  0  0  0  0  0  0  0  0  0
   -1.4500   11.1900    0.0033 H   0  0  0  0  0  0  0  0  0  0  0  0
   -0.0779   10.6734    1.9220 H   0  0  0  0  0  0  0  0  0  0  0  0
    0.8217    9.4214    1.0389 H   0  0  0  0  0  0  0  0  0  0  0  0
    1.7908   12.0383    1.6580 H   0  0  0  0  0  0  0  0  0  0  0  0
    2.5331   10.9653    0.4746 H   0  0  0  0  0  0  0  0  0  0  0  0
    0.2478   13.3028    1.4272 H   0  0  0  0  0  0  0  0  0  0  0  0
    0.4343   14.4377    0.0474 H   0  0  0  0  0  0  0  0  0  0  0  0
   -0.9002   13.2354    0.0474 H   0  0  0  0  0  0  0  0  0  0  0  0
    2.8044   12.2625   -1.5542 H   0  0  0  0  0  0  0  0  0  0  0  0
    3.1716   13.6964    0.5560 H   0  0  0  0  0  0  0  0  0  0  0  0
    4.0297   14.0897   -1.0245 H   0  0  0  0  0  0  0  0  0  0  0  0
    3.0792   16.1408    0.3271 H   0  0  0  0  0  0  0  0  0  0  0  0
   -0.0265   14.9715   -1.9719 H   0  0  0  0  0  0  0  0  0  0  0  0
    1.9551   16.2522   -3.9550 H   0  0  0  0  0  0  0  0  0  0  0  0
    0.3420   15.5083   -4.3496 H   0  0  0  0  0  0  0  0  0  0  0  0
    0.2513   17.9803   -4.3197 H   0  0  0  0  0  0  0  0  0  0  0  0
   -0.7973   17.2196   -3.0599 H   0  0  0  0  0  0  0  0  0  0  0  0
    0.3345   19.1002   -2.0867 H   0  0  0  0  0  0  0  0  0  0  0  0
    2.6080   17.8200   -3.2560 H   0  0  0  0  0  0  0  0  0  0  0  0
   -0.2037   17.3196    0.8063 H   0  0  0  0  0  0  0  0  0  0  0  0
   -0.9509   18.1506   -0.6001 H   0  0  0  0  0  0  0  0  0  0  0  0
   -0.7803   16.3624   -0.6001 H   0  0  0  0  0  0  0  0  0  0  0  0
    1.6860   18.0554    1.0540 H   0  0  0  0  0  0  0  0  0  0  0  0
    3.0029   18.1093   -0.1664 H   0  0  0  0  0  0  0  0  0  0  0  0
    1.7261   19.3728   -0.1664 H   0  0  0  0  0  0  0  0  0  0  0  0
    3.7489   13.9486   -2.9821 H   0  0  0  0  0  0  0  0  0  0  0  0
    2.8491   12.9695   -4.1897 H   0  0  0  0  0  0  0  0  0  0  0  0
    2.6947   14.7592   -4.1897 H   0  0  0  0  0  0  0  0  0  0  0  0
   -0.0704   13.5166   -3.9369 H   0  0  0  0  0  0  0  0  0  0  0  0
    1.1055   12.0895   -3.8141 H   0  0  0  0  0  0  0  0  0  0  0  0
   -1.1401   12.8034   -1.9081 H   0  0  0  0  0  0  0  0  0  0  0  0
   -0.9917   11.3611   -2.9871 H   0  0  0  0  0  0  0  0  0  0  0  0
    1.7578    9.6885   -1.2038 H   0  0  0  0  0  0  0  0  0  0  0  0
    0.6279    9.6164   -2.5983 H   0  0  0  0  0  0  0  0  0  0  0  0
    1.9803   10.7986   -2.5983 H   0  0  0  0  0  0  0  0  0  0  0  0
  1  2  1  0
  2  3  1  0
  3  4  1  0
  4  5  1  0
  5  6  1  0
  6  7  1  0
  7  8  1  0
  7  9  1  0
  2 10  1  0
 10 11  1  0
 11 12  1  0
 12 13  1  0
 13 14  1  1
 13 15  1  0
 15 16  1  0
 16 17  1  0
 17 18  2  0
 18 19  1  0
 19 20  1  0
 20 21  1  0
 21 22  1  0
 22 23  1  0
 22 24  1  0
 24 25  1  0
 24 26  1  0
 19 27  1  0
 27 28  1  6
 27 29  1  0
 29 30  1  0
 30 31  1  0
 31 32  1  6
  7  5  1  0
 31 10  1  0
 31 13  1  0
 27 15  1  0
 24 18  1  0
  1 33  1  0
  1 34  1  0
  1 35  1  0
  2 36  1  1
  3 37  1  0
  3 38  1  0
  4 39  1  0
  4 40  1  0
  5 41  1  1
  8 42  1  0
  8 43  1  0
  8 44  1  0
  9 45  1  0
  9 46  1  0
  9 47  1  0
 10 48  1  1
 11 49  1  0
 11 50  1  0
 12 51  1  0
 12 52  1  0
 14 53  1  0
 14 54  1  0
 14 55  1  0
 15 56  1  6
 16 57  1  0
 16 58  1  0
 17 59  1  0
 19 60  1  1
 20 61  1  0
 20 62  1  0
 21 63  1  0
 21 64  1  0
 22 65  1  1
 23 66  1  0
 25 67  1  0
 25 68  1  0
 25 69  1  0
 26 70  1  0
 26 71  1  0
 26 72  1  0
 28 73  1  0
 28 74  1  0
 28 75  1  0
 29 76  1  0
 29 77  1  0
 30 78  1  0
 30 79  1  0
 32 80  1  0
 32 81  1  0
 32 82  1  0
M  END
>  <meeko>  (6) 
{"is_sidechain": [false], "intermolecular_energy": 2.731, "internal_energy": -0.839}

$$$$
EPH_relaxed_0001_pdb2pqr_Repair_315_r2_0001_out
     RDKit          3D

 82 86  0  0  0  0  0  0  0  0999 V2000
   -0.9430    9.3570   -2.8080 C   0  0  0  0  0  0  0  0  0  0  0  0
    0.1870    9.0410   -1.8240 C   0  0  2  0  0  0  0  0  0  0  0  0
   -0.3380    8.7900   -0.3960 C   0  0  0  0  0  0  0  0  0  0  0  0
   -0.8070   10.0610    0.3190 C   0  0  0  0  0  0  0  0  0  0  0  0
    0.2380   10.5880    1.2540 C   0  0  2  0  0  0  0  0  0  0  0  0
   -0.2630   11.4380    2.2940 O   0  0  0  0  0  0  0  0  0  0  0  0
    0.6200   12.0540    1.3420 C   0  0  0  0  0  0  0  0  0  0  0  0
   -0.0380   13.0840    0.4790 C   0  0  0  0  0  0  0  0  0  0  0  0
    1.9600   12.4120    1.9060 C   0  0  0  0  0  0  0  0  0  0  0  0
    1.2010   10.1790   -1.8140 C   0  0  1  0  0  0  0  0  0  0  0  0
    2.6420    9.6990   -2.1320 C   0  0  0  0  0  0  0  0  0  0  0  0
    3.3250   10.8360   -2.9350 C   0  0  0  0  0  0  0  0  0  0  0  0
    2.3830   12.0520   -2.7680 C   0  0  1  0  0  0  0  0  0  0  0  0
    2.7440   12.6500   -1.3730 C   0  0  0  0  0  0  0  0  0  0  0  0
    2.4470   13.1340   -3.8940 C   0  0  2  0  0  0  0  0  0  0  0  0
    3.8060   13.8410   -4.0450 C   0  0  0  0  0  0  0  0  0  0  0  0
    3.9730   15.0810   -3.2310 C   0  0  0  0  0  0  0  0  0  0  0  0
    2.9790   15.7650   -2.6340 C   0  0  0  0  0  0  0  0  0  0  0  0
    1.5130   15.3560   -2.8300 C   0  0  1  0  0  0  0  0  0  0  0  0
    0.6610   16.6150   -3.1400 C   0  0  0  0  0  0  0  0  0  0  0  0
    0.8270   17.7070   -2.0880 C   0  0  0  0  0  0  0  0  0  0  0  0
    2.2890   18.1280   -1.9640 C   0  0  2  0  0  0  0  0  0  0  0  0
    2.6890   18.7700   -3.1780 O   0  0  0  0  0  0  0  0  0  0  0  0
    3.2450   16.9400   -1.6610 C   0  0  0  0  0  0  0  0  0  0  0  0
    3.0090   16.4370   -0.2150 C   0  0  0  0  0  0  0  0  0  0  0  0
    4.7010   17.4770   -1.7010 C   0  0  0  0  0  0  0  0  0  0  0  0
    1.2550   14.1750   -3.8610 C   0  0  1  0  0  0  0  0  0  0  0  0
    1.1250   14.7480   -5.3050 C   0  0  0  0  0  0  0  0  0  0  0  0
   -0.1250   13.4930   -3.5280 C   0  0  0  0  0  0  0  0  0  0  0  0
   -0.1040   12.3500   -2.4950 C   0  0  0  0  0  0  0  0  0  0  0  0
    0.9880   11.3290   -2.8300 C   0  0  2  0  0  0  0  0  0  0  0  0
    0.6400   10.6940   -4.2190 C   0  0  0  0  0  0  0  0  0  0  0  0
   -1.8554    9.6121   -2.2490 H   0  0  0  0  0  0  0  0  0  0  0  0
   -0.6508   10.2079   -3.4409 H   0  0  0  0  0  0  0  0  0  0  0  0
   -1.1346    8.4780   -3.4409 H   0  0  0  0  0  0  0  0  0  0  0  0
    0.6717    8.1140   -2.1643 H   0  0  0  0  0  0  0  0  0  0  0  0
   -1.1859    8.0917   -0.4553 H   0  0  0  0  0  0  0  0  0  0  0  0
    0.5004    8.3828    0.1882 H   0  0  0  0  0  0  0  0  0  0  0  0
   -1.0329   10.8308   -0.4336 H   0  0  0  0  0  0  0  0  0  0  0  0
   -1.7014    9.8124    0.9091 H   0  0  0  0  0  0  0  0  0  0  0  0
    0.8395    9.6750    1.1335 H   0  0  0  0  0  0  0  0  0  0  0  0
   -0.5213   13.8405    1.1147 H   0  0  0  0  0  0  0  0  0  0  0  0
    0.7186   13.5679   -0.1561 H   0  0  0  0  0  0  0  0  0  0  0  0
   -0.7951   12.6008   -0.1561 H   0  0  0  0  0  0  0  0  0  0  0  0
    1.9107   12.3988    3.0048 H   0  0  0  0  0  0  0  0  0  0  0  0
    2.7087   11.6824    1.5638 H   0  0  0  0  0  0  0  0  0  0  0  0
    2.2450   13.4178    1.5638 H   0  0  0  0  0  0  0  0  0  0  0  0
    1.0522   10.5496   -0.7891 H   0  0  0  0  0  0  0  0  0  0  0  0
    3.1931    9.5104   -1.1989 H   0  0  0  0  0  0  0  0  0  0  0  0
    2.6282    8.7619   -2.7079 H   0  0  0  0  0  0  0  0  0  0  0  0
    4.3212   11.0572   -2.5243 H   0  0  0  0  0  0  0  0  0  0  0  0
    3.4769   10.5679   -3.9910 H   0  0  0  0  0  0  0  0  0  0  0  0
    2.3496   11.9967   -0.5808 H   0  0  0  0  0  0  0  0  0  0  0  0
    3.8374   12.7233   -1.2773 H   0  0  0  0  0  0  0  0  0  0  0  0
    2.2996   13.6517   -1.2773 H   0  0  0  0  0  0  0  0  0  0  0  0
    2.3210   12.5319   -4.8059 H   0  0  0  0  0  0  0  0  0  0  0  0
    4.5930   13.1316   -3.7493 H   0  0  0  0  0  0  0  0  0  0  0  0
    3.8700   14.1563   -5.0969 H   0  0  0  0  0  0  0  0  0  0  0  0
    4.9951   15.4688   -3.1086 H   0  0  0  0  0  0  0  0  0  0  0  0
    1.1905   14.9132   -1.8761 H   0  0  0  0  0  0  0  0  0  0  0  0
    0.9681   17.0168   -4.1169 H   0  0  0  0  0  0  0  0  0  0  0  0
   -0.3961   16.3108   -3.1416 H   0  0  0  0  0  0  0  0  0  0  0  0
    0.2243   18.5804   -2.3777 H   0  0  0  0  0  0  0  0  0  0  0  0
    0.4918   17.3129   -1.1173 H   0  0  0  0  0  0  0  0  0  0  0  0
    2.3626   18.8158   -1.1087 H   0  0  0  0  0  0  0  0  0  0  0  0
    3.5920   18.4740   -3.3840 H   0  0  0  0  0  0  0  0  0  0  0  0
    3.3643   17.1944    0.4992 H   0  0  0  0  0  0  0  0  0  0  0  0
    1.9344   16.2612   -0.0587 H   0  0  0  0  0  0  0  0  0  0  0  0
    3.5606   15.4982   -0.0587 H   0  0  0  0  0  0  0  0  0  0  0  0
    5.0700   17.6131   -0.6737 H   0  0  0  0  0  0  0  0  0  0  0  0
    5.3432   16.7566   -2.2288 H   0  0  0  0  0  0  0  0  0  0  0  0
    4.7216   18.4419   -2.2288 H   0  0  0  0  0  0  0  0  0  0  0  0
    0.8819   15.8196   -5.2538 H   0  0  0  0  0  0  0  0  0  0  0  0
    2.0766   14.6131   -5.8401 H   0  0  0  0  0  0  0  0  0  0  0  0
    0.3248   14.2156   -5.8401 H   0  0  0  0  0  0  0  0  0  0  0  0
   -0.7987   14.2742   -3.1461 H   0  0  0  0  0  0  0  0  0  0  0  0
   -0.4488   13.0244   -4.4690 H   0  0  0  0  0  0  0  0  0  0  0  0
    0.0900   12.7702   -1.4971 H   0  0  0  0  0  0  0  0  0  0  0  0
   -1.0788   11.8407   -2.5151 H   0  0  0  0  0  0  0  0  0  0  0  0
    0.1166    9.7389   -4.0647 H   0  0  0  0  0  0  0  0  0  0  0  0
   -0.0081   11.3802   -4.7838 H   0  0  0  0  0  0  0  0  0  0  0  0
    1.5671   10.5169   -4.7838 H   0  0  0  0  0  0  0  0  0  0  0  0
  1  2  1  0
  2  3  1  0
  3  4  1  0
  4  5  1  0
  5  6  1  0
  6  7  1  0
  7  8  1  0
  7  9  1  0
  2 10  1  0
 10 11  1  0
 11 12  1  0
 12 13  1  0
 13 14  1  1
 13 15  1  0
 15 16  1  0
 16 17  1  0
 17 18  2  0
 18 19  1  0
 19 20  1  0
 20 21  1  0
 21 22  1  0
 22 23  1  0
 22 24  1  0
 24 25  1  0
 24 26  1  0
 19 27  1  0
 27 28  1  6
 27 29  1  0
 29 30  1  0
 30 31  1  0
 31 32  1  6
  7  5  1  0
 31 10  1  0
 31 13  1  0
 27 15  1  0
 24 18  1  0
  1 33  1  0
  1 34  1  0
  1 35  1  0
  2 36  1  6
  3 37  1  0
  3 38  1  0
  4 39  1  0
  4 40  1  0
  5 41  1  1
  8 42  1  0
  8 43  1  0
  8 44  1  0
  9 45  1  0
  9 46  1  0
  9 47  1  0
 10 48  1  1
 11 49  1  0
 11 50  1  0
 12 51  1  0
 12 52  1  0
 14 53  1  0
 14 54  1  0
 14 55  1  0
 15 56  1  6
 16 57  1  0
 16 58  1  0
 17 59  1  0
 19 60  1  1
 20 61  1  0
 20 62  1  0
 21 63  1  0
 21 64  1  0
 22 65  1  1
 23 66  1  0
 25 67  1  0
 25 68  1  0
 25 69  1  0
 26 70  1  0
 26 71  1  0
 26 72  1  0
 28 73  1  0
 28 74  1  0
 28 75  1  0
 29 76  1  0
 29 77  1  0
 30 78  1  0
 30 79  1  0
 32 80  1  0
 32 81  1  0
 32 82  1  0
M  END
>  <meeko>  (7) 
{"is_sidechain": [false], "intermolecular_energy": 2.731, "internal_energy": -0.839}

$$$$
EPH_relaxed_0001_pdb2pqr_Repair_315_r2_0001_out
     RDKit          3D

 82 86  0  0  0  0  0  0  0  0999 V2000
   -2.6360    7.7730   -2.6760 C   0  0  0  0  0  0  0  0  0  0  0  0
   -2.8690    8.1800   -1.2190 C   0  0  2  0  0  0  0  0  0  0  0  0
   -4.3690    8.2940   -0.8810 C   0  0  0  0  0  0  0  0  0  0  0  0
   -5.1440    6.9880   -1.0720 C   0  0  0  0  0  0  0  0  0  0  0  0
   -6.1200    7.0840   -2.2060 C   0  0  2  0  0  0  0  0  0  0  0  0
   -6.8730    8.3030   -2.2460 O   0  0  0  0  0  0  0  0  0  0  0  0
   -7.6250    7.1000   -2.0160 C   0  0  0  0  0  0  0  0  0  0  0  0
   -8.2400    7.0190   -0.6540 C   0  0  0  0  0  0  0  0  0  0  0  0
   -8.4960    6.7040   -3.1670 C   0  0  0  0  0  0  0  0  0  0  0  0
   -2.1680    9.5020   -0.9300 C   0  0  1  0  0  0  0  0  0  0  0  0
   -2.4500   10.0280    0.5020 C   0  0  0  0  0  0  0  0  0  0  0  0
   -1.1550   10.7330    0.9840 C   0  0  0  0  0  0  0  0  0  0  0  0
   -0.2950   10.8810   -0.2930 C   0  0  1  0  0  0  0  0  0  0  0  0
   -0.8630   12.1430   -1.0150 C   0  0  0  0  0  0  0  0  0  0  0  0
    1.2500   10.9870   -0.0760 C   0  0  2  0  0  0  0  0  0  0  0  0
    1.7140   12.2140    0.7280 C   0  0  0  0  0  0  0  0  0  0  0  0
    2.0270   13.4270   -0.0830 C   0  0  0  0  0  0  0  0  0  0  0  0
    2.2160   13.4500   -1.4160 C   0  0  0  0  0  0  0  0  0  0  0  0
    2.2150   12.1520   -2.2330 C   0  0  1  0  0  0  0  0  0  0  0  0
    3.4250   12.1510   -3.2050 C   0  0  0  0  0  0  0  0  0  0  0  0
    3.4680   13.3960   -4.0860 C   0  0  0  0  0  0  0  0  0  0  0  0
    3.5270   14.6630   -3.2370 C   0  0  2  0  0  0  0  0  0  0  0  0
    4.7800   14.6980   -2.5460 O   0  0  0  0  0  0  0  0  0  0  0  0
    2.3620   14.7690   -2.2130 C   0  0  0  0  0  0  0  0  0  0  0  0
    1.0330   15.0350   -2.9620 C   0  0  0  0  0  0  0  0  0  0  0  0
    2.6180   16.0180   -1.3270 C   0  0  0  0  0  0  0  0  0  0  0  0
    2.1030   10.8050   -1.3960 C   0  0  1  0  0  0  0  0  0  0  0  0
    3.5220   10.3380   -0.9490 C   0  0  0  0  0  0  0  0  0  0  0  0
    1.5340    9.6690   -2.3250 C   0  0  0  0  0  0  0  0  0  0  0  0
    0.0010    9.5380   -2.4040 C   0  0  0  0  0  0  0  0  0  0  0  0
   -0.6200    9.5180   -1.0040 C   0  0  2  0  0  0  0  0  0  0  0  0
   -0.0840    8.2470   -0.2620 C   0  0  0  0  0  0  0  0  0  0  0  0
   -2.0897    6.8188   -2.7073 H   0  0  0  0  0  0  0  0  0  0  0  0
   -3.6049    7.6577   -3.1839 H   0  0  0  0  0  0  0  0  0  0  0  0
   -2.0460    8.5501   -3.1839 H   0  0  0  0  0  0  0  0  0  0  0  0
   -2.4464    7.3885   -0.5827 H   0  0  0  0  0  0  0  0  0  0  0  0
   -4.4655    8.6045    0.1698 H   0  0  0  0  0  0  0  0  0  0  0  0
   -4.8004    9.0284   -1.5771 H   0  0  0  0  0  0  0  0  0  0  0  0
   -4.4307    6.1776   -1.2830 H   0  0  0  0  0  0  0  0  0  0  0  0
   -5.7083    6.7857   -0.1497 H   0  0  0  0  0  0  0  0  0  0  0  0
   -5.4646    6.4812   -2.8518 H   0  0  0  0  0  0  0  0  0  0  0  0
   -7.4549    7.1224    0.1095 H   0  0  0  0  0  0  0  0  0  0  0  0
   -8.9758    7.8280   -0.5352 H   0  0  0  0  0  0  0  0  0  0  0  0
   -8.7413    6.0471   -0.5352 H   0  0  0  0  0  0  0  0  0  0  0  0
   -9.4354    6.2769   -2.7860 H   0  0  0  0  0  0  0  0  0  0  0  0
   -8.7181    7.5896   -3.7804 H   0  0  0  0  0  0  0  0  0  0  0  0
   -7.9746    5.9544   -3.7804 H   0  0  0  0  0  0  0  0  0  0  0  0
   -2.5901   10.1144   -1.7405 H   0  0  0  0  0  0  0  0  0  0  0  0
   -3.2862   10.7425    0.4851 H   0  0  0  0  0  0  0  0  0  0  0  0
   -2.7259    9.2048    1.1775 H   0  0  0  0  0  0  0  0  0  0  0  0
   -1.3861   11.7190    1.4133 H   0  0  0  0  0  0  0  0  0  0  0  0
   -0.6387   10.1652    1.7720 H   0  0  0  0  0  0  0  0  0  0  0  0
   -1.1933   12.8769   -0.2651 H   0  0  0  0  0  0  0  0  0  0  0  0
   -0.0790   12.5894   -1.6443 H   0  0  0  0  0  0  0  0  0  0  0  0
   -1.7170   11.8521   -1.6443 H   0  0  0  0  0  0  0  0  0  0  0  0
    1.4587   10.1159    0.5625 H   0  0  0  0  0  0  0  0  0  0  0  0
    0.9159   12.4766    1.4380 H   0  0  0  0  0  0  0  0  0  0  0  0
    2.6568   11.9209    1.2131 H   0  0  0  0  0  0  0  0  0  0  0  0
    2.1104   14.3835    0.4537 H   0  0  0  0  0  0  0  0  0  0  0  0
    1.2759   12.1541   -2.8058 H   0  0  0  0  0  0  0  0  0  0  0  0
    4.3518   12.1046   -2.6144 H   0  0  0  0  0  0  0  0  0  0  0  0
    3.3222   11.2775   -3.8657 H   0  0  0  0  0  0  0  0  0  0  0  0
    4.3595   13.3515   -4.7288 H   0  0  0  0  0  0  0  0  0  0  0  0
    2.5541   13.4252   -4.6975 H   0  0  0  0  0  0  0  0  0  0  0  0
    3.4253   15.5210   -3.9178 H   0  0  0  0  0  0  0  0  0  0  0  0
    4.6660   15.2580   -1.7600 H   0  0  0  0  0  0  0  0  0  0  0  0
    0.2265   15.1964   -2.2316 H   0  0  0  0  0  0  0  0  0  0  0  0
    1.1405   15.9294   -3.5932 H   0  0  0  0  0  0  0  0  0  0  0  0
    0.7880   14.1681   -3.5932 H   0  0  0  0  0  0  0  0  0  0  0  0
    2.5596   15.7332   -0.2661 H   0  0  0  0  0  0  0  0  0  0  0  0
    3.6177   16.4225   -1.5436 H   0  0  0  0  0  0  0  0  0  0  0  0
    1.8580   16.7832   -1.5436 H   0  0  0  0  0  0  0  0  0  0  0  0
    3.5733   10.3211    0.1497 H   0  0  0  0  0  0  0  0  0  0  0  0
    3.7161    9.3286   -1.3407 H   0  0  0  0  0  0  0  0  0  0  0  0
    4.2776   11.0348   -1.3407 H   0  0  0  0  0  0  0  0  0  0  0  0
    1.9048    9.8554   -3.3437 H   0  0  0  0  0  0  0  0  0  0  0  0
    1.8801    8.7277   -1.8730 H   0  0  0  0  0  0  0  0  0  0  0  0
   -0.4048   10.3924   -2.9655 H   0  0  0  0  0  0  0  0  0  0  0  0
   -0.2448    8.5930   -2.9104 H   0  0  0  0  0  0  0  0  0  0  0  0
   -0.1494    8.4022    0.8250 H   0  0  0  0  0  0  0  0  0  0  0  0
   -0.6906    7.3741   -0.5450 H   0  0  0  0  0  0  0  0  0  0  0  0
    0.9645    8.0721   -0.5450 H   0  0  0  0  0  0  0  0  0  0  0  0
  1  2  1  0
  2  3  1  0
  3  4  1  0
  4  5  1  0
  5  6  1  0
  6  7  1  0
  7  8  1  0
  7  9  1  0
  2 10  1  0
 10 11  1  0
 11 12  1  0
 12 13  1  0
 13 14  1  6
 13 15  1  0
 15 16  1  0
 16 17  1  0
 17 18  2  0
 18 19  1  0
 19 20  1  0
 20 21  1  0
 21 22  1  0
 22 23  1  0
 22 24  1  0
 24 25  1  0
 24 26  1  0
 19 27  1  0
 27 28  1  1
 27 29  1  0
 29 30  1  0
 30 31  1  0
 31 32  1  1
  7  5  1  0
 31 10  1  0
 31 13  1  0
 27 15  1  0
 24 18  1  0
  1 33  1  0
  1 34  1  0
  1 35  1  0
  2 36  1  1
  3 37  1  0
  3 38  1  0
  4 39  1  0
  4 40  1  0
  5 41  1  6
  8 42  1  0
  8 43  1  0
  8 44  1  0
  9 45  1  0
  9 46  1  0
  9 47  1  0
 10 48  1  6
 11 49  1  0
 11 50  1  0
 12 51  1  0
 12 52  1  0
 14 53  1  0
 14 54  1  0
 14 55  1  0
 15 56  1  1
 16 57  1  0
 16 58  1  0
 17 59  1  0
 19 60  1  6
 20 61  1  0
 20 62  1  0
 21 63  1  0
 21 64  1  0
 22 65  1  6
 23 66  1  0
 25 67  1  0
 25 68  1  0
 25 69  1  0
 26 70  1  0
 26 71  1  0
 26 72  1  0
 28 73  1  0
 28 74  1  0
 28 75  1  0
 29 76  1  0
 29 77  1  0
 30 78  1  0
 30 79  1  0
 32 80  1  0
 32 81  1  0
 32 82  1  0
M  END
>  <meeko>  (8) 
{"is_sidechain": [false], "intermolecular_energy": 2.731, "internal_energy": -0.839}

$$$$
EPH_relaxed_0001_pdb2pqr_Repair_315_r2_0001_out
     RDKit          3D

 82 86  0  0  0  0  0  0  0  0999 V2000
    3.5710   17.9240   -1.7740 C   0  0  0  0  0  0  0  0  0  0  0  0
    2.4440   17.4430   -2.6930 C   0  0  2  0  0  0  0  0  0  0  0  0
    1.0600   17.9260   -2.2170 C   0  0  0  0  0  0  0  0  0  0  0  0
    1.1160   18.8470   -0.9950 C   0  0  0  0  0  0  0  0  0  0  0  0
   -0.1210   19.6840   -0.8750 C   0  0  2  0  0  0  0  0  0  0  0  0
   -0.3770   20.1880    0.4430 O   0  0  0  0  0  0  0  0  0  0  0  0
   -1.3430   19.2620   -0.0810 C   0  0  0  0  0  0  0  0  0  0  0  0
   -1.3880   17.9550    0.6450 C   0  0  0  0  0  0  0  0  0  0  0  0
   -2.6620   19.8890   -0.4100 C   0  0  0  0  0  0  0  0  0  0  0  0
    2.4620   15.9220   -2.7850 C   0  0  1  0  0  0  0  0  0  0  0  0
    3.8760   15.3580   -3.0890 C   0  0  0  0  0  0  0  0  0  0  0  0
    3.9940   14.0130   -2.3260 C   0  0  0  0  0  0  0  0  0  0  0  0
    2.5480   13.6860   -1.8860 C   0  0  1  0  0  0  0  0  0  0  0  0
    1.8780   13.0560   -3.1480 C   0  0  0  0  0  0  0  0  0  0  0  0
    2.3990   12.7630   -0.6330 C   0  0  2  0  0  0  0  0  0  0  0  0
    2.9800   11.3470   -0.7920 C   0  0  0  0  0  0  0  0  0  0  0  0
    2.0260   10.3220   -1.3110 C   0  0  0  0  0  0  0  0  0  0  0  0
    0.6880   10.4560   -1.3670 C   0  0  0  0  0  0  0  0  0  0  0  0
   -0.0040   11.6960   -0.7880 C   0  0  1  0  0  0  0  0  0  0  0  0
   -1.2220   11.2580    0.0680 C   0  0  0  0  0  0  0  0  0  0  0  0
   -2.1840   10.3580   -0.7020 C   0  0  0  0  0  0  0  0  0  0  0  0
   -1.4720    9.1080   -1.2120 C   0  0  2  0  0  0  0  0  0  0  0  0
   -1.0890    8.3060   -0.0910 O   0  0  0  0  0  0  0  0  0  0  0  0
   -0.2220    9.4250   -2.0800 C   0  0  0  0  0  0  0  0  0  0  0  0
   -0.6690   10.0260   -3.4350 C   0  0  0  0  0  0  0  0  0  0  0  0
    0.4820    8.0820   -2.4110 C   0  0  0  0  0  0  0  0  0  0  0  0
    0.9380   12.7240   -0.0260 C   0  0  1  0  0  0  0  0  0  0  0  0
    1.0880   12.3030    1.4680 C   0  0  0  0  0  0  0  0  0  0  0  0
    0.2550   14.1430   -0.0210 C   0  0  0  0  0  0  0  0  0  0  0  0
    0.5360   15.0540   -1.2310 C   0  0  0  0  0  0  0  0  0  0  0  0
    2.0380   15.1280   -1.5240 C   0  0  2  0  0  0  0  0  0  0  0  0
    2.7360   15.7770   -0.2810 C   0  0  0  0  0  0  0  0  0  0  0  0
    3.2685   17.7949   -0.7243 H   0  0  0  0  0  0  0  0  0  0  0  0
    4.4795   17.3352   -1.9688 H   0  0  0  0  0  0  0  0  0  0  0  0
    3.7744   18.9873   -1.9688 H   0  0  0  0  0  0  0  0  0  0  0  0
    2.6204   17.8777   -3.6880 H   0  0  0  0  0  0  0  0  0  0  0  0
    0.5803   18.4728   -3.0422 H   0  0  0  0  0  0  0  0  0  0  0  0
    0.4923   17.0319   -1.9198 H   0  0  0  0  0  0  0  0  0  0  0  0
    1.2193   18.2316   -0.0891 H   0  0  0  0  0  0  0  0  0  0  0  0
    1.9766   19.5218   -1.1132 H   0  0  0  0  0  0  0  0  0  0  0  0
   -0.0012   20.0510   -1.9050 H   0  0  0  0  0  0  0  0  0  0  0  0
   -1.3817   18.1377    1.7297 H   0  0  0  0  0  0  0  0  0  0  0  0
   -2.3053   17.4140    0.3696 H   0  0  0  0  0  0  0  0  0  0  0  0
   -0.5101   17.3522    0.3696 H   0  0  0  0  0  0  0  0  0  0  0  0
   -3.1909   20.1404    0.5212 H   0  0  0  0  0  0  0  0  0  0  0  0
   -2.4965   20.8048   -0.9965 H   0  0  0  0  0  0  0  0  0  0  0  0
   -3.2677   19.1825   -0.9965 H   0  0  0  0  0  0  0  0  0  0  0  0
    1.7229   15.7775   -3.5868 H   0  0  0  0  0  0  0  0  0  0  0  0
    3.9933   15.1919   -4.1700 H   0  0  0  0  0  0  0  0  0  0  0  0
    4.6591   16.0624   -2.7718 H   0  0  0  0  0  0  0  0  0  0  0  0
    4.3866   13.2253   -2.9859 H   0  0  0  0  0  0  0  0  0  0  0  0
    4.6854   14.0767   -1.4728 H   0  0  0  0  0  0  0  0  0  0  0  0
    1.1101   12.3339   -2.8335 H   0  0  0  0  0  0  0  0  0  0  0  0
    1.4107   13.8495   -3.7497 H   0  0  0  0  0  0  0  0  0  0  0  0
    2.6412   12.5408   -3.7497 H   0  0  0  0  0  0  0  0  0  0  0  0
    3.0384   13.2663    0.1071 H   0  0  0  0  0  0  0  0  0  0  0  0
    3.8297   11.4042   -1.4882 H   0  0  0  0  0  0  0  0  0  0  0  0
    3.2612   11.0175    0.2191 H   0  0  0  0  0  0  0  0  0  0  0  0
    2.4531    9.3773   -1.6787 H   0  0  0  0  0  0  0  0  0  0  0  0
   -0.3469   12.2832   -1.6527 H   0  0  0  0  0  0  0  0  0  0  0  0
   -0.8555   10.7106    0.9489 H   0  0  0  0  0  0  0  0  0  0  0  0
   -1.7720   12.1661    0.3560 H   0  0  0  0  0  0  0  0  0  0  0  0
   -3.0065   10.0574   -0.0363 H   0  0  0  0  0  0  0  0  0  0  0  0
   -2.5728   10.9174   -1.5656 H   0  0  0  0  0  0  0  0  0  0  0  0
   -2.1766    8.5699   -1.8631 H   0  0  0  0  0  0  0  0  0  0  0  0
   -0.1230    8.2000   -0.1210 H   0  0  0  0  0  0  0  0  0  0  0  0
   -1.3165   10.8966   -3.2542 H   0  0  0  0  0  0  0  0  0  0  0  0
    0.2166   10.3402   -4.0068 H   0  0  0  0  0  0  0  0  0  0  0  0
   -1.2247    9.2682   -4.0068 H   0  0  0  0  0  0  0  0  0  0  0  0
    0.7510    7.5688   -1.4760 H   0  0  0  0  0  0  0  0  0  0  0  0
   -0.1985    7.4457   -2.9958 H   0  0  0  0  0  0  0  0  0  0  0  0
    1.3925    8.2797   -2.9958 H   0  0  0  0  0  0  0  0  0  0  0  0
    0.7898   13.1400    2.1165 H   0  0  0  0  0  0  0  0  0  0  0  0
    0.4440   11.4346    1.6707 H   0  0  0  0  0  0  0  0  0  0  0  0
    2.1361   12.0375    1.6707 H   0  0  0  0  0  0  0  0  0  0  0  0
   -0.8327   13.9885    0.0335 H   0  0  0  0  0  0  0  0  0  0  0  0
    0.6901   14.6685    0.8418 H   0  0  0  0  0  0  0  0  0  0  0  0
    0.0166   14.6512   -2.1131 H   0  0  0  0  0  0  0  0  0  0  0  0
    0.1732   16.0664   -0.9998 H   0  0  0  0  0  0  0  0  0  0  0  0
    2.2967   15.3685    0.6410 H   0  0  0  0  0  0  0  0  0  0  0  0
    3.8123   15.5514   -0.3056 H   0  0  0  0  0  0  0  0  0  0  0  0
    2.5892   16.8669   -0.3056 H   0  0  0  0  0  0  0  0  0  0  0  0
  1  2  1  0
  2  3  1  0
  3  4  1  0
  4  5  1  0
  5  6  1  0
  6  7  1  0
  7  8  1  0
  7  9  1  0
  2 10  1  0
 10 11  1  0
 11 12  1  0
 12 13  1  0
 13 14  1  6
 13 15  1  0
 15 16  1  0
 16 17  1  0
 17 18  2  0
 18 19  1  0
 19 20  1  0
 20 21  1  0
 21 22  1  0
 22 23  1  0
 22 24  1  0
 24 25  1  0
 24 26  1  0
 19 27  1  0
 27 28  1  1
 27 29  1  0
 29 30  1  0
 30 31  1  0
 31 32  1  1
  7  5  1  0
 31 10  1  0
 31 13  1  0
 27 15  1  0
 24 18  1  0
  1 33  1  0
  1 34  1  0
  1 35  1  0
  2 36  1  6
  3 37  1  0
  3 38  1  0
  4 39  1  0
  4 40  1  0
  5 41  1  6
  8 42  1  0
  8 43  1  0
  8 44  1  0
  9 45  1  0
  9 46  1  0
  9 47  1  0
 10 48  1  6
 11 49  1  0
 11 50  1  0
 12 51  1  0
 12 52  1  0
 14 53  1  0
 14 54  1  0
 14 55  1  0
 15 56  1  1
 16 57  1  0
 16 58  1  0
 17 59  1  0
 19 60  1  6
 20 61  1  0
 20 62  1  0
 21 63  1  0
 21 64  1  0
 22 65  1  6
 23 66  1  0
 25 67  1  0
 25 68  1  0
 25 69  1  0
 26 70  1  0
 26 71  1  0
 26 72  1  0
 28 73  1  0
 28 74  1  0
 28 75  1  0
 29 76  1  0
 29 77  1  0
 30 78  1  0
 30 79  1  0
 32 80  1  0
 32 81  1  0
 32 82  1  0
M  END
>  <meeko>  (9) 
{"is_sidechain": [false], "intermolecular_energy": 2.731, "internal_energy": -0.839}

$$$$
EPH_relaxed_0001_pdb2pqr_Repair_315_r2_0001_out
     RDKit          3D

 82 86  0  0  0  0  0  0  0  0999 V2000
    0.0660   10.4410   -4.1120 C   0  0  0  0  0  0  0  0  0  0  0  0
    1.1520   10.2170   -3.0570 C   0  0  2  0  0  0  0  0  0  0  0  0
    0.9250    8.9190   -2.2560 C   0  0  0  0  0  0  0  0  0  0  0  0
   -0.5390    8.6750   -1.8820 C   0  0  0  0  0  0  0  0  0  0  0  0
   -0.8110    9.0240   -0.4500 C   0  0  2  0  0  0  0  0  0  0  0  0
   -2.2010    9.1220   -0.1120 O   0  0  0  0  0  0  0  0  0  0  0  0
   -1.4360   10.3350   -0.0130 C   0  0  0  0  0  0  0  0  0  0  0  0
   -1.8270   11.3830   -1.0070 C   0  0  0  0  0  0  0  0  0  0  0  0
   -1.2190   10.7970    1.3940 C   0  0  0  0  0  0  0  0  0  0  0  0
    1.2120   11.4100   -2.1100 C   0  0  1  0  0  0  0  0  0  0  0  0
    2.0550   11.1230   -0.8400 C   0  0  0  0  0  0  0  0  0  0  0  0
    2.7660   12.4490   -0.4650 C   0  0  0  0  0  0  0  0  0  0  0  0
    2.0590   13.5250   -1.3220 C   0  0  1  0  0  0  0  0  0  0  0  0
    0.7490   13.8620   -0.5420 C   0  0  0  0  0  0  0  0  0  0  0  0
    2.8900   14.8120   -1.6370 C   0  0  2  0  0  0  0  0  0  0  0  0
    3.2970   15.6430   -0.4080 C   0  0  0  0  0  0  0  0  0  0  0  0
    2.3280   16.7060   -0.0070 C   0  0  0  0  0  0  0  0  0  0  0  0
    1.3210   17.1740   -0.7680 C   0  0  0  0  0  0  0  0  0  0  0  0
    1.1370   16.6930   -2.2140 C   0  0  1  0  0  0  0  0  0  0  0  0
    0.8910   17.9140   -3.1380 C   0  0  0  0  0  0  0  0  0  0  0  0
   -0.2670   18.7850   -2.6610 C   0  0  0  0  0  0  0  0  0  0  0  0
   -0.0210   19.2910   -1.2420 C   0  0  2  0  0  0  0  0  0  0  0  0
    1.0900   20.1920   -1.2610 O   0  0  0  0  0  0  0  0  0  0  0  0
    0.2490   18.1490   -0.2220 C   0  0  0  0  0  0  0  0  0  0  0  0
   -1.0550   17.3510    0.0230 C   0  0  0  0  0  0  0  0  0  0  0  0
    0.6220   18.8010    1.1370 C   0  0  0  0  0  0  0  0  0  0  0  0
    2.2670   15.7240   -2.7710 C   0  0  1  0  0  0  0  0  0  0  0  0
    3.4410   16.5610   -3.3640 C   0  0  0  0  0  0  0  0  0  0  0  0
    1.6780   14.8790   -3.9620 C   0  0  0  0  0  0  0  0  0  0  0  0
    0.9740   13.5590   -3.5950 C   0  0  0  0  0  0  0  0  0  0  0  0
    1.8410   12.7180   -2.6530 C   0  0  2  0  0  0  0  0  0  0  0  0
    3.1560   12.3460   -3.4180 C   0  0  0  0  0  0  0  0  0  0  0  0
   -0.8943   10.6391   -3.6134 H   0  0  0  0  0  0  0  0  0  0  0  0
    0.3373   11.3021   -4.7404 H   0  0  0  0  0  0  0  0  0  0  0  0
   -0.0255    9.5428   -4.7404 H   0  0  0  0  0  0  0  0  0  0  0  0
    2.1108   10.1147   -3.5865 H   0  0  0  0  0  0  0  0  0  0  0  0
    1.2744    8.0707   -2.8629 H   0  0  0  0  0  0  0  0  0  0  0  0
    1.4848    9.0201   -1.3145 H   0  0  0  0  0  0  0  0  0  0  0  0
   -1.1797    9.2937   -2.5276 H   0  0  0  0  0  0  0  0  0  0  0  0
   -0.7547    7.6054   -2.0212 H   0  0  0  0  0  0  0  0  0  0  0  0
    0.0964    8.4948   -0.1237 H   0  0  0  0  0  0  0  0  0  0  0  0
   -2.1636   12.2852   -0.4753 H   0  0  0  0  0  0  0  0  0  0  0  0
   -0.9609   11.6310   -1.6382 H   0  0  0  0  0  0  0  0  0  0  0  0
   -2.6439   11.0031   -1.6382 H   0  0  0  0  0  0  0  0  0  0  0  0
   -1.5803   10.0277    2.0924 H   0  0  0  0  0  0  0  0  0  0  0  0
   -0.1457   10.9696    1.5618 H   0  0  0  0  0  0  0  0  0  0  0  0
   -1.7715   11.7332    1.5618 H   0  0  0  0  0  0  0  0  0  0  0  0
    0.1368   11.5560   -1.9294 H   0  0  0  0  0  0  0  0  0  0  0  0
    1.4014   10.7979   -0.0171 H   0  0  0  0  0  0  0  0  0  0  0  0
    2.7858   10.3217   -1.0241 H   0  0  0  0  0  0  0  0  0  0  0  0
    2.6454   12.6649    0.6068 H   0  0  0  0  0  0  0  0  0  0  0  0
    3.8490   12.4101   -0.6535 H   0  0  0  0  0  0  0  0  0  0  0  0
    0.9431   13.8121    0.5396 H   0  0  0  0  0  0  0  0  0  0  0  0
    0.4143   14.8755   -0.8080 H   0  0  0  0  0  0  0  0  0  0  0  0
   -0.0333   13.1358   -0.8080 H   0  0  0  0  0  0  0  0  0  0  0  0
    3.8256   14.3963   -2.0393 H   0  0  0  0  0  0  0  0  0  0  0  0
    3.4182   14.9555    0.4421 H   0  0  0  0  0  0  0  0  0  0  0  0
    4.2235   16.1658   -0.6877 H   0  0  0  0  0  0  0  0  0  0  0  0
    2.4471   17.1437    0.9951 H   0  0  0  0  0  0  0  0  0  0  0  0
    0.2487   16.0442   -2.2084 H   0  0  0  0  0  0  0  0  0  0  0  0
    1.8047   18.5259   -3.1645 H   0  0  0  0  0  0  0  0  0  0  0  0
    0.6313   17.5306   -4.1358 H   0  0  0  0  0  0  0  0  0  0  0  0
   -0.3718   19.6463   -3.3371 H   0  0  0  0  0  0  0  0  0  0  0  0
   -1.1856   18.1798   -2.6635 H   0  0  0  0  0  0  0  0  0  0  0  0
   -0.9384   19.7981   -0.9085 H   0  0  0  0  0  0  0  0  0  0  0  0
    1.3810   20.3200   -0.3420 H   0  0  0  0  0  0  0  0  0  0  0  0
   -1.2238   17.2477    1.1050 H   0  0  0  0  0  0  0  0  0  0  0  0
   -1.9026   17.8853   -0.4310 H   0  0  0  0  0  0  0  0  0  0  0  0
   -0.9650   16.3531   -0.4310 H   0  0  0  0  0  0  0  0  0  0  0  0
    0.2594   18.1671    1.9596 H   0  0  0  0  0  0  0  0  0  0  0  0
    1.7150   18.9029    1.2071 H   0  0  0  0  0  0  0  0  0  0  0  0
    0.1559   19.7949    1.2071 H   0  0  0  0  0  0  0  0  0  0  0  0
    4.0383   16.9869   -2.5443 H   0  0  0  0  0  0  0  0  0  0  0  0
    4.0779   15.9120   -3.9830 H   0  0  0  0  0  0  0  0  0  0  0  0
    3.0351   17.3747   -3.9830 H   0  0  0  0  0  0  0  0  0  0  0  0
    0.9475   15.5105   -4.4889 H   0  0  0  0  0  0  0  0  0  0  0  0
    2.5498   14.5828   -4.5638 H   0  0  0  0  0  0  0  0  0  0  0  0
    0.0193   13.7865   -3.0982 H   0  0  0  0  0  0  0  0  0  0  0  0
    0.8012   12.9856   -4.5177 H   0  0  0  0  0  0  0  0  0  0  0  0
    3.9513   12.1210   -2.6921 H   0  0  0  0  0  0  0  0  0  0  0  0
    2.9757   11.4636   -4.0496 H   0  0  0  0  0  0  0  0  0  0  0  0
    3.4646   13.1921   -4.0496 H   0  0  0  0  0  0  0  0  0  0  0  0
  1  2  1  0
  2  3  1  0
  3  4  1  0
  4  5  1  0
  5  6  1  0
  6  7  1  0
  7  8  1  0
  7  9  1  0
  2 10  1  0
 10 11  1  0
 11 12  1  0
 12 13  1  0
 13 14  1  1
 13 15  1  0
 15 16  1  0
 16 17  1  0
 17 18  2  0
 18 19  1  0
 19 20  1  0
 20 21  1  0
 21 22  1  0
 22 23  1  0
 22 24  1  0
 24 25  1  0
 24 26  1  0
 19 27  1  0
 27 28  1  6
 27 29  1  0
 29 30  1  0
 30 31  1  0
 31 32  1  6
  7  5  1  0
 31 10  1  0
 31 13  1  0
 27 15  1  0
 24 18  1  0
  1 33  1  0
  1 34  1  0
  1 35  1  0
  2 36  1  6
  3 37  1  0
  3 38  1  0
  4 39  1  0
  4 40  1  0
  5 41  1  1
  8 42  1  0
  8 43  1  0
  8 44  1  0
  9 45  1  0
  9 46  1  0
  9 47  1  0
 10 48  1  1
 11 49  1  0
 11 50  1  0
 12 51  1  0
 12 52  1  0
 14 53  1  0
 14 54  1  0
 14 55  1  0
 15 56  1  6
 16 57  1  0
 16 58  1  0
 17 59  1  0
 19 60  1  1
 20 61  1  0
 20 62  1  0
 21 63  1  0
 21 64  1  0
 22 65  1  1
 23 66  1  0
 25 67  1  0
 25 68  1  0
 25 69  1  0
 26 70  1  0
 26 71  1  0
 26 72  1  0
 28 73  1  0
 28 74  1  0
 28 75  1  0
 29 76  1  0
 29 77  1  0
 30 78  1  0
 30 79  1  0
 32 80  1  0
 32 81  1  0
 32 82  1  0
M  END
>  <meeko>  (10) 
{"is_sidechain": [false], "intermolecular_energy": 2.731, "internal_energy": -0.839}

$$$$
EPH_relaxed_0001_pdb2pqr_Repair_315_r2_0001_out
     RDKit          3D

 82 86  0  0  0  0  0  0  0  0999 V2000
    4.6460   17.1010   -3.0630 C   0  0  0  0  0  0  0  0  0  0  0  0
    3.7890   17.5180   -1.8640 C   0  0  2  0  0  0  0  0  0  0  0  0
    4.5980   17.5390   -0.5510 C   0  0  0  0  0  0  0  0  0  0  0  0
    3.8210   18.1040    0.6410 C   0  0  0  0  0  0  0  0  0  0  0  0
    2.5400   18.7520    0.2110 C   0  0  2  0  0  0  0  0  0  0  0  0
    2.6360   20.1600   -0.0420 O   0  0  0  0  0  0  0  0  0  0  0  0
    1.7920   19.7680    1.0530 C   0  0  0  0  0  0  0  0  0  0  0  0
    2.3000   20.1940    2.3950 C   0  0  0  0  0  0  0  0  0  0  0  0
    0.3330   19.9770    0.7950 C   0  0  0  0  0  0  0  0  0  0  0  0
    2.5970   16.5790   -1.7260 C   0  0  1  0  0  0  0  0  0  0  0  0
    1.2880   17.1870   -2.2980 C   0  0  0  0  0  0  0  0  0  0  0  0
    0.4820   16.0140   -2.9140 C   0  0  0  0  0  0  0  0  0  0  0  0
    1.1840   14.7400   -2.3880 C   0  0  1  0  0  0  0  0  0  0  0  0
    0.6200   14.5370   -0.9470 C   0  0  0  0  0  0  0  0  0  0  0  0
    1.0200   13.4520   -3.2590 C   0  0  2  0  0  0  0  0  0  0  0  0
   -0.4250   12.9440   -3.4080 C   0  0  0  0  0  0  0  0  0  0  0  0
   -0.8650   11.9620   -2.3730 C   0  0  0  0  0  0  0  0  0  0  0  0
   -0.0530   11.2890   -1.5370 C   0  0  0  0  0  0  0  0  0  0  0  0
    1.4720   11.4160   -1.6500 C   0  0  1  0  0  0  0  0  0  0  0  0
    2.1150   10.0050   -1.5890 C   0  0  0  0  0  0  0  0  0  0  0  0
    1.6840    9.2190   -0.3540 C   0  0  0  0  0  0  0  0  0  0  0  0
    0.1660    9.0640   -0.3080 C   0  0  2  0  0  0  0  0  0  0  0  0
   -0.2450    8.2310   -1.3960 O   0  0  0  0  0  0  0  0  0  0  0  0
   -0.5900   10.4210   -0.3740 C   0  0  0  0  0  0  0  0  0  0  0  0
   -0.3810   11.1980    0.9500 C   0  0  0  0  0  0  0  0  0  0  0  0
   -2.1100   10.1160   -0.4620 C   0  0  0  0  0  0  0  0  0  0  0  0
    2.0080   12.2780   -2.8730 C   0  0  1  0  0  0  0  0  0  0  0  0
    2.1460   11.3780   -4.1380 C   0  0  0  0  0  0  0  0  0  0  0  0
    3.4550   12.8000   -2.5390 C   0  0  0  0  0  0  0  0  0  0  0  0
    3.5540   14.1380   -1.7810 C   0  0  0  0  0  0  0  0  0  0  0  0
    2.6830   15.2090   -2.4450 C   0  0  2  0  0  0  0  0  0  0  0  0
    3.2400   15.4510   -3.8900 C   0  0  0  0  0  0  0  0  0  0  0  0
    5.5812   16.6460   -2.7047 H   0  0  0  0  0  0  0  0  0  0  0  0
    4.0932   16.3712   -3.6727 H   0  0  0  0  0  0  0  0  0  0  0  0
    4.8791   17.9864   -3.6727 H   0  0  0  0  0  0  0  0  0  0  0  0
    3.4355   18.5429   -2.0503 H   0  0  0  0  0  0  0  0  0  0  0  0
    4.8994   16.5084   -0.3122 H   0  0  0  0  0  0  0  0  0  0  0  0
    5.4610   18.2010   -0.7154 H   0  0  0  0  0  0  0  0  0  0  0  0
    3.5896   17.2839    1.3367 H   0  0  0  0  0  0  0  0  0  0  0  0
    4.4458   18.8683    1.1263 H   0  0  0  0  0  0  0  0  0  0  0  0
    2.2157   17.8294   -0.2926 H   0  0  0  0  0  0  0  0  0  0  0  0
    1.7120   19.7009    3.1831 H   0  0  0  0  0  0  0  0  0  0  0  0
    3.3578   19.9089    2.4941 H   0  0  0  0  0  0  0  0  0  0  0  0
    2.2036   21.2853    2.4941 H   0  0  0  0  0  0  0  0  0  0  0  0
   -0.2015   20.0536    1.7533 H   0  0  0  0  0  0  0  0  0  0  0  0
    0.1913   20.9046    0.2210 H   0  0  0  0  0  0  0  0  0  0  0  0
   -0.0634   19.1265    0.2210 H   0  0  0  0  0  0  0  0  0  0  0  0
    2.6033   16.4328   -0.6358 H   0  0  0  0  0  0  0  0  0  0  0  0
    0.7085   17.6636   -1.4936 H   0  0  0  0  0  0  0  0  0  0  0  0
    1.5068   17.9558   -3.0537 H   0  0  0  0  0  0  0  0  0  0  0  0
   -0.5659   16.0456   -2.5809 H   0  0  0  0  0  0  0  0  0  0  0  0
    0.4599   16.0547   -4.0130 H   0  0  0  0  0  0  0  0  0  0  0  0
    1.3885   14.8136   -0.2101 H   0  0  0  0  0  0  0  0  0  0  0  0
   -0.2672   15.1722   -0.8076 H   0  0  0  0  0  0  0  0  0  0  0  0
    0.3412   13.4821   -0.8076 H   0  0  0  0  0  0  0  0  0  0  0  0
    1.3173   13.8042   -4.2578 H   0  0  0  0  0  0  0  0  0  0  0  0
   -1.0976   13.8131   -3.3599 H   0  0  0  0  0  0  0  0  0  0  0  0
   -0.4628   12.4108   -4.3694 H   0  0  0  0  0  0  0  0  0  0  0  0
   -1.9451   11.7724   -2.2864 H   0  0  0  0  0  0  0  0  0  0  0  0
    1.7923   12.0106   -0.7818 H   0  0  0  0  0  0  0  0  0  0  0  0
    1.8176    9.4428   -2.4865 H   0  0  0  0  0  0  0  0  0  0  0  0
    3.2058   10.1369   -1.5372 H   0  0  0  0  0  0  0  0  0  0  0  0
    2.1470    8.2216   -0.3824 H   0  0  0  0  0  0  0  0  0  0  0  0
    2.0081    9.7682    0.5423 H   0  0  0  0  0  0  0  0  0  0  0  0
   -0.0906    8.6086    0.6599 H   0  0  0  0  0  0  0  0  0  0  0  0
    0.5150    7.6800   -1.6490 H   0  0  0  0  0  0  0  0  0  0  0  0
   -0.5617   10.5260    1.8019 H   0  0  0  0  0  0  0  0  0  0  0  0
    0.6509   11.5765    0.9940 H   0  0  0  0  0  0  0  0  0  0  0  0
   -1.0837   12.0431    0.9940 H   0  0  0  0  0  0  0  0  0  0  0  0
   -2.5265   10.0324    0.5526 H   0  0  0  0  0  0  0  0  0  0  0  0
   -2.6168   10.9304   -1.0005 H   0  0  0  0  0  0  0  0  0  0  0  0
   -2.2634    9.1692   -1.0005 H   0  0  0  0  0  0  0  0  0  0  0  0
    2.3060   10.3343   -3.8297 H   0  0  0  0  0  0  0  0  0  0  0  0
    1.2269   11.4461   -4.7385 H   0  0  0  0  0  0  0  0  0  0  0  0
    3.0024   11.7184   -4.7385 H   0  0  0  0  0  0  0  0  0  0  0  0
    3.9521   12.0332   -1.9267 H   0  0  0  0  0  0  0  0  0  0  0  0
    3.9256   12.9873   -3.5155 H   0  0  0  0  0  0  0  0  0  0  0  0
    3.2159   13.9906   -0.7447 H   0  0  0  0  0  0  0  0  0  0  0  0
    4.6008   14.4755   -1.7996 H   0  0  0  0  0  0  0  0  0  0  0  0
    4.2472   15.8886   -3.8262 H   0  0  0  0  0  0  0  0  0  0  0  0
    3.2897   14.4934   -4.4289 H   0  0  0  0  0  0  0  0  0  0  0  0
    2.5740   16.1409   -4.4289 H   0  0  0  0  0  0  0  0  0  0  0  0
  1  2  1  0
  2  3  1  0
  3  4  1  0
  4  5  1  0
  5  6  1  0
  6  7  1  0
  7  8  1  0
  7  9  1  0
  2 10  1  0
 10 11  1  0
 11 12  1  0
 12 13  1  0
 13 14  1  1
 13 15  1  0
 15 16  1  0
 16 17  1  0
 17 18  2  0
 18 19  1  0
 19 20  1  0
 20 21  1  0
 21 22  1  0
 22 23  1  0
 22 24  1  0
 24 25  1  0
 24 26  1  0
 19 27  1  0
 27 28  1  6
 27 29  1  0
 29 30  1  0
 30 31  1  0
 31 32  1  6
  7  5  1  0
 31 10  1  0
 31 13  1  0
 27 15  1  0
 24 18  1  0
  1 33  1  0
  1 34  1  0
  1 35  1  0
  2 36  1  6
  3 37  1  0
  3 38  1  0
  4 39  1  0
  4 40  1  0
  5 41  1  6
  8 42  1  0
  8 43  1  0
  8 44  1  0
  9 45  1  0
  9 46  1  0
  9 47  1  0
 10 48  1  1
 11 49  1  0
 11 50  1  0
 12 51  1  0
 12 52  1  0
 14 53  1  0
 14 54  1  0
 14 55  1  0
 15 56  1  6
 16 57  1  0
 16 58  1  0
 17 59  1  0
 19 60  1  1
 20 61  1  0
 20 62  1  0
 21 63  1  0
 21 64  1  0
 22 65  1  1
 23 66  1  0
 25 67  1  0
 25 68  1  0
 25 69  1  0
 26 70  1  0
 26 71  1  0
 26 72  1  0
 28 73  1  0
 28 74  1  0
 28 75  1  0
 29 76  1  0
 29 77  1  0
 30 78  1  0
 30 79  1  0
 32 80  1  0
 32 81  1  0
 32 82  1  0
M  END
>  <meeko>  (11) 
{"is_sidechain": [false], "intermolecular_energy": 2.731, "internal_energy": -0.839}

$$$$
EPH_relaxed_0001_pdb2pqr_Repair_315_r2_0001_out
     RDKit          3D

 82 86  0  0  0  0  0  0  0  0999 V2000
    4.4920   10.8260   -4.4400 C   0  0  0  0  0  0  0  0  0  0  0  0
    3.8530   11.1330   -3.0830 C   0  0  2  0  0  0  0  0  0  0  0  0
    2.3550   10.7700   -3.0510 C   0  0  0  0  0  0  0  0  0  0  0  0
    1.9180   10.0730   -1.7600 C   0  0  0  0  0  0  0  0  0  0  0  0
    0.4480    9.7770   -1.7600 C   0  0  2  0  0  0  0  0  0  0  0  0
   -0.3940   10.9290   -1.6220 O   0  0  0  0  0  0  0  0  0  0  0  0
   -0.4440    9.9750   -0.5490 C   0  0  0  0  0  0  0  0  0  0  0  0
    0.1010   10.4870    0.7470 C   0  0  0  0  0  0  0  0  0  0  0  0
   -1.7320    9.2150   -0.4780 C   0  0  0  0  0  0  0  0  0  0  0  0
    4.0390   12.6070   -2.7430 C   0  0  1  0  0  0  0  0  0  0  0  0
    5.2450   13.2440   -3.4840 C   0  0  0  0  0  0  0  0  0  0  0  0
    4.8510   14.7090   -3.8030 C   0  0  0  0  0  0  0  0  0  0  0  0
    3.5840   14.9660   -2.9530 C   0  0  1  0  0  0  0  0  0  0  0  0
    4.1190   15.2880   -1.5230 C   0  0  0  0  0  0  0  0  0  0  0  0
    2.6180   16.0800   -3.4720 C   0  0  2  0  0  0  0  0  0  0  0  0
    3.2210   17.4950   -3.5250 C   0  0  0  0  0  0  0  0  0  0  0  0
    3.0430   18.3100   -2.2870 C   0  0  0  0  0  0  0  0  0  0  0  0
    2.1850   18.0360   -1.2860 C   0  0  0  0  0  0  0  0  0  0  0  0
    1.2080   16.8580   -1.3870 C   0  0  1  0  0  0  0  0  0  0  0  0
   -0.2080   17.3210   -0.9530 C   0  0  0  0  0  0  0  0  0  0  0  0
   -0.2140   17.9680    0.4290 C   0  0  0  0  0  0  0  0  0  0  0  0
    0.7260   19.1700    0.4730 C   0  0  2  0  0  0  0  0  0  0  0  0
    0.2040   20.1940   -0.3790 O   0  0  0  0  0  0  0  0  0  0  0  0
    2.1800   18.8260    0.0450 C   0  0  0  0  0  0  0  0  0  0  0  0
    2.8490   17.9500    1.1330 C   0  0  0  0  0  0  0  0  0  0  0  0
    2.9890   20.1510   -0.0030 C   0  0  0  0  0  0  0  0  0  0  0  0
    1.1970   16.0830   -2.7750 C   0  0  1  0  0  0  0  0  0  0  0  0
    0.2160   16.7790   -3.7660 C   0  0  0  0  0  0  0  0  0  0  0  0
    0.6400   14.6280   -2.5460 C   0  0  0  0  0  0  0  0  0  0  0  0
    1.6630   13.5460   -2.1510 C   0  0  0  0  0  0  0  0  0  0  0  0
    2.8750   13.5690   -3.0880 C   0  0  2  0  0  0  0  0  0  0  0  0
    2.3710   13.2270   -4.5310 C   0  0  0  0  0  0  0  0  0  0  0  0
    5.4736   10.3544   -4.2848 H   0  0  0  0  0  0  0  0  0  0  0  0
    3.8418   10.1419   -5.0051 H   0  0  0  0  0  0  0  0  0  0  0  0
    4.6197   11.7611   -5.0051 H   0  0  0  0  0  0  0  0  0  0  0  0
    4.3594   10.5108   -2.3304 H   0  0  0  0  0  0  0  0  0  0  0  0
    1.7710   11.6957   -3.1607 H   0  0  0  0  0  0  0  0  0  0  0  0
    2.1782   10.0621   -3.8742 H   0  0  0  0  0  0  0  0  0  0  0  0
    2.4720    9.1280   -1.6600 H   0  0  0  0  0  0  0  0  0  0  0  0
    2.1323   10.7465   -0.9171 H   0  0  0  0  0  0  0  0  0  0  0  0
    0.5954    8.9219   -2.4360 H   0  0  0  0  0  0  0  0  0  0  0  0
   -0.4201    9.9974    1.5829 H   0  0  0  0  0  0  0  0  0  0  0  0
    1.1769   10.2654    0.8054 H   0  0  0  0  0  0  0  0  0  0  0  0
   -0.0531   11.5746    0.8054 H   0  0  0  0  0  0  0  0  0  0  0  0
   -2.0051    9.0539    0.5753 H   0  0  0  0  0  0  0  0  0  0  0  0
   -2.5250    9.7899   -0.9786 H   0  0  0  0  0  0  0  0  0  0  0  0
   -1.6122    8.2429   -0.9786 H   0  0  0  0  0  0  0  0  0  0  0  0
    4.1531   12.5310   -1.6516 H   0  0  0  0  0  0  0  0  0  0  0  0
    6.1380   13.2231   -2.8420 H   0  0  0  0  0  0  0  0  0  0  0  0
    5.4810   12.6892   -4.4041 H   0  0  0  0  0  0  0  0  0  0  0  0
    5.6578   15.3994   -3.5161 H   0  0  0  0  0  0  0  0  0  0  0  0
    4.6727   14.8688   -4.8766 H   0  0  0  0  0  0  0  0  0  0  0  0
    3.4304   14.8736   -0.7720 H   0  0  0  0  0  0  0  0  0  0  0  0
    5.1150   14.8392   -1.3945 H   0  0  0  0  0  0  0  0  0  0  0  0
    4.1887   16.3782   -1.3945 H   0  0  0  0  0  0  0  0  0  0  0  0
    2.4591   15.7839   -4.5194 H   0  0  0  0  0  0  0  0  0  0  0  0
    4.2999   17.3979   -3.7160 H   0  0  0  0  0  0  0  0  0  0  0  0
    2.6793   18.0274   -4.3207 H   0  0  0  0  0  0  0  0  0  0  0  0
    3.6656   19.2109   -2.1837 H   0  0  0  0  0  0  0  0  0  0  0  0
    1.5812   16.0932   -0.6900 H   0  0  0  0  0  0  0  0  0  0  0  0
   -0.5802   18.0518   -1.6861 H   0  0  0  0  0  0  0  0  0  0  0  0
   -0.8513   16.4299   -0.9073 H   0  0  0  0  0  0  0  0  0  0  0  0
   -1.2353   18.3008    0.6662 H   0  0  0  0  0  0  0  0  0  0  0  0
    0.1297   17.2265    1.1652 H   0  0  0  0  0  0  0  0  0  0  0  0
    0.7784   19.5102    1.5177 H   0  0  0  0  0  0  0  0  0  0  0  0
   -0.7270   20.3330   -0.1350 H   0  0  0  0  0  0  0  0  0  0  0  0
    2.5652   18.3216    2.1287 H   0  0  0  0  0  0  0  0  0  0  0  0
    2.5147   16.9080    1.0215 H   0  0  0  0  0  0  0  0  0  0  0  0
    3.9423   17.9982    1.0215 H   0  0  0  0  0  0  0  0  0  0  0  0
    3.1967   20.4911    1.0223 H   0  0  0  0  0  0  0  0  0  0  0  0
    3.9382   19.9821   -0.5326 H   0  0  0  0  0  0  0  0  0  0  0  0
    2.4051   20.9182   -0.5326 H   0  0  0  0  0  0  0  0  0  0  0  0
   -0.5526   17.3243   -3.1987 H   0  0  0  0  0  0  0  0  0  0  0  0
    0.7738   17.4845   -4.3994 H   0  0  0  0  0  0  0  0  0  0  0  0
   -0.2656   16.0194   -4.3994 H   0  0  0  0  0  0  0  0  0  0  0  0
   -0.1127   14.6821   -1.7457 H   0  0  0  0  0  0  0  0  0  0  0  0
    0.2506   14.3118   -3.5250 H   0  0  0  0  0  0  0  0  0  0  0  0
    2.0013   13.7297   -1.1205 H   0  0  0  0  0  0  0  0  0  0  0  0
    1.1791   12.5611   -2.2276 H   0  0  0  0  0  0  0  0  0  0  0  0
    1.4624   12.6104   -4.4655 H   0  0  0  0  0  0  0  0  0  0  0  0
    2.1440   14.1584   -5.0705 H   0  0  0  0  0  0  0  0  0  0  0  0
    3.1526   12.6720   -5.0705 H   0  0  0  0  0  0  0  0  0  0  0  0
  1  2  1  0
  2  3  1  0
  3  4  1  0
  4  5  1  0
  5  6  1  0
  6  7  1  0
  7  8  1  0
  7  9  1  0
  2 10  1  0
 10 11  1  0
 11 12  1  0
 12 13  1  0
 13 14  1  1
 13 15  1  0
 15 16  1  0
 16 17  1  0
 17 18  2  0
 18 19  1  0
 19 20  1  0
 20 21  1  0
 21 22  1  0
 22 23  1  0
 22 24  1  0
 24 25  1  0
 24 26  1  0
 19 27  1  0
 27 28  1  6
 27 29  1  0
 29 30  1  0
 30 31  1  0
 31 32  1  6
  7  5  1  0
 31 10  1  0
 31 13  1  0
 27 15  1  0
 24 18  1  0
  1 33  1  0
  1 34  1  0
  1 35  1  0
  2 36  1  1
  3 37  1  0
  3 38  1  0
  4 39  1  0
  4 40  1  0
  5 41  1  6
  8 42  1  0
  8 43  1  0
  8 44  1  0
  9 45  1  0
  9 46  1  0
  9 47  1  0
 10 48  1  1
 11 49  1  0
 11 50  1  0
 12 51  1  0
 12 52  1  0
 14 53  1  0
 14 54  1  0
 14 55  1  0
 15 56  1  6
 16 57  1  0
 16 58  1  0
 17 59  1  0
 19 60  1  1
 20 61  1  0
 20 62  1  0
 21 63  1  0
 21 64  1  0
 22 65  1  1
 23 66  1  0
 25 67  1  0
 25 68  1  0
 25 69  1  0
 26 70  1  0
 26 71  1  0
 26 72  1  0
 28 73  1  0
 28 74  1  0
 28 75  1  0
 29 76  1  0
 29 77  1  0
 30 78  1  0
 30 79  1  0
 32 80  1  0
 32 81  1  0
 32 82  1  0
M  END
>  <meeko>  (12) 
{"is_sidechain": [false], "intermolecular_energy": 2.731, "internal_energy": -0.839}

$$$$
EPH_relaxed_0001_pdb2pqr_Repair_315_r2_0001_out
     RDKit          3D

 82 86  0  0  0  0  0  0  0  0999 V2000
   -0.8750   10.0840    1.1500 C   0  0  0  0  0  0  0  0  0  0  0  0
   -1.4790   10.1360   -0.2560 C   0  0  2  0  0  0  0  0  0  0  0  0
   -2.1760    8.8140   -0.6380 C   0  0  0  0  0  0  0  0  0  0  0  0
   -3.7040    8.8820   -0.5700 C   0  0  0  0  0  0  0  0  0  0  0  0
   -4.3320    7.5640   -0.9070 C   0  0  2  0  0  0  0  0  0  0  0  0
   -4.6550    7.3910   -2.2930 O   0  0  0  0  0  0  0  0  0  0  0  0
   -5.7660    7.4180   -1.3830 C   0  0  0  0  0  0  0  0  0  0  0  0
   -6.6590    8.6080   -1.5460 C   0  0  0  0  0  0  0  0  0  0  0  0
   -6.4430    6.0930   -1.2190 C   0  0  0  0  0  0  0  0  0  0  0  0
   -0.3950   10.4660   -1.2750 C   0  0  1  0  0  0  0  0  0  0  0  0
   -0.6210    9.7600   -2.6380 C   0  0  0  0  0  0  0  0  0  0  0  0
   -0.1260   10.7370   -3.7360 C   0  0  0  0  0  0  0  0  0  0  0  0
    0.6650   11.8200   -2.9660 C   0  0  1  0  0  0  0  0  0  0  0  0
    2.0710   11.1880   -2.7170 C   0  0  0  0  0  0  0  0  0  0  0  0
    0.7750   13.2180   -3.6570 C   0  0  2  0  0  0  0  0  0  0  0  0
    1.5160   13.2230   -5.0060 C   0  0  0  0  0  0  0  0  0  0  0  0
    2.9870   13.4610   -4.9230 C   0  0  0  0  0  0  0  0  0  0  0  0
    3.6430   13.9440   -3.8510 C   0  0  0  0  0  0  0  0  0  0  0  0
    2.8800   14.3970   -2.6000 C   0  0  1  0  0  0  0  0  0  0  0  0
    3.4240   15.7720   -2.1310 C   0  0  0  0  0  0  0  0  0  0  0  0
    4.9350   15.7630   -1.9220 C   0  0  0  0  0  0  0  0  0  0  0  0
    5.6610   15.3640   -3.2040 C   0  0  2  0  0  0  0  0  0  0  0  0
    5.4640   16.3900   -4.1830 O   0  0  0  0  0  0  0  0  0  0  0  0
    5.1890   13.9980   -3.7760 C   0  0  0  0  0  0  0  0  0  0  0  0
    5.6710   12.8530   -2.8530 C   0  0  0  0  0  0  0  0  0  0  0  0
    5.8960   13.7820   -5.1410 C   0  0  0  0  0  0  0  0  0  0  0  0
    1.2940   14.3720   -2.7070 C   0  0  1  0  0  0  0  0  0  0  0  0
    0.7810   15.7130   -3.3140 C   0  0  0  0  0  0  0  0  0  0  0  0
    0.6820   14.2760   -1.2600 C   0  0  0  0  0  0  0  0  0  0  0  0
    0.4880   12.8630   -0.6790 C   0  0  0  0  0  0  0  0  0  0  0  0
   -0.2300   11.9530   -1.6810 C   0  0  2  0  0  0  0  0  0  0  0  0
   -1.6560   12.5510   -1.9330 C   0  0  0  0  0  0  0  0  0  0  0  0
   -1.6792   10.1532    1.8973 H   0  0  0  0  0  0  0  0  0  0  0  0
   -0.3330    9.1359    1.2814 H   0  0  0  0  0  0  0  0  0  0  0  0
   -0.1789   10.9255    1.2814 H   0  0  0  0  0  0  0  0  0  0  0  0
   -2.2447   10.9257   -0.2583 H   0  0  0  0  0  0  0  0  0  0  0  0
   -1.8854    8.5527   -1.6662 H   0  0  0  0  0  0  0  0  0  0  0  0
   -1.8549    8.0581    0.0938 H   0  0  0  0  0  0  0  0  0  0  0  0
   -4.0032    9.1696    0.4487 H   0  0  0  0  0  0  0  0  0  0  0  0
   -4.0477    9.6241   -1.3056 H   0  0  0  0  0  0  0  0  0  0  0  0
   -3.7643    7.0629   -0.1091 H   0  0  0  0  0  0  0  0  0  0  0  0
   -6.9456    8.9899   -0.5550 H   0  0  0  0  0  0  0  0  0  0  0  0
   -6.1255    9.3934   -2.1014 H   0  0  0  0  0  0  0  0  0  0  0  0
   -7.5622    8.3153   -2.1014 H   0  0  0  0  0  0  0  0  0  0  0  0
   -6.5571    5.8696   -0.1480 H   0  0  0  0  0  0  0  0  0  0  0  0
   -7.4345    6.1265   -1.6943 H   0  0  0  0  0  0  0  0  0  0  0  0
   -5.8349    5.3092   -1.6943 H   0  0  0  0  0  0  0  0  0  0  0  0
    0.4909   10.1265   -0.7182 H   0  0  0  0  0  0  0  0  0  0  0  0
   -0.0471    8.8224   -2.6786 H   0  0  0  0  0  0  0  0  0  0  0  0
   -1.6825    9.5097   -2.7817 H   0  0  0  0  0  0  0  0  0  0  0  0
    0.5254   10.2169   -4.4537 H   0  0  0  0  0  0  0  0  0  0  0  0
   -0.9550   11.1623   -4.3208 H   0  0  0  0  0  0  0  0  0  0  0  0
    2.2503   11.1074   -1.6347 H   0  0  0  0  0  0  0  0  0  0  0  0
    2.1083   10.1865   -3.1704 H   0  0  0  0  0  0  0  0  0  0  0  0
    2.8448   11.8249   -3.1704 H   0  0  0  0  0  0  0  0  0  0  0  0
   -0.2746   13.4476   -3.8927 H   0  0  0  0  0  0  0  0  0  0  0  0
    1.3560   12.2461   -5.4856 H   0  0  0  0  0  0  0  0  0  0  0  0
    1.1024   14.0667   -5.5779 H   0  0  0  0  0  0  0  0  0  0  0  0
    3.5864   13.2214   -5.8137 H   0  0  0  0  0  0  0  0  0  0  0  0
    3.0779   13.6354   -1.8313 H   0  0  0  0  0  0  0  0  0  0  0  0
    3.1779   16.5269   -2.8923 H   0  0  0  0  0  0  0  0  0  0  0  0
    2.9546   16.0044   -1.1637 H   0  0  0  0  0  0  0  0  0  0  0  0
    5.2627   16.7690   -1.6210 H   0  0  0  0  0  0  0  0  0  0  0  0
    5.1766   15.0292   -1.1390 H   0  0  0  0  0  0  0  0  0  0  0  0
    6.7269   15.2487   -2.9577 H   0  0  0  0  0  0  0  0  0  0  0  0
    5.0290   15.9830   -4.9510 H   0  0  0  0  0  0  0  0  0  0  0  0
    5.5452   13.1518   -1.8019 H   0  0  0  0  0  0  0  0  0  0  0  0
    5.0774   11.9482   -3.0506 H   0  0  0  0  0  0  0  0  0  0  0  0
    6.7330   12.6452   -3.0506 H   0  0  0  0  0  0  0  0  0  0  0  0
    6.9351   13.4645   -4.9695 H   0  0  0  0  0  0  0  0  0  0  0  0
    5.3645   13.0053   -5.7104 H   0  0  0  0  0  0  0  0  0  0  0  0
    5.8893   14.7232   -5.7104 H   0  0  0  0  0  0  0  0  0  0  0  0
    0.5160   16.4056   -2.5015 H   0  0  0  0  0  0  0  0  0  0  0  0
    1.5713   16.1607   -3.9344 H   0  0  0  0  0  0  0  0  0  0  0  0
   -0.1064   15.5189   -3.9344 H   0  0  0  0  0  0  0  0  0  0  0  0
    1.3486   14.8266   -0.5799 H   0  0  0  0  0  0  0  0  0  0  0  0
   -0.3325   14.6917   -1.3491 H   0  0  0  0  0  0  0  0  0  0  0  0
    1.4723   12.4325   -0.4429 H   0  0  0  0  0  0  0  0  0  0  0  0
   -0.1268   12.9384    0.2300 H   0  0  0  0  0  0  0  0  0  0  0  0
   -2.1436   12.7555   -0.9684 H   0  0  0  0  0  0  0  0  0  0  0  0
   -1.5655   13.4870   -2.5038 H   0  0  0  0  0  0  0  0  0  0  0  0
   -2.2602   11.8304   -2.5038 H   0  0  0  0  0  0  0  0  0  0  0  0
  1  2  1  0
  2  3  1  0
  3  4  1  0
  4  5  1  0
  5  6  1  0
  6  7  1  0
  7  8  1  0
  7  9  1  0
  2 10  1  0
 10 11  1  0
 11 12  1  0
 12 13  1  0
 13 14  1  1
 13 15  1  0
 15 16  1  0
 16 17  1  0
 17 18  2  0
 18 19  1  0
 19 20  1  0
 20 21  1  0
 21 22  1  0
 22 23  1  0
 22 24  1  0
 24 25  1  0
 24 26  1  0
 19 27  1  0
 27 28  1  6
 27 29  1  0
 29 30  1  0
 30 31  1  0
 31 32  1  6
  7  5  1  0
 31 10  1  0
 31 13  1  0
 27 15  1  0
 24 18  1  0
  1 33  1  0
  1 34  1  0
  1 35  1  0
  2 36  1  1
  3 37  1  0
  3 38  1  0
  4 39  1  0
  4 40  1  0
  5 41  1  1
  8 42  1  0
  8 43  1  0
  8 44  1  0
  9 45  1  0
  9 46  1  0
  9 47  1  0
 10 48  1  1
 11 49  1  0
 11 50  1  0
 12 51  1  0
 12 52  1  0
 14 53  1  0
 14 54  1  0
 14 55  1  0
 15 56  1  6
 16 57  1  0
 16 58  1  0
 17 59  1  0
 19 60  1  1
 20 61  1  0
 20 62  1  0
 21 63  1  0
 21 64  1  0
 22 65  1  1
 23 66  1  0
 25 67  1  0
 25 68  1  0
 25 69  1  0
 26 70  1  0
 26 71  1  0
 26 72  1  0
 28 73  1  0
 28 74  1  0
 28 75  1  0
 29 76  1  0
 29 77  1  0
 30 78  1  0
 30 79  1  0
 32 80  1  0
 32 81  1  0
 32 82  1  0
M  END
>  <meeko>  (13) 
{"is_sidechain": [false], "intermolecular_energy": 2.731, "internal_energy": -0.839}

$$$$
EPH_relaxed_0001_pdb2pqr_Repair_315_r2_0001_out
     RDKit          3D

 82 86  0  0  0  0  0  0  0  0999 V2000
    4.6770   16.9230   -2.1440 C   0  0  0  0  0  0  0  0  0  0  0  0
    4.7500   15.3960   -2.0420 C   0  0  2  0  0  0  0  0  0  0  0  0
    5.1520   14.7440   -3.3800 C   0  0  0  0  0  0  0  0  0  0  0  0
    6.0380   13.5060   -3.2200 C   0  0  0  0  0  0  0  0  0  0  0  0
    5.6460   12.4170   -4.1720 C   0  0  2  0  0  0  0  0  0  0  0  0
    5.2110   11.2020   -3.5460 O   0  0  0  0  0  0  0  0  0  0  0  0
    6.4180   11.1190   -4.3220 C   0  0  0  0  0  0  0  0  0  0  0  0
    7.6440   10.8420   -3.5110 C   0  0  0  0  0  0  0  0  0  0  0  0
    6.2660   10.3380   -5.5900 C   0  0  0  0  0  0  0  0  0  0  0  0
    3.4100   14.8420   -1.5740 C   0  0  1  0  0  0  0  0  0  0  0  0
    2.3760   15.9580   -1.2680 C   0  0  0  0  0  0  0  0  0  0  0  0
    0.9870   15.4050   -1.6750 C   0  0  0  0  0  0  0  0  0  0  0  0
    1.2170   13.8900   -1.8870 C   0  0  1  0  0  0  0  0  0  0  0  0
    1.1810   13.2750   -0.4530 C   0  0  0  0  0  0  0  0  0  0  0  0
    0.2200   13.1670   -2.8500 C   0  0  2  0  0  0  0  0  0  0  0  0
   -1.2500   13.1740   -2.3930 C   0  0  0  0  0  0  0  0  0  0  0  0
   -1.6610   12.0120   -1.5500 C   0  0  0  0  0  0  0  0  0  0  0  0
   -0.9710   10.8660   -1.4090 C   0  0  0  0  0  0  0  0  0  0  0  0
    0.3090   10.6120   -2.2160 C   0  0  1  0  0  0  0  0  0  0  0  0
    0.2650    9.1840   -2.8200 C   0  0  0  0  0  0  0  0  0  0  0  0
    0.0170    8.1090   -1.7660 C   0  0  0  0  0  0  0  0  0  0  0  0
   -1.2930    8.3640   -1.0250 C   0  0  2  0  0  0  0  0  0  0  0  0
   -2.3800    8.1930   -1.9390 O   0  0  0  0  0  0  0  0  0  0  0  0
   -1.3680    9.7770   -0.3810 C   0  0  0  0  0  0  0  0  0  0  0  0
   -0.3880    9.8570    0.8150 C   0  0  0  0  0  0  0  0  0  0  0  0
   -2.7920    9.9560    0.2110 C   0  0  0  0  0  0  0  0  0  0  0  0
    0.6810   11.7190   -3.2930 C   0  0  1  0  0  0  0  0  0  0  0  0
   -0.0420   11.4150   -4.6400 C   0  0  0  0  0  0  0  0  0  0  0  0
    2.2250   11.6480   -3.5920 C   0  0  0  0  0  0  0  0  0  0  0  0
    3.1480   12.4790   -2.6790 C   0  0  0  0  0  0  0  0  0  0  0  0
    2.6410   13.9190   -2.5510 C   0  0  2  0  0  0  0  0  0  0  0  0
    2.6870   14.5700   -3.9750 C   0  0  0  0  0  0  0  0  0  0  0  0
    4.6562   17.3574   -1.1336 H   0  0  0  0  0  0  0  0  0  0  0  0
    5.5583   17.2968   -2.6858 H   0  0  0  0  0  0  0  0  0  0  0  0
    3.7641   17.2111   -2.6858 H   0  0  0  0  0  0  0  0  0  0  0  0
    5.5306   15.1498   -1.3072 H   0  0  0  0  0  0  0  0  0  0  0  0
    4.2354   14.4486   -3.9115 H   0  0  0  0  0  0  0  0  0  0  0  0
    5.7388   15.4892   -3.9371 H   0  0  0  0  0  0  0  0  0  0  0  0
    7.0835   13.7886   -3.4126 H   0  0  0  0  0  0  0  0  0  0  0  0
    5.9147   13.1262   -2.1950 H   0  0  0  0  0  0  0  0  0  0  0  0
    5.2929   13.1547   -4.9076 H   0  0  0  0  0  0  0  0  0  0  0  0
    7.3961   10.8980   -2.4408 H   0  0  0  0  0  0  0  0  0  0  0  0
    8.0208    9.8361   -3.7479 H   0  0  0  0  0  0  0  0  0  0  0  0
    8.4167   11.5882   -3.7479 H   0  0  0  0  0  0  0  0  0  0  0  0
    6.0609    9.2844   -5.3494 H   0  0  0  0  0  0  0  0  0  0  0  0
    5.4311   10.7494   -6.1762 H   0  0  0  0  0  0  0  0  0  0  0  0
    7.1943   10.4063   -6.1762 H   0  0  0  0  0  0  0  0  0  0  0  0
    3.7450   14.2668   -0.6983 H   0  0  0  0  0  0  0  0  0  0  0  0
    2.3874   16.2010   -0.1952 H   0  0  0  0  0  0  0  0  0  0  0  0
    2.6125   16.8781   -1.8225 H   0  0  0  0  0  0  0  0  0  0  0  0
    0.2509   15.5780   -0.8761 H   0  0  0  0  0  0  0  0  0  0  0  0
    0.5897   15.8966   -2.5753 H   0  0  0  0  0  0  0  0  0  0  0  0
    1.2282   14.0818    0.2933 H   0  0  0  0  0  0  0  0  0  0  0  0
    0.2481   12.7074   -0.3208 H   0  0  0  0  0  0  0  0  0  0  0  0
    2.0413   12.6024   -0.3208 H   0  0  0  0  0  0  0  0  0  0  0  0
    0.2568   13.8019   -3.7475 H   0  0  0  0  0  0  0  0  0  0  0  0
   -1.4212   14.0926   -1.8125 H   0  0  0  0  0  0  0  0  0  0  0  0
   -1.8543   13.1136   -3.3102 H   0  0  0  0  0  0  0  0  0  0  0  0
   -2.6081   12.1007   -0.9976 H   0  0  0  0  0  0  0  0  0  0  0  0
    1.1404   10.6891   -1.4998 H   0  0  0  0  0  0  0  0  0  0  0  0
   -0.5438    9.1410   -3.5643 H   0  0  0  0  0  0  0  0  0  0  0  0
    1.2462    8.9843   -3.2754 H   0  0  0  0  0  0  0  0  0  0  0  0
   -0.0332    7.1267   -2.2585 H   0  0  0  0  0  0  0  0  0  0  0  0
    0.8422    8.1328   -1.0390 H   0  0  0  0  0  0  0  0  0  0  0  0
   -1.3512    7.6401   -0.1989 H   0  0  0  0  0  0  0  0  0  0  0  0
   -2.0210    8.2650   -2.8400 H   0  0  0  0  0  0  0  0  0  0  0  0
   -0.9544    9.8108    1.7568 H   0  0  0  0  0  0  0  0  0  0  0  0
    0.3164    9.0134    0.7689 H   0  0  0  0  0  0  0  0  0  0  0  0
    0.1702   10.8037    0.7689 H   0  0  0  0  0  0  0  0  0  0  0  0
   -2.7359    9.9490    1.3095 H   0  0  0  0  0  0  0  0  0  0  0  0
   -3.2125   10.9141   -0.1285 H   0  0  0  0  0  0  0  0  0  0  0  0
   -3.4365    9.1318   -0.1285 H   0  0  0  0  0  0  0  0  0  0  0  0
   -1.0382   10.9961   -4.4350 H   0  0  0  0  0  0  0  0  0  0  0  0
   -0.1471   12.3451   -5.2178 H   0  0  0  0  0  0  0  0  0  0  0  0
    0.5491   10.6892   -5.2178 H   0  0  0  0  0  0  0  0  0  0  0  0
    2.5325   10.5953   -3.5068 H   0  0  0  0  0  0  0  0  0  0  0  0
    2.3445   12.0830   -4.5952 H   0  0  0  0  0  0  0  0  0  0  0  0
    3.1769   12.0177   -1.6808 H   0  0  0  0  0  0  0  0  0  0  0  0
    4.1542   12.4997   -3.1230 H   0  0  0  0  0  0  0  0  0  0  0  0
    2.7642   15.6628   -3.8762 H   0  0  0  0  0  0  0  0  0  0  0  0
    3.5605   14.1889   -4.5244 H   0  0  0  0  0  0  0  0  0  0  0  0
    1.7686   14.3155   -4.5244 H   0  0  0  0  0  0  0  0  0  0  0  0
  1  2  1  0
  2  3  1  0
  3  4  1  0
  4  5  1  0
  5  6  1  0
  6  7  1  0
  7  8  1  0
  7  9  1  0
  2 10  1  0
 10 11  1  0
 11 12  1  0
 12 13  1  0
 13 14  1  1
 13 15  1  0
 15 16  1  0
 16 17  1  0
 17 18  2  0
 18 19  1  0
 19 20  1  0
 20 21  1  0
 21 22  1  0
 22 23  1  0
 22 24  1  0
 24 25  1  0
 24 26  1  0
 19 27  1  0
 27 28  1  6
 27 29  1  0
 29 30  1  0
 30 31  1  0
 31 32  1  6
  7  5  1  0
 31 10  1  0
 31 13  1  0
 27 15  1  0
 24 18  1  0
  1 33  1  0
  1 34  1  0
  1 35  1  0
  2 36  1  1
  3 37  1  0
  3 38  1  0
  4 39  1  0
  4 40  1  0
  5 41  1  6
  8 42  1  0
  8 43  1  0
  8 44  1  0
  9 45  1  0
  9 46  1  0
  9 47  1  0
 10 48  1  1
 11 49  1  0
 11 50  1  0
 12 51  1  0
 12 52  1  0
 14 53  1  0
 14 54  1  0
 14 55  1  0
 15 56  1  6
 16 57  1  0
 16 58  1  0
 17 59  1  0
 19 60  1  1
 20 61  1  0
 20 62  1  0
 21 63  1  0
 21 64  1  0
 22 65  1  1
 23 66  1  0
 25 67  1  0
 25 68  1  0
 25 69  1  0
 26 70  1  0
 26 71  1  0
 26 72  1  0
 28 73  1  0
 28 74  1  0
 28 75  1  0
 29 76  1  0
 29 77  1  0
 30 78  1  0
 30 79  1  0
 32 80  1  0
 32 81  1  0
 32 82  1  0
M  END
>  <meeko>  (14) 
{"is_sidechain": [false], "intermolecular_energy": 2.731, "internal_energy": -0.839}

$$$$
EPH_relaxed_0001_pdb2pqr_Repair_315_r2_0001_out
     RDKit          3D

 82 86  0  0  0  0  0  0  0  0999 V2000
    0.5920   17.8940   -0.6980 C   0  0  0  0  0  0  0  0  0  0  0  0
    1.5120   17.1050   -1.6340 C   0  0  2  0  0  0  0  0  0  0  0  0
    1.9510   17.9380   -2.8550 C   0  0  0  0  0  0  0  0  0  0  0  0
    3.4540   18.2300   -2.8920 C   0  0  0  0  0  0  0  0  0  0  0  0
    4.2640   16.9690   -2.8590 C   0  0  2  0  0  0  0  0  0  0  0  0
    5.3040   16.9520   -1.8720 O   0  0  0  0  0  0  0  0  0  0  0  0
    5.7310   16.9080   -3.2430 C   0  0  0  0  0  0  0  0  0  0  0  0
    6.4730   18.1280   -3.6900 C   0  0  0  0  0  0  0  0  0  0  0  0
    6.3080   15.5890   -3.6530 C   0  0  0  0  0  0  0  0  0  0  0  0
    0.8140   15.8310   -2.0970 C   0  0  1  0  0  0  0  0  0  0  0  0
    0.3970   15.8870   -3.5910 C   0  0  0  0  0  0  0  0  0  0  0  0
    0.5560   14.4510   -4.1540 C   0  0  0  0  0  0  0  0  0  0  0  0
    0.7350   13.5600   -2.9030 C   0  0  1  0  0  0  0  0  0  0  0  0
   -0.7130   13.3250   -2.3680 C   0  0  0  0  0  0  0  0  0  0  0  0
    1.4960   12.2110   -3.1180 C   0  0  2  0  0  0  0  0  0  0  0  0
    0.8140   11.2240   -4.0810 C   0  0  0  0  0  0  0  0  0  0  0  0
   -0.1340   10.2620   -3.4430 C   0  0  0  0  0  0  0  0  0  0  0  0
   -0.2140   10.0030   -2.1250 C   0  0  0  0  0  0  0  0  0  0  0  0
    0.7720   10.6350   -1.1350 C   0  0  1  0  0  0  0  0  0  0  0  0
    1.3000    9.5480   -0.1620 C   0  0  0  0  0  0  0  0  0  0  0  0
    0.1730    8.7940    0.5380 C   0  0  0  0  0  0  0  0  0  0  0  0
   -0.7530    8.1300   -0.4770 C   0  0  2  0  0  0  0  0  0  0  0  0
   -0.0300    7.0980   -1.1550 O   0  0  0  0  0  0  0  0  0  0  0  0
   -1.3380    9.1280   -1.5160 C   0  0  0  0  0  0  0  0  0  0  0  0
   -2.3600   10.0620   -0.8230 C   0  0  0  0  0  0  0  0  0  0  0  0
   -2.1400    8.3090   -2.5650 C   0  0  0  0  0  0  0  0  0  0  0  0
    1.9420   11.4980   -1.7780 C   0  0  1  0  0  0  0  0  0  0  0  0
    3.1440   10.5740   -2.1450 C   0  0  0  0  0  0  0  0  0  0  0  0
    2.4780   12.5190   -0.7060 C   0  0  0  0  0  0  0  0  0  0  0  0
    1.7600   13.8790   -0.6230 C   0  0  0  0  0  0  0  0  0  0  0  0
    1.6160   14.5090   -2.0120 C   0  0  2  0  0  0  0  0  0  0  0  0
    3.0570   14.7770   -2.5670 C   0  0  0  0  0  0  0  0  0  0  0  0
    0.8529   17.6703    0.3469 H   0  0  0  0  0  0  0  0  0  0  0  0
    0.7158   18.9710   -0.8843 H   0  0  0  0  0  0  0  0  0  0  0  0
   -0.4536   17.6075   -0.8843 H   0  0  0  0  0  0  0  0  0  0  0  0
    2.4185   16.8474   -1.0667 H   0  0  0  0  0  0  0  0  0  0  0  0
    1.6819   17.3856   -3.7674 H   0  0  0  0  0  0  0  0  0  0  0  0
    1.4365   18.9077   -2.7848 H   0  0  0  0  0  0  0  0  0  0  0  0
    3.6878   18.7800   -3.8155 H   0  0  0  0  0  0  0  0  0  0  0  0
    3.7099   18.8257   -2.0034 H   0  0  0  0  0  0  0  0  0  0  0  0
    3.3939   16.3728   -3.1713 H   0  0  0  0  0  0  0  0  0  0  0  0
    6.8158   18.6917   -2.8098 H   0  0  0  0  0  0  0  0  0  0  0  0
    7.3417   17.8279   -4.2944 H   0  0  0  0  0  0  0  0  0  0  0  0
    5.8070   18.7613   -4.2944 H   0  0  0  0  0  0  0  0  0  0  0  0
    6.5632   15.0057   -2.7560 H   0  0  0  0  0  0  0  0  0  0  0  0
    5.5696   15.0361   -4.2521 H   0  0  0  0  0  0  0  0  0  0  0  0
    7.2153   15.7560   -4.2521 H   0  0  0  0  0  0  0  0  0  0  0  0
   -0.0222   15.8097   -1.3826 H   0  0  0  0  0  0  0  0  0  0  0  0
   -0.6491   16.2152   -3.6802 H   0  0  0  0  0  0  0  0  0  0  0  0
    1.0207   16.6011   -4.1486 H   0  0  0  0  0  0  0  0  0  0  0  0
   -0.3404   14.1534   -4.7179 H   0  0  0  0  0  0  0  0  0  0  0  0
    1.4030   14.3672   -4.8508 H   0  0  0  0  0  0  0  0  0  0  0  0
   -0.7023   13.3267   -1.2681 H   0  0  0  0  0  0  0  0  0  0  0  0
   -1.3723   14.1279   -2.7295 H   0  0  0  0  0  0  0  0  0  0  0  0
   -1.0845   12.3548   -2.7295 H   0  0  0  0  0  0  0  0  0  0  0  0
    2.4154   12.5367   -3.6266 H   0  0  0  0  0  0  0  0  0  0  0  0
    0.2549   11.8082   -4.8267 H   0  0  0  0  0  0  0  0  0  0  0  0
    1.6209   10.6143   -4.5137 H   0  0  0  0  0  0  0  0  0  0  0  0
   -0.8244    9.7200   -4.1060 H   0  0  0  0  0  0  0  0  0  0  0  0
    0.1987   11.3889   -0.5755 H   0  0  0  0  0  0  0  0  0  0  0  0
    1.9054    8.8280   -0.7322 H   0  0  0  0  0  0  0  0  0  0  0  0
    1.8959   10.0532    0.6124 H   0  0  0  0  0  0  0  0  0  0  0  0
    0.6073    8.0207    1.1886 H   0  0  0  0  0  0  0  0  0  0  0  0
   -0.4134    9.5113    1.1309 H   0  0  0  0  0  0  0  0  0  0  0  0
   -1.6084    7.7165    0.0773 H   0  0  0  0  0  0  0  0  0  0  0  0
   -0.5810    6.2970   -1.1440 H   0  0  0  0  0  0  0  0  0  0  0  0
   -2.2594    9.9700    0.2685 H   0  0  0  0  0  0  0  0  0  0  0  0
   -2.1675   11.1028   -1.1226 H   0  0  0  0  0  0  0  0  0  0  0  0
   -3.3793    9.7768   -1.1226 H   0  0  0  0  0  0  0  0  0  0  0  0
   -2.8191    7.6155   -2.0475 H   0  0  0  0  0  0  0  0  0  0  0  0
   -2.7260    8.9942   -3.1951 H   0  0  0  0  0  0  0  0  0  0  0  0
   -1.4426    7.7375   -3.1951 H   0  0  0  0  0  0  0  0  0  0  0  0
    3.6200   10.2081   -1.2233 H   0  0  0  0  0  0  0  0  0  0  0  0
    2.7824    9.7191   -2.7353 H   0  0  0  0  0  0  0  0  0  0  0  0
    3.8772   11.1432   -2.7353 H   0  0  0  0  0  0  0  0  0  0  0  0
    2.3970   12.0391    0.2805 H   0  0  0  0  0  0  0  0  0  0  0  0
    3.5053   12.7544   -1.0209 H   0  0  0  0  0  0  0  0  0  0  0  0
    0.7599   13.7320   -0.1892 H   0  0  0  0  0  0  0  0  0  0  0  0
    2.3581   14.5533    0.0076 H   0  0  0  0  0  0  0  0  0  0  0  0
    3.7552   14.9069   -1.7270 H   0  0  0  0  0  0  0  0  0  0  0  0
    3.3778   13.9231   -3.1818 H   0  0  0  0  0  0  0  0  0  0  0  0
    3.0494   15.6891   -3.1818 H   0  0  0  0  0  0  0  0  0  0  0  0
  1  2  1  0
  2  3  1  0
  3  4  1  0
  4  5  1  0
  5  6  1  0
  6  7  1  0
  7  8  1  0
  7  9  1  0
  2 10  1  0
 10 11  1  0
 11 12  1  0
 12 13  1  0
 13 14  1  1
 13 15  1  0
 15 16  1  0
 16 17  1  0
 17 18  2  0
 18 19  1  0
 19 20  1  0
 20 21  1  0
 21 22  1  0
 22 23  1  0
 22 24  1  0
 24 25  1  0
 24 26  1  0
 19 27  1  0
 27 28  1  6
 27 29  1  0
 29 30  1  0
 30 31  1  0
 31 32  1  6
  7  5  1  0
 31 10  1  0
 31 13  1  0
 27 15  1  0
 24 18  1  0
  1 33  1  0
  1 34  1  0
  1 35  1  0
  2 36  1  1
  3 37  1  0
  3 38  1  0
  4 39  1  0
  4 40  1  0
  5 41  1  1
  8 42  1  0
  8 43  1  0
  8 44  1  0
  9 45  1  0
  9 46  1  0
  9 47  1  0
 10 48  1  1
 11 49  1  0
 11 50  1  0
 12 51  1  0
 12 52  1  0
 14 53  1  0
 14 54  1  0
 14 55  1  0
 15 56  1  6
 16 57  1  0
 16 58  1  0
 17 59  1  0
 19 60  1  1
 20 61  1  0
 20 62  1  0
 21 63  1  0
 21 64  1  0
 22 65  1  1
 23 66  1  0
 25 67  1  0
 25 68  1  0
 25 69  1  0
 26 70  1  0
 26 71  1  0
 26 72  1  0
 28 73  1  0
 28 74  1  0
 28 75  1  0
 29 76  1  0
 29 77  1  0
 30 78  1  0
 30 79  1  0
 32 80  1  0
 32 81  1  0
 32 82  1  0
M  END
>  <meeko>  (15) 
{"is_sidechain": [false], "intermolecular_energy": 2.731, "internal_energy": -0.839}

$$$$
EPH_relaxed_0001_pdb2pqr_Repair_315_r2_0001_out
     RDKit          3D

 82 86  0  0  0  0  0  0  0  0999 V2000
    4.2440   17.5270   -2.7810 C   0  0  0  0  0  0  0  0  0  0  0  0
    2.8010   17.0690   -2.5470 C   0  0  2  0  0  0  0  0  0  0  0  0
    2.2630   17.5250   -1.1760 C   0  0  0  0  0  0  0  0  0  0  0  0
    3.3610   17.9110   -0.1810 C   0  0  0  0  0  0  0  0  0  0  0  0
    2.8640   18.8910    0.8390 C   0  0  2  0  0  0  0  0  0  0  0  0
    3.4640   20.1910    0.7620 O   0  0  0  0  0  0  0  0  0  0  0  0
    3.7270   19.4410    1.9600 C   0  0  0  0  0  0  0  0  0  0  0  0
    5.1570   19.0290    2.1180 C   0  0  0  0  0  0  0  0  0  0  0  0
    3.0520   19.9930    3.1770 C   0  0  0  0  0  0  0  0  0  0  0  0
    2.7130   15.5510   -2.6630 C   0  0  1  0  0  0  0  0  0  0  0  0
    4.0870   14.8940   -2.9580 C   0  0  0  0  0  0  0  0  0  0  0  0
    4.1000   13.5320   -2.2160 C   0  0  0  0  0  0  0  0  0  0  0  0
    2.6290   13.3020   -1.7990 C   0  0  1  0  0  0  0  0  0  0  0  0
    1.9330   12.7410   -3.0790 C   0  0  0  0  0  0  0  0  0  0  0  0
    2.3980   12.3730   -0.5620 C   0  0  2  0  0  0  0  0  0  0  0  0
    2.8790   10.9220   -0.7380 C   0  0  0  0  0  0  0  0  0  0  0  0
    1.8620    9.9750   -1.2840 C   0  0  0  0  0  0  0  0  0  0  0  0
    0.5380   10.2040   -1.3550 C   0  0  0  0  0  0  0  0  0  0  0  0
   -0.0730   11.4820   -0.7650 C   0  0  1  0  0  0  0  0  0  0  0  0
   -1.3300   11.1180    0.0690 C   0  0  0  0  0  0  0  0  0  0  0  0
   -2.3430   10.3010   -0.7270 C   0  0  0  0  0  0  0  0  0  0  0  0
   -1.7140    9.0110   -1.2480 C   0  0  2  0  0  0  0  0  0  0  0  0
   -1.4040    8.1670   -0.1350 O   0  0  0  0  0  0  0  0  0  0  0  0
   -0.4330    9.2520   -2.0950 C   0  0  0  0  0  0  0  0  0  0  0  0
   -0.8180    9.9030   -3.4460 C   0  0  0  0  0  0  0  0  0  0  0  0
    0.1790    7.8670   -2.4390 C   0  0  0  0  0  0  0  0  0  0  0  0
    0.9300   12.4290    0.0250 C   0  0  1  0  0  0  0  0  0  0  0  0
    1.0290   11.9750    1.5140 C   0  0  0  0  0  0  0  0  0  0  0  0
    0.3480   13.8920    0.0440 C   0  0  0  0  0  0  0  0  0  0  0  0
    0.7100   14.7990   -1.1470 C   0  0  0  0  0  0  0  0  0  0  0  0
    2.2170   14.7710   -1.4200 C   0  0  2  0  0  0  0  0  0  0  0  0
    2.9420   15.3500   -0.1580 C   0  0  0  0  0  0  0  0  0  0  0  0
    4.7404   17.6845   -1.8121 H   0  0  0  0  0  0  0  0  0  0  0  0
    4.7856   16.7566   -3.3495 H   0  0  0  0  0  0  0  0  0  0  0  0
    4.2422   18.4687   -3.3495 H   0  0  0  0  0  0  0  0  0  0  0  0
    2.1745   17.5380   -3.3200 H   0  0  0  0  0  0  0  0  0  0  0  0
    1.6125   18.3983   -1.3313 H   0  0  0  0  0  0  0  0  0  0  0  0
    1.7225   16.6706   -0.7426 H   0  0  0  0  0  0  0  0  0  0  0  0
    3.7091   17.0043    0.3355 H   0  0  0  0  0  0  0  0  0  0  0  0
    4.1809   18.3844   -0.7410 H   0  0  0  0  0  0  0  0  0  0  0  0
    1.8672   18.4258    0.8356 H   0  0  0  0  0  0  0  0  0  0  0  0
    5.4021   18.9584    3.1880 H   0  0  0  0  0  0  0  0  0  0  0  0
    5.3113   18.0499    1.6411 H   0  0  0  0  0  0  0  0  0  0  0  0
    5.8086   19.7759    1.6411 H   0  0  0  0  0  0  0  0  0  0  0  0
    3.5393   19.5945    4.0791 H   0  0  0  0  0  0  0  0  0  0  0  0
    3.1290   21.0903    3.1730 H   0  0  0  0  0  0  0  0  0  0  0  0
    1.9918   19.6998    3.1730 H   0  0  0  0  0  0  0  0  0  0  0  0
    1.9767   15.4702   -3.4762 H   0  0  0  0  0  0  0  0  0  0  0  0
    4.2074   14.7371   -4.0401 H   0  0  0  0  0  0  0  0  0  0  0  0
    4.9130   15.5365   -2.6190 H   0  0  0  0  0  0  0  0  0  0  0  0
    4.4445   12.7289   -2.8841 H   0  0  0  0  0  0  0  0  0  0  0  0
    4.7831   13.5328   -1.3538 H   0  0  0  0  0  0  0  0  0  0  0  0
    1.1076   12.0757   -2.7858 H   0  0  0  0  0  0  0  0  0  0  0  0
    1.5369   13.5753   -3.6765 H   0  0  0  0  0  0  0  0  0  0  0  0
    2.6642   12.1768   -3.6765 H   0  0  0  0  0  0  0  0  0  0  0  0
    3.0608   12.8175    0.1950 H   0  0  0  0  0  0  0  0  0  0  0  0
    3.7390   10.9298   -1.4238 H   0  0  0  0  0  0  0  0  0  0  0  0
    3.1234   10.5578    0.2708 H   0  0  0  0  0  0  0  0  0  0  0  0
    2.2262    9.0076   -1.6603 H   0  0  0  0  0  0  0  0  0  0  0  0
   -0.3626   12.1053   -1.6239 H   0  0  0  0  0  0  0  0  0  0  0  0
   -1.0146   10.5321    0.9450 H   0  0  0  0  0  0  0  0  0  0  0  0
   -1.8180   12.0582    0.3655 H   0  0  0  0  0  0  0  0  0  0  0  0
   -3.1937   10.0497   -0.0766 H   0  0  0  0  0  0  0  0  0  0  0  0
   -2.6798   10.8996   -1.5862 H   0  0  0  0  0  0  0  0  0  0  0  0
   -2.4458    8.5337   -1.9164 H   0  0  0  0  0  0  0  0  0  0  0  0
   -0.4360    8.1410   -0.0470 H   0  0  0  0  0  0  0  0  0  0  0  0
   -1.3698   10.8361   -3.2593 H   0  0  0  0  0  0  0  0  0  0  0  0
    0.0942   10.1249   -4.0192 H   0  0  0  0  0  0  0  0  0  0  0  0
   -1.4519    9.2105   -4.0192 H   0  0  0  0  0  0  0  0  0  0  0  0
    0.4164    7.3298   -1.5089 H   0  0  0  0  0  0  0  0  0  0  0  0
   -0.5444    7.2820   -3.0259 H   0  0  0  0  0  0  0  0  0  0  0  0
    1.0986    8.0080   -3.0259 H   0  0  0  0  0  0  0  0  0  0  0  0
    0.8413   12.8356    2.1730 H   0  0  0  0  0  0  0  0  0  0  0  0
    0.2802   11.1933    1.7095 H   0  0  0  0  0  0  0  0  0  0  0  0
    2.0353   11.5760    1.7095 H   0  0  0  0  0  0  0  0  0  0  0  0
   -0.7486   13.8134    0.0812 H   0  0  0  0  0  0  0  0  0  0  0  0
    0.8058   14.3725    0.9212 H   0  0  0  0  0  0  0  0  0  0  0  0
    0.1757   14.4478   -2.0421 H   0  0  0  0  0  0  0  0  0  0  0  0
    0.4170   15.8309   -0.9035 H   0  0  0  0  0  0  0  0  0  0  0  0
    2.4588   14.9641    0.7517 H   0  0  0  0  0  0  0  0  0  0  0  0
    3.9986   15.0444   -0.1697 H   0  0  0  0  0  0  0  0  0  0  0  0
    2.8777   16.4481   -0.1697 H   0  0  0  0  0  0  0  0  0  0  0  0
  1  2  1  0
  2  3  1  0
  3  4  1  0
  4  5  1  0
  5  6  1  0
  6  7  1  0
  7  8  1  0
  7  9  1  0
  2 10  1  0
 10 11  1  0
 11 12  1  0
 12 13  1  0
 13 14  1  6
 13 15  1  0
 15 16  1  0
 16 17  1  0
 17 18  2  0
 18 19  1  0
 19 20  1  0
 20 21  1  0
 21 22  1  0
 22 23  1  0
 22 24  1  0
 24 25  1  0
 24 26  1  0
 19 27  1  0
 27 28  1  1
 27 29  1  0
 29 30  1  0
 30 31  1  0
 31 32  1  1
  7  5  1  0
 31 10  1  0
 31 13  1  0
 27 15  1  0
 24 18  1  0
  1 33  1  0
  1 34  1  0
  1 35  1  0
  2 36  1  6
  3 37  1  0
  3 38  1  0
  4 39  1  0
  4 40  1  0
  5 41  1  1
  8 42  1  0
  8 43  1  0
  8 44  1  0
  9 45  1  0
  9 46  1  0
  9 47  1  0
 10 48  1  6
 11 49  1  0
 11 50  1  0
 12 51  1  0
 12 52  1  0
 14 53  1  0
 14 54  1  0
 14 55  1  0
 15 56  1  1
 16 57  1  0
 16 58  1  0
 17 59  1  0
 19 60  1  6
 20 61  1  0
 20 62  1  0
 21 63  1  0
 21 64  1  0
 22 65  1  6
 23 66  1  0
 25 67  1  0
 25 68  1  0
 25 69  1  0
 26 70  1  0
 26 71  1  0
 26 72  1  0
 28 73  1  0
 28 74  1  0
 28 75  1  0
 29 76  1  0
 29 77  1  0
 30 78  1  0
 30 79  1  0
 32 80  1  0
 32 81  1  0
 32 82  1  0
M  END
>  <meeko>  (16) 
{"is_sidechain": [false], "intermolecular_energy": 2.731, "internal_energy": -0.839}

$$$$
EPH_relaxed_0001_pdb2pqr_Repair_315_r2_0001_out
     RDKit          3D

 82 86  0  0  0  0  0  0  0  0999 V2000
    0.6730    8.6120   -0.3690 C   0  0  0  0  0  0  0  0  0  0  0  0
   -0.2900    9.4310   -1.2320 C   0  0  2  0  0  0  0  0  0  0  0  0
   -1.0320    8.5580   -2.2640 C   0  0  0  0  0  0  0  0  0  0  0  0
   -2.4930    8.2830   -1.9010 C   0  0  0  0  0  0  0  0  0  0  0  0
   -3.0410    7.1090   -2.6560 C   0  0  2  0  0  0  0  0  0  0  0  0
   -4.0550    7.4360   -3.6160 O   0  0  0  0  0  0  0  0  0  0  0  0
   -4.4670    6.6130   -2.5120 C   0  0  0  0  0  0  0  0  0  0  0  0
   -5.4350    7.2800   -1.5860 C   0  0  0  0  0  0  0  0  0  0  0  0
   -4.7750    5.2000   -2.8960 C   0  0  0  0  0  0  0  0  0  0  0  0
    0.4690   10.5460   -1.9420 C   0  0  1  0  0  0  0  0  0  0  0  0
    0.2580   10.5270   -3.4800 C   0  0  0  0  0  0  0  0  0  0  0  0
    0.2550   12.0040   -3.9500 C   0  0  0  0  0  0  0  0  0  0  0  0
    0.7900   12.8000   -2.7360 C   0  0  1  0  0  0  0  0  0  0  0  0
    2.3420   12.6480   -2.8100 C   0  0  0  0  0  0  0  0  0  0  0  0
    0.3610   14.3010   -2.6500 C   0  0  2  0  0  0  0  0  0  0  0  0
    0.8450   15.1860   -3.8120 C   0  0  0  0  0  0  0  0  0  0  0  0
    2.1690   15.8440   -3.6030 C   0  0  0  0  0  0  0  0  0  0  0  0
    2.8060   15.9630   -2.4230 C   0  0  0  0  0  0  0  0  0  0  0  0
    2.1470   15.4890   -1.1210 C   0  0  1  0  0  0  0  0  0  0  0  0
    2.3130   16.5790   -0.0300 C   0  0  0  0  0  0  0  0  0  0  0  0
    3.7690   16.9900    0.1690 C   0  0  0  0  0  0  0  0  0  0  0  0
    4.3720   17.5100   -1.1340 C   0  0  2  0  0  0  0  0  0  0  0  0
    3.7230   18.7350   -1.4860 O   0  0  0  0  0  0  0  0  0  0  0  0
    4.2540   16.5000   -2.3090 C   0  0  0  0  0  0  0  0  0  0  0  0
    5.2000   15.2990   -2.0610 C   0  0  0  0  0  0  0  0  0  0  0  0
    4.7710   17.2000   -3.5950 C   0  0  0  0  0  0  0  0  0  0  0  0
    0.6470   14.9780   -1.2490 C   0  0  1  0  0  0  0  0  0  0  0  0
   -0.3370   16.1810   -1.1260 C   0  0  0  0  0  0  0  0  0  0  0  0
    0.3270   14.0170   -0.0440 C   0  0  0  0  0  0  0  0  0  0  0  0
    0.6640   12.5260   -0.2350 C   0  0  0  0  0  0  0  0  0  0  0  0
    0.1100   12.0050   -1.5640 C   0  0  2  0  0  0  0  0  0  0  0  0
   -1.4520   12.1240   -1.5100 C   0  0  0  0  0  0  0  0  0  0  0  0
    0.4583    8.7946    0.6943 H   0  0  0  0  0  0  0  0  0  0  0  0
    0.5445    7.5422   -0.5905 H   0  0  0  0  0  0  0  0  0  0  0  0
    1.7083    8.9106   -0.5905 H   0  0  0  0  0  0  0  0  0  0  0  0
   -1.0473    9.8645   -0.5622 H   0  0  0  0  0  0  0  0  0  0  0  0
   -1.0067    9.0723   -3.2360 H   0  0  0  0  0  0  0  0  0  0  0  0
   -0.5189    7.5853   -2.2900 H   0  0  0  0  0  0  0  0  0  0  0  0
   -2.5594    8.0758   -0.8227 H   0  0  0  0  0  0  0  0  0  0  0  0
   -3.0856    9.1700   -2.1694 H   0  0  0  0  0  0  0  0  0  0  0  0
   -2.0716    6.5918   -2.6023 H   0  0  0  0  0  0  0  0  0  0  0  0
   -5.1437    7.0793   -0.5444 H   0  0  0  0  0  0  0  0  0  0  0  0
   -5.4268    8.3651   -1.7665 H   0  0  0  0  0  0  0  0  0  0  0  0
   -6.4460    6.8859   -1.7665 H   0  0  0  0  0  0  0  0  0  0  0  0
   -4.9072    4.5937   -1.9877 H   0  0  0  0  0  0  0  0  0  0  0  0
   -5.6997    5.1750   -3.4913 H   0  0  0  0  0  0  0  0  0  0  0  0
   -3.9446    4.7925   -3.4913 H   0  0  0  0  0  0  0  0  0  0  0  0
    1.4914   10.3122   -1.6102 H   0  0  0  0  0  0  0  0  0  0  0  0
    1.0758    9.9761   -3.9676 H   0  0  0  0  0  0  0  0  0  0  0  0
   -0.6861   10.0273   -3.7427 H   0  0  0  0  0  0  0  0  0  0  0  0
    0.9132   12.1357   -4.8215 H   0  0  0  0  0  0  0  0  0  0  0  0
   -0.7445   12.3407   -4.2624 H   0  0  0  0  0  0  0  0  0  0  0  0
    2.7554   12.6075   -1.7915 H   0  0  0  0  0  0  0  0  0  0  0  0
    2.5945   11.7208   -3.3453 H   0  0  0  0  0  0  0  0  0  0  0  0
    2.7696   13.5086   -3.3453 H   0  0  0  0  0  0  0  0  0  0  0  0
   -0.7321   14.2399   -2.7571 H   0  0  0  0  0  0  0  0  0  0  0  0
    0.9161   14.5571   -4.7117 H   0  0  0  0  0  0  0  0  0  0  0  0
    0.1108   16.0003   -3.9011 H   0  0  0  0  0  0  0  0  0  0  0  0
    2.6660   16.2674   -4.4883 H   0  0  0  0  0  0  0  0  0  0  0  0
    2.6848   14.5769   -0.8227 H   0  0  0  0  0  0  0  0  0  0  0  0
    1.7335   17.4658   -0.3263 H   0  0  0  0  0  0  0  0  0  0  0  0
    1.9517   16.1585    0.9201 H   0  0  0  0  0  0  0  0  0  0  0  0
    3.8186   17.7826    0.9302 H   0  0  0  0  0  0  0  0  0  0  0  0
    4.3415   16.1086    0.4938 H   0  0  0  0  0  0  0  0  0  0  0  0
    5.4470   17.6658   -0.9608 H   0  0  0  0  0  0  0  0  0  0  0  0
    2.8820   18.5100   -1.9180 H   0  0  0  0  0  0  0  0  0  0  0  0
    5.3212   15.1451   -0.9786 H   0  0  0  0  0  0  0  0  0  0  0  0
    4.7698   14.3937   -2.5141 H   0  0  0  0  0  0  0  0  0  0  0  0
    6.1809   15.5052   -2.5141 H   0  0  0  0  0  0  0  0  0  0  0  0
    5.4034   18.0562   -3.3174 H   0  0  0  0  0  0  0  0  0  0  0  0
    5.3604   16.4863   -4.1893 H   0  0  0  0  0  0  0  0  0  0  0  0
    3.9155   17.5534   -4.1893 H   0  0  0  0  0  0  0  0  0  0  0  0
   -0.5166   16.4006   -0.0632 H   0  0  0  0  0  0  0  0  0  0  0  0
    0.1009   17.0642   -1.6140 H   0  0  0  0  0  0  0  0  0  0  0  0
   -1.2895   15.9270   -1.6140 H   0  0  0  0  0  0  0  0  0  0  0  0
    0.8931   14.3769    0.8278 H   0  0  0  0  0  0  0  0  0  0  0  0
   -0.7666   14.0523    0.0692 H   0  0  0  0  0  0  0  0  0  0  0  0
    1.7567   12.4001   -0.2265 H   0  0  0  0  0  0  0  0  0  0  0  0
    0.2043   11.9546    0.5849 H   0  0  0  0  0  0  0  0  0  0  0  0
   -1.7818   12.1491   -0.4609 H   0  0  0  0  0  0  0  0  0  0  0  0
   -1.7670   13.0487   -2.0156 H   0  0  0  0  0  0  0  0  0  0  0  0
   -1.9034   11.2576   -2.0156 H   0  0  0  0  0  0  0  0  0  0  0  0
  1  2  1  0
  2  3  1  0
  3  4  1  0
  4  5  1  0
  5  6  1  0
  6  7  1  0
  7  8  1  0
  7  9  1  0
  2 10  1  0
 10 11  1  0
 11 12  1  0
 12 13  1  0
 13 14  1  1
 13 15  1  0
 15 16  1  0
 16 17  1  0
 17 18  2  0
 18 19  1  0
 19 20  1  0
 20 21  1  0
 21 22  1  0
 22 23  1  0
 22 24  1  0
 24 25  1  0
 24 26  1  0
 19 27  1  0
 27 28  1  1
 27 29  1  0
 29 30  1  0
 30 31  1  0
 31 32  1  1
  7  5  1  0
 31 10  1  0
 31 13  1  0
 27 15  1  0
 24 18  1  0
  1 33  1  0
  1 34  1  0
  1 35  1  0
  2 36  1  1
  3 37  1  0
  3 38  1  0
  4 39  1  0
  4 40  1  0
  5 41  1  6
  8 42  1  0
  8 43  1  0
  8 44  1  0
  9 45  1  0
  9 46  1  0
  9 47  1  0
 10 48  1  6
 11 49  1  0
 11 50  1  0
 12 51  1  0
 12 52  1  0
 14 53  1  0
 14 54  1  0
 14 55  1  0
 15 56  1  6
 16 57  1  0
 16 58  1  0
 17 59  1  0
 19 60  1  1
 20 61  1  0
 20 62  1  0
 21 63  1  0
 21 64  1  0
 22 65  1  1
 23 66  1  0
 25 67  1  0
 25 68  1  0
 25 69  1  0
 26 70  1  0
 26 71  1  0
 26 72  1  0
 28 73  1  0
 28 74  1  0
 28 75  1  0
 29 76  1  0
 29 77  1  0
 30 78  1  0
 30 79  1  0
 32 80  1  0
 32 81  1  0
 32 82  1  0
M  END
>  <meeko>  (17) 
{"is_sidechain": [false], "intermolecular_energy": 2.731, "internal_energy": -0.839}

$$$$
EPH_relaxed_0001_pdb2pqr_Repair_315_r2_0001_out
     RDKit          3D

 82 86  0  0  0  0  0  0  0  0999 V2000
   -0.7030   16.5700   -5.8640 C   0  0  0  0  0  0  0  0  0  0  0  0
    0.4030   15.7920   -6.5830 C   0  0  2  0  0  0  0  0  0  0  0  0
    0.0110   15.4260   -8.0280 C   0  0  0  0  0  0  0  0  0  0  0  0
    0.5320   16.4140   -9.0760 C   0  0  0  0  0  0  0  0  0  0  0  0
    1.8970   16.0350   -9.5650 C   0  0  2  0  0  0  0  0  0  0  0  0
    2.2760   16.6380  -10.8090 O   0  0  0  0  0  0  0  0  0  0  0  0
    2.1380   15.2080  -10.8140 C   0  0  0  0  0  0  0  0  0  0  0  0
    1.0020   14.7090  -11.6510 C   0  0  0  0  0  0  0  0  0  0  0  0
    3.4380   14.4770  -10.9480 C   0  0  0  0  0  0  0  0  0  0  0  0
    0.7420   14.5290   -5.8000 C   0  0  1  0  0  0  0  0  0  0  0  0
    1.8810   13.7050   -6.4590 C   0  0  0  0  0  0  0  0  0  0  0  0
    2.7030   13.0750   -5.3050 C   0  0  0  0  0  0  0  0  0  0  0  0
    1.8260   13.2780   -4.0460 C   0  0  1  0  0  0  0  0  0  0  0  0
    0.7770   12.1230   -4.0980 C   0  0  0  0  0  0  0  0  0  0  0  0
    2.5810   13.3110   -2.6770 C   0  0  2  0  0  0  0  0  0  0  0  0
    3.3200   12.0130   -2.3070 C   0  0  0  0  0  0  0  0  0  0  0  0
    2.5210   11.0250   -1.5240 C   0  0  0  0  0  0  0  0  0  0  0  0
    1.3620   11.2840   -0.8890 C   0  0  0  0  0  0  0  0  0  0  0  0
    0.7920   12.7070   -0.8390 C   0  0  1  0  0  0  0  0  0  0  0  0
    0.3460   13.0360    0.6090 C   0  0  0  0  0  0  0  0  0  0  0  0
   -0.6210   12.0000    1.1740 C   0  0  0  0  0  0  0  0  0  0  0  0
    0.0030   10.6080    1.1620 C   0  0  2  0  0  0  0  0  0  0  0  0
    1.0950   10.5840    2.0860 O   0  0  0  0  0  0  0  0  0  0  0  0
    0.5000   10.1710   -0.2450 C   0  0  0  0  0  0  0  0  0  0  0  0
   -0.7160    9.9040   -1.1660 C   0  0  0  0  0  0  0  0  0  0  0  0
    1.2340    8.8110   -0.0910 C   0  0  0  0  0  0  0  0  0  0  0  0
    1.7080   13.8430   -1.4690 C   0  0  1  0  0  0  0  0  0  0  0  0
    2.7080   14.3750   -0.3980 C   0  0  0  0  0  0  0  0  0  0  0  0
    0.8030   15.0650   -1.8770 C   0  0  0  0  0  0  0  0  0  0  0  0
    0.1830   15.0300   -3.2870 C   0  0  0  0  0  0  0  0  0  0  0  0
    1.2430   14.7070   -4.3450 C   0  0  2  0  0  0  0  0  0  0  0  0
    2.3010   15.8620   -4.3310 C   0  0  0  0  0  0  0  0  0  0  0  0
   -0.5696   16.4761   -4.7762 H   0  0  0  0  0  0  0  0  0  0  0  0
   -0.6502   17.6309   -6.1497 H   0  0  0  0  0  0  0  0  0  0  0  0
   -1.6837   16.1617   -6.1497 H   0  0  0  0  0  0  0  0  0  0  0  0
    1.2861   16.4456   -6.6365 H   0  0  0  0  0  0  0  0  0  0  0  0
    0.4183   14.4301   -8.2567 H   0  0  0  0  0  0  0  0  0  0  0  0
   -1.0875   15.4520   -8.0796 H   0  0  0  0  0  0  0  0  0  0  0  0
   -0.1616   16.4268   -9.9297 H   0  0  0  0  0  0  0  0  0  0  0  0
    0.5991   17.4070   -8.6075 H   0  0  0  0  0  0  0  0  0  0  0  0
    2.2656   15.9379   -8.5332 H   0  0  0  0  0  0  0  0  0  0  0  0
    0.1927   14.3535  -10.9963 H   0  0  0  0  0  0  0  0  0  0  0  0
    0.6280   15.5257  -12.2859 H   0  0  0  0  0  0  0  0  0  0  0  0
    1.3504   13.8811  -12.2859 H   0  0  0  0  0  0  0  0  0  0  0  0
    3.8372   14.2525   -9.9479 H   0  0  0  0  0  0  0  0  0  0  0  0
    3.2757   13.5379  -11.4973 H   0  0  0  0  0  0  0  0  0  0  0  0
    4.1561   15.1036  -11.4973 H   0  0  0  0  0  0  0  0  0  0  0  0
   -0.2440   14.0413   -5.8013 H   0  0  0  0  0  0  0  0  0  0  0  0
    1.4570   12.9155   -7.0969 H   0  0  0  0  0  0  0  0  0  0  0  0
    2.5146   14.3433   -7.0924 H   0  0  0  0  0  0  0  0  0  0  0  0
    2.8751   12.0044   -5.4901 H   0  0  0  0  0  0  0  0  0  0  0  0
    3.6965   13.5354   -5.2004 H   0  0  0  0  0  0  0  0  0  0  0  0
    0.5074   11.8262   -3.0737 H   0  0  0  0  0  0  0  0  0  0  0  0
   -0.1226   12.4683   -4.6285 H   0  0  0  0  0  0  0  0  0  0  0  0
    1.2071   11.2607   -4.6285 H   0  0  0  0  0  0  0  0  0  0  0  0
    3.3661   14.0597   -2.8588 H   0  0  0  0  0  0  0  0  0  0  0  0
    3.6412   11.5271   -3.2401 H   0  0  0  0  0  0  0  0  0  0  0  0
    4.1546   12.3131   -1.6563 H   0  0  0  0  0  0  0  0  0  0  0  0
    2.9118    9.9987   -1.4602 H   0  0  0  0  0  0  0  0  0  0  0  0
   -0.0818   12.7082   -1.5072 H   0  0  0  0  0  0  0  0  0  0  0  0
    1.2374   13.0738    1.2524 H   0  0  0  0  0  0  0  0  0  0  0  0
   -0.1779   14.0030    0.5850 H   0  0  0  0  0  0  0  0  0  0  0  0
   -0.8751   12.2717    2.2092 H   0  0  0  0  0  0  0  0  0  0  0  0
   -1.5249   11.9849    0.5473 H   0  0  0  0  0  0  0  0  0  0  0  0
   -0.7805    9.8933    1.4541 H   0  0  0  0  0  0  0  0  0  0  0  0
    1.7670    9.9770    1.7330 H   0  0  0  0  0  0  0  0  0  0  0  0
   -1.6063    9.7085   -0.5503 H   0  0  0  0  0  0  0  0  0  0  0  0
   -0.8953   10.7842   -1.8009 H   0  0  0  0  0  0  0  0  0  0  0  0
   -0.5101    9.0297   -1.8009 H   0  0  0  0  0  0  0  0  0  0  0  0
    1.3584    8.5804    0.9773 H   0  0  0  0  0  0  0  0  0  0  0  0
    0.6413    8.0181   -0.5706 H   0  0  0  0  0  0  0  0  0  0  0  0
    2.2221    8.8712   -0.5706 H   0  0  0  0  0  0  0  0  0  0  0  0
    2.3142   14.1655    0.6075 H   0  0  0  0  0  0  0  0  0  0  0  0
    3.6796   13.8745   -0.5229 H   0  0  0  0  0  0  0  0  0  0  0  0
    2.8359   15.4604   -0.5229 H   0  0  0  0  0  0  0  0  0  0  0  0
   -0.0221   15.1247   -1.1520 H   0  0  0  0  0  0  0  0  0  0  0  0
    1.4773   15.9341   -1.8805 H   0  0  0  0  0  0  0  0  0  0  0  0
   -0.6010   14.2590   -3.3162 H   0  0  0  0  0  0  0  0  0  0  0  0
   -0.2420   16.0203   -3.5076 H   0  0  0  0  0  0  0  0  0  0  0  0
    2.5424   16.1255   -3.2907 H   0  0  0  0  0  0  0  0  0  0  0  0
    3.2141   15.5291   -4.8462 H   0  0  0  0  0  0  0  0  0  0  0  0
    1.8895   16.7425   -4.8462 H   0  0  0  0  0  0  0  0  0  0  0  0
  1  2  1  0
  2  3  1  0
  3  4  1  0
  4  5  1  0
  5  6  1  0
  6  7  1  0
  7  8  1  0
  7  9  1  0
  2 10  1  0
 10 11  1  0
 11 12  1  0
 12 13  1  0
 13 14  1  1
 13 15  1  0
 15 16  1  0
 16 17  1  0
 17 18  2  0
 18 19  1  0
 19 20  1  0
 20 21  1  0
 21 22  1  0
 22 23  1  0
 22 24  1  0
 24 25  1  0
 24 26  1  0
 19 27  1  0
 27 28  1  1
 27 29  1  0
 29 30  1  0
 30 31  1  0
 31 32  1  6
  7  5  1  0
 31 10  1  0
 31 13  1  0
 27 15  1  0
 24 18  1  0
  1 33  1  0
  1 34  1  0
  1 35  1  0
  2 36  1  6
  3 37  1  0
  3 38  1  0
  4 39  1  0
  4 40  1  0
  5 41  1  1
  8 42  1  0
  8 43  1  0
  8 44  1  0
  9 45  1  0
  9 46  1  0
  9 47  1  0
 10 48  1  1
 11 49  1  0
 11 50  1  0
 12 51  1  0
 12 52  1  0
 14 53  1  0
 14 54  1  0
 14 55  1  0
 15 56  1  6
 16 57  1  0
 16 58  1  0
 17 59  1  0
 19 60  1  6
 20 61  1  0
 20 62  1  0
 21 63  1  0
 21 64  1  0
 22 65  1  1
 23 66  1  0
 25 67  1  0
 25 68  1  0
 25 69  1  0
 26 70  1  0
 26 71  1  0
 26 72  1  0
 28 73  1  0
 28 74  1  0
 28 75  1  0
 29 76  1  0
 29 77  1  0
 30 78  1  0
 30 79  1  0
 32 80  1  0
 32 81  1  0
 32 82  1  0
M  END
>  <meeko>  (18) 
{"is_sidechain": [false], "intermolecular_energy": 2.731, "internal_energy": -0.839}

$$$$
EPH_relaxed_0001_pdb2pqr_Repair_315_r2_0001_out
     RDKit          3D

 82 86  0  0  0  0  0  0  0  0999 V2000
    2.2220   19.3100   -0.1580 C   0  0  0  0  0  0  0  0  0  0  0  0
    2.8860   17.9460   -0.3610 C   0  0  2  0  0  0  0  0  0  0  0  0
    3.7200   17.8930   -1.6570 C   0  0  0  0  0  0  0  0  0  0  0  0
    5.1820   17.4980   -1.4330 C   0  0  0  0  0  0  0  0  0  0  0  0
    6.0190   17.7580   -2.6490 C   0  0  2  0  0  0  0  0  0  0  0  0
    5.3040   17.7030   -3.8900 O   0  0  0  0  0  0  0  0  0  0  0  0
    6.3180   16.7040   -3.6990 C   0  0  0  0  0  0  0  0  0  0  0  0
    5.7850   15.3110   -3.5800 C   0  0  0  0  0  0  0  0  0  0  0  0
    7.5180   16.8870   -4.5750 C   0  0  0  0  0  0  0  0  0  0  0  0
    1.8280   16.8500   -0.3770 C   0  0  1  0  0  0  0  0  0  0  0  0
    0.4150   17.3880   -0.7270 C   0  0  0  0  0  0  0  0  0  0  0  0
   -0.2950   16.2820   -1.5480 C   0  0  0  0  0  0  0  0  0  0  0  0
    0.5920   15.0280   -1.3630 C   0  0  1  0  0  0  0  0  0  0  0  0
    0.1750   14.4430    0.0230 C   0  0  0  0  0  0  0  0  0  0  0  0
    0.5110   13.9510   -2.4930 C   0  0  2  0  0  0  0  0  0  0  0  0
   -0.8710   13.3000   -2.6760 C   0  0  0  0  0  0  0  0  0  0  0  0
   -1.1080   12.0670   -1.8690 C   0  0  0  0  0  0  0  0  0  0  0  0
   -0.1560   11.3420   -1.2510 C   0  0  0  0  0  0  0  0  0  0  0  0
    1.3290   11.6920   -1.4120 C   0  0  1  0  0  0  0  0  0  0  0  0
    2.1360   10.4000   -1.7050 C   0  0  0  0  0  0  0  0  0  0  0  0
    1.9020    9.3130   -0.6600 C   0  0  0  0  0  0  0  0  0  0  0  0
    0.4210    8.9520   -0.5710 C   0  0  2  0  0  0  0  0  0  0  0  0
    0.0240    8.3290   -1.7960 O   0  0  0  0  0  0  0  0  0  0  0  0
   -0.4920   10.1770   -0.2870 C   0  0  0  0  0  0  0  0  0  0  0  0
   -0.2690   10.6680    1.1650 C   0  0  0  0  0  0  0  0  0  0  0  0
   -1.9680    9.7000   -0.3630 C   0  0  0  0  0  0  0  0  0  0  0  0
    1.6590   12.8630   -2.4340 C   0  0  1  0  0  0  0  0  0  0  0  0
    1.7990   12.2860   -3.8760 C   0  0  0  0  0  0  0  0  0  0  0  0
    3.0570   13.4870   -2.0670 C   0  0  0  0  0  0  0  0  0  0  0  0
    3.0580   14.6290   -1.0330 C   0  0  0  0  0  0  0  0  0  0  0  0
    2.0170   15.6930   -1.3910 C   0  0  2  0  0  0  0  0  0  0  0  0
    2.4230   16.3160   -2.7700 C   0  0  0  0  0  0  0  0  0  0  0  0
    2.1231   19.5131    0.9186 H   0  0  0  0  0  0  0  0  0  0  0  0
    2.8404   20.0917   -0.6233 H   0  0  0  0  0  0  0  0  0  0  0  0
    1.2253   19.3055   -0.6233 H   0  0  0  0  0  0  0  0  0  0  0  0
    3.5749   17.7849    0.4813 H   0  0  0  0  0  0  0  0  0  0  0  0
    3.2617   17.1579   -2.3349 H   0  0  0  0  0  0  0  0  0  0  0  0
    3.7228   18.9089   -2.0789 H   0  0  0  0  0  0  0  0  0  0  0  0
    5.5842   18.0818   -0.5919 H   0  0  0  0  0  0  0  0  0  0  0  0
    5.2167   16.4200   -1.2169 H   0  0  0  0  0  0  0  0  0  0  0  0
    6.6691   18.4430   -2.0849 H   0  0  0  0  0  0  0  0  0  0  0  0
    5.6839   15.0467   -2.5170 H   0  0  0  0  0  0  0  0  0  0  0  0
    4.8008   15.2521   -4.0677 H   0  0  0  0  0  0  0  0  0  0  0  0
    6.4785   14.6101   -4.0677 H   0  0  0  0  0  0  0  0  0  0  0  0
    8.4119   17.0233   -3.9486 H   0  0  0  0  0  0  0  0  0  0  0  0
    7.6474   15.9982   -5.2101 H   0  0  0  0  0  0  0  0  0  0  0  0
    7.3766   17.7740   -5.2101 H   0  0  0  0  0  0  0  0  0  0  0  0
    1.9391   16.4723    0.6501 H   0  0  0  0  0  0  0  0  0  0  0  0
   -0.1493   17.5972    0.1938 H   0  0  0  0  0  0  0  0  0  0  0  0
    0.4803   18.3245   -1.3004 H   0  0  0  0  0  0  0  0  0  0  0  0
   -1.3086   16.1012   -1.1608 H   0  0  0  0  0  0  0  0  0  0  0  0
   -0.4113   16.5581   -2.6064 H   0  0  0  0  0  0  0  0  0  0  0  0
    0.6115   15.0554    0.8258 H   0  0  0  0  0  0  0  0  0  0  0  0
   -0.9215   14.4520    0.1099 H   0  0  0  0  0  0  0  0  0  0  0  0
    0.5412   13.4094    0.1099 H   0  0  0  0  0  0  0  0  0  0  0  0
    0.6825   14.5478   -3.4009 H   0  0  0  0  0  0  0  0  0  0  0  0
   -1.6350   14.0406   -2.3970 H   0  0  0  0  0  0  0  0  0  0  0  0
   -0.9228   12.9882   -3.7296 H   0  0  0  0  0  0  0  0  0  0  0  0
   -2.1477   11.7214   -1.7707 H   0  0  0  0  0  0  0  0  0  0  0  0
    1.6466   12.1207   -0.4500 H   0  0  0  0  0  0  0  0  0  0  0  0
    1.8357   10.0126   -2.6898 H   0  0  0  0  0  0  0  0  0  0  0  0
    3.2042   10.6614   -1.6807 H   0  0  0  0  0  0  0  0  0  0  0  0
    2.4751    8.4164   -0.9386 H   0  0  0  0  0  0  0  0  0  0  0  0
    2.2310    9.6906    0.3194 H   0  0  0  0  0  0  0  0  0  0  0  0
    0.2990    8.2664    0.2805 H   0  0  0  0  0  0  0  0  0  0  0  0
   -0.5310    7.5630   -1.5700 H   0  0  0  0  0  0  0  0  0  0  0  0
   -0.6182    9.8990    1.8698 H   0  0  0  0  0  0  0  0  0  0  0  0
    0.8026   10.8554    1.3282 H   0  0  0  0  0  0  0  0  0  0  0  0
   -0.8330   11.5982    1.3282 H   0  0  0  0  0  0  0  0  0  0  0  0
   -2.3648    9.5718    0.6549 H   0  0  0  0  0  0  0  0  0  0  0  0
   -2.5685   10.4498   -0.8989 H   0  0  0  0  0  0  0  0  0  0  0  0
   -2.0161    8.7406   -0.8989 H   0  0  0  0  0  0  0  0  0  0  0  0
    2.0580   11.2184   -3.8202 H   0  0  0  0  0  0  0  0  0  0  0  0
    0.8460   12.4045   -4.4125 H   0  0  0  0  0  0  0  0  0  0  0  0
    2.5917   12.8281   -4.4125 H   0  0  0  0  0  0  0  0  0  0  0  0
    3.6885   12.6784   -1.6704 H   0  0  0  0  0  0  0  0  0  0  0  0
    3.4226   13.9424   -2.9992 H   0  0  0  0  0  0  0  0  0  0  0  0
    2.8240   14.2162   -0.0406 H   0  0  0  0  0  0  0  0  0  0  0  0
    4.0528   15.0985   -1.0298 H   0  0  0  0  0  0  0  0  0  0  0  0
    3.0164   17.2266   -2.6005 H   0  0  0  0  0  0  0  0  0  0  0  0
    3.0213   15.5891   -3.3389 H   0  0  0  0  0  0  0  0  0  0  0  0
    1.5164   16.5698   -3.3389 H   0  0  0  0  0  0  0  0  0  0  0  0
  1  2  1  0
  2  3  1  0
  3  4  1  0
  4  5  1  0
  5  6  1  0
  6  7  1  0
  7  8  1  0
  7  9  1  0
  2 10  1  0
 10 11  1  0
 11 12  1  0
 12 13  1  0
 13 14  1  1
 13 15  1  0
 15 16  1  0
 16 17  1  0
 17 18  2  0
 18 19  1  0
 19 20  1  0
 20 21  1  0
 21 22  1  0
 22 23  1  0
 22 24  1  0
 24 25  1  0
 24 26  1  0
 19 27  1  0
 27 28  1  6
 27 29  1  0
 29 30  1  0
 30 31  1  0
 31 32  1  6
  7  5  1  0
 31 10  1  0
 31 13  1  0
 27 15  1  0
 24 18  1  0
  1 33  1  0
  1 34  1  0
  1 35  1  0
  2 36  1  1
  3 37  1  0
  3 38  1  0
  4 39  1  0
  4 40  1  0
  5 41  1  1
  8 42  1  0
  8 43  1  0
  8 44  1  0
  9 45  1  0
  9 46  1  0
  9 47  1  0
 10 48  1  1
 11 49  1  0
 11 50  1  0
 12 51  1  0
 12 52  1  0
 14 53  1  0
 14 54  1  0
 14 55  1  0
 15 56  1  6
 16 57  1  0
 16 58  1  0
 17 59  1  0
 19 60  1  1
 20 61  1  0
 20 62  1  0
 21 63  1  0
 21 64  1  0
 22 65  1  1
 23 66  1  0
 25 67  1  0
 25 68  1  0
 25 69  1  0
 26 70  1  0
 26 71  1  0
 26 72  1  0
 28 73  1  0
 28 74  1  0
 28 75  1  0
 29 76  1  0
 29 77  1  0
 30 78  1  0
 30 79  1  0
 32 80  1  0
 32 81  1  0
 32 82  1  0
M  END
>  <meeko>  (19) 
{"is_sidechain": [false], "intermolecular_energy": 2.731, "internal_energy": -0.839}

$$$$
