EPH_relaxed_0001_pdb2pqr_Repair_348_r2_0001_out
     RDKit          3D

 82 86  0  0  0  0  0  0  0  0999 V2000
   -1.4840    8.6260   -1.8820 C   0  0  0  0  0  0  0  0  0  0  0  0
   -1.7110    9.0520   -0.4290 C   0  0  2  0  0  0  0  0  0  0  0  0
   -3.1990    9.3190   -0.1280 C   0  0  0  0  0  0  0  0  0  0  0  0
   -3.4930   10.7620    0.2900 C   0  0  0  0  0  0  0  0  0  0  0  0
   -2.9850   11.0550    1.6690 C   0  0  2  0  0  0  0  0  0  0  0  0
   -3.9690   11.5770    2.5710 O   0  0  0  0  0  0  0  0  0  0  0  0
   -2.8800   12.4560    2.2420 C   0  0  0  0  0  0  0  0  0  0  0  0
   -3.2870   13.6570    1.4470 C   0  0  0  0  0  0  0  0  0  0  0  0
   -1.9350   12.6960    3.3770 C   0  0  0  0  0  0  0  0  0  0  0  0
   -0.8850   10.2940   -0.1160 C   0  0  1  0  0  0  0  0  0  0  0  0
    0.2220   10.0260    0.9380 C   0  0  0  0  0  0  0  0  0  0  0  0
    1.4340   10.9110    0.5490 C   0  0  0  0  0  0  0  0  0  0  0  0
    0.8760   11.8940   -0.5060 C   0  0  1  0  0  0  0  0  0  0  0  0
    0.1670   13.0110    0.3210 C   0  0  0  0  0  0  0  0  0  0  0  0
    1.9150   12.4910   -1.5110 C   0  0  2  0  0  0  0  0  0  0  0  0
    3.0210   13.3500   -0.8730 C   0  0  0  0  0  0  0  0  0  0  0  0
    2.7130   14.8060   -0.7610 C   0  0  0  0  0  0  0  0  0  0  0  0
    1.7220   15.4480   -1.4080 C   0  0  0  0  0  0  0  0  0  0  0  0
    0.8470   14.7160   -2.4340 C   0  0  1  0  0  0  0  0  0  0  0  0
    0.7080   15.5860   -3.7110 C   0  0  0  0  0  0  0  0  0  0  0  0
    0.2000   16.9920   -3.4090 C   0  0  0  0  0  0  0  0  0  0  0  0
    1.1270   17.7090   -2.4310 C   0  0  2  0  0  0  0  0  0  0  0  0
    2.3850   17.9380   -3.0720 O   0  0  0  0  0  0  0  0  0  0  0  0
    1.3500   16.9220   -1.1090 C   0  0  0  0  0  0  0  0  0  0  0  0
    0.0490   16.9340   -0.2700 C   0  0  0  0  0  0  0  0  0  0  0  0
    2.4130   17.6840   -0.2730 C   0  0  0  0  0  0  0  0  0  0  0  0
    1.2660   13.2180   -2.7590 C   0  0  1  0  0  0  0  0  0  0  0  0
    2.3380   13.1980   -3.8920 C   0  0  0  0  0  0  0  0  0  0  0  0
    0.0150   12.4430   -3.3180 C   0  0  0  0  0  0  0  0  0  0  0  0
   -0.9080   11.7740   -2.2810 C   0  0  0  0  0  0  0  0  0  0  0  0
   -0.0980   10.9380   -1.2850 C   0  0  2  0  0  0  0  0  0  0  0  0
    0.6090    9.7920   -2.0870 C   0  0  0  0  0  0  0  0  0  0  0  0
   -0.9668    7.6554   -1.9030 H   0  0  0  0  0  0  0  0  0  0  0  0
   -2.4537    8.5359   -2.3935 H   0  0  0  0  0  0  0  0  0  0  0  0
   -0.8684    9.3806   -2.3935 H   0  0  0  0  0  0  0  0  0  0  0  0
   -1.3885    8.2197    0.2139 H   0  0  0  0  0  0  0  0  0  0  0  0
   -3.7822    9.0940   -1.0331 H   0  0  0  0  0  0  0  0  0  0  0  0
   -3.4758    8.6758    0.7204 H   0  0  0  0  0  0  0  0  0  0  0  0
   -3.0064   11.4453   -0.4216 H   0  0  0  0  0  0  0  0  0  0  0  0
   -4.5839   10.9032    0.2897 H   0  0  0  0  0  0  0  0  0  0  0  0
   -2.2616   10.2289    1.6034 H   0  0  0  0  0  0  0  0  0  0  0  0
   -3.5635   14.4730    2.1309 H   0  0  0  0  0  0  0  0  0  0  0  0
   -2.4477   13.9786    0.8129 H   0  0  0  0  0  0  0  0  0  0  0  0
   -4.1489   13.4021    0.8129 H   0  0  0  0  0  0  0  0  0  0  0  0
   -2.4659   12.5612    4.3309 H   0  0  0  0  0  0  0  0  0  0  0  0
   -1.1011   11.9811    3.3172 H   0  0  0  0  0  0  0  0  0  0  0  0
   -1.5433   13.7221    3.3172 H   0  0  0  0  0  0  0  0  0  0  0  0
   -1.6873   10.9696    0.2155 H   0  0  0  0  0  0  0  0  0  0  0  0
   -0.1375   10.2961    1.9419 H   0  0  0  0  0  0  0  0  0  0  0  0
    0.5000    8.9619    0.9568 H   0  0  0  0  0  0  0  0  0  0  0  0
    1.8139   11.4564    1.4255 H   0  0  0  0  0  0  0  0  0  0  0  0
    2.2765   10.3185    0.1629 H   0  0  0  0  0  0  0  0  0  0  0  0
    0.2950   12.8094    1.3948 H   0  0  0  0  0  0  0  0  0  0  0  0
    0.6114   13.9869    0.0756 H   0  0  0  0  0  0  0  0  0  0  0  0
   -0.9052   13.0242    0.0756 H   0  0  0  0  0  0  0  0  0  0  0  0
    2.4187   11.5904   -1.8922 H   0  0  0  0  0  0  0  0  0  0  0  0
    3.2098   12.9637    0.1395 H   0  0  0  0  0  0  0  0  0  0  0  0
    3.8900   13.2736   -1.5430 H   0  0  0  0  0  0  0  0  0  0  0  0
    3.3495   15.4053   -0.0934 H   0  0  0  0  0  0  0  0  0  0  0  0
   -0.1373   14.5901   -1.9594 H   0  0  0  0  0  0  0  0  0  0  0  0
    1.6933   15.6633   -4.1938 H   0  0  0  0  0  0  0  0  0  0  0  0
   -0.0279   15.0993   -4.3679 H   0  0  0  0  0  0  0  0  0  0  0  0
    0.1517   17.5662   -4.3460 H   0  0  0  0  0  0  0  0  0  0  0  0
   -0.7982   16.9142   -2.9535 H   0  0  0  0  0  0  0  0  0  0  0  0
    0.6438   18.6575   -2.1537 H   0  0  0  0  0  0  0  0  0  0  0  0
    2.5000   17.2500   -3.7500 H   0  0  0  0  0  0  0  0  0  0  0  0
    0.3029   16.9317    0.8003 H   0  0  0  0  0  0  0  0  0  0  0  0
   -0.5319   17.8375   -0.5071 H   0  0  0  0  0  0  0  0  0  0  0  0
   -0.5484   16.0413   -0.5071 H   0  0  0  0  0  0  0  0  0  0  0  0
    2.2101   17.5386    0.7983 H   0  0  0  0  0  0  0  0  0  0  0  0
    3.4143   17.2967   -0.5124 H   0  0  0  0  0  0  0  0  0  0  0  0
    2.3678   18.7567   -0.5124 H   0  0  0  0  0  0  0  0  0  0  0  0
    3.3431   13.1792   -3.4455 H   0  0  0  0  0  0  0  0  0  0  0  0
    2.1967   12.3023   -4.5147 H   0  0  0  0  0  0  0  0  0  0  0  0
    2.2302   14.0983   -4.5147 H   0  0  0  0  0  0  0  0  0  0  0  0
   -0.5920   13.1598   -3.8905 H   0  0  0  0  0  0  0  0  0  0  0  0
    0.4306   11.6146   -3.9104 H   0  0  0  0  0  0  0  0  0  0  0  0
   -1.4581   12.5532   -1.7331 H   0  0  0  0  0  0  0  0  0  0  0  0
   -1.6068   11.1094   -2.8102 H   0  0  0  0  0  0  0  0  0  0  0  0
    1.0530    9.0722   -1.3836 H   0  0  0  0  0  0  0  0  0  0  0  0
   -0.1293    9.2781   -2.7201 H   0  0  0  0  0  0  0  0  0  0  0  0
    1.3995   10.2213   -2.7201 H   0  0  0  0  0  0  0  0  0  0  0  0
  1  2  1  0
  2  3  1  0
  3  4  1  0
  4  5  1  0
  5  6  1  0
  6  7  1  0
  7  8  1  0
  7  9  1  0
  2 10  1  0
 10 11  1  0
 11 12  1  0
 12 13  1  0
 13 14  1  1
 13 15  1  0
 15 16  1  0
 16 17  1  0
 17 18  2  0
 18 19  1  0
 19 20  1  0
 20 21  1  0
 21 22  1  0
 22 23  1  0
 22 24  1  0
 24 25  1  0
 24 26  1  0
 19 27  1  0
 27 28  1  6
 27 29  1  0
 29 30  1  0
 30 31  1  0
 31 32  1  6
  7  5  1  0
 31 10  1  0
 31 13  1  0
 27 15  1  0
 24 18  1  0
  1 33  1  0
  1 34  1  0
  1 35  1  0
  2 36  1  1
  3 37  1  0
  3 38  1  0
  4 39  1  0
  4 40  1  0
  5 41  1  1
  8 42  1  0
  8 43  1  0
  8 44  1  0
  9 45  1  0
  9 46  1  0
  9 47  1  0
 10 48  1  1
 11 49  1  0
 11 50  1  0
 12 51  1  0
 12 52  1  0
 14 53  1  0
 14 54  1  0
 14 55  1  0
 15 56  1  6
 16 57  1  0
 16 58  1  0
 17 59  1  0
 19 60  1  1
 20 61  1  0
 20 62  1  0
 21 63  1  0
 21 64  1  0
 22 65  1  1
 23 66  1  0
 25 67  1  0
 25 68  1  0
 25 69  1  0
 26 70  1  0
 26 71  1  0
 26 72  1  0
 28 73  1  0
 28 74  1  0
 28 75  1  0
 29 76  1  0
 29 77  1  0
 30 78  1  0
 30 79  1  0
 32 80  1  0
 32 81  1  0
 32 82  1  0
M  END
>  <meeko>  (1) 
{"is_sidechain": [false], "intermolecular_energy": 2.731, "internal_energy": -0.839}

$$$$
EPH_relaxed_0001_pdb2pqr_Repair_348_r2_0001_out
     RDKit          3D

 82 86  0  0  0  0  0  0  0  0999 V2000
   -4.8550   11.1920    0.1670 C   0  0  0  0  0  0  0  0  0  0  0  0
   -3.5090   10.6260   -0.2960 C   0  0  2  0  0  0  0  0  0  0  0  0
   -3.2430    9.2200    0.2770 C   0  0  0  0  0  0  0  0  0  0  0  0
   -3.6040    8.0850   -0.6860 C   0  0  0  0  0  0  0  0  0  0  0  0
   -5.0860    7.9700   -0.8760 C   0  0  2  0  0  0  0  0  0  0  0  0
   -5.6170    6.6570   -0.6560 O   0  0  0  0  0  0  0  0  0  0  0  0
   -5.7260    7.1680   -1.9940 C   0  0  0  0  0  0  0  0  0  0  0  0
   -4.8970    6.4290   -2.9970 C   0  0  0  0  0  0  0  0  0  0  0  0
   -7.1280    7.5000   -2.4010 C   0  0  0  0  0  0  0  0  0  0  0  0
   -2.3830   11.5730    0.1030 C   0  0  1  0  0  0  0  0  0  0  0  0
   -1.5310   11.0250    1.2780 C   0  0  0  0  0  0  0  0  0  0  0  0
   -0.0720   11.4860    1.0260 C   0  0  0  0  0  0  0  0  0  0  0  0
   -0.1870   12.5500   -0.0910 C   0  0  1  0  0  0  0  0  0  0  0  0
   -0.6070   13.8610    0.6450 C   0  0  0  0  0  0  0  0  0  0  0  0
    1.0850   12.7660   -0.9730 C   0  0  2  0  0  0  0  0  0  0  0  0
    2.3250   13.2750   -0.2170 C   0  0  0  0  0  0  0  0  0  0  0  0
    2.4650   14.7600   -0.1480 C   0  0  0  0  0  0  0  0  0  0  0  0
    1.7920   15.6450   -0.9070 C   0  0  0  0  0  0  0  0  0  0  0  0
    0.8510   15.1710   -2.0230 C   0  0  1  0  0  0  0  0  0  0  0  0
    1.1220   15.9910   -3.3110 C   0  0  0  0  0  0  0  0  0  0  0  0
    1.0360   17.4960   -3.0760 C   0  0  0  0  0  0  0  0  0  0  0  0
    2.0270   17.9370   -2.0020 C   0  0  2  0  0  0  0  0  0  0  0  0
    3.3560   17.7510   -2.4970 O   0  0  0  0  0  0  0  0  0  0  0  0
    1.8570   17.1720   -0.6600 C   0  0  0  0  0  0  0  0  0  0  0  0
    0.5380   17.6100    0.0260 C   0  0  0  0  0  0  0  0  0  0  0  0
    3.0050   17.6100    0.2890 C   0  0  0  0  0  0  0  0  0  0  0  0
    0.8270   13.6050   -2.2900 C   0  0  1  0  0  0  0  0  0  0  0  0
    1.9560   13.2180   -3.2930 C   0  0  0  0  0  0  0  0  0  0  0  0
   -0.5340   13.2230   -2.9850 C   0  0  0  0  0  0  0  0  0  0  0  0
   -1.7220   12.9040   -2.0570 C   0  0  0  0  0  0  0  0  0  0  0  0
   -1.3170   11.9030   -0.9720 C   0  0  2  0  0  0  0  0  0  0  0  0
   -0.9110   10.5660   -1.6810 C   0  0  0  0  0  0  0  0  0  0  0  0
   -4.8882   11.2060    1.2664 H   0  0  0  0  0  0  0  0  0  0  0  0
   -4.9735   12.2162   -0.2165 H   0  0  0  0  0  0  0  0  0  0  0  0
   -5.6698   10.5603   -0.2165 H   0  0  0  0  0  0  0  0  0  0  0  0
   -3.5471   10.5340   -1.3915 H   0  0  0  0  0  0  0  0  0  0  0  0
   -2.1734    9.1411    0.5215 H   0  0  0  0  0  0  0  0  0  0  0  0
   -3.8852    9.1068    1.1629 H   0  0  0  0  0  0  0  0  0  0  0  0
   -3.1337    8.2814   -1.6608 H   0  0  0  0  0  0  0  0  0  0  0  0
   -3.2391    7.1408   -0.2555 H   0  0  0  0  0  0  0  0  0  0  0  0
   -5.2347    9.0039   -0.5310 H   0  0  0  0  0  0  0  0  0  0  0  0
   -4.1750    5.7854   -2.4731 H   0  0  0  0  0  0  0  0  0  0  0  0
   -5.5510    5.8088   -3.6276 H   0  0  0  0  0  0  0  0  0  0  0  0
   -4.3557    7.1496   -3.6276 H   0  0  0  0  0  0  0  0  0  0  0  0
   -7.7457    7.6463   -1.5026 H   0  0  0  0  0  0  0  0  0  0  0  0
   -7.1272    8.4228   -2.9997 H   0  0  0  0  0  0  0  0  0  0  0  0
   -7.5412    6.6749   -2.9997 H   0  0  0  0  0  0  0  0  0  0  0  0
   -2.9717   12.4723    0.3370 H   0  0  0  0  0  0  0  0  0  0  0  0
   -1.8969   11.4308    2.2327 H   0  0  0  0  0  0  0  0  0  0  0  0
   -1.5945    9.9283    1.3339 H   0  0  0  0  0  0  0  0  0  0  0  0
    0.3596   11.9249    1.9376 H   0  0  0  0  0  0  0  0  0  0  0  0
    0.5861   10.6517    0.7416 H   0  0  0  0  0  0  0  0  0  0  0  0
   -0.5565   13.7033    1.7325 H   0  0  0  0  0  0  0  0  0  0  0  0
    0.0751   14.6758    0.3606 H   0  0  0  0  0  0  0  0  0  0  0  0
   -1.6356   14.1278    0.3606 H   0  0  0  0  0  0  0  0  0  0  0  0
    1.3277   11.7410   -1.2900 H   0  0  0  0  0  0  0  0  0  0  0  0
    2.2773   12.8899    0.8123 H   0  0  0  0  0  0  0  0  0  0  0  0
    3.1961   12.9132   -0.7829 H   0  0  0  0  0  0  0  0  0  0  0  0
    3.1783   15.1650    0.5849 H   0  0  0  0  0  0  0  0  0  0  0  0
   -0.1703   15.3667   -1.6642 H   0  0  0  0  0  0  0  0  0  0  0  0
    2.1304   15.7485   -3.6776 H   0  0  0  0  0  0  0  0  0  0  0  0
    0.3485   15.7233   -4.0459 H   0  0  0  0  0  0  0  0  0  0  0  0
    1.2654   18.0209   -4.0151 H   0  0  0  0  0  0  0  0  0  0  0  0
    0.0185   17.7413   -2.7375 H   0  0  0  0  0  0  0  0  0  0  0  0
    1.8286   18.9971   -1.7855 H   0  0  0  0  0  0  0  0  0  0  0  0
    3.9640   18.2010   -1.8850 H   0  0  0  0  0  0  0  0  0  0  0  0
    0.6616   17.5690    1.1183 H   0  0  0  0  0  0  0  0  0  0  0  0
    0.2912   18.6383   -0.2767 H   0  0  0  0  0  0  0  0  0  0  0  0
   -0.2749   16.9336   -0.2767 H   0  0  0  0  0  0  0  0  0  0  0  0
    2.6838   17.4875    1.3339 H   0  0  0  0  0  0  0  0  0  0  0  0
    3.8924   16.9873    0.1027 H   0  0  0  0  0  0  0  0  0  0  0  0
    3.2521   18.6656    0.1027 H   0  0  0  0  0  0  0  0  0  0  0  0
    2.8527   12.9106   -2.7349 H   0  0  0  0  0  0  0  0  0  0  0  0
    1.6147   12.3855   -3.9259 H   0  0  0  0  0  0  0  0  0  0  0  0
    2.1972   14.0848   -3.9259 H   0  0  0  0  0  0  0  0  0  0  0  0
   -0.8292   14.0673   -3.6254 H   0  0  0  0  0  0  0  0  0  0  0  0
   -0.3294   12.2858   -3.5234 H   0  0  0  0  0  0  0  0  0  0  0  0
   -2.0648   13.8335   -1.5790 H   0  0  0  0  0  0  0  0  0  0  0  0
   -2.5283   12.4606   -2.6597 H   0  0  0  0  0  0  0  0  0  0  0  0
   -0.6796    9.8041   -0.9221 H   0  0  0  0  0  0  0  0  0  0  0  0
   -1.7436   10.2167   -2.3093 H   0  0  0  0  0  0  0  0  0  0  0  0
   -0.0248   10.7386   -2.3093 H   0  0  0  0  0  0  0  0  0  0  0  0
  1  2  1  0
  2  3  1  0
  3  4  1  0
  4  5  1  0
  5  6  1  0
  6  7  1  0
  7  8  1  0
  7  9  1  0
  2 10  1  0
 10 11  1  0
 11 12  1  0
 12 13  1  0
 13 14  1  1
 13 15  1  0
 15 16  1  0
 16 17  1  0
 17 18  2  0
 18 19  1  0
 19 20  1  0
 20 21  1  0
 21 22  1  0
 22 23  1  0
 22 24  1  0
 24 25  1  0
 24 26  1  0
 19 27  1  0
 27 28  1  6
 27 29  1  0
 29 30  1  0
 30 31  1  0
 31 32  1  6
  7  5  1  0
 31 10  1  0
 31 13  1  0
 27 15  1  0
 24 18  1  0
  1 33  1  0
  1 34  1  0
  1 35  1  0
  2 36  1  6
  3 37  1  0
  3 38  1  0
  4 39  1  0
  4 40  1  0
  5 41  1  1
  8 42  1  0
  8 43  1  0
  8 44  1  0
  9 45  1  0
  9 46  1  0
  9 47  1  0
 10 48  1  1
 11 49  1  0
 11 50  1  0
 12 51  1  0
 12 52  1  0
 14 53  1  0
 14 54  1  0
 14 55  1  0
 15 56  1  6
 16 57  1  0
 16 58  1  0
 17 59  1  0
 19 60  1  1
 20 61  1  0
 20 62  1  0
 21 63  1  0
 21 64  1  0
 22 65  1  1
 23 66  1  0
 25 67  1  0
 25 68  1  0
 25 69  1  0
 26 70  1  0
 26 71  1  0
 26 72  1  0
 28 73  1  0
 28 74  1  0
 28 75  1  0
 29 76  1  0
 29 77  1  0
 30 78  1  0
 30 79  1  0
 32 80  1  0
 32 81  1  0
 32 82  1  0
M  END
>  <meeko>  (2) 
{"is_sidechain": [false], "intermolecular_energy": 2.731, "internal_energy": -0.839}

$$$$
EPH_relaxed_0001_pdb2pqr_Repair_348_r2_0001_out
     RDKit          3D

 82 86  0  0  0  0  0  0  0  0999 V2000
    0.9530   15.8310   -4.4350 C   0  0  0  0  0  0  0  0  0  0  0  0
    1.3420   14.3800   -4.7320 C   0  0  2  0  0  0  0  0  0  0  0  0
    1.1960   14.0340   -6.2270 C   0  0  0  0  0  0  0  0  0  0  0  0
    1.1860   15.2600   -7.1440 C   0  0  0  0  0  0  0  0  0  0  0  0
    2.3080   15.2190   -8.1370 C   0  0  2  0  0  0  0  0  0  0  0  0
    2.5640   16.4620   -8.8030 O   0  0  0  0  0  0  0  0  0  0  0  0
    2.1080   15.3810   -9.6330 C   0  0  0  0  0  0  0  0  0  0  0  0
    0.7480   15.5960  -10.2190 C   0  0  0  0  0  0  0  0  0  0  0  0
    3.1570   14.8460  -10.5570 C   0  0  0  0  0  0  0  0  0  0  0  0
    0.4930   13.4320   -3.8930 C   0  0  1  0  0  0  0  0  0  0  0  0
    0.4910   11.9820   -4.4470 C   0  0  0  0  0  0  0  0  0  0  0  0
    0.4300   11.0350   -3.2210 C   0  0  0  0  0  0  0  0  0  0  0  0
    0.0660   11.9560   -2.0340 C   0  0  1  0  0  0  0  0  0  0  0  0
   -1.4810   12.1390   -2.1280 C   0  0  0  0  0  0  0  0  0  0  0  0
    0.5040   11.4620   -0.6160 C   0  0  2  0  0  0  0  0  0  0  0  0
   -0.1350   10.1390   -0.1600 C   0  0  0  0  0  0  0  0  0  0  0  0
   -1.4170   10.2760    0.5920 C   0  0  0  0  0  0  0  0  0  0  0  0
   -1.8870   11.4130    1.1370 C   0  0  0  0  0  0  0  0  0  0  0  0
   -1.0560   12.7030    1.1070 C   0  0  1  0  0  0  0  0  0  0  0  0
   -1.0710   13.3610    2.5110 C   0  0  0  0  0  0  0  0  0  0  0  0
   -2.4860   13.5910    3.0340 C   0  0  0  0  0  0  0  0  0  0  0  0
   -3.2620   12.2780    3.1040 C   0  0  2  0  0  0  0  0  0  0  0  0
   -2.6670   11.4440    4.1030 O   0  0  0  0  0  0  0  0  0  0  0  0
   -3.3060   11.5190    1.7480 C   0  0  0  0  0  0  0  0  0  0  0  0
   -4.2090   12.2870    0.7510 C   0  0  0  0  0  0  0  0  0  0  0  0
   -3.9930   10.1490    1.9900 C   0  0  0  0  0  0  0  0  0  0  0  0
    0.4120   12.5680    0.5120 C   0  0  1  0  0  0  0  0  0  0  0  0
    1.4040   12.1400    1.6370 C   0  0  0  0  0  0  0  0  0  0  0  0
    0.8940   13.9790    0.0080 C   0  0  0  0  0  0  0  0  0  0  0  0
    0.5330   14.3600   -1.4400 C   0  0  0  0  0  0  0  0  0  0  0  0
    0.9010   13.2340   -2.4110 C   0  0  2  0  0  0  0  0  0  0  0  0
    2.4550   13.0420   -2.3550 C   0  0  0  0  0  0  0  0  0  0  0  0
    0.9119   15.9841   -3.3465 H   0  0  0  0  0  0  0  0  0  0  0  0
    1.7013   16.5082   -4.8726 H   0  0  0  0  0  0  0  0  0  0  0  0
   -0.0337   16.0430   -4.8726 H   0  0  0  0  0  0  0  0  0  0  0  0
    2.4032   14.2615   -4.4678 H   0  0  0  0  0  0  0  0  0  0  0  0
    2.0384   13.3893   -6.5182 H   0  0  0  0  0  0  0  0  0  0  0  0
    0.2237   13.5340   -6.3479 H   0  0  0  0  0  0  0  0  0  0  0  0
    0.2301   15.2909   -7.6874 H   0  0  0  0  0  0  0  0  0  0  0  0
    1.3137   16.1564   -6.5193 H   0  0  0  0  0  0  0  0  0  0  0  0
    2.8387   14.4617   -7.5413 H   0  0  0  0  0  0  0  0  0  0  0  0
    0.0136   15.7121   -9.4083 H   0  0  0  0  0  0  0  0  0  0  0  0
    0.7556   16.5041  -10.8397 H   0  0  0  0  0  0  0  0  0  0  0  0
    0.4751   14.7298  -10.8397 H   0  0  0  0  0  0  0  0  0  0  0  0
    3.9843   14.4241   -9.9675 H   0  0  0  0  0  0  0  0  0  0  0  0
    2.7208   14.0603  -11.1913 H   0  0  0  0  0  0  0  0  0  0  0  0
    3.5369   15.6605  -11.1913 H   0  0  0  0  0  0  0  0  0  0  0  0
   -0.4747   13.9519   -3.9508 H   0  0  0  0  0  0  0  0  0  0  0  0
   -0.3861   11.8240   -5.0917 H   0  0  0  0  0  0  0  0  0  0  0  0
    1.3897   11.7887   -5.0511 H   0  0  0  0  0  0  0  0  0  0  0  0
   -0.3408   10.2635   -3.3644 H   0  0  0  0  0  0  0  0  0  0  0  0
    1.3780   10.5010   -3.0590 H   0  0  0  0  0  0  0  0  0  0  0  0
   -1.9065   12.1893   -1.1149 H   0  0  0  0  0  0  0  0  0  0  0  0
   -1.7079   13.0703   -2.6677 H   0  0  0  0  0  0  0  0  0  0  0  0
   -1.9190   11.2864   -2.6677 H   0  0  0  0  0  0  0  0  0  0  0  0
    1.5720   11.2427   -0.7615 H   0  0  0  0  0  0  0  0  0  0  0  0
   -0.3293    9.5292   -1.0547 H   0  0  0  0  0  0  0  0  0  0  0  0
    0.5802    9.6806    0.5388 H   0  0  0  0  0  0  0  0  0  0  0  0
   -2.0298    9.3703    0.7108 H   0  0  0  0  0  0  0  0  0  0  0  0
   -1.5480   13.3651    0.3793 H   0  0  0  0  0  0  0  0  0  0  0  0
   -0.5376   12.7043    3.2140 H   0  0  0  0  0  0  0  0  0  0  0  0
   -0.5830   14.3430    2.4249 H   0  0  0  0  0  0  0  0  0  0  0  0
   -2.4306   14.0306    4.0408 H   0  0  0  0  0  0  0  0  0  0  0  0
   -3.0085   14.2714    2.3455 H   0  0  0  0  0  0  0  0  0  0  0  0
   -4.3033   12.5234    3.3597 H   0  0  0  0  0  0  0  0  0  0  0  0
   -3.2680   10.6960    4.2580 H   0  0  0  0  0  0  0  0  0  0  0  0
   -4.9313   12.9013    1.3087 H   0  0  0  0  0  0  0  0  0  0  0  0
   -3.5866   12.9367    0.1181 H   0  0  0  0  0  0  0  0  0  0  0  0
   -4.7504   11.5684    0.1181 H   0  0  0  0  0  0  0  0  0  0  0  0
   -4.0828    9.9698    3.0716 H   0  0  0  0  0  0  0  0  0  0  0  0
   -4.9945   10.1555    1.5350 H   0  0  0  0  0  0  0  0  0  0  0  0
   -3.3887    9.3503    1.5350 H   0  0  0  0  0  0  0  0  0  0  0  0
    0.9504   12.3357    2.6198 H   0  0  0  0  0  0  0  0  0  0  0  0
    1.6248   11.0666    1.5423 H   0  0  0  0  0  0  0  0  0  0  0  0
    2.3364   12.7159    1.5423 H   0  0  0  0  0  0  0  0  0  0  0  0
    0.4532   14.7377    0.6714 H   0  0  0  0  0  0  0  0  0  0  0  0
    1.9928   13.9316    0.0276 H   0  0  0  0  0  0  0  0  0  0  0  0
   -0.5486   14.5504   -1.5030 H   0  0  0  0  0  0  0  0  0  0  0  0
    1.0994   15.2613   -1.7172 H   0  0  0  0  0  0  0  0  0  0  0  0
    2.7819   13.0016   -1.3055 H   0  0  0  0  0  0  0  0  0  0  0  0
    2.7269   12.1034   -2.8601 H   0  0  0  0  0  0  0  0  0  0  0  0
    2.9472   13.8862   -2.8601 H   0  0  0  0  0  0  0  0  0  0  0  0
  1  2  1  0
  2  3  1  0
  3  4  1  0
  4  5  1  0
  5  6  1  0
  6  7  1  0
  7  8  1  0
  7  9  1  0
  2 10  1  0
 10 11  1  0
 11 12  1  0
 12 13  1  0
 13 14  1  1
 13 15  1  0
 15 16  1  0
 16 17  1  0
 17 18  2  0
 18 19  1  0
 19 20  1  0
 20 21  1  0
 21 22  1  0
 22 23  1  0
 22 24  1  0
 24 25  1  0
 24 26  1  0
 19 27  1  0
 27 28  1  1
 27 29  1  0
 29 30  1  0
 30 31  1  0
 31 32  1  6
  7  5  1  0
 31 10  1  0
 31 13  1  0
 27 15  1  0
 24 18  1  0
  1 33  1  0
  1 34  1  0
  1 35  1  0
  2 36  1  1
  3 37  1  0
  3 38  1  0
  4 39  1  0
  4 40  1  0
  5 41  1  6
  8 42  1  0
  8 43  1  0
  8 44  1  0
  9 45  1  0
  9 46  1  0
  9 47  1  0
 10 48  1  1
 11 49  1  0
 11 50  1  0
 12 51  1  0
 12 52  1  0
 14 53  1  0
 14 54  1  0
 14 55  1  0
 15 56  1  6
 16 57  1  0
 16 58  1  0
 17 59  1  0
 19 60  1  6
 20 61  1  0
 20 62  1  0
 21 63  1  0
 21 64  1  0
 22 65  1  1
 23 66  1  0
 25 67  1  0
 25 68  1  0
 25 69  1  0
 26 70  1  0
 26 71  1  0
 26 72  1  0
 28 73  1  0
 28 74  1  0
 28 75  1  0
 29 76  1  0
 29 77  1  0
 30 78  1  0
 30 79  1  0
 32 80  1  0
 32 81  1  0
 32 82  1  0
M  END
>  <meeko>  (3) 
{"is_sidechain": [false], "intermolecular_energy": 2.731, "internal_energy": -0.839}

$$$$
EPH_relaxed_0001_pdb2pqr_Repair_348_r2_0001_out
     RDKit          3D

 82 86  0  0  0  0  0  0  0  0999 V2000
    3.0490   12.1550   -5.3620 C   0  0  0  0  0  0  0  0  0  0  0  0
    1.6000   12.6450   -5.4510 C   0  0  2  0  0  0  0  0  0  0  0  0
    1.5010   14.1810   -5.3670 C   0  0  0  0  0  0  0  0  0  0  0  0
    0.7780   14.8170   -6.5580 C   0  0  0  0  0  0  0  0  0  0  0  0
    1.6760   14.9380   -7.7510 C   0  0  2  0  0  0  0  0  0  0  0  0
    2.1950   16.2550   -7.9790 O   0  0  0  0  0  0  0  0  0  0  0  0
    1.3160   15.7360   -8.9910 C   0  0  0  0  0  0  0  0  0  0  0  0
    0.0140   16.4660   -9.0990 C   0  0  0  0  0  0  0  0  0  0  0  0
    2.0070   15.4090  -10.2780 C   0  0  0  0  0  0  0  0  0  0  0  0
    0.7680   12.0080   -4.3450 C   0  0  1  0  0  0  0  0  0  0  0  0
    0.8690   10.4590   -4.3370 C   0  0  0  0  0  0  0  0  0  0  0  0
    0.8050   10.0140   -2.8530 C   0  0  0  0  0  0  0  0  0  0  0  0
    0.3390   11.2750   -2.0880 C   0  0  1  0  0  0  0  0  0  0  0  0
   -1.2100   11.3080   -2.2760 C   0  0  0  0  0  0  0  0  0  0  0  0
    0.7390   11.3540   -0.5790 C   0  0  2  0  0  0  0  0  0  0  0  0
    0.1530   10.2440    0.3110 C   0  0  0  0  0  0  0  0  0  0  0  0
   -1.1670   10.5560    0.9340 C   0  0  0  0  0  0  0  0  0  0  0  0
   -1.7210   11.7800    1.0200 C   0  0  0  0  0  0  0  0  0  0  0  0
   -0.9610   13.0240    0.5450 C   0  0  1  0  0  0  0  0  0  0  0  0
   -1.0750   14.1410    1.6150 C   0  0  0  0  0  0  0  0  0  0  0  0
   -2.5220   14.4490    1.9880 C   0  0  0  0  0  0  0  0  0  0  0  0
   -3.2270   13.2000    2.5110 C   0  0  2  0  0  0  0  0  0  0  0  0
   -2.6330   12.8230    3.7570 O   0  0  0  0  0  0  0  0  0  0  0  0
   -3.1690   12.0040    1.5210 C   0  0  0  0  0  0  0  0  0  0  0  0
   -4.0670   12.2990    0.2940 C   0  0  0  0  0  0  0  0  0  0  0  0
   -3.7920   10.7690    2.2270 C   0  0  0  0  0  0  0  0  0  0  0  0
    0.5370   12.7820    0.0720 C   0  0  1  0  0  0  0  0  0  0  0  0
    1.5000   12.8550    1.2960 C   0  0  0  0  0  0  0  0  0  0  0  0
    0.9640   13.9470   -0.8980 C   0  0  0  0  0  0  0  0  0  0  0  0
    0.6480   13.7560   -2.3940 C   0  0  0  0  0  0  0  0  0  0  0  0
    1.1190   12.3840   -2.8840 C   0  0  2  0  0  0  0  0  0  0  0  0
    2.6770   12.3290   -2.7270 C   0  0  0  0  0  0  0  0  0  0  0  0
    3.3387   12.0570   -4.3054 H   0  0  0  0  0  0  0  0  0  0  0  0
    3.1366   11.1773   -5.8584 H   0  0  0  0  0  0  0  0  0  0  0  0
    3.7120   12.8789   -5.8584 H   0  0  0  0  0  0  0  0  0  0  0  0
    1.2073   12.3422   -6.4329 H   0  0  0  0  0  0  0  0  0  0  0  0
    0.9556   14.4442   -4.4487 H   0  0  0  0  0  0  0  0  0  0  0  0
    2.5298   14.5703   -5.3701 H   0  0  0  0  0  0  0  0  0  0  0  0
   -0.0871   14.1922   -6.8249 H   0  0  0  0  0  0  0  0  0  0  0  0
    0.4587   15.8281   -6.2652 H   0  0  0  0  0  0  0  0  0  0  0  0
    2.0349   13.9071   -7.6152 H   0  0  0  0  0  0  0  0  0  0  0  0
   -0.3703   16.6815   -8.0911 H   0  0  0  0  0  0  0  0  0  0  0  0
    0.1669   17.4100   -9.6427 H   0  0  0  0  0  0  0  0  0  0  0  0
   -0.7116   15.8431   -9.6427 H   0  0  0  0  0  0  0  0  0  0  0  0
    2.9822   14.9475  -10.0636 H   0  0  0  0  0  0  0  0  0  0  0  0
    1.3891   14.7078  -10.8581 H   0  0  0  0  0  0  0  0  0  0  0  0
    2.1575   16.3314  -10.8581 H   0  0  0  0  0  0  0  0  0  0  0  0
   -0.2229   12.4066   -4.6081 H   0  0  0  0  0  0  0  0  0  0  0  0
    0.0311   10.0219   -4.9000 H   0  0  0  0  0  0  0  0  0  0  0  0
    1.8028   10.1217   -4.8105 H   0  0  0  0  0  0  0  0  0  0  0  0
    0.0842    9.1931   -2.7244 H   0  0  0  0  0  0  0  0  0  0  0  0
    1.7721    9.6379   -2.4879 H   0  0  0  0  0  0  0  0  0  0  0  0
   -1.6988   11.3184   -1.2906 H   0  0  0  0  0  0  0  0  0  0  0  0
   -1.4923   12.2124   -2.8349 H   0  0  0  0  0  0  0  0  0  0  0  0
   -1.5306   10.4165   -2.8349 H   0  0  0  0  0  0  0  0  0  0  0  0
    1.8228   11.1689   -0.6137 H   0  0  0  0  0  0  0  0  0  0  0  0
    0.0326    9.3416   -0.3063 H   0  0  0  0  0  0  0  0  0  0  0  0
    0.8601   10.1171    1.1440 H   0  0  0  0  0  0  0  0  0  0  0  0
   -1.7349    9.7151    1.3586 H   0  0  0  0  0  0  0  0  0  0  0  0
   -1.4548   13.3460   -0.3837 H   0  0  0  0  0  0  0  0  0  0  0  0
   -0.5387   13.8186    2.5197 H   0  0  0  0  0  0  0  0  0  0  0  0
   -0.6380   15.0564    1.1896 H   0  0  0  0  0  0  0  0  0  0  0  0
   -2.5357   15.2239    2.7686 H   0  0  0  0  0  0  0  0  0  0  0  0
   -3.0497   14.8002    1.0890 H   0  0  0  0  0  0  0  0  0  0  0  0
   -4.2906   13.4503    2.6378 H   0  0  0  0  0  0  0  0  0  0  0  0
   -2.6670   11.8540    3.8170 H   0  0  0  0  0  0  0  0  0  0  0  0
   -5.0601   12.6252    0.6364 H   0  0  0  0  0  0  0  0  0  0  0  0
   -3.6090   13.0939   -0.3129 H   0  0  0  0  0  0  0  0  0  0  0  0
   -4.1696   11.3873   -0.3129 H   0  0  0  0  0  0  0  0  0  0  0  0
   -3.7267   10.8984    3.3174 H   0  0  0  0  0  0  0  0  0  0  0  0
   -4.8472   10.6715    1.9318 H   0  0  0  0  0  0  0  0  0  0  0  0
   -3.2434    9.8624    1.9318 H   0  0  0  0  0  0  0  0  0  0  0  0
    0.9146   12.8106    2.2263 H   0  0  0  0  0  0  0  0  0  0  0  0
    2.2003   12.0074    1.2627 H   0  0  0  0  0  0  0  0  0  0  0  0
    2.0645   13.7985    1.2627 H   0  0  0  0  0  0  0  0  0  0  0  0
    0.4532   14.8622   -0.5641 H   0  0  0  0  0  0  0  0  0  0  0  0
    2.0617   13.9840   -0.8380 H   0  0  0  0  0  0  0  0  0  0  0  0
   -0.4384   13.8385   -2.5455 H   0  0  0  0  0  0  0  0  0  0  0  0
    1.1771   14.5327   -2.9657 H   0  0  0  0  0  0  0  0  0  0  0  0
    2.9377   12.3198   -1.6584 H   0  0  0  0  0  0  0  0  0  0  0  0
    3.0618   11.4167   -3.2062 H   0  0  0  0  0  0  0  0  0  0  0  0
    3.1252   13.2119   -3.2062 H   0  0  0  0  0  0  0  0  0  0  0  0
  1  2  1  0
  2  3  1  0
  3  4  1  0
  4  5  1  0
  5  6  1  0
  6  7  1  0
  7  8  1  0
  7  9  1  0
  2 10  1  0
 10 11  1  0
 11 12  1  0
 12 13  1  0
 13 14  1  1
 13 15  1  0
 15 16  1  0
 16 17  1  0
 17 18  2  0
 18 19  1  0
 19 20  1  0
 20 21  1  0
 21 22  1  0
 22 23  1  0
 22 24  1  0
 24 25  1  0
 24 26  1  0
 19 27  1  0
 27 28  1  1
 27 29  1  0
 29 30  1  0
 30 31  1  0
 31 32  1  6
  7  5  1  0
 31 10  1  0
 31 13  1  0
 27 15  1  0
 24 18  1  0
  1 33  1  0
  1 34  1  0
  1 35  1  0
  2 36  1  6
  3 37  1  0
  3 38  1  0
  4 39  1  0
  4 40  1  0
  5 41  1  6
  8 42  1  0
  8 43  1  0
  8 44  1  0
  9 45  1  0
  9 46  1  0
  9 47  1  0
 10 48  1  6
 11 49  1  0
 11 50  1  0
 12 51  1  0
 12 52  1  0
 14 53  1  0
 14 54  1  0
 14 55  1  0
 15 56  1  6
 16 57  1  0
 16 58  1  0
 17 59  1  0
 19 60  1  6
 20 61  1  0
 20 62  1  0
 21 63  1  0
 21 64  1  0
 22 65  1  1
 23 66  1  0
 25 67  1  0
 25 68  1  0
 25 69  1  0
 26 70  1  0
 26 71  1  0
 26 72  1  0
 28 73  1  0
 28 74  1  0
 28 75  1  0
 29 76  1  0
 29 77  1  0
 30 78  1  0
 30 79  1  0
 32 80  1  0
 32 81  1  0
 32 82  1  0
M  END
>  <meeko>  (4) 
{"is_sidechain": [false], "intermolecular_energy": 2.731, "internal_energy": -0.839}

$$$$
EPH_relaxed_0001_pdb2pqr_Repair_348_r2_0001_out
     RDKit          3D

 82 86  0  0  0  0  0  0  0  0999 V2000
    1.2260   13.8270   -5.9330 C   0  0  0  0  0  0  0  0  0  0  0  0
    1.9780   12.9410   -4.9360 C   0  0  2  0  0  0  0  0  0  0  0  0
    2.8600   11.8920   -5.6430 C   0  0  0  0  0  0  0  0  0  0  0  0
    4.3520   12.2370   -5.6350 C   0  0  0  0  0  0  0  0  0  0  0  0
    5.1840   11.0870   -5.1520 C   0  0  2  0  0  0  0  0  0  0  0  0
    4.8620   10.6270   -3.8330 O   0  0  0  0  0  0  0  0  0  0  0  0
    6.1710   11.1920   -4.0050 C   0  0  0  0  0  0  0  0  0  0  0  0
    6.3800   12.4790   -3.2700 C   0  0  0  0  0  0  0  0  0  0  0  0
    7.2770   10.1870   -3.9190 C   0  0  0  0  0  0  0  0  0  0  0  0
    0.9890   12.2480   -4.0060 C   0  0  1  0  0  0  0  0  0  0  0  0
    0.8740   10.7260   -4.2840 C   0  0  0  0  0  0  0  0  0  0  0  0
    0.6440   10.0370   -2.9140 C   0  0  0  0  0  0  0  0  0  0  0  0
    0.3050   11.1960   -1.9470 C   0  0  1  0  0  0  0  0  0  0  0  0
   -1.2080   11.4940   -2.1930 C   0  0  0  0  0  0  0  0  0  0  0  0
    0.6040   10.9440   -0.4340 C   0  0  2  0  0  0  0  0  0  0  0  0
   -0.1910    9.7930    0.2060 C   0  0  0  0  0  0  0  0  0  0  0  0
   -1.4960   10.1820    0.8180 C   0  0  0  0  0  0  0  0  0  0  0  0
   -1.8800   11.4400    1.1070 C   0  0  0  0  0  0  0  0  0  0  0  0
   -0.9220   12.6210    0.9060 C   0  0  1  0  0  0  0  0  0  0  0  0
   -0.9550   13.5340    2.1610 C   0  0  0  0  0  0  0  0  0  0  0  0
   -2.3680   13.9820    2.5210 C   0  0  0  0  0  0  0  0  0  0  0  0
   -3.2750   12.7800    2.7700 C   0  0  2  0  0  0  0  0  0  0  0  0
   -2.8290   12.1020    3.9480 O   0  0  0  0  0  0  0  0  0  0  0  0
   -3.3150   11.7850    1.5770 C   0  0  0  0  0  0  0  0  0  0  0  0
   -4.0740   12.4250    0.3890 C   0  0  0  0  0  0  0  0  0  0  0  0
   -4.1510   10.5510    2.0120 C   0  0  0  0  0  0  0  0  0  0  0  0
    0.5570   12.2470    0.4630 C   0  0  1  0  0  0  0  0  0  0  0  0
    1.4320   11.9550    1.7200 C   0  0  0  0  0  0  0  0  0  0  0  0
    1.2090   13.4890   -0.2530 C   0  0  0  0  0  0  0  0  0  0  0  0
    0.9760   13.6180   -1.7700 C   0  0  0  0  0  0  0  0  0  0  0  0
    1.2850   12.3000   -2.4870 C   0  0  2  0  0  0  0  0  0  0  0  0
    2.8060   11.9860   -2.2750 C   0  0  0  0  0  0  0  0  0  0  0  0
    0.6089   14.5540   -5.3846 H   0  0  0  0  0  0  0  0  0  0  0  0
    1.9492   14.3629   -6.5653 H   0  0  0  0  0  0  0  0  0  0  0  0
    0.5797   13.2006   -6.5653 H   0  0  0  0  0  0  0  0  0  0  0  0
    2.6435   13.5927   -4.3509 H   0  0  0  0  0  0  0  0  0  0  0  0
    2.7242   10.9254   -5.1359 H   0  0  0  0  0  0  0  0  0  0  0  0
    2.5425   11.8615   -6.6957 H   0  0  0  0  0  0  0  0  0  0  0  0
    4.6632   12.4976   -6.6574 H   0  0  0  0  0  0  0  0  0  0  0  0
    4.5049   13.0831   -4.9489 H   0  0  0  0  0  0  0  0  0  0  0  0
    5.2814   10.6973   -6.1760 H   0  0  0  0  0  0  0  0  0  0  0  0
    6.3496   12.2916   -2.1865 H   0  0  0  0  0  0  0  0  0  0  0  0
    7.3585   12.9017   -3.5417 H   0  0  0  0  0  0  0  0  0  0  0  0
    5.5855   13.1896   -3.5417 H   0  0  0  0  0  0  0  0  0  0  0  0
    7.5038    9.9809   -2.8626 H   0  0  0  0  0  0  0  0  0  0  0  0
    6.9660    9.2561   -4.4156 H   0  0  0  0  0  0  0  0  0  0  0  0
    8.1740   10.5855   -4.4156 H   0  0  0  0  0  0  0  0  0  0  0  0
    0.0838   12.8304   -4.2325 H   0  0  0  0  0  0  0  0  0  0  0  0
    0.0258   10.5266   -4.9554 H   0  0  0  0  0  0  0  0  0  0  0  0
    1.7834   10.3436   -4.7706 H   0  0  0  0  0  0  0  0  0  0  0  0
   -0.1913    9.3237   -2.9733 H   0  0  0  0  0  0  0  0  0  0  0  0
    1.5212    9.4611   -2.5840 H   0  0  0  0  0  0  0  0  0  0  0  0
   -1.7236   11.5955   -1.2266 H   0  0  0  0  0  0  0  0  0  0  0  0
   -1.3096   12.4294   -2.7628 H   0  0  0  0  0  0  0  0  0  0  0  0
   -1.6567   10.6670   -2.7628 H   0  0  0  0  0  0  0  0  0  0  0  0
    1.6514   10.6085   -0.4548 H   0  0  0  0  0  0  0  0  0  0  0  0
   -0.3913    9.0436   -0.5739 H   0  0  0  0  0  0  0  0  0  0  0  0
    0.4312    9.4153    1.0308 H   0  0  0  0  0  0  0  0  0  0  0  0
   -2.2034    9.3730    1.0526 H   0  0  0  0  0  0  0  0  0  0  0  0
   -1.2992   13.1727    0.0323 H   0  0  0  0  0  0  0  0  0  0  0  0
   -0.5334   12.9790    3.0120 H   0  0  0  0  0  0  0  0  0  0  0  0
   -0.3665   14.4352    1.9341 H   0  0  0  0  0  0  0  0  0  0  0  0
   -2.3292   14.5983    3.4313 H   0  0  0  0  0  0  0  0  0  0  0  0
   -2.7770   14.5621    1.6806 H   0  0  0  0  0  0  0  0  0  0  0  0
   -4.2996   13.1603    2.8949 H   0  0  0  0  0  0  0  0  0  0  0  0
   -3.6020   11.9700    4.5220 H   0  0  0  0  0  0  0  0  0  0  0  0
   -4.8621   13.0896    0.7727 H   0  0  0  0  0  0  0  0  0  0  0  0
   -3.3706   13.0067   -0.2249 H   0  0  0  0  0  0  0  0  0  0  0  0
   -4.5285   11.6335   -0.2249 H   0  0  0  0  0  0  0  0  0  0  0  0
   -4.1855   10.5001    3.1103 H   0  0  0  0  0  0  0  0  0  0  0  0
   -5.1735   10.6431    1.6169 H   0  0  0  0  0  0  0  0  0  0  0  0
   -3.6863    9.6356    1.6169 H   0  0  0  0  0  0  0  0  0  0  0  0
    0.8447   12.1510    2.6292 H   0  0  0  0  0  0  0  0  0  0  0  0
    1.7500   10.9020    1.7088 H   0  0  0  0  0  0  0  0  0  0  0  0
    2.3186   12.6060    1.7088 H   0  0  0  0  0  0  0  0  0  0  0  0
    0.8083   14.3959    0.2234 H   0  0  0  0  0  0  0  0  0  0  0  0
    2.2942   13.3494   -0.1395 H   0  0  0  0  0  0  0  0  0  0  0  0
   -0.0749   13.8881   -1.9508 H   0  0  0  0  0  0  0  0  0  0  0  0
    1.6470   14.3962   -2.1627 H   0  0  0  0  0  0  0  0  0  0  0  0
    3.0244   11.9409   -1.1978 H   0  0  0  0  0  0  0  0  0  0  0  0
    3.0489   11.0188   -2.7392 H   0  0  0  0  0  0  0  0  0  0  0  0
    3.4121   12.7780   -2.7392 H   0  0  0  0  0  0  0  0  0  0  0  0
  1  2  1  0
  2  3  1  0
  3  4  1  0
  4  5  1  0
  5  6  1  0
  6  7  1  0
  7  8  1  0
  7  9  1  0
  2 10  1  0
 10 11  1  0
 11 12  1  0
 12 13  1  0
 13 14  1  1
 13 15  1  0
 15 16  1  0
 16 17  1  0
 17 18  2  0
 18 19  1  0
 19 20  1  0
 20 21  1  0
 21 22  1  0
 22 23  1  0
 22 24  1  0
 24 25  1  0
 24 26  1  0
 19 27  1  0
 27 28  1  1
 27 29  1  0
 29 30  1  0
 30 31  1  0
 31 32  1  6
  7  5  1  0
 31 10  1  0
 31 13  1  0
 27 15  1  0
 24 18  1  0
  1 33  1  0
  1 34  1  0
  1 35  1  0
  2 36  1  1
  3 37  1  0
  3 38  1  0
  4 39  1  0
  4 40  1  0
  5 41  1  6
  8 42  1  0
  8 43  1  0
  8 44  1  0
  9 45  1  0
  9 46  1  0
  9 47  1  0
 10 48  1  1
 11 49  1  0
 11 50  1  0
 12 51  1  0
 12 52  1  0
 14 53  1  0
 14 54  1  0
 14 55  1  0
 15 56  1  6
 16 57  1  0
 16 58  1  0
 17 59  1  0
 19 60  1  6
 20 61  1  0
 20 62  1  0
 21 63  1  0
 21 64  1  0
 22 65  1  1
 23 66  1  0
 25 67  1  0
 25 68  1  0
 25 69  1  0
 26 70  1  0
 26 71  1  0
 26 72  1  0
 28 73  1  0
 28 74  1  0
 28 75  1  0
 29 76  1  0
 29 77  1  0
 30 78  1  0
 30 79  1  0
 32 80  1  0
 32 81  1  0
 32 82  1  0
M  END
>  <meeko>  (5) 
{"is_sidechain": [false], "intermolecular_energy": 2.731, "internal_energy": -0.839}

$$$$
EPH_relaxed_0001_pdb2pqr_Repair_348_r2_0001_out
     RDKit          3D

 82 86  0  0  0  0  0  0  0  0999 V2000
    2.5900   16.7420   -0.7760 C   0  0  0  0  0  0  0  0  0  0  0  0
    2.3010   16.4360   -2.2480 C   0  0  2  0  0  0  0  0  0  0  0  0
    1.8960   17.6990   -3.0350 C   0  0  0  0  0  0  0  0  0  0  0  0
    1.5350   18.8900   -2.1430 C   0  0  0  0  0  0  0  0  0  0  0  0
    0.0950   18.8560   -1.7280 C   0  0  2  0  0  0  0  0  0  0  0  0
   -0.4540   20.1290   -1.3660 O   0  0  0  0  0  0  0  0  0  0  0  0
   -0.3760   19.1510   -0.3170 C   0  0  0  0  0  0  0  0  0  0  0  0
    0.5900   19.5010    0.7710 C   0  0  0  0  0  0  0  0  0  0  0  0
   -1.7080   18.6250    0.1180 C   0  0  0  0  0  0  0  0  0  0  0  0
    1.2050   15.3820   -2.3540 C   0  0  1  0  0  0  0  0  0  0  0  0
    1.1520   14.7150   -3.7550 C   0  0  0  0  0  0  0  0  0  0  0  0
    0.7480   13.2350   -3.5300 C   0  0  0  0  0  0  0  0  0  0  0  0
    0.2630   13.1820   -2.0620 C   0  0  1  0  0  0  0  0  0  0  0  0
   -1.2060   13.7070   -2.1060 C   0  0  0  0  0  0  0  0  0  0  0  0
    0.3580   11.7920   -1.3530 C   0  0  2  0  0  0  0  0  0  0  0  0
   -0.5000   10.6790   -1.9810 C   0  0  0  0  0  0  0  0  0  0  0  0
   -1.8810   10.5510   -1.4300 C   0  0  0  0  0  0  0  0  0  0  0  0
   -2.3200   11.1030   -0.2830 C   0  0  0  0  0  0  0  0  0  0  0  0
   -1.3620   11.8660    0.6410 C   0  0  1  0  0  0  0  0  0  0  0  0
   -1.5790   11.4060    2.1060 C   0  0  0  0  0  0  0  0  0  0  0  0
   -3.0340   11.5260    2.5480 C   0  0  0  0  0  0  0  0  0  0  0  0
   -3.9490   10.7070    1.6400 C   0  0  2  0  0  0  0  0  0  0  0  0
   -3.6560    9.3180    1.8240 O   0  0  0  0  0  0  0  0  0  0  0  0
   -3.8100   11.0760    0.1370 C   0  0  0  0  0  0  0  0  0  0  0  0
   -4.4110   12.4820   -0.1110 C   0  0  0  0  0  0  0  0  0  0  0  0
   -4.6790   10.0820   -0.6810 C   0  0  0  0  0  0  0  0  0  0  0  0
    0.1700   11.8500    0.2170 C   0  0  1  0  0  0  0  0  0  0  0  0
    0.8700   10.5840    0.7970 C   0  0  0  0  0  0  0  0  0  0  0  0
    0.8940   13.0920    0.8600 C   0  0  0  0  0  0  0  0  0  0  0  0
    0.8680   14.4050    0.0560 C   0  0  0  0  0  0  0  0  0  0  0  0
    1.2910   14.1670   -1.3970 C   0  0  2  0  0  0  0  0  0  0  0  0
    2.7730   13.6590   -1.3860 C   0  0  0  0  0  0  0  0  0  0  0  0
    1.9746   16.0904   -0.1383 H   0  0  0  0  0  0  0  0  0  0  0  0
    3.6545   16.5611   -0.5660 H   0  0  0  0  0  0  0  0  0  0  0  0
    2.3486   17.7944   -0.5660 H   0  0  0  0  0  0  0  0  0  0  0  0
    3.2300   16.0525   -2.6951 H   0  0  0  0  0  0  0  0  0  0  0  0
    2.7376   17.9909   -3.6804 H   0  0  0  0  0  0  0  0  0  0  0  0
    0.9944   17.4437   -3.6112 H   0  0  0  0  0  0  0  0  0  0  0  0
    2.1661   18.8650   -1.2424 H   0  0  0  0  0  0  0  0  0  0  0  0
    1.7043   19.8124   -2.7178 H   0  0  0  0  0  0  0  0  0  0  0  0
   -0.1069   18.0197   -2.4135 H   0  0  0  0  0  0  0  0  0  0  0  0
    0.1178   19.3299    1.7496 H   0  0  0  0  0  0  0  0  0  0  0  0
    1.4871   18.8708    0.6816 H   0  0  0  0  0  0  0  0  0  0  0  0
    0.8752   20.5596    0.6816 H   0  0  0  0  0  0  0  0  0  0  0  0
   -1.7540   18.6068    1.2169 H   0  0  0  0  0  0  0  0  0  0  0  0
   -2.5044   19.2762   -0.2716 H   0  0  0  0  0  0  0  0  0  0  0  0
   -1.8446   17.6054   -0.2716 H   0  0  0  0  0  0  0  0  0  0  0  0
    0.3305   15.9991   -2.1001 H   0  0  0  0  0  0  0  0  0  0  0  0
    0.4062   15.2195   -4.3869 H   0  0  0  0  0  0  0  0  0  0  0  0
    2.1247   14.7862   -4.2637 H   0  0  0  0  0  0  0  0  0  0  0  0
   -0.0606   12.9444   -4.2169 H   0  0  0  0  0  0  0  0  0  0  0  0
    1.5807   12.5417   -3.7196 H   0  0  0  0  0  0  0  0  0  0  0  0
   -1.5787   13.8402   -1.0797 H   0  0  0  0  0  0  0  0  0  0  0  0
   -1.2351   14.6712   -2.6347 H   0  0  0  0  0  0  0  0  0  0  0  0
   -1.8396   12.9797   -2.6347 H   0  0  0  0  0  0  0  0  0  0  0  0
    1.4034   11.5044   -1.5384 H   0  0  0  0  0  0  0  0  0  0  0  0
   -0.5816   10.8803   -3.0593 H   0  0  0  0  0  0  0  0  0  0  0  0
    0.0100    9.7329   -1.7468 H   0  0  0  0  0  0  0  0  0  0  0  0
   -2.6012    9.9553   -2.0100 H   0  0  0  0  0  0  0  0  0  0  0  0
   -1.6256   12.9292    0.5409 H   0  0  0  0  0  0  0  0  0  0  0  0
   -1.2692   10.3543    2.1948 H   0  0  0  0  0  0  0  0  0  0  0  0
   -0.9784   12.0614    2.7539 H   0  0  0  0  0  0  0  0  0  0  0  0
   -3.1282   11.1582    3.5804 H   0  0  0  0  0  0  0  0  0  0  0  0
   -3.3335   12.5827    2.4876 H   0  0  0  0  0  0  0  0  0  0  0  0
   -4.9869   10.9355    1.9237 H   0  0  0  0  0  0  0  0  0  0  0  0
   -3.5280    9.1680    2.7760 H   0  0  0  0  0  0  0  0  0  0  0  0
   -4.6185   12.9675    0.8540 H   0  0  0  0  0  0  0  0  0  0  0  0
   -3.6948   13.0915   -0.6816 H   0  0  0  0  0  0  0  0  0  0  0  0
   -5.3465   12.3855   -0.6816 H   0  0  0  0  0  0  0  0  0  0  0  0
   -5.2436    9.4361    0.0075 H   0  0  0  0  0  0  0  0  0  0  0  0
   -5.3806   10.6441   -1.3149 H   0  0  0  0  0  0  0  0  0  0  0  0
   -4.0282    9.4618   -1.3149 H   0  0  0  0  0  0  0  0  0  0  0  0
    0.8479   10.6239    1.8961 H   0  0  0  0  0  0  0  0  0  0  0  0
    0.3421    9.6827    0.4521 H   0  0  0  0  0  0  0  0  0  0  0  0
    1.9141   10.5519    0.4521 H   0  0  0  0  0  0  0  0  0  0  0  0
    0.4181   13.2878    1.8322 H   0  0  0  0  0  0  0  0  0  0  0  0
    1.9557   12.8093    0.9144 H   0  0  0  0  0  0  0  0  0  0  0  0
   -0.1522   14.8159    0.0710 H   0  0  0  0  0  0  0  0  0  0  0  0
    1.5747   15.1116    0.5156 H   0  0  0  0  0  0  0  0  0  0  0  0
    3.1130   13.5425   -0.3464 H   0  0  0  0  0  0  0  0  0  0  0  0
    2.8321   12.6893   -1.9020 H   0  0  0  0  0  0  0  0  0  0  0  0
    3.4145   14.3885   -1.9020 H   0  0  0  0  0  0  0  0  0  0  0  0
  1  2  1  0
  2  3  1  0
  3  4  1  0
  4  5  1  0
  5  6  1  0
  6  7  1  0
  7  8  1  0
  7  9  1  0
  2 10  1  0
 10 11  1  0
 11 12  1  0
 12 13  1  0
 13 14  1  6
 13 15  1  0
 15 16  1  0
 16 17  1  0
 17 18  2  0
 18 19  1  0
 19 20  1  0
 20 21  1  0
 21 22  1  0
 22 23  1  0
 22 24  1  0
 24 25  1  0
 24 26  1  0
 19 27  1  0
 27 28  1  1
 27 29  1  0
 29 30  1  0
 30 31  1  0
 31 32  1  1
  7  5  1  0
 31 10  1  0
 31 13  1  0
 27 15  1  0
 24 18  1  0
  1 33  1  0
  1 34  1  0
  1 35  1  0
  2 36  1  6
  3 37  1  0
  3 38  1  0
  4 39  1  0
  4 40  1  0
  5 41  1  6
  8 42  1  0
  8 43  1  0
  8 44  1  0
  9 45  1  0
  9 46  1  0
  9 47  1  0
 10 48  1  1
 11 49  1  0
 11 50  1  0
 12 51  1  0
 12 52  1  0
 14 53  1  0
 14 54  1  0
 14 55  1  0
 15 56  1  1
 16 57  1  0
 16 58  1  0
 17 59  1  0
 19 60  1  1
 20 61  1  0
 20 62  1  0
 21 63  1  0
 21 64  1  0
 22 65  1  1
 23 66  1  0
 25 67  1  0
 25 68  1  0
 25 69  1  0
 26 70  1  0
 26 71  1  0
 26 72  1  0
 28 73  1  0
 28 74  1  0
 28 75  1  0
 29 76  1  0
 29 77  1  0
 30 78  1  0
 30 79  1  0
 32 80  1  0
 32 81  1  0
 32 82  1  0
M  END
>  <meeko>  (6) 
{"is_sidechain": [false], "intermolecular_energy": 2.731, "internal_energy": -0.839}

$$$$
EPH_relaxed_0001_pdb2pqr_Repair_348_r2_0001_out
     RDKit          3D

 82 86  0  0  0  0  0  0  0  0999 V2000
   -4.0900    7.7640   -0.8680 C   0  0  0  0  0  0  0  0  0  0  0  0
   -5.0100    8.8950   -0.4000 C   0  0  2  0  0  0  0  0  0  0  0  0
   -6.3530    8.9020   -1.1560 C   0  0  0  0  0  0  0  0  0  0  0  0
   -6.8100    7.5130   -1.6120 C   0  0  0  0  0  0  0  0  0  0  0  0
   -7.7860    6.9070   -0.6500 C   0  0  2  0  0  0  0  0  0  0  0  0
   -8.5360    5.8030   -1.1730 O   0  0  0  0  0  0  0  0  0  0  0  0
   -9.2910    6.9760   -0.8300 C   0  0  0  0  0  0  0  0  0  0  0  0
   -9.9050    7.6700   -2.0050 C   0  0  0  0  0  0  0  0  0  0  0  0
  -10.1640    6.8000    0.3730 C   0  0  0  0  0  0  0  0  0  0  0  0
   -4.3100   10.2380   -0.5680 C   0  0  1  0  0  0  0  0  0  0  0  0
   -5.2410   11.4400   -0.2600 C   0  0  0  0  0  0  0  0  0  0  0  0
   -4.3580   12.5350    0.3930 C   0  0  0  0  0  0  0  0  0  0  0  0
   -2.9060   12.0670    0.1380 C   0  0  1  0  0  0  0  0  0  0  0  0
   -2.5930   12.5100   -1.3260 C   0  0  0  0  0  0  0  0  0  0  0  0
   -1.8270   12.5880    1.1420 C   0  0  2  0  0  0  0  0  0  0  0  0
   -1.6380   14.1150    1.1640 C   0  0  0  0  0  0  0  0  0  0  0  0
   -0.6100   14.6440    0.2190 C   0  0  0  0  0  0  0  0  0  0  0  0
    0.3300   13.9100   -0.4050 C   0  0  0  0  0  0  0  0  0  0  0  0
    0.4850   12.4120   -0.1100 C   0  0  1  0  0  0  0  0  0  0  0  0
    1.9850   12.0790    0.1020 C   0  0  0  0  0  0  0  0  0  0  0  0
    2.8560   12.5370   -1.0640 C   0  0  0  0  0  0  0  0  0  0  0  0
    2.7190   14.0400   -1.2900 C   0  0  2  0  0  0  0  0  0  0  0  0
    3.2760   14.7280   -0.1650 O   0  0  0  0  0  0  0  0  0  0  0  0
    1.2490   14.4960   -1.5050 C   0  0  0  0  0  0  0  0  0  0  0  0
    0.7440   13.9930   -2.8800 C   0  0  0  0  0  0  0  0  0  0  0  0
    1.2360   16.0470   -1.5790 C   0  0  0  0  0  0  0  0  0  0  0  0
   -0.4380   11.8350    1.0480 C   0  0  1  0  0  0  0  0  0  0  0  0
    0.2630   12.0200    2.4290 C   0  0  0  0  0  0  0  0  0  0  0  0
   -0.6110   10.2840    0.8430 C   0  0  0  0  0  0  0  0  0  0  0  0
   -1.7690    9.8280   -0.0650 C   0  0  0  0  0  0  0  0  0  0  0  0
   -3.0790   10.5160    0.3300 C   0  0  2  0  0  0  0  0  0  0  0  0
   -3.4310   10.0720    1.7910 C   0  0  0  0  0  0  0  0  0  0  0  0
   -3.6697    7.2473    0.0074 H   0  0  0  0  0  0  0  0  0  0  0  0
   -4.6664    7.0494   -1.4738 H   0  0  0  0  0  0  0  0  0  0  0  0
   -3.2730    8.1829   -1.4738 H   0  0  0  0  0  0  0  0  0  0  0  0
   -5.2315    8.7222    0.6635 H   0  0  0  0  0  0  0  0  0  0  0  0
   -7.1234    9.3203   -0.4915 H   0  0  0  0  0  0  0  0  0  0  0  0
   -6.2080    9.5067   -2.0634 H   0  0  0  0  0  0  0  0  0  0  0  0
   -7.2895    7.6014   -2.5980 H   0  0  0  0  0  0  0  0  0  0  0  0
   -5.9261    6.8601   -1.6605 H   0  0  0  0  0  0  0  0  0  0  0  0
   -7.1327    7.1492    0.2012 H   0  0  0  0  0  0  0  0  0  0  0  0
  -10.5950    8.4499   -1.6507 H   0  0  0  0  0  0  0  0  0  0  0  0
   -9.1130    8.1302   -2.6140 H   0  0  0  0  0  0  0  0  0  0  0  0
  -10.4583    6.9400   -2.6140 H   0  0  0  0  0  0  0  0  0  0  0  0
   -9.5608    6.9216    1.2848 H   0  0  0  0  0  0  0  0  0  0  0  0
  -10.9639    7.5550    0.3592 H   0  0  0  0  0  0  0  0  0  0  0  0
  -10.6089    5.7941    0.3592 H   0  0  0  0  0  0  0  0  0  0  0  0
   -3.9968   10.1517   -1.6189 H   0  0  0  0  0  0  0  0  0  0  0  0
   -5.6893   11.8198   -1.1900 H   0  0  0  0  0  0  0  0  0  0  0  0
   -6.0609   11.1425    0.4103 H   0  0  0  0  0  0  0  0  0  0  0  0
   -4.5395   13.5124   -0.0778 H   0  0  0  0  0  0  0  0  0  0  0  0
   -4.5739   12.6618    1.4641 H   0  0  0  0  0  0  0  0  0  0  0  0
   -1.9583   13.4083   -1.3095 H   0  0  0  0  0  0  0  0  0  0  0  0
   -2.0665   11.6986   -1.8500 H   0  0  0  0  0  0  0  0  0  0  0  0
   -3.5336   12.7352   -1.8500 H   0  0  0  0  0  0  0  0  0  0  0  0
   -2.2666   12.3282    2.1163 H   0  0  0  0  0  0  0  0  0  0  0  0
   -2.6024   14.5805    0.9126 H   0  0  0  0  0  0  0  0  0  0  0  0
   -1.2792   14.3628    2.1739 H   0  0  0  0  0  0  0  0  0  0  0  0
   -0.6219   15.7250    0.0156 H   0  0  0  0  0  0  0  0  0  0  0  0
    0.1080   11.8856   -0.9993 H   0  0  0  0  0  0  0  0  0  0  0  0
    2.3312   12.5791    1.0186 H   0  0  0  0  0  0  0  0  0  0  0  0
    2.0769   10.9855    0.1783 H   0  0  0  0  0  0  0  0  0  0  0  0
    3.9072   12.3007   -0.8426 H   0  0  0  0  0  0  0  0  0  0  0  0
    2.5275   12.0138   -1.9742 H   0  0  0  0  0  0  0  0  0  0  0  0
    3.2619   14.2851   -2.2148 H   0  0  0  0  0  0  0  0  0  0  0  0
    3.2790   14.1100    0.5860 H   0  0  0  0  0  0  0  0  0  0  0  0
   -0.0279   13.2242   -2.7282 H   0  0  0  0  0  0  0  0  0  0  0  0
    0.3168   14.8351   -3.4442 H   0  0  0  0  0  0  0  0  0  0  0  0
    1.5844   13.5625   -3.4442 H   0  0  0  0  0  0  0  0  0  0  0  0
    1.2325   16.4627   -0.5606 H   0  0  0  0  0  0  0  0  0  0  0  0
    2.1313   16.3961   -2.1144 H   0  0  0  0  0  0  0  0  0  0  0  0
    0.3350   16.3810   -2.1144 H   0  0  0  0  0  0  0  0  0  0  0  0
   -0.4601   11.8292    3.2357 H   0  0  0  0  0  0  0  0  0  0  0  0
    1.1009   11.3122    2.5126 H   0  0  0  0  0  0  0  0  0  0  0  0
    0.6425   13.0491    2.5126 H   0  0  0  0  0  0  0  0  0  0  0  0
    0.3236    9.8995    0.4087 H   0  0  0  0  0  0  0  0  0  0  0  0
   -0.8537    9.8873    1.8399 H   0  0  0  0  0  0  0  0  0  0  0  0
   -1.5296   10.0817   -1.1082 H   0  0  0  0  0  0  0  0  0  0  0  0
   -1.8959    8.7412    0.0476 H   0  0  0  0  0  0  0  0  0  0  0  0
   -2.9127   10.7258    2.5078 H   0  0  0  0  0  0  0  0  0  0  0  0
   -4.5175   10.1472    1.9454 H   0  0  0  0  0  0  0  0  0  0  0  0
   -3.1099    9.0313    1.9454 H   0  0  0  0  0  0  0  0  0  0  0  0
  1  2  1  0
  2  3  1  0
  3  4  1  0
  4  5  1  0
  5  6  1  0
  6  7  1  0
  7  8  1  0
  7  9  1  0
  2 10  1  0
 10 11  1  0
 11 12  1  0
 12 13  1  0
 13 14  1  6
 13 15  1  0
 15 16  1  0
 16 17  1  0
 17 18  2  0
 18 19  1  0
 19 20  1  0
 20 21  1  0
 21 22  1  0
 22 23  1  0
 22 24  1  0
 24 25  1  0
 24 26  1  0
 19 27  1  0
 27 28  1  1
 27 29  1  0
 29 30  1  0
 30 31  1  0
 31 32  1  1
  7  5  1  0
 31 10  1  0
 31 13  1  0
 27 15  1  0
 24 18  1  0
  1 33  1  0
  1 34  1  0
  1 35  1  0
  2 36  1  1
  3 37  1  0
  3 38  1  0
  4 39  1  0
  4 40  1  0
  5 41  1  1
  8 42  1  0
  8 43  1  0
  8 44  1  0
  9 45  1  0
  9 46  1  0
  9 47  1  0
 10 48  1  6
 11 49  1  0
 11 50  1  0
 12 51  1  0
 12 52  1  0
 14 53  1  0
 14 54  1  0
 14 55  1  0
 15 56  1  1
 16 57  1  0
 16 58  1  0
 17 59  1  0
 19 60  1  6
 20 61  1  0
 20 62  1  0
 21 63  1  0
 21 64  1  0
 22 65  1  6
 23 66  1  0
 25 67  1  0
 25 68  1  0
 25 69  1  0
 26 70  1  0
 26 71  1  0
 26 72  1  0
 28 73  1  0
 28 74  1  0
 28 75  1  0
 29 76  1  0
 29 77  1  0
 30 78  1  0
 30 79  1  0
 32 80  1  0
 32 81  1  0
 32 82  1  0
M  END
>  <meeko>  (7) 
{"is_sidechain": [false], "intermolecular_energy": 2.731, "internal_energy": -0.839}

$$$$
EPH_relaxed_0001_pdb2pqr_Repair_348_r2_0001_out
     RDKit          3D

 82 86  0  0  0  0  0  0  0  0999 V2000
   -3.9500    7.7200   -0.7870 C   0  0  0  0  0  0  0  0  0  0  0  0
   -4.8400    8.8300   -0.2210 C   0  0  2  0  0  0  0  0  0  0  0  0
   -6.2510    8.8170   -0.8430 C   0  0  0  0  0  0  0  0  0  0  0  0
   -6.9780    7.4780   -0.6900 C   0  0  0  0  0  0  0  0  0  0  0  0
   -7.2870    6.8600   -2.0200 C   0  0  2  0  0  0  0  0  0  0  0  0
   -7.7250    7.7860   -3.0230 O   0  0  0  0  0  0  0  0  0  0  0  0
   -8.6840    6.7990   -2.6100 C   0  0  0  0  0  0  0  0  0  0  0  0
   -9.8640    7.3640   -1.8820 C   0  0  0  0  0  0  0  0  0  0  0  0
   -8.9750    5.7670   -3.6540 C   0  0  0  0  0  0  0  0  0  0  0  0
   -4.1850   10.1870   -0.4470 C   0  0  1  0  0  0  0  0  0  0  0  0
   -5.1620   11.3700   -0.2100 C   0  0  0  0  0  0  0  0  0  0  0  0
   -4.3260   12.5250    0.4000 C   0  0  0  0  0  0  0  0  0  0  0  0
   -2.8550   12.0970    0.1870 C   0  0  1  0  0  0  0  0  0  0  0  0
   -2.5370   12.4790   -1.2920 C   0  0  0  0  0  0  0  0  0  0  0  0
   -1.8090   12.7030    1.1780 C   0  0  2  0  0  0  0  0  0  0  0  0
   -1.6740   14.2350    1.1270 C   0  0  0  0  0  0  0  0  0  0  0  0
   -0.6510   14.7540    0.1720 C   0  0  0  0  0  0  0  0  0  0  0  0
    0.3220   14.0240   -0.4050 C   0  0  0  0  0  0  0  0  0  0  0  0
    0.5250   12.5490   -0.0340 C   0  0  1  0  0  0  0  0  0  0  0  0
    2.0320   12.2800    0.2120 C   0  0  0  0  0  0  0  0  0  0  0  0
    2.9040   12.7110   -0.9630 C   0  0  0  0  0  0  0  0  0  0  0  0
    2.7180   14.1960   -1.2640 C   0  0  2  0  0  0  0  0  0  0  0  0
    3.2350   14.9560   -0.1670 O   0  0  0  0  0  0  0  0  0  0  0  0
    1.2360   14.5890   -1.5200 C   0  0  0  0  0  0  0  0  0  0  0  0
    0.7690   14.0020   -2.8750 C   0  0  0  0  0  0  0  0  0  0  0  0
    1.1700   16.1330   -1.6700 C   0  0  0  0  0  0  0  0  0  0  0  0
   -0.3940   11.9970    1.1390 C   0  0  1  0  0  0  0  0  0  0  0  0
    0.2800   12.2730    2.5180 C   0  0  0  0  0  0  0  0  0  0  0  0
   -0.5100   10.4320    1.0080 C   0  0  0  0  0  0  0  0  0  0  0  0
   -1.6390    9.8920    0.1090 C   0  0  0  0  0  0  0  0  0  0  0  0
   -2.9770   10.5520    0.4530 C   0  0  2  0  0  0  0  0  0  0  0  0
   -3.3350   10.1670    1.9290 C   0  0  0  0  0  0  0  0  0  0  0  0
   -3.4971    7.1551    0.0411 H   0  0  0  0  0  0  0  0  0  0  0  0
   -4.5575    7.0419   -1.4044 H   0  0  0  0  0  0  0  0  0  0  0  0
   -3.1561    8.1656   -1.4044 H   0  0  0  0  0  0  0  0  0  0  0  0
   -4.9525    8.6459    0.8576 H   0  0  0  0  0  0  0  0  0  0  0  0
   -6.8533    9.5971   -0.3544 H   0  0  0  0  0  0  0  0  0  0  0  0
   -6.1289    8.9955   -1.9215 H   0  0  0  0  0  0  0  0  0  0  0  0
   -6.3400    6.7894   -0.1165 H   0  0  0  0  0  0  0  0  0  0  0  0
   -7.9287    7.6616   -0.1680 H   0  0  0  0  0  0  0  0  0  0  0  0
   -6.5160    6.0903   -1.8681 H   0  0  0  0  0  0  0  0  0  0  0  0
   -9.6982    7.2846   -0.7975 H   0  0  0  0  0  0  0  0  0  0  0  0
   -9.9925    8.4213   -2.1568 H   0  0  0  0  0  0  0  0  0  0  0  0
  -10.7683    6.8012   -2.1568 H   0  0  0  0  0  0  0  0  0  0  0  0
   -9.2426    4.8178   -3.1667 H   0  0  0  0  0  0  0  0  0  0  0  0
   -9.8126    6.1061   -4.2813 H   0  0  0  0  0  0  0  0  0  0  0  0
   -8.0837    5.6186   -4.2813 H   0  0  0  0  0  0  0  0  0  0  0  0
   -3.8544   10.0607   -1.4885 H   0  0  0  0  0  0  0  0  0  0  0  0
   -5.6095   11.6885   -1.1630 H   0  0  0  0  0  0  0  0  0  0  0  0
   -5.9812   11.0770    0.4631 H   0  0  0  0  0  0  0  0  0  0  0  0
   -4.5341   13.4717   -0.1201 H   0  0  0  0  0  0  0  0  0  0  0  0
   -4.5614   12.6950    1.4610 H   0  0  0  0  0  0  0  0  0  0  0  0
   -1.8333   13.3243   -1.3092 H   0  0  0  0  0  0  0  0  0  0  0  0
   -2.0865   11.6164   -1.8048 H   0  0  0  0  0  0  0  0  0  0  0  0
   -3.4670   12.7656   -1.8048 H   0  0  0  0  0  0  0  0  0  0  0  0
   -2.2526   12.4740    2.1582 H   0  0  0  0  0  0  0  0  0  0  0  0
   -2.6501   14.6527    0.8395 H   0  0  0  0  0  0  0  0  0  0  0  0
   -1.3398   14.5443    2.1283 H   0  0  0  0  0  0  0  0  0  0  0  0
   -0.6959   15.8234   -0.0818 H   0  0  0  0  0  0  0  0  0  0  0  0
    0.1792   11.9664   -0.9006 H   0  0  0  0  0  0  0  0  0  0  0  0
    2.3475   12.8356    1.1074 H   0  0  0  0  0  0  0  0  0  0  0  0
    2.1601   11.1952    0.3418 H   0  0  0  0  0  0  0  0  0  0  0  0
    3.9593   12.5231   -0.7162 H   0  0  0  0  0  0  0  0  0  0  0  0
    2.6080   12.1329   -1.8508 H   0  0  0  0  0  0  0  0  0  0  0  0
    3.2648   14.4156   -2.1929 H   0  0  0  0  0  0  0  0  0  0  0  0
    2.4960   15.1380    0.4380 H   0  0  0  0  0  0  0  0  0  0  0  0
    0.0935   13.1530   -2.6935 H   0  0  0  0  0  0  0  0  0  0  0  0
    0.2380   14.7772   -3.4469 H   0  0  0  0  0  0  0  0  0  0  0  0
    1.6437   13.6589   -3.4469 H   0  0  0  0  0  0  0  0  0  0  0  0
    1.1501   16.5977   -0.6732 H   0  0  0  0  0  0  0  0  0  0  0  0
    2.0539   16.4859   -2.2215 H   0  0  0  0  0  0  0  0  0  0  0  0
    0.2592   16.4092   -2.2215 H   0  0  0  0  0  0  0  0  0  0  0  0
   -0.4102   11.9904    3.3266 H   0  0  0  0  0  0  0  0  0  0  0  0
    1.2031   11.6805    2.6001 H   0  0  0  0  0  0  0  0  0  0  0  0
    0.5224   13.3428    2.6001 H   0  0  0  0  0  0  0  0  0  0  0  0
    0.4434   10.0602    0.6045 H   0  0  0  0  0  0  0  0  0  0  0  0
   -0.7524   10.0756    2.0200 H   0  0  0  0  0  0  0  0  0  0  0  0
   -1.3937   10.1027   -0.9424 H   0  0  0  0  0  0  0  0  0  0  0  0
   -1.7301    8.8082    0.2735 H   0  0  0  0  0  0  0  0  0  0  0  0
   -2.7535   10.7924    2.6224 H   0  0  0  0  0  0  0  0  0  0  0  0
   -4.4091   10.3308    2.1004 H   0  0  0  0  0  0  0  0  0  0  0  0
   -3.0937    9.1076    2.1004 H   0  0  0  0  0  0  0  0  0  0  0  0
  1  2  1  0
  2  3  1  0
  3  4  1  0
  4  5  1  0
  5  6  1  0
  6  7  1  0
  7  8  1  0
  7  9  1  0
  2 10  1  0
 10 11  1  0
 11 12  1  0
 12 13  1  0
 13 14  1  6
 13 15  1  0
 15 16  1  0
 16 17  1  0
 17 18  2  0
 18 19  1  0
 19 20  1  0
 20 21  1  0
 21 22  1  0
 22 23  1  0
 22 24  1  0
 24 25  1  0
 24 26  1  0
 19 27  1  0
 27 28  1  1
 27 29  1  0
 29 30  1  0
 30 31  1  0
 31 32  1  1
  7  5  1  0
 31 10  1  0
 31 13  1  0
 27 15  1  0
 24 18  1  0
  1 33  1  0
  1 34  1  0
  1 35  1  0
  2 36  1  1
  3 37  1  0
  3 38  1  0
  4 39  1  0
  4 40  1  0
  5 41  1  6
  8 42  1  0
  8 43  1  0
  8 44  1  0
  9 45  1  0
  9 46  1  0
  9 47  1  0
 10 48  1  6
 11 49  1  0
 11 50  1  0
 12 51  1  0
 12 52  1  0
 14 53  1  0
 14 54  1  0
 14 55  1  0
 15 56  1  1
 16 57  1  0
 16 58  1  0
 17 59  1  0
 19 60  1  6
 20 61  1  0
 20 62  1  0
 21 63  1  0
 21 64  1  0
 22 65  1  6
 23 66  1  0
 25 67  1  0
 25 68  1  0
 25 69  1  0
 26 70  1  0
 26 71  1  0
 26 72  1  0
 28 73  1  0
 28 74  1  0
 28 75  1  0
 29 76  1  0
 29 77  1  0
 30 78  1  0
 30 79  1  0
 32 80  1  0
 32 81  1  0
 32 82  1  0
M  END
>  <meeko>  (8) 
{"is_sidechain": [false], "intermolecular_energy": 2.731, "internal_energy": -0.839}

$$$$
EPH_relaxed_0001_pdb2pqr_Repair_348_r2_0001_out
     RDKit          3D

 82 86  0  0  0  0  0  0  0  0999 V2000
    2.2620   17.9230   -2.5020 C   0  0  0  0  0  0  0  0  0  0  0  0
    0.7440   17.8090   -2.6590 C   0  0  2  0  0  0  0  0  0  0  0  0
   -0.0090   18.3250   -1.4160 C   0  0  0  0  0  0  0  0  0  0  0  0
    0.6500   17.9330   -0.0910 C   0  0  0  0  0  0  0  0  0  0  0  0
    1.2170   19.1250    0.6200 C   0  0  2  0  0  0  0  0  0  0  0  0
    2.1380   19.9020   -0.1560 O   0  0  0  0  0  0  0  0  0  0  0  0
    2.6800   19.2510    1.0050 C   0  0  0  0  0  0  0  0  0  0  0  0
    3.6660   18.1700    0.6910 C   0  0  0  0  0  0  0  0  0  0  0  0
    3.0510   20.1940    2.1060 C   0  0  0  0  0  0  0  0  0  0  0  0
    0.3570   16.3620   -2.9380 C   0  0  1  0  0  0  0  0  0  0  0  0
    0.4150   16.0090   -4.4480 C   0  0  0  0  0  0  0  0  0  0  0  0
    0.8870   14.5350   -4.5460 C   0  0  0  0  0  0  0  0  0  0  0  0
    0.7650   13.9910   -3.1030 C   0  0  1  0  0  0  0  0  0  0  0  0
   -0.7440   13.6280   -2.9370 C   0  0  0  0  0  0  0  0  0  0  0  0
    1.6920   12.7850   -2.7390 C   0  0  2  0  0  0  0  0  0  0  0  0
    1.4440   11.5030   -3.5520 C   0  0  0  0  0  0  0  0  0  0  0  0
    0.4520   10.5550   -2.9630 C   0  0  0  0  0  0  0  0  0  0  0  0
   -0.0020   10.5860   -1.6960 C   0  0  0  0  0  0  0  0  0  0  0  0
    0.5630   11.5880   -0.6810 C   0  0  1  0  0  0  0  0  0  0  0  0
    0.8770   10.8550    0.6500 C   0  0  0  0  0  0  0  0  0  0  0  0
   -0.3250   10.0890    1.1930 C   0  0  0  0  0  0  0  0  0  0  0  0
   -0.8220    9.0620    0.1780 C   0  0  2  0  0  0  0  0  0  0  0  0
    0.1770    8.0500    0.0210 O   0  0  0  0  0  0  0  0  0  0  0  0
   -1.1600    9.6830   -1.2060 C   0  0  0  0  0  0  0  0  0  0  0  0
   -2.4370   10.5520   -1.0880 C   0  0  0  0  0  0  0  0  0  0  0  0
   -1.5120    8.5230   -2.1760 C   0  0  0  0  0  0  0  0  0  0  0  0
    1.7780   12.4780   -1.1890 C   0  0  1  0  0  0  0  0  0  0  0  0
    3.1230   11.7250   -0.9580 C   0  0  0  0  0  0  0  0  0  0  0  0
    1.8490   13.7910   -0.3220 C   0  0  0  0  0  0  0  0  0  0  0  0
    1.0040   14.9870   -0.8010 C   0  0  0  0  0  0  0  0  0  0  0  0
    1.2280   15.2550   -2.2920 C   0  0  2  0  0  0  0  0  0  0  0  0
    2.7330   15.6440   -2.4870 C   0  0  0  0  0  0  0  0  0  0  0  0
    2.5196   17.9423   -1.4328 H   0  0  0  0  0  0  0  0  0  0  0  0
    2.7460   17.0587   -2.9802 H   0  0  0  0  0  0  0  0  0  0  0  0
    2.6115   18.8499   -2.9802 H   0  0  0  0  0  0  0  0  0  0  0  0
    0.4514   18.4426   -3.5093 H   0  0  0  0  0  0  0  0  0  0  0  0
   -0.0560   19.4227   -1.4692 H   0  0  0  0  0  0  0  0  0  0  0  0
   -1.0064   17.8613   -1.4287 H   0  0  0  0  0  0  0  0  0  0  0  0
   -0.1029   17.4575    0.5548 H   0  0  0  0  0  0  0  0  0  0  0  0
    1.4754   17.2397   -0.3103 H   0  0  0  0  0  0  0  0  0  0  0  0
    0.2887   19.2534    1.1960 H   0  0  0  0  0  0  0  0  0  0  0  0
    4.0542   17.7444    1.6281 H   0  0  0  0  0  0  0  0  0  0  0  0
    3.1707   17.3803    0.1071 H   0  0  0  0  0  0  0  0  0  0  0  0
    4.4978   18.5908    0.1071 H   0  0  0  0  0  0  0  0  0  0  0  0
    2.8625   19.7150    3.0781 H   0  0  0  0  0  0  0  0  0  0  0  0
    4.1174   20.4513    2.0246 H   0  0  0  0  0  0  0  0  0  0  0  0
    2.4458   21.1089    2.0246 H   0  0  0  0  0  0  0  0  0  0  0  0
   -0.6509   16.3527   -2.4974 H   0  0  0  0  0  0  0  0  0  0  0  0
   -0.5814   16.1184   -4.9010 H   0  0  0  0  0  0  0  0  0  0  0  0
    1.1025   16.6799   -4.9840 H   0  0  0  0  0  0  0  0  0  0  0  0
    0.2426   13.9654   -5.2318 H   0  0  0  0  0  0  0  0  0  0  0  0
    1.9106   14.4494   -4.9395 H   0  0  0  0  0  0  0  0  0  0  0  0
   -0.9912   13.5685   -1.8668 H   0  0  0  0  0  0  0  0  0  0  0  0
   -1.3622   14.4031   -3.4136 H   0  0  0  0  0  0  0  0  0  0  0  0
   -0.9420   12.6566   -3.4136 H   0  0  0  0  0  0  0  0  0  0  0  0
    2.6832   13.1483   -3.0482 H   0  0  0  0  0  0  0  0  0  0  0  0
    1.0826   11.7972   -4.5484 H   0  0  0  0  0  0  0  0  0  0  0  0
    2.4035   10.9654   -3.5718 H   0  0  0  0  0  0  0  0  0  0  0  0
    0.0591    9.7648   -3.6196 H   0  0  0  0  0  0  0  0  0  0  0  0
   -0.2276   12.3352   -0.5180 H   0  0  0  0  0  0  0  0  0  0  0  0
    1.6987   10.1446    0.4761 H   0  0  0  0  0  0  0  0  0  0  0  0
    1.1516   11.6170    1.3943 H   0  0  0  0  0  0  0  0  0  0  0  0
   -0.0329    9.5692    2.1174 H   0  0  0  0  0  0  0  0  0  0  0  0
   -1.1358   10.8048    1.3938 H   0  0  0  0  0  0  0  0  0  0  0  0
   -1.7591    8.6381    0.5681 H   0  0  0  0  0  0  0  0  0  0  0  0
    0.3260    7.6450    0.8920 H   0  0  0  0  0  0  0  0  0  0  0  0
   -2.6739   10.7132   -0.0260 H   0  0  0  0  0  0  0  0  0  0  0  0
   -2.2666   11.5224   -1.5771 H   0  0  0  0  0  0  0  0  0  0  0  0
   -3.2772   10.0374   -1.5771 H   0  0  0  0  0  0  0  0  0  0  0  0
   -1.7833    7.6290   -1.5953 H   0  0  0  0  0  0  0  0  0  0  0  0
   -2.3605    8.8199   -2.8100 H   0  0  0  0  0  0  0  0  0  0  0  0
   -0.6416    8.2983   -2.8100 H   0  0  0  0  0  0  0  0  0  0  0  0
    3.3053   11.6229    0.1220 H   0  0  0  0  0  0  0  0  0  0  0  0
    3.0677   10.7266   -1.4165 H   0  0  0  0  0  0  0  0  0  0  0  0
    3.9452   12.2940   -1.4165 H   0  0  0  0  0  0  0  0  0  0  0  0
    1.5179   13.5361    0.6955 H   0  0  0  0  0  0  0  0  0  0  0  0
    2.8933   14.1286   -0.3963 H   0  0  0  0  0  0  0  0  0  0  0  0
   -0.0602   14.7666   -0.6310 H   0  0  0  0  0  0  0  0  0  0  0  0
    1.3078   15.8799   -0.2349 H   0  0  0  0  0  0  0  0  0  0  0  0
    3.2102   15.7673   -1.5036 H   0  0  0  0  0  0  0  0  0  0  0  0
    3.2475   14.8493   -3.0472 H   0  0  0  0  0  0  0  0  0  0  0  0
    2.7980   16.5885   -3.0472 H   0  0  0  0  0  0  0  0  0  0  0  0
  1  2  1  0
  2  3  1  0
  3  4  1  0
  4  5  1  0
  5  6  1  0
  6  7  1  0
  7  8  1  0
  7  9  1  0
  2 10  1  0
 10 11  1  0
 11 12  1  0
 12 13  1  0
 13 14  1  1
 13 15  1  0
 15 16  1  0
 16 17  1  0
 17 18  2  0
 18 19  1  0
 19 20  1  0
 20 21  1  0
 21 22  1  0
 22 23  1  0
 22 24  1  0
 24 25  1  0
 24 26  1  0
 19 27  1  0
 27 28  1  6
 27 29  1  0
 29 30  1  0
 30 31  1  0
 31 32  1  1
  7  5  1  0
 31 10  1  0
 31 13  1  0
 27 15  1  0
 24 18  1  0
  1 33  1  0
  1 34  1  0
  1 35  1  0
  2 36  1  6
  3 37  1  0
  3 38  1  0
  4 39  1  0
  4 40  1  0
  5 41  1  1
  8 42  1  0
  8 43  1  0
  8 44  1  0
  9 45  1  0
  9 46  1  0
  9 47  1  0
 10 48  1  1
 11 49  1  0
 11 50  1  0
 12 51  1  0
 12 52  1  0
 14 53  1  0
 14 54  1  0
 14 55  1  0
 15 56  1  6
 16 57  1  0
 16 58  1  0
 17 59  1  0
 19 60  1  1
 20 61  1  0
 20 62  1  0
 21 63  1  0
 21 64  1  0
 22 65  1  1
 23 66  1  0
 25 67  1  0
 25 68  1  0
 25 69  1  0
 26 70  1  0
 26 71  1  0
 26 72  1  0
 28 73  1  0
 28 74  1  0
 28 75  1  0
 29 76  1  0
 29 77  1  0
 30 78  1  0
 30 79  1  0
 32 80  1  0
 32 81  1  0
 32 82  1  0
M  END
>  <meeko>  (9) 
{"is_sidechain": [false], "intermolecular_energy": 2.731, "internal_energy": -0.839}

$$$$
EPH_relaxed_0001_pdb2pqr_Repair_348_r2_0001_out
     RDKit          3D

 82 86  0  0  0  0  0  0  0  0999 V2000
   -4.9950    7.3200   -1.0830 C   0  0  0  0  0  0  0  0  0  0  0  0
   -5.7760    8.6160   -0.8480 C   0  0  2  0  0  0  0  0  0  0  0  0
   -6.8210    8.8730   -1.9520 C   0  0  0  0  0  0  0  0  0  0  0  0
   -7.8640    7.7610   -2.0840 C   0  0  0  0  0  0  0  0  0  0  0  0
   -8.3810    7.3250   -0.7460 C   0  0  2  0  0  0  0  0  0  0  0  0
   -9.1090    6.0900   -0.7590 O   0  0  0  0  0  0  0  0  0  0  0  0
   -9.8570    7.2620   -0.4000 C   0  0  0  0  0  0  0  0  0  0  0  0
  -10.9090    7.6410   -1.3950 C   0  0  0  0  0  0  0  0  0  0  0  0
  -10.2560    7.3040    1.0420 C   0  0  0  0  0  0  0  0  0  0  0  0
   -4.8130    9.7940   -0.7560 C   0  0  1  0  0  0  0  0  0  0  0  0
   -5.2030   10.7990    0.3600 C   0  0  0  0  0  0  0  0  0  0  0  0
   -3.8780   11.3500    0.9480 C   0  0  0  0  0  0  0  0  0  0  0  0
   -2.7900   10.9050   -0.0570 C   0  0  1  0  0  0  0  0  0  0  0  0
   -2.8590   11.9520   -1.2130 C   0  0  0  0  0  0  0  0  0  0  0  0
   -1.3400   10.7670    0.5110 C   0  0  2  0  0  0  0  0  0  0  0  0
   -0.7220   12.0700    1.0460 C   0  0  0  0  0  0  0  0  0  0  0  0
    0.0470   12.8680    0.0460 C   0  0  0  0  0  0  0  0  0  0  0  0
    0.4760   12.4210   -1.1490 C   0  0  0  0  0  0  0  0  0  0  0  0
    0.2790   10.9560   -1.5590 C   0  0  1  0  0  0  0  0  0  0  0  0
    1.6020   10.4020   -2.1510 C   0  0  0  0  0  0  0  0  0  0  0  0
    2.1360   11.2600   -3.2930 C   0  0  0  0  0  0  0  0  0  0  0  0
    2.3740   12.6960   -2.8320 C   0  0  2  0  0  0  0  0  0  0  0  0
    3.4420   12.7030   -1.8790 O   0  0  0  0  0  0  0  0  0  0  0  0
    1.1130   13.3560   -2.2080 C   0  0  0  0  0  0  0  0  0  0  0  0
    0.0630   13.6220   -3.3150 C   0  0  0  0  0  0  0  0  0  0  0  0
    1.5250   14.7470   -1.6560 C   0  0  0  0  0  0  0  0  0  0  0  0
   -0.3390   10.0030   -0.4480 C   0  0  1  0  0  0  0  0  0  0  0  0
    0.7970    9.4340    0.4570 C   0  0  0  0  0  0  0  0  0  0  0  0
   -1.0100    8.7630   -1.1490 C   0  0  0  0  0  0  0  0  0  0  0  0
   -2.4810    8.9210   -1.5800 C   0  0  0  0  0  0  0  0  0  0  0  0
   -3.3310    9.4770   -0.4330 C   0  0  2  0  0  0  0  0  0  0  0  0
   -3.2990    8.4350    0.7360 C   0  0  0  0  0  0  0  0  0  0  0  0
   -4.7258    6.8734   -0.1145 H   0  0  0  0  0  0  0  0  0  0  0  0
   -5.6183    6.6143   -1.6517 H   0  0  0  0  0  0  0  0  0  0  0  0
   -4.0798    7.5414   -1.6517 H   0  0  0  0  0  0  0  0  0  0  0  0
   -6.3204    8.5067    0.1015 H   0  0  0  0  0  0  0  0  0  0  0  0
   -7.3435    9.8136   -1.7232 H   0  0  0  0  0  0  0  0  0  0  0  0
   -6.2757    8.9166   -2.9063 H   0  0  0  0  0  0  0  0  0  0  0  0
   -8.7055    8.1312   -2.6881 H   0  0  0  0  0  0  0  0  0  0  0  0
   -7.3843    6.8959   -2.5651 H   0  0  0  0  0  0  0  0  0  0  0  0
   -7.5226    7.7877   -0.2370 H   0  0  0  0  0  0  0  0  0  0  0  0
  -11.8153    7.9675   -0.8640 H   0  0  0  0  0  0  0  0  0  0  0  0
  -10.5380    8.4620   -2.0261 H   0  0  0  0  0  0  0  0  0  0  0  0
  -11.1468    6.7720   -2.0261 H   0  0  0  0  0  0  0  0  0  0  0  0
   -9.3601    7.2097    1.6732 H   0  0  0  0  0  0  0  0  0  0  0  0
  -10.7565    8.2598    1.2563 H   0  0  0  0  0  0  0  0  0  0  0  0
  -10.9446    6.4734    1.2563 H   0  0  0  0  0  0  0  0  0  0  0  0
   -4.8996   10.1836   -1.7810 H   0  0  0  0  0  0  0  0  0  0  0  0
   -5.8009   11.6204   -0.0618 H   0  0  0  0  0  0  0  0  0  0  0  0
   -5.8077   10.3104    1.1382 H   0  0  0  0  0  0  0  0  0  0  0  0
   -3.9127   12.4469    1.0222 H   0  0  0  0  0  0  0  0  0  0  0  0
   -3.6852   10.9757    1.9642 H   0  0  0  0  0  0  0  0  0  0  0  0
   -2.9257   12.9642   -0.7875 H   0  0  0  0  0  0  0  0  0  0  0  0
   -1.9538   11.8738   -1.8330 H   0  0  0  0  0  0  0  0  0  0  0  0
   -3.7462   11.7557   -1.8330 H   0  0  0  0  0  0  0  0  0  0  0  0
   -1.4912   10.1254    1.3916 H   0  0  0  0  0  0  0  0  0  0  0  0
   -1.5376   12.7007    1.4296 H   0  0  0  0  0  0  0  0  0  0  0  0
    0.0022   11.7693    1.8174 H   0  0  0  0  0  0  0  0  0  0  0  0
    0.2832   13.9099    0.3079 H   0  0  0  0  0  0  0  0  0  0  0  0
   -0.5035   10.9584   -2.3321 H   0  0  0  0  0  0  0  0  0  0  0  0
    2.3581   10.3670   -1.3528 H   0  0  0  0  0  0  0  0  0  0  0  0
    1.3934    9.4004   -2.5551 H   0  0  0  0  0  0  0  0  0  0  0  0
    3.0856   10.8343   -3.6494 H   0  0  0  0  0  0  0  0  0  0  0  0
    1.3911   11.2701   -4.1023 H   0  0  0  0  0  0  0  0  0  0  0  0
    2.6311   13.2898   -3.7216 H   0  0  0  0  0  0  0  0  0  0  0  0
    3.0830   12.3860   -1.0330 H   0  0  0  0  0  0  0  0  0  0  0  0
   -0.9042   13.8670   -2.8518 H   0  0  0  0  0  0  0  0  0  0  0  0
    0.3943   14.4646   -3.9397 H   0  0  0  0  0  0  0  0  0  0  0  0
   -0.0469   12.7233   -3.9397 H   0  0  0  0  0  0  0  0  0  0  0  0
    1.5176   14.7220   -0.5563 H   0  0  0  0  0  0  0  0  0  0  0  0
    2.5359   14.9973   -2.0103 H   0  0  0  0  0  0  0  0  0  0  0  0
    0.8135   15.5075   -2.0103 H   0  0  0  0  0  0  0  0  0  0  0  0
    0.5260    9.5697    1.5144 H   0  0  0  0  0  0  0  0  0  0  0  0
    0.9308    8.3625    0.2474 H   0  0  0  0  0  0  0  0  0  0  0  0
    1.7352    9.9686    0.2474 H   0  0  0  0  0  0  0  0  0  0  0  0
   -0.4223    8.5314   -2.0496 H   0  0  0  0  0  0  0  0  0  0  0  0
   -1.0168    7.9700   -0.3867 H   0  0  0  0  0  0  0  0  0  0  0  0
   -2.5335    9.6116   -2.4346 H   0  0  0  0  0  0  0  0  0  0  0  0
   -2.8729    7.9321   -1.8600 H   0  0  0  0  0  0  0  0  0  0  0  0
   -3.3153    8.9647    1.6999 H   0  0  0  0  0  0  0  0  0  0  0  0
   -4.1774    7.7767    0.6645 H   0  0  0  0  0  0  0  0  0  0  0  0
   -2.3819    7.8318    0.6645 H   0  0  0  0  0  0  0  0  0  0  0  0
  1  2  1  0
  2  3  1  0
  3  4  1  0
  4  5  1  0
  5  6  1  0
  6  7  1  0
  7  8  1  0
  7  9  1  0
  2 10  1  0
 10 11  1  0
 11 12  1  0
 12 13  1  0
 13 14  1  6
 13 15  1  0
 15 16  1  0
 16 17  1  0
 17 18  2  0
 18 19  1  0
 19 20  1  0
 20 21  1  0
 21 22  1  0
 22 23  1  0
 22 24  1  0
 24 25  1  0
 24 26  1  0
 19 27  1  0
 27 28  1  1
 27 29  1  0
 29 30  1  0
 30 31  1  0
 31 32  1  1
  7  5  1  0
 31 10  1  0
 31 13  1  0
 27 15  1  0
 24 18  1  0
  1 33  1  0
  1 34  1  0
  1 35  1  0
  2 36  1  1
  3 37  1  0
  3 38  1  0
  4 39  1  0
  4 40  1  0
  5 41  1  1
  8 42  1  0
  8 43  1  0
  8 44  1  0
  9 45  1  0
  9 46  1  0
  9 47  1  0
 10 48  1  6
 11 49  1  0
 11 50  1  0
 12 51  1  0
 12 52  1  0
 14 53  1  0
 14 54  1  0
 14 55  1  0
 15 56  1  1
 16 57  1  0
 16 58  1  0
 17 59  1  0
 19 60  1  6
 20 61  1  0
 20 62  1  0
 21 63  1  0
 21 64  1  0
 22 65  1  6
 23 66  1  0
 25 67  1  0
 25 68  1  0
 25 69  1  0
 26 70  1  0
 26 71  1  0
 26 72  1  0
 28 73  1  0
 28 74  1  0
 28 75  1  0
 29 76  1  0
 29 77  1  0
 30 78  1  0
 30 79  1  0
 32 80  1  0
 32 81  1  0
 32 82  1  0
M  END
>  <meeko>  (10) 
{"is_sidechain": [false], "intermolecular_energy": 2.731, "internal_energy": -0.839}

$$$$
EPH_relaxed_0001_pdb2pqr_Repair_348_r2_0001_out
     RDKit          3D

 82 86  0  0  0  0  0  0  0  0999 V2000
    3.1940   12.2960   -4.4950 C   0  0  0  0  0  0  0  0  0  0  0  0
    1.7950   12.7440   -4.9260 C   0  0  2  0  0  0  0  0  0  0  0  0
    1.6580   14.2800   -4.9450 C   0  0  0  0  0  0  0  0  0  0  0  0
    0.6130   14.8170   -3.9640 C   0  0  0  0  0  0  0  0  0  0  0  0
    0.7340   16.2990   -3.7810 C   0  0  2  0  0  0  0  0  0  0  0  0
    1.9630   16.7300   -3.1810 O   0  0  0  0  0  0  0  0  0  0  0  0
    0.7680   16.9740   -2.4220 C   0  0  0  0  0  0  0  0  0  0  0  0
    0.6790   16.1830   -1.1550 C   0  0  0  0  0  0  0  0  0  0  0  0
    0.3960   18.4210   -2.3330 C   0  0  0  0  0  0  0  0  0  0  0  0
    0.7470   12.1390   -4.0000 C   0  0  1  0  0  0  0  0  0  0  0  0
    0.3110   10.7160   -4.4400 C   0  0  0  0  0  0  0  0  0  0  0  0
    0.0340    9.9120   -3.1440 C   0  0  0  0  0  0  0  0  0  0  0  0
   -0.0050   10.9790   -2.0240 C   0  0  1  0  0  0  0  0  0  0  0  0
   -1.4390   11.5900   -2.1020 C   0  0  0  0  0  0  0  0  0  0  0  0
    0.3320   10.4790   -0.5820 C   0  0  2  0  0  0  0  0  0  0  0  0
   -0.6370    9.4280   -0.0120 C   0  0  0  0  0  0  0  0  0  0  0  0
   -1.7960    9.9780    0.7520 C   0  0  0  0  0  0  0  0  0  0  0  0
   -1.9000   11.2370    1.2160 C   0  0  0  0  0  0  0  0  0  0  0  0
   -0.7390   12.2290    1.0700 C   0  0  1  0  0  0  0  0  0  0  0  0
   -0.5090   12.9600    2.4190 C   0  0  0  0  0  0  0  0  0  0  0  0
   -1.7780   13.6200    2.9500 C   0  0  0  0  0  0  0  0  0  0  0  0
   -2.8910   12.5920    3.1370 C   0  0  2  0  0  0  0  0  0  0  0  0
   -2.5170   11.6940    4.1860 O   0  0  0  0  0  0  0  0  0  0  0  0
   -3.2040   11.7860    1.8460 C   0  0  0  0  0  0  0  0  0  0  0  0
   -3.8920   12.7100    0.8100 C   0  0  0  0  0  0  0  0  0  0  0  0
   -4.2420   10.6900    2.2070 C   0  0  0  0  0  0  0  0  0  0  0  0
    0.6040   11.6390    0.4590 C   0  0  1  0  0  0  0  0  0  0  0  0
    1.4790   11.0230    1.5940 C   0  0  0  0  0  0  0  0  0  0  0  0
    1.4460   12.8150   -0.1620 C   0  0  0  0  0  0  0  0  0  0  0  0
    1.1500   13.1830   -1.6280 C   0  0  0  0  0  0  0  0  0  0  0  0
    1.1420   11.9350   -2.5160 C   0  0  2  0  0  0  0  0  0  0  0  0
    2.5790   11.3100   -2.4750 C   0  0  0  0  0  0  0  0  0  0  0  0
    3.2510   12.2777   -3.3966 H   0  0  0  0  0  0  0  0  0  0  0  0
    3.3942   11.2888   -4.8893 H   0  0  0  0  0  0  0  0  0  0  0  0
    3.9420   12.9995   -4.8893 H   0  0  0  0  0  0  0  0  0  0  0  0
    1.6342   12.3852   -5.9533 H   0  0  0  0  0  0  0  0  0  0  0  0
    2.6334   14.7188   -4.6879 H   0  0  0  0  0  0  0  0  0  0  0  0
    1.3246   14.5604   -5.9550 H   0  0  0  0  0  0  0  0  0  0  0  0
   -0.3906   14.5864   -4.3508 H   0  0  0  0  0  0  0  0  0  0  0  0
    0.7798   14.3365   -2.9886 H   0  0  0  0  0  0  0  0  0  0  0  0
    0.1302   16.4834   -4.6818 H   0  0  0  0  0  0  0  0  0  0  0  0
    0.7554   16.8618   -0.2928 H   0  0  0  0  0  0  0  0  0  0  0  0
   -0.2844   15.6533   -1.1204 H   0  0  0  0  0  0  0  0  0  0  0  0
    1.5006   15.4524   -1.1204 H   0  0  0  0  0  0  0  0  0  0  0  0
    0.3202   18.7158   -1.2759 H   0  0  0  0  0  0  0  0  0  0  0  0
    1.1670   19.0290   -2.8288 H   0  0  0  0  0  0  0  0  0  0  0  0
   -0.5727   18.5817   -2.8288 H   0  0  0  0  0  0  0  0  0  0  0  0
   -0.0349   12.9087   -4.0788 H   0  0  0  0  0  0  0  0  0  0  0  0
   -0.6005   10.7718   -5.0532 H   0  0  0  0  0  0  0  0  0  0  0  0
    1.0926   10.2330   -5.0448 H   0  0  0  0  0  0  0  0  0  0  0  0
   -0.9292    9.3851   -3.2122 H   0  0  0  0  0  0  0  0  0  0  0  0
    0.7971    9.1414   -2.9598 H   0  0  0  0  0  0  0  0  0  0  0  0
   -1.8236   11.7539   -1.0845 H   0  0  0  0  0  0  0  0  0  0  0  0
   -1.4000   12.5497   -2.6382 H   0  0  0  0  0  0  0  0  0  0  0  0
   -2.1041   10.8971   -2.6382 H   0  0  0  0  0  0  0  0  0  0  0  0
    1.2869    9.9540   -0.7320 H   0  0  0  0  0  0  0  0  0  0  0  0
   -1.0326    8.8389   -0.8526 H   0  0  0  0  0  0  0  0  0  0  0  0
   -0.0534    8.8333    0.7061 H   0  0  0  0  0  0  0  0  0  0  0  0
   -2.6359    9.2965    0.9525 H   0  0  0  0  0  0  0  0  0  0  0  0
   -1.0519   12.9523    0.3026 H   0  0  0  0  0  0  0  0  0  0  0  0
   -0.1550   12.2287    3.1606 H   0  0  0  0  0  0  0  0  0  0  0  0
    0.2333   13.7533    2.2468 H   0  0  0  0  0  0  0  0  0  0  0  0
   -1.5592   14.0937    3.9184 H   0  0  0  0  0  0  0  0  0  0  0  0
   -2.1138   14.3720    2.2208 H   0  0  0  0  0  0  0  0  0  0  0  0
   -3.8086   13.1421    3.3930 H   0  0  0  0  0  0  0  0  0  0  0  0
   -2.7650   10.7960    3.9070 H   0  0  0  0  0  0  0  0  0  0  0  0
   -4.4690   13.4849    1.3360 H   0  0  0  0  0  0  0  0  0  0  0  0
   -3.1274   13.1870    0.1793 H   0  0  0  0  0  0  0  0  0  0  0  0
   -4.5681   12.1142    0.1793 H   0  0  0  0  0  0  0  0  0  0  0  0
   -4.3213   10.6062    3.3009 H   0  0  0  0  0  0  0  0  0  0  0  0
   -5.2223   10.9611    1.7880 H   0  0  0  0  0  0  0  0  0  0  0  0
   -3.9180    9.7259    1.7880 H   0  0  0  0  0  0  0  0  0  0  0  0
    1.0676   11.3126    2.5722 H   0  0  0  0  0  0  0  0  0  0  0  0
    1.4762    9.9266    1.5051 H   0  0  0  0  0  0  0  0  0  0  0  0
    2.5102   11.3954    1.5051 H   0  0  0  0  0  0  0  0  0  0  0  0
    1.2659   13.7118    0.4490 H   0  0  0  0  0  0  0  0  0  0  0  0
    2.4859   12.4565   -0.1598 H   0  0  0  0  0  0  0  0  0  0  0  0
    0.1659   13.6712   -1.6847 H   0  0  0  0  0  0  0  0  0  0  0  0
    1.9382   13.8622   -1.9850 H   0  0  0  0  0  0  0  0  0  0  0  0
    2.8902   11.1746   -1.4287 H   0  0  0  0  0  0  0  0  0  0  0  0
    2.5693   10.3348   -2.9838 H   0  0  0  0  0  0  0  0  0  0  0  0
    3.2858   11.9820   -2.9838 H   0  0  0  0  0  0  0  0  0  0  0  0
  1  2  1  0
  2  3  1  0
  3  4  1  0
  4  5  1  0
  5  6  1  0
  6  7  1  0
  7  8  1  0
  7  9  1  0
  2 10  1  0
 10 11  1  0
 11 12  1  0
 12 13  1  0
 13 14  1  1
 13 15  1  0
 15 16  1  0
 16 17  1  0
 17 18  2  0
 18 19  1  0
 19 20  1  0
 20 21  1  0
 21 22  1  0
 22 23  1  0
 22 24  1  0
 24 25  1  0
 24 26  1  0
 19 27  1  0
 27 28  1  1
 27 29  1  0
 29 30  1  0
 30 31  1  0
 31 32  1  6
  7  5  1  0
 31 10  1  0
 31 13  1  0
 27 15  1  0
 24 18  1  0
  1 33  1  0
  1 34  1  0
  1 35  1  0
  2 36  1  6
  3 37  1  0
  3 38  1  0
  4 39  1  0
  4 40  1  0
  5 41  1  6
  8 42  1  0
  8 43  1  0
  8 44  1  0
  9 45  1  0
  9 46  1  0
  9 47  1  0
 10 48  1  1
 11 49  1  0
 11 50  1  0
 12 51  1  0
 12 52  1  0
 14 53  1  0
 14 54  1  0
 14 55  1  0
 15 56  1  6
 16 57  1  0
 16 58  1  0
 17 59  1  0
 19 60  1  6
 20 61  1  0
 20 62  1  0
 21 63  1  0
 21 64  1  0
 22 65  1  1
 23 66  1  0
 25 67  1  0
 25 68  1  0
 25 69  1  0
 26 70  1  0
 26 71  1  0
 26 72  1  0
 28 73  1  0
 28 74  1  0
 28 75  1  0
 29 76  1  0
 29 77  1  0
 30 78  1  0
 30 79  1  0
 32 80  1  0
 32 81  1  0
 32 82  1  0
M  END
>  <meeko>  (11) 
{"is_sidechain": [false], "intermolecular_energy": 2.731, "internal_energy": -0.839}

$$$$
EPH_relaxed_0001_pdb2pqr_Repair_348_r2_0001_out
     RDKit          3D

 82 86  0  0  0  0  0  0  0  0999 V2000
    3.1960   17.5080   -1.0860 C   0  0  0  0  0  0  0  0  0  0  0  0
    1.6730   17.6510   -1.1470 C   0  0  2  0  0  0  0  0  0  0  0  0
    1.0660   17.9910    0.2290 C   0  0  0  0  0  0  0  0  0  0  0  0
    0.5020   19.4110    0.3190 C   0  0  0  0  0  0  0  0  0  0  0  0
   -0.9890   19.4070    0.4670 C   0  0  2  0  0  0  0  0  0  0  0  0
   -1.6620   18.3850   -0.2790 O   0  0  0  0  0  0  0  0  0  0  0  0
   -1.9430   19.7400   -0.6660 C   0  0  0  0  0  0  0  0  0  0  0  0
   -1.4400   20.1010   -2.0280 C   0  0  0  0  0  0  0  0  0  0  0  0
   -3.3300   20.1890   -0.3250 C   0  0  0  0  0  0  0  0  0  0  0  0
    1.0520   16.3680   -1.6880 C   0  0  1  0  0  0  0  0  0  0  0  0
    0.9450   16.3620   -3.2360 C   0  0  0  0  0  0  0  0  0  0  0  0
    1.1800   14.9000   -3.6950 C   0  0  0  0  0  0  0  0  0  0  0  0
    1.0840   14.0640   -2.3980 C   0  0  1  0  0  0  0  0  0  0  0  0
   -0.4470   13.8750   -2.1560 C   0  0  0  0  0  0  0  0  0  0  0  0
    1.8410   12.6960   -2.4000 C   0  0  2  0  0  0  0  0  0  0  0  0
    1.3430   11.6760   -3.4390 C   0  0  0  0  0  0  0  0  0  0  0  0
    0.2640   10.7580   -2.9650 C   0  0  0  0  0  0  0  0  0  0  0  0
   -0.0850   10.5590   -1.6800 C   0  0  0  0  0  0  0  0  0  0  0  0
    0.6990   11.2220   -0.5400 C   0  0  1  0  0  0  0  0  0  0  0  0
    0.9950   10.1710    0.5630 C   0  0  0  0  0  0  0  0  0  0  0  0
   -0.2660    9.4660    1.0530 C   0  0  0  0  0  0  0  0  0  0  0  0
   -0.9860    8.7710   -0.0990 C   0  0  2  0  0  0  0  0  0  0  0  0
   -0.1660    7.6990   -0.5750 O   0  0  0  0  0  0  0  0  0  0  0  0
   -1.3270    9.7290   -1.2750 C   0  0  0  0  0  0  0  0  0  0  0  0
   -2.4460   10.7080   -0.8400 C   0  0  0  0  0  0  0  0  0  0  0  0
   -1.9220    8.8760   -2.4280 C   0  0  0  0  0  0  0  0  0  0  0  0
    1.9930   12.0370   -0.9700 C   0  0  1  0  0  0  0  0  0  0  0  0
    3.2220   11.0810   -1.0490 C   0  0  0  0  0  0  0  0  0  0  0  0
    2.3270   13.0980    0.1450 C   0  0  0  0  0  0  0  0  0  0  0  0
    1.6390   14.4710    0.0260 C   0  0  0  0  0  0  0  0  0  0  0  0
    1.7910   15.0390   -1.3890 C   0  0  2  0  0  0  0  0  0  0  0  0
    3.3190   15.2610   -1.6530 C   0  0  0  0  0  0  0  0  0  0  0  0
    3.5196   17.4776   -0.0351 H   0  0  0  0  0  0  0  0  0  0  0  0
    3.4974   16.5776   -1.5895 H   0  0  0  0  0  0  0  0  0  0  0  0
    3.6653   18.3660   -1.5895 H   0  0  0  0  0  0  0  0  0  0  0  0
    1.4459   18.4881   -1.8235 H   0  0  0  0  0  0  0  0  0  0  0  0
    0.2519   17.2804    0.4346 H   0  0  0  0  0  0  0  0  0  0  0  0
    1.8801   17.9213    0.9655 H   0  0  0  0  0  0  0  0  0  0  0  0
    0.9453   19.9161    1.1899 H   0  0  0  0  0  0  0  0  0  0  0  0
    0.7526   19.9391   -0.6129 H   0  0  0  0  0  0  0  0  0  0  0  0
   -0.9112   19.7783    1.4995 H   0  0  0  0  0  0  0  0  0  0  0  0
   -0.5497   20.7400   -1.9326 H   0  0  0  0  0  0  0  0  0  0  0  0
   -1.1766   19.1846   -2.5764 H   0  0  0  0  0  0  0  0  0  0  0  0
   -2.2239   20.6439   -2.5764 H   0  0  0  0  0  0  0  0  0  0  0  0
   -3.4449   20.2262    0.7683 H   0  0  0  0  0  0  0  0  0  0  0  0
   -3.5054   21.1898   -0.7464 H   0  0  0  0  0  0  0  0  0  0  0  0
   -4.0587   19.4808   -0.7464 H   0  0  0  0  0  0  0  0  0  0  0  0
    0.0891   16.3915   -1.1567 H   0  0  0  0  0  0  0  0  0  0  0  0
   -0.0539   16.7010   -3.5480 H   0  0  0  0  0  0  0  0  0  0  0  0
    1.6846   17.0408   -3.6856 H   0  0  0  0  0  0  0  0  0  0  0  0
    0.4081   14.5901   -4.4148 H   0  0  0  0  0  0  0  0  0  0  0  0
    2.1474   14.7725   -4.2029 H   0  0  0  0  0  0  0  0  0  0  0  0
   -0.6470   13.8503   -1.0746 H   0  0  0  0  0  0  0  0  0  0  0  0
   -0.9963   14.7122   -2.6115 H   0  0  0  0  0  0  0  0  0  0  0  0
   -0.7762   12.9294   -2.6115 H   0  0  0  0  0  0  0  0  0  0  0  0
    2.8506   12.9861   -2.7264 H   0  0  0  0  0  0  0  0  0  0  0  0
    0.9585   12.2337   -4.3057 H   0  0  0  0  0  0  0  0  0  0  0  0
    2.2057   11.0357   -3.6749 H   0  0  0  0  0  0  0  0  0  0  0  0
   -0.2924   10.1973   -3.7305 H   0  0  0  0  0  0  0  0  0  0  0  0
    0.0453   12.0106   -0.1392 H   0  0  0  0  0  0  0  0  0  0  0  0
    1.6848    9.4171    0.1557 H   0  0  0  0  0  0  0  0  0  0  0  0
    1.4353   10.7016    1.4201 H   0  0  0  0  0  0  0  0  0  0  0  0
    0.0115    8.7162    1.8085 H   0  0  0  0  0  0  0  0  0  0  0  0
   -0.9420   10.2177    1.4865 H   0  0  0  0  0  0  0  0  0  0  0  0
   -1.9447    8.3963    0.2890 H   0  0  0  0  0  0  0  0  0  0  0  0
   -0.7370    6.9200   -0.6890 H   0  0  0  0  0  0  0  0  0  0  0  0
   -2.4917   10.7480    0.2583 H   0  0  0  0  0  0  0  0  0  0  0  0
   -2.2291   11.7116   -1.2347 H   0  0  0  0  0  0  0  0  0  0  0  0
   -3.4118   10.3596   -1.2347 H   0  0  0  0  0  0  0  0  0  0  0  0
   -2.5031    8.0430   -2.0056 H   0  0  0  0  0  0  0  0  0  0  0  0
   -2.5789    9.5042   -3.0476 H   0  0  0  0  0  0  0  0  0  0  0  0
   -1.1056    8.4765   -3.0476 H   0  0  0  0  0  0  0  0  0  0  0  0
    3.5525   10.8239   -0.0318 H   0  0  0  0  0  0  0  0  0  0  0  0
    2.9389   10.1634   -1.5855 H   0  0  0  0  0  0  0  0  0  0  0  0
    4.0418   11.5812   -1.5855 H   0  0  0  0  0  0  0  0  0  0  0  0
    2.0388   12.6643    1.1140 H   0  0  0  0  0  0  0  0  0  0  0  0
    3.4017   13.3041    0.0333 H   0  0  0  0  0  0  0  0  0  0  0  0
    0.5692   14.3587    0.2558 H   0  0  0  0  0  0  0  0  0  0  0  0
    2.1141   15.1644    0.7355 H   0  0  0  0  0  0  0  0  0  0  0  0
    3.8496   15.3381   -0.6925 H   0  0  0  0  0  0  0  0  0  0  0  0
    3.7193   14.4116   -2.2259 H   0  0  0  0  0  0  0  0  0  0  0  0
    3.4611   16.1892   -2.2259 H   0  0  0  0  0  0  0  0  0  0  0  0
  1  2  1  0
  2  3  1  0
  3  4  1  0
  4  5  1  0
  5  6  1  0
  6  7  1  0
  7  8  1  0
  7  9  1  0
  2 10  1  0
 10 11  1  0
 11 12  1  0
 12 13  1  0
 13 14  1  1
 13 15  1  0
 15 16  1  0
 16 17  1  0
 17 18  2  0
 18 19  1  0
 19 20  1  0
 20 21  1  0
 21 22  1  0
 22 23  1  0
 22 24  1  0
 24 25  1  0
 24 26  1  0
 19 27  1  0
 27 28  1  6
 27 29  1  0
 29 30  1  0
 30 31  1  0
 31 32  1  6
  7  5  1  0
 31 10  1  0
 31 13  1  0
 27 15  1  0
 24 18  1  0
  1 33  1  0
  1 34  1  0
  1 35  1  0
  2 36  1  6
  3 37  1  0
  3 38  1  0
  4 39  1  0
  4 40  1  0
  5 41  1  1
  8 42  1  0
  8 43  1  0
  8 44  1  0
  9 45  1  0
  9 46  1  0
  9 47  1  0
 10 48  1  1
 11 49  1  0
 11 50  1  0
 12 51  1  0
 12 52  1  0
 14 53  1  0
 14 54  1  0
 14 55  1  0
 15 56  1  6
 16 57  1  0
 16 58  1  0
 17 59  1  0
 19 60  1  1
 20 61  1  0
 20 62  1  0
 21 63  1  0
 21 64  1  0
 22 65  1  1
 23 66  1  0
 25 67  1  0
 25 68  1  0
 25 69  1  0
 26 70  1  0
 26 71  1  0
 26 72  1  0
 28 73  1  0
 28 74  1  0
 28 75  1  0
 29 76  1  0
 29 77  1  0
 30 78  1  0
 30 79  1  0
 32 80  1  0
 32 81  1  0
 32 82  1  0
M  END
>  <meeko>  (12) 
{"is_sidechain": [false], "intermolecular_energy": 2.731, "internal_energy": -0.839}

$$$$
EPH_relaxed_0001_pdb2pqr_Repair_348_r2_0001_out
     RDKit          3D

 82 86  0  0  0  0  0  0  0  0999 V2000
   -4.5630   11.4510    0.0040 C   0  0  0  0  0  0  0  0  0  0  0  0
   -3.2140   10.8560   -0.4100 C   0  0  2  0  0  0  0  0  0  0  0  0
   -2.9860    9.4570    0.1980 C   0  0  0  0  0  0  0  0  0  0  0  0
   -2.7830    8.3570   -0.8470 C   0  0  0  0  0  0  0  0  0  0  0  0
   -1.6290    8.6590   -1.7540 C   0  0  2  0  0  0  0  0  0  0  0  0
   -0.9150    7.5060   -2.2190 O   0  0  0  0  0  0  0  0  0  0  0  0
   -0.1810    8.4090   -1.3760 C   0  0  0  0  0  0  0  0  0  0  0  0
    0.1900    7.8330   -0.0450 C   0  0  0  0  0  0  0  0  0  0  0  0
    0.8880    9.1700   -2.0960 C   0  0  0  0  0  0  0  0  0  0  0  0
   -2.0850   11.7930   -0.0000 C   0  0  1  0  0  0  0  0  0  0  0  0
   -1.1670   11.1810    1.0910 C   0  0  0  0  0  0  0  0  0  0  0  0
    0.2700   11.6860    0.8010 C   0  0  0  0  0  0  0  0  0  0  0  0
    0.0830   12.8230   -0.2300 C   0  0  1  0  0  0  0  0  0  0  0  0
   -0.3200   14.0710    0.6170 C   0  0  0  0  0  0  0  0  0  0  0  0
    1.3070   13.1250   -1.1550 C   0  0  2  0  0  0  0  0  0  0  0  0
    2.5740   13.6040   -0.4260 C   0  0  0  0  0  0  0  0  0  0  0  0
    2.6940   15.0820   -0.2580 C   0  0  0  0  0  0  0  0  0  0  0  0
    1.9700   16.0050   -0.9190 C   0  0  0  0  0  0  0  0  0  0  0  0
    0.9830   15.5930   -2.0190 C   0  0  1  0  0  0  0  0  0  0  0  0
    1.1760   16.5070   -3.2570 C   0  0  0  0  0  0  0  0  0  0  0  0
    1.0790   17.9890   -2.9120 C   0  0  0  0  0  0  0  0  0  0  0  0
    2.1150   18.3730   -1.8580 C   0  0  2  0  0  0  0  0  0  0  0  0
    3.4210   18.2470   -2.4290 O   0  0  0  0  0  0  0  0  0  0  0  0
    2.0230   17.5120   -0.5670 C   0  0  0  0  0  0  0  0  0  0  0  0
    0.7340   17.8750    0.2100 C   0  0  0  0  0  0  0  0  0  0  0  0
    3.2100   17.9050    0.3540 C   0  0  0  0  0  0  0  0  0  0  0  0
    0.9700   14.0490   -2.3950 C   0  0  1  0  0  0  0  0  0  0  0  0
    2.0540   13.7560   -3.4770 C   0  0  0  0  0  0  0  0  0  0  0  0
   -0.4170   13.6910   -3.0490 C   0  0  0  0  0  0  0  0  0  0  0  0
   -1.5530   13.2850   -2.0900 C   0  0  0  0  0  0  0  0  0  0  0  0
   -1.0790   12.2180   -1.0990 C   0  0  2  0  0  0  0  0  0  0  0  0
   -0.6870   10.9430   -1.9200 C   0  0  0  0  0  0  0  0  0  0  0  0
   -4.6295   11.4803    1.1016 H   0  0  0  0  0  0  0  0  0  0  0  0
   -4.6518   12.4718   -0.3961 H   0  0  0  0  0  0  0  0  0  0  0  0
   -5.3767   10.8283   -0.3961 H   0  0  0  0  0  0  0  0  0  0  0  0
   -3.2234   10.7429   -1.5041 H   0  0  0  0  0  0  0  0  0  0  0  0
   -2.0918    9.4978    0.8373 H   0  0  0  0  0  0  0  0  0  0  0  0
   -3.8945    9.2001    0.7625 H   0  0  0  0  0  0  0  0  0  0  0  0
   -2.5902    7.4055   -0.3299 H   0  0  0  0  0  0  0  0  0  0  0  0
   -3.6939    8.2952   -1.4606 H   0  0  0  0  0  0  0  0  0  0  0  0
   -2.1449    9.5440   -2.1548 H   0  0  0  0  0  0  0  0  0  0  0  0
   -0.2184    8.4671    0.7557 H   0  0  0  0  0  0  0  0  0  0  0  0
   -0.2245    6.8180    0.0437 H   0  0  0  0  0  0  0  0  0  0  0  0
    1.2856    7.7907    0.0437 H   0  0  0  0  0  0  0  0  0  0  0  0
    1.5563    9.6457   -1.3632 H   0  0  0  0  0  0  0  0  0  0  0  0
    1.4675    8.4801   -2.7270 H   0  0  0  0  0  0  0  0  0  0  0  0
    0.4258    9.9434   -2.7270 H   0  0  0  0  0  0  0  0  0  0  0  0
   -2.6758   12.6620    0.3254 H   0  0  0  0  0  0  0  0  0  0  0  0
   -1.4910   11.5127    2.0885 H   0  0  0  0  0  0  0  0  0  0  0  0
   -1.2107   10.0820    1.0731 H   0  0  0  0  0  0  0  0  0  0  0  0
    0.7402   12.0678    1.7192 H   0  0  0  0  0  0  0  0  0  0  0  0
    0.9255   10.8863    0.4259 H   0  0  0  0  0  0  0  0  0  0  0  0
   -0.2417   13.8287    1.6871 H   0  0  0  0  0  0  0  0  0  0  0  0
    0.3536   14.9078    0.3803 H   0  0  0  0  0  0  0  0  0  0  0  0
   -1.3558   14.3558    0.3803 H   0  0  0  0  0  0  0  0  0  0  0  0
    1.5509   12.1297   -1.5548 H   0  0  0  0  0  0  0  0  0  0  0  0
    2.5837   13.1466    0.5743 H   0  0  0  0  0  0  0  0  0  0  0  0
    3.4213   13.3004   -1.0583 H   0  0  0  0  0  0  0  0  0  0  0  0
    3.4362   15.4481    0.4666 H   0  0  0  0  0  0  0  0  0  0  0  0
   -0.0222   15.7435   -1.5983 H   0  0  0  0  0  0  0  0  0  0  0  0
    2.1682   16.3100   -3.6892 H   0  0  0  0  0  0  0  0  0  0  0  0
    0.3703   16.2773   -3.9698 H   0  0  0  0  0  0  0  0  0  0  0  0
    1.2537   18.5825   -3.8215 H   0  0  0  0  0  0  0  0  0  0  0  0
    0.0759   18.1905   -2.5080 H   0  0  0  0  0  0  0  0  0  0  0  0
    1.9116   19.4113   -1.5572 H   0  0  0  0  0  0  0  0  0  0  0  0
    3.3200   17.8450   -3.3080 H   0  0  0  0  0  0  0  0  0  0  0  0
    0.9297   17.8199    1.2910 H   0  0  0  0  0  0  0  0  0  0  0  0
    0.4217   18.8960   -0.0545 H   0  0  0  0  0  0  0  0  0  0  0  0
   -0.0652   17.1670   -0.0545 H   0  0  0  0  0  0  0  0  0  0  0  0
    2.9064   17.8045    1.4065 H   0  0  0  0  0  0  0  0  0  0  0  0
    4.0645   17.2418    0.1539 H   0  0  0  0  0  0  0  0  0  0  0  0
    3.4999   18.9471    0.1539 H   0  0  0  0  0  0  0  0  0  0  0  0
    3.0036   13.4993   -2.9846 H   0  0  0  0  0  0  0  0  0  0  0  0
    1.7272   12.9140   -4.1048 H   0  0  0  0  0  0  0  0  0  0  0  0
    2.1959   14.6480   -4.1048 H   0  0  0  0  0  0  0  0  0  0  0  0
   -0.7565   14.5724   -3.6129 H   0  0  0  0  0  0  0  0  0  0  0  0
   -0.2245   12.7980   -3.6617 H   0  0  0  0  0  0  0  0  0  0  0  0
   -1.8866   14.1720   -1.5314 H   0  0  0  0  0  0  0  0  0  0  0  0
   -2.3809   12.8695   -2.6832 H   0  0  0  0  0  0  0  0  0  0  0  0
   -0.4355   10.1249   -1.2290 H   0  0  0  0  0  0  0  0  0  0  0  0
   -1.5336   10.6404   -2.5538 H   0  0  0  0  0  0  0  0  0  0  0  0
    0.1834   11.1683   -2.5538 H   0  0  0  0  0  0  0  0  0  0  0  0
  1  2  1  0
  2  3  1  0
  3  4  1  0
  4  5  1  0
  5  6  1  0
  6  7  1  0
  7  8  1  0
  7  9  1  0
  2 10  1  0
 10 11  1  0
 11 12  1  0
 12 13  1  0
 13 14  1  1
 13 15  1  0
 15 16  1  0
 16 17  1  0
 17 18  2  0
 18 19  1  0
 19 20  1  0
 20 21  1  0
 21 22  1  0
 22 23  1  0
 22 24  1  0
 24 25  1  0
 24 26  1  0
 19 27  1  0
 27 28  1  6
 27 29  1  0
 29 30  1  0
 30 31  1  0
 31 32  1  6
  7  5  1  0
 31 10  1  0
 31 13  1  0
 27 15  1  0
 24 18  1  0
  1 33  1  0
  1 34  1  0
  1 35  1  0
  2 36  1  6
  3 37  1  0
  3 38  1  0
  4 39  1  0
  4 40  1  0
  5 41  1  6
  8 42  1  0
  8 43  1  0
  8 44  1  0
  9 45  1  0
  9 46  1  0
  9 47  1  0
 10 48  1  1
 11 49  1  0
 11 50  1  0
 12 51  1  0
 12 52  1  0
 14 53  1  0
 14 54  1  0
 14 55  1  0
 15 56  1  6
 16 57  1  0
 16 58  1  0
 17 59  1  0
 19 60  1  1
 20 61  1  0
 20 62  1  0
 21 63  1  0
 21 64  1  0
 22 65  1  1
 23 66  1  0
 25 67  1  0
 25 68  1  0
 25 69  1  0
 26 70  1  0
 26 71  1  0
 26 72  1  0
 28 73  1  0
 28 74  1  0
 28 75  1  0
 29 76  1  0
 29 77  1  0
 30 78  1  0
 30 79  1  0
 32 80  1  0
 32 81  1  0
 32 82  1  0
M  END
>  <meeko>  (13) 
{"is_sidechain": [false], "intermolecular_energy": 2.731, "internal_energy": -0.839}

$$$$
EPH_relaxed_0001_pdb2pqr_Repair_348_r2_0001_out
     RDKit          3D

 82 86  0  0  0  0  0  0  0  0999 V2000
   -3.8480   13.0210    1.2860 C   0  0  0  0  0  0  0  0  0  0  0  0
   -2.7440   13.7110    2.0910 C   0  0  2  0  0  0  0  0  0  0  0  0
   -2.8170   15.2470    1.9800 C   0  0  0  0  0  0  0  0  0  0  0  0
   -1.8380   15.8380    0.9630 C   0  0  0  0  0  0  0  0  0  0  0  0
   -1.6330   17.3070    1.1790 C   0  0  2  0  0  0  0  0  0  0  0  0
   -2.0560   18.1380    0.0900 O   0  0  0  0  0  0  0  0  0  0  0  0
   -0.6490   18.1410    0.3810 C   0  0  0  0  0  0  0  0  0  0  0  0
    0.1960   17.5340   -0.6950 C   0  0  0  0  0  0  0  0  0  0  0  0
   -0.1580   19.4270    0.9690 C   0  0  0  0  0  0  0  0  0  0  0  0
   -1.3780   13.2200    1.6270 C   0  0  1  0  0  0  0  0  0  0  0  0
   -0.5990   12.4760    2.7440 C   0  0  0  0  0  0  0  0  0  0  0  0
    0.2080   11.3480    2.0520 C   0  0  0  0  0  0  0  0  0  0  0  0
    0.1320   11.6830    0.5440 C   0  0  1  0  0  0  0  0  0  0  0  0
    1.2260   12.7750    0.3210 C   0  0  0  0  0  0  0  0  0  0  0  0
    0.3070   10.4820   -0.4410 C   0  0  2  0  0  0  0  0  0  0  0  0
    1.6710    9.7740   -0.3710 C   0  0  0  0  0  0  0  0  0  0  0  0
    2.7170   10.3140   -1.2890 C   0  0  0  0  0  0  0  0  0  0  0  0
    2.4940   11.1340   -2.3340 C   0  0  0  0  0  0  0  0  0  0  0  0
    1.0660   11.5210   -2.7390 C   0  0  1  0  0  0  0  0  0  0  0  0
    0.9070   11.3770   -4.2760 C   0  0  0  0  0  0  0  0  0  0  0  0
    1.9660   12.1580   -5.0490 C   0  0  0  0  0  0  0  0  0  0  0  0
    3.3700   11.7040   -4.6610 C   0  0  2  0  0  0  0  0  0  0  0  0
    3.5580   10.3560   -5.1040 O   0  0  0  0  0  0  0  0  0  0  0  0
    3.6430   11.7950   -3.1330 C   0  0  0  0  0  0  0  0  0  0  0  0
    3.7380   13.2810   -2.7090 C   0  0  0  0  0  0  0  0  0  0  0  0
    5.0410   11.1760   -2.8600 C   0  0  0  0  0  0  0  0  0  0  0  0
   -0.1020   10.8040   -1.9350 C   0  0  1  0  0  0  0  0  0  0  0  0
   -0.4500    9.4400   -2.6060 C   0  0  0  0  0  0  0  0  0  0  0  0
   -1.4030   11.6860   -2.0230 C   0  0  0  0  0  0  0  0  0  0  0  0
   -1.5760   12.7780   -0.9500 C   0  0  0  0  0  0  0  0  0  0  0  0
   -1.3460   12.2090    0.4540 C   0  0  2  0  0  0  0  0  0  0  0  0
   -2.4450   11.1240    0.7150 C   0  0  0  0  0  0  0  0  0  0  0  0
   -4.5750   12.5666    1.9753 H   0  0  0  0  0  0  0  0  0  0  0  0
   -4.3572   13.7619    0.6521 H   0  0  0  0  0  0  0  0  0  0  0  0
   -3.4052   12.2386    0.6521 H   0  0  0  0  0  0  0  0  0  0  0  0
   -2.8938   13.4492    3.1488 H   0  0  0  0  0  0  0  0  0  0  0  0
   -3.8383   15.5253    1.6810 H   0  0  0  0  0  0  0  0  0  0  0  0
   -2.5421   15.6537    2.9644 H   0  0  0  0  0  0  0  0  0  0  0  0
   -0.8699   15.3249    1.0605 H   0  0  0  0  0  0  0  0  0  0  0  0
   -2.2606   15.6952   -0.0425 H   0  0  0  0  0  0  0  0  0  0  0  0
   -1.7971   17.1940    2.2608 H   0  0  0  0  0  0  0  0  0  0  0  0
    1.0085   16.9503   -0.2377 H   0  0  0  0  0  0  0  0  0  0  0  0
   -0.4237   16.8733   -1.3190 H   0  0  0  0  0  0  0  0  0  0  0  0
    0.6242   18.3322   -1.3190 H   0  0  0  0  0  0  0  0  0  0  0  0
   -0.1830   19.3614    2.0668 H   0  0  0  0  0  0  0  0  0  0  0  0
    0.8740   19.6120    0.6362 H   0  0  0  0  0  0  0  0  0  0  0  0
   -0.8041   20.2527    0.6362 H   0  0  0  0  0  0  0  0  0  0  0  0
   -0.9365   14.1769    1.3116 H   0  0  0  0  0  0  0  0  0  0  0  0
    0.0833   13.1701    3.2565 H   0  0  0  0  0  0  0  0  0  0  0  0
   -1.2865   12.0642    3.4975 H   0  0  0  0  0  0  0  0  0  0  0  0
    1.2522   11.3491    2.3979 H   0  0  0  0  0  0  0  0  0  0  0  0
   -0.1930   10.3490    2.2782 H   0  0  0  0  0  0  0  0  0  0  0  0
    1.5877   13.1360    1.2951 H   0  0  0  0  0  0  0  0  0  0  0  0
    2.0650   12.3434   -0.2446 H   0  0  0  0  0  0  0  0  0  0  0  0
    0.7959   13.6147   -0.2446 H   0  0  0  0  0  0  0  0  0  0  0  0
   -0.4258    9.7556   -0.0596 H   0  0  0  0  0  0  0  0  0  0  0  0
    2.0460    9.8596    0.6595 H   0  0  0  0  0  0  0  0  0  0  0  0
    1.4923    8.7365   -0.6897 H   0  0  0  0  0  0  0  0  0  0  0  0
    3.7583   10.0170   -1.0956 H   0  0  0  0  0  0  0  0  0  0  0  0
    0.9424   12.5744   -2.4475 H   0  0  0  0  0  0  0  0  0  0  0  0
    0.9902   10.3127   -4.5410 H   0  0  0  0  0  0  0  0  0  0  0  0
   -0.0765   11.7865   -4.5500 H   0  0  0  0  0  0  0  0  0  0  0  0
    1.8194   11.9935   -6.1267 H   0  0  0  0  0  0  0  0  0  0  0  0
    1.8624   13.2256   -4.8053 H   0  0  0  0  0  0  0  0  0  0  0  0
    4.0832   12.3851   -5.1482 H   0  0  0  0  0  0  0  0  0  0  0  0
    4.4420   10.0720   -4.8150 H   0  0  0  0  0  0  0  0  0  0  0  0
    3.7424   13.3495   -1.6111 H   0  0  0  0  0  0  0  0  0  0  0  0
    4.6659   13.7174   -3.1073 H   0  0  0  0  0  0  0  0  0  0  0  0
    2.8732   13.8320   -3.1073 H   0  0  0  0  0  0  0  0  0  0  0  0
    5.2044   11.1037   -1.7746 H   0  0  0  0  0  0  0  0  0  0  0  0
    5.0908   10.1717   -3.3060 H   0  0  0  0  0  0  0  0  0  0  0  0
    5.8180   11.8142   -3.3060 H   0  0  0  0  0  0  0  0  0  0  0  0
   -0.6421    8.6869   -1.8276 H   0  0  0  0  0  0  0  0  0  0  0  0
   -1.3469    9.5575   -3.2319 H   0  0  0  0  0  0  0  0  0  0  0  0
    0.3936    9.1134   -3.2319 H   0  0  0  0  0  0  0  0  0  0  0  0
   -1.4033   12.1815   -3.0051 H   0  0  0  0  0  0  0  0  0  0  0  0
   -2.2363   10.9869   -1.8590 H   0  0  0  0  0  0  0  0  0  0  0  0
   -0.8496   13.5829   -1.1355 H   0  0  0  0  0  0  0  0  0  0  0  0
   -2.6037   13.1660   -1.0071 H   0  0  0  0  0  0  0  0  0  0  0  0
   -2.5793   10.9914    1.7987 H   0  0  0  0  0  0  0  0  0  0  0  0
   -3.3948   11.4484    0.2648 H   0  0  0  0  0  0  0  0  0  0  0  0
   -2.1328   10.1701    0.2648 H   0  0  0  0  0  0  0  0  0  0  0  0
  1  2  1  0
  2  3  1  0
  3  4  1  0
  4  5  1  0
  5  6  1  0
  6  7  1  0
  7  8  1  0
  7  9  1  0
  2 10  1  0
 10 11  1  0
 11 12  1  0
 12 13  1  0
 13 14  1  6
 13 15  1  0
 15 16  1  0
 16 17  1  0
 17 18  2  0
 18 19  1  0
 19 20  1  0
 20 21  1  0
 21 22  1  0
 22 23  1  0
 22 24  1  0
 24 25  1  0
 24 26  1  0
 19 27  1  0
 27 28  1  6
 27 29  1  0
 29 30  1  0
 30 31  1  0
 31 32  1  1
  7  5  1  0
 31 10  1  0
 31 13  1  0
 27 15  1  0
 24 18  1  0
  1 33  1  0
  1 34  1  0
  1 35  1  0
  2 36  1  1
  3 37  1  0
  3 38  1  0
  4 39  1  0
  4 40  1  0
  5 41  1  1
  8 42  1  0
  8 43  1  0
  8 44  1  0
  9 45  1  0
  9 46  1  0
  9 47  1  0
 10 48  1  6
 11 49  1  0
 11 50  1  0
 12 51  1  0
 12 52  1  0
 14 53  1  0
 14 54  1  0
 14 55  1  0
 15 56  1  1
 16 57  1  0
 16 58  1  0
 17 59  1  0
 19 60  1  6
 20 61  1  0
 20 62  1  0
 21 63  1  0
 21 64  1  0
 22 65  1  6
 23 66  1  0
 25 67  1  0
 25 68  1  0
 25 69  1  0
 26 70  1  0
 26 71  1  0
 26 72  1  0
 28 73  1  0
 28 74  1  0
 28 75  1  0
 29 76  1  0
 29 77  1  0
 30 78  1  0
 30 79  1  0
 32 80  1  0
 32 81  1  0
 32 82  1  0
M  END
>  <meeko>  (14) 
{"is_sidechain": [false], "intermolecular_energy": 2.731, "internal_energy": -0.839}

$$$$
EPH_relaxed_0001_pdb2pqr_Repair_348_r2_0001_out
     RDKit          3D

 82 86  0  0  0  0  0  0  0  0999 V2000
   -5.3290    5.7370   -1.8000 C   0  0  0  0  0  0  0  0  0  0  0  0
   -5.5600    7.2370   -2.0090 C   0  0  2  0  0  0  0  0  0  0  0  0
   -5.2280    8.0570   -0.7470 C   0  0  0  0  0  0  0  0  0  0  0  0
   -3.8370    8.6960   -0.7750 C   0  0  0  0  0  0  0  0  0  0  0  0
   -3.6880    9.7460    0.2840 C   0  0  2  0  0  0  0  0  0  0  0  0
   -3.9520   11.0840   -0.1590 O   0  0  0  0  0  0  0  0  0  0  0  0
   -2.6050   10.8090    0.2600 C   0  0  0  0  0  0  0  0  0  0  0  0
   -1.5980   10.8730   -0.8450 C   0  0  0  0  0  0  0  0  0  0  0  0
   -2.2270   11.4730    1.5470 C   0  0  0  0  0  0  0  0  0  0  0  0
   -7.0030    7.4870   -2.4290 C   0  0  1  0  0  0  0  0  0  0  0  0
   -7.3690    6.7790   -3.7610 C   0  0  0  0  0  0  0  0  0  0  0  0
   -8.8500    6.3380   -3.6420 C   0  0  0  0  0  0  0  0  0  0  0  0
   -9.3810    7.0890   -2.3980 C   0  0  1  0  0  0  0  0  0  0  0  0
   -9.7190    8.5240   -2.9090 C   0  0  0  0  0  0  0  0  0  0  0  0
  -10.5980    6.4360   -1.6650 C   0  0  2  0  0  0  0  0  0  0  0  0
  -11.8830    6.3250   -2.5040 C   0  0  0  0  0  0  0  0  0  0  0  0
  -12.8100    7.4910   -2.4090 C   0  0  0  0  0  0  0  0  0  0  0  0
  -12.7630    8.4530   -1.4680 C   0  0  0  0  0  0  0  0  0  0  0  0
  -11.7620    8.3720   -0.3080 C   0  0  1  0  0  0  0  0  0  0  0  0
  -12.4880    8.6860    1.0260 C   0  0  0  0  0  0  0  0  0  0  0  0
  -13.2320   10.0180    0.9880 C   0  0  0  0  0  0  0  0  0  0  0  0
  -14.2580   10.0380   -0.1410 C   0  0  2  0  0  0  0  0  0  0  0  0
  -15.2870    9.0880    0.1550 O   0  0  0  0  0  0  0  0  0  0  0  0
  -13.6440    9.7250   -1.5340 C   0  0  0  0  0  0  0  0  0  0  0  0
  -12.7540   10.9090   -1.9870 C   0  0  0  0  0  0  0  0  0  0  0  0
  -14.8060    9.6370   -2.5600 C   0  0  0  0  0  0  0  0  0  0  0  0
  -10.8940    7.0430   -0.2330 C   0  0  1  0  0  0  0  0  0  0  0  0
  -11.6660    5.9480    0.5640 C   0  0  0  0  0  0  0  0  0  0  0  0
   -9.5760    7.3350    0.5770 C   0  0  0  0  0  0  0  0  0  0  0  0
   -8.3710    7.8650   -0.2240 C   0  0  0  0  0  0  0  0  0  0  0  0
   -8.1180    7.0060   -1.4670 C   0  0  2  0  0  0  0  0  0  0  0  0
   -7.7540    5.5610   -0.9830 C   0  0  0  0  0  0  0  0  0  0  0  0
   -5.2952    5.5178   -0.7226 H   0  0  0  0  0  0  0  0  0  0  0  0
   -6.1506    5.1714   -2.2637 H   0  0  0  0  0  0  0  0  0  0  0  0
   -4.3753    5.4448   -2.2637 H   0  0  0  0  0  0  0  0  0  0  0  0
   -4.8786    7.5689   -2.8062 H   0  0  0  0  0  0  0  0  0  0  0  0
   -5.9757    8.8575   -0.6467 H   0  0  0  0  0  0  0  0  0  0  0  0
   -5.2433    7.3586    0.1027 H   0  0  0  0  0  0  0  0  0  0  0  0
   -3.0818    7.9134   -0.6099 H   0  0  0  0  0  0  0  0  0  0  0  0
   -3.6997    9.1757   -1.7553 H   0  0  0  0  0  0  0  0  0  0  0  0
   -4.0130    9.0410    1.0634 H   0  0  0  0  0  0  0  0  0  0  0  0
   -0.5870   10.9373   -0.4164 H   0  0  0  0  0  0  0  0  0  0  0  0
   -1.6764    9.9681   -1.4654 H   0  0  0  0  0  0  0  0  0  0  0  0
   -1.7904   11.7607   -1.4654 H   0  0  0  0  0  0  0  0  0  0  0  0
   -2.5756   10.8607    2.3917 H   0  0  0  0  0  0  0  0  0  0  0  0
   -1.1333   11.5788    1.5976 H   0  0  0  0  0  0  0  0  0  0  0  0
   -2.6943   12.4675    1.5976 H   0  0  0  0  0  0  0  0  0  0  0  0
   -6.9931    8.5860   -2.4745 H   0  0  0  0  0  0  0  0  0  0  0  0
   -7.2475    7.4740   -4.6050 H   0  0  0  0  0  0  0  0  0  0  0  0
   -6.7132    5.9145   -3.9414 H   0  0  0  0  0  0  0  0  0  0  0  0
   -9.4148    6.6269   -4.5406 H   0  0  0  0  0  0  0  0  0  0  0  0
   -8.9545    5.2471   -3.5473 H   0  0  0  0  0  0  0  0  0  0  0  0
   -9.8763    9.1918   -2.0492 H   0  0  0  0  0  0  0  0  0  0  0  0
   -8.8853    8.9018   -3.5190 H   0  0  0  0  0  0  0  0  0  0  0  0
  -10.6337    8.4900   -3.5190 H   0  0  0  0  0  0  0  0  0  0  0  0
  -10.2526    5.4032   -1.5097 H   0  0  0  0  0  0  0  0  0  0  0  0
  -11.5914    6.2078   -3.5582 H   0  0  0  0  0  0  0  0  0  0  0  0
  -12.4357    5.4636   -2.1010 H   0  0  0  0  0  0  0  0  0  0  0  0
  -13.5981    7.5712   -3.1722 H   0  0  0  0  0  0  0  0  0  0  0  0
  -11.0017    9.1413   -0.5083 H   0  0  0  0  0  0  0  0  0  0  0  0
  -13.2119    7.8835    1.2309 H   0  0  0  0  0  0  0  0  0  0  0  0
  -11.7238    8.7528    1.8143 H   0  0  0  0  0  0  0  0  0  0  0  0
  -13.7492   10.1688    1.9470 H   0  0  0  0  0  0  0  0  0  0  0  0
  -12.5025   10.8226    0.8134 H   0  0  0  0  0  0  0  0  0  0  0  0
  -14.6634   11.0589   -0.1997 H   0  0  0  0  0  0  0  0  0  0  0  0
  -16.1430    9.5310    0.0240 H   0  0  0  0  0  0  0  0  0  0  0  0
  -12.3611   11.4317   -1.1025 H   0  0  0  0  0  0  0  0  0  0  0  0
  -11.9165   10.5284   -2.5901 H   0  0  0  0  0  0  0  0  0  0  0  0
  -13.3524   11.6077   -2.5901 H   0  0  0  0  0  0  0  0  0  0  0  0
  -15.7638    9.5645   -2.0239 H   0  0  0  0  0  0  0  0  0  0  0  0
  -14.8066   10.5377   -3.1915 H   0  0  0  0  0  0  0  0  0  0  0  0
  -14.6709    8.7465   -3.1915 H   0  0  0  0  0  0  0  0  0  0  0  0
  -11.5421    6.1238    1.6428 H   0  0  0  0  0  0  0  0  0  0  0  0
  -12.7344    5.9913    0.3058 H   0  0  0  0  0  0  0  0  0  0  0  0
  -11.2663    4.9563    0.3058 H   0  0  0  0  0  0  0  0  0  0  0  0
   -9.8176    8.0818    1.3477 H   0  0  0  0  0  0  0  0  0  0  0  0
   -9.2551    6.3576    0.9665 H   0  0  0  0  0  0  0  0  0  0  0  0
   -8.5741    8.8998   -0.5370 H   0  0  0  0  0  0  0  0  0  0  0  0
   -7.4784    7.8248    0.4176 H   0  0  0  0  0  0  0  0  0  0  0  0
   -7.7471    5.5335    0.1166 H   0  0  0  0  0  0  0  0  0  0  0  0
   -8.5006    4.8481   -1.3629 H   0  0  0  0  0  0  0  0  0  0  0  0
   -6.7587    5.2869   -1.3629 H   0  0  0  0  0  0  0  0  0  0  0  0
  1  2  1  0
  2  3  1  0
  3  4  1  0
  4  5  1  0
  5  6  1  0
  6  7  1  0
  7  8  1  0
  7  9  1  0
  2 10  1  0
 10 11  1  0
 11 12  1  0
 12 13  1  0
 13 14  1  6
 13 15  1  0
 15 16  1  0
 16 17  1  0
 17 18  2  0
 18 19  1  0
 19 20  1  0
 20 21  1  0
 21 22  1  0
 22 23  1  0
 22 24  1  0
 24 25  1  0
 24 26  1  0
 19 27  1  0
 27 28  1  1
 27 29  1  0
 29 30  1  0
 30 31  1  0
 31 32  1  1
  7  5  1  0
 31 10  1  0
 31 13  1  0
 27 15  1  0
 24 18  1  0
  1 33  1  0
  1 34  1  0
  1 35  1  0
  2 36  1  6
  3 37  1  0
  3 38  1  0
  4 39  1  0
  4 40  1  0
  5 41  1  1
  8 42  1  0
  8 43  1  0
  8 44  1  0
  9 45  1  0
  9 46  1  0
  9 47  1  0
 10 48  1  6
 11 49  1  0
 11 50  1  0
 12 51  1  0
 12 52  1  0
 14 53  1  0
 14 54  1  0
 14 55  1  0
 15 56  1  1
 16 57  1  0
 16 58  1  0
 17 59  1  0
 19 60  1  6
 20 61  1  0
 20 62  1  0
 21 63  1  0
 21 64  1  0
 22 65  1  6
 23 66  1  0
 25 67  1  0
 25 68  1  0
 25 69  1  0
 26 70  1  0
 26 71  1  0
 26 72  1  0
 28 73  1  0
 28 74  1  0
 28 75  1  0
 29 76  1  0
 29 77  1  0
 30 78  1  0
 30 79  1  0
 32 80  1  0
 32 81  1  0
 32 82  1  0
M  END
>  <meeko>  (15) 
{"is_sidechain": [false], "intermolecular_energy": 2.731, "internal_energy": -0.839}

$$$$
EPH_relaxed_0001_pdb2pqr_Repair_348_r2_0001_out
     RDKit          3D

 82 86  0  0  0  0  0  0  0  0999 V2000
    1.9890   12.9250   -5.6430 C   0  0  0  0  0  0  0  0  0  0  0  0
    2.9360   12.0960   -4.7710 C   0  0  2  0  0  0  0  0  0  0  0  0
    3.8150   11.1460   -5.6080 C   0  0  0  0  0  0  0  0  0  0  0  0
    5.2490   11.6470   -5.8040 C   0  0  0  0  0  0  0  0  0  0  0  0
    6.2470   10.7430   -5.1450 C   0  0  2  0  0  0  0  0  0  0  0  0
    5.7770   10.1010   -3.9530 O   0  0  0  0  0  0  0  0  0  0  0  0
    6.8640   11.0260   -3.7890 C   0  0  0  0  0  0  0  0  0  0  0  0
    6.5070   12.2520   -3.0090 C   0  0  0  0  0  0  0  0  0  0  0  0
    8.1660   10.3710   -3.4450 C   0  0  0  0  0  0  0  0  0  0  0  0
    2.1350   11.2990   -3.7480 C   0  0  1  0  0  0  0  0  0  0  0  0
    3.0100   10.2880   -2.9600 C   0  0  0  0  0  0  0  0  0  0  0  0
    2.4380   10.2280   -1.5200 C   0  0  0  0  0  0  0  0  0  0  0  0
    1.0690   10.9410   -1.6150 C   0  0  1  0  0  0  0  0  0  0  0  0
    0.0930    9.8620   -2.1820 C   0  0  0  0  0  0  0  0  0  0  0  0
    0.5260   11.5720   -0.2910 C   0  0  2  0  0  0  0  0  0  0  0  0
    0.2510   10.5700    0.8440 C   0  0  0  0  0  0  0  0  0  0  0  0
   -1.1300   10.0050    0.8770 C   0  0  0  0  0  0  0  0  0  0  0  0
   -2.1920   10.4970    0.2110 C   0  0  0  0  0  0  0  0  0  0  0  0
   -2.0810   11.7940   -0.6010 C   0  0  1  0  0  0  0  0  0  0  0  0
   -3.2920   12.7090   -0.2810 C   0  0  0  0  0  0  0  0  0  0  0  0
   -4.6290   12.0040   -0.4880 C   0  0  0  0  0  0  0  0  0  0  0  0
   -4.7250   10.7510    0.3790 C   0  0  2  0  0  0  0  0  0  0  0  0
   -4.7620   11.1440    1.7550 O   0  0  0  0  0  0  0  0  0  0  0  0
   -3.5510    9.7570    0.1510 C   0  0  0  0  0  0  0  0  0  0  0  0
   -3.6880    9.1030   -1.2460 C   0  0  0  0  0  0  0  0  0  0  0  0
   -3.6920    8.6080    1.1850 C   0  0  0  0  0  0  0  0  0  0  0  0
   -0.6930   12.5600   -0.4970 C   0  0  1  0  0  0  0  0  0  0  0  0
   -0.7030   13.5160    0.7350 C   0  0  0  0  0  0  0  0  0  0  0  0
   -0.5140   13.4740   -1.7660 C   0  0  0  0  0  0  0  0  0  0  0  0
    0.1380   12.8270   -3.0030 C   0  0  0  0  0  0  0  0  0  0  0  0
    1.4280   12.0940   -2.6220 C   0  0  2  0  0  0  0  0  0  0  0  0
    2.4370   13.1570   -2.0680 C   0  0  0  0  0  0  0  0  0  0  0  0
    1.3178   13.5126   -4.9993 H   0  0  0  0  0  0  0  0  0  0  0  0
    2.5760   13.6048   -6.2781 H   0  0  0  0  0  0  0  0  0  0  0  0
    1.3928   12.2532   -6.2781 H   0  0  0  0  0  0  0  0  0  0  0  0
    3.6082   12.7965   -4.2538 H   0  0  0  0  0  0  0  0  0  0  0  0
    3.8541   10.1711   -5.1000 H   0  0  0  0  0  0  0  0  0  0  0  0
    3.3578   11.0809   -6.6064 H   0  0  0  0  0  0  0  0  0  0  0  0
    5.4665   11.6930   -6.8813 H   0  0  0  0  0  0  0  0  0  0  0  0
    5.3307   12.6422   -5.3426 H   0  0  0  0  0  0  0  0  0  0  0  0
    6.6907   10.4846   -6.1178 H   0  0  0  0  0  0  0  0  0  0  0  0
    6.5707   12.0334   -1.9328 H   0  0  0  0  0  0  0  0  0  0  0  0
    7.2063   13.0631   -3.2604 H   0  0  0  0  0  0  0  0  0  0  0  0
    5.4816   12.5609   -3.2604 H   0  0  0  0  0  0  0  0  0  0  0  0
    8.2720   10.3177   -2.3514 H   0  0  0  0  0  0  0  0  0  0  0  0
    8.1876    9.3548   -3.8655 H   0  0  0  0  0  0  0  0  0  0  0  0
    8.9948   10.9594   -3.8655 H   0  0  0  0  0  0  0  0  0  0  0  0
    1.3869   10.8443   -4.4140 H   0  0  0  0  0  0  0  0  0  0  0  0
    2.9576    9.2949   -3.4300 H   0  0  0  0  0  0  0  0  0  0  0  0
    4.0648   10.6001   -2.9531 H   0  0  0  0  0  0  0  0  0  0  0  0
    2.3109    9.1846   -1.1956 H   0  0  0  0  0  0  0  0  0  0  0  0
    3.1056   10.7021   -0.7855 H   0  0  0  0  0  0  0  0  0  0  0  0
   -0.3888    9.3294   -1.3488 H   0  0  0  0  0  0  0  0  0  0  0  0
   -0.6760   10.3508   -2.7983 H   0  0  0  0  0  0  0  0  0  0  0  0
    0.6562    9.1458   -2.7983 H   0  0  0  0  0  0  0  0  0  0  0  0
    1.3774   12.1808    0.0473 H   0  0  0  0  0  0  0  0  0  0  0  0
    0.9576    9.7337    0.7373 H   0  0  0  0  0  0  0  0  0  0  0  0
    0.3713   11.1327    1.7815 H   0  0  0  0  0  0  0  0  0  0  0  0
   -1.2941    9.1116    1.4975 H   0  0  0  0  0  0  0  0  0  0  0  0
   -2.1082   11.4946   -1.6591 H   0  0  0  0  0  0  0  0  0  0  0  0
   -3.2224   13.0319    0.7682 H   0  0  0  0  0  0  0  0  0  0  0  0
   -3.2554   13.5647   -0.9713 H   0  0  0  0  0  0  0  0  0  0  0  0
   -5.4441   12.6917   -0.2184 H   0  0  0  0  0  0  0  0  0  0  0  0
   -4.7097   11.7072   -1.5441 H   0  0  0  0  0  0  0  0  0  0  0  0
   -5.6453   10.2211    0.0923 H   0  0  0  0  0  0  0  0  0  0  0  0
   -4.1820   10.5400    2.2490 H   0  0  0  0  0  0  0  0  0  0  0  0
   -3.9123    8.0324   -1.1293 H   0  0  0  0  0  0  0  0  0  0  0  0
   -4.5036    9.5901   -1.8005 H   0  0  0  0  0  0  0  0  0  0  0  0
   -2.7455    9.2219   -1.8005 H   0  0  0  0  0  0  0  0  0  0  0  0
   -3.6412    9.0223    2.2027 H   0  0  0  0  0  0  0  0  0  0  0  0
   -4.6588    8.1031    1.0425 H   0  0  0  0  0  0  0  0  0  0  0  0
   -2.8759    7.8843    1.0425 H   0  0  0  0  0  0  0  0  0  0  0  0
   -0.6968   12.9215    1.6605 H   0  0  0  0  0  0  0  0  0  0  0  0
    0.1885   14.1598    0.7068 H   0  0  0  0  0  0  0  0  0  0  0  0
   -1.6077   14.1410    0.7068 H   0  0  0  0  0  0  0  0  0  0  0  0
   -1.5117   13.8292   -2.0634 H   0  0  0  0  0  0  0  0  0  0  0  0
    0.1837   14.2652   -1.4542 H   0  0  0  0  0  0  0  0  0  0  0  0
   -0.5667   12.1084   -3.4468 H   0  0  0  0  0  0  0  0  0  0  0  0
    0.3848   13.6197   -3.7246 H   0  0  0  0  0  0  0  0  0  0  0  0
    2.4207   13.1398   -0.9683 H   0  0  0  0  0  0  0  0  0  0  0  0
    3.4508   12.9204   -2.4234 H   0  0  0  0  0  0  0  0  0  0  0  0
    2.1479   14.1571   -2.4234 H   0  0  0  0  0  0  0  0  0  0  0  0
  1  2  1  0
  2  3  1  0
  3  4  1  0
  4  5  1  0
  5  6  1  0
  6  7  1  0
  7  8  1  0
  7  9  1  0
  2 10  1  0
 10 11  1  0
 11 12  1  0
 12 13  1  0
 13 14  1  6
 13 15  1  0
 15 16  1  0
 16 17  1  0
 17 18  2  0
 18 19  1  0
 19 20  1  0
 20 21  1  0
 21 22  1  0
 22 23  1  0
 22 24  1  0
 24 25  1  0
 24 26  1  0
 19 27  1  0
 27 28  1  1
 27 29  1  0
 29 30  1  0
 30 31  1  0
 31 32  1  1
  7  5  1  0
 31 10  1  0
 31 13  1  0
 27 15  1  0
 24 18  1  0
  1 33  1  0
  1 34  1  0
  1 35  1  0
  2 36  1  1
  3 37  1  0
  3 38  1  0
  4 39  1  0
  4 40  1  0
  5 41  1  6
  8 42  1  0
  8 43  1  0
  8 44  1  0
  9 45  1  0
  9 46  1  0
  9 47  1  0
 10 48  1  6
 11 49  1  0
 11 50  1  0
 12 51  1  0
 12 52  1  0
 14 53  1  0
 14 54  1  0
 14 55  1  0
 15 56  1  1
 16 57  1  0
 16 58  1  0
 17 59  1  0
 19 60  1  6
 20 61  1  0
 20 62  1  0
 21 63  1  0
 21 64  1  0
 22 65  1  6
 23 66  1  0
 25 67  1  0
 25 68  1  0
 25 69  1  0
 26 70  1  0
 26 71  1  0
 26 72  1  0
 28 73  1  0
 28 74  1  0
 28 75  1  0
 29 76  1  0
 29 77  1  0
 30 78  1  0
 30 79  1  0
 32 80  1  0
 32 81  1  0
 32 82  1  0
M  END
>  <meeko>  (16) 
{"is_sidechain": [false], "intermolecular_energy": 2.731, "internal_energy": -0.839}

$$$$
EPH_relaxed_0001_pdb2pqr_Repair_348_r2_0001_out
     RDKit          3D

 82 86  0  0  0  0  0  0  0  0999 V2000
    2.8700   18.4640   -1.2970 C   0  0  0  0  0  0  0  0  0  0  0  0
    2.4750   17.3910   -2.3160 C   0  0  2  0  0  0  0  0  0  0  0  0
    1.0450   17.5990   -2.8530 C   0  0  0  0  0  0  0  0  0  0  0  0
    0.4690   18.9850   -2.5500 C   0  0  0  0  0  0  0  0  0  0  0  0
   -0.7830   18.8980   -1.7300 C   0  0  2  0  0  0  0  0  0  0  0  0
   -1.4320   20.1540   -1.4920 O   0  0  0  0  0  0  0  0  0  0  0  0
   -0.9110   19.4800   -0.3350 C   0  0  0  0  0  0  0  0  0  0  0  0
    0.2300   20.1920    0.3220 C   0  0  0  0  0  0  0  0  0  0  0  0
   -1.9700   18.9360    0.5730 C   0  0  0  0  0  0  0  0  0  0  0  0
    2.5990   16.0080   -1.6880 C   0  0  1  0  0  0  0  0  0  0  0  0
    3.5150   16.0010   -0.4350 C   0  0  0  0  0  0  0  0  0  0  0  0
    2.9170   14.9640    0.5510 C   0  0  0  0  0  0  0  0  0  0  0  0
    1.8840   14.1780   -0.2900 C   0  0  1  0  0  0  0  0  0  0  0  0
    2.7260   13.1270   -1.0800 C   0  0  0  0  0  0  0  0  0  0  0  0
    0.7170   13.5030    0.5030 C   0  0  2  0  0  0  0  0  0  0  0  0
    1.1510   12.4240    1.5100 C   0  0  0  0  0  0  0  0  0  0  0  0
    1.2110   11.0340    0.9680 C   0  0  0  0  0  0  0  0  0  0  0  0
    0.6600   10.6200   -0.1880 C   0  0  0  0  0  0  0  0  0  0  0  0
   -0.1950   11.5700   -1.0370 C   0  0  1  0  0  0  0  0  0  0  0  0
   -1.4950   10.8450   -1.4740 C   0  0  0  0  0  0  0  0  0  0  0  0
   -1.2170    9.5210   -2.1800 C   0  0  0  0  0  0  0  0  0  0  0  0
   -0.4140    8.5820   -1.2830 C   0  0  2  0  0  0  0  0  0  0  0  0
   -1.2280    8.2030   -0.1690 O   0  0  0  0  0  0  0  0  0  0  0  0
    0.9130    9.2090   -0.7720 C   0  0  0  0  0  0  0  0  0  0  0  0
    1.9130    9.3410   -1.9480 C   0  0  0  0  0  0  0  0  0  0  0  0
    1.5550    8.2140    0.2330 C   0  0  0  0  0  0  0  0  0  0  0  0
   -0.4780   13.0000   -0.4050 C   0  0  1  0  0  0  0  0  0  0  0  0
   -1.7370   12.9370    0.5120 C   0  0  0  0  0  0  0  0  0  0  0  0
   -0.8200   14.0140   -1.5600 C   0  0  0  0  0  0  0  0  0  0  0  0
    0.3680   14.7380   -2.2230 C   0  0  0  0  0  0  0  0  0  0  0  0
    1.2990   15.3430   -1.1680 C   0  0  2  0  0  0  0  0  0  0  0  0
    0.4860   16.4200   -0.3720 C   0  0  0  0  0  0  0  0  0  0  0  0
    2.7262   18.0734   -0.2788 H   0  0  0  0  0  0  0  0  0  0  0  0
    3.9266   18.7344   -1.4402 H   0  0  0  0  0  0  0  0  0  0  0  0
    2.2409   19.3549   -1.4402 H   0  0  0  0  0  0  0  0  0  0  0  0
    3.1638   17.4753   -3.1695 H   0  0  0  0  0  0  0  0  0  0  0  0
    1.0602   17.4603   -3.9441 H   0  0  0  0  0  0  0  0  0  0  0  0
    0.4013   16.8655   -2.3455 H   0  0  0  0  0  0  0  0  0  0  0  0
    1.2184   19.5691   -1.9956 H   0  0  0  0  0  0  0  0  0  0  0  0
    0.2200   19.4693   -3.5058 H   0  0  0  0  0  0  0  0  0  0  0  0
   -1.0084   17.9014   -2.1374 H   0  0  0  0  0  0  0  0  0  0  0  0
    0.1233   20.1254    1.4148 H   0  0  0  0  0  0  0  0  0  0  0  0
    1.1781   19.7249    0.0170 H   0  0  0  0  0  0  0  0  0  0  0  0
    0.2271   21.2489    0.0170 H   0  0  0  0  0  0  0  0  0  0  0  0
   -1.6699   19.0902    1.6200 H   0  0  0  0  0  0  0  0  0  0  0  0
   -2.9194   19.4580    0.3830 H   0  0  0  0  0  0  0  0  0  0  0  0
   -2.0987   17.8602    0.3830 H   0  0  0  0  0  0  0  0  0  0  0  0
    2.9886   15.4482   -2.5510 H   0  0  0  0  0  0  0  0  0  0  0  0
    4.5382   15.7107   -0.7155 H   0  0  0  0  0  0  0  0  0  0  0  0
    3.5640   16.9995    0.0239 H   0  0  0  0  0  0  0  0  0  0  0  0
    3.7008   14.2921    0.9307 H   0  0  0  0  0  0  0  0  0  0  0  0
    2.4625   15.4398    1.4325 H   0  0  0  0  0  0  0  0  0  0  0  0
    3.2518   12.4706   -0.3710 H   0  0  0  0  0  0  0  0  0  0  0  0
    2.0588   12.5234   -1.7128 H   0  0  0  0  0  0  0  0  0  0  0  0
    3.4606   13.6465   -1.7128 H   0  0  0  0  0  0  0  0  0  0  0  0
    0.3294   14.3364    1.1073 H   0  0  0  0  0  0  0  0  0  0  0  0
    2.1525   12.6880    1.8807 H   0  0  0  0  0  0  0  0  0  0  0  0
    0.3802   12.4120    2.2947 H   0  0  0  0  0  0  0  0  0  0  0  0
    1.7517   10.2844    1.5644 H   0  0  0  0  0  0  0  0  0  0  0  0
    0.4112   11.8163   -1.9212 H   0  0  0  0  0  0  0  0  0  0  0  0
   -2.1057   10.6470   -0.5808 H   0  0  0  0  0  0  0  0  0  0  0  0
   -2.0194   11.4995   -2.1858 H   0  0  0  0  0  0  0  0  0  0  0  0
   -2.1735    9.0425   -2.4373 H   0  0  0  0  0  0  0  0  0  0  0  0
   -0.6316    9.7241   -3.0889 H   0  0  0  0  0  0  0  0  0  0  0  0
   -0.1340    7.7064   -1.8871 H   0  0  0  0  0  0  0  0  0  0  0  0
   -1.1510    8.9010    0.5030 H   0  0  0  0  0  0  0  0  0  0  0  0
    2.9301    9.4753   -1.5511 H   0  0  0  0  0  0  0  0  0  0  0  0
    1.8770    8.4303   -2.5639 H   0  0  0  0  0  0  0  0  0  0  0  0
    1.6419   10.2112   -2.5639 H   0  0  0  0  0  0  0  0  0  0  0  0
    1.3427    8.5430    1.2610 H   0  0  0  0  0  0  0  0  0  0  0  0
    1.1338    7.2102    0.0749 H   0  0  0  0  0  0  0  0  0  0  0  0
    2.6432    8.1841    0.0749 H   0  0  0  0  0  0  0  0  0  0  0  0
   -1.4238   12.9527    1.5664 H   0  0  0  0  0  0  0  0  0  0  0  0
   -2.3827   13.8040    0.3084 H   0  0  0  0  0  0  0  0  0  0  0  0
   -2.2929   12.0099    0.3084 H   0  0  0  0  0  0  0  0  0  0  0  0
   -1.3507   13.4566   -2.3459 H   0  0  0  0  0  0  0  0  0  0  0  0
   -1.4101   14.8087   -1.0802 H   0  0  0  0  0  0  0  0  0  0  0  0
    0.9340   14.0177   -2.8319 H   0  0  0  0  0  0  0  0  0  0  0  0
   -0.0235   15.5505   -2.8527 H   0  0  0  0  0  0  0  0  0  0  0  0
    0.6132   16.2515    0.7076 H   0  0  0  0  0  0  0  0  0  0  0  0
    0.8538   17.4235   -0.6323 H   0  0  0  0  0  0  0  0  0  0  0  0
   -0.5798   16.3412   -0.6323 H   0  0  0  0  0  0  0  0  0  0  0  0
  1  2  1  0
  2  3  1  0
  3  4  1  0
  4  5  1  0
  5  6  1  0
  6  7  1  0
  7  8  1  0
  7  9  1  0
  2 10  1  0
 10 11  1  0
 11 12  1  0
 12 13  1  0
 13 14  1  6
 13 15  1  0
 15 16  1  0
 16 17  1  0
 17 18  2  0
 18 19  1  0
 19 20  1  0
 20 21  1  0
 21 22  1  0
 22 23  1  0
 22 24  1  0
 24 25  1  0
 24 26  1  0
 19 27  1  0
 27 28  1  1
 27 29  1  0
 29 30  1  0
 30 31  1  0
 31 32  1  1
  7  5  1  0
 31 10  1  0
 31 13  1  0
 27 15  1  0
 24 18  1  0
  1 33  1  0
  1 34  1  0
  1 35  1  0
  2 36  1  6
  3 37  1  0
  3 38  1  0
  4 39  1  0
  4 40  1  0
  5 41  1  1
  8 42  1  0
  8 43  1  0
  8 44  1  0
  9 45  1  0
  9 46  1  0
  9 47  1  0
 10 48  1  6
 11 49  1  0
 11 50  1  0
 12 51  1  0
 12 52  1  0
 14 53  1  0
 14 54  1  0
 14 55  1  0
 15 56  1  1
 16 57  1  0
 16 58  1  0
 17 59  1  0
 19 60  1  6
 20 61  1  0
 20 62  1  0
 21 63  1  0
 21 64  1  0
 22 65  1  6
 23 66  1  0
 25 67  1  0
 25 68  1  0
 25 69  1  0
 26 70  1  0
 26 71  1  0
 26 72  1  0
 28 73  1  0
 28 74  1  0
 28 75  1  0
 29 76  1  0
 29 77  1  0
 30 78  1  0
 30 79  1  0
 32 80  1  0
 32 81  1  0
 32 82  1  0
M  END
>  <meeko>  (17) 
{"is_sidechain": [false], "intermolecular_energy": 2.731, "internal_energy": -0.839}

$$$$
EPH_relaxed_0001_pdb2pqr_Repair_348_r2_0001_out
     RDKit          3D

 82 86  0  0  0  0  0  0  0  0999 V2000
   -0.9850   16.0880    0.3900 C   0  0  0  0  0  0  0  0  0  0  0  0
   -1.3680   14.6050    0.3740 C   0  0  2  0  0  0  0  0  0  0  0  0
   -2.0400   14.1660    1.6910 C   0  0  0  0  0  0  0  0  0  0  0  0
   -3.5480   13.9320    1.5650 C   0  0  0  0  0  0  0  0  0  0  0  0
   -3.8550   12.7410    0.7090 C   0  0  2  0  0  0  0  0  0  0  0  0
   -5.0200   12.0050    1.1030 O   0  0  0  0  0  0  0  0  0  0  0  0
   -3.7670   11.3100    1.2060 C   0  0  0  0  0  0  0  0  0  0  0  0
   -3.3590   10.9950    2.6110 C   0  0  0  0  0  0  0  0  0  0  0  0
   -3.6030   10.2130    0.2010 C   0  0  0  0  0  0  0  0  0  0  0  0
   -0.1340   13.7520    0.1090 C   0  0  1  0  0  0  0  0  0  0  0  0
    0.0980   12.6790    1.2060 C   0  0  0  0  0  0  0  0  0  0  0  0
    0.6860   11.4320    0.4950 C   0  0  0  0  0  0  0  0  0  0  0  0
    1.0810   11.9360   -0.9120 C   0  0  1  0  0  0  0  0  0  0  0  0
    2.4640   12.6320   -0.7160 C   0  0  0  0  0  0  0  0  0  0  0  0
    1.1330   10.8570   -2.0430 C   0  0  2  0  0  0  0  0  0  0  0  0
    2.1730    9.7420   -1.8330 C   0  0  0  0  0  0  0  0  0  0  0  0
    3.5220   10.0110   -2.4140 C   0  0  0  0  0  0  0  0  0  0  0  0
    3.8080   10.9670   -3.3170 C   0  0  0  0  0  0  0  0  0  0  0  0
    2.6990   11.8380   -3.9210 C   0  0  1  0  0  0  0  0  0  0  0  0
    2.8850   11.9210   -5.4590 C   0  0  0  0  0  0  0  0  0  0  0  0
    4.2800   12.3960   -5.8550 C   0  0  0  0  0  0  0  0  0  0  0  0
    5.3520   11.4720   -5.2840 C   0  0  2  0  0  0  0  0  0  0  0  0
    5.2420   10.1930   -5.9160 O   0  0  0  0  0  0  0  0  0  0  0  0
    5.2590   11.3030   -3.7420 C   0  0  0  0  0  0  0  0  0  0  0  0
    5.6750   12.6230   -3.0480 C   0  0  0  0  0  0  0  0  0  0  0  0
    6.3050   10.2390   -3.3140 C   0  0  0  0  0  0  0  0  0  0  0  0
    1.2130   11.4550   -3.5060 C   0  0  1  0  0  0  0  0  0  0  0  0
    0.6590   10.3580   -4.4660 C   0  0  0  0  0  0  0  0  0  0  0  0
    0.2870   12.7150   -3.6890 C   0  0  0  0  0  0  0  0  0  0  0  0
    0.1830   13.6810   -2.4930 C   0  0  0  0  0  0  0  0  0  0  0  0
   -0.1120   12.9190   -1.1980 C   0  0  2  0  0  0  0  0  0  0  0  0
   -1.5090   12.2270   -1.3570 C   0  0  0  0  0  0  0  0  0  0  0  0
   -0.8960   16.4325    1.4309 H   0  0  0  0  0  0  0  0  0  0  0  0
   -0.0224   16.2237   -0.1247 H   0  0  0  0  0  0  0  0  0  0  0  0
   -1.7616   16.6728   -0.1247 H   0  0  0  0  0  0  0  0  0  0  0  0
   -2.0994   14.4602   -0.4347 H   0  0  0  0  0  0  0  0  0  0  0  0
   -1.5700   13.2293    2.0251 H   0  0  0  0  0  0  0  0  0  0  0  0
   -1.9012   14.9857    2.4113 H   0  0  0  0  0  0  0  0  0  0  0  0
   -3.9682   13.7677    2.5682 H   0  0  0  0  0  0  0  0  0  0  0  0
   -3.9939   14.8188    1.0909 H   0  0  0  0  0  0  0  0  0  0  0  0
   -3.4393   13.2412   -0.1781 H   0  0  0  0  0  0  0  0  0  0  0  0
   -4.0297   11.5128    3.3124 H   0  0  0  0  0  0  0  0  0  0  0  0
   -3.4226    9.9094    2.7766 H   0  0  0  0  0  0  0  0  0  0  0  0
   -2.3248   11.3312    2.7766 H   0  0  0  0  0  0  0  0  0  0  0  0
   -3.4599    9.2556    0.7233 H   0  0  0  0  0  0  0  0  0  0  0  0
   -4.5026   10.1558   -0.4295 H   0  0  0  0  0  0  0  0  0  0  0  0
   -2.7260   10.4214   -0.4295 H   0  0  0  0  0  0  0  0  0  0  0  0
    0.6298   14.5423    0.0646 H   0  0  0  0  0  0  0  0  0  0  0  0
    0.8060   13.0545    1.9594 H   0  0  0  0  0  0  0  0  0  0  0  0
   -0.8414   12.4328    1.7226 H   0  0  0  0  0  0  0  0  0  0  0  0
    1.5679   11.0568    1.0349 H   0  0  0  0  0  0  0  0  0  0  0  0
   -0.0306   10.5985    0.4538 H   0  0  0  0  0  0  0  0  0  0  0  0
    2.6726   12.7370    0.3589 H   0  0  0  0  0  0  0  0  0  0  0  0
    3.2509   12.0225   -1.1844 H   0  0  0  0  0  0  0  0  0  0  0  0
    2.4434   13.6271   -1.1844 H   0  0  0  0  0  0  0  0  0  0  0  0
    0.1508   10.3704   -1.9510 H   0  0  0  0  0  0  0  0  0  0  0  0
    2.2935    9.5890   -0.7504 H   0  0  0  0  0  0  0  0  0  0  0  0
    1.7842    8.8594   -2.3619 H   0  0  0  0  0  0  0  0  0  0  0  0
    4.3522    9.3738   -2.0753 H   0  0  0  0  0  0  0  0  0  0  0  0
    2.8206   12.8366   -3.4760 H   0  0  0  0  0  0  0  0  0  0  0  0
    2.7173   10.9224   -5.8888 H   0  0  0  0  0  0  0  0  0  0  0  0
    2.1609   12.6543   -5.8438 H   0  0  0  0  0  0  0  0  0  0  0  0
    4.3595   12.4052   -6.9521 H   0  0  0  0  0  0  0  0  0  0  0  0
    4.4353   13.4070   -5.4503 H   0  0  0  0  0  0  0  0  0  0  0  0
    6.3288   11.9343   -5.4894 H   0  0  0  0  0  0  0  0  0  0  0  0
    5.9380   10.1380   -6.5930 H   0  0  0  0  0  0  0  0  0  0  0  0
    5.6338   12.4922   -1.9566 H   0  0  0  0  0  0  0  0  0  0  0  0
    6.7000   12.8873   -3.3472 H   0  0  0  0  0  0  0  0  0  0  0  0
    4.9868   13.4273   -3.3472 H   0  0  0  0  0  0  0  0  0  0  0  0
    6.3516   10.1916   -2.2160 H   0  0  0  0  0  0  0  0  0  0  0  0
    6.0118    9.2561   -3.7113 H   0  0  0  0  0  0  0  0  0  0  0  0
    7.2928   10.5153   -3.7113 H   0  0  0  0  0  0  0  0  0  0  0  0
    0.2409    9.5302   -3.8744 H   0  0  0  0  0  0  0  0  0  0  0  0
   -0.1291   10.7899   -5.1004 H   0  0  0  0  0  0  0  0  0  0  0  0
    1.4744    9.9801   -5.1004 H   0  0  0  0  0  0  0  0  0  0  0  0
    0.6699   13.2875   -4.5467 H   0  0  0  0  0  0  0  0  0  0  0  0
   -0.7272   12.3099   -3.8205 H   0  0  0  0  0  0  0  0  0  0  0  0
    1.1344   14.2221   -2.3835 H   0  0  0  0  0  0  0  0  0  0  0  0
   -0.6407   14.3854   -2.6813 H   0  0  0  0  0  0  0  0  0  0  0  0
   -1.9302   12.0184   -0.3625 H   0  0  0  0  0  0  0  0  0  0  0  0
   -2.1874   12.8933   -1.9101 H   0  0  0  0  0  0  0  0  0  0  0  0
   -1.3901   11.2836   -1.9101 H   0  0  0  0  0  0  0  0  0  0  0  0
  1  2  1  0
  2  3  1  0
  3  4  1  0
  4  5  1  0
  5  6  1  0
  6  7  1  0
  7  8  1  0
  7  9  1  0
  2 10  1  0
 10 11  1  0
 11 12  1  0
 12 13  1  0
 13 14  1  1
 13 15  1  0
 15 16  1  0
 16 17  1  0
 17 18  2  0
 18 19  1  0
 19 20  1  0
 20 21  1  0
 21 22  1  0
 22 23  1  0
 22 24  1  0
 24 25  1  0
 24 26  1  0
 19 27  1  0
 27 28  1  6
 27 29  1  0
 29 30  1  0
 30 31  1  0
 31 32  1  6
  7  5  1  0
 31 10  1  0
 31 13  1  0
 27 15  1  0
 24 18  1  0
  1 33  1  0
  1 34  1  0
  1 35  1  0
  2 36  1  6
  3 37  1  0
  3 38  1  0
  4 39  1  0
  4 40  1  0
  5 41  1  6
  8 42  1  0
  8 43  1  0
  8 44  1  0
  9 45  1  0
  9 46  1  0
  9 47  1  0
 10 48  1  6
 11 49  1  0
 11 50  1  0
 12 51  1  0
 12 52  1  0
 14 53  1  0
 14 54  1  0
 14 55  1  0
 15 56  1  6
 16 57  1  0
 16 58  1  0
 17 59  1  0
 19 60  1  1
 20 61  1  0
 20 62  1  0
 21 63  1  0
 21 64  1  0
 22 65  1  1
 23 66  1  0
 25 67  1  0
 25 68  1  0
 25 69  1  0
 26 70  1  0
 26 71  1  0
 26 72  1  0
 28 73  1  0
 28 74  1  0
 28 75  1  0
 29 76  1  0
 29 77  1  0
 30 78  1  0
 30 79  1  0
 32 80  1  0
 32 81  1  0
 32 82  1  0
M  END
>  <meeko>  (18) 
{"is_sidechain": [false], "intermolecular_energy": 2.731, "internal_energy": -0.839}

$$$$
EPH_relaxed_0001_pdb2pqr_Repair_348_r2_0001_out
     RDKit          3D

 82 86  0  0  0  0  0  0  0  0999 V2000
   -3.7660   10.5770    2.4490 C   0  0  0  0  0  0  0  0  0  0  0  0
   -4.1890   10.2340    1.0180 C   0  0  2  0  0  0  0  0  0  0  0  0
   -4.1060    8.7210    0.7350 C   0  0  0  0  0  0  0  0  0  0  0  0
   -4.2390    8.3640   -0.7480 C   0  0  0  0  0  0  0  0  0  0  0  0
   -5.5930    7.8050   -1.0650 C   0  0  2  0  0  0  0  0  0  0  0  0
   -5.7160    6.3900   -0.8730 O   0  0  0  0  0  0  0  0  0  0  0  0
   -5.8580    6.8610   -2.2220 C   0  0  0  0  0  0  0  0  0  0  0  0
   -4.7590    6.4220   -3.1390 C   0  0  0  0  0  0  0  0  0  0  0  0
   -7.2530    6.7550   -2.7540 C   0  0  0  0  0  0  0  0  0  0  0  0
   -3.3240   10.9990    0.0230 C   0  0  1  0  0  0  0  0  0  0  0  0
   -3.7830   12.4700   -0.1610 C   0  0  0  0  0  0  0  0  0  0  0  0
   -2.5020   13.3130   -0.3880 C   0  0  0  0  0  0  0  0  0  0  0  0
   -1.3920   12.2710   -0.6570 C   0  0  1  0  0  0  0  0  0  0  0  0
   -1.5570   11.8880   -2.1610 C   0  0  0  0  0  0  0  0  0  0  0  0
    0.0700   12.7200   -0.3330 C   0  0  2  0  0  0  0  0  0  0  0  0
    0.5860   13.9100   -1.1610 C   0  0  0  0  0  0  0  0  0  0  0  0
    1.2770   13.5500   -2.4340 C   0  0  0  0  0  0  0  0  0  0  0  0
    1.7290   12.3240   -2.7590 C   0  0  0  0  0  0  0  0  0  0  0  0
    1.6480   11.1640   -1.7580 C   0  0  1  0  0  0  0  0  0  0  0  0
    3.0060   10.4140   -1.7250 C   0  0  0  0  0  0  0  0  0  0  0  0
    3.4570    9.9600   -3.1090 C   0  0  0  0  0  0  0  0  0  0  0  0
    3.5820   11.1480   -4.0590 C   0  0  2  0  0  0  0  0  0  0  0  0
    4.6550   11.9830   -3.6140 O   0  0  0  0  0  0  0  0  0  0  0  0
    2.2770   11.9860   -4.1670 C   0  0  0  0  0  0  0  0  0  0  0  0
    1.1990   11.1750   -4.9260 C   0  0  0  0  0  0  0  0  0  0  0  0
    2.5810   13.2310   -5.0430 C   0  0  0  0  0  0  0  0  0  0  0  0
    1.1210   11.5370   -0.3060 C   0  0  1  0  0  0  0  0  0  0  0  0
    2.3080   12.0160    0.5850 C   0  0  0  0  0  0  0  0  0  0  0  0
    0.5460   10.2420    0.3800 C   0  0  0  0  0  0  0  0  0  0  0  0
   -0.9370    9.9170    0.1180 C   0  0  0  0  0  0  0  0  0  0  0  0
   -1.8180   11.1470    0.3560 C   0  0  2  0  0  0  0  0  0  0  0  0
   -1.6900   11.5420    1.8670 C   0  0  0  0  0  0  0  0  0  0  0  0
   -4.4176   10.0487    3.1606 H   0  0  0  0  0  0  0  0  0  0  0  0
   -2.7226   10.2668    2.6073 H   0  0  0  0  0  0  0  0  0  0  0  0
   -3.8539   11.6620    2.6073 H   0  0  0  0  0  0  0  0  0  0  0  0
   -5.2411   10.5336    0.9028 H   0  0  0  0  0  0  0  0  0  0  0  0
   -3.1338    8.3532    1.0949 H   0  0  0  0  0  0  0  0  0  0  0  0
   -4.9522    8.2496    1.2563 H   0  0  0  0  0  0  0  0  0  0  0  0
   -4.0785    9.2714   -1.3488 H   0  0  0  0  0  0  0  0  0  0  0  0
   -3.4875    7.5963   -0.9843 H   0  0  0  0  0  0  0  0  0  0  0  0
   -6.0790    8.7400   -0.7494 H   0  0  0  0  0  0  0  0  0  0  0  0
   -3.8999    6.0788   -2.5438 H   0  0  0  0  0  0  0  0  0  0  0  0
   -5.1180    5.5982   -3.7735 H   0  0  0  0  0  0  0  0  0  0  0  0
   -4.4516    7.2664   -3.7735 H   0  0  0  0  0  0  0  0  0  0  0  0
   -7.9623    6.7011   -1.9150 H   0  0  0  0  0  0  0  0  0  0  0  0
   -7.4790    7.6386   -3.3690 H   0  0  0  0  0  0  0  0  0  0  0  0
   -7.3429    5.8474   -3.3690 H   0  0  0  0  0  0  0  0  0  0  0  0
   -3.4525   10.3590   -0.8624 H   0  0  0  0  0  0  0  0  0  0  0  0
   -4.4501   12.5526   -1.0317 H   0  0  0  0  0  0  0  0  0  0  0  0
   -4.3377   12.8239    0.7205 H   0  0  0  0  0  0  0  0  0  0  0  0
   -2.6251   13.9813   -1.2530 H   0  0  0  0  0  0  0  0  0  0  0  0
   -2.2692   13.9579    0.4722 H   0  0  0  0  0  0  0  0  0  0  0  0
   -1.9912   10.8802   -2.2372 H   0  0  0  0  0  0  0  0  0  0  0  0
   -2.2229   12.6123   -2.6529 H   0  0  0  0  0  0  0  0  0  0  0  0
   -0.5732   11.9016   -2.6529 H   0  0  0  0  0  0  0  0  0  0  0  0
   -0.0210   13.0903    0.6988 H   0  0  0  0  0  0  0  0  0  0  0  0
   -0.2741   14.5489   -1.4102 H   0  0  0  0  0  0  0  0  0  0  0  0
    1.3407   14.4103   -0.5365 H   0  0  0  0  0  0  0  0  0  0  0  0
    1.4299   14.3542   -3.1688 H   0  0  0  0  0  0  0  0  0  0  0  0
    0.8600   10.4935   -2.1314 H   0  0  0  0  0  0  0  0  0  0  0  0
    3.7702   11.0865   -1.3081 H   0  0  0  0  0  0  0  0  0  0  0  0
    2.8759    9.5150   -1.1046 H   0  0  0  0  0  0  0  0  0  0  0  0
    4.4345    9.4627   -3.0239 H   0  0  0  0  0  0  0  0  0  0  0  0
    2.7058    9.2652   -3.5127 H   0  0  0  0  0  0  0  0  0  0  0  0
    3.7812   10.7475   -5.0639 H   0  0  0  0  0  0  0  0  0  0  0  0
    4.3490   12.9050   -3.6610 H   0  0  0  0  0  0  0  0  0  0  0  0
    0.5373   10.6772   -4.2019 H   0  0  0  0  0  0  0  0  0  0  0  0
    0.6069   11.8535   -5.5577 H   0  0  0  0  0  0  0  0  0  0  0  0
    1.6868   10.4180   -5.5577 H   0  0  0  0  0  0  0  0  0  0  0  0
    2.7916   14.0936   -4.3937 H   0  0  0  0  0  0  0  0  0  0  0  0
    3.4559   13.0278   -5.6780 H   0  0  0  0  0  0  0  0  0  0  0  0
    1.7109   13.4539   -5.6780 H   0  0  0  0  0  0  0  0  0  0  0  0
    2.0376   11.9069    1.6457 H   0  0  0  0  0  0  0  0  0  0  0  0
    3.1979   11.4066    0.3689 H   0  0  0  0  0  0  0  0  0  0  0  0
    2.5257   13.0724    0.3689 H   0  0  0  0  0  0  0  0  0  0  0  0
    1.1413    9.3867    0.0279 H   0  0  0  0  0  0  0  0  0  0  0  0
    0.6115   10.4357    1.4608 H   0  0  0  0  0  0  0  0  0  0  0  0
   -1.0542    9.5867   -0.9247 H   0  0  0  0  0  0  0  0  0  0  0  0
   -1.2497    9.1221    0.8111 H   0  0  0  0  0  0  0  0  0  0  0  0
   -1.9683   10.6831    2.4954 H   0  0  0  0  0  0  0  0  0  0  0  0
   -0.6515   11.8332    2.0832 H   0  0  0  0  0  0  0  0  0  0  0  0
   -2.3603   12.3870    2.0832 H   0  0  0  0  0  0  0  0  0  0  0  0
  1  2  1  0
  2  3  1  0
  3  4  1  0
  4  5  1  0
  5  6  1  0
  6  7  1  0
  7  8  1  0
  7  9  1  0
  2 10  1  0
 10 11  1  0
 11 12  1  0
 12 13  1  0
 13 14  1  6
 13 15  1  0
 15 16  1  0
 16 17  1  0
 17 18  2  0
 18 19  1  0
 19 20  1  0
 20 21  1  0
 21 22  1  0
 22 23  1  0
 22 24  1  0
 24 25  1  0
 24 26  1  0
 19 27  1  0
 27 28  1  1
 27 29  1  0
 29 30  1  0
 30 31  1  0
 31 32  1  1
  7  5  1  0
 31 10  1  0
 31 13  1  0
 27 15  1  0
 24 18  1  0
  1 33  1  0
  1 34  1  0
  1 35  1  0
  2 36  1  1
  3 37  1  0
  3 38  1  0
  4 39  1  0
  4 40  1  0
  5 41  1  1
  8 42  1  0
  8 43  1  0
  8 44  1  0
  9 45  1  0
  9 46  1  0
  9 47  1  0
 10 48  1  6
 11 49  1  0
 11 50  1  0
 12 51  1  0
 12 52  1  0
 14 53  1  0
 14 54  1  0
 14 55  1  0
 15 56  1  1
 16 57  1  0
 16 58  1  0
 17 59  1  0
 19 60  1  6
 20 61  1  0
 20 62  1  0
 21 63  1  0
 21 64  1  0
 22 65  1  6
 23 66  1  0
 25 67  1  0
 25 68  1  0
 25 69  1  0
 26 70  1  0
 26 71  1  0
 26 72  1  0
 28 73  1  0
 28 74  1  0
 28 75  1  0
 29 76  1  0
 29 77  1  0
 30 78  1  0
 30 79  1  0
 32 80  1  0
 32 81  1  0
 32 82  1  0
M  END
>  <meeko>  (19) 
{"is_sidechain": [false], "intermolecular_energy": 2.731, "internal_energy": -0.839}

$$$$
