EPH_relaxed_0001_pdb2pqr_Repair_382_r2_0001_out
     RDKit          3D

 82 86  0  0  0  0  0  0  0  0999 V2000
   -1.8530    8.8000   -1.8270 C   0  0  0  0  0  0  0  0  0  0  0  0
   -1.8330    9.0580   -0.3180 C   0  0  2  0  0  0  0  0  0  0  0  0
   -3.2520    9.2290    0.2610 C   0  0  0  0  0  0  0  0  0  0  0  0
   -4.3550    9.2150   -0.8000 C   0  0  0  0  0  0  0  0  0  0  0  0
   -5.0830    7.9050   -0.8260 C   0  0  2  0  0  0  0  0  0  0  0  0
   -5.3450    7.3910   -2.1380 O   0  0  0  0  0  0  0  0  0  0  0  0
   -6.4960    7.7440   -1.3540 C   0  0  0  0  0  0  0  0  0  0  0  0
   -7.2660    8.9080   -1.8920 C   0  0  0  0  0  0  0  0  0  0  0  0
   -7.2990    6.5650   -0.8990 C   0  0  0  0  0  0  0  0  0  0  0  0
   -0.9940   10.2940   -0.0130 C   0  0  1  0  0  0  0  0  0  0  0  0
    0.0890   10.0290    1.0670 C   0  0  0  0  0  0  0  0  0  0  0  0
    1.3220   10.8870    0.6830 C   0  0  0  0  0  0  0  0  0  0  0  0
    0.7990   11.8590   -0.4000 C   0  0  1  0  0  0  0  0  0  0  0  0
    0.0930   13.0020    0.3940 C   0  0  0  0  0  0  0  0  0  0  0  0
    1.8650   12.4210   -1.3970 C   0  0  2  0  0  0  0  0  0  0  0  0
    2.9720   13.2750   -0.7540 C   0  0  0  0  0  0  0  0  0  0  0  0
    2.6850   14.7380   -0.6750 C   0  0  0  0  0  0  0  0  0  0  0  0
    1.7160   15.3820   -1.3520 C   0  0  0  0  0  0  0  0  0  0  0  0
    0.8490   14.6440   -2.3800 C   0  0  1  0  0  0  0  0  0  0  0  0
    0.7470   15.4920   -3.6750 C   0  0  0  0  0  0  0  0  0  0  0  0
    0.2550   16.9110   -3.4080 C   0  0  0  0  0  0  0  0  0  0  0  0
    1.1760   17.6320   -2.4270 C   0  0  2  0  0  0  0  0  0  0  0  0
    2.4490   17.8300   -3.0490 O   0  0  0  0  0  0  0  0  0  0  0  0
    1.3630   16.8670   -1.0870 C   0  0  0  0  0  0  0  0  0  0  0  0
    0.0460   16.9150   -0.2720 C   0  0  0  0  0  0  0  0  0  0  0  0
    2.4220   17.6280   -0.2460 C   0  0  0  0  0  0  0  0  0  0  0  0
    1.2510   13.1340   -2.6690 C   0  0  1  0  0  0  0  0  0  0  0  0
    2.3420   13.0770   -3.7820 C   0  0  0  0  0  0  0  0  0  0  0  0
   -0.0030   12.3690   -3.2370 C   0  0  0  0  0  0  0  0  0  0  0  0
   -0.9540   11.7330   -2.2050 C   0  0  0  0  0  0  0  0  0  0  0  0
   -0.1760   10.9030   -1.1790 C   0  0  2  0  0  0  0  0  0  0  0  0
    0.5280    9.7320   -1.9460 C   0  0  0  0  0  0  0  0  0  0  0  0
   -1.9368    7.7191   -2.0131 H   0  0  0  0  0  0  0  0  0  0  0  0
   -2.7137    9.3172   -2.2760 H   0  0  0  0  0  0  0  0  0  0  0  0
   -0.9228    9.1784   -2.2760 H   0  0  0  0  0  0  0  0  0  0  0  0
   -1.3844    8.1759    0.1624 H   0  0  0  0  0  0  0  0  0  0  0  0
   -3.4399    8.4076    0.9682 H   0  0  0  0  0  0  0  0  0  0  0  0
   -3.2847   10.2158    0.7458 H   0  0  0  0  0  0  0  0  0  0  0  0
   -5.0735   10.0177   -0.5778 H   0  0  0  0  0  0  0  0  0  0  0  0
   -3.8864    9.3663   -1.7836 H   0  0  0  0  0  0  0  0  0  0  0  0
   -4.6076    7.5955    0.1165 H   0  0  0  0  0  0  0  0  0  0  0  0
   -7.6606    9.5045   -1.0562 H   0  0  0  0  0  0  0  0  0  0  0  0
   -6.6028    9.5333   -2.5077 H   0  0  0  0  0  0  0  0  0  0  0  0
   -8.1009    8.5423   -2.5077 H   0  0  0  0  0  0  0  0  0  0  0  0
   -7.3182    6.5368    0.2005 H   0  0  0  0  0  0  0  0  0  0  0  0
   -8.3267    6.6516   -1.2816 H   0  0  0  0  0  0  0  0  0  0  0  0
   -6.8420    5.6405   -1.2816 H   0  0  0  0  0  0  0  0  0  0  0  0
   -1.7914   10.9884    0.2904 H   0  0  0  0  0  0  0  0  0  0  0  0
   -0.2844   10.3246    2.0586 H   0  0  0  0  0  0  0  0  0  0  0  0
    0.3491    8.9612    1.1122 H   0  0  0  0  0  0  0  0  0  0  0  0
    1.6954   11.4427    1.5558 H   0  0  0  0  0  0  0  0  0  0  0  0
    2.1611   10.2737    0.3229 H   0  0  0  0  0  0  0  0  0  0  0  0
    0.2044   12.8216    1.4734 H   0  0  0  0  0  0  0  0  0  0  0  0
    0.5526   13.9670    0.1341 H   0  0  0  0  0  0  0  0  0  0  0  0
   -0.9757   13.0230    0.1341 H   0  0  0  0  0  0  0  0  0  0  0  0
    2.3610   11.5059   -1.7529 H   0  0  0  0  0  0  0  0  0  0  0  0
    3.1355   12.9051    0.2690 H   0  0  0  0  0  0  0  0  0  0  0  0
    3.8521   13.1727   -1.4058 H   0  0  0  0  0  0  0  0  0  0  0  0
    3.3187   15.3403   -0.0074 H   0  0  0  0  0  0  0  0  0  0  0  0
   -0.1458   14.5415   -1.9219 H   0  0  0  0  0  0  0  0  0  0  0  0
    1.7422   15.5456   -4.1406 H   0  0  0  0  0  0  0  0  0  0  0  0
    0.0161   15.0042   -4.3367 H   0  0  0  0  0  0  0  0  0  0  0  0
    0.2317   17.4684   -4.3561 H   0  0  0  0  0  0  0  0  0  0  0  0
   -0.7522   16.8567   -2.9690 H   0  0  0  0  0  0  0  0  0  0  0  0
    0.7028   18.5929   -2.1766 H   0  0  0  0  0  0  0  0  0  0  0  0
    2.3270   17.7220   -4.0080 H   0  0  0  0  0  0  0  0  0  0  0  0
    0.2795   16.9065    0.8029 H   0  0  0  0  0  0  0  0  0  0  0  0
   -0.5055   17.8338   -0.5202 H   0  0  0  0  0  0  0  0  0  0  0  0
   -0.5709   16.0387   -0.5202 H   0  0  0  0  0  0  0  0  0  0  0  0
    2.2158   17.4798    0.8243 H   0  0  0  0  0  0  0  0  0  0  0  0
    3.4246   17.2425   -0.4831 H   0  0  0  0  0  0  0  0  0  0  0  0
    2.3763   18.7012   -0.4831 H   0  0  0  0  0  0  0  0  0  0  0  0
    3.3376   13.0250   -3.3172 H   0  0  0  0  0  0  0  0  0  0  0  0
    2.1821   12.1860   -4.4069 H   0  0  0  0  0  0  0  0  0  0  0  0
    2.2758   13.9798   -4.4069 H   0  0  0  0  0  0  0  0  0  0  0  0
   -0.5885   13.0852   -3.8322 H   0  0  0  0  0  0  0  0  0  0  0  0
    0.4092   11.5241   -3.8081 H   0  0  0  0  0  0  0  0  0  0  0  0
   -1.5018   12.5304   -1.6815 H   0  0  0  0  0  0  0  0  0  0  0  0
   -1.6527   11.0691   -2.7352 H   0  0  0  0  0  0  0  0  0  0  0  0
    0.9543    9.0229   -1.2211 H   0  0  0  0  0  0  0  0  0  0  0  0
   -0.2078    9.2127   -2.5777 H   0  0  0  0  0  0  0  0  0  0  0  0
    1.3317   10.1383   -2.5777 H   0  0  0  0  0  0  0  0  0  0  0  0
  1  2  1  0
  2  3  1  0
  3  4  1  0
  4  5  1  0
  5  6  1  0
  6  7  1  0
  7  8  1  0
  7  9  1  0
  2 10  1  0
 10 11  1  0
 11 12  1  0
 12 13  1  0
 13 14  1  1
 13 15  1  0
 15 16  1  0
 16 17  1  0
 17 18  2  0
 18 19  1  0
 19 20  1  0
 20 21  1  0
 21 22  1  0
 22 23  1  0
 22 24  1  0
 24 25  1  0
 24 26  1  0
 19 27  1  0
 27 28  1  6
 27 29  1  0
 29 30  1  0
 30 31  1  0
 31 32  1  6
  7  5  1  0
 31 10  1  0
 31 13  1  0
 27 15  1  0
 24 18  1  0
  1 33  1  0
  1 34  1  0
  1 35  1  0
  2 36  1  1
  3 37  1  0
  3 38  1  0
  4 39  1  0
  4 40  1  0
  5 41  1  1
  8 42  1  0
  8 43  1  0
  8 44  1  0
  9 45  1  0
  9 46  1  0
  9 47  1  0
 10 48  1  1
 11 49  1  0
 11 50  1  0
 12 51  1  0
 12 52  1  0
 14 53  1  0
 14 54  1  0
 14 55  1  0
 15 56  1  6
 16 57  1  0
 16 58  1  0
 17 59  1  0
 19 60  1  1
 20 61  1  0
 20 62  1  0
 21 63  1  0
 21 64  1  0
 22 65  1  1
 23 66  1  0
 25 67  1  0
 25 68  1  0
 25 69  1  0
 26 70  1  0
 26 71  1  0
 26 72  1  0
 28 73  1  0
 28 74  1  0
 28 75  1  0
 29 76  1  0
 29 77  1  0
 30 78  1  0
 30 79  1  0
 32 80  1  0
 32 81  1  0
 32 82  1  0
M  END
>  <meeko>  (1) 
{"is_sidechain": [false], "intermolecular_energy": 2.731, "internal_energy": -0.839}

$$$$
EPH_relaxed_0001_pdb2pqr_Repair_382_r2_0001_out
     RDKit          3D

 82 86  0  0  0  0  0  0  0  0999 V2000
    2.4570   18.0900   -2.5550 C   0  0  0  0  0  0  0  0  0  0  0  0
    1.0980   17.7520   -1.9350 C   0  0  2  0  0  0  0  0  0  0  0  0
    1.1230   17.8420   -0.3960 C   0  0  0  0  0  0  0  0  0  0  0  0
    0.7190   19.2150    0.1460 C   0  0  0  0  0  0  0  0  0  0  0  0
   -0.7340   19.2610    0.5140 C   0  0  2  0  0  0  0  0  0  0  0  0
   -1.5590   18.3260   -0.1920 O   0  0  0  0  0  0  0  0  0  0  0  0
   -1.8240   19.7160   -0.4370 C   0  0  0  0  0  0  0  0  0  0  0  0
   -1.5080   20.1600   -1.8310 C   0  0  0  0  0  0  0  0  0  0  0  0
   -3.1210   20.1940    0.1370 C   0  0  0  0  0  0  0  0  0  0  0  0
    0.6620   16.3570   -2.3690 C   0  0  1  0  0  0  0  0  0  0  0  0
    0.7930   16.1390   -3.9000 C   0  0  0  0  0  0  0  0  0  0  0  0
    1.2010   14.6580   -4.1070 C   0  0  0  0  0  0  0  0  0  0  0  0
    0.9690   13.9930   -2.7300 C   0  0  1  0  0  0  0  0  0  0  0  0
   -0.5630   13.6960   -2.6810 C   0  0  0  0  0  0  0  0  0  0  0  0
    1.8150   12.7130   -2.4290 C   0  0  2  0  0  0  0  0  0  0  0  0
    1.5570   11.5240   -3.3710 C   0  0  0  0  0  0  0  0  0  0  0  0
    0.4890   10.5800   -2.9270 C   0  0  0  0  0  0  0  0  0  0  0  0
   -0.0370   10.5190   -1.6890 C   0  0  0  0  0  0  0  0  0  0  0  0
    0.5130   11.3960   -0.5560 C   0  0  1  0  0  0  0  0  0  0  0  0
    0.7130   10.5310    0.7160 C   0  0  0  0  0  0  0  0  0  0  0  0
   -0.5540    9.7820    1.1200 C   0  0  0  0  0  0  0  0  0  0  0  0
   -1.0360    8.8780   -0.0110 C   0  0  2  0  0  0  0  0  0  0  0  0
   -0.0780    7.8340   -0.2080 O   0  0  0  0  0  0  0  0  0  0  0  0
   -1.2630    9.6370   -1.3480 C   0  0  0  0  0  0  0  0  0  0  0  0
   -2.5030   10.5570   -1.2210 C   0  0  0  0  0  0  0  0  0  0  0  0
   -1.6110    8.5890   -2.4400 C   0  0  0  0  0  0  0  0  0  0  0  0
    1.7950   12.2650   -0.9120 C   0  0  1  0  0  0  0  0  0  0  0  0
    3.0880   11.4250   -0.6790 C   0  0  0  0  0  0  0  0  0  0  0  0
    1.8770   13.4890    0.0750 C   0  0  0  0  0  0  0  0  0  0  0  0
    1.1170   14.7640   -0.3360 C   0  0  0  0  0  0  0  0  0  0  0  0
    1.4410   15.1540   -1.7810 C   0  0  2  0  0  0  0  0  0  0  0  0
    2.9720   15.4810   -1.8570 C   0  0  0  0  0  0  0  0  0  0  0  0
    3.1898   18.2723   -1.7551 H   0  0  0  0  0  0  0  0  0  0  0  0
    2.7954   17.2487   -3.1776 H   0  0  0  0  0  0  0  0  0  0  0  0
    2.3619   18.9918   -3.1776 H   0  0  0  0  0  0  0  0  0  0  0  0
    0.3742   18.4972   -2.2967 H   0  0  0  0  0  0  0  0  0  0  0  0
    0.4277   17.0910    0.0072 H   0  0  0  0  0  0  0  0  0  0  0  0
    2.1616   17.6643   -0.0802 H   0  0  0  0  0  0  0  0  0  0  0  0
    1.3203   19.4362    1.0402 H   0  0  0  0  0  0  0  0  0  0  0  0
    0.8964   19.9606   -0.6430 H   0  0  0  0  0  0  0  0  0  0  0  0
   -0.4878   19.5507    1.5462 H   0  0  0  0  0  0  0  0  0  0  0  0
   -0.8705   21.0557   -1.7949 H   0  0  0  0  0  0  0  0  0  0  0  0
   -0.9789   19.3545   -2.3613 H   0  0  0  0  0  0  0  0  0  0  0  0
   -2.4424   20.3961   -2.3613 H   0  0  0  0  0  0  0  0  0  0  0  0
   -3.0655   20.1736    1.2354 H   0  0  0  0  0  0  0  0  0  0  0  0
   -3.3148   21.2226   -0.2013 H   0  0  0  0  0  0  0  0  0  0  0  0
   -3.9359   19.5371   -0.2013 H   0  0  0  0  0  0  0  0  0  0  0  0
   -0.3700   16.3594   -1.9882 H   0  0  0  0  0  0  0  0  0  0  0  0
   -0.1686   16.3398   -4.3950 H   0  0  0  0  0  0  0  0  0  0  0  0
    1.5409   16.8192   -4.3334 H   0  0  0  0  0  0  0  0  0  0  0  0
    0.5728   14.1861   -4.8768 H   0  0  0  0  0  0  0  0  0  0  0  0
    2.2414   14.5560   -4.4494 H   0  0  0  0  0  0  0  0  0  0  0  0
   -0.8908   13.6324   -1.6329 H   0  0  0  0  0  0  0  0  0  0  0  0
   -1.1097   14.5049   -3.1878 H   0  0  0  0  0  0  0  0  0  0  0  0
   -0.7678   12.7414   -3.1878 H   0  0  0  0  0  0  0  0  0  0  0  0
    2.8390   13.0498   -2.6480 H   0  0  0  0  0  0  0  0  0  0  0  0
    1.2692   11.9251   -4.3540 H   0  0  0  0  0  0  0  0  0  0  0  0
    2.4901   10.9417   -3.3894 H   0  0  0  0  0  0  0  0  0  0  0  0
    0.0986    9.8742   -3.6749 H   0  0  0  0  0  0  0  0  0  0  0  0
   -0.2501   12.1656   -0.3680 H   0  0  0  0  0  0  0  0  0  0  0  0
    1.5094    9.7975    0.5219 H   0  0  0  0  0  0  0  0  0  0  0  0
    0.9782   11.2078    1.5416 H   0  0  0  0  0  0  0  0  0  0  0  0
   -0.3415    9.1670    2.0069 H   0  0  0  0  0  0  0  0  0  0  0  0
   -1.3414   10.5174    1.3421 H   0  0  0  0  0  0  0  0  0  0  0  0
   -2.0127    8.4696    0.2879 H   0  0  0  0  0  0  0  0  0  0  0  0
    0.7810    8.2530   -0.3870 H   0  0  0  0  0  0  0  0  0  0  0  0
   -2.7282   10.7241   -0.1573 H   0  0  0  0  0  0  0  0  0  0  0  0
   -2.2955   11.5214   -1.7077 H   0  0  0  0  0  0  0  0  0  0  0  0
   -3.3658   10.0788   -1.7077 H   0  0  0  0  0  0  0  0  0  0  0  0
   -1.9230    7.6495   -1.9604 H   0  0  0  0  0  0  0  0  0  0  0  0
   -2.4306    8.9706   -3.0665 H   0  0  0  0  0  0  0  0  0  0  0  0
   -0.7259    8.4046   -3.0665 H   0  0  0  0  0  0  0  0  0  0  0  0
    3.2621   11.3119    0.4012 H   0  0  0  0  0  0  0  0  0  0  0  0
    2.9677   10.4321   -1.1369 H   0  0  0  0  0  0  0  0  0  0  0  0
    3.9463   11.9384   -1.1369 H   0  0  0  0  0  0  0  0  0  0  0  0
    1.4767   13.1612    1.0457 H   0  0  0  0  0  0  0  0  0  0  0  0
    2.9383   13.7779    0.0881 H   0  0  0  0  0  0  0  0  0  0  0  0
    0.0357   14.5831   -0.2460 H   0  0  0  0  0  0  0  0  0  0  0  0
    1.4266   15.5856    0.3267 H   0  0  0  0  0  0  0  0  0  0  0  0
    3.3793   15.5680   -0.8389 H   0  0  0  0  0  0  0  0  0  0  0  0
    3.4932   14.6739   -2.3927 H   0  0  0  0  0  0  0  0  0  0  0  0
    3.1180   16.4306   -2.3927 H   0  0  0  0  0  0  0  0  0  0  0  0
  1  2  1  0
  2  3  1  0
  3  4  1  0
  4  5  1  0
  5  6  1  0
  6  7  1  0
  7  8  1  0
  7  9  1  0
  2 10  1  0
 10 11  1  0
 11 12  1  0
 12 13  1  0
 13 14  1  1
 13 15  1  0
 15 16  1  0
 16 17  1  0
 17 18  2  0
 18 19  1  0
 19 20  1  0
 20 21  1  0
 21 22  1  0
 22 23  1  0
 22 24  1  0
 24 25  1  0
 24 26  1  0
 19 27  1  0
 27 28  1  6
 27 29  1  0
 29 30  1  0
 30 31  1  0
 31 32  1  1
  7  5  1  0
 31 10  1  0
 31 13  1  0
 27 15  1  0
 24 18  1  0
  1 33  1  0
  1 34  1  0
  1 35  1  0
  2 36  1  6
  3 37  1  0
  3 38  1  0
  4 39  1  0
  4 40  1  0
  5 41  1  1
  8 42  1  0
  8 43  1  0
  8 44  1  0
  9 45  1  0
  9 46  1  0
  9 47  1  0
 10 48  1  1
 11 49  1  0
 11 50  1  0
 12 51  1  0
 12 52  1  0
 14 53  1  0
 14 54  1  0
 14 55  1  0
 15 56  1  6
 16 57  1  0
 16 58  1  0
 17 59  1  0
 19 60  1  1
 20 61  1  0
 20 62  1  0
 21 63  1  0
 21 64  1  0
 22 65  1  1
 23 66  1  0
 25 67  1  0
 25 68  1  0
 25 69  1  0
 26 70  1  0
 26 71  1  0
 26 72  1  0
 28 73  1  0
 28 74  1  0
 28 75  1  0
 29 76  1  0
 29 77  1  0
 30 78  1  0
 30 79  1  0
 32 80  1  0
 32 81  1  0
 32 82  1  0
M  END
>  <meeko>  (2) 
{"is_sidechain": [false], "intermolecular_energy": 2.731, "internal_energy": -0.839}

$$$$
EPH_relaxed_0001_pdb2pqr_Repair_382_r2_0001_out
     RDKit          3D

 82 86  0  0  0  0  0  0  0  0999 V2000
    4.2430   17.5720   -0.6180 C   0  0  0  0  0  0  0  0  0  0  0  0
    2.8840   18.1380   -0.1960 C   0  0  2  0  0  0  0  0  0  0  0  0
    2.9470   18.8330    1.1790 C   0  0  0  0  0  0  0  0  0  0  0  0
    4.2330   18.5440    1.9570 C   0  0  0  0  0  0  0  0  0  0  0  0
    4.2490   19.2430    3.2830 C   0  0  2  0  0  0  0  0  0  0  0  0
    5.3100   20.1930    3.4460 O   0  0  0  0  0  0  0  0  0  0  0  0
    5.3420   19.0520    4.3170 C   0  0  0  0  0  0  0  0  0  0  0  0
    6.4960   18.1310    4.0720 C   0  0  0  0  0  0  0  0  0  0  0  0
    5.0390   19.3760    5.7470 C   0  0  0  0  0  0  0  0  0  0  0  0
    1.8430   17.0250   -0.1700 C   0  0  1  0  0  0  0  0  0  0  0  0
    0.4080   17.5430   -0.4560 C   0  0  0  0  0  0  0  0  0  0  0  0
   -0.3200   16.4290   -1.2500 C   0  0  0  0  0  0  0  0  0  0  0  0
    0.5940   15.1890   -1.1090 C   0  0  1  0  0  0  0  0  0  0  0  0
    0.2460   14.5920    0.2910 C   0  0  0  0  0  0  0  0  0  0  0  0
    0.4800   14.1140   -2.2390 C   0  0  2  0  0  0  0  0  0  0  0  0
   -0.8990   13.4430   -2.3640 C   0  0  0  0  0  0  0  0  0  0  0  0
   -1.0810   12.2030   -1.5530 C   0  0  0  0  0  0  0  0  0  0  0  0
   -0.0930   11.4910   -0.9800 C   0  0  0  0  0  0  0  0  0  0  0  0
    1.3780   11.8640   -1.2040 C   0  0  1  0  0  0  0  0  0  0  0  0
    2.1920   10.5860   -1.5380 C   0  0  0  0  0  0  0  0  0  0  0  0
    2.0200    9.4920   -0.4880 C   0  0  0  0  0  0  0  0  0  0  0  0
    0.5510    9.1080   -0.3360 C   0  0  2  0  0  0  0  0  0  0  0  0
    0.1100    8.4830   -1.5450 O   0  0  0  0  0  0  0  0  0  0  0  0
   -0.3680   10.3180   -0.0080 C   0  0  0  0  0  0  0  0  0  0  0  0
   -0.0900   10.8070    1.4350 C   0  0  0  0  0  0  0  0  0  0  0  0
   -1.8380    9.8180   -0.0210 C   0  0  0  0  0  0  0  0  0  0  0  0
    1.6450   13.0440   -2.2350 C   0  0  1  0  0  0  0  0  0  0  0  0
    1.7320   12.4740   -3.6840 C   0  0  0  0  0  0  0  0  0  0  0  0
    3.0490   13.6880   -1.9270 C   0  0  0  0  0  0  0  0  0  0  0  0
    3.0770   14.8260   -0.8890 C   0  0  0  0  0  0  0  0  0  0  0  0
    2.0050   15.8760   -1.1960 C   0  0  2  0  0  0  0  0  0  0  0  0
    2.3410   16.5090   -2.5890 C   0  0  0  0  0  0  0  0  0  0  0  0
    4.8322   17.3266    0.2779 H   0  0  0  0  0  0  0  0  0  0  0  0
    4.0912   16.6623   -1.2175 H   0  0  0  0  0  0  0  0  0  0  0  0
    4.7818   18.3205   -1.2175 H   0  0  0  0  0  0  0  0  0  0  0  0
    2.5968   18.8981   -0.9375 H   0  0  0  0  0  0  0  0  0  0  0  0
    2.8726   19.9193    1.0226 H   0  0  0  0  0  0  0  0  0  0  0  0
    2.1136   18.4367    1.7776 H   0  0  0  0  0  0  0  0  0  0  0  0
    4.3118   17.4597    2.1248 H   0  0  0  0  0  0  0  0  0  0  0  0
    5.0824   18.9145    1.3643 H   0  0  0  0  0  0  0  0  0  0  0  0
    3.1524   19.1897    3.3504 H   0  0  0  0  0  0  0  0  0  0  0  0
    6.9114   17.7995    5.0351 H   0  0  0  0  0  0  0  0  0  0  0  0
    6.1521   17.2563    3.5004 H   0  0  0  0  0  0  0  0  0  0  0  0
    7.2726   18.6603    3.5004 H   0  0  0  0  0  0  0  0  0  0  0  0
    5.6414   18.7319    6.4045 H   0  0  0  0  0  0  0  0  0  0  0  0
    5.2825   20.4305    5.9436 H   0  0  0  0  0  0  0  0  0  0  0  0
    3.9705   19.2036    5.9436 H   0  0  0  0  0  0  0  0  0  0  0  0
    2.0046   16.6448    0.8495 H   0  0  0  0  0  0  0  0  0  0  0  0
   -0.1188   17.7403    0.4893 H   0  0  0  0  0  0  0  0  0  0  0  0
    0.4340   18.4825   -1.0276 H   0  0  0  0  0  0  0  0  0  0  0  0
   -1.3127   16.2307   -0.8197 H   0  0  0  0  0  0  0  0  0  0  0  0
   -0.4871   16.7069   -2.3011 H   0  0  0  0  0  0  0  0  0  0  0  0
    0.6326   15.2552    1.0788 H   0  0  0  0  0  0  0  0  0  0  0  0
   -0.8458   14.5024    0.3903 H   0  0  0  0  0  0  0  0  0  0  0  0
    0.7060   13.5978    0.3903 H   0  0  0  0  0  0  0  0  0  0  0  0
    0.6030   14.7163   -3.1512 H   0  0  0  0  0  0  0  0  0  0  0  0
   -1.6609   14.1707   -2.0479 H   0  0  0  0  0  0  0  0  0  0  0  0
   -0.9932   13.1351   -3.4158 H   0  0  0  0  0  0  0  0  0  0  0  0
   -2.1099   11.8404   -1.4117 H   0  0  0  0  0  0  0  0  0  0  0  0
    1.7303   12.2932   -0.2544 H   0  0  0  0  0  0  0  0  0  0  0  0
    1.8553   10.1975   -2.5105 H   0  0  0  0  0  0  0  0  0  0  0  0
    3.2561   10.8639   -1.5597 H   0  0  0  0  0  0  0  0  0  0  0  0
    2.5940    8.6052   -0.7947 H   0  0  0  0  0  0  0  0  0  0  0  0
    2.3854    9.8716    0.4776 H   0  0  0  0  0  0  0  0  0  0  0  0
    0.4775    8.4179    0.5175 H   0  0  0  0  0  0  0  0  0  0  0  0
   -0.3080    9.1670   -2.0950 H   0  0  0  0  0  0  0  0  0  0  0  0
   -0.5017   10.0828    2.1533 H   0  0  0  0  0  0  0  0  0  0  0  0
    0.9954   10.8989    1.5883 H   0  0  0  0  0  0  0  0  0  0  0  0
   -0.5662   11.7867    1.5883 H   0  0  0  0  0  0  0  0  0  0  0  0
   -2.1933    9.6971    1.0130 H   0  0  0  0  0  0  0  0  0  0  0  0
   -2.4702   10.5516   -0.5426 H   0  0  0  0  0  0  0  0  0  0  0  0
   -1.8918    8.8510   -0.5426 H   0  0  0  0  0  0  0  0  0  0  0  0
    1.8978   11.3874   -3.6412 H   0  0  0  0  0  0  0  0  0  0  0  0
    0.7919   12.6808   -4.2164 H   0  0  0  0  0  0  0  0  0  0  0  0
    2.5676   12.9518   -4.2164 H   0  0  0  0  0  0  0  0  0  0  0  0
    3.7096   12.8878   -1.5618 H   0  0  0  0  0  0  0  0  0  0  0  0
    3.3672   14.1519   -2.8723 H   0  0  0  0  0  0  0  0  0  0  0  0
    2.8928   14.4056    0.1107 H   0  0  0  0  0  0  0  0  0  0  0  0
    4.0635   15.3110   -0.9275 H   0  0  0  0  0  0  0  0  0  0  0  0
    2.8520   17.4717   -2.4406 H   0  0  0  0  0  0  0  0  0  0  0  0
    2.9968   15.8288   -3.1523 H   0  0  0  0  0  0  0  0  0  0  0  0
    1.4101   16.6710   -3.1523 H   0  0  0  0  0  0  0  0  0  0  0  0
  1  2  1  0
  2  3  1  0
  3  4  1  0
  4  5  1  0
  5  6  1  0
  6  7  1  0
  7  8  1  0
  7  9  1  0
  2 10  1  0
 10 11  1  0
 11 12  1  0
 12 13  1  0
 13 14  1  1
 13 15  1  0
 15 16  1  0
 16 17  1  0
 17 18  2  0
 18 19  1  0
 19 20  1  0
 20 21  1  0
 21 22  1  0
 22 23  1  0
 22 24  1  0
 24 25  1  0
 24 26  1  0
 19 27  1  0
 27 28  1  6
 27 29  1  0
 29 30  1  0
 30 31  1  0
 31 32  1  6
  7  5  1  0
 31 10  1  0
 31 13  1  0
 27 15  1  0
 24 18  1  0
  1 33  1  0
  1 34  1  0
  1 35  1  0
  2 36  1  6
  3 37  1  0
  3 38  1  0
  4 39  1  0
  4 40  1  0
  5 41  1  1
  8 42  1  0
  8 43  1  0
  8 44  1  0
  9 45  1  0
  9 46  1  0
  9 47  1  0
 10 48  1  1
 11 49  1  0
 11 50  1  0
 12 51  1  0
 12 52  1  0
 14 53  1  0
 14 54  1  0
 14 55  1  0
 15 56  1  6
 16 57  1  0
 16 58  1  0
 17 59  1  0
 19 60  1  1
 20 61  1  0
 20 62  1  0
 21 63  1  0
 21 64  1  0
 22 65  1  1
 23 66  1  0
 25 67  1  0
 25 68  1  0
 25 69  1  0
 26 70  1  0
 26 71  1  0
 26 72  1  0
 28 73  1  0
 28 74  1  0
 28 75  1  0
 29 76  1  0
 29 77  1  0
 30 78  1  0
 30 79  1  0
 32 80  1  0
 32 81  1  0
 32 82  1  0
M  END
>  <meeko>  (3) 
{"is_sidechain": [false], "intermolecular_energy": 2.731, "internal_energy": -0.839}

$$$$
EPH_relaxed_0001_pdb2pqr_Repair_382_r2_0001_out
     RDKit          3D

 82 86  0  0  0  0  0  0  0  0999 V2000
   -3.3770    9.2990    0.5820 C   0  0  0  0  0  0  0  0  0  0  0  0
   -2.5680    9.6780   -0.6610 C   0  0  2  0  0  0  0  0  0  0  0  0
   -1.8990    8.4520   -1.3150 C   0  0  0  0  0  0  0  0  0  0  0  0
   -2.8150    7.6910   -2.2770 C   0  0  0  0  0  0  0  0  0  0  0  0
   -4.2520    7.7790   -1.8610 C   0  0  2  0  0  0  0  0  0  0  0  0
   -4.7860    6.5750   -1.2940 O   0  0  0  0  0  0  0  0  0  0  0  0
   -5.3680    7.0030   -2.5360 C   0  0  0  0  0  0  0  0  0  0  0  0
   -5.0940    6.0830   -3.6850 C   0  0  0  0  0  0  0  0  0  0  0  0
   -6.7710    7.5060   -2.4030 C   0  0  0  0  0  0  0  0  0  0  0  0
   -1.5130   10.7150   -0.2980 C   0  0  1  0  0  0  0  0  0  0  0  0
   -0.4160   10.1480    0.6420 C   0  0  0  0  0  0  0  0  0  0  0  0
    0.9140   10.8400    0.2470 C   0  0  0  0  0  0  0  0  0  0  0  0
    0.4870   12.0110   -0.6690 C   0  0  1  0  0  0  0  0  0  0  0  0
    0.0430   13.1430    0.3080 C   0  0  0  0  0  0  0  0  0  0  0  0
    1.5590   12.5160   -1.6890 C   0  0  2  0  0  0  0  0  0  0  0  0
    2.8380   13.0950   -1.0590 C   0  0  0  0  0  0  0  0  0  0  0  0
    2.8090   14.5630   -0.7910 C   0  0  0  0  0  0  0  0  0  0  0  0
    1.9180   15.4330   -1.3010 C   0  0  0  0  0  0  0  0  0  0  0  0
    0.8670   14.9780   -2.3220 C   0  0  1  0  0  0  0  0  0  0  0  0
    0.8180   15.9860   -3.5000 C   0  0  0  0  0  0  0  0  0  0  0  0
    0.5940   17.4210   -3.0330 C   0  0  0  0  0  0  0  0  0  0  0  0
    1.6900   17.8570   -2.0640 C   0  0  2  0  0  0  0  0  0  0  0  0
    2.9310   17.9260   -2.7740 O   0  0  0  0  0  0  0  0  0  0  0  0
    1.8400   16.9100   -0.8410 C   0  0  0  0  0  0  0  0  0  0  0  0
    0.6120   17.0650    0.0900 C   0  0  0  0  0  0  0  0  0  0  0  0
    3.0700   17.3820   -0.0190 C   0  0  0  0  0  0  0  0  0  0  0  0
    0.9850   13.4710   -2.8130 C   0  0  1  0  0  0  0  0  0  0  0  0
    1.9690   13.3800   -4.0190 C   0  0  0  0  0  0  0  0  0  0  0  0
   -0.4170   12.9920   -3.3460 C   0  0  0  0  0  0  0  0  0  0  0  0
   -1.3860   12.3920   -2.3100 C   0  0  0  0  0  0  0  0  0  0  0  0
   -0.6880   11.3280   -1.4590 C   0  0  2  0  0  0  0  0  0  0  0  0
   -0.2500   10.1640   -2.4120 C   0  0  0  0  0  0  0  0  0  0  0  0
   -2.8082    9.5655    1.4850 H   0  0  0  0  0  0  0  0  0  0  0  0
   -4.3331    9.8429    0.5771 H   0  0  0  0  0  0  0  0  0  0  0  0
   -3.5711    8.2163    0.5771 H   0  0  0  0  0  0  0  0  0  0  0  0
   -3.2689   10.1021   -1.3951 H   0  0  0  0  0  0  0  0  0  0  0  0
   -1.0163    8.7953   -1.8745 H   0  0  0  0  0  0  0  0  0  0  0  0
   -1.6374    7.7574   -0.5032 H   0  0  0  0  0  0  0  0  0  0  0  0
   -2.7087    8.1196   -3.2845 H   0  0  0  0  0  0  0  0  0  0  0  0
   -2.5193    6.6316   -2.2659 H   0  0  0  0  0  0  0  0  0  0  0  0
   -4.1395    8.8449   -1.6138 H   0  0  0  0  0  0  0  0  0  0  0  0
   -4.7997    5.0949   -3.3015 H   0  0  0  0  0  0  0  0  0  0  0  0
   -6.0013    5.9827   -4.2989 H   0  0  0  0  0  0  0  0  0  0  0  0
   -4.2797    6.4954   -4.2989 H   0  0  0  0  0  0  0  0  0  0  0  0
   -7.0280    7.5981   -1.3374 H   0  0  0  0  0  0  0  0  0  0  0  0
   -6.8551    8.4903   -2.8869 H   0  0  0  0  0  0  0  0  0  0  0  0
   -7.4613    6.7994   -2.8869 H   0  0  0  0  0  0  0  0  0  0  0  0
   -2.1582   11.4837    0.1524 H   0  0  0  0  0  0  0  0  0  0  0  0
   -0.6627   10.3721    1.6903 H   0  0  0  0  0  0  0  0  0  0  0  0
   -0.3371    9.0554    0.5424 H   0  0  0  0  0  0  0  0  0  0  0  0
    1.4364   11.2154    1.1393 H   0  0  0  0  0  0  0  0  0  0  0  0
    1.6103   10.1511   -0.2536 H   0  0  0  0  0  0  0  0  0  0  0  0
    0.1758   12.8044    1.3461 H   0  0  0  0  0  0  0  0  0  0  0  0
    0.6562   14.0394    0.1334 H   0  0  0  0  0  0  0  0  0  0  0  0
   -1.0161   13.3835    0.1334 H   0  0  0  0  0  0  0  0  0  0  0  0
    1.8669   11.5850   -2.1875 H   0  0  0  0  0  0  0  0  0  0  0  0
    3.0099   12.5784   -0.1032 H   0  0  0  0  0  0  0  0  0  0  0  0
    3.6389   12.9362   -1.7962 H   0  0  0  0  0  0  0  0  0  0  0  0
    3.5810   14.9679   -0.1201 H   0  0  0  0  0  0  0  0  0  0  0  0
   -0.0953   14.9804   -1.7892 H   0  0  0  0  0  0  0  0  0  0  0  0
    1.7720   15.9375   -4.0455 H   0  0  0  0  0  0  0  0  0  0  0  0
   -0.0303   15.7077   -4.1426 H   0  0  0  0  0  0  0  0  0  0  0  0
    0.5996   18.0890   -3.9069 H   0  0  0  0  0  0  0  0  0  0  0  0
   -0.3746   17.4742   -2.5143 H   0  0  0  0  0  0  0  0  0  0  0  0
    1.4046   18.8413   -1.6644 H   0  0  0  0  0  0  0  0  0  0  0  0
    3.6380   17.6740   -2.1560 H   0  0  0  0  0  0  0  0  0  0  0  0
    0.9398   17.0236    1.1392 H   0  0  0  0  0  0  0  0  0  0  0  0
    0.1245   18.0318   -0.1040 H   0  0  0  0  0  0  0  0  0  0  0  0
   -0.1004   16.2497   -0.1040 H   0  0  0  0  0  0  0  0  0  0  0  0
    2.8479   17.2968    1.0550 H   0  0  0  0  0  0  0  0  0  0  0  0
    3.9385   16.7533   -0.2648 H   0  0  0  0  0  0  0  0  0  0  0  0
    3.2949   18.4303   -0.2648 H   0  0  0  0  0  0  0  0  0  0  0  0
    2.9992   13.2847   -3.6453 H   0  0  0  0  0  0  0  0  0  0  0  0
    1.7183   12.5012   -4.6313 H   0  0  0  0  0  0  0  0  0  0  0  0
    1.8837   14.2899   -4.6313 H   0  0  0  0  0  0  0  0  0  0  0  0
   -0.9140   13.8607   -3.8024 H   0  0  0  0  0  0  0  0  0  0  0  0
   -0.1946   12.1697   -4.0420 H   0  0  0  0  0  0  0  0  0  0  0  0
   -1.7527   13.1946   -1.6532 H   0  0  0  0  0  0  0  0  0  0  0  0
   -2.2231   11.9197   -2.8450 H   0  0  0  0  0  0  0  0  0  0  0  0
    0.0747    9.3012   -1.8118 H   0  0  0  0  0  0  0  0  0  0  0  0
   -1.0992    9.8705   -3.0466 H   0  0  0  0  0  0  0  0  0  0  0  0
    0.5820   10.5031   -3.0466 H   0  0  0  0  0  0  0  0  0  0  0  0
  1  2  1  0
  2  3  1  0
  3  4  1  0
  4  5  1  0
  5  6  1  0
  6  7  1  0
  7  8  1  0
  7  9  1  0
  2 10  1  0
 10 11  1  0
 11 12  1  0
 12 13  1  0
 13 14  1  1
 13 15  1  0
 15 16  1  0
 16 17  1  0
 17 18  2  0
 18 19  1  0
 19 20  1  0
 20 21  1  0
 21 22  1  0
 22 23  1  0
 22 24  1  0
 24 25  1  0
 24 26  1  0
 19 27  1  0
 27 28  1  6
 27 29  1  0
 29 30  1  0
 30 31  1  0
 31 32  1  6
  7  5  1  0
 31 10  1  0
 31 13  1  0
 27 15  1  0
 24 18  1  0
  1 33  1  0
  1 34  1  0
  1 35  1  0
  2 36  1  6
  3 37  1  0
  3 38  1  0
  4 39  1  0
  4 40  1  0
  5 41  1  1
  8 42  1  0
  8 43  1  0
  8 44  1  0
  9 45  1  0
  9 46  1  0
  9 47  1  0
 10 48  1  1
 11 49  1  0
 11 50  1  0
 12 51  1  0
 12 52  1  0
 14 53  1  0
 14 54  1  0
 14 55  1  0
 15 56  1  6
 16 57  1  0
 16 58  1  0
 17 59  1  0
 19 60  1  1
 20 61  1  0
 20 62  1  0
 21 63  1  0
 21 64  1  0
 22 65  1  1
 23 66  1  0
 25 67  1  0
 25 68  1  0
 25 69  1  0
 26 70  1  0
 26 71  1  0
 26 72  1  0
 28 73  1  0
 28 74  1  0
 28 75  1  0
 29 76  1  0
 29 77  1  0
 30 78  1  0
 30 79  1  0
 32 80  1  0
 32 81  1  0
 32 82  1  0
M  END
>  <meeko>  (4) 
{"is_sidechain": [false], "intermolecular_energy": 2.731, "internal_energy": -0.839}

$$$$
EPH_relaxed_0001_pdb2pqr_Repair_382_r2_0001_out
     RDKit          3D

 82 86  0  0  0  0  0  0  0  0999 V2000
    2.2380   18.1020   -2.6520 C   0  0  0  0  0  0  0  0  0  0  0  0
    0.8840   17.7500   -2.0300 C   0  0  2  0  0  0  0  0  0  0  0  0
    0.9040   17.8650   -0.4930 C   0  0  0  0  0  0  0  0  0  0  0  0
    2.3040   18.0680    0.0910 C   0  0  0  0  0  0  0  0  0  0  0  0
    2.3300   19.1770    1.0990 C   0  0  2  0  0  0  0  0  0  0  0  0
    3.3070   20.1940    0.8450 O   0  0  0  0  0  0  0  0  0  0  0  0
    3.4910   19.4230    2.0440 C   0  0  0  0  0  0  0  0  0  0  0  0
    4.7090   18.5530    2.0260 C   0  0  0  0  0  0  0  0  0  0  0  0
    3.2400   20.1940    3.3020 C   0  0  0  0  0  0  0  0  0  0  0  0
    0.4730   16.3410   -2.4420 C   0  0  1  0  0  0  0  0  0  0  0  0
    0.5590   16.1180   -3.9750 C   0  0  0  0  0  0  0  0  0  0  0  0
    1.0010   14.6480   -4.1900 C   0  0  0  0  0  0  0  0  0  0  0  0
    0.8340   13.9850   -2.8020 C   0  0  1  0  0  0  0  0  0  0  0  0
   -0.6860   13.6450   -2.7000 C   0  0  0  0  0  0  0  0  0  0  0  0
    1.7260   12.7310   -2.5250 C   0  0  2  0  0  0  0  0  0  0  0  0
    1.4700   11.5290   -3.4510 C   0  0  0  0  0  0  0  0  0  0  0  0
    0.4440   10.5580   -2.9670 C   0  0  0  0  0  0  0  0  0  0  0  0
   -0.0370   10.4900   -1.7120 C   0  0  0  0  0  0  0  0  0  0  0  0
    0.5250   11.3880   -0.6030 C   0  0  1  0  0  0  0  0  0  0  0  0
    0.7930   10.5360    0.6660 C   0  0  0  0  0  0  0  0  0  0  0  0
   -0.4380    9.7540    1.1160 C   0  0  0  0  0  0  0  0  0  0  0  0
   -0.9330    8.8310    0.0060 C   0  0  2  0  0  0  0  0  0  0  0  0
    0.0480    7.8130   -0.2180 O   0  0  0  0  0  0  0  0  0  0  0  0
   -1.2260    9.5760   -1.3260 C   0  0  0  0  0  0  0  0  0  0  0  0
   -2.4860   10.4610   -1.1610 C   0  0  0  0  0  0  0  0  0  0  0  0
   -1.5800    8.5120   -2.4000 C   0  0  0  0  0  0  0  0  0  0  0  0
    1.7700   12.2900   -1.0050 C   0  0  1  0  0  0  0  0  0  0  0  0
    3.0930   11.4890   -0.8120 C   0  0  0  0  0  0  0  0  0  0  0  0
    1.8500   13.5220   -0.0270 C   0  0  0  0  0  0  0  0  0  0  0  0
    1.0410   14.7730   -0.4180 C   0  0  0  0  0  0  0  0  0  0  0  0
    1.3050   15.1640   -1.8760 C   0  0  2  0  0  0  0  0  0  0  0  0
    2.8230   15.5330   -2.0040 C   0  0  0  0  0  0  0  0  0  0  0  0
    2.9700   18.2923   -1.8533 H   0  0  0  0  0  0  0  0  0  0  0  0
    2.5844   17.2640   -3.2748 H   0  0  0  0  0  0  0  0  0  0  0  0
    2.1324   19.0025   -3.2748 H   0  0  0  0  0  0  0  0  0  0  0  0
    0.1483   18.4763   -2.4057 H   0  0  0  0  0  0  0  0  0  0  0  0
    0.2784   18.7213   -0.2007 H   0  0  0  0  0  0  0  0  0  0  0  0
    0.5247   16.9124   -0.0946 H   0  0  0  0  0  0  0  0  0  0  0  0
    2.6252   17.1358    0.5786 H   0  0  0  0  0  0  0  0  0  0  0  0
    2.9825   18.3373   -0.7319 H   0  0  0  0  0  0  0  0  0  0  0  0
    1.2481   19.0771    1.2707 H   0  0  0  0  0  0  0  0  0  0  0  0
    5.0175   18.3326    3.0586 H   0  0  0  0  0  0  0  0  0  0  0  0
    4.4802   17.6127    1.5031 H   0  0  0  0  0  0  0  0  0  0  0  0
    5.5243   19.0744    1.5031 H   0  0  0  0  0  0  0  0  0  0  0  0
    3.4484   19.5540    4.1720 H   0  0  0  0  0  0  0  0  0  0  0  0
    3.8976   21.0754    3.3293 H   0  0  0  0  0  0  0  0  0  0  0  0
    2.1896   20.5193    3.3293 H   0  0  0  0  0  0  0  0  0  0  0  0
   -0.5451   16.3168   -2.0261 H   0  0  0  0  0  0  0  0  0  0  0  0
   -0.4238   16.2895   -4.4383 H   0  0  0  0  0  0  0  0  0  0  0  0
    1.2733   16.8162   -4.4358 H   0  0  0  0  0  0  0  0  0  0  0  0
    0.3604   14.1547   -4.9359 H   0  0  0  0  0  0  0  0  0  0  0  0
    2.0313   14.5725   -4.5678 H   0  0  0  0  0  0  0  0  0  0  0  0
   -0.9769   13.5799   -1.6412 H   0  0  0  0  0  0  0  0  0  0  0  0
   -1.2722   14.4342   -3.1935 H   0  0  0  0  0  0  0  0  0  0  0  0
   -0.8801   12.6812   -3.1935 H   0  0  0  0  0  0  0  0  0  0  0  0
    2.7313   13.0964   -2.7818 H   0  0  0  0  0  0  0  0  0  0  0  0
    1.1388   11.9156   -4.4261 H   0  0  0  0  0  0  0  0  0  0  0  0
    2.4179   10.9727   -3.4965 H   0  0  0  0  0  0  0  0  0  0  0  0
    0.0480    9.8376   -3.6979 H   0  0  0  0  0  0  0  0  0  0  0  0
   -0.2535   12.1365   -0.3940 H   0  0  0  0  0  0  0  0  0  0  0  0
    1.6029    9.8242    0.4484 H   0  0  0  0  0  0  0  0  0  0  0  0
    1.0670   11.2245    1.4789 H   0  0  0  0  0  0  0  0  0  0  0  0
   -0.1783    9.1497    1.9977 H   0  0  0  0  0  0  0  0  0  0  0  0
   -1.2376   10.4684    1.3616 H   0  0  0  0  0  0  0  0  0  0  0  0
   -1.8876    8.3974    0.3388 H   0  0  0  0  0  0  0  0  0  0  0  0
    0.3060    7.4570    0.6490 H   0  0  0  0  0  0  0  0  0  0  0  0
   -2.6939   10.6070   -0.0907 H   0  0  0  0  0  0  0  0  0  0  0  0
   -2.3133   11.4373   -1.6375 H   0  0  0  0  0  0  0  0  0  0  0  0
   -3.3458    9.9673   -1.6375 H   0  0  0  0  0  0  0  0  0  0  0  0
   -1.8901    7.5801   -1.9046 H   0  0  0  0  0  0  0  0  0  0  0  0
   -2.4026    8.8846   -3.0281 H   0  0  0  0  0  0  0  0  0  0  0  0
   -0.6981    8.3175   -3.0281 H   0  0  0  0  0  0  0  0  0  0  0  0
    3.2944   11.3671    0.2625 H   0  0  0  0  0  0  0  0  0  0  0  0
    2.9940   10.4990   -1.2811 H   0  0  0  0  0  0  0  0  0  0  0  0
    3.9243   12.0356   -1.2811 H   0  0  0  0  0  0  0  0  0  0  0  0
    1.4918   13.1886    0.9582 H   0  0  0  0  0  0  0  0  0  0  0  0
    2.9025   13.8408   -0.0513 H   0  0  0  0  0  0  0  0  0  0  0  0
   -0.0311   14.5625   -0.2905 H   0  0  0  0  0  0  0  0  0  0  0  0
    1.3497   15.6067    0.2299 H   0  0  0  0  0  0  0  0  0  0  0  0
    3.2604   15.6393   -1.0003 H   0  0  0  0  0  0  0  0  0  0  0  0
    3.3491   14.7366   -2.5508 H   0  0  0  0  0  0  0  0  0  0  0  0
    2.9248   16.4820   -2.5508 H   0  0  0  0  0  0  0  0  0  0  0  0
  1  2  1  0
  2  3  1  0
  3  4  1  0
  4  5  1  0
  5  6  1  0
  6  7  1  0
  7  8  1  0
  7  9  1  0
  2 10  1  0
 10 11  1  0
 11 12  1  0
 12 13  1  0
 13 14  1  1
 13 15  1  0
 15 16  1  0
 16 17  1  0
 17 18  2  0
 18 19  1  0
 19 20  1  0
 20 21  1  0
 21 22  1  0
 22 23  1  0
 22 24  1  0
 24 25  1  0
 24 26  1  0
 19 27  1  0
 27 28  1  6
 27 29  1  0
 29 30  1  0
 30 31  1  0
 31 32  1  1
  7  5  1  0
 31 10  1  0
 31 13  1  0
 27 15  1  0
 24 18  1  0
  1 33  1  0
  1 34  1  0
  1 35  1  0
  2 36  1  6
  3 37  1  0
  3 38  1  0
  4 39  1  0
  4 40  1  0
  5 41  1  1
  8 42  1  0
  8 43  1  0
  8 44  1  0
  9 45  1  0
  9 46  1  0
  9 47  1  0
 10 48  1  1
 11 49  1  0
 11 50  1  0
 12 51  1  0
 12 52  1  0
 14 53  1  0
 14 54  1  0
 14 55  1  0
 15 56  1  6
 16 57  1  0
 16 58  1  0
 17 59  1  0
 19 60  1  1
 20 61  1  0
 20 62  1  0
 21 63  1  0
 21 64  1  0
 22 65  1  1
 23 66  1  0
 25 67  1  0
 25 68  1  0
 25 69  1  0
 26 70  1  0
 26 71  1  0
 26 72  1  0
 28 73  1  0
 28 74  1  0
 28 75  1  0
 29 76  1  0
 29 77  1  0
 30 78  1  0
 30 79  1  0
 32 80  1  0
 32 81  1  0
 32 82  1  0
M  END
>  <meeko>  (5) 
{"is_sidechain": [false], "intermolecular_energy": 2.731, "internal_energy": -0.839}

$$$$
EPH_relaxed_0001_pdb2pqr_Repair_382_r2_0001_out
     RDKit          3D

 82 86  0  0  0  0  0  0  0  0999 V2000
    3.6600   17.8370    0.8910 C   0  0  0  0  0  0  0  0  0  0  0  0
    2.7610   18.2040   -0.2930 C   0  0  2  0  0  0  0  0  0  0  0  0
    2.0470   19.5550   -0.0840 C   0  0  0  0  0  0  0  0  0  0  0  0
    0.9430   19.5090    0.9760 C   0  0  0  0  0  0  0  0  0  0  0  0
   -0.3390   20.0930    0.4660 C   0  0  2  0  0  0  0  0  0  0  0  0
   -1.3850   20.1850    1.4410 O   0  0  0  0  0  0  0  0  0  0  0  0
   -1.6260   19.3000    0.3360 C   0  0  0  0  0  0  0  0  0  0  0  0
   -1.6940   17.8550    0.7170 C   0  0  0  0  0  0  0  0  0  0  0  0
   -2.6760   19.7910   -0.6120 C   0  0  0  0  0  0  0  0  0  0  0  0
    1.7340   17.1030   -0.5270 C   0  0  1  0  0  0  0  0  0  0  0  0
    0.5400   17.5740   -1.3990 C   0  0  0  0  0  0  0  0  0  0  0  0
    0.1120   16.3620   -2.2650 C   0  0  0  0  0  0  0  0  0  0  0  0
    0.8430   15.1540   -1.6330 C   0  0  1  0  0  0  0  0  0  0  0  0
   -0.0350   14.7490   -0.4080 C   0  0  0  0  0  0  0  0  0  0  0  0
    1.1110   13.9370   -2.5780 C   0  0  2  0  0  0  0  0  0  0  0  0
   -0.1490   13.2520   -3.1330 C   0  0  0  0  0  0  0  0  0  0  0  0
   -0.6840   12.1320   -2.3050 C   0  0  0  0  0  0  0  0  0  0  0  0
   -0.0210   11.5050   -1.3150 C   0  0  0  0  0  0  0  0  0  0  0  0
    1.4430   11.8480   -1.0070 C   0  0  1  0  0  0  0  0  0  0  0  0
    2.2580   10.5390   -0.8450 C   0  0  0  0  0  0  0  0  0  0  0  0
    1.6500    9.5950    0.1890 C   0  0  0  0  0  0  0  0  0  0  0  0
    0.2150    9.2310   -0.1820 C   0  0  2  0  0  0  0  0  0  0  0  0
    0.2330    8.4490   -1.3800 O   0  0  0  0  0  0  0  0  0  0  0  0
   -0.7000   10.4720   -0.3820 C   0  0  0  0  0  0  0  0  0  0  0  0
   -0.9620   11.1510    0.9850 C   0  0  0  0  0  0  0  0  0  0  0  0
   -2.0790    9.9720   -0.8900 C   0  0  0  0  0  0  0  0  0  0  0  0
    2.1360   12.8800   -1.9980 C   0  0  1  0  0  0  0  0  0  0  0  0
    2.7340   12.1220   -3.2220 C   0  0  0  0  0  0  0  0  0  0  0  0
    3.3490   13.5630   -1.2620 C   0  0  0  0  0  0  0  0  0  0  0  0
    3.0400   14.8300   -0.4420 C   0  0  0  0  0  0  0  0  0  0  0  0
    2.2150   15.8260   -1.2620 C   0  0  2  0  0  0  0  0  0  0  0  0
    3.0820   16.2680   -2.4900 C   0  0  0  0  0  0  0  0  0  0  0  0
    3.1328   18.0522    1.8322 H   0  0  0  0  0  0  0  0  0  0  0  0
    3.9070   16.7661    0.8457 H   0  0  0  0  0  0  0  0  0  0  0  0
    4.5859   18.4291    0.8457 H   0  0  0  0  0  0  0  0  0  0  0  0
    3.4057   18.3052   -1.1785 H   0  0  0  0  0  0  0  0  0  0  0  0
    2.7954   20.2993    0.2258 H   0  0  0  0  0  0  0  0  0  0  0  0
    1.5663   19.8161   -1.0383 H   0  0  0  0  0  0  0  0  0  0  0  0
    0.7682   18.4617    1.2636 H   0  0  0  0  0  0  0  0  0  0  0  0
    1.2718   20.1052    1.8400 H   0  0  0  0  0  0  0  0  0  0  0  0
    0.2074   20.7344   -0.2411 H   0  0  0  0  0  0  0  0  0  0  0  0
   -1.6983   17.7647    1.8133 H   0  0  0  0  0  0  0  0  0  0  0  0
   -2.6140   17.4111    0.3089 H   0  0  0  0  0  0  0  0  0  0  0  0
   -0.8197   17.3267    0.3089 H   0  0  0  0  0  0  0  0  0  0  0  0
   -3.5279   20.1893   -0.0413 H   0  0  0  0  0  0  0  0  0  0  0  0
   -2.2553   20.5858   -1.2455 H   0  0  0  0  0  0  0  0  0  0  0  0
   -3.0162   18.9586   -1.2455 H   0  0  0  0  0  0  0  0  0  0  0  0
    1.4800   16.8640    0.5162 H   0  0  0  0  0  0  0  0  0  0  0  0
   -0.2942   17.8944   -0.7575 H   0  0  0  0  0  0  0  0  0  0  0  0
    0.8252   18.4287   -2.0300 H   0  0  0  0  0  0  0  0  0  0  0  0
   -0.9782   16.2211   -2.2241 H   0  0  0  0  0  0  0  0  0  0  0  0
    0.3681   16.4962   -3.3263 H   0  0  0  0  0  0  0  0  0  0  0  0
    0.4979   14.9948    0.5224 H   0  0  0  0  0  0  0  0  0  0  0  0
   -0.9871   15.2989   -0.4415 H   0  0  0  0  0  0  0  0  0  0  0  0
   -0.2347   13.6678   -0.4415 H   0  0  0  0  0  0  0  0  0  0  0  0
    1.5973   14.4123   -3.4427 H   0  0  0  0  0  0  0  0  0  0  0  0
   -0.9374   14.0136   -3.2243 H   0  0  0  0  0  0  0  0  0  0  0  0
    0.1463   12.8053   -4.0939 H   0  0  0  0  0  0  0  0  0  0  0  0
   -1.7066   11.7896   -2.5217 H   0  0  0  0  0  0  0  0  0  0  0  0
    1.4328   12.4011   -0.0562 H   0  0  0  0  0  0  0  0  0  0  0  0
    2.2931   10.0231   -1.8159 H   0  0  0  0  0  0  0  0  0  0  0  0
    3.2643   10.8134   -0.4956 H   0  0  0  0  0  0  0  0  0  0  0  0
    2.2535    8.6766    0.2368 H   0  0  0  0  0  0  0  0  0  0  0  0
    1.6425   10.1016    1.1654 H   0  0  0  0  0  0  0  0  0  0  0  0
   -0.2085    8.6613    0.6583 H   0  0  0  0  0  0  0  0  0  0  0  0
    1.0970    8.0070   -1.4300 H   0  0  0  0  0  0  0  0  0  0  0  0
   -0.6945   10.4577    1.7960 H   0  0  0  0  0  0  0  0  0  0  0  0
   -0.3509   12.0621    1.0650 H   0  0  0  0  0  0  0  0  0  0  0  0
   -2.0267   11.4155    1.0650 H   0  0  0  0  0  0  0  0  0  0  0  0
   -2.7238    9.7382   -0.0300 H   0  0  0  0  0  0  0  0  0  0  0  0
   -2.5513   10.7561   -1.5000 H   0  0  0  0  0  0  0  0  0  0  0  0
   -1.9390    9.0674   -1.5000 H   0  0  0  0  0  0  0  0  0  0  0  0
    3.3790   11.3044   -2.8676 H   0  0  0  0  0  0  0  0  0  0  0  0
    1.9174   11.7071   -3.8310 H   0  0  0  0  0  0  0  0  0  0  0  0
    3.3276   12.8196   -3.8310 H   0  0  0  0  0  0  0  0  0  0  0  0
    3.7830   12.8204   -0.5762 H   0  0  0  0  0  0  0  0  0  0  0  0
    4.0218   13.8972   -2.0655 H   0  0  0  0  0  0  0  0  0  0  0  0
    2.4729   14.5473    0.4571 H   0  0  0  0  0  0  0  0  0  0  0  0
    3.9907   15.3078   -0.1632 H   0  0  0  0  0  0  0  0  0  0  0  0
    4.0090   16.7406   -2.1332 H   0  0  0  0  0  0  0  0  0  0  0  0
    3.3308   15.3867   -3.0994 H   0  0  0  0  0  0  0  0  0  0  0  0
    2.5149   16.9870   -3.0994 H   0  0  0  0  0  0  0  0  0  0  0  0
  1  2  1  0
  2  3  1  0
  3  4  1  0
  4  5  1  0
  5  6  1  0
  6  7  1  0
  7  8  1  0
  7  9  1  0
  2 10  1  0
 10 11  1  0
 11 12  1  0
 12 13  1  0
 13 14  1  1
 13 15  1  0
 15 16  1  0
 16 17  1  0
 17 18  2  0
 18 19  1  0
 19 20  1  0
 20 21  1  0
 21 22  1  0
 22 23  1  0
 22 24  1  0
 24 25  1  0
 24 26  1  0
 19 27  1  0
 27 28  1  6
 27 29  1  0
 29 30  1  0
 30 31  1  0
 31 32  1  6
  7  5  1  0
 31 10  1  0
 31 13  1  0
 27 15  1  0
 24 18  1  0
  1 33  1  0
  1 34  1  0
  1 35  1  0
  2 36  1  6
  3 37  1  0
  3 38  1  0
  4 39  1  0
  4 40  1  0
  5 41  1  6
  8 42  1  0
  8 43  1  0
  8 44  1  0
  9 45  1  0
  9 46  1  0
  9 47  1  0
 10 48  1  1
 11 49  1  0
 11 50  1  0
 12 51  1  0
 12 52  1  0
 14 53  1  0
 14 54  1  0
 14 55  1  0
 15 56  1  6
 16 57  1  0
 16 58  1  0
 17 59  1  0
 19 60  1  1
 20 61  1  0
 20 62  1  0
 21 63  1  0
 21 64  1  0
 22 65  1  1
 23 66  1  0
 25 67  1  0
 25 68  1  0
 25 69  1  0
 26 70  1  0
 26 71  1  0
 26 72  1  0
 28 73  1  0
 28 74  1  0
 28 75  1  0
 29 76  1  0
 29 77  1  0
 30 78  1  0
 30 79  1  0
 32 80  1  0
 32 81  1  0
 32 82  1  0
M  END
>  <meeko>  (6) 
{"is_sidechain": [false], "intermolecular_energy": 2.731, "internal_energy": -0.839}

$$$$
EPH_relaxed_0001_pdb2pqr_Repair_382_r2_0001_out
     RDKit          3D

 82 86  0  0  0  0  0  0  0  0999 V2000
   -4.9590    6.0390   -4.6650 C   0  0  0  0  0  0  0  0  0  0  0  0
   -5.2750    6.9420   -3.4690 C   0  0  2  0  0  0  0  0  0  0  0  0
   -4.1930    6.8550   -2.3740 C   0  0  0  0  0  0  0  0  0  0  0  0
   -2.9300    7.6610   -2.6900 C   0  0  0  0  0  0  0  0  0  0  0  0
   -2.2700    8.1690   -1.4440 C   0  0  2  0  0  0  0  0  0  0  0  0
   -2.4210    9.5770   -1.2180 O   0  0  0  0  0  0  0  0  0  0  0  0
   -1.0820    9.1120   -1.4520 C   0  0  0  0  0  0  0  0  0  0  0  0
   -0.4830    9.6020   -2.7330 C   0  0  0  0  0  0  0  0  0  0  0  0
   -0.2040    9.1680   -0.2400 C   0  0  0  0  0  0  0  0  0  0  0  0
   -6.6350    6.5770   -2.8870 C   0  0  1  0  0  0  0  0  0  0  0  0
   -6.5690    5.3540   -1.9350 C   0  0  0  0  0  0  0  0  0  0  0  0
   -7.6100    5.6030   -0.8130 C   0  0  0  0  0  0  0  0  0  0  0  0
   -8.4650    6.7840   -1.3300 C   0  0  1  0  0  0  0  0  0  0  0  0
   -9.4910    6.1360   -2.3120 C   0  0  0  0  0  0  0  0  0  0  0  0
   -9.1760    7.6500   -0.2400 C   0  0  2  0  0  0  0  0  0  0  0  0
  -10.2100    6.9000    0.6180 C   0  0  0  0  0  0  0  0  0  0  0  0
  -11.6080    6.9180    0.0930 C   0  0  0  0  0  0  0  0  0  0  0  0
  -12.0740    7.7420   -0.8630 C   0  0  0  0  0  0  0  0  0  0  0  0
  -11.1870    8.8470   -1.4520 C   0  0  1  0  0  0  0  0  0  0  0  0
  -11.9840   10.1770   -1.5080 C   0  0  0  0  0  0  0  0  0  0  0  0
  -13.3080   10.0340   -2.2510 C   0  0  0  0  0  0  0  0  0  0  0  0
  -14.1860    8.9670   -1.6010 C   0  0  2  0  0  0  0  0  0  0  0  0
  -14.5790    9.4220   -0.3030 O   0  0  0  0  0  0  0  0  0  0  0  0
  -13.4850    7.5860   -1.4820 C   0  0  0  0  0  0  0  0  0  0  0  0
  -13.3320    6.9560   -2.8880 C   0  0  0  0  0  0  0  0  0  0  0  0
  -14.4240    6.6410   -0.6830 C   0  0  0  0  0  0  0  0  0  0  0  0
   -9.7570    9.0200   -0.7790 C   0  0  1  0  0  0  0  0  0  0  0  0
   -9.8600    9.9750    0.4500 C   0  0  0  0  0  0  0  0  0  0  0  0
   -8.7880    9.7190   -1.8040 C   0  0  0  0  0  0  0  0  0  0  0  0
   -8.0230    8.7990   -2.7750 C   0  0  0  0  0  0  0  0  0  0  0  0
   -7.3500    7.6470   -2.0240 C   0  0  2  0  0  0  0  0  0  0  0  0
   -6.2960    8.2670   -1.0440 C   0  0  0  0  0  0  0  0  0  0  0  0
   -4.6158    5.0584   -4.3035 H   0  0  0  0  0  0  0  0  0  0  0  0
   -5.8648    5.9084   -5.2752 H   0  0  0  0  0  0  0  0  0  0  0  0
   -4.1694    6.5017   -5.2752 H   0  0  0  0  0  0  0  0  0  0  0  0
   -5.2932    7.9796   -3.8337 H   0  0  0  0  0  0  0  0  0  0  0  0
   -4.6199    7.2332   -1.4334 H   0  0  0  0  0  0  0  0  0  0  0  0
   -3.8912    5.7995   -2.3040 H   0  0  0  0  0  0  0  0  0  0  0  0
   -2.2218    7.0162   -3.2310 H   0  0  0  0  0  0  0  0  0  0  0  0
   -3.2207    8.5278   -3.3017 H   0  0  0  0  0  0  0  0  0  0  0  0
   -2.4496    7.2129   -0.9306 H   0  0  0  0  0  0  0  0  0  0  0  0
    0.3508   10.2841   -2.5106 H   0  0  0  0  0  0  0  0  0  0  0  0
   -0.1111    8.7458   -3.3150 H   0  0  0  0  0  0  0  0  0  0  0  0
   -1.2485   10.1362   -3.3150 H   0  0  0  0  0  0  0  0  0  0  0  0
   -0.8266    9.1283    0.6660 H   0  0  0  0  0  0  0  0  0  0  0  0
    0.4869    8.3121   -0.2479 H   0  0  0  0  0  0  0  0  0  0  0  0
    0.3726   10.1047   -0.2479 H   0  0  0  0  0  0  0  0  0  0  0  0
   -7.1948    6.4095   -3.8190 H   0  0  0  0  0  0  0  0  0  0  0  0
   -6.8165    4.4333   -2.4836 H   0  0  0  0  0  0  0  0  0  0  0  0
   -5.5588    5.2336   -1.5166 H   0  0  0  0  0  0  0  0  0  0  0  0
   -8.2340    4.7107   -0.6571 H   0  0  0  0  0  0  0  0  0  0  0  0
   -7.1359    5.8232    0.1549 H   0  0  0  0  0  0  0  0  0  0  0  0
  -10.2836    5.6354   -1.7365 H   0  0  0  0  0  0  0  0  0  0  0  0
   -9.9358    6.9174   -2.9458 H   0  0  0  0  0  0  0  0  0  0  0  0
   -8.9766    5.3986   -2.9458 H   0  0  0  0  0  0  0  0  0  0  0  0
   -8.3483    7.8991    0.4404 H   0  0  0  0  0  0  0  0  0  0  0  0
   -9.8898    5.8506    0.6962 H   0  0  0  0  0  0  0  0  0  0  0  0
  -10.2411    7.4243    1.5845 H   0  0  0  0  0  0  0  0  0  0  0  0
  -12.3170    6.1962    0.5246 H   0  0  0  0  0  0  0  0  0  0  0  0
  -10.9327    8.5218   -2.4716 H   0  0  0  0  0  0  0  0  0  0  0  0
  -12.1907   10.5079   -0.4795 H   0  0  0  0  0  0  0  0  0  0  0  0
  -11.3722   10.9104   -2.0538 H   0  0  0  0  0  0  0  0  0  0  0  0
  -13.8380   10.9977   -2.2308 H   0  0  0  0  0  0  0  0  0  0  0  0
  -13.0980    9.7322   -3.2877 H   0  0  0  0  0  0  0  0  0  0  0  0
  -15.0609    8.8183   -2.2510 H   0  0  0  0  0  0  0  0  0  0  0  0
  -14.8670    8.6460    0.2060 H   0  0  0  0  0  0  0  0  0  0  0  0
  -13.0735    5.8916   -2.7867 H   0  0  0  0  0  0  0  0  0  0  0  0
  -14.2797    7.0524   -3.4381 H   0  0  0  0  0  0  0  0  0  0  0  0
  -12.5341    7.4764   -3.4381 H   0  0  0  0  0  0  0  0  0  0  0  0
  -14.2697    6.7963    0.3950 H   0  0  0  0  0  0  0  0  0  0  0  0
  -15.4707    6.8618   -0.9391 H   0  0  0  0  0  0  0  0  0  0  0  0
  -14.1965    5.5957   -0.9391 H   0  0  0  0  0  0  0  0  0  0  0  0
   -9.7966    9.3871    1.3775 H   0  0  0  0  0  0  0  0  0  0  0  0
   -9.0351   10.7020    0.4196 H   0  0  0  0  0  0  0  0  0  0  0  0
  -10.8210   10.5094    0.4196 H   0  0  0  0  0  0  0  0  0  0  0  0
   -9.3885   10.4149   -2.4083 H   0  0  0  0  0  0  0  0  0  0  0  0
   -8.0118   10.1957   -1.1873 H   0  0  0  0  0  0  0  0  0  0  0  0
   -8.7290    8.3854   -3.5102 H   0  0  0  0  0  0  0  0  0  0  0  0
   -7.2447    9.3910   -3.2789 H   0  0  0  0  0  0  0  0  0  0  0  0
   -6.6084    8.0832   -0.0054 H   0  0  0  0  0  0  0  0  0  0  0  0
   -5.3145    7.8023   -1.2193 H   0  0  0  0  0  0  0  0  0  0  0  0
   -6.2252    9.3506   -1.2193 H   0  0  0  0  0  0  0  0  0  0  0  0
  1  2  1  0
  2  3  1  0
  3  4  1  0
  4  5  1  0
  5  6  1  0
  6  7  1  0
  7  8  1  0
  7  9  1  0
  2 10  1  0
 10 11  1  0
 11 12  1  0
 12 13  1  0
 13 14  1  6
 13 15  1  0
 15 16  1  0
 16 17  1  0
 17 18  2  0
 18 19  1  0
 19 20  1  0
 20 21  1  0
 21 22  1  0
 22 23  1  0
 22 24  1  0
 24 25  1  0
 24 26  1  0
 19 27  1  0
 27 28  1  1
 27 29  1  0
 29 30  1  0
 30 31  1  0
 31 32  1  1
  7  5  1  0
 31 10  1  0
 31 13  1  0
 27 15  1  0
 24 18  1  0
  1 33  1  0
  1 34  1  0
  1 35  1  0
  2 36  1  6
  3 37  1  0
  3 38  1  0
  4 39  1  0
  4 40  1  0
  5 41  1  1
  8 42  1  0
  8 43  1  0
  8 44  1  0
  9 45  1  0
  9 46  1  0
  9 47  1  0
 10 48  1  6
 11 49  1  0
 11 50  1  0
 12 51  1  0
 12 52  1  0
 14 53  1  0
 14 54  1  0
 14 55  1  0
 15 56  1  1
 16 57  1  0
 16 58  1  0
 17 59  1  0
 19 60  1  6
 20 61  1  0
 20 62  1  0
 21 63  1  0
 21 64  1  0
 22 65  1  6
 23 66  1  0
 25 67  1  0
 25 68  1  0
 25 69  1  0
 26 70  1  0
 26 71  1  0
 26 72  1  0
 28 73  1  0
 28 74  1  0
 28 75  1  0
 29 76  1  0
 29 77  1  0
 30 78  1  0
 30 79  1  0
 32 80  1  0
 32 81  1  0
 32 82  1  0
M  END
>  <meeko>  (7) 
{"is_sidechain": [false], "intermolecular_energy": 2.731, "internal_energy": -0.839}

$$$$
EPH_relaxed_0001_pdb2pqr_Repair_382_r2_0001_out
     RDKit          3D

 82 86  0  0  0  0  0  0  0  0999 V2000
   -5.1460    5.9810   -1.8060 C   0  0  0  0  0  0  0  0  0  0  0  0
   -5.4760    7.4770   -1.8210 C   0  0  2  0  0  0  0  0  0  0  0  0
   -5.2550    8.1330   -0.4430 C   0  0  0  0  0  0  0  0  0  0  0  0
   -4.2730    9.3070   -0.4710 C   0  0  0  0  0  0  0  0  0  0  0  0
   -2.8800    8.8720   -0.1290 C   0  0  2  0  0  0  0  0  0  0  0  0
   -2.2160    9.6970    0.8370 O   0  0  0  0  0  0  0  0  0  0  0  0
   -1.6420    9.6770   -0.4800 C   0  0  0  0  0  0  0  0  0  0  0  0
   -1.7400   10.9820   -1.2060 C   0  0  0  0  0  0  0  0  0  0  0  0
   -0.3260    8.9690   -0.5540 C   0  0  0  0  0  0  0  0  0  0  0  0
   -6.9160    7.6870   -2.2730 C   0  0  1  0  0  0  0  0  0  0  0  0
   -7.2370    6.9530   -3.6030 C   0  0  0  0  0  0  0  0  0  0  0  0
   -8.7100    6.4790   -3.5070 C   0  0  0  0  0  0  0  0  0  0  0  0
   -9.2840    7.2330   -2.2850 C   0  0  1  0  0  0  0  0  0  0  0  0
   -9.6450    8.6530   -2.8230 C   0  0  0  0  0  0  0  0  0  0  0  0
  -10.5010    6.5610   -1.5680 C   0  0  2  0  0  0  0  0  0  0  0  0
  -11.7650    6.4080   -2.4320 C   0  0  0  0  0  0  0  0  0  0  0  0
  -12.7210    7.5530   -2.3710 C   0  0  0  0  0  0  0  0  0  0  0  0
  -12.7160    8.5280   -1.4430 C   0  0  0  0  0  0  0  0  0  0  0  0
  -11.7370    8.4860   -0.2620 C   0  0  1  0  0  0  0  0  0  0  0  0
  -12.4980    8.8000    1.0530 C   0  0  0  0  0  0  0  0  0  0  0  0
  -13.2720   10.1130    0.9820 C   0  0  0  0  0  0  0  0  0  0  0  0
  -14.2750   10.0940   -0.1680 C   0  0  2  0  0  0  0  0  0  0  0  0
  -15.2870    9.1240    0.1190 O   0  0  0  0  0  0  0  0  0  0  0  0
  -13.6240    9.7780   -1.5440 C   0  0  0  0  0  0  0  0  0  0  0  0
  -12.7540   10.9770   -1.9960 C   0  0  0  0  0  0  0  0  0  0  0  0
  -14.7630    9.6490   -2.5920 C   0  0  0  0  0  0  0  0  0  0  0  0
  -10.8400    7.1790   -0.1510 C   0  0  1  0  0  0  0  0  0  0  0  0
  -11.6020    6.0770    0.6450 C   0  0  0  0  0  0  0  0  0  0  0  0
   -9.5460    7.5130    0.6820 C   0  0  0  0  0  0  0  0  0  0  0  0
   -8.3380    8.0610   -0.1020 C   0  0  0  0  0  0  0  0  0  0  0  0
   -8.0380    7.1920   -1.3270 C   0  0  2  0  0  0  0  0  0  0  0  0
   -7.6510    5.7630   -0.8160 C   0  0  0  0  0  0  0  0  0  0  0  0
   -5.0692    5.6329   -0.7654 H   0  0  0  0  0  0  0  0  0  0  0  0
   -5.9430    5.4245   -2.3209 H   0  0  0  0  0  0  0  0  0  0  0  0
   -4.1889    5.8115   -2.3209 H   0  0  0  0  0  0  0  0  0  0  0  0
   -4.7896    7.9609   -2.5314 H   0  0  0  0  0  0  0  0  0  0  0  0
   -6.2240    8.4995   -0.0734 H   0  0  0  0  0  0  0  0  0  0  0  0
   -4.8192    7.3648    0.2127 H   0  0  0  0  0  0  0  0  0  0  0  0
   -4.2718    9.7469   -1.4792 H   0  0  0  0  0  0  0  0  0  0  0  0
   -4.5967   10.0431    0.2796 H   0  0  0  0  0  0  0  0  0  0  0  0
   -3.1442    7.8166   -0.2912 H   0  0  0  0  0  0  0  0  0  0  0  0
   -1.8017   11.8034   -0.4770 H   0  0  0  0  0  0  0  0  0  0  0  0
   -0.8496   11.1181   -1.8373 H   0  0  0  0  0  0  0  0  0  0  0  0
   -2.6408   10.9836   -1.8373 H   0  0  0  0  0  0  0  0  0  0  0  0
    0.0417    8.7712    0.4637 H   0  0  0  0  0  0  0  0  0  0  0  0
   -0.4516    8.0167   -1.0900 H   0  0  0  0  0  0  0  0  0  0  0  0
    0.3994    9.5986   -1.0900 H   0  0  0  0  0  0  0  0  0  0  0  0
   -6.9323    8.7852   -2.3330 H   0  0  0  0  0  0  0  0  0  0  0  0
   -7.1145    7.6394   -4.4538 H   0  0  0  0  0  0  0  0  0  0  0  0
   -6.5573    6.1023   -3.7590 H   0  0  0  0  0  0  0  0  0  0  0  0
   -9.2630    6.7425   -4.4207 H   0  0  0  0  0  0  0  0  0  0  0  0
   -8.7905    5.3873   -3.3989 H   0  0  0  0  0  0  0  0  0  0  0  0
   -9.8179    9.3330   -1.9759 H   0  0  0  0  0  0  0  0  0  0  0  0
   -8.8153    9.0347   -3.4362 H   0  0  0  0  0  0  0  0  0  0  0  0
  -10.5562    8.5921   -3.4362 H   0  0  0  0  0  0  0  0  0  0  0  0
  -10.1355    5.5387   -1.3913 H   0  0  0  0  0  0  0  0  0  0  0  0
  -11.4487    6.2845   -3.4783 H   0  0  0  0  0  0  0  0  0  0  0  0
  -12.3054    5.5384   -2.0298 H   0  0  0  0  0  0  0  0  0  0  0  0
  -13.4953    7.6042   -3.1507 H   0  0  0  0  0  0  0  0  0  0  0  0
  -10.9908    9.2702   -0.4576 H   0  0  0  0  0  0  0  0  0  0  0  0
  -13.2069    7.9832    1.2538 H   0  0  0  0  0  0  0  0  0  0  0  0
  -11.7521    8.8952    1.8558 H   0  0  0  0  0  0  0  0  0  0  0  0
  -13.8122   10.2639    1.9282 H   0  0  0  0  0  0  0  0  0  0  0  0
  -12.5581   10.9323    0.8114 H   0  0  0  0  0  0  0  0  0  0  0  0
  -14.7036   11.1039   -0.2483 H   0  0  0  0  0  0  0  0  0  0  0  0
  -15.1860    8.3960   -0.5170 H   0  0  0  0  0  0  0  0  0  0  0  0
  -12.3703   11.5058   -1.1111 H   0  0  0  0  0  0  0  0  0  0  0  0
  -11.9100   10.6109   -2.5990 H   0  0  0  0  0  0  0  0  0  0  0  0
  -13.3638   11.6658   -2.5990 H   0  0  0  0  0  0  0  0  0  0  0  0
  -15.7272    9.5398   -2.0740 H   0  0  0  0  0  0  0  0  0  0  0  0
  -14.7853   10.5504   -3.2221 H   0  0  0  0  0  0  0  0  0  0  0  0
  -14.5832    8.7655   -3.2221 H   0  0  0  0  0  0  0  0  0  0  0  0
  -11.4800    6.2534    1.7239 H   0  0  0  0  0  0  0  0  0  0  0  0
  -12.6707    6.1107    0.3865 H   0  0  0  0  0  0  0  0  0  0  0  0
  -11.1932    5.0891    0.3865 H   0  0  0  0  0  0  0  0  0  0  0  0
   -9.8210    8.2638    1.4374 H   0  0  0  0  0  0  0  0  0  0  0  0
   -9.2103    6.5489    1.0917 H   0  0  0  0  0  0  0  0  0  0  0  0
   -8.5597    9.0861   -0.4338 H   0  0  0  0  0  0  0  0  0  0  0  0
   -7.4583    8.0511    0.5583 H   0  0  0  0  0  0  0  0  0  0  0  0
   -7.6489    5.7551    0.2840 H   0  0  0  0  0  0  0  0  0  0  0  0
   -8.3831    5.0304   -1.1865 H   0  0  0  0  0  0  0  0  0  0  0  0
   -6.6493    5.4999   -1.1865 H   0  0  0  0  0  0  0  0  0  0  0  0
  1  2  1  0
  2  3  1  0
  3  4  1  0
  4  5  1  0
  5  6  1  0
  6  7  1  0
  7  8  1  0
  7  9  1  0
  2 10  1  0
 10 11  1  0
 11 12  1  0
 12 13  1  0
 13 14  1  6
 13 15  1  0
 15 16  1  0
 16 17  1  0
 17 18  2  0
 18 19  1  0
 19 20  1  0
 20 21  1  0
 21 22  1  0
 22 23  1  0
 22 24  1  0
 24 25  1  0
 24 26  1  0
 19 27  1  0
 27 28  1  1
 27 29  1  0
 29 30  1  0
 30 31  1  0
 31 32  1  1
  7  5  1  0
 31 10  1  0
 31 13  1  0
 27 15  1  0
 24 18  1  0
  1 33  1  0
  1 34  1  0
  1 35  1  0
  2 36  1  6
  3 37  1  0
  3 38  1  0
  4 39  1  0
  4 40  1  0
  5 41  1  1
  8 42  1  0
  8 43  1  0
  8 44  1  0
  9 45  1  0
  9 46  1  0
  9 47  1  0
 10 48  1  6
 11 49  1  0
 11 50  1  0
 12 51  1  0
 12 52  1  0
 14 53  1  0
 14 54  1  0
 14 55  1  0
 15 56  1  1
 16 57  1  0
 16 58  1  0
 17 59  1  0
 19 60  1  6
 20 61  1  0
 20 62  1  0
 21 63  1  0
 21 64  1  0
 22 65  1  6
 23 66  1  0
 25 67  1  0
 25 68  1  0
 25 69  1  0
 26 70  1  0
 26 71  1  0
 26 72  1  0
 28 73  1  0
 28 74  1  0
 28 75  1  0
 29 76  1  0
 29 77  1  0
 30 78  1  0
 30 79  1  0
 32 80  1  0
 32 81  1  0
 32 82  1  0
M  END
>  <meeko>  (8) 
{"is_sidechain": [false], "intermolecular_energy": 2.731, "internal_energy": -0.839}

$$$$
EPH_relaxed_0001_pdb2pqr_Repair_382_r2_0001_out
     RDKit          3D

 82 86  0  0  0  0  0  0  0  0999 V2000
    0.4320    8.8410   -2.5060 C   0  0  0  0  0  0  0  0  0  0  0  0
    1.1930    9.9920   -3.1700 C   0  0  2  0  0  0  0  0  0  0  0  0
    2.6880    9.9930   -2.7950 C   0  0  0  0  0  0  0  0  0  0  0  0
    3.5920   10.6050   -3.8700 C   0  0  0  0  0  0  0  0  0  0  0  0
    4.9830   10.8320   -3.3600 C   0  0  2  0  0  0  0  0  0  0  0  0
    5.5900   12.0530   -3.8030 O   0  0  0  0  0  0  0  0  0  0  0  0
    6.2100   10.8370   -4.2530 C   0  0  0  0  0  0  0  0  0  0  0  0
    6.1030   10.6100   -5.7280 C   0  0  0  0  0  0  0  0  0  0  0  0
    7.5470   10.5770   -3.6320 C   0  0  0  0  0  0  0  0  0  0  0  0
    0.5590   11.3240   -2.7870 C   0  0  1  0  0  0  0  0  0  0  0  0
   -0.8370   11.1540   -2.1300 C   0  0  0  0  0  0  0  0  0  0  0  0
   -0.9670   12.2700   -1.0610 C   0  0  0  0  0  0  0  0  0  0  0  0
    0.2010   13.2370   -1.3630 C   0  0  1  0  0  0  0  0  0  0  0  0
   -0.3100   14.1290   -2.5380 C   0  0  0  0  0  0  0  0  0  0  0  0
    0.7110   14.1000   -0.1630 C   0  0  2  0  0  0  0  0  0  0  0  0
   -0.3240   15.0730    0.4280 C   0  0  0  0  0  0  0  0  0  0  0  0
   -0.3370   16.4360   -0.1820 C   0  0  0  0  0  0  0  0  0  0  0  0
    0.6300   16.9540   -0.9610 C   0  0  0  0  0  0  0  0  0  0  0  0
    1.9300   16.1820   -1.2210 C   0  0  1  0  0  0  0  0  0  0  0  0
    3.1420   17.1320   -1.0380 C   0  0  0  0  0  0  0  0  0  0  0  0
    3.0320   18.3920   -1.8900 C   0  0  0  0  0  0  0  0  0  0  0  0
    1.7560   19.1630   -1.5620 C   0  0  2  0  0  0  0  0  0  0  0  0
    1.8540   19.6690   -0.2270 O   0  0  0  0  0  0  0  0  0  0  0  0
    0.4680   18.3040   -1.7020 C   0  0  0  0  0  0  0  0  0  0  0  0
    0.2000   18.0090   -3.1980 C   0  0  0  0  0  0  0  0  0  0  0  0
   -0.7310   19.1570   -1.2060 C   0  0  0  0  0  0  0  0  0  0  0  0
    2.0970   14.8170   -0.4230 C   0  0  1  0  0  0  0  0  0  0  0  0
    2.7260   15.0940    0.9770 C   0  0  0  0  0  0  0  0  0  0  0  0
    3.1140   13.8940   -1.1920 C   0  0  0  0  0  0  0  0  0  0  0  0
    2.5320   12.9770   -2.2850 C   0  0  0  0  0  0  0  0  0  0  0  0
    1.3170   12.2040   -1.7620 C   0  0  2  0  0  0  0  0  0  0  0  0
    1.8040   11.2810   -0.5930 C   0  0  0  0  0  0  0  0  0  0  0  0
    0.4978    8.9405   -1.4125 H   0  0  0  0  0  0  0  0  0  0  0  0
   -0.6234    8.8732   -2.8143 H   0  0  0  0  0  0  0  0  0  0  0  0
    0.8750    7.8825   -2.8143 H   0  0  0  0  0  0  0  0  0  0  0  0
    1.1262    9.8478   -4.2585 H   0  0  0  0  0  0  0  0  0  0  0  0
    2.8128   10.5697   -1.8667 H   0  0  0  0  0  0  0  0  0  0  0  0
    2.9914    8.9419   -2.6800 H   0  0  0  0  0  0  0  0  0  0  0  0
    3.6349    9.9219   -4.7311 H   0  0  0  0  0  0  0  0  0  0  0  0
    3.1697   11.5784   -4.1602 H   0  0  0  0  0  0  0  0  0  0  0  0
    4.7534   10.3004   -2.4247 H   0  0  0  0  0  0  0  0  0  0  0  0
    5.6409    9.6296   -5.9155 H   0  0  0  0  0  0  0  0  0  0  0  0
    5.4823   11.3997   -6.1764 H   0  0  0  0  0  0  0  0  0  0  0  0
    7.1072   10.6338   -6.1764 H   0  0  0  0  0  0  0  0  0  0  0  0
    7.4522   10.5954   -2.5363 H   0  0  0  0  0  0  0  0  0  0  0  0
    7.9142    9.5906   -3.9517 H   0  0  0  0  0  0  0  0  0  0  0  0
    8.2571   11.3539   -3.9517 H   0  0  0  0  0  0  0  0  0  0  0  0
    0.5520   11.8146   -3.7715 H   0  0  0  0  0  0  0  0  0  0  0  0
   -1.6276   11.2608   -2.8873 H   0  0  0  0  0  0  0  0  0  0  0  0
   -0.9411   10.1577   -1.6756 H   0  0  0  0  0  0  0  0  0  0  0  0
   -1.9334   12.7870   -1.1548 H   0  0  0  0  0  0  0  0  0  0  0  0
   -0.9255   11.8729   -0.0360 H   0  0  0  0  0  0  0  0  0  0  0  0
   -0.8180   15.0158   -2.1311 H   0  0  0  0  0  0  0  0  0  0  0  0
    0.5433   14.4463   -3.1554 H   0  0  0  0  0  0  0  0  0  0  0  0
   -1.0153   13.5534   -3.1554 H   0  0  0  0  0  0  0  0  0  0  0  0
    0.8853   13.3420    0.6149 H   0  0  0  0  0  0  0  0  0  0  0  0
   -1.3222   14.6307    0.2938 H   0  0  0  0  0  0  0  0  0  0  0  0
   -0.0434   15.2134    1.4823 H   0  0  0  0  0  0  0  0  0  0  0  0
   -1.2118   17.0706    0.0230 H   0  0  0  0  0  0  0  0  0  0  0  0
    1.8781   15.8415   -2.2657 H   0  0  0  0  0  0  0  0  0  0  0  0
    3.2027   17.4262    0.0202 H   0  0  0  0  0  0  0  0  0  0  0  0
    4.0430   16.5892   -1.3599 H   0  0  0  0  0  0  0  0  0  0  0  0
    3.9020   19.0360   -1.6942 H   0  0  0  0  0  0  0  0  0  0  0  0
    3.0017   18.0977   -2.9495 H   0  0  0  0  0  0  0  0  0  0  0  0
    1.6679   19.9813   -2.2918 H   0  0  0  0  0  0  0  0  0  0  0  0
    1.9680   20.6330   -0.2850 H   0  0  0  0  0  0  0  0  0  0  0  0
   -0.5373   17.1974   -3.2853 H   0  0  0  0  0  0  0  0  0  0  0  0
   -0.1913   18.9139   -3.6858 H   0  0  0  0  0  0  0  0  0  0  0  0
    1.1382   17.7061   -3.6858 H   0  0  0  0  0  0  0  0  0  0  0  0
   -0.7442   19.1664   -0.1061 H   0  0  0  0  0  0  0  0  0  0  0  0
   -0.6284   20.1863   -1.5803 H   0  0  0  0  0  0  0  0  0  0  0  0
   -1.6697   18.7226   -1.5803 H   0  0  0  0  0  0  0  0  0  0  0  0
    2.0219   14.7839    1.7632 H   0  0  0  0  0  0  0  0  0  0  0  0
    3.6619   14.5248    1.0776 H   0  0  0  0  0  0  0  0  0  0  0  0
    2.9379   16.1687    1.0776 H   0  0  0  0  0  0  0  0  0  0  0  0
    3.8608   14.5464   -1.6681 H   0  0  0  0  0  0  0  0  0  0  0  0
    3.5167   13.2118   -0.4289 H   0  0  0  0  0  0  0  0  0  0  0  0
    2.2251   13.5913   -3.1444 H   0  0  0  0  0  0  0  0  0  0  0  0
    3.3051   12.2543   -2.5851 H   0  0  0  0  0  0  0  0  0  0  0  0
    1.5569   11.7493    0.3712 H   0  0  0  0  0  0  0  0  0  0  0  0
    1.3041   10.3038   -0.6648 H   0  0  0  0  0  0  0  0  0  0  0  0
    2.8928   11.1420   -0.6648 H   0  0  0  0  0  0  0  0  0  0  0  0
  1  2  1  0
  2  3  1  0
  3  4  1  0
  4  5  1  0
  5  6  1  0
  6  7  1  0
  7  8  1  0
  7  9  1  0
  2 10  1  0
 10 11  1  0
 11 12  1  0
 12 13  1  0
 13 14  1  6
 13 15  1  0
 15 16  1  0
 16 17  1  0
 17 18  2  0
 18 19  1  0
 19 20  1  0
 20 21  1  0
 21 22  1  0
 22 23  1  0
 22 24  1  0
 24 25  1  0
 24 26  1  0
 19 27  1  0
 27 28  1  1
 27 29  1  0
 29 30  1  0
 30 31  1  0
 31 32  1  1
  7  5  1  0
 31 10  1  0
 31 13  1  0
 27 15  1  0
 24 18  1  0
  1 33  1  0
  1 34  1  0
  1 35  1  0
  2 36  1  6
  3 37  1  0
  3 38  1  0
  4 39  1  0
  4 40  1  0
  5 41  1  1
  8 42  1  0
  8 43  1  0
  8 44  1  0
  9 45  1  0
  9 46  1  0
  9 47  1  0
 10 48  1  6
 11 49  1  0
 11 50  1  0
 12 51  1  0
 12 52  1  0
 14 53  1  0
 14 54  1  0
 14 55  1  0
 15 56  1  1
 16 57  1  0
 16 58  1  0
 17 59  1  0
 19 60  1  6
 20 61  1  0
 20 62  1  0
 21 63  1  0
 21 64  1  0
 22 65  1  6
 23 66  1  0
 25 67  1  0
 25 68  1  0
 25 69  1  0
 26 70  1  0
 26 71  1  0
 26 72  1  0
 28 73  1  0
 28 74  1  0
 28 75  1  0
 29 76  1  0
 29 77  1  0
 30 78  1  0
 30 79  1  0
 32 80  1  0
 32 81  1  0
 32 82  1  0
M  END
>  <meeko>  (9) 
{"is_sidechain": [false], "intermolecular_energy": 2.731, "internal_energy": -0.839}

$$$$
EPH_relaxed_0001_pdb2pqr_Repair_382_r2_0001_out
     RDKit          3D

 82 86  0  0  0  0  0  0  0  0999 V2000
   -4.8170    6.8310    0.6200 C   0  0  0  0  0  0  0  0  0  0  0  0
   -4.7360    7.9680   -0.4020 C   0  0  2  0  0  0  0  0  0  0  0  0
   -3.6200    8.9760   -0.0630 C   0  0  0  0  0  0  0  0  0  0  0  0
   -2.4660    8.9790   -1.0690 C   0  0  0  0  0  0  0  0  0  0  0  0
   -1.1360    9.0950   -0.3880 C   0  0  2  0  0  0  0  0  0  0  0  0
   -1.1010   10.0270    0.7010 O   0  0  0  0  0  0  0  0  0  0  0  0
   -0.2790   10.3470   -0.4330 C   0  0  0  0  0  0  0  0  0  0  0  0
   -0.7200   11.5670   -1.1790 C   0  0  0  0  0  0  0  0  0  0  0  0
    1.1890   10.2190   -0.1690 C   0  0  0  0  0  0  0  0  0  0  0  0
   -6.0780    8.6870   -0.4880 C   0  0  1  0  0  0  0  0  0  0  0  0
   -5.9650   10.0870   -1.1470 C   0  0  0  0  0  0  0  0  0  0  0  0
   -7.2700   10.3080   -1.9550 C   0  0  0  0  0  0  0  0  0  0  0  0
   -8.2210    9.1880   -1.4720 C   0  0  1  0  0  0  0  0  0  0  0  0
   -8.8140    9.7180   -0.1290 C   0  0  0  0  0  0  0  0  0  0  0  0
   -9.3460    8.7590   -2.4700 C   0  0  2  0  0  0  0  0  0  0  0  0
  -10.3570    9.8630   -2.8280 C   0  0  0  0  0  0  0  0  0  0  0  0
  -11.5580    9.9370   -1.9440 C   0  0  0  0  0  0  0  0  0  0  0  0
  -11.9590    8.9800   -1.0870 C   0  0  0  0  0  0  0  0  0  0  0  0
  -11.2290    7.6330   -1.0130 C   0  0  1  0  0  0  0  0  0  0  0  0
  -12.2690    6.4810   -1.0090 C   0  0  0  0  0  0  0  0  0  0  0  0
  -13.3130    6.6400    0.0920 C   0  0  0  0  0  0  0  0  0  0  0  0
  -14.0570    7.9650   -0.0500 C   0  0  2  0  0  0  0  0  0  0  0  0
  -14.8370    7.9310   -1.2490 O   0  0  0  0  0  0  0  0  0  0  0  0
  -13.1120    9.1990   -0.0760 C   0  0  0  0  0  0  0  0  0  0  0  0
  -12.4930    9.4110    1.3280 C   0  0  0  0  0  0  0  0  0  0  0  0
  -13.9750   10.4560   -0.3640 C   0  0  0  0  0  0  0  0  0  0  0  0
  -10.0760    7.4100   -2.0830 C   0  0  1  0  0  0  0  0  0  0  0  0
  -10.6770    6.8350   -3.4020 C   0  0  0  0  0  0  0  0  0  0  0  0
   -9.0740    6.3220   -1.5400 C   0  0  0  0  0  0  0  0  0  0  0  0
   -7.9160    6.8240   -0.6570 C   0  0  0  0  0  0  0  0  0  0  0  0
   -7.1970    8.0060   -1.3150 C   0  0  2  0  0  0  0  0  0  0  0  0
   -6.5710    7.4980   -2.6580 C   0  0  0  0  0  0  0  0  0  0  0  0
   -4.7872    7.2493    1.6369 H   0  0  0  0  0  0  0  0  0  0  0  0
   -5.7569    6.2772    0.4787 H   0  0  0  0  0  0  0  0  0  0  0  0
   -3.9651    6.1496    0.4787 H   0  0  0  0  0  0  0  0  0  0  0  0
   -4.4910    7.5194   -1.3761 H   0  0  0  0  0  0  0  0  0  0  0  0
   -4.0593    9.9841   -0.0357 H   0  0  0  0  0  0  0  0  0  0  0  0
   -3.1991    8.6747    0.9076 H   0  0  0  0  0  0  0  0  0  0  0  0
   -2.4916    8.0412   -1.6434 H   0  0  0  0  0  0  0  0  0  0  0  0
   -2.5897    9.8499   -1.7295 H   0  0  0  0  0  0  0  0  0  0  0  0
   -0.9104    8.0387   -0.5962 H   0  0  0  0  0  0  0  0  0  0  0  0
   -1.0038   12.3521   -0.4627 H   0  0  0  0  0  0  0  0  0  0  0  0
    0.1045   11.9281   -1.8113 H   0  0  0  0  0  0  0  0  0  0  0  0
   -1.5848   11.3175   -1.8113 H   0  0  0  0  0  0  0  0  0  0  0  0
    1.3664   10.2035    0.9165 H   0  0  0  0  0  0  0  0  0  0  0  0
    1.5616    9.2850   -0.6148 H   0  0  0  0  0  0  0  0  0  0  0  0
    1.7177   11.0745   -0.6148 H   0  0  0  0  0  0  0  0  0  0  0  0
   -6.3503    8.6973    0.5777 H   0  0  0  0  0  0  0  0  0  0  0  0
   -5.8624   10.8625   -0.3736 H   0  0  0  0  0  0  0  0  0  0  0  0
   -5.0816   10.1460   -1.7998 H   0  0  0  0  0  0  0  0  0  0  0  0
   -7.6965   11.2991   -1.7407 H   0  0  0  0  0  0  0  0  0  0  0  0
   -7.0998   10.2718   -3.0412 H   0  0  0  0  0  0  0  0  0  0  0  0
   -8.2880    9.2478    0.7149 H   0  0  0  0  0  0  0  0  0  0  0  0
   -8.6875   10.8095   -0.0777 H   0  0  0  0  0  0  0  0  0  0  0  0
   -9.8845    9.4702   -0.0777 H   0  0  0  0  0  0  0  0  0  0  0  0
   -8.7800    8.5621   -3.3924 H   0  0  0  0  0  0  0  0  0  0  0  0
   -9.8365   10.8307   -2.7764 H   0  0  0  0  0  0  0  0  0  0  0  0
  -10.7324    9.6186   -3.8327 H   0  0  0  0  0  0  0  0  0  0  0  0
  -12.1668   10.8516   -1.9978 H   0  0  0  0  0  0  0  0  0  0  0  0
  -10.6740    7.6389   -0.0633 H   0  0  0  0  0  0  0  0  0  0  0  0
  -12.7820    6.4655   -1.9819 H   0  0  0  0  0  0  0  0  0  0  0  0
  -11.7270    5.5422   -0.8225 H   0  0  0  0  0  0  0  0  0  0  0  0
  -14.0350    5.8127    0.0259 H   0  0  0  0  0  0  0  0  0  0  0  0
  -12.8015    6.6268    1.0658 H   0  0  0  0  0  0  0  0  0  0  0  0
  -14.6977    8.0792    0.8369 H   0  0  0  0  0  0  0  0  0  0  0  0
  -15.0770    7.0040   -1.4170 H   0  0  0  0  0  0  0  0  0  0  0  0
  -13.2358    9.1566    2.0984 H   0  0  0  0  0  0  0  0  0  0  0  0
  -11.6108    8.7638    1.4413 H   0  0  0  0  0  0  0  0  0  0  0  0
  -12.1928   10.4632    1.4413 H   0  0  0  0  0  0  0  0  0  0  0  0
  -14.2879   10.9117    0.5870 H   0  0  0  0  0  0  0  0  0  0  0  0
  -13.3840   11.1820   -0.9416 H   0  0  0  0  0  0  0  0  0  0  0  0
  -14.8649   10.1653   -0.9416 H   0  0  0  0  0  0  0  0  0  0  0  0
  -11.4522    6.0934   -3.1590 H   0  0  0  0  0  0  0  0  0  0  0  0
  -11.1223    7.6520   -3.9887 H   0  0  0  0  0  0  0  0  0  0  0  0
   -9.8805    6.3540   -3.9887 H   0  0  0  0  0  0  0  0  0  0  0  0
   -9.6554    5.6001   -0.9477 H   0  0  0  0  0  0  0  0  0  0  0  0
   -8.5923    5.9017   -2.4352 H   0  0  0  0  0  0  0  0  0  0  0  0
   -8.3178    7.1436    0.3158 H   0  0  0  0  0  0  0  0  0  0  0  0
   -7.1946    6.0041   -0.5252 H   0  0  0  0  0  0  0  0  0  0  0  0
   -5.7340    6.8188   -2.4386 H   0  0  0  0  0  0  0  0  0  0  0  0
   -7.3356    6.9618   -3.2393 H   0  0  0  0  0  0  0  0  0  0  0  0
   -6.2037    8.3566   -3.2393 H   0  0  0  0  0  0  0  0  0  0  0  0
  1  2  1  0
  2  3  1  0
  3  4  1  0
  4  5  1  0
  5  6  1  0
  6  7  1  0
  7  8  1  0
  7  9  1  0
  2 10  1  0
 10 11  1  0
 11 12  1  0
 12 13  1  0
 13 14  1  1
 13 15  1  0
 15 16  1  0
 16 17  1  0
 17 18  2  0
 18 19  1  0
 19 20  1  0
 20 21  1  0
 21 22  1  0
 22 23  1  0
 22 24  1  0
 24 25  1  0
 24 26  1  0
 19 27  1  0
 27 28  1  6
 27 29  1  0
 29 30  1  0
 30 31  1  0
 31 32  1  6
  7  5  1  0
 31 10  1  0
 31 13  1  0
 27 15  1  0
 24 18  1  0
  1 33  1  0
  1 34  1  0
  1 35  1  0
  2 36  1  6
  3 37  1  0
  3 38  1  0
  4 39  1  0
  4 40  1  0
  5 41  1  1
  8 42  1  0
  8 43  1  0
  8 44  1  0
  9 45  1  0
  9 46  1  0
  9 47  1  0
 10 48  1  1
 11 49  1  0
 11 50  1  0
 12 51  1  0
 12 52  1  0
 14 53  1  0
 14 54  1  0
 14 55  1  0
 15 56  1  6
 16 57  1  0
 16 58  1  0
 17 59  1  0
 19 60  1  1
 20 61  1  0
 20 62  1  0
 21 63  1  0
 21 64  1  0
 22 65  1  1
 23 66  1  0
 25 67  1  0
 25 68  1  0
 25 69  1  0
 26 70  1  0
 26 71  1  0
 26 72  1  0
 28 73  1  0
 28 74  1  0
 28 75  1  0
 29 76  1  0
 29 77  1  0
 30 78  1  0
 30 79  1  0
 32 80  1  0
 32 81  1  0
 32 82  1  0
M  END
>  <meeko>  (10) 
{"is_sidechain": [false], "intermolecular_energy": 2.731, "internal_energy": -0.839}

$$$$
EPH_relaxed_0001_pdb2pqr_Repair_382_r2_0001_out
     RDKit          3D

 82 86  0  0  0  0  0  0  0  0999 V2000
  -12.9330    8.6270    1.9720 C   0  0  0  0  0  0  0  0  0  0  0  0
  -13.0560    8.7760    0.4530 C   0  0  2  0  0  0  0  0  0  0  0  0
  -14.4470    8.3540   -0.0610 C   0  0  0  0  0  0  0  0  0  0  0  0
  -15.2750    9.5150   -0.6200 C   0  0  0  0  0  0  0  0  0  0  0  0
  -15.2290    9.5580   -2.1170 C   0  0  2  0  0  0  0  0  0  0  0  0
  -13.9160    9.7190   -2.6710 O   0  0  0  0  0  0  0  0  0  0  0  0
  -14.8390   10.7950   -2.9070 C   0  0  0  0  0  0  0  0  0  0  0  0
  -14.4710   12.0730   -2.2220 C   0  0  0  0  0  0  0  0  0  0  0  0
  -15.2870   10.9040   -4.3310 C   0  0  0  0  0  0  0  0  0  0  0  0
  -11.9740    7.9550   -0.2400 C   0  0  1  0  0  0  0  0  0  0  0  0
  -12.5360    7.0690   -1.3830 C   0  0  0  0  0  0  0  0  0  0  0  0
  -11.4500    7.0230   -2.4880 C   0  0  0  0  0  0  0  0  0  0  0  0
  -10.1830    7.5990   -1.8140 C   0  0  1  0  0  0  0  0  0  0  0  0
   -9.5850    6.4080   -1.0010 C   0  0  0  0  0  0  0  0  0  0  0  0
   -9.1210    8.2370   -2.7690 C   0  0  2  0  0  0  0  0  0  0  0  0
   -8.4920    7.2680   -3.7850 C   0  0  0  0  0  0  0  0  0  0  0  0
   -7.2510    6.5780   -3.3240 C   0  0  0  0  0  0  0  0  0  0  0  0
   -6.5060    6.9360   -2.2620 C   0  0  0  0  0  0  0  0  0  0  0  0
   -6.8370    8.1990   -1.4560 C   0  0  1  0  0  0  0  0  0  0  0  0
   -5.5390    9.0100   -1.2070 C   0  0  0  0  0  0  0  0  0  0  0  0
   -4.4420    8.1740   -0.5560 C   0  0  0  0  0  0  0  0  0  0  0  0
   -4.0990    6.9590   -1.4140 C   0  0  2  0  0  0  0  0  0  0  0  0
   -3.4980    7.4100   -2.6320 O   0  0  0  0  0  0  0  0  0  0  0  0
   -5.3330    6.0710   -1.7390 C   0  0  0  0  0  0  0  0  0  0  0  0
   -5.8010    5.3420   -0.4550 C   0  0  0  0  0  0  0  0  0  0  0  0
   -4.8760    4.9620   -2.7250 C   0  0  0  0  0  0  0  0  0  0  0  0
   -8.0170    9.0960   -2.0290 C   0  0  1  0  0  0  0  0  0  0  0  0
   -7.4580   10.1030   -3.0800 C   0  0  0  0  0  0  0  0  0  0  0  0
   -8.6180    9.9630   -0.8600 C   0  0  0  0  0  0  0  0  0  0  0  0
   -9.7460    9.3220   -0.0280 C   0  0  0  0  0  0  0  0  0  0  0  0
  -10.8290    8.7320   -0.9370 C   0  0  2  0  0  0  0  0  0  0  0  0
  -11.4640    9.9100   -1.7510 C   0  0  0  0  0  0  0  0  0  0  0  0
  -13.5585    9.3847    2.4666 H   0  0  0  0  0  0  0  0  0  0  0  0
  -13.2687    7.6229    2.2703 H   0  0  0  0  0  0  0  0  0  0  0  0
  -11.8834    8.7664    2.2703 H   0  0  0  0  0  0  0  0  0  0  0  0
  -12.9245    9.8416    0.2138 H   0  0  0  0  0  0  0  0  0  0  0  0
  -14.3111    7.6087   -0.8586 H   0  0  0  0  0  0  0  0  0  0  0  0
  -14.9994    7.9507    0.8005 H   0  0  0  0  0  0  0  0  0  0  0  0
  -16.3201    9.3946   -0.2988 H   0  0  0  0  0  0  0  0  0  0  0  0
  -14.8506   10.4547   -0.2367 H   0  0  0  0  0  0  0  0  0  0  0  0
  -16.0918    8.8793   -2.1870 H   0  0  0  0  0  0  0  0  0  0  0  0
  -14.5122   11.9299   -1.1321 H   0  0  0  0  0  0  0  0  0  0  0  0
  -13.4520   12.3659   -2.5151 H   0  0  0  0  0  0  0  0  0  0  0  0
  -15.1782   12.8629   -2.5151 H   0  0  0  0  0  0  0  0  0  0  0  0
  -16.3554   11.1640   -4.3604 H   0  0  0  0  0  0  0  0  0  0  0  0
  -14.7051   11.6868   -4.8396 H   0  0  0  0  0  0  0  0  0  0  0  0
  -15.1297    9.9414   -4.8396 H   0  0  0  0  0  0  0  0  0  0  0  0
  -11.5807    7.4009    0.6251 H   0  0  0  0  0  0  0  0  0  0  0  0
  -12.7405    6.0545   -1.0103 H   0  0  0  0  0  0  0  0  0  0  0  0
  -13.4794    7.4788   -1.7731 H   0  0  0  0  0  0  0  0  0  0  0  0
  -11.2772    5.9886   -2.8198 H   0  0  0  0  0  0  0  0  0  0  0  0
  -11.7415    7.5918   -3.3833 H   0  0  0  0  0  0  0  0  0  0  0  0
   -9.6869    6.6109    0.0753 H   0  0  0  0  0  0  0  0  0  0  0  0
  -10.1260    5.4839   -1.2527 H   0  0  0  0  0  0  0  0  0  0  0  0
   -8.5207    6.2899   -1.2527 H   0  0  0  0  0  0  0  0  0  0  0  0
   -9.7271    8.9385   -3.3611 H   0  0  0  0  0  0  0  0  0  0  0  0
   -9.2390    6.4978   -4.0276 H   0  0  0  0  0  0  0  0  0  0  0  0
   -8.1960    7.8821   -4.6483 H   0  0  0  0  0  0  0  0  0  0  0  0
   -6.9174    5.7030   -3.9012 H   0  0  0  0  0  0  0  0  0  0  0  0
   -7.2472    7.8495   -0.4970 H   0  0  0  0  0  0  0  0  0  0  0  0
   -5.1688    9.3877   -2.1716 H   0  0  0  0  0  0  0  0  0  0  0  0
   -5.7858    9.8312   -0.5180 H   0  0  0  0  0  0  0  0  0  0  0  0
   -3.5416    8.7940   -0.4340 H   0  0  0  0  0  0  0  0  0  0  0  0
   -4.8028    7.8222    0.4218 H   0  0  0  0  0  0  0  0  0  0  0  0
   -3.4042    6.3322   -0.8358 H   0  0  0  0  0  0  0  0  0  0  0  0
   -2.9720    8.2010   -2.4240 H   0  0  0  0  0  0  0  0  0  0  0  0
   -5.4473    5.8929    0.4290 H   0  0  0  0  0  0  0  0  0  0  0  0
   -6.8998    5.2929   -0.4411 H   0  0  0  0  0  0  0  0  0  0  0  0
   -5.3882    4.3225   -0.4411 H   0  0  0  0  0  0  0  0  0  0  0  0
   -4.5172    4.0912   -2.1567 H   0  0  0  0  0  0  0  0  0  0  0  0
   -5.7239    4.6624   -3.3584 H   0  0  0  0  0  0  0  0  0  0  0  0
   -4.0631    5.3468   -3.3584 H   0  0  0  0  0  0  0  0  0  0  0  0
   -6.9873   10.9510   -2.5611 H   0  0  0  0  0  0  0  0  0  0  0  0
   -6.7109    9.5983   -3.7102 H   0  0  0  0  0  0  0  0  0  0  0  0
   -8.2815   10.4701   -3.7102 H   0  0  0  0  0  0  0  0  0  0  0  0
   -7.7959   10.2094   -0.1719 H   0  0  0  0  0  0  0  0  0  0  0  0
   -9.0816   10.8298   -1.3537 H   0  0  0  0  0  0  0  0  0  0  0  0
   -9.3228    8.5203    0.5950 H   0  0  0  0  0  0  0  0  0  0  0  0
  -10.2021   10.0991    0.6029 H   0  0  0  0  0  0  0  0  0  0  0  0
  -11.8684   10.6602   -1.0555 H   0  0  0  0  0  0  0  0  0  0  0  0
  -10.6942   10.3747   -2.3846 H   0  0  0  0  0  0  0  0  0  0  0  0
  -12.2754    9.5224   -2.3846 H   0  0  0  0  0  0  0  0  0  0  0  0
  1  2  1  0
  2  3  1  0
  3  4  1  0
  4  5  1  0
  5  6  1  0
  6  7  1  0
  7  8  1  0
  7  9  1  0
  2 10  1  0
 10 11  1  0
 11 12  1  0
 12 13  1  0
 13 14  1  1
 13 15  1  0
 15 16  1  0
 16 17  1  0
 17 18  2  0
 18 19  1  0
 19 20  1  0
 20 21  1  0
 21 22  1  0
 22 23  1  0
 22 24  1  0
 24 25  1  0
 24 26  1  0
 19 27  1  0
 27 28  1  6
 27 29  1  0
 29 30  1  0
 30 31  1  0
 31 32  1  6
  7  5  1  0
 31 10  1  0
 31 13  1  0
 27 15  1  0
 24 18  1  0
  1 33  1  0
  1 34  1  0
  1 35  1  0
  2 36  1  1
  3 37  1  0
  3 38  1  0
  4 39  1  0
  4 40  1  0
  5 41  1  6
  8 42  1  0
  8 43  1  0
  8 44  1  0
  9 45  1  0
  9 46  1  0
  9 47  1  0
 10 48  1  1
 11 49  1  0
 11 50  1  0
 12 51  1  0
 12 52  1  0
 14 53  1  0
 14 54  1  0
 14 55  1  0
 15 56  1  6
 16 57  1  0
 16 58  1  0
 17 59  1  0
 19 60  1  1
 20 61  1  0
 20 62  1  0
 21 63  1  0
 21 64  1  0
 22 65  1  1
 23 66  1  0
 25 67  1  0
 25 68  1  0
 25 69  1  0
 26 70  1  0
 26 71  1  0
 26 72  1  0
 28 73  1  0
 28 74  1  0
 28 75  1  0
 29 76  1  0
 29 77  1  0
 30 78  1  0
 30 79  1  0
 32 80  1  0
 32 81  1  0
 32 82  1  0
M  END
>  <meeko>  (11) 
{"is_sidechain": [false], "intermolecular_energy": 2.731, "internal_energy": -0.839}

$$$$
EPH_relaxed_0001_pdb2pqr_Repair_382_r2_0001_out
     RDKit          3D

 82 86  0  0  0  0  0  0  0  0999 V2000
   -4.0800    7.1790   -3.2810 C   0  0  0  0  0  0  0  0  0  0  0  0
   -4.0160    7.2620   -1.7530 C   0  0  2  0  0  0  0  0  0  0  0  0
   -5.4000    7.0670   -1.1020 C   0  0  0  0  0  0  0  0  0  0  0  0
   -6.5640    7.1520   -2.0930 C   0  0  0  0  0  0  0  0  0  0  0  0
   -7.2600    8.4780   -2.0180 C   0  0  2  0  0  0  0  0  0  0  0  0
   -8.0800    8.6580   -0.8560 O   0  0  0  0  0  0  0  0  0  0  0  0
   -8.7650    8.6390   -2.1190 C   0  0  0  0  0  0  0  0  0  0  0  0
   -9.6660    7.4580   -2.3050 C   0  0  0  0  0  0  0  0  0  0  0  0
   -9.3160    9.9700   -2.5250 C   0  0  0  0  0  0  0  0  0  0  0  0
   -3.4260    8.6020   -1.3300 C   0  0  1  0  0  0  0  0  0  0  0  0
   -4.0000    9.1080    0.0200 C   0  0  0  0  0  0  0  0  0  0  0  0
   -2.8470    9.8470    0.7480 C   0  0  0  0  0  0  0  0  0  0  0  0
   -1.7580   10.0320   -0.3350 C   0  0  1  0  0  0  0  0  0  0  0  0
   -2.2120   11.2810   -1.1520 C   0  0  0  0  0  0  0  0  0  0  0  0
   -0.2900   10.1820    0.1810 C   0  0  2  0  0  0  0  0  0  0  0  0
   -0.0310   11.4150    1.0630 C   0  0  0  0  0  0  0  0  0  0  0  0
    0.3980   12.6440    0.3310 C   0  0  0  0  0  0  0  0  0  0  0  0
    0.8440   12.6830   -0.9380 C   0  0  0  0  0  0  0  0  0  0  0  0
    1.0440   11.3920   -1.7420 C   0  0  1  0  0  0  0  0  0  0  0  0
    2.4200   11.4350   -2.4570 C   0  0  0  0  0  0  0  0  0  0  0  0
    2.5970   12.6870   -3.3110 C   0  0  0  0  0  0  0  0  0  0  0  0
    2.4490   13.9490   -2.4640 C   0  0  2  0  0  0  0  0  0  0  0  0
    3.5400   14.0150   -1.5410 O   0  0  0  0  0  0  0  0  0  0  0  0
    1.1030   14.0120   -1.6890 C   0  0  0  0  0  0  0  0  0  0  0  0
   -0.0610   14.2440   -2.6840 C   0  0  0  0  0  0  0  0  0  0  0  0
    1.1420   15.2610   -0.7670 C   0  0  0  0  0  0  0  0  0  0  0  0
    0.8110   10.0360   -0.9460 C   0  0  1  0  0  0  0  0  0  0  0  0
    2.1280    9.6080   -0.2300 C   0  0  0  0  0  0  0  0  0  0  0  0
    0.4710    8.8900   -1.9710 C   0  0  0  0  0  0  0  0  0  0  0  0
   -1.0120    8.7150   -2.3490 C   0  0  0  0  0  0  0  0  0  0  0  0
   -1.8950    8.6640   -1.0990 C   0  0  2  0  0  0  0  0  0  0  0  0
   -1.4760    7.4040   -0.2680 C   0  0  0  0  0  0  0  0  0  0  0  0
   -4.7271    6.3398   -3.5758 H   0  0  0  0  0  0  0  0  0  0  0  0
   -4.4907    8.1172   -3.6823 H   0  0  0  0  0  0  0  0  0  0  0  0
   -3.0682    7.0204   -3.6823 H   0  0  0  0  0  0  0  0  0  0  0  0
   -3.3690    6.4437   -1.4041 H   0  0  0  0  0  0  0  0  0  0  0  0
   -5.4225    6.0765   -0.6241 H   0  0  0  0  0  0  0  0  0  0  0  0
   -5.5332    7.8852   -0.3789 H   0  0  0  0  0  0  0  0  0  0  0  0
   -6.1755    7.0104   -3.1123 H   0  0  0  0  0  0  0  0  0  0  0  0
   -7.2913    6.3678   -1.8360 H   0  0  0  0  0  0  0  0  0  0  0  0
   -6.4285    8.9714   -2.5426 H   0  0  0  0  0  0  0  0  0  0  0  0
   -9.9648    7.0663   -1.3215 H   0  0  0  0  0  0  0  0  0  0  0  0
  -10.5617    7.7647   -2.8651 H   0  0  0  0  0  0  0  0  0  0  0  0
   -9.1335    6.6752   -2.8651 H   0  0  0  0  0  0  0  0  0  0  0  0
   -9.5586   10.5560   -1.6263 H   0  0  0  0  0  0  0  0  0  0  0  0
   -8.5673   10.5096   -3.1236 H   0  0  0  0  0  0  0  0  0  0  0  0
  -10.2270    9.8226   -3.1236 H   0  0  0  0  0  0  0  0  0  0  0  0
   -3.6990    9.2084   -2.2062 H   0  0  0  0  0  0  0  0  0  0  0  0
   -4.8381    9.7975   -0.1594 H   0  0  0  0  0  0  0  0  0  0  0  0
   -4.3781    8.2718    0.6265 H   0  0  0  0  0  0  0  0  0  0  0  0
   -3.1882   10.8219    1.1263 H   0  0  0  0  0  0  0  0  0  0  0  0
   -2.4776    9.2877    1.6202 H   0  0  0  0  0  0  0  0  0  0  0  0
   -2.5043   12.0850   -0.4605 H   0  0  0  0  0  0  0  0  0  0  0  0
   -1.3818   11.6262   -1.7858 H   0  0  0  0  0  0  0  0  0  0  0  0
   -3.0700   11.0125   -1.7858 H   0  0  0  0  0  0  0  0  0  0  0  0
   -0.1839    9.3121    0.8458 H   0  0  0  0  0  0  0  0  0  0  0  0
   -0.9606   11.6480    1.6029 H   0  0  0  0  0  0  0  0  0  0  0  0
    0.8065   11.1462    1.7235 H   0  0  0  0  0  0  0  0  0  0  0  0
    0.3449   13.5984    0.8754 H   0  0  0  0  0  0  0  0  0  0  0  0
    0.2364   11.3705   -2.4886 H   0  0  0  0  0  0  0  0  0  0  0  0
    3.2137   11.4123   -1.6958 H   0  0  0  0  0  0  0  0  0  0  0  0
    2.4758   10.5638   -3.1263 H   0  0  0  0  0  0  0  0  0  0  0  0
    3.5983   12.6740   -3.7662 H   0  0  0  0  0  0  0  0  0  0  0  0
    1.8210   12.6936   -4.0906 H   0  0  0  0  0  0  0  0  0  0  0  0
    2.4564   14.8095   -3.1492 H   0  0  0  0  0  0  0  0  0  0  0  0
    3.4030   14.7970   -0.9790 H   0  0  0  0  0  0  0  0  0  0  0  0
   -0.9900   14.4292   -2.1248 H   0  0  0  0  0  0  0  0  0  0  0  0
    0.1657   15.1146   -3.3169 H   0  0  0  0  0  0  0  0  0  0  0  0
   -0.1854   13.3530   -3.3169 H   0  0  0  0  0  0  0  0  0  0  0  0
    1.1320   14.9405    0.2852 H   0  0  0  0  0  0  0  0  0  0  0  0
    2.0585   15.8356   -0.9666 H   0  0  0  0  0  0  0  0  0  0  0  0
    0.2631   15.8917   -0.9666 H   0  0  0  0  0  0  0  0  0  0  0  0
    1.9848    9.6546    0.8596 H   0  0  0  0  0  0  0  0  0  0  0  0
    2.3867    8.5796   -0.5222 H   0  0  0  0  0  0  0  0  0  0  0  0
    2.9418   10.2879   -0.5222 H   0  0  0  0  0  0  0  0  0  0  0  0
    1.0286    9.0951   -2.8968 H   0  0  0  0  0  0  0  0  0  0  0  0
    0.7509    7.9558   -1.4622 H   0  0  0  0  0  0  0  0  0  0  0  0
   -1.3256    9.5623   -2.9765 H   0  0  0  0  0  0  0  0  0  0  0  0
   -1.1245    7.7675   -2.8963 H   0  0  0  0  0  0  0  0  0  0  0  0
   -1.5515    7.6311    0.8056 H   0  0  0  0  0  0  0  0  0  0  0  0
   -2.1434    6.5646   -0.5130 H   0  0  0  0  0  0  0  0  0  0  0  0
   -0.4389    7.1314   -0.5130 H   0  0  0  0  0  0  0  0  0  0  0  0
  1  2  1  0
  2  3  1  0
  3  4  1  0
  4  5  1  0
  5  6  1  0
  6  7  1  0
  7  8  1  0
  7  9  1  0
  2 10  1  0
 10 11  1  0
 11 12  1  0
 12 13  1  0
 13 14  1  6
 13 15  1  0
 15 16  1  0
 16 17  1  0
 17 18  2  0
 18 19  1  0
 19 20  1  0
 20 21  1  0
 21 22  1  0
 22 23  1  0
 22 24  1  0
 24 25  1  0
 24 26  1  0
 19 27  1  0
 27 28  1  1
 27 29  1  0
 29 30  1  0
 30 31  1  0
 31 32  1  1
  7  5  1  0
 31 10  1  0
 31 13  1  0
 27 15  1  0
 24 18  1  0
  1 33  1  0
  1 34  1  0
  1 35  1  0
  2 36  1  1
  3 37  1  0
  3 38  1  0
  4 39  1  0
  4 40  1  0
  5 41  1  6
  8 42  1  0
  8 43  1  0
  8 44  1  0
  9 45  1  0
  9 46  1  0
  9 47  1  0
 10 48  1  6
 11 49  1  0
 11 50  1  0
 12 51  1  0
 12 52  1  0
 14 53  1  0
 14 54  1  0
 14 55  1  0
 15 56  1  1
 16 57  1  0
 16 58  1  0
 17 59  1  0
 19 60  1  6
 20 61  1  0
 20 62  1  0
 21 63  1  0
 21 64  1  0
 22 65  1  6
 23 66  1  0
 25 67  1  0
 25 68  1  0
 25 69  1  0
 26 70  1  0
 26 71  1  0
 26 72  1  0
 28 73  1  0
 28 74  1  0
 28 75  1  0
 29 76  1  0
 29 77  1  0
 30 78  1  0
 30 79  1  0
 32 80  1  0
 32 81  1  0
 32 82  1  0
M  END
>  <meeko>  (12) 
{"is_sidechain": [false], "intermolecular_energy": 2.731, "internal_energy": -0.839}

$$$$
EPH_relaxed_0001_pdb2pqr_Repair_382_r2_0001_out
     RDKit          3D

 82 86  0  0  0  0  0  0  0  0999 V2000
    0.2300   17.7850   -2.5010 C   0  0  0  0  0  0  0  0  0  0  0  0
    0.0300   16.9360   -1.2420 C   0  0  2  0  0  0  0  0  0  0  0  0
    0.0590   17.7880    0.0430 C   0  0  0  0  0  0  0  0  0  0  0  0
    0.7410   19.1470   -0.1350 C   0  0  0  0  0  0  0  0  0  0  0  0
    1.8340   19.3540    0.8680 C   0  0  2  0  0  0  0  0  0  0  0  0
    2.9060   20.1940    0.4210 O   0  0  0  0  0  0  0  0  0  0  0  0
    3.2450   18.8240    0.6900 C   0  0  0  0  0  0  0  0  0  0  0  0
    3.6370   18.0440   -0.5250 C   0  0  0  0  0  0  0  0  0  0  0  0
    4.1000   18.6420    1.9060 C   0  0  0  0  0  0  0  0  0  0  0  0
    1.0970   15.8500   -1.1730 C   0  0  1  0  0  0  0  0  0  0  0  0
    1.3100   15.3140    0.2680 C   0  0  0  0  0  0  0  0  0  0  0  0
    1.6350   13.8040    0.1400 C   0  0  0  0  0  0  0  0  0  0  0  0
    1.9240   13.5930   -1.3650 C   0  0  1  0  0  0  0  0  0  0  0  0
    3.4020   14.0560   -1.5580 C   0  0  0  0  0  0  0  0  0  0  0  0
    1.6950   12.1490   -1.9180 C   0  0  2  0  0  0  0  0  0  0  0  0
    2.5920   11.0630   -1.2970 C   0  0  0  0  0  0  0  0  0  0  0  0
    3.8860   10.8250   -2.0030 C   0  0  0  0  0  0  0  0  0  0  0  0
    4.1890   11.2480   -3.2440 C   0  0  0  0  0  0  0  0  0  0  0  0
    3.1440   11.9640   -4.1100 C   0  0  1  0  0  0  0  0  0  0  0  0
    3.1550   11.3600   -5.5390 C   0  0  0  0  0  0  0  0  0  0  0  0
    4.5440   11.3760   -6.1700 C   0  0  0  0  0  0  0  0  0  0  0  0
    5.5420   10.6060   -5.3090 C   0  0  2  0  0  0  0  0  0  0  0  0
    5.1860    9.2200   -5.3180 O   0  0  0  0  0  0  0  0  0  0  0  0
    5.6110   11.1180   -3.8440 C   0  0  0  0  0  0  0  0  0  0  0  0
    6.2820   12.5140   -3.8110 C   0  0  0  0  0  0  0  0  0  0  0  0
    6.5470   10.1680   -3.0490 C   0  0  0  0  0  0  0  0  0  0  0  0
    1.6800   12.0540   -3.4970 C   0  0  1  0  0  0  0  0  0  0  0  0
    0.8720   10.7700   -3.8580 C   0  0  0  0  0  0  0  0  0  0  0  0
    0.9180   13.2600   -4.1620 C   0  0  0  0  0  0  0  0  0  0  0  0
    1.0890   14.6400   -3.4990 C   0  0  0  0  0  0  0  0  0  0  0  0
    0.8500   14.5570   -1.9890 C   0  0  2  0  0  0  0  0  0  0  0  0
   -0.6360   14.1140   -1.7640 C   0  0  0  0  0  0  0  0  0  0  0  0
    0.4734   18.8180   -2.2118 H   0  0  0  0  0  0  0  0  0  0  0  0
    1.0544   17.3674   -3.0977 H   0  0  0  0  0  0  0  0  0  0  0  0
   -0.6941   17.7793   -3.0977 H   0  0  0  0  0  0  0  0  0  0  0  0
   -0.9660   16.4738   -1.3083 H   0  0  0  0  0  0  0  0  0  0  0  0
   -0.9774   17.9596    0.3694 H   0  0  0  0  0  0  0  0  0  0  0  0
    0.6459   17.2287    0.7864 H   0  0  0  0  0  0  0  0  0  0  0  0
    1.1704   19.2006   -1.1463 H   0  0  0  0  0  0  0  0  0  0  0  0
   -0.0148   19.9321    0.0145 H   0  0  0  0  0  0  0  0  0  0  0  0
    1.1171   19.2794    1.6990 H   0  0  0  0  0  0  0  0  0  0  0  0
    4.1113   17.1003   -0.2176 H   0  0  0  0  0  0  0  0  0  0  0  0
    2.7415   17.8258   -1.1253 H   0  0  0  0  0  0  0  0  0  0  0  0
    4.3465   18.6324   -1.1253 H   0  0  0  0  0  0  0  0  0  0  0  0
    3.4857   18.7728    2.8091 H   0  0  0  0  0  0  0  0  0  0  0  0
    4.5342   17.6313    1.9010 H   0  0  0  0  0  0  0  0  0  0  0  0
    4.9081   19.3882    1.9010 H   0  0  0  0  0  0  0  0  0  0  0  0
    1.9502   16.4023   -1.5938 H   0  0  0  0  0  0  0  0  0  0  0  0
    2.1466   15.8421    0.7488 H   0  0  0  0  0  0  0  0  0  0  0  0
    0.4138   15.4741    0.8854 H   0  0  0  0  0  0  0  0  0  0  0  0
    2.5162   13.5439    0.7448 H   0  0  0  0  0  0  0  0  0  0  0  0
    0.8125   13.1684    0.4998 H   0  0  0  0  0  0  0  0  0  0  0  0
    3.8716   14.2031   -0.5742 H   0  0  0  0  0  0  0  0  0  0  0  0
    3.9565   13.2885   -2.1179 H   0  0  0  0  0  0  0  0  0  0  0  0
    3.4195   15.0027   -2.1179 H   0  0  0  0  0  0  0  0  0  0  0  0
    0.6739   11.9245   -1.5761 H   0  0  0  0  0  0  0  0  0  0  0  0
    2.8187   11.3599   -0.2624 H   0  0  0  0  0  0  0  0  0  0  0  0
    2.0270   10.1221   -1.3712 H   0  0  0  0  0  0  0  0  0  0  0  0
    4.6569   10.2557   -1.4629 H   0  0  0  0  0  0  0  0  0  0  0  0
    3.4514   13.0195   -4.1481 H   0  0  0  0  0  0  0  0  0  0  0  0
    2.8044   10.3188   -5.4845 H   0  0  0  0  0  0  0  0  0  0  0  0
    2.4956   11.9767   -6.1674 H   0  0  0  0  0  0  0  0  0  0  0  0
    4.4928   10.9107   -7.1654 H   0  0  0  0  0  0  0  0  0  0  0  0
    4.8814   12.4198   -6.2509 H   0  0  0  0  0  0  0  0  0  0  0  0
    6.5407   10.7626   -5.7428 H   0  0  0  0  0  0  0  0  0  0  0  0
    5.8240    8.7480   -4.7570 H   0  0  0  0  0  0  0  0  0  0  0  0
    6.4312   12.8245   -2.7663 H   0  0  0  0  0  0  0  0  0  0  0  0
    7.2551   12.4653   -4.3216 H   0  0  0  0  0  0  0  0  0  0  0  0
    5.6361   13.2434   -4.3216 H   0  0  0  0  0  0  0  0  0  0  0  0
    6.3953   10.3219   -1.9704 H   0  0  0  0  0  0  0  0  0  0  0  0
    6.3146    9.1242   -3.3067 H   0  0  0  0  0  0  0  0  0  0  0  0
    7.5942   10.3849   -3.3067 H   0  0  0  0  0  0  0  0  0  0  0  0
    0.5542   10.2649   -2.9340 H   0  0  0  0  0  0  0  0  0  0  0  0
   -0.0142   11.0480   -4.4473 H   0  0  0  0  0  0  0  0  0  0  0  0
    1.5061   10.0913   -4.4473 H   0  0  0  0  0  0  0  0  0  0  0  0
    1.2700   13.3439   -5.2008 H   0  0  0  0  0  0  0  0  0  0  0  0
   -0.1501   13.0197   -4.0552 H   0  0  0  0  0  0  0  0  0  0  0  0
    2.1112   15.0027   -3.6819 H   0  0  0  0  0  0  0  0  0  0  0  0
    0.3513   15.3310   -3.9330 H   0  0  0  0  0  0  0  0  0  0  0  0
   -0.8410   14.0529   -0.6850 H   0  0  0  0  0  0  0  0  0  0  0  0
   -1.3117   14.8498   -2.2245 H   0  0  0  0  0  0  0  0  0  0  0  0
   -0.7985   13.1283   -2.2245 H   0  0  0  0  0  0  0  0  0  0  0  0
  1  2  1  0
  2  3  1  0
  3  4  1  0
  4  5  1  0
  5  6  1  0
  6  7  1  0
  7  8  1  0
  7  9  1  0
  2 10  1  0
 10 11  1  0
 11 12  1  0
 12 13  1  0
 13 14  1  1
 13 15  1  0
 15 16  1  0
 16 17  1  0
 17 18  2  0
 18 19  1  0
 19 20  1  0
 20 21  1  0
 21 22  1  0
 22 23  1  0
 22 24  1  0
 24 25  1  0
 24 26  1  0
 19 27  1  0
 27 28  1  1
 27 29  1  0
 29 30  1  0
 30 31  1  0
 31 32  1  6
  7  5  1  0
 31 10  1  0
 31 13  1  0
 27 15  1  0
 24 18  1  0
  1 33  1  0
  1 34  1  0
  1 35  1  0
  2 36  1  6
  3 37  1  0
  3 38  1  0
  4 39  1  0
  4 40  1  0
  5 41  1  1
  8 42  1  0
  8 43  1  0
  8 44  1  0
  9 45  1  0
  9 46  1  0
  9 47  1  0
 10 48  1  6
 11 49  1  0
 11 50  1  0
 12 51  1  0
 12 52  1  0
 14 53  1  0
 14 54  1  0
 14 55  1  0
 15 56  1  1
 16 57  1  0
 16 58  1  0
 17 59  1  0
 19 60  1  6
 20 61  1  0
 20 62  1  0
 21 63  1  0
 21 64  1  0
 22 65  1  6
 23 66  1  0
 25 67  1  0
 25 68  1  0
 25 69  1  0
 26 70  1  0
 26 71  1  0
 26 72  1  0
 28 73  1  0
 28 74  1  0
 28 75  1  0
 29 76  1  0
 29 77  1  0
 30 78  1  0
 30 79  1  0
 32 80  1  0
 32 81  1  0
 32 82  1  0
M  END
>  <meeko>  (13) 
{"is_sidechain": [false], "intermolecular_energy": 2.731, "internal_energy": -0.839}

$$$$
EPH_relaxed_0001_pdb2pqr_Repair_382_r2_0001_out
     RDKit          3D

 82 86  0  0  0  0  0  0  0  0999 V2000
   -0.2820   15.0790   -7.5890 C   0  0  0  0  0  0  0  0  0  0  0  0
    1.0900   15.0530   -6.9090 C   0  0  2  0  0  0  0  0  0  0  0  0
    2.2450   15.1390   -7.9270 C   0  0  0  0  0  0  0  0  0  0  0  0
    2.2890   16.4620   -8.6960 C   0  0  0  0  0  0  0  0  0  0  0  0
    1.8810   16.2850  -10.1270 C   0  0  2  0  0  0  0  0  0  0  0  0
    1.1960   15.0570  -10.4070 O   0  0  0  0  0  0  0  0  0  0  0  0
    2.4730   15.2300  -11.0420 C   0  0  0  0  0  0  0  0  0  0  0  0
    3.5250   14.2810  -10.5600 C   0  0  0  0  0  0  0  0  0  0  0  0
    2.3870   15.4360  -12.5220 C   0  0  0  0  0  0  0  0  0  0  0  0
    1.2300   13.7880   -6.0690 C   0  0  1  0  0  0  0  0  0  0  0  0
    2.6640   13.1980   -6.1110 C   0  0  0  0  0  0  0  0  0  0  0  0
    2.9410   12.5950   -4.7100 C   0  0  0  0  0  0  0  0  0  0  0  0
    1.5570   12.5580   -4.0210 C   0  0  1  0  0  0  0  0  0  0  0  0
    0.8660   11.2740   -4.5770 C   0  0  0  0  0  0  0  0  0  0  0  0
    1.5630   12.5800   -2.4580 C   0  0  2  0  0  0  0  0  0  0  0  0
    2.2490   11.3750   -1.7910 C   0  0  0  0  0  0  0  0  0  0  0  0
    1.3550   10.2180   -1.4910 C   0  0  0  0  0  0  0  0  0  0  0  0
    0.0090   10.2510   -1.4840 C   0  0  0  0  0  0  0  0  0  0  0  0
   -0.7480   11.5670   -1.7010 C   0  0  1  0  0  0  0  0  0  0  0  0
   -1.8700   11.7010   -0.6380 C   0  0  0  0  0  0  0  0  0  0  0  0
   -2.7990   10.4910   -0.6120 C   0  0  0  0  0  0  0  0  0  0  0  0
   -2.0170    9.2090   -0.3360 C   0  0  2  0  0  0  0  0  0  0  0  0
   -1.5000    9.2630    0.9970 O   0  0  0  0  0  0  0  0  0  0  0  0
   -0.8540    8.9730   -1.3390 C   0  0  0  0  0  0  0  0  0  0  0  0
   -1.4310    8.6150   -2.7310 C   0  0  0  0  0  0  0  0  0  0  0  0
   -0.0600    7.7250   -0.8640 C   0  0  0  0  0  0  0  0  0  0  0  0
    0.1500   12.8740   -1.8080 C   0  0  1  0  0  0  0  0  0  0  0  0
    0.4250   13.4490   -0.3850 C   0  0  0  0  0  0  0  0  0  0  0  0
   -0.6480   13.9840   -2.5890 C   0  0  0  0  0  0  0  0  0  0  0  0
   -0.5190   13.9830   -4.1240 C   0  0  0  0  0  0  0  0  0  0  0  0
    0.9510   13.9090   -4.5500 C   0  0  2  0  0  0  0  0  0  0  0  0
    1.6670   15.1990   -4.0240 C   0  0  0  0  0  0  0  0  0  0  0  0
   -1.0709   15.0940   -6.8225 H   0  0  0  0  0  0  0  0  0  0  0  0
   -0.3633   15.9788   -8.2164 H   0  0  0  0  0  0  0  0  0  0  0  0
   -0.3973   14.1829   -8.2164 H   0  0  0  0  0  0  0  0  0  0  0  0
    1.1544   15.9394   -6.2609 H   0  0  0  0  0  0  0  0  0  0  0  0
    3.1950   15.0201   -7.3854 H   0  0  0  0  0  0  0  0  0  0  0  0
    2.0818   14.3418   -8.6671 H   0  0  0  0  0  0  0  0  0  0  0  0
    1.6042   17.1764   -8.2158 H   0  0  0  0  0  0  0  0  0  0  0  0
    3.3237   16.8349   -8.6780 H   0  0  0  0  0  0  0  0  0  0  0  0
    1.7412   17.3696  -10.2453 H   0  0  0  0  0  0  0  0  0  0  0  0
    3.5347   14.2722   -9.4601 H   0  0  0  0  0  0  0  0  0  0  0  0
    3.3052   13.2697  -10.9328 H   0  0  0  0  0  0  0  0  0  0  0  0
    4.5084   14.6035  -10.9328 H   0  0  0  0  0  0  0  0  0  0  0  0
    1.9709   16.4328  -12.7299 H   0  0  0  0  0  0  0  0  0  0  0  0
    3.3923   15.3593  -12.9619 H   0  0  0  0  0  0  0  0  0  0  0  0
    1.7346   14.6673  -12.9619 H   0  0  0  0  0  0  0  0  0  0  0  0
    0.4587   13.1647   -6.5449 H   0  0  0  0  0  0  0  0  0  0  0  0
    2.7287   12.4143   -6.8802 H   0  0  0  0  0  0  0  0  0  0  0  0
    3.4030   13.9738   -6.3601 H   0  0  0  0  0  0  0  0  0  0  0  0
    3.3577   11.5809   -4.7991 H   0  0  0  0  0  0  0  0  0  0  0  0
    3.6752   13.1834   -4.1402 H   0  0  0  0  0  0  0  0  0  0  0  0
    0.5285   10.6469   -3.7386 H   0  0  0  0  0  0  0  0  0  0  0  0
    0.0003   11.5606   -5.1922 H   0  0  0  0  0  0  0  0  0  0  0  0
    1.5821   10.7094   -5.1922 H   0  0  0  0  0  0  0  0  0  0  0  0
    2.2023   13.4474   -2.2370 H   0  0  0  0  0  0  0  0  0  0  0  0
    3.0463   11.0233   -2.4623 H   0  0  0  0  0  0  0  0  0  0  0  0
    2.6180   11.7345   -0.8191 H   0  0  0  0  0  0  0  0  0  0  0  0
    1.8364    9.2573   -1.2558 H   0  0  0  0  0  0  0  0  0  0  0  0
   -1.1916   11.5001   -2.7054 H   0  0  0  0  0  0  0  0  0  0  0  0
   -1.4055   11.8102    0.3531 H   0  0  0  0  0  0  0  0  0  0  0  0
   -2.4754   12.5811   -0.9007 H   0  0  0  0  0  0  0  0  0  0  0  0
   -3.5510   10.6313    0.1785 H   0  0  0  0  0  0  0  0  0  0  0  0
   -3.2860   10.4009   -1.5942 H   0  0  0  0  0  0  0  0  0  0  0  0
   -2.7121    8.3653   -0.4586 H   0  0  0  0  0  0  0  0  0  0  0  0
   -2.1800    8.9000    1.5910 H   0  0  0  0  0  0  0  0  0  0  0  0
   -2.3596    8.0388   -2.6059 H   0  0  0  0  0  0  0  0  0  0  0  0
   -1.6451    9.5391   -3.2879 H   0  0  0  0  0  0  0  0  0  0  0  0
   -0.6981    8.0128   -3.2879 H   0  0  0  0  0  0  0  0  0  0  0  0
   -0.0428    7.6980    0.2355 H   0  0  0  0  0  0  0  0  0  0  0  0
   -0.5453    6.8146   -1.2456 H   0  0  0  0  0  0  0  0  0  0  0  0
    0.9703    7.7788   -1.2456 H   0  0  0  0  0  0  0  0  0  0  0  0
    0.0813   12.7304    0.3736 H   0  0  0  0  0  0  0  0  0  0  0  0
    1.5041   13.6236   -0.2623 H   0  0  0  0  0  0  0  0  0  0  0  0
   -0.1164   14.3987   -0.2623 H   0  0  0  0  0  0  0  0  0  0  0  0
   -1.7135   13.8617   -2.3447 H   0  0  0  0  0  0  0  0  0  0  0  0
   -0.2066   14.9377   -2.2640 H   0  0  0  0  0  0  0  0  0  0  0  0
   -1.0556   13.1127   -4.5298 H   0  0  0  0  0  0  0  0  0  0  0  0
   -0.9507   14.9169   -4.5132 H   0  0  0  0  0  0  0  0  0  0  0  0
    1.6656   15.1965   -2.9240 H   0  0  0  0  0  0  0  0  0  0  0  0
    2.7044   15.2174   -4.3893 H   0  0  0  0  0  0  0  0  0  0  0  0
    1.1338   16.0891   -4.3893 H   0  0  0  0  0  0  0  0  0  0  0  0
  1  2  1  0
  2  3  1  0
  3  4  1  0
  4  5  1  0
  5  6  1  0
  6  7  1  0
  7  8  1  0
  7  9  1  0
  2 10  1  0
 10 11  1  0
 11 12  1  0
 12 13  1  0
 13 14  1  1
 13 15  1  0
 15 16  1  0
 16 17  1  0
 17 18  2  0
 18 19  1  0
 19 20  1  0
 20 21  1  0
 21 22  1  0
 22 23  1  0
 22 24  1  0
 24 25  1  0
 24 26  1  0
 19 27  1  0
 27 28  1  1
 27 29  1  0
 29 30  1  0
 30 31  1  0
 31 32  1  1
  7  5  1  0
 31 10  1  0
 31 13  1  0
 27 15  1  0
 24 18  1  0
  1 33  1  0
  1 34  1  0
  1 35  1  0
  2 36  1  1
  3 37  1  0
  3 38  1  0
  4 39  1  0
  4 40  1  0
  5 41  1  6
  8 42  1  0
  8 43  1  0
  8 44  1  0
  9 45  1  0
  9 46  1  0
  9 47  1  0
 10 48  1  6
 11 49  1  0
 11 50  1  0
 12 51  1  0
 12 52  1  0
 14 53  1  0
 14 54  1  0
 14 55  1  0
 15 56  1  6
 16 57  1  0
 16 58  1  0
 17 59  1  0
 19 60  1  6
 20 61  1  0
 20 62  1  0
 21 63  1  0
 21 64  1  0
 22 65  1  1
 23 66  1  0
 25 67  1  0
 25 68  1  0
 25 69  1  0
 26 70  1  0
 26 71  1  0
 26 72  1  0
 28 73  1  0
 28 74  1  0
 28 75  1  0
 29 76  1  0
 29 77  1  0
 30 78  1  0
 30 79  1  0
 32 80  1  0
 32 81  1  0
 32 82  1  0
M  END
>  <meeko>  (14) 
{"is_sidechain": [false], "intermolecular_energy": 2.731, "internal_energy": -0.839}

$$$$
EPH_relaxed_0001_pdb2pqr_Repair_382_r2_0001_out
     RDKit          3D

 82 86  0  0  0  0  0  0  0  0999 V2000
   -2.2950    7.8330   -2.2510 C   0  0  0  0  0  0  0  0  0  0  0  0
   -2.0990    8.3850   -0.8360 C   0  0  2  0  0  0  0  0  0  0  0  0
   -3.3900    8.3010    0.0030 C   0  0  0  0  0  0  0  0  0  0  0  0
   -4.6490    8.7180   -0.7610 C   0  0  0  0  0  0  0  0  0  0  0  0
   -5.5540    7.5510   -1.0170 C   0  0  2  0  0  0  0  0  0  0  0  0
   -5.8800    7.3370   -2.3970 O   0  0  0  0  0  0  0  0  0  0  0  0
   -6.9730    7.6900   -1.5350 C   0  0  0  0  0  0  0  0  0  0  0  0
   -7.5690    9.0320   -1.8260 C   0  0  0  0  0  0  0  0  0  0  0  0
   -7.9360    6.5700   -1.2930 C   0  0  0  0  0  0  0  0  0  0  0  0
   -1.6140    9.8280   -0.9030 C   0  0  1  0  0  0  0  0  0  0  0  0
   -1.2210   10.3920    0.4880 C   0  0  0  0  0  0  0  0  0  0  0  0
   -0.0230   11.3490    0.2610 C   0  0  0  0  0  0  0  0  0  0  0  0
    0.0210   11.5620   -1.2700 C   0  0  1  0  0  0  0  0  0  0  0  0
   -1.0620   12.6480   -1.5560 C   0  0  0  0  0  0  0  0  0  0  0  0
    1.4090   11.9580   -1.8730 C   0  0  2  0  0  0  0  0  0  0  0  0
    1.9750   13.3010   -1.3790 C   0  0  0  0  0  0  0  0  0  0  0  0
    1.5950   14.4920   -2.1950 C   0  0  0  0  0  0  0  0  0  0  0  0
    1.0710   14.4560   -3.4340 C   0  0  0  0  0  0  0  0  0  0  0  0
    0.9000   13.1260   -4.1790 C   0  0  1  0  0  0  0  0  0  0  0  0
    1.4210   13.2760   -5.6320 C   0  0  0  0  0  0  0  0  0  0  0  0
    0.7730   14.4450   -6.3680 C   0  0  0  0  0  0  0  0  0  0  0  0
    1.0150   15.7570   -5.6280 C   0  0  2  0  0  0  0  0  0  0  0  0
    2.4110   16.0640   -5.6760 O   0  0  0  0  0  0  0  0  0  0  0  0
    0.5380   15.7230   -4.1490 C   0  0  0  0  0  0  0  0  0  0  0  0
   -1.0100   15.6930   -4.1010 C   0  0  0  0  0  0  0  0  0  0  0  0
    0.9670   17.0550   -3.4770 C   0  0  0  0  0  0  0  0  0  0  0  0
    1.4880   11.8420   -3.4490 C   0  0  1  0  0  0  0  0  0  0  0  0
    2.9950   11.6700   -3.8080 C   0  0  0  0  0  0  0  0  0  0  0  0
    0.7520   10.5610   -3.9920 C   0  0  0  0  0  0  0  0  0  0  0  0
   -0.5500   10.1520   -3.2780 C   0  0  0  0  0  0  0  0  0  0  0  0
   -0.3550   10.1160   -1.7600 C   0  0  2  0  0  0  0  0  0  0  0  0
    0.7140    9.0160   -1.4400 C   0  0  0  0  0  0  0  0  0  0  0  0
   -2.6626    6.7978   -2.1931 H   0  0  0  0  0  0  0  0  0  0  0  0
   -3.0280    8.4529   -2.7881 H   0  0  0  0  0  0  0  0  0  0  0  0
   -1.3352    7.8518   -2.7881 H   0  0  0  0  0  0  0  0  0  0  0  0
   -1.3409    7.7615   -0.3394 H   0  0  0  0  0  0  0  0  0  0  0  0
   -3.5173    7.2621    0.3412 H   0  0  0  0  0  0  0  0  0  0  0  0
   -3.2749    9.0043    0.8409 H   0  0  0  0  0  0  0  0  0  0  0  0
   -5.1934    9.4681   -0.1686 H   0  0  0  0  0  0  0  0  0  0  0  0
   -4.3396    9.1316   -1.7322 H   0  0  0  0  0  0  0  0  0  0  0  0
   -5.1313    7.0058   -0.1602 H   0  0  0  0  0  0  0  0  0  0  0  0
   -7.7968    9.5450   -0.8800 H   0  0  0  0  0  0  0  0  0  0  0  0
   -6.8532    9.6331   -2.4059 H   0  0  0  0  0  0  0  0  0  0  0  0
   -8.4949    8.9040   -2.4059 H   0  0  0  0  0  0  0  0  0  0  0  0
   -8.0626    6.4228   -0.2103 H   0  0  0  0  0  0  0  0  0  0  0  0
   -8.9076    6.8176   -1.7454 H   0  0  0  0  0  0  0  0  0  0  0  0
   -7.5455    5.6465   -1.7454 H   0  0  0  0  0  0  0  0  0  0  0  0
   -2.4969   10.2979   -1.3609 H   0  0  0  0  0  0  0  0  0  0  0  0
   -2.0669   10.9416    0.9266 H   0  0  0  0  0  0  0  0  0  0  0  0
   -0.9526    9.5812    1.1812 H   0  0  0  0  0  0  0  0  0  0  0  0
   -0.1851   12.3044    0.7815 H   0  0  0  0  0  0  0  0  0  0  0  0
    0.9193   10.9381    0.6524 H   0  0  0  0  0  0  0  0  0  0  0  0
   -1.4508   13.0378   -0.6037 H   0  0  0  0  0  0  0  0  0  0  0  0
   -0.6134   13.4701   -2.1330 H   0  0  0  0  0  0  0  0  0  0  0  0
   -1.8854   12.2017   -2.1330 H   0  0  0  0  0  0  0  0  0  0  0  0
    2.0743   11.1840   -1.4627 H   0  0  0  0  0  0  0  0  0  0  0  0
    1.6160   13.4640   -0.3521 H   0  0  0  0  0  0  0  0  0  0  0  0
    3.0691   13.2165   -1.4551 H   0  0  0  0  0  0  0  0  0  0  0  0
    1.7570   15.4828   -1.7455 H   0  0  0  0  0  0  0  0  0  0  0  0
   -0.1804   12.9197   -4.1895 H   0  0  0  0  0  0  0  0  0  0  0  0
    2.5086   13.4377   -5.6017 H   0  0  0  0  0  0  0  0  0  0  0  0
    1.1637   12.3551   -6.1758 H   0  0  0  0  0  0  0  0  0  0  0  0
    1.2025   14.5169   -7.3781 H   0  0  0  0  0  0  0  0  0  0  0  0
   -0.3112   14.2677   -6.4227 H   0  0  0  0  0  0  0  0  0  0  0  0
    0.4207   16.5335   -6.1318 H   0  0  0  0  0  0  0  0  0  0  0  0
    2.8140   15.7320   -4.8560 H   0  0  0  0  0  0  0  0  0  0  0  0
   -1.3443   15.6865   -3.0530 H   0  0  0  0  0  0  0  0  0  0  0  0
   -1.4099   16.5836   -4.6079 H   0  0  0  0  0  0  0  0  0  0  0  0
   -1.3751   14.7876   -4.6079 H   0  0  0  0  0  0  0  0  0  0  0  0
    0.9307   16.9423   -2.3834 H   0  0  0  0  0  0  0  0  0  0  0  0
    1.9920   17.3079   -3.7857 H   0  0  0  0  0  0  0  0  0  0  0  0
    0.2822   17.8586   -3.7857 H   0  0  0  0  0  0  0  0  0  0  0  0
    3.5868   11.6025   -2.8832 H   0  0  0  0  0  0  0  0  0  0  0  0
    3.1290   10.7507   -4.3971 H   0  0  0  0  0  0  0  0  0  0  0  0
    3.3327   12.5354   -4.3971 H   0  0  0  0  0  0  0  0  0  0  0  0
    0.5091   10.7403   -5.0498 H   0  0  0  0  0  0  0  0  0  0  0  0
    1.4509    9.7306   -3.8133 H   0  0  0  0  0  0  0  0  0  0  0  0
   -1.3381   10.8795   -3.5223 H   0  0  0  0  0  0  0  0  0  0  0  0
   -0.8354    9.1458   -3.6187 H   0  0  0  0  0  0  0  0  0  0  0  0
    0.8165    8.9105   -0.3499 H   0  0  0  0  0  0  0  0  0  0  0  0
    0.3939    8.0567   -1.8727 H   0  0  0  0  0  0  0  0  0  0  0  0
    1.6821    9.3086   -1.8727 H   0  0  0  0  0  0  0  0  0  0  0  0
  1  2  1  0
  2  3  1  0
  3  4  1  0
  4  5  1  0
  5  6  1  0
  6  7  1  0
  7  8  1  0
  7  9  1  0
  2 10  1  0
 10 11  1  0
 11 12  1  0
 12 13  1  0
 13 14  1  1
 13 15  1  0
 15 16  1  0
 16 17  1  0
 17 18  2  0
 18 19  1  0
 19 20  1  0
 20 21  1  0
 21 22  1  0
 22 23  1  0
 22 24  1  0
 24 25  1  0
 24 26  1  0
 19 27  1  0
 27 28  1  1
 27 29  1  0
 29 30  1  0
 30 31  1  0
 31 32  1  6
  7  5  1  0
 31 10  1  0
 31 13  1  0
 27 15  1  0
 24 18  1  0
  1 33  1  0
  1 34  1  0
  1 35  1  0
  2 36  1  1
  3 37  1  0
  3 38  1  0
  4 39  1  0
  4 40  1  0
  5 41  1  1
  8 42  1  0
  8 43  1  0
  8 44  1  0
  9 45  1  0
  9 46  1  0
  9 47  1  0
 10 48  1  6
 11 49  1  0
 11 50  1  0
 12 51  1  0
 12 52  1  0
 14 53  1  0
 14 54  1  0
 14 55  1  0
 15 56  1  1
 16 57  1  0
 16 58  1  0
 17 59  1  0
 19 60  1  6
 20 61  1  0
 20 62  1  0
 21 63  1  0
 21 64  1  0
 22 65  1  6
 23 66  1  0
 25 67  1  0
 25 68  1  0
 25 69  1  0
 26 70  1  0
 26 71  1  0
 26 72  1  0
 28 73  1  0
 28 74  1  0
 28 75  1  0
 29 76  1  0
 29 77  1  0
 30 78  1  0
 30 79  1  0
 32 80  1  0
 32 81  1  0
 32 82  1  0
M  END
>  <meeko>  (15) 
{"is_sidechain": [false], "intermolecular_energy": 2.731, "internal_energy": -0.839}

$$$$
EPH_relaxed_0001_pdb2pqr_Repair_382_r2_0001_out
     RDKit          3D

 82 86  0  0  0  0  0  0  0  0999 V2000
    3.3670   18.3870   -2.8680 C   0  0  0  0  0  0  0  0  0  0  0  0
    2.1050   17.5390   -3.0490 C   0  0  2  0  0  0  0  0  0  0  0  0
    0.8270   18.3110   -2.6660 C   0  0  0  0  0  0  0  0  0  0  0  0
    1.0990   19.6210   -1.9210 C   0  0  0  0  0  0  0  0  0  0  0  0
    0.5050   19.6100   -0.5450 C   0  0  2  0  0  0  0  0  0  0  0  0
   -0.3000   18.4610   -0.2490 O   0  0  0  0  0  0  0  0  0  0  0  0
   -0.9840   19.7240   -0.2760 C   0  0  0  0  0  0  0  0  0  0  0  0
   -1.9710   19.8580   -1.3920 C   0  0  0  0  0  0  0  0  0  0  0  0
   -1.4330   20.1940    1.0730 C   0  0  0  0  0  0  0  0  0  0  0  0
    2.2120   16.2650   -2.2190 C   0  0  1  0  0  0  0  0  0  0  0  0
    2.6040   16.5440   -0.7430 C   0  0  0  0  0  0  0  0  0  0  0  0
    1.8620   15.4930    0.1230 C   0  0  0  0  0  0  0  0  0  0  0  0
    1.3410   14.4490   -0.8920 C   0  0  1  0  0  0  0  0  0  0  0  0
    2.5660   13.5280   -1.1860 C   0  0  0  0  0  0  0  0  0  0  0  0
    0.0890   13.6220   -0.4510 C   0  0  2  0  0  0  0  0  0  0  0  0
    0.2960   12.7380    0.7910 C   0  0  0  0  0  0  0  0  0  0  0  0
    0.7670   11.3490    0.5130 C   0  0  0  0  0  0  0  0  0  0  0  0
    0.7420   10.7400   -0.6870 C   0  0  0  0  0  0  0  0  0  0  0  0
    0.1120   11.4260   -1.9060 C   0  0  1  0  0  0  0  0  0  0  0  0
   -0.8100   10.4220   -2.6460 C   0  0  0  0  0  0  0  0  0  0  0  0
   -0.0910    9.1270   -3.0120 C   0  0  0  0  0  0  0  0  0  0  0  0
    0.4720    8.4450   -1.7680 C   0  0  2  0  0  0  0  0  0  0  0  0
   -0.6170    8.0030   -0.9520 O   0  0  0  0  0  0  0  0  0  0  0  0
    1.4090    9.3640   -0.9360 C   0  0  0  0  0  0  0  0  0  0  0  0
    2.7300    9.5980   -1.7090 C   0  0  0  0  0  0  0  0  0  0  0  0
    1.7940    8.6050    0.3620 C   0  0  0  0  0  0  0  0  0  0  0  0
   -0.6030   12.8180   -1.6250 C   0  0  1  0  0  0  0  0  0  0  0  0
   -2.0810   12.5790   -1.1910 C   0  0  0  0  0  0  0  0  0  0  0  0
   -0.6610   13.6440   -2.9640 C   0  0  0  0  0  0  0  0  0  0  0  0
    0.5550   14.5340   -3.2850 C   0  0  0  0  0  0  0  0  0  0  0  0
    0.9350   15.3980   -2.0780 C   0  0  2  0  0  0  0  0  0  0  0  0
   -0.2700   16.3510   -1.7730 C   0  0  0  0  0  0  0  0  0  0  0  0
    3.5674   18.5217   -1.7948 H   0  0  0  0  0  0  0  0  0  0  0  0
    4.2210   17.8788   -3.3396 H   0  0  0  0  0  0  0  0  0  0  0  0
    3.2192   19.3697   -3.3396 H   0  0  0  0  0  0  0  0  0  0  0  0
    2.0285   17.2827   -4.1160 H   0  0  0  0  0  0  0  0  0  0  0  0
    0.2729   18.5440   -3.5872 H   0  0  0  0  0  0  0  0  0  0  0  0
    0.2543   17.6660   -1.9834 H   0  0  0  0  0  0  0  0  0  0  0  0
    2.1864   19.7651   -1.8387 H   0  0  0  0  0  0  0  0  0  0  0  0
    0.6345   20.4409   -2.4884 H   0  0  0  0  0  0  0  0  0  0  0  0
    1.3718   20.1535   -0.1410 H   0  0  0  0  0  0  0  0  0  0  0  0
   -2.9796   19.9949   -0.9750 H   0  0  0  0  0  0  0  0  0  0  0  0
   -1.7088   20.7288   -2.0108 H   0  0  0  0  0  0  0  0  0  0  0  0
   -1.9504   18.9488   -2.0108 H   0  0  0  0  0  0  0  0  0  0  0  0
   -0.8976   19.6335    1.8535 H   0  0  0  0  0  0  0  0  0  0  0  0
   -1.2162   21.2673    1.1782 H   0  0  0  0  0  0  0  0  0  0  0  0
   -2.5151   20.0265    1.1782 H   0  0  0  0  0  0  0  0  0  0  0  0
    2.9700   15.7261   -2.8064 H   0  0  0  0  0  0  0  0  0  0  0  0
    3.6916   16.4415   -0.6140 H   0  0  0  0  0  0  0  0  0  0  0  0
    2.3267   17.5665   -0.4471 H   0  0  0  0  0  0  0  0  0  0  0  0
    2.5512   15.0256    0.8417 H   0  0  0  0  0  0  0  0  0  0  0  0
    1.0503   15.9393    0.7163 H   0  0  0  0  0  0  0  0  0  0  0  0
    3.0100   13.1942   -0.2366 H   0  0  0  0  0  0  0  0  0  0  0  0
    2.2360   12.6524   -1.7643 H   0  0  0  0  0  0  0  0  0  0  0  0
    3.3155   14.0882   -1.7643 H   0  0  0  0  0  0  0  0  0  0  0  0
   -0.6169   14.4076   -0.1437 H   0  0  0  0  0  0  0  0  0  0  0  0
    1.0409   13.2269    1.4360 H   0  0  0  0  0  0  0  0  0  0  0  0
   -0.6935   12.6358    1.2605 H   0  0  0  0  0  0  0  0  0  0  0  0
    1.1685   10.7745    1.3608 H   0  0  0  0  0  0  0  0  0  0  0  0
    0.9488   11.7152   -2.5588 H   0  0  0  0  0  0  0  0  0  0  0  0
   -1.6624   10.1799   -1.9943 H   0  0  0  0  0  0  0  0  0  0  0  0
   -1.1380   10.8976   -3.5821 H   0  0  0  0  0  0  0  0  0  0  0  0
   -0.8020    8.4473   -3.5045 H   0  0  0  0  0  0  0  0  0  0  0  0
    0.7427    9.3674   -3.6881 H   0  0  0  0  0  0  0  0  0  0  0  0
    1.0851    7.5966   -2.1062 H   0  0  0  0  0  0  0  0  0  0  0  0
   -1.1780    8.7750   -0.7660 H   0  0  0  0  0  0  0  0  0  0  0  0
    3.5527    9.7437   -0.9935 H   0  0  0  0  0  0  0  0  0  0  0  0
    2.9446    8.7239   -2.3414 H   0  0  0  0  0  0  0  0  0  0  0  0
    2.6313   10.4926   -2.3414 H   0  0  0  0  0  0  0  0  0  0  0  0
    1.4926    9.1992    1.2373 H   0  0  0  0  0  0  0  0  0  0  0  0
    1.2801    7.6327    0.3843 H   0  0  0  0  0  0  0  0  0  0  0  0
    2.8821    8.4453    0.3843 H   0  0  0  0  0  0  0  0  0  0  0  0
   -2.1436   12.5689   -0.0928 H   0  0  0  0  0  0  0  0  0  0  0  0
   -2.7145   13.3864   -1.5870 H   0  0  0  0  0  0  0  0  0  0  0  0
   -2.4278   11.6131   -1.5870 H   0  0  0  0  0  0  0  0  0  0  0  0
   -0.7773   12.9286   -3.7914 H   0  0  0  0  0  0  0  0  0  0  0  0
   -1.5019   14.3414   -2.8355 H   0  0  0  0  0  0  0  0  0  0  0  0
    1.4088   13.8942   -3.5528 H   0  0  0  0  0  0  0  0  0  0  0  0
    0.2935   15.1969   -4.1229 H   0  0  0  0  0  0  0  0  0  0  0  0
   -0.3937   16.4488   -0.6844 H   0  0  0  0  0  0  0  0  0  0  0  0
   -0.0742   17.3412   -2.2102 H   0  0  0  0  0  0  0  0  0  0  0  0
   -1.1884   15.9323   -2.2102 H   0  0  0  0  0  0  0  0  0  0  0  0
  1  2  1  0
  2  3  1  0
  3  4  1  0
  4  5  1  0
  5  6  1  0
  6  7  1  0
  7  8  1  0
  7  9  1  0
  2 10  1  0
 10 11  1  0
 11 12  1  0
 12 13  1  0
 13 14  1  6
 13 15  1  0
 15 16  1  0
 16 17  1  0
 17 18  2  0
 18 19  1  0
 19 20  1  0
 20 21  1  0
 21 22  1  0
 22 23  1  0
 22 24  1  0
 24 25  1  0
 24 26  1  0
 19 27  1  0
 27 28  1  1
 27 29  1  0
 29 30  1  0
 30 31  1  0
 31 32  1  1
  7  5  1  0
 31 10  1  0
 31 13  1  0
 27 15  1  0
 24 18  1  0
  1 33  1  0
  1 34  1  0
  1 35  1  0
  2 36  1  6
  3 37  1  0
  3 38  1  0
  4 39  1  0
  4 40  1  0
  5 41  1  1
  8 42  1  0
  8 43  1  0
  8 44  1  0
  9 45  1  0
  9 46  1  0
  9 47  1  0
 10 48  1  6
 11 49  1  0
 11 50  1  0
 12 51  1  0
 12 52  1  0
 14 53  1  0
 14 54  1  0
 14 55  1  0
 15 56  1  1
 16 57  1  0
 16 58  1  0
 17 59  1  0
 19 60  1  6
 20 61  1  0
 20 62  1  0
 21 63  1  0
 21 64  1  0
 22 65  1  6
 23 66  1  0
 25 67  1  0
 25 68  1  0
 25 69  1  0
 26 70  1  0
 26 71  1  0
 26 72  1  0
 28 73  1  0
 28 74  1  0
 28 75  1  0
 29 76  1  0
 29 77  1  0
 30 78  1  0
 30 79  1  0
 32 80  1  0
 32 81  1  0
 32 82  1  0
M  END
>  <meeko>  (16) 
{"is_sidechain": [false], "intermolecular_energy": 2.731, "internal_energy": -0.839}

$$$$
EPH_relaxed_0001_pdb2pqr_Repair_382_r2_0001_out
     RDKit          3D

 82 86  0  0  0  0  0  0  0  0999 V2000
   -0.2910    9.4780   -2.5120 C   0  0  0  0  0  0  0  0  0  0  0  0
    0.9470   10.3280   -2.8120 C   0  0  2  0  0  0  0  0  0  0  0  0
    2.2500    9.5090   -2.7180 C   0  0  0  0  0  0  0  0  0  0  0  0
    3.2680    9.8450   -3.8120 C   0  0  0  0  0  0  0  0  0  0  0  0
    4.5790   10.2850   -3.2330 C   0  0  2  0  0  0  0  0  0  0  0  0
    4.8790   11.6740   -3.4180 O   0  0  0  0  0  0  0  0  0  0  0  0
    5.7540   10.7430   -4.0760 C   0  0  0  0  0  0  0  0  0  0  0  0
    5.6740   10.7830   -5.5700 C   0  0  0  0  0  0  0  0  0  0  0  0
    7.1270   10.6830   -3.4820 C   0  0  0  0  0  0  0  0  0  0  0  0
    1.0070   11.5140   -1.8570 C   0  0  1  0  0  0  0  0  0  0  0  0
    2.0870   11.3410   -0.7560 C   0  0  0  0  0  0  0  0  0  0  0  0
    2.6670   12.7500   -0.4720 C   0  0  0  0  0  0  0  0  0  0  0  0
    1.6860   13.7230   -1.1670 C   0  0  1  0  0  0  0  0  0  0  0  0
    0.4960   13.8740   -0.1680 C   0  0  0  0  0  0  0  0  0  0  0  0
    2.2690   15.1120   -1.5830 C   0  0  2  0  0  0  0  0  0  0  0  0
    2.7660   15.9870   -0.4190 C   0  0  0  0  0  0  0  0  0  0  0  0
    1.7470   16.9060    0.1690 C   0  0  0  0  0  0  0  0  0  0  0  0
    0.5710   17.2340   -0.3980 C   0  0  0  0  0  0  0  0  0  0  0  0
    0.2080   16.7380   -1.8030 C   0  0  1  0  0  0  0  0  0  0  0  0
   -0.3550   17.9170   -2.6390 C   0  0  0  0  0  0  0  0  0  0  0  0
   -1.5210   18.6190   -1.9490 C   0  0  0  0  0  0  0  0  0  0  0  0
   -1.1050   19.1490   -0.5790 C   0  0  2  0  0  0  0  0  0  0  0  0
   -0.1440   20.1940   -0.7620 O   0  0  0  0  0  0  0  0  0  0  0  0
   -0.5120   18.0520    0.3480 C   0  0  0  0  0  0  0  0  0  0  0  0
   -1.6360   17.0810    0.7900 C   0  0  0  0  0  0  0  0  0  0  0  0
   -0.0030   18.7430    1.6420 C   0  0  0  0  0  0  0  0  0  0  0  0
    1.3450   15.9340   -2.5700 C   0  0  1  0  0  0  0  0  0  0  0  0
    2.2760   16.9270   -3.3310 C   0  0  0  0  0  0  0  0  0  0  0  0
    0.6780   15.0210   -3.6660 C   0  0  0  0  0  0  0  0  0  0  0  0
    0.2310   13.6150   -3.2210 C   0  0  0  0  0  0  0  0  0  0  0  0
    1.3520   12.8980   -2.4630 C   0  0  2  0  0  0  0  0  0  0  0  0
    2.5550   12.7120   -3.4490 C   0  0  0  0  0  0  0  0  0  0  0  0
   -0.4199    9.3895   -1.4232 H   0  0  0  0  0  0  0  0  0  0  0  0
   -1.1795    9.9574   -2.9487 H   0  0  0  0  0  0  0  0  0  0  0  0
   -0.1628    8.4766   -2.9487 H   0  0  0  0  0  0  0  0  0  0  0  0
    0.8579   10.6888   -3.8473 H   0  0  0  0  0  0  0  0  0  0  0  0
    2.7137    9.7050   -1.7400 H   0  0  0  0  0  0  0  0  0  0  0  0
    1.9755    8.4517   -2.8477 H   0  0  0  0  0  0  0  0  0  0  0  0
    3.4338    8.9512   -4.4314 H   0  0  0  0  0  0  0  0  0  0  0  0
    2.8640   10.6723   -4.4140 H   0  0  0  0  0  0  0  0  0  0  0  0
    4.4962    9.5455   -2.4229 H   0  0  0  0  0  0  0  0  0  0  0  0
    4.7285   11.2558   -5.8740 H   0  0  0  0  0  0  0  0  0  0  0  0
    6.5190   11.3646   -5.9670 H   0  0  0  0  0  0  0  0  0  0  0  0
    5.7157    9.7580   -5.9670 H   0  0  0  0  0  0  0  0  0  0  0  0
    7.0522   10.6863   -2.3846 H   0  0  0  0  0  0  0  0  0  0  0  0
    7.6296    9.7620   -3.8125 H   0  0  0  0  0  0  0  0  0  0  0  0
    7.7080   11.5566   -3.8125 H   0  0  0  0  0  0  0  0  0  0  0  0
   -0.0310   11.5101   -1.4930 H   0  0  0  0  0  0  0  0  0  0  0  0
    1.6341   10.9269    0.1569 H   0  0  0  0  0  0  0  0  0  0  0  0
    2.8762   10.6479   -1.0828 H   0  0  0  0  0  0  0  0  0  0  0  0
    2.7046   12.9436    0.6102 H   0  0  0  0  0  0  0  0  0  0  0  0
    3.6966   12.8599   -0.8432 H   0  0  0  0  0  0  0  0  0  0  0  0
    0.8749   13.8259    0.8636 H   0  0  0  0  0  0  0  0  0  0  0  0
    0.0003   14.8422   -0.3318 H   0  0  0  0  0  0  0  0  0  0  0  0
   -0.2258   13.0602   -0.3318 H   0  0  0  0  0  0  0  0  0  0  0  0
    3.1687   14.8291   -2.1491 H   0  0  0  0  0  0  0  0  0  0  0  0
    3.1227   15.3197    0.3794 H   0  0  0  0  0  0  0  0  0  0  0  0
    3.5519   16.6326   -0.8380 H   0  0  0  0  0  0  0  0  0  0  0  0
    1.9764   17.3526    1.1477 H   0  0  0  0  0  0  0  0  0  0  0  0
   -0.5709   15.9738   -1.6638 H   0  0  0  0  0  0  0  0  0  0  0  0
    0.4498   18.6487   -2.8034 H   0  0  0  0  0  0  0  0  0  0  0  0
   -0.7277   17.5052   -3.5885 H   0  0  0  0  0  0  0  0  0  0  0  0
   -1.8556   19.4601   -2.5740 H   0  0  0  0  0  0  0  0  0  0  0  0
   -2.3364   17.8934   -1.8121 H   0  0  0  0  0  0  0  0  0  0  0  0
   -2.0114   19.5242   -0.0813 H   0  0  0  0  0  0  0  0  0  0  0  0
    0.4570   19.9210   -1.4750 H   0  0  0  0  0  0  0  0  0  0  0  0
   -1.6781   17.0446    1.8886 H   0  0  0  0  0  0  0  0  0  0  0  0
   -2.6010   17.4342    0.3976 H   0  0  0  0  0  0  0  0  0  0  0  0
   -1.4267   16.0749    0.3976 H   0  0  0  0  0  0  0  0  0  0  0  0
   -0.3954   18.2103    2.5208 H   0  0  0  0  0  0  0  0  0  0  0  0
    1.0966   18.7214    1.6610 H   0  0  0  0  0  0  0  0  0  0  0  0
   -0.3496   19.7868    1.6610 H   0  0  0  0  0  0  0  0  0  0  0  0
    2.8410   17.5297   -2.6047 H   0  0  0  0  0  0  0  0  0  0  0  0
    2.9770   16.3616   -3.9625 H   0  0  0  0  0  0  0  0  0  0  0  0
    1.6666   17.5902   -3.9625 H   0  0  0  0  0  0  0  0  0  0  0  0
   -0.2104   15.5488   -4.0431 H   0  0  0  0  0  0  0  0  0  0  0  0
    1.4648   14.8492   -4.4153 H   0  0  0  0  0  0  0  0  0  0  0  0
   -0.6461   13.7075   -2.5636 H   0  0  0  0  0  0  0  0  0  0  0  0
   -0.0193   13.0267   -4.1162 H   0  0  0  0  0  0  0  0  0  0  0  0
    3.4817   12.5687   -2.8739 H   0  0  0  0  0  0  0  0  0  0  0  0
    2.3768   11.8307   -4.0827 H   0  0  0  0  0  0  0  0  0  0  0  0
    2.6513   13.6059   -4.0827 H   0  0  0  0  0  0  0  0  0  0  0  0
  1  2  1  0
  2  3  1  0
  3  4  1  0
  4  5  1  0
  5  6  1  0
  6  7  1  0
  7  8  1  0
  7  9  1  0
  2 10  1  0
 10 11  1  0
 11 12  1  0
 12 13  1  0
 13 14  1  1
 13 15  1  0
 15 16  1  0
 16 17  1  0
 17 18  2  0
 18 19  1  0
 19 20  1  0
 20 21  1  0
 21 22  1  0
 22 23  1  0
 22 24  1  0
 24 25  1  0
 24 26  1  0
 19 27  1  0
 27 28  1  6
 27 29  1  0
 29 30  1  0
 30 31  1  0
 31 32  1  6
  7  5  1  0
 31 10  1  0
 31 13  1  0
 27 15  1  0
 24 18  1  0
  1 33  1  0
  1 34  1  0
  1 35  1  0
  2 36  1  6
  3 37  1  0
  3 38  1  0
  4 39  1  0
  4 40  1  0
  5 41  1  1
  8 42  1  0
  8 43  1  0
  8 44  1  0
  9 45  1  0
  9 46  1  0
  9 47  1  0
 10 48  1  1
 11 49  1  0
 11 50  1  0
 12 51  1  0
 12 52  1  0
 14 53  1  0
 14 54  1  0
 14 55  1  0
 15 56  1  6
 16 57  1  0
 16 58  1  0
 17 59  1  0
 19 60  1  1
 20 61  1  0
 20 62  1  0
 21 63  1  0
 21 64  1  0
 22 65  1  1
 23 66  1  0
 25 67  1  0
 25 68  1  0
 25 69  1  0
 26 70  1  0
 26 71  1  0
 26 72  1  0
 28 73  1  0
 28 74  1  0
 28 75  1  0
 29 76  1  0
 29 77  1  0
 30 78  1  0
 30 79  1  0
 32 80  1  0
 32 81  1  0
 32 82  1  0
M  END
>  <meeko>  (17) 
{"is_sidechain": [false], "intermolecular_energy": 2.731, "internal_energy": -0.839}

$$$$
EPH_relaxed_0001_pdb2pqr_Repair_382_r2_0001_out
     RDKit          3D

 82 86  0  0  0  0  0  0  0  0999 V2000
  -15.2780    8.9720    0.6980 C   0  0  0  0  0  0  0  0  0  0  0  0
  -14.4310    9.2000   -0.5580 C   0  0  2  0  0  0  0  0  0  0  0  0
  -14.7520    8.1790   -1.6670 C   0  0  0  0  0  0  0  0  0  0  0  0
  -14.7710    8.7830   -3.0740 C   0  0  0  0  0  0  0  0  0  0  0  0
  -15.2840   10.1920   -3.0650 C   0  0  2  0  0  0  0  0  0  0  0  0
  -14.8400   10.9980   -4.1630 O   0  0  0  0  0  0  0  0  0  0  0  0
  -14.3960   11.4040   -2.8580 C   0  0  0  0  0  0  0  0  0  0  0  0
  -12.9210   11.2640   -2.6460 C   0  0  0  0  0  0  0  0  0  0  0  0
  -15.0220   12.6760   -2.3780 C   0  0  0  0  0  0  0  0  0  0  0  0
  -12.9500    9.1370   -0.2040 C   0  0  1  0  0  0  0  0  0  0  0  0
  -12.6960    9.2280    1.3240 C   0  0  0  0  0  0  0  0  0  0  0  0
  -11.4720    8.3280    1.6290 C   0  0  0  0  0  0  0  0  0  0  0  0
  -10.8620    8.0160    0.2420 C   0  0  1  0  0  0  0  0  0  0  0  0
  -10.0080    9.2730   -0.1120 C   0  0  0  0  0  0  0  0  0  0  0  0
  -10.0250    6.7000    0.1360 C   0  0  2  0  0  0  0  0  0  0  0  0
   -8.7660    6.6540    1.0200 C   0  0  0  0  0  0  0  0  0  0  0  0
   -7.5190    7.1680    0.3810 C   0  0  0  0  0  0  0  0  0  0  0  0
   -7.3450    7.3810   -0.9360 C   0  0  0  0  0  0  0  0  0  0  0  0
   -8.4390    7.0070   -1.9460 C   0  0  1  0  0  0  0  0  0  0  0  0
   -7.8030    6.2480   -3.1400 C   0  0  0  0  0  0  0  0  0  0  0  0
   -6.6570    7.0240   -3.7820 C   0  0  0  0  0  0  0  0  0  0  0  0
   -5.5630    7.3270   -2.7610 C   0  0  2  0  0  0  0  0  0  0  0  0
   -4.9520    6.0960   -2.3610 O   0  0  0  0  0  0  0  0  0  0  0  0
   -6.0880    8.0810   -1.5080 C   0  0  0  0  0  0  0  0  0  0  0  0
   -6.4720    9.5310   -1.8960 C   0  0  0  0  0  0  0  0  0  0  0  0
   -4.9160    8.1990   -0.4960 C   0  0  0  0  0  0  0  0  0  0  0  0
   -9.7050    6.2540   -1.3490 C   0  0  1  0  0  0  0  0  0  0  0  0
   -9.4380    4.7180   -1.3040 C   0  0  0  0  0  0  0  0  0  0  0  0
  -10.9300    6.4640   -2.3140 C   0  0  0  0  0  0  0  0  0  0  0  0
  -11.7900    7.7220   -2.0820 C   0  0  0  0  0  0  0  0  0  0  0  0
  -12.1760    7.8570   -0.6060 C   0  0  2  0  0  0  0  0  0  0  0  0
  -13.0560    6.6170   -0.2260 C   0  0  0  0  0  0  0  0  0  0  0  0
  -14.6597    9.1384    1.5924 H   0  0  0  0  0  0  0  0  0  0  0  0
  -16.1247    9.6742    0.7017 H   0  0  0  0  0  0  0  0  0  0  0  0
  -15.6578    7.9397    0.7017 H   0  0  0  0  0  0  0  0  0  0  0  0
  -14.6777   10.1987   -0.9476 H   0  0  0  0  0  0  0  0  0  0  0  0
  -13.9901    7.3860   -1.6399 H   0  0  0  0  0  0  0  0  0  0  0  0
  -15.7639    7.7963   -1.4681 H   0  0  0  0  0  0  0  0  0  0  0  0
  -13.7478    8.7786   -3.4778 H   0  0  0  0  0  0  0  0  0  0  0  0
  -15.4436    8.1768   -3.6987 H   0  0  0  0  0  0  0  0  0  0  0  0
  -16.2202    9.8727   -2.5839 H   0  0  0  0  0  0  0  0  0  0  0  0
  -12.7059   11.2436   -1.5674 H   0  0  0  0  0  0  0  0  0  0  0  0
  -12.5714   10.3286   -3.1074 H   0  0  0  0  0  0  0  0  0  0  0  0
  -12.4017   12.1169   -3.1074 H   0  0  0  0  0  0  0  0  0  0  0  0
  -15.0285   12.6892   -1.2781 H   0  0  0  0  0  0  0  0  0  0  0  0
  -14.4429   13.5334   -2.7516 H   0  0  0  0  0  0  0  0  0  0  0  0
  -16.0546   12.7402   -2.7516 H   0  0  0  0  0  0  0  0  0  0  0  0
  -12.5855    9.9958   -0.7868 H   0  0  0  0  0  0  0  0  0  0  0  0
  -12.4821   10.2681    1.6110 H   0  0  0  0  0  0  0  0  0  0  0  0
  -13.5791    8.8986    1.8911 H   0  0  0  0  0  0  0  0  0  0  0  0
  -10.7464    8.8605    2.2615 H   0  0  0  0  0  0  0  0  0  0  0  0
  -11.7510    7.4158    2.1768 H   0  0  0  0  0  0  0  0  0  0  0  0
   -9.6751    9.7630    0.8149 H   0  0  0  0  0  0  0  0  0  0  0  0
   -9.1305    8.9663   -0.7002 H   0  0  0  0  0  0  0  0  0  0  0  0
  -10.6163    9.9758   -0.7002 H   0  0  0  0  0  0  0  0  0  0  0  0
  -10.7113    5.9492    0.5548 H   0  0  0  0  0  0  0  0  0  0  0  0
   -8.9602    7.2566    1.9196 H   0  0  0  0  0  0  0  0  0  0  0  0
   -8.5826    5.5905    1.2331 H   0  0  0  0  0  0  0  0  0  0  0  0
   -6.6697    7.3918    1.0433 H   0  0  0  0  0  0  0  0  0  0  0  0
   -8.8697    7.9573   -2.2944 H   0  0  0  0  0  0  0  0  0  0  0  0
   -7.4172    5.2831   -2.7794 H   0  0  0  0  0  0  0  0  0  0  0  0
   -8.5833    6.1119   -3.9033 H   0  0  0  0  0  0  0  0  0  0  0  0
   -6.2301    6.4247   -4.5997 H   0  0  0  0  0  0  0  0  0  0  0  0
   -7.0506    7.9761   -4.1675 H   0  0  0  0  0  0  0  0  0  0  0  0
   -4.8339    7.9930   -3.2457 H   0  0  0  0  0  0  0  0  0  0  0  0
   -4.4070    5.7830   -3.1030 H   0  0  0  0  0  0  0  0  0  0  0  0
   -6.6294   10.1252   -0.9838 H   0  0  0  0  0  0  0  0  0  0  0  0
   -5.6614    9.9786   -2.4898 H   0  0  0  0  0  0  0  0  0  0  0  0
   -7.3978    9.5187   -2.4898 H   0  0  0  0  0  0  0  0  0  0  0  0
   -5.3117    8.1592    0.5296 H   0  0  0  0  0  0  0  0  0  0  0  0
   -4.2131    7.3671   -0.6504 H   0  0  0  0  0  0  0  0  0  0  0  0
   -4.3930    9.1543   -0.6504 H   0  0  0  0  0  0  0  0  0  0  0  0
   -9.3804    4.3864   -0.2568 H   0  0  0  0  0  0  0  0  0  0  0  0
  -10.2575    4.1883   -1.8118 H   0  0  0  0  0  0  0  0  0  0  0  0
   -8.4878    4.4960   -1.8118 H   0  0  0  0  0  0  0  0  0  0  0  0
  -10.5398    6.5125   -3.3413 H   0  0  0  0  0  0  0  0  0  0  0  0
  -11.6015    5.6157   -2.1154 H   0  0  0  0  0  0  0  0  0  0  0  0
  -11.2177    8.6105   -2.3871 H   0  0  0  0  0  0  0  0  0  0  0  0
  -12.7099    7.6332   -2.6786 H   0  0  0  0  0  0  0  0  0  0  0  0
  -13.1163    6.5320    0.8690 H   0  0  0  0  0  0  0  0  0  0  0  0
  -14.0671    6.7442   -0.6402 H   0  0  0  0  0  0  0  0  0  0  0  0
  -12.6022    5.7046   -0.6402 H   0  0  0  0  0  0  0  0  0  0  0  0
  1  2  1  0
  2  3  1  0
  3  4  1  0
  4  5  1  0
  5  6  1  0
  6  7  1  0
  7  8  1  0
  7  9  1  0
  2 10  1  0
 10 11  1  0
 11 12  1  0
 12 13  1  0
 13 14  1  6
 13 15  1  0
 15 16  1  0
 16 17  1  0
 17 18  2  0
 18 19  1  0
 19 20  1  0
 20 21  1  0
 21 22  1  0
 22 23  1  0
 22 24  1  0
 24 25  1  0
 24 26  1  0
 19 27  1  0
 27 28  1  1
 27 29  1  0
 29 30  1  0
 30 31  1  0
 31 32  1  1
  7  5  1  0
 31 10  1  0
 31 13  1  0
 27 15  1  0
 24 18  1  0
  1 33  1  0
  1 34  1  0
  1 35  1  0
  2 36  1  6
  3 37  1  0
  3 38  1  0
  4 39  1  0
  4 40  1  0
  5 41  1  1
  8 42  1  0
  8 43  1  0
  8 44  1  0
  9 45  1  0
  9 46  1  0
  9 47  1  0
 10 48  1  6
 11 49  1  0
 11 50  1  0
 12 51  1  0
 12 52  1  0
 14 53  1  0
 14 54  1  0
 14 55  1  0
 15 56  1  1
 16 57  1  0
 16 58  1  0
 17 59  1  0
 19 60  1  6
 20 61  1  0
 20 62  1  0
 21 63  1  0
 21 64  1  0
 22 65  1  6
 23 66  1  0
 25 67  1  0
 25 68  1  0
 25 69  1  0
 26 70  1  0
 26 71  1  0
 26 72  1  0
 28 73  1  0
 28 74  1  0
 28 75  1  0
 29 76  1  0
 29 77  1  0
 30 78  1  0
 30 79  1  0
 32 80  1  0
 32 81  1  0
 32 82  1  0
M  END
>  <meeko>  (18) 
{"is_sidechain": [false], "intermolecular_energy": 2.731, "internal_energy": -0.839}

$$$$
EPH_relaxed_0001_pdb2pqr_Repair_382_r2_0001_out
     RDKit          3D

 82 86  0  0  0  0  0  0  0  0999 V2000
    0.9090   14.8930   -2.6290 C   0  0  0  0  0  0  0  0  0  0  0  0
    1.1670   14.2210   -3.9800 C   0  0  2  0  0  0  0  0  0  0  0  0
    0.4600   14.9550   -5.1380 C   0  0  0  0  0  0  0  0  0  0  0  0
    0.9970   14.5810   -6.5220 C   0  0  0  0  0  0  0  0  0  0  0  0
    0.7720   15.6780   -7.5190 C   0  0  2  0  0  0  0  0  0  0  0  0
    0.4110   15.2290   -8.8320 O   0  0  0  0  0  0  0  0  0  0  0  0
    1.6690   15.9140   -8.7190 C   0  0  0  0  0  0  0  0  0  0  0  0
    2.8590   15.0460   -8.9870 C   0  0  0  0  0  0  0  0  0  0  0  0
    1.6760   17.2700   -9.3520 C   0  0  0  0  0  0  0  0  0  0  0  0
    0.7130   12.7660   -3.9330 C   0  0  1  0  0  0  0  0  0  0  0  0
    1.8390   11.7760   -4.3330 C   0  0  0  0  0  0  0  0  0  0  0  0
    1.6460   10.5050   -3.4670 C   0  0  0  0  0  0  0  0  0  0  0  0
    0.2390   10.6670   -2.8450 C   0  0  1  0  0  0  0  0  0  0  0  0
   -0.7490   10.2080   -3.9630 C   0  0  0  0  0  0  0  0  0  0  0  0
   -0.0150    9.9060   -1.5030 C   0  0  2  0  0  0  0  0  0  0  0  0
    0.0860    8.3740   -1.5920 C   0  0  0  0  0  0  0  0  0  0  0  0
   -1.1910    7.6680   -1.9080 C   0  0  0  0  0  0  0  0  0  0  0  0
   -2.4220    8.2070   -1.8320 C   0  0  0  0  0  0  0  0  0  0  0  0
   -2.6270    9.6310   -1.2990 C   0  0  1  0  0  0  0  0  0  0  0  0
   -3.7970    9.6390   -0.2800 C   0  0  0  0  0  0  0  0  0  0  0  0
   -5.0780    9.0420   -0.8550 C   0  0  0  0  0  0  0  0  0  0  0  0
   -4.8480    7.6060   -1.3210 C   0  0  2  0  0  0  0  0  0  0  0  0
   -4.5810    6.7880   -0.1780 O   0  0  0  0  0  0  0  0  0  0  0  0
   -3.6860    7.4720   -2.3440 C   0  0  0  0  0  0  0  0  0  0  0  0
   -4.1040    8.1060   -3.6930 C   0  0  0  0  0  0  0  0  0  0  0  0
   -3.4680    5.9610   -2.6230 C   0  0  0  0  0  0  0  0  0  0  0  0
   -1.3270   10.3560   -0.7410 C   0  0  1  0  0  0  0  0  0  0  0  0
   -1.1180    9.9920    0.7600 C   0  0  0  0  0  0  0  0  0  0  0  0
   -1.5450   11.9150   -0.7940 C   0  0  0  0  0  0  0  0  0  0  0  0
   -1.1640   12.6260   -2.1070 C   0  0  0  0  0  0  0  0  0  0  0  0
    0.2390   12.2140   -2.5650 C   0  0  2  0  0  0  0  0  0  0  0  0
    1.2570   12.6820   -1.4700 C   0  0  0  0  0  0  0  0  0  0  0  0
    1.1753   14.1995   -1.8177 H   0  0  0  0  0  0  0  0  0  0  0  0
    1.5216   15.8031   -2.5492 H   0  0  0  0  0  0  0  0  0  0  0  0
   -0.1553   15.1593   -2.5492 H   0  0  0  0  0  0  0  0  0  0  0  0
    2.2494   14.2671   -4.1704 H   0  0  0  0  0  0  0  0  0  0  0  0
   -0.6114   14.7085   -5.1029 H   0  0  0  0  0  0  0  0  0  0  0  0
    0.6478   16.0300   -4.9998 H   0  0  0  0  0  0  0  0  0  0  0  0
    2.0767   14.3855   -6.4446 H   0  0  0  0  0  0  0  0  0  0  0  0
    0.4584   13.6867   -6.8687 H   0  0  0  0  0  0  0  0  0  0  0  0
    0.4017   16.3504   -6.7311 H   0  0  0  0  0  0  0  0  0  0  0  0
    3.3004   14.7240   -8.0323 H   0  0  0  0  0  0  0  0  0  0  0  0
    2.5462   14.1625   -9.5628 H   0  0  0  0  0  0  0  0  0  0  0  0
    3.6047   15.6137   -9.5628 H   0  0  0  0  0  0  0  0  0  0  0  0
    1.6800   18.0409   -8.5674 H   0  0  0  0  0  0  0  0  0  0  0  0
    2.5747   17.3783   -9.9770 H   0  0  0  0  0  0  0  0  0  0  0  0
    0.7784   17.3875   -9.9770 H   0  0  0  0  0  0  0  0  0  0  0  0
   -0.1333   12.8133   -4.6341 H   0  0  0  0  0  0  0  0  0  0  0  0
    1.7590   11.5227   -5.4004 H   0  0  0  0  0  0  0  0  0  0  0  0
    2.8319   12.2196   -4.1674 H   0  0  0  0  0  0  0  0  0  0  0  0
    1.6933    9.5997   -4.0900 H   0  0  0  0  0  0  0  0  0  0  0  0
    2.4301   10.3976   -2.7030 H   0  0  0  0  0  0  0  0  0  0  0  0
   -1.6547    9.7872   -3.5018 H   0  0  0  0  0  0  0  0  0  0  0  0
   -1.0227   11.0712   -4.5875 H   0  0  0  0  0  0  0  0  0  0  0  0
   -0.2658    9.4421   -4.5875 H   0  0  0  0  0  0  0  0  0  0  0  0
    0.8378   10.2255   -0.8861 H   0  0  0  0  0  0  0  0  0  0  0  0
    0.8147    8.1265   -2.3780 H   0  0  0  0  0  0  0  0  0  0  0  0
    0.3842    8.0300   -0.5906 H   0  0  0  0  0  0  0  0  0  0  0  0
   -1.1198    6.6186   -2.2302 H   0  0  0  0  0  0  0  0  0  0  0  0
   -2.8877   10.2480   -2.1716 H   0  0  0  0  0  0  0  0  0  0  0  0
   -3.5001    9.0531    0.6024 H   0  0  0  0  0  0  0  0  0  0  0  0
   -4.0051   10.6871   -0.0189 H   0  0  0  0  0  0  0  0  0  0  0  0
   -5.8582    9.0485   -0.0796 H   0  0  0  0  0  0  0  0  0  0  0  0
   -5.3906    9.6464   -1.7193 H   0  0  0  0  0  0  0  0  0  0  0  0
   -5.7605    7.2773   -1.8399 H   0  0  0  0  0  0  0  0  0  0  0  0
   -4.5500    7.3700    0.6000 H   0  0  0  0  0  0  0  0  0  0  0  0
   -4.7005    9.0107   -3.5038 H   0  0  0  0  0  0  0  0  0  0  0  0
   -3.2044    8.3733   -4.2669 H   0  0  0  0  0  0  0  0  0  0  0  0
   -4.7041    7.3845   -4.2669 H   0  0  0  0  0  0  0  0  0  0  0  0
   -3.3899    5.4195   -1.6687 H   0  0  0  0  0  0  0  0  0  0  0  0
   -4.3187    5.5680   -3.1990 H   0  0  0  0  0  0  0  0  0  0  0  0
   -2.5409    5.8245   -3.1990 H   0  0  0  0  0  0  0  0  0  0  0  0
   -1.5662   10.7725    1.3924 H   0  0  0  0  0  0  0  0  0  0  0  0
   -1.5991    9.0261    0.9735 H   0  0  0  0  0  0  0  0  0  0  0  0
   -0.0413    9.9205    0.9735 H   0  0  0  0  0  0  0  0  0  0  0  0
   -2.6119   12.1082   -0.6085 H   0  0  0  0  0  0  0  0  0  0  0  0
   -0.8630   12.3268   -0.0355 H   0  0  0  0  0  0  0  0  0  0  0  0
   -1.8912   12.3559   -2.8869 H   0  0  0  0  0  0  0  0  0  0  0  0
   -1.1721   13.7122   -1.9335 H   0  0  0  0  0  0  0  0  0  0  0  0
    0.8366   12.4888   -0.4720 H   0  0  0  0  0  0  0  0  0  0  0  0
    2.1997   12.1269   -1.5846 H   0  0  0  0  0  0  0  0  0  0  0  0
    1.4494   13.7590   -1.5846 H   0  0  0  0  0  0  0  0  0  0  0  0
  1  2  1  0
  2  3  1  0
  3  4  1  0
  4  5  1  0
  5  6  1  0
  6  7  1  0
  7  8  1  0
  7  9  1  0
  2 10  1  0
 10 11  1  0
 11 12  1  0
 12 13  1  0
 13 14  1  6
 13 15  1  0
 15 16  1  0
 16 17  1  0
 17 18  2  0
 18 19  1  0
 19 20  1  0
 20 21  1  0
 21 22  1  0
 22 23  1  0
 22 24  1  0
 24 25  1  0
 24 26  1  0
 19 27  1  0
 27 28  1  1
 27 29  1  0
 29 30  1  0
 30 31  1  0
 31 32  1  1
  7  5  1  0
 31 10  1  0
 31 13  1  0
 27 15  1  0
 24 18  1  0
  1 33  1  0
  1 34  1  0
  1 35  1  0
  2 36  1  6
  3 37  1  0
  3 38  1  0
  4 39  1  0
  4 40  1  0
  5 41  1  1
  8 42  1  0
  8 43  1  0
  8 44  1  0
  9 45  1  0
  9 46  1  0
  9 47  1  0
 10 48  1  6
 11 49  1  0
 11 50  1  0
 12 51  1  0
 12 52  1  0
 14 53  1  0
 14 54  1  0
 14 55  1  0
 15 56  1  1
 16 57  1  0
 16 58  1  0
 17 59  1  0
 19 60  1  6
 20 61  1  0
 20 62  1  0
 21 63  1  0
 21 64  1  0
 22 65  1  6
 23 66  1  0
 25 67  1  0
 25 68  1  0
 25 69  1  0
 26 70  1  0
 26 71  1  0
 26 72  1  0
 28 73  1  0
 28 74  1  0
 28 75  1  0
 29 76  1  0
 29 77  1  0
 30 78  1  0
 30 79  1  0
 32 80  1  0
 32 81  1  0
 32 82  1  0
M  END
>  <meeko>  (19) 
{"is_sidechain": [false], "intermolecular_energy": 2.731, "internal_energy": -0.839}

$$$$
EPH_relaxed_0001_pdb2pqr_Repair_382_r2_0001_out
     RDKit          3D

 82 86  0  0  0  0  0  0  0  0999 V2000
  -14.2640   11.0270   -2.8250 C   0  0  0  0  0  0  0  0  0  0  0  0
  -13.6620    9.8590   -2.0390 C   0  0  2  0  0  0  0  0  0  0  0  0
  -13.9290    9.9790   -0.5250 C   0  0  0  0  0  0  0  0  0  0  0  0
  -15.2870    9.4200   -0.0930 C   0  0  0  0  0  0  0  0  0  0  0  0
  -15.1410    8.1370    0.6670 C   0  0  2  0  0  0  0  0  0  0  0  0
  -13.8450    7.5320    0.5780 O   0  0  0  0  0  0  0  0  0  0  0  0
  -14.9320    6.7890    0.0020 C   0  0  0  0  0  0  0  0  0  0  0  0
  -14.8570    6.6580   -1.4870 C   0  0  0  0  0  0  0  0  0  0  0  0
  -15.2870    5.5510    0.7650 C   0  0  0  0  0  0  0  0  0  0  0  0
  -12.1630    9.7750   -2.2990 C   0  0  1  0  0  0  0  0  0  0  0  0
  -11.4830   11.1700   -2.3320 C   0  0  0  0  0  0  0  0  0  0  0  0
  -10.0690   10.9930   -1.7230 C   0  0  0  0  0  0  0  0  0  0  0  0
   -9.8560    9.4620   -1.6670 C   0  0  1  0  0  0  0  0  0  0  0  0
   -9.4210    9.0650   -3.1130 C   0  0  0  0  0  0  0  0  0  0  0  0
   -8.8420    8.9440   -0.5960 C   0  0  2  0  0  0  0  0  0  0  0  0
   -7.3940    9.4290   -0.7800 C   0  0  0  0  0  0  0  0  0  0  0  0
   -6.5280    8.5470   -1.6180 C   0  0  0  0  0  0  0  0  0  0  0  0
   -6.8070    7.2770   -1.9640 C   0  0  0  0  0  0  0  0  0  0  0  0
   -8.0550    6.5690   -1.4200 C   0  0  1  0  0  0  0  0  0  0  0  0
   -7.6700    5.1510   -0.9230 C   0  0  0  0  0  0  0  0  0  0  0  0
   -6.9530    4.3310   -1.9910 C   0  0  0  0  0  0  0  0  0  0  0  0
   -5.6870    5.0400   -2.4650 C   0  0  2  0  0  0  0  0  0  0  0  0
   -4.7480    5.0780   -1.3850 O   0  0  0  0  0  0  0  0  0  0  0  0
   -5.9490    6.4830   -2.9800 C   0  0  0  0  0  0  0  0  0  0  0  0
   -6.7170    6.4240   -4.3240 C   0  0  0  0  0  0  0  0  0  0  0  0
   -4.5760    7.1360   -3.2930 C   0  0  0  0  0  0  0  0  0  0  0  0
   -8.9020    7.3820   -0.3490 C   0  0  1  0  0  0  0  0  0  0  0  0
   -8.3310    7.1350    1.0800 C   0  0  0  0  0  0  0  0  0  0  0  0
  -10.3780    6.8340   -0.3380 C   0  0  0  0  0  0  0  0  0  0  0  0
  -11.3630    7.4700   -1.3380 C   0  0  0  0  0  0  0  0  0  0  0  0
  -11.3050    8.9990   -1.2680 C   0  0  2  0  0  0  0  0  0  0  0  0
  -11.7590    9.4290    0.1680 C   0  0  0  0  0  0  0  0  0  0  0  0
  -14.6521   11.7799   -2.1232 H   0  0  0  0  0  0  0  0  0  0  0  0
  -13.4879   11.4816   -3.4582 H   0  0  0  0  0  0  0  0  0  0  0  0
  -15.0846   10.6586   -3.4582 H   0  0  0  0  0  0  0  0  0  0  0  0
  -14.1515    8.9379   -2.3882 H   0  0  0  0  0  0  0  0  0  0  0  0
  -13.1410    9.4298    0.0111 H   0  0  0  0  0  0  0  0  0  0  0  0
  -13.9317   11.0521   -0.2833 H   0  0  0  0  0  0  0  0  0  0  0  0
  -15.7893   10.1592    0.5483 H   0  0  0  0  0  0  0  0  0  0  0  0
  -15.8784    9.2174   -0.9981 H   0  0  0  0  0  0  0  0  0  0  0  0
  -15.8557    8.4806    1.4293 H   0  0  0  0  0  0  0  0  0  0  0  0
  -14.3260    5.7305   -1.7472 H   0  0  0  0  0  0  0  0  0  0  0  0
  -15.8744    6.6274   -1.9041 H   0  0  0  0  0  0  0  0  0  0  0  0
  -14.3155    7.5199   -1.9041 H   0  0  0  0  0  0  0  0  0  0  0  0
  -15.2282    5.7559    1.8442 H   0  0  0  0  0  0  0  0  0  0  0  0
  -16.3102    5.2413    0.5058 H   0  0  0  0  0  0  0  0  0  0  0  0
  -14.5835    4.7461    0.5058 H   0  0  0  0  0  0  0  0  0  0  0  0
  -12.1724    9.2404   -3.2603 H   0  0  0  0  0  0  0  0  0  0  0  0
  -11.4066   11.5297   -3.3687 H   0  0  0  0  0  0  0  0  0  0  0  0
  -12.0681   11.9080   -1.7637 H   0  0  0  0  0  0  0  0  0  0  0  0
   -9.3092   11.4675   -2.3614 H   0  0  0  0  0  0  0  0  0  0  0  0
   -9.9802   11.4626   -0.7323 H   0  0  0  0  0  0  0  0  0  0  0  0
   -8.6094    8.3243   -3.0614 H   0  0  0  0  0  0  0  0  0  0  0  0
  -10.2790    8.6321   -3.6482 H   0  0  0  0  0  0  0  0  0  0  0  0
   -9.0681    9.9589   -3.6482 H   0  0  0  0  0  0  0  0  0  0  0  0
   -9.2034    9.4267    0.3240 H   0  0  0  0  0  0  0  0  0  0  0  0
   -7.4255   10.4221   -1.2519 H   0  0  0  0  0  0  0  0  0  0  0  0
   -6.9442    9.4326    0.2238 H   0  0  0  0  0  0  0  0  0  0  0  0
   -5.5814    8.9717   -1.9835 H   0  0  0  0  0  0  0  0  0  0  0  0
   -8.7538    6.4913   -2.2660 H   0  0  0  0  0  0  0  0  0  0  0  0
   -7.0069    5.2510   -0.0511 H   0  0  0  0  0  0  0  0  0  0  0  0
   -8.6004    4.6235   -0.6659 H   0  0  0  0  0  0  0  0  0  0  0  0
   -6.6811    3.3516   -1.5706 H   0  0  0  0  0  0  0  0  0  0  0  0
   -7.6284    4.2067   -2.8503 H   0  0  0  0  0  0  0  0  0  0  0  0
   -5.2895    4.4700   -3.3177 H   0  0  0  0  0  0  0  0  0  0  0  0
   -4.1070    5.7830   -1.5780 H   0  0  0  0  0  0  0  0  0  0  0  0
   -7.7959    6.3411   -4.1264 H   0  0  0  0  0  0  0  0  0  0  0  0
   -6.5190    7.3400   -4.9000 H   0  0  0  0  0  0  0  0  0  0  0  0
   -6.3814    5.5490   -4.9000 H   0  0  0  0  0  0  0  0  0  0  0  0
   -4.0628    7.3801   -2.3511 H   0  0  0  0  0  0  0  0  0  0  0  0
   -3.9603    6.4343   -3.8748 H   0  0  0  0  0  0  0  0  0  0  0  0
   -4.7319    8.0564   -3.8748 H   0  0  0  0  0  0  0  0  0  0  0  0
   -9.0694    7.4544    1.8302 H   0  0  0  0  0  0  0  0  0  0  0  0
   -8.1169    6.0638    1.2092 H   0  0  0  0  0  0  0  0  0  0  0  0
   -7.4037    7.7125    1.2092 H   0  0  0  0  0  0  0  0  0  0  0  0
  -10.3344    5.7562   -0.5537 H   0  0  0  0  0  0  0  0  0  0  0  0
  -10.7724    7.0897    0.6565 H   0  0  0  0  0  0  0  0  0  0  0  0
  -11.1012    7.1463   -2.3562 H   0  0  0  0  0  0  0  0  0  0  0  0
  -12.3821    7.1457   -1.0807 H   0  0  0  0  0  0  0  0  0  0  0  0
  -11.1749    8.8758    0.9182 H   0  0  0  0  0  0  0  0  0  0  0  0
  -11.5928   10.5087    0.2972 H   0  0  0  0  0  0  0  0  0  0  0  0
  -12.8281    9.2045    0.2972 H   0  0  0  0  0  0  0  0  0  0  0  0
  1  2  1  0
  2  3  1  0
  3  4  1  0
  4  5  1  0
  5  6  1  0
  6  7  1  0
  7  8  1  0
  7  9  1  0
  2 10  1  0
 10 11  1  0
 11 12  1  0
 12 13  1  0
 13 14  1  6
 13 15  1  0
 15 16  1  0
 16 17  1  0
 17 18  2  0
 18 19  1  0
 19 20  1  0
 20 21  1  0
 21 22  1  0
 22 23  1  0
 22 24  1  0
 24 25  1  0
 24 26  1  0
 19 27  1  0
 27 28  1  1
 27 29  1  0
 29 30  1  0
 30 31  1  0
 31 32  1  1
  7  5  1  0
 31 10  1  0
 31 13  1  0
 27 15  1  0
 24 18  1  0
  1 33  1  0
  1 34  1  0
  1 35  1  0
  2 36  1  6
  3 37  1  0
  3 38  1  0
  4 39  1  0
  4 40  1  0
  5 41  1  1
  8 42  1  0
  8 43  1  0
  8 44  1  0
  9 45  1  0
  9 46  1  0
  9 47  1  0
 10 48  1  6
 11 49  1  0
 11 50  1  0
 12 51  1  0
 12 52  1  0
 14 53  1  0
 14 54  1  0
 14 55  1  0
 15 56  1  1
 16 57  1  0
 16 58  1  0
 17 59  1  0
 19 60  1  6
 20 61  1  0
 20 62  1  0
 21 63  1  0
 21 64  1  0
 22 65  1  6
 23 66  1  0
 25 67  1  0
 25 68  1  0
 25 69  1  0
 26 70  1  0
 26 71  1  0
 26 72  1  0
 28 73  1  0
 28 74  1  0
 28 75  1  0
 29 76  1  0
 29 77  1  0
 30 78  1  0
 30 79  1  0
 32 80  1  0
 32 81  1  0
 32 82  1  0
M  END
>  <meeko>  (20) 
{"is_sidechain": [false], "intermolecular_energy": 2.731, "internal_energy": -0.839}

$$$$
