EPH_relaxed_0001_pdb2pqr_Repair_113_r2_0001_out
     RDKit          3D

 82 86  0  0  0  0  0  0  0  0999 V2000
   -1.2280    8.4450   -1.5380 C   0  0  0  0  0  0  0  0  0  0  0  0
   -1.8830    9.2690   -0.4250 C   0  0  2  0  0  0  0  0  0  0  0  0
   -3.3030    9.7340   -0.8060 C   0  0  0  0  0  0  0  0  0  0  0  0
   -4.4150    8.9770   -0.0740 C   0  0  0  0  0  0  0  0  0  0  0  0
   -4.5940    7.5920   -0.6180 C   0  0  2  0  0  0  0  0  0  0  0  0
   -4.7980    7.5260   -2.0350 O   0  0  0  0  0  0  0  0  0  0  0  0
   -5.8940    7.0890   -1.2160 C   0  0  0  0  0  0  0  0  0  0  0  0
   -7.1040    7.9660   -1.3010 C   0  0  0  0  0  0  0  0  0  0  0  0
   -6.1340    5.6120   -1.2690 C   0  0  0  0  0  0  0  0  0  0  0  0
   -1.0130   10.4740   -0.0900 C   0  0  1  0  0  0  0  0  0  0  0  0
    0.0820   10.1460    0.9600 C   0  0  0  0  0  0  0  0  0  0  0  0
    1.3270   10.9930    0.5870 C   0  0  0  0  0  0  0  0  0  0  0  0
    0.8060   12.0160   -0.4500 C   0  0  1  0  0  0  0  0  0  0  0  0
    0.1380   13.1420    0.3990 C   0  0  0  0  0  0  0  0  0  0  0  0
    1.8660   12.5940   -1.4430 C   0  0  2  0  0  0  0  0  0  0  0  0
    3.0020   13.3990   -0.7890 C   0  0  0  0  0  0  0  0  0  0  0  0
    2.7470   14.8640   -0.6500 C   0  0  0  0  0  0  0  0  0  0  0  0
    1.7810   15.5530   -1.2850 C   0  0  0  0  0  0  0  0  0  0  0  0
    0.8810   14.8730   -2.3240 C   0  0  1  0  0  0  0  0  0  0  0  0
    0.7740   15.7710   -3.5850 C   0  0  0  0  0  0  0  0  0  0  0  0
    0.3170   17.1890   -3.2560 C   0  0  0  0  0  0  0  0  0  0  0  0
    1.2700   17.8520   -2.2650 C   0  0  2  0  0  0  0  0  0  0  0  0
    2.5360   18.0480   -2.9020 O   0  0  0  0  0  0  0  0  0  0  0  0
    1.4630   17.0330   -0.9580 C   0  0  0  0  0  0  0  0  0  0  0  0
    0.1630   17.0770   -0.1190 C   0  0  0  0  0  0  0  0  0  0  0  0
    2.5530   17.7410   -0.1080 C   0  0  0  0  0  0  0  0  0  0  0  0
    1.2450   13.3660   -2.6770 C   0  0  1  0  0  0  0  0  0  0  0  0
    2.3150   13.3290   -3.8100 C   0  0  0  0  0  0  0  0  0  0  0  0
   -0.0340   12.6490   -3.2500 C   0  0  0  0  0  0  0  0  0  0  0  0
   -0.9810   11.9940   -2.2260 C   0  0  0  0  0  0  0  0  0  0  0  0
   -0.2030   11.1100   -1.2470 C   0  0  2  0  0  0  0  0  0  0  0  0
    0.4620    9.9550   -2.0690 C   0  0  0  0  0  0  0  0  0  0  0  0
   -0.6024    7.6579   -1.0918 H   0  0  0  0  0  0  0  0  0  0  0  0
   -2.0087    7.9838   -2.1607 H   0  0  0  0  0  0  0  0  0  0  0  0
   -0.6026    9.1016   -2.1607 H   0  0  0  0  0  0  0  0  0  0  0  0
   -1.9741    8.6193    0.4580 H   0  0  0  0  0  0  0  0  0  0  0  0
   -3.3945   10.8035   -0.5658 H   0  0  0  0  0  0  0  0  0  0  0  0
   -3.4301    9.5331   -1.8800 H   0  0  0  0  0  0  0  0  0  0  0  0
   -4.1578    8.9102    0.9934 H   0  0  0  0  0  0  0  0  0  0  0  0
   -5.3567    9.5266   -0.2190 H   0  0  0  0  0  0  0  0  0  0  0  0
   -3.9281    7.1785    0.1538 H   0  0  0  0  0  0  0  0  0  0  0  0
   -7.4481    8.2154   -0.2864 H   0  0  0  0  0  0  0  0  0  0  0  0
   -6.8495    8.8908   -1.8395 H   0  0  0  0  0  0  0  0  0  0  0  0
   -7.9036    7.4363   -1.8395 H   0  0  0  0  0  0  0  0  0  0  0  0
   -6.1987    5.2141   -0.2455 H   0  0  0  0  0  0  0  0  0  0  0  0
   -7.0763    5.4125   -1.8002 H   0  0  0  0  0  0  0  0  0  0  0  0
   -5.3033    5.1244   -1.8002 H   0  0  0  0  0  0  0  0  0  0  0  0
   -1.7898   11.1732    0.2531 H   0  0  0  0  0  0  0  0  0  0  0  0
   -0.2684   10.4112    1.9684 H   0  0  0  0  0  0  0  0  0  0  0  0
    0.3203    9.0721    0.9602 H   0  0  0  0  0  0  0  0  0  0  0  0
    1.7265   11.5076    1.4734 H   0  0  0  0  0  0  0  0  0  0  0  0
    2.1472   10.3769    0.1898 H   0  0  0  0  0  0  0  0  0  0  0  0
    0.2689   12.9213    1.4686 H   0  0  0  0  0  0  0  0  0  0  0  0
    0.6095   14.1075    0.1634 H   0  0  0  0  0  0  0  0  0  0  0  0
   -0.9354   13.1910    0.1634 H   0  0  0  0  0  0  0  0  0  0  0  0
    2.3373   11.6834   -1.8414 H   0  0  0  0  0  0  0  0  0  0  0  0
    3.1755   12.9872    0.2162 H   0  0  0  0  0  0  0  0  0  0  0  0
    3.8685   13.3030   -1.4597 H   0  0  0  0  0  0  0  0  0  0  0  0
    3.4042   15.4274    0.0287 H   0  0  0  0  0  0  0  0  0  0  0  0
   -0.1074   14.7747   -1.8513 H   0  0  0  0  0  0  0  0  0  0  0  0
    1.7616   15.8216   -4.0668 H   0  0  0  0  0  0  0  0  0  0  0  0
    0.0214   15.3235   -4.2508 H   0  0  0  0  0  0  0  0  0  0  0  0
    0.2898   17.7826   -4.1817 H   0  0  0  0  0  0  0  0  0  0  0  0
   -0.6837   17.1394   -2.8020 H   0  0  0  0  0  0  0  0  0  0  0  0
    0.8219   18.8121   -1.9695 H   0  0  0  0  0  0  0  0  0  0  0  0
    2.7330   17.2460   -3.4160 H   0  0  0  0  0  0  0  0  0  0  0  0
    0.4169   17.0684    0.9513 H   0  0  0  0  0  0  0  0  0  0  0  0
   -0.3955   17.9946   -0.3560 H   0  0  0  0  0  0  0  0  0  0  0  0
   -0.4562   16.1993   -0.3560 H   0  0  0  0  0  0  0  0  0  0  0  0
    2.3343   17.5990    0.9606 H   0  0  0  0  0  0  0  0  0  0  0  0
    3.5376   17.3096   -0.3413 H   0  0  0  0  0  0  0  0  0  0  0  0
    2.5591   18.8160   -0.3413 H   0  0  0  0  0  0  0  0  0  0  0  0
    3.3200   13.2942   -3.3642 H   0  0  0  0  0  0  0  0  0  0  0  0
    2.1590   12.4357   -4.4327 H   0  0  0  0  0  0  0  0  0  0  0  0
    2.2211   14.2309   -4.4327 H   0  0  0  0  0  0  0  0  0  0  0  0
   -0.6142   13.3990   -3.8075 H   0  0  0  0  0  0  0  0  0  0  0  0
    0.3507   11.8176   -3.8590 H   0  0  0  0  0  0  0  0  0  0  0  0
   -1.5026   12.7819   -1.6629 H   0  0  0  0  0  0  0  0  0  0  0  0
   -1.7032   11.3657   -2.7680 H   0  0  0  0  0  0  0  0  0  0  0  0
    0.8894    9.2127   -1.3788 H   0  0  0  0  0  0  0  0  0  0  0  0
   -0.2965    9.4723   -2.7028 H   0  0  0  0  0  0  0  0  0  0  0  0
    1.2602   10.3686   -2.7028 H   0  0  0  0  0  0  0  0  0  0  0  0
  1  2  1  0
  2  3  1  0
  3  4  1  0
  4  5  1  0
  5  6  1  0
  6  7  1  0
  7  8  1  0
  7  9  1  0
  2 10  1  0
 10 11  1  0
 11 12  1  0
 12 13  1  0
 13 14  1  1
 13 15  1  0
 15 16  1  0
 16 17  1  0
 17 18  2  0
 18 19  1  0
 19 20  1  0
 20 21  1  0
 21 22  1  0
 22 23  1  0
 22 24  1  0
 24 25  1  0
 24 26  1  0
 19 27  1  0
 27 28  1  6
 27 29  1  0
 29 30  1  0
 30 31  1  0
 31 32  1  6
  7  5  1  0
 31 10  1  0
 31 13  1  0
 27 15  1  0
 24 18  1  0
  1 33  1  0
  1 34  1  0
  1 35  1  0
  2 36  1  1
  3 37  1  0
  3 38  1  0
  4 39  1  0
  4 40  1  0
  5 41  1  6
  8 42  1  0
  8 43  1  0
  8 44  1  0
  9 45  1  0
  9 46  1  0
  9 47  1  0
 10 48  1  1
 11 49  1  0
 11 50  1  0
 12 51  1  0
 12 52  1  0
 14 53  1  0
 14 54  1  0
 14 55  1  0
 15 56  1  6
 16 57  1  0
 16 58  1  0
 17 59  1  0
 19 60  1  1
 20 61  1  0
 20 62  1  0
 21 63  1  0
 21 64  1  0
 22 65  1  1
 23 66  1  0
 25 67  1  0
 25 68  1  0
 25 69  1  0
 26 70  1  0
 26 71  1  0
 26 72  1  0
 28 73  1  0
 28 74  1  0
 28 75  1  0
 29 76  1  0
 29 77  1  0
 30 78  1  0
 30 79  1  0
 32 80  1  0
 32 81  1  0
 32 82  1  0
M  END
>  <meeko>  (1) 
{"is_sidechain": [false], "intermolecular_energy": 2.731, "internal_energy": -0.839}

$$$$
EPH_relaxed_0001_pdb2pqr_Repair_113_r2_0001_out
     RDKit          3D

 82 86  0  0  0  0  0  0  0  0999 V2000
    4.1950   17.3190   -0.6920 C   0  0  0  0  0  0  0  0  0  0  0  0
    2.8350   17.9240   -0.3320 C   0  0  2  0  0  0  0  0  0  0  0  0
    2.8800   18.7030    0.9980 C   0  0  0  0  0  0  0  0  0  0  0  0
    4.2540   18.6860    1.6750 C   0  0  0  0  0  0  0  0  0  0  0  0
    4.1910   19.2340    3.0680 C   0  0  2  0  0  0  0  0  0  0  0  0
    5.2090   20.1940    3.3800 O   0  0  0  0  0  0  0  0  0  0  0  0
    5.2500   18.9640    4.1210 C   0  0  0  0  0  0  0  0  0  0  0  0
    6.4460   18.1150    3.8250 C   0  0  0  0  0  0  0  0  0  0  0  0
    4.8800   19.1170    5.5640 C   0  0  0  0  0  0  0  0  0  0  0  0
    1.7810   16.8250   -0.2570 C   0  0  1  0  0  0  0  0  0  0  0  0
    0.3350   17.3740   -0.3870 C   0  0  0  0  0  0  0  0  0  0  0  0
   -0.4820   16.3050   -1.1560 C   0  0  0  0  0  0  0  0  0  0  0  0
    0.4190   15.0480   -1.1510 C   0  0  1  0  0  0  0  0  0  0  0  0
    0.1910   14.3960    0.2490 C   0  0  0  0  0  0  0  0  0  0  0  0
    0.1830   14.0240   -2.3100 C   0  0  2  0  0  0  0  0  0  0  0  0
   -1.2130   13.3780   -2.3350 C   0  0  0  0  0  0  0  0  0  0  0  0
   -1.3410   12.1060   -1.5630 C   0  0  0  0  0  0  0  0  0  0  0  0
   -0.3170   11.3570   -1.1140 C   0  0  0  0  0  0  0  0  0  0  0  0
    1.1340   11.7200   -1.4570 C   0  0  1  0  0  0  0  0  0  0  0  0
    1.8900   10.4460   -1.9170 C   0  0  0  0  0  0  0  0  0  0  0  0
    1.7970    9.3110   -0.9020 C   0  0  0  0  0  0  0  0  0  0  0  0
    0.3410    8.9400   -0.6310 C   0  0  2  0  0  0  0  0  0  0  0  0
   -0.2190    8.3740   -1.8200 O   0  0  0  0  0  0  0  0  0  0  0  0
   -0.5220   10.1470   -0.1700 C   0  0  0  0  0  0  0  0  0  0  0  0
   -0.1040   10.5700    1.2600 C   0  0  0  0  0  0  0  0  0  0  0  0
   -1.9960    9.6690   -0.0670 C   0  0  0  0  0  0  0  0  0  0  0  0
    1.3260   12.9390   -2.4580 C   0  0  1  0  0  0  0  0  0  0  0  0
    1.2690   12.4320   -3.9320 C   0  0  0  0  0  0  0  0  0  0  0  0
    2.7620   13.5500   -2.2540 C   0  0  0  0  0  0  0  0  0  0  0  0
    2.9060   14.6420   -1.1770 C   0  0  0  0  0  0  0  0  0  0  0  0
    1.8280   15.7190   -1.3400 C   0  0  2  0  0  0  0  0  0  0  0  0
    2.0460   16.4070   -2.7310 C   0  0  0  0  0  0  0  0  0  0  0  0
    4.7434   17.0751    0.2298 H   0  0  0  0  0  0  0  0  0  0  0  0
    4.0442   16.4031   -1.2822 H   0  0  0  0  0  0  0  0  0  0  0  0
    4.7743   18.0443   -1.2822 H   0  0  0  0  0  0  0  0  0  0  0  0
    2.5704   18.6394   -1.1246 H   0  0  0  0  0  0  0  0  0  0  0  0
    2.6045   19.7489    0.7974 H   0  0  0  0  0  0  0  0  0  0  0  0
    2.1771   18.2083    1.6844 H   0  0  0  0  0  0  0  0  0  0  0  0
    4.6187   17.6490    1.7158 H   0  0  0  0  0  0  0  0  0  0  0  0
    4.9343   19.3197    1.0871 H   0  0  0  0  0  0  0  0  0  0  0  0
    3.0952   19.1388    3.0818 H   0  0  0  0  0  0  0  0  0  0  0  0
    6.9064   17.7882    4.7691 H   0  0  0  0  0  0  0  0  0  0  0  0
    6.1355   17.2339    3.2442 H   0  0  0  0  0  0  0  0  0  0  0  0
    7.1753   18.6987    3.2442 H   0  0  0  0  0  0  0  0  0  0  0  0
    5.7129   18.7726    6.1946 H   0  0  0  0  0  0  0  0  0  0  0  0
    4.6709   20.1754    5.7787 H   0  0  0  0  0  0  0  0  0  0  0  0
    3.9844   18.5154    5.7787 H   0  0  0  0  0  0  0  0  0  0  0  0
    2.0290   16.3992    0.7264 H   0  0  0  0  0  0  0  0  0  0  0  0
   -0.0992   17.5374    0.6104 H   0  0  0  0  0  0  0  0  0  0  0  0
    0.3246   18.3369   -0.9188 H   0  0  0  0  0  0  0  0  0  0  0  0
   -1.4346   16.1021   -0.6447 H   0  0  0  0  0  0  0  0  0  0  0  0
   -0.7396   16.6298   -2.1749 H   0  0  0  0  0  0  0  0  0  0  0  0
    0.4445   15.1208    1.0367 H   0  0  0  0  0  0  0  0  0  0  0  0
   -0.8639   14.1004    0.3484 H   0  0  0  0  0  0  0  0  0  0  0  0
    0.8317   13.5074    0.3484 H   0  0  0  0  0  0  0  0  0  0  0  0
    0.2319   14.6628   -3.2042 H   0  0  0  0  0  0  0  0  0  0  0  0
   -1.9298   14.1015   -1.9194 H   0  0  0  0  0  0  0  0  0  0  0  0
   -1.4091   13.1175   -3.3856 H   0  0  0  0  0  0  0  0  0  0  0  0
   -2.3586   11.7512   -1.3427 H   0  0  0  0  0  0  0  0  0  0  0  0
    1.5799   12.1042   -0.5278 H   0  0  0  0  0  0  0  0  0  0  0  0
    1.4576   10.1039   -2.8688 H   0  0  0  0  0  0  0  0  0  0  0  0
    2.9523   10.7097   -2.0260 H   0  0  0  0  0  0  0  0  0  0  0  0
    2.3254    8.4307   -1.2968 H   0  0  0  0  0  0  0  0  0  0  0  0
    2.2560    9.6441    0.0406 H   0  0  0  0  0  0  0  0  0  0  0  0
    0.3330    8.2146    0.1959 H   0  0  0  0  0  0  0  0  0  0  0  0
   -0.9130    7.7490   -1.5490 H   0  0  0  0  0  0  0  0  0  0  0  0
   -0.6781    9.9890    1.9968 H   0  0  0  0  0  0  0  0  0  0  0  0
    0.9704   10.3794    1.3994 H   0  0  0  0  0  0  0  0  0  0  0  0
   -0.3073   11.6420    1.3994 H   0  0  0  0  0  0  0  0  0  0  0  0
   -2.2786    9.5774    0.9921 H   0  0  0  0  0  0  0  0  0  0  0  0
   -2.6538   10.3999   -0.5601 H   0  0  0  0  0  0  0  0  0  0  0  0
   -2.0997    8.6912   -0.5601 H   0  0  0  0  0  0  0  0  0  0  0  0
    1.1461   11.3389   -3.9393 H   0  0  0  0  0  0  0  0  0  0  0  0
    0.4178   12.9001   -4.4481 H   0  0  0  0  0  0  0  0  0  0  0  0
    2.2029   12.6994   -4.4481 H   0  0  0  0  0  0  0  0  0  0  0  0
    3.4391   12.7259   -1.9848 H   0  0  0  0  0  0  0  0  0  0  0  0
    2.9995   14.0503   -3.2045 H   0  0  0  0  0  0  0  0  0  0  0  0
    2.8075   14.1819   -0.1827 H   0  0  0  0  0  0  0  0  0  0  0  0
    3.8932   15.1146   -1.2866 H   0  0  0  0  0  0  0  0  0  0  0  0
    2.3751   17.4455   -2.5788 H   0  0  0  0  0  0  0  0  0  0  0  0
    2.8142   15.8579   -3.2953 H   0  0  0  0  0  0  0  0  0  0  0  0
    1.1018   16.4005   -3.2953 H   0  0  0  0  0  0  0  0  0  0  0  0
  1  2  1  0
  2  3  1  0
  3  4  1  0
  4  5  1  0
  5  6  1  0
  6  7  1  0
  7  8  1  0
  7  9  1  0
  2 10  1  0
 10 11  1  0
 11 12  1  0
 12 13  1  0
 13 14  1  1
 13 15  1  0
 15 16  1  0
 16 17  1  0
 17 18  2  0
 18 19  1  0
 19 20  1  0
 20 21  1  0
 21 22  1  0
 22 23  1  0
 22 24  1  0
 24 25  1  0
 24 26  1  0
 19 27  1  0
 27 28  1  6
 27 29  1  0
 29 30  1  0
 30 31  1  0
 31 32  1  6
  7  5  1  0
 31 10  1  0
 31 13  1  0
 27 15  1  0
 24 18  1  0
  1 33  1  0
  1 34  1  0
  1 35  1  0
  2 36  1  6
  3 37  1  0
  3 38  1  0
  4 39  1  0
  4 40  1  0
  5 41  1  1
  8 42  1  0
  8 43  1  0
  8 44  1  0
  9 45  1  0
  9 46  1  0
  9 47  1  0
 10 48  1  1
 11 49  1  0
 11 50  1  0
 12 51  1  0
 12 52  1  0
 14 53  1  0
 14 54  1  0
 14 55  1  0
 15 56  1  6
 16 57  1  0
 16 58  1  0
 17 59  1  0
 19 60  1  1
 20 61  1  0
 20 62  1  0
 21 63  1  0
 21 64  1  0
 22 65  1  1
 23 66  1  0
 25 67  1  0
 25 68  1  0
 25 69  1  0
 26 70  1  0
 26 71  1  0
 26 72  1  0
 28 73  1  0
 28 74  1  0
 28 75  1  0
 29 76  1  0
 29 77  1  0
 30 78  1  0
 30 79  1  0
 32 80  1  0
 32 81  1  0
 32 82  1  0
M  END
>  <meeko>  (2) 
{"is_sidechain": [false], "intermolecular_energy": 2.731, "internal_energy": -0.839}

$$$$
EPH_relaxed_0001_pdb2pqr_Repair_113_r2_0001_out
     RDKit          3D

 82 86  0  0  0  0  0  0  0  0999 V2000
    2.1540   18.0670   -2.6310 C   0  0  0  0  0  0  0  0  0  0  0  0
    0.6350   17.8760   -2.6670 C   0  0  2  0  0  0  0  0  0  0  0  0
   -0.0390   18.3330   -1.3570 C   0  0  0  0  0  0  0  0  0  0  0  0
    0.7210   17.9130   -0.0960 C   0  0  0  0  0  0  0  0  0  0  0  0
    1.2340   19.0990    0.6630 C   0  0  2  0  0  0  0  0  0  0  0  0
    2.1060   19.9560   -0.0840 O   0  0  0  0  0  0  0  0  0  0  0  0
    2.6920   19.2830    1.0420 C   0  0  0  0  0  0  0  0  0  0  0  0
    3.7280   18.2690    0.6730 C   0  0  0  0  0  0  0  0  0  0  0  0
    3.0250   20.1940    2.1820 C   0  0  0  0  0  0  0  0  0  0  0  0
    0.3010   16.4140   -2.9420 C   0  0  1  0  0  0  0  0  0  0  0  0
    0.3940   16.0540   -4.4480 C   0  0  0  0  0  0  0  0  0  0  0  0
    0.9170   14.5960   -4.5280 C   0  0  0  0  0  0  0  0  0  0  0  0
    0.7910   14.0570   -3.0840 C   0  0  1  0  0  0  0  0  0  0  0  0
   -0.7070   13.6460   -2.9380 C   0  0  0  0  0  0  0  0  0  0  0  0
    1.7520   12.8860   -2.6970 C   0  0  2  0  0  0  0  0  0  0  0  0
    1.5600   11.5910   -3.5050 C   0  0  0  0  0  0  0  0  0  0  0  0
    0.5910   10.6150   -2.9240 C   0  0  0  0  0  0  0  0  0  0  0  0
    0.1180   10.6380   -1.6640 C   0  0  0  0  0  0  0  0  0  0  0  0
    0.6330   11.6650   -0.6480 C   0  0  1  0  0  0  0  0  0  0  0  0
    0.9510   10.9520    0.6930 C   0  0  0  0  0  0  0  0  0  0  0  0
   -0.2330   10.1500    1.2230 C   0  0  0  0  0  0  0  0  0  0  0  0
   -0.6790    9.1000    0.2090 C   0  0  2  0  0  0  0  0  0  0  0  0
    0.3550    8.1210    0.0730 O   0  0  0  0  0  0  0  0  0  0  0  0
   -1.0170    9.7000   -1.1850 C   0  0  0  0  0  0  0  0  0  0  0  0
   -2.3240   10.5260   -1.0920 C   0  0  0  0  0  0  0  0  0  0  0  0
   -1.3160    8.5230   -2.1520 C   0  0  0  0  0  0  0  0  0  0  0  0
    1.8250   12.5930   -1.1440 C   0  0  1  0  0  0  0  0  0  0  0  0
    3.1910   11.8860   -0.8870 C   0  0  0  0  0  0  0  0  0  0  0  0
    1.8390   13.9130   -0.2860 C   0  0  0  0  0  0  0  0  0  0  0  0
    0.9610   15.0760   -0.7850 C   0  0  0  0  0  0  0  0  0  0  0  0
    1.1990   15.3420   -2.2750 C   0  0  2  0  0  0  0  0  0  0  0  0
    2.6930   15.7800   -2.4500 C   0  0  0  0  0  0  0  0  0  0  0  0
    2.4935   18.1097   -1.5856 H   0  0  0  0  0  0  0  0  0  0  0  0
    2.6418   17.2231   -3.1408 H   0  0  0  0  0  0  0  0  0  0  0  0
    2.4177   19.0054   -3.1408 H   0  0  0  0  0  0  0  0  0  0  0  0
    0.2415   18.5062   -3.4782 H   0  0  0  0  0  0  0  0  0  0  0  0
   -0.1130   19.4304   -1.3688 H   0  0  0  0  0  0  0  0  0  0  0  0
   -1.0249   17.8469   -1.3156 H   0  0  0  0  0  0  0  0  0  0  0  0
    0.0437   17.3396    0.5540 H   0  0  0  0  0  0  0  0  0  0  0  0
    1.5835   17.3030   -0.4027 H   0  0  0  0  0  0  0  0  0  0  0  0
    0.3062   19.1535    1.2514 H   0  0  0  0  0  0  0  0  0  0  0  0
    4.1648   17.8415    1.5876 H   0  0  0  0  0  0  0  0  0  0  0  0
    3.2623   17.4681    0.0800 H   0  0  0  0  0  0  0  0  0  0  0  0
    4.5188   18.7518    0.0800 H   0  0  0  0  0  0  0  0  0  0  0  0
    2.8354   19.6753    3.1333 H   0  0  0  0  0  0  0  0  0  0  0  0
    4.0857   20.4798    2.1252 H   0  0  0  0  0  0  0  0  0  0  0  0
    2.3986   21.0964    2.1252 H   0  0  0  0  0  0  0  0  0  0  0  0
   -0.7127   16.3728   -2.5170 H   0  0  0  0  0  0  0  0  0  0  0  0
   -0.5984   16.1267   -4.9169 H   0  0  0  0  0  0  0  0  0  0  0  0
    1.0663   16.7445   -4.9784 H   0  0  0  0  0  0  0  0  0  0  0  0
    0.3031   14.0006   -5.2198 H   0  0  0  0  0  0  0  0  0  0  0  0
    1.9491   14.5430   -4.9046 H   0  0  0  0  0  0  0  0  0  0  0  0
   -0.9655   13.5751   -1.8711 H   0  0  0  0  0  0  0  0  0  0  0  0
   -1.3435   14.4027   -3.4200 H   0  0  0  0  0  0  0  0  0  0  0  0
   -0.8682   12.6704   -3.4200 H   0  0  0  0  0  0  0  0  0  0  0  0
    2.7353   13.2803   -2.9932 H   0  0  0  0  0  0  0  0  0  0  0  0
    1.2046   11.8662   -4.5090 H   0  0  0  0  0  0  0  0  0  0  0  0
    2.5370   11.0856   -3.5069 H   0  0  0  0  0  0  0  0  0  0  0  0
    0.2333    9.8088   -3.5813 H   0  0  0  0  0  0  0  0  0  0  0  0
   -0.1849   12.3860   -0.5024 H   0  0  0  0  0  0  0  0  0  0  0  0
    1.7985   10.2684    0.5368 H   0  0  0  0  0  0  0  0  0  0  0  0
    1.1887   11.7277    1.4359 H   0  0  0  0  0  0  0  0  0  0  0  0
    0.0617    9.6471    2.1559 H   0  0  0  0  0  0  0  0  0  0  0  0
   -1.0704   10.8396    1.4054 H   0  0  0  0  0  0  0  0  0  0  0  0
   -1.6065    8.6472    0.5895 H   0  0  0  0  0  0  0  0  0  0  0  0
   -0.0680    7.2460    0.0580 H   0  0  0  0  0  0  0  0  0  0  0  0
   -2.5808   10.6883   -0.0348 H   0  0  0  0  0  0  0  0  0  0  0  0
   -2.1799   11.4974   -1.5876 H   0  0  0  0  0  0  0  0  0  0  0  0
   -3.1395    9.9789   -1.5876 H   0  0  0  0  0  0  0  0  0  0  0  0
   -1.5457    7.6189   -1.5691 H   0  0  0  0  0  0  0  0  0  0  0  0
   -2.1776    8.7792   -2.7861 H   0  0  0  0  0  0  0  0  0  0  0  0
   -0.4366    8.3369   -2.7861 H   0  0  0  0  0  0  0  0  0  0  0  0
    3.3604   11.7983    0.1963 H   0  0  0  0  0  0  0  0  0  0  0  0
    3.1752   10.8828   -1.3380 H   0  0  0  0  0  0  0  0  0  0  0  0
    4.0009   12.4781   -1.3380 H   0  0  0  0  0  0  0  0  0  0  0  0
    1.5024   13.6538    0.7287 H   0  0  0  0  0  0  0  0  0  0  0  0
    2.8721   14.2855   -0.3484 H   0  0  0  0  0  0  0  0  0  0  0  0
   -0.0975   14.8202   -0.6296 H   0  0  0  0  0  0  0  0  0  0  0  0
    1.2248   15.9823   -0.2202 H   0  0  0  0  0  0  0  0  0  0  0  0
    3.1538   15.9151   -1.4604 H   0  0  0  0  0  0  0  0  0  0  0  0
    3.2398   15.0043   -3.0063 H   0  0  0  0  0  0  0  0  0  0  0  0
    2.7344   16.7281   -3.0063 H   0  0  0  0  0  0  0  0  0  0  0  0
  1  2  1  0
  2  3  1  0
  3  4  1  0
  4  5  1  0
  5  6  1  0
  6  7  1  0
  7  8  1  0
  7  9  1  0
  2 10  1  0
 10 11  1  0
 11 12  1  0
 12 13  1  0
 13 14  1  1
 13 15  1  0
 15 16  1  0
 16 17  1  0
 17 18  2  0
 18 19  1  0
 19 20  1  0
 20 21  1  0
 21 22  1  0
 22 23  1  0
 22 24  1  0
 24 25  1  0
 24 26  1  0
 19 27  1  0
 27 28  1  6
 27 29  1  0
 29 30  1  0
 30 31  1  0
 31 32  1  1
  7  5  1  0
 31 10  1  0
 31 13  1  0
 27 15  1  0
 24 18  1  0
  1 33  1  0
  1 34  1  0
  1 35  1  0
  2 36  1  6
  3 37  1  0
  3 38  1  0
  4 39  1  0
  4 40  1  0
  5 41  1  1
  8 42  1  0
  8 43  1  0
  8 44  1  0
  9 45  1  0
  9 46  1  0
  9 47  1  0
 10 48  1  1
 11 49  1  0
 11 50  1  0
 12 51  1  0
 12 52  1  0
 14 53  1  0
 14 54  1  0
 14 55  1  0
 15 56  1  6
 16 57  1  0
 16 58  1  0
 17 59  1  0
 19 60  1  1
 20 61  1  0
 20 62  1  0
 21 63  1  0
 21 64  1  0
 22 65  1  1
 23 66  1  0
 25 67  1  0
 25 68  1  0
 25 69  1  0
 26 70  1  0
 26 71  1  0
 26 72  1  0
 28 73  1  0
 28 74  1  0
 28 75  1  0
 29 76  1  0
 29 77  1  0
 30 78  1  0
 30 79  1  0
 32 80  1  0
 32 81  1  0
 32 82  1  0
M  END
>  <meeko>  (3) 
{"is_sidechain": [false], "intermolecular_energy": 2.731, "internal_energy": -0.839}

$$$$
EPH_relaxed_0001_pdb2pqr_Repair_113_r2_0001_out
     RDKit          3D

 82 86  0  0  0  0  0  0  0  0999 V2000
    2.2900   18.1090   -2.8460 C   0  0  0  0  0  0  0  0  0  0  0  0
    1.0650   17.6650   -2.0420 C   0  0  2  0  0  0  0  0  0  0  0  0
    1.3190   17.7130   -0.5220 C   0  0  0  0  0  0  0  0  0  0  0  0
    1.0180   19.0750    0.1090 C   0  0  0  0  0  0  0  0  0  0  0  0
   -0.3940   19.1560    0.6060 C   0  0  2  0  0  0  0  0  0  0  0  0
   -1.3120   18.2740   -0.0530 O   0  0  0  0  0  0  0  0  0  0  0  0
   -1.5460   19.6800   -0.2300 C   0  0  0  0  0  0  0  0  0  0  0  0
   -1.3370   20.1600   -1.6320 C   0  0  0  0  0  0  0  0  0  0  0  0
   -2.7700   20.1810    0.4720 C   0  0  0  0  0  0  0  0  0  0  0  0
    0.6540   16.2570   -2.4570 C   0  0  1  0  0  0  0  0  0  0  0  0
    0.8190   16.0110   -3.9800 C   0  0  0  0  0  0  0  0  0  0  0  0
    1.2480   14.5310   -4.1500 C   0  0  0  0  0  0  0  0  0  0  0  0
    0.9940   13.8900   -2.7660 C   0  0  1  0  0  0  0  0  0  0  0  0
   -0.5350   13.5760   -2.7430 C   0  0  0  0  0  0  0  0  0  0  0  0
    1.8480   12.6260   -2.4230 C   0  0  2  0  0  0  0  0  0  0  0  0
    1.6220   11.4160   -3.3460 C   0  0  0  0  0  0  0  0  0  0  0  0
    0.5560   10.4690   -2.9060 C   0  0  0  0  0  0  0  0  0  0  0  0
    0.0050   10.4260   -1.6790 C   0  0  0  0  0  0  0  0  0  0  0  0
    0.5210   11.3300   -0.5520 C   0  0  1  0  0  0  0  0  0  0  0  0
    0.7030   10.4920    0.7410 C   0  0  0  0  0  0  0  0  0  0  0  0
   -0.5630    9.7370    1.1320 C   0  0  0  0  0  0  0  0  0  0  0  0
   -1.0120    8.8060    0.0090 C   0  0  2  0  0  0  0  0  0  0  0  0
   -0.0380    7.7690   -0.1470 O   0  0  0  0  0  0  0  0  0  0  0  0
   -1.2190    9.5370   -1.3470 C   0  0  0  0  0  0  0  0  0  0  0  0
   -2.4710   10.4440   -1.2630 C   0  0  0  0  0  0  0  0  0  0  0  0
   -1.5320    8.4640   -2.4250 C   0  0  0  0  0  0  0  0  0  0  0  0
    1.8000   12.2060   -0.8980 C   0  0  1  0  0  0  0  0  0  0  0  0
    3.0980   11.3860   -0.6210 C   0  0  0  0  0  0  0  0  0  0  0  0
    1.8470   13.4500    0.0670 C   0  0  0  0  0  0  0  0  0  0  0  0
    1.0830   14.7090   -0.3850 C   0  0  0  0  0  0  0  0  0  0  0  0
    1.4330   15.0740   -1.8300 C   0  0  2  0  0  0  0  0  0  0  0  0
    2.9610   15.4170   -1.8800 C   0  0  0  0  0  0  0  0  0  0  0  0
    3.0954   18.4009   -2.1560 H   0  0  0  0  0  0  0  0  0  0  0  0
    2.6334   17.2781   -3.4798 H   0  0  0  0  0  0  0  0  0  0  0  0
    2.0213   18.9669   -3.4798 H   0  0  0  0  0  0  0  0  0  0  0  0
    0.2507   18.3708   -2.2628 H   0  0  0  0  0  0  0  0  0  0  0  0
    0.6812   16.9579   -0.0392 H   0  0  0  0  0  0  0  0  0  0  0  0
    2.3905   17.5171   -0.3685 H   0  0  0  0  0  0  0  0  0  0  0  0
    1.7032   19.2355    0.9544 H   0  0  0  0  0  0  0  0  0  0  0  0
    1.1551   19.8478   -0.6617 H   0  0  0  0  0  0  0  0  0  0  0  0
   -0.0477   19.4008    1.6210 H   0  0  0  0  0  0  0  0  0  0  0  0
   -0.8979   21.1684   -1.6127 H   0  0  0  0  0  0  0  0  0  0  0  0
   -0.6563   19.4737   -2.1569 H   0  0  0  0  0  0  0  0  0  0  0  0
   -2.3032   20.1908   -2.1569 H   0  0  0  0  0  0  0  0  0  0  0  0
   -2.6197   20.1195    1.5600 H   0  0  0  0  0  0  0  0  0  0  0  0
   -2.9545   21.2270    0.1859 H   0  0  0  0  0  0  0  0  0  0  0  0
   -3.6350   19.5646    0.1859 H   0  0  0  0  0  0  0  0  0  0  0  0
   -0.3854   16.2553   -2.0968 H   0  0  0  0  0  0  0  0  0  0  0  0
   -0.1344   16.1910   -4.4983 H   0  0  0  0  0  0  0  0  0  0  0  0
    1.5681   16.6914   -4.4111 H   0  0  0  0  0  0  0  0  0  0  0  0
    0.6417   14.0373   -4.9238 H   0  0  0  0  0  0  0  0  0  0  0  0
    2.2965   14.4345   -4.4684 H   0  0  0  0  0  0  0  0  0  0  0  0
   -0.8792   13.5053   -1.7006 H   0  0  0  0  0  0  0  0  0  0  0  0
   -1.0823   14.3805   -3.2561 H   0  0  0  0  0  0  0  0  0  0  0  0
   -0.7209   12.6209   -3.2561 H   0  0  0  0  0  0  0  0  0  0  0  0
    2.8724   12.9707   -2.6274 H   0  0  0  0  0  0  0  0  0  0  0  0
    1.3502   11.7946   -4.3424 H   0  0  0  0  0  0  0  0  0  0  0  0
    2.5614   10.8439   -3.3333 H   0  0  0  0  0  0  0  0  0  0  0  0
    0.1893    9.7443   -3.6479 H   0  0  0  0  0  0  0  0  0  0  0  0
   -0.2543   12.0943   -0.3945 H   0  0  0  0  0  0  0  0  0  0  0  0
    1.5116    9.7641    0.5785 H   0  0  0  0  0  0  0  0  0  0  0  0
    0.9426   11.1877    1.5586 H   0  0  0  0  0  0  0  0  0  0  0  0
   -0.3626    9.1414    2.0348 H   0  0  0  0  0  0  0  0  0  0  0  0
   -1.3627   10.4678    1.3229 H   0  0  0  0  0  0  0  0  0  0  0  0
   -1.9905    8.3924    0.2946 H   0  0  0  0  0  0  0  0  0  0  0  0
    0.4160    7.9170   -0.9940 H   0  0  0  0  0  0  0  0  0  0  0  0
   -2.7219   10.6258   -0.2075 H   0  0  0  0  0  0  0  0  0  0  0  0
   -2.2634   11.4026   -1.7609 H   0  0  0  0  0  0  0  0  0  0  0  0
   -3.3172    9.9480   -1.7609 H   0  0  0  0  0  0  0  0  0  0  0  0
   -1.8075    7.5195   -1.9331 H   0  0  0  0  0  0  0  0  0  0  0  0
   -2.3673    8.8077   -3.0528 H   0  0  0  0  0  0  0  0  0  0  0  0
   -0.6429    8.3047   -3.0528 H   0  0  0  0  0  0  0  0  0  0  0  0
    3.2474   11.2916    0.4647 H   0  0  0  0  0  0  0  0  0  0  0  0
    3.0012   10.3848   -1.0662 H   0  0  0  0  0  0  0  0  0  0  0  0
    3.9606   11.9034   -1.0662 H   0  0  0  0  0  0  0  0  0  0  0  0
    1.4286   13.1364    1.0348 H   0  0  0  0  0  0  0  0  0  0  0  0
    2.9047   13.7507    0.0977 H   0  0  0  0  0  0  0  0  0  0  0  0
    0.0019   14.5186   -0.3138 H   0  0  0  0  0  0  0  0  0  0  0  0
    1.3706   15.5466    0.2675 H   0  0  0  0  0  0  0  0  0  0  0  0
    3.3509   15.5045   -0.8551 H   0  0  0  0  0  0  0  0  0  0  0  0
    3.4992   14.6173   -2.4100 H   0  0  0  0  0  0  0  0  0  0  0  0
    3.1057   16.3700   -2.4100 H   0  0  0  0  0  0  0  0  0  0  0  0
  1  2  1  0
  2  3  1  0
  3  4  1  0
  4  5  1  0
  5  6  1  0
  6  7  1  0
  7  8  1  0
  7  9  1  0
  2 10  1  0
 10 11  1  0
 11 12  1  0
 12 13  1  0
 13 14  1  6
 13 15  1  0
 15 16  1  0
 16 17  1  0
 17 18  2  0
 18 19  1  0
 19 20  1  0
 20 21  1  0
 21 22  1  0
 22 23  1  0
 22 24  1  0
 24 25  1  0
 24 26  1  0
 19 27  1  0
 27 28  1  1
 27 29  1  0
 29 30  1  0
 30 31  1  0
 31 32  1  1
  7  5  1  0
 31 10  1  0
 31 13  1  0
 27 15  1  0
 24 18  1  0
  1 33  1  0
  1 34  1  0
  1 35  1  0
  2 36  1  1
  3 37  1  0
  3 38  1  0
  4 39  1  0
  4 40  1  0
  5 41  1  1
  8 42  1  0
  8 43  1  0
  8 44  1  0
  9 45  1  0
  9 46  1  0
  9 47  1  0
 10 48  1  6
 11 49  1  0
 11 50  1  0
 12 51  1  0
 12 52  1  0
 14 53  1  0
 14 54  1  0
 14 55  1  0
 15 56  1  6
 16 57  1  0
 16 58  1  0
 17 59  1  0
 19 60  1  1
 20 61  1  0
 20 62  1  0
 21 63  1  0
 21 64  1  0
 22 65  1  1
 23 66  1  0
 25 67  1  0
 25 68  1  0
 25 69  1  0
 26 70  1  0
 26 71  1  0
 26 72  1  0
 28 73  1  0
 28 74  1  0
 28 75  1  0
 29 76  1  0
 29 77  1  0
 30 78  1  0
 30 79  1  0
 32 80  1  0
 32 81  1  0
 32 82  1  0
M  END
>  <meeko>  (4) 
{"is_sidechain": [false], "intermolecular_energy": 2.731, "internal_energy": -0.839}

$$$$
EPH_relaxed_0001_pdb2pqr_Repair_113_r2_0001_out
     RDKit          3D

 82 86  0  0  0  0  0  0  0  0999 V2000
    2.0990   18.4170   -2.6700 C   0  0  0  0  0  0  0  0  0  0  0  0
    1.0800   17.8080   -1.7030 C   0  0  2  0  0  0  0  0  0  0  0  0
    1.6220   17.7320   -0.2610 C   0  0  0  0  0  0  0  0  0  0  0  0
    2.2090   19.0520    0.2460 C   0  0  0  0  0  0  0  0  0  0  0  0
    3.6260   18.8880    0.7050 C   0  0  2  0  0  0  0  0  0  0  0  0
    3.7890   18.0560    1.8610 O   0  0  0  0  0  0  0  0  0  0  0  0
    4.1490   19.4380    2.0190 C   0  0  0  0  0  0  0  0  0  0  0  0
    3.2610   20.1940    2.9570 C   0  0  0  0  0  0  0  0  0  0  0  0
    5.6210   19.6650    2.1650 C   0  0  0  0  0  0  0  0  0  0  0  0
    0.6760   16.4180   -2.1810 C   0  0  1  0  0  0  0  0  0  0  0  0
    0.8390   16.2430   -3.7140 C   0  0  0  0  0  0  0  0  0  0  0  0
    1.2750   14.7740   -3.9530 C   0  0  0  0  0  0  0  0  0  0  0  0
    1.0280   14.0690   -2.5980 C   0  0  1  0  0  0  0  0  0  0  0  0
   -0.4990   13.7470   -2.5870 C   0  0  0  0  0  0  0  0  0  0  0  0
    1.8890   12.7960   -2.3150 C   0  0  2  0  0  0  0  0  0  0  0  0
    1.6680   11.6280   -3.2920 C   0  0  0  0  0  0  0  0  0  0  0  0
    0.6070   10.6560   -2.8940 C   0  0  0  0  0  0  0  0  0  0  0  0
    0.0590   10.5540   -1.6690 C   0  0  0  0  0  0  0  0  0  0  0  0
    0.5730   11.4080   -0.5030 C   0  0  1  0  0  0  0  0  0  0  0  0
    0.7630   10.5140    0.7500 C   0  0  0  0  0  0  0  0  0  0  0  0
   -0.4990    9.7340    1.1090 C   0  0  0  0  0  0  0  0  0  0  0  0
   -0.9450    8.8530   -0.0550 C   0  0  2  0  0  0  0  0  0  0  0  0
    0.0340    7.8300   -0.2600 O   0  0  0  0  0  0  0  0  0  0  0  0
   -1.1590    9.6440   -1.3750 C   0  0  0  0  0  0  0  0  0  0  0  0
   -2.4160   10.5400   -1.2480 C   0  0  0  0  0  0  0  0  0  0  0  0
   -1.4690    8.6200   -2.5000 C   0  0  0  0  0  0  0  0  0  0  0  0
    1.8470   12.3070   -0.8110 C   0  0  1  0  0  0  0  0  0  0  0  0
    3.1490   11.4810   -0.5740 C   0  0  0  0  0  0  0  0  0  0  0  0
    1.8900   13.5050    0.2100 C   0  0  0  0  0  0  0  0  0  0  0  0
    1.1170   14.7790   -0.1820 C   0  0  0  0  0  0  0  0  0  0  0  0
    1.4630   15.2120   -1.6100 C   0  0  2  0  0  0  0  0  0  0  0  0
    2.9890   15.5650   -1.6470 C   0  0  0  0  0  0  0  0  0  0  0  0
    2.9053   18.8989   -2.0975 H   0  0  0  0  0  0  0  0  0  0  0  0
    2.5227   17.6239   -3.3036 H   0  0  0  0  0  0  0  0  0  0  0  0
    1.6012   19.1658   -3.3036 H   0  0  0  0  0  0  0  0  0  0  0  0
    0.1997   18.4675   -1.6911 H   0  0  0  0  0  0  0  0  0  0  0  0
    0.7968   17.4402    0.4053 H   0  0  0  0  0  0  0  0  0  0  0  0
    2.4397   16.9962   -0.2632 H   0  0  0  0  0  0  0  0  0  0  0  0
    2.1813   19.7907   -0.5686 H   0  0  0  0  0  0  0  0  0  0  0  0
    1.6074   19.3881    1.1034 H   0  0  0  0  0  0  0  0  0  0  0  0
    3.9945   18.9700   -0.3282 H   0  0  0  0  0  0  0  0  0  0  0  0
    3.5384   19.9579    3.9949 H   0  0  0  0  0  0  0  0  0  0  0  0
    3.3782   21.2738    2.7827 H   0  0  0  0  0  0  0  0  0  0  0  0
    2.2138   19.9060    2.7827 H   0  0  0  0  0  0  0  0  0  0  0  0
    5.8817   19.7052    3.2329 H   0  0  0  0  0  0  0  0  0  0  0  0
    6.1685   18.8407    1.6847 H   0  0  0  0  0  0  0  0  0  0  0  0
    5.8948   20.6160    1.6847 H   0  0  0  0  0  0  0  0  0  0  0  0
   -0.3625   16.3937   -1.8192 H   0  0  0  0  0  0  0  0  0  0  0  0
   -0.1164   16.4419   -4.2216 H   0  0  0  0  0  0  0  0  0  0  0  0
    1.5840   16.9462   -4.1147 H   0  0  0  0  0  0  0  0  0  0  0  0
    0.6689   14.3131   -4.7469 H   0  0  0  0  0  0  0  0  0  0  0  0
    2.3229   14.6973   -4.2786 H   0  0  0  0  0  0  0  0  0  0  0  0
   -0.8506   13.6729   -1.5473 H   0  0  0  0  0  0  0  0  0  0  0  0
   -1.0467   14.5494   -3.1029 H   0  0  0  0  0  0  0  0  0  0  0  0
   -0.6760   12.7918   -3.1029 H   0  0  0  0  0  0  0  0  0  0  0  0
    2.9110   13.1553   -2.5058 H   0  0  0  0  0  0  0  0  0  0  0  0
    1.3928   12.0501   -4.2698 H   0  0  0  0  0  0  0  0  0  0  0  0
    2.6104   11.0609   -3.3066 H   0  0  0  0  0  0  0  0  0  0  0  0
    0.2422    9.9644   -3.6677 H   0  0  0  0  0  0  0  0  0  0  0  0
   -0.2068   12.1594   -0.3097 H   0  0  0  0  0  0  0  0  0  0  0  0
    1.5755    9.7990    0.5532 H   0  0  0  0  0  0  0  0  0  0  0  0
    1.0006   11.1733    1.5978 H   0  0  0  0  0  0  0  0  0  0  0  0
   -0.2932    9.0987    1.9831 H   0  0  0  0  0  0  0  0  0  0  0  0
   -1.3024   10.4505    1.3351 H   0  0  0  0  0  0  0  0  0  0  0  0
   -1.9206    8.4212    0.2129 H   0  0  0  0  0  0  0  0  0  0  0  0
    0.3410    7.5370    0.6150 H   0  0  0  0  0  0  0  0  0  0  0  0
   -2.6443   10.7028   -0.1843 H   0  0  0  0  0  0  0  0  0  0  0  0
   -2.2269   11.5082   -1.7347 H   0  0  0  0  0  0  0  0  0  0  0  0
   -3.2695   10.0454   -1.7347 H   0  0  0  0  0  0  0  0  0  0  0  0
   -1.7600    7.6589   -2.0510 H   0  0  0  0  0  0  0  0  0  0  0  0
   -2.2930    8.9980   -3.1230 H   0  0  0  0  0  0  0  0  0  0  0  0
   -0.5737    8.4776   -3.1230 H   0  0  0  0  0  0  0  0  0  0  0  0
    3.3220   11.3713    0.5068 H   0  0  0  0  0  0  0  0  0  0  0  0
    3.0404   10.4863   -1.0308 H   0  0  0  0  0  0  0  0  0  0  0  0
    4.0027   12.0031   -1.0308 H   0  0  0  0  0  0  0  0  0  0  0  0
    1.4764   13.1448    1.1635 H   0  0  0  0  0  0  0  0  0  0  0  0
    2.9460   13.8101    0.2520 H   0  0  0  0  0  0  0  0  0  0  0  0
    0.0372   14.5788   -0.1182 H   0  0  0  0  0  0  0  0  0  0  0  0
    1.3999   15.5875    0.5082 H   0  0  0  0  0  0  0  0  0  0  0  0
    3.3700   15.6531   -0.6189 H   0  0  0  0  0  0  0  0  0  0  0  0
    3.5366   14.7698   -2.1741 H   0  0  0  0  0  0  0  0  0  0  0  0
    3.1318   16.5199   -2.1741 H   0  0  0  0  0  0  0  0  0  0  0  0
  1  2  1  0
  2  3  1  0
  3  4  1  0
  4  5  1  0
  5  6  1  0
  6  7  1  0
  7  8  1  0
  7  9  1  0
  2 10  1  0
 10 11  1  0
 11 12  1  0
 12 13  1  0
 13 14  1  1
 13 15  1  0
 15 16  1  0
 16 17  1  0
 17 18  2  0
 18 19  1  0
 19 20  1  0
 20 21  1  0
 21 22  1  0
 22 23  1  0
 22 24  1  0
 24 25  1  0
 24 26  1  0
 19 27  1  0
 27 28  1  1
 27 29  1  0
 29 30  1  0
 30 31  1  0
 31 32  1  1
  7  5  1  0
 31 10  1  0
 31 13  1  0
 27 15  1  0
 24 18  1  0
  1 33  1  0
  1 34  1  0
  1 35  1  0
  2 36  1  1
  3 37  1  0
  3 38  1  0
  4 39  1  0
  4 40  1  0
  5 41  1  6
  8 42  1  0
  8 43  1  0
  8 44  1  0
  9 45  1  0
  9 46  1  0
  9 47  1  0
 10 48  1  6
 11 49  1  0
 11 50  1  0
 12 51  1  0
 12 52  1  0
 14 53  1  0
 14 54  1  0
 14 55  1  0
 15 56  1  6
 16 57  1  0
 16 58  1  0
 17 59  1  0
 19 60  1  1
 20 61  1  0
 20 62  1  0
 21 63  1  0
 21 64  1  0
 22 65  1  1
 23 66  1  0
 25 67  1  0
 25 68  1  0
 25 69  1  0
 26 70  1  0
 26 71  1  0
 26 72  1  0
 28 73  1  0
 28 74  1  0
 28 75  1  0
 29 76  1  0
 29 77  1  0
 30 78  1  0
 30 79  1  0
 32 80  1  0
 32 81  1  0
 32 82  1  0
M  END
>  <meeko>  (5) 
{"is_sidechain": [false], "intermolecular_energy": 2.731, "internal_energy": -0.839}

$$$$
EPH_relaxed_0001_pdb2pqr_Repair_113_r2_0001_out
     RDKit          3D

 82 86  0  0  0  0  0  0  0  0999 V2000
    1.9140   19.5910   -2.0070 C   0  0  0  0  0  0  0  0  0  0  0  0
    1.4960   19.4660   -0.5390 C   0  0  2  0  0  0  0  0  0  0  0  0
    2.6140   19.9110    0.4240 C   0  0  0  0  0  0  0  0  0  0  0  0
    3.4670   18.7540    0.9530 C   0  0  0  0  0  0  0  0  0  0  0  0
    3.7770   18.9150    2.4100 C   0  0  2  0  0  0  0  0  0  0  0  0
    4.3140   20.1940    2.7710 O   0  0  0  0  0  0  0  0  0  0  0  0
    5.1850   19.0670    2.9540 C   0  0  0  0  0  0  0  0  0  0  0  0
    6.3760   19.0640    2.0480 C   0  0  0  0  0  0  0  0  0  0  0  0
    5.4380   18.7280    4.3900 C   0  0  0  0  0  0  0  0  0  0  0  0
    1.0870   18.0290   -0.2360 C   0  0  1  0  0  0  0  0  0  0  0  0
   -0.2770   17.9380    0.4990 C   0  0  0  0  0  0  0  0  0  0  0  0
   -0.9750   16.6520   -0.0130 C   0  0  0  0  0  0  0  0  0  0  0  0
    0.1340   15.8780   -0.7630 C   0  0  1  0  0  0  0  0  0  0  0  0
    0.9400   15.1470    0.3560 C   0  0  0  0  0  0  0  0  0  0  0  0
   -0.3440   14.8850   -1.8720 C   0  0  2  0  0  0  0  0  0  0  0  0
   -1.2200   13.7220   -1.3730 C   0  0  0  0  0  0  0  0  0  0  0  0
   -0.4770   12.4870   -0.9820 C   0  0  0  0  0  0  0  0  0  0  0  0
    0.8030   12.2130   -1.2930 C   0  0  0  0  0  0  0  0  0  0  0  0
    1.6120   13.1510   -2.1980 C   0  0  1  0  0  0  0  0  0  0  0  0
    2.3610   12.3170   -3.2710 C   0  0  0  0  0  0  0  0  0  0  0  0
    3.2190   11.2130   -2.6600 C   0  0  0  0  0  0  0  0  0  0  0  0
    2.3690   10.2680   -1.8150 C   0  0  2  0  0  0  0  0  0  0  0  0
    1.4730    9.5580   -2.6760 O   0  0  0  0  0  0  0  0  0  0  0  0
    1.5600   10.9960   -0.7060 C   0  0  0  0  0  0  0  0  0  0  0  0
    2.5260   11.5090    0.3910 C   0  0  0  0  0  0  0  0  0  0  0  0
    0.6400    9.9500   -0.0200 C   0  0  0  0  0  0  0  0  0  0  0  0
    0.8100   14.3720   -2.8250 C   0  0  1  0  0  0  0  0  0  0  0  0
    0.1260   13.9330   -4.1560 C   0  0  0  0  0  0  0  0  0  0  0  0
    1.8260   15.5140   -3.2030 C   0  0  0  0  0  0  0  0  0  0  0  0
    2.1670   16.5340   -2.1000 C   0  0  0  0  0  0  0  0  0  0  0  0
    0.8950   17.0750   -1.4410 C   0  0  2  0  0  0  0  0  0  0  0  0
    0.0740   17.8350   -2.5380 C   0  0  0  0  0  0  0  0  0  0  0  0
    2.9665   19.9057   -2.0630 H   0  0  0  0  0  0  0  0  0  0  0  0
    1.7952   18.6180   -2.5062 H   0  0  0  0  0  0  0  0  0  0  0  0
    1.2805   20.3390   -2.5062 H   0  0  0  0  0  0  0  0  0  0  0  0
    0.6393   20.1375   -0.3806 H   0  0  0  0  0  0  0  0  0  0  0  0
    3.2725   20.6127   -0.1088 H   0  0  0  0  0  0  0  0  0  0  0  0
    2.1243   20.3734    1.2937 H   0  0  0  0  0  0  0  0  0  0  0  0
    2.9190   17.8114    0.8072 H   0  0  0  0  0  0  0  0  0  0  0  0
    4.4173   18.7473    0.3990 H   0  0  0  0  0  0  0  0  0  0  0  0
    2.9482   18.2456    2.6838 H   0  0  0  0  0  0  0  0  0  0  0  0
    7.2957   19.0617    2.6514 H   0  0  0  0  0  0  0  0  0  0  0  0
    6.3516   18.1659    1.4133 H   0  0  0  0  0  0  0  0  0  0  0  0
    6.3561   19.9622    1.4133 H   0  0  0  0  0  0  0  0  0  0  0  0
    4.9050   19.4422    5.0348 H   0  0  0  0  0  0  0  0  0  0  0  0
    5.0777   17.7091    4.5952 H   0  0  0  0  0  0  0  0  0  0  0  0
    6.5173   18.7835    4.5952 H   0  0  0  0  0  0  0  0  0  0  0  0
    1.9559   17.7119    0.3593 H   0  0  0  0  0  0  0  0  0  0  0  0
   -0.1185   17.8761    1.5858 H   0  0  0  0  0  0  0  0  0  0  0  0
   -0.8929   18.8276    0.3010 H   0  0  0  0  0  0  0  0  0  0  0  0
   -1.3613   16.0585    0.8287 H   0  0  0  0  0  0  0  0  0  0  0  0
   -1.8376   16.8744   -0.6583 H   0  0  0  0  0  0  0  0  0  0  0  0
    0.5786   15.4748    1.3419 H   0  0  0  0  0  0  0  0  0  0  0  0
    0.8013   14.0602    0.2574 H   0  0  0  0  0  0  0  0  0  0  0  0
    2.0081   15.3908    0.2574 H   0  0  0  0  0  0  0  0  0  0  0  0
   -1.0053   15.5161   -2.4839 H   0  0  0  0  0  0  0  0  0  0  0  0
   -1.7828   14.0725   -0.4953 H   0  0  0  0  0  0  0  0  0  0  0  0
   -1.8599   13.4369   -2.2211 H   0  0  0  0  0  0  0  0  0  0  0  0
   -1.0225   11.7378   -0.3895 H   0  0  0  0  0  0  0  0  0  0  0  0
    2.3379   13.6544   -1.5425 H   0  0  0  0  0  0  0  0  0  0  0  0
    1.6197   11.8573   -3.9412 H   0  0  0  0  0  0  0  0  0  0  0  0
    3.0314   12.9983   -3.8155 H   0  0  0  0  0  0  0  0  0  0  0  0
    3.6988   10.6409   -3.4678 H   0  0  0  0  0  0  0  0  0  0  0  0
    3.9791   11.6756   -2.0133 H   0  0  0  0  0  0  0  0  0  0  0  0
    3.0556    9.5793   -1.3010 H   0  0  0  0  0  0  0  0  0  0  0  0
    1.5770    9.9220   -3.5720 H   0  0  0  0  0  0  0  0  0  0  0  0
    2.1060   11.2860    1.3829 H   0  0  0  0  0  0  0  0  0  0  0  0
    3.5002   11.0094    0.2845 H   0  0  0  0  0  0  0  0  0  0  0  0
    2.6577   12.5959    0.2845 H   0  0  0  0  0  0  0  0  0  0  0  0
    0.7254   10.0470    1.0724 H   0  0  0  0  0  0  0  0  0  0  0  0
   -0.4029   10.1241   -0.3232 H   0  0  0  0  0  0  0  0  0  0  0  0
    0.9459    8.9378   -0.3232 H   0  0  0  0  0  0  0  0  0  0  0  0
   -0.7797   13.3517   -3.9284 H   0  0  0  0  0  0  0  0  0  0  0  0
   -0.1475   14.8247   -4.7392 H   0  0  0  0  0  0  0  0  0  0  0  0
    0.8227   13.3130   -4.7392 H   0  0  0  0  0  0  0  0  0  0  0  0
    2.7655   15.0339   -3.5141 H   0  0  0  0  0  0  0  0  0  0  0  0
    1.3238   16.0973   -3.9889 H   0  0  0  0  0  0  0  0  0  0  0  0
    2.7875   16.0434   -1.3356 H   0  0  0  0  0  0  0  0  0  0  0  0
    2.7105   17.3747   -2.5558 H   0  0  0  0  0  0  0  0  0  0  0  0
   -0.6510   18.5061   -2.0542 H   0  0  0  0  0  0  0  0  0  0  0  0
    0.7584   18.4253   -3.1650 H   0  0  0  0  0  0  0  0  0  0  0  0
   -0.4618   17.1071   -3.1650 H   0  0  0  0  0  0  0  0  0  0  0  0
  1  2  1  0
  2  3  1  0
  3  4  1  0
  4  5  1  0
  5  6  1  0
  6  7  1  0
  7  8  1  0
  7  9  1  0
  2 10  1  0
 10 11  1  0
 11 12  1  0
 12 13  1  0
 13 14  1  1
 13 15  1  0
 15 16  1  0
 16 17  1  0
 17 18  2  0
 18 19  1  0
 19 20  1  0
 20 21  1  0
 21 22  1  0
 22 23  1  0
 22 24  1  0
 24 25  1  0
 24 26  1  0
 19 27  1  0
 27 28  1  6
 27 29  1  0
 29 30  1  0
 30 31  1  0
 31 32  1  6
  7  5  1  0
 31 10  1  0
 31 13  1  0
 27 15  1  0
 24 18  1  0
  1 33  1  0
  1 34  1  0
  1 35  1  0
  2 36  1  6
  3 37  1  0
  3 38  1  0
  4 39  1  0
  4 40  1  0
  5 41  1  1
  8 42  1  0
  8 43  1  0
  8 44  1  0
  9 45  1  0
  9 46  1  0
  9 47  1  0
 10 48  1  1
 11 49  1  0
 11 50  1  0
 12 51  1  0
 12 52  1  0
 14 53  1  0
 14 54  1  0
 14 55  1  0
 15 56  1  6
 16 57  1  0
 16 58  1  0
 17 59  1  0
 19 60  1  1
 20 61  1  0
 20 62  1  0
 21 63  1  0
 21 64  1  0
 22 65  1  1
 23 66  1  0
 25 67  1  0
 25 68  1  0
 25 69  1  0
 26 70  1  0
 26 71  1  0
 26 72  1  0
 28 73  1  0
 28 74  1  0
 28 75  1  0
 29 76  1  0
 29 77  1  0
 30 78  1  0
 30 79  1  0
 32 80  1  0
 32 81  1  0
 32 82  1  0
M  END
>  <meeko>  (6) 
{"is_sidechain": [false], "intermolecular_energy": 2.731, "internal_energy": -0.839}

$$$$
EPH_relaxed_0001_pdb2pqr_Repair_113_r2_0001_out
     RDKit          3D

 82 86  0  0  0  0  0  0  0  0999 V2000
    0.4290    8.8740   -2.3610 C   0  0  0  0  0  0  0  0  0  0  0  0
    1.1830   10.0050   -3.0660 C   0  0  2  0  0  0  0  0  0  0  0  0
    2.6810   10.0200   -2.7020 C   0  0  0  0  0  0  0  0  0  0  0  0
    3.5730   10.6210   -3.7920 C   0  0  0  0  0  0  0  0  0  0  0  0
    4.9750   10.8320   -3.3060 C   0  0  2  0  0  0  0  0  0  0  0  0
    5.5910   12.0440   -3.7630 O   0  0  0  0  0  0  0  0  0  0  0  0
    6.1880   10.8200   -4.2190 C   0  0  0  0  0  0  0  0  0  0  0  0
    6.0540   10.5890   -5.6910 C   0  0  0  0  0  0  0  0  0  0  0  0
    7.5320   10.5440   -3.6190 C   0  0  0  0  0  0  0  0  0  0  0  0
    0.5490   11.3470   -2.7200 C   0  0  1  0  0  0  0  0  0  0  0  0
   -0.8550   11.1970   -2.0770 C   0  0  0  0  0  0  0  0  0  0  0  0
   -0.9940   12.3360   -1.0340 C   0  0  0  0  0  0  0  0  0  0  0  0
    0.1820   13.2920   -1.3420 C   0  0  1  0  0  0  0  0  0  0  0  0
   -0.3110   14.1600   -2.5420 C   0  0  0  0  0  0  0  0  0  0  0  0
    0.6800   14.1790   -0.1540 C   0  0  2  0  0  0  0  0  0  0  0  0
   -0.3590   15.1690    0.4010 C   0  0  0  0  0  0  0  0  0  0  0  0
   -0.3590   16.5180   -0.2380 C   0  0  0  0  0  0  0  0  0  0  0  0
    0.6200   17.0150   -1.0160 C   0  0  0  0  0  0  0  0  0  0  0  0
    1.9200   16.2320   -1.2430 C   0  0  1  0  0  0  0  0  0  0  0  0
    3.1340   17.1820   -1.0640 C   0  0  0  0  0  0  0  0  0  0  0  0
    3.0390   18.4240   -1.9450 C   0  0  0  0  0  0  0  0  0  0  0  0
    1.7620   19.2060   -1.6490 C   0  0  2  0  0  0  0  0  0  0  0  0
    1.8460   19.7410   -0.3250 O   0  0  0  0  0  0  0  0  0  0  0  0
    0.4730   18.3500   -1.7870 C   0  0  0  0  0  0  0  0  0  0  0  0
    0.2230   18.0230   -3.2800 C   0  0  0  0  0  0  0  0  0  0  0  0
   -0.7290   19.2180   -1.3260 C   0  0  0  0  0  0  0  0  0  0  0  0
    2.0720   14.8850   -0.4130 C   0  0  1  0  0  0  0  0  0  0  0  0
    2.6840   15.1900    0.9890 C   0  0  0  0  0  0  0  0  0  0  0  0
    3.0950   13.9410   -1.1490 C   0  0  0  0  0  0  0  0  0  0  0  0
    2.5220   13.0040   -2.2290 C   0  0  0  0  0  0  0  0  0  0  0  0
    1.2980   12.2460   -1.7040 C   0  0  2  0  0  0  0  0  0  0  0  0
    1.7670   11.3470   -0.5100 C   0  0  0  0  0  0  0  0  0  0  0  0
    0.5133    9.0005   -1.2716 H   0  0  0  0  0  0  0  0  0  0  0  0
   -0.6313    8.9027   -2.6525 H   0  0  0  0  0  0  0  0  0  0  0  0
    0.8633    7.9063   -2.6525 H   0  0  0  0  0  0  0  0  0  0  0  0
    1.1088    9.8271   -4.1490 H   0  0  0  0  0  0  0  0  0  0  0  0
    2.8093   10.6110   -1.7832 H   0  0  0  0  0  0  0  0  0  0  0  0
    2.9913    8.9725   -2.5738 H   0  0  0  0  0  0  0  0  0  0  0  0
    3.5933    9.9373   -4.6534 H   0  0  0  0  0  0  0  0  0  0  0  0
    3.1571   11.5991   -4.0753 H   0  0  0  0  0  0  0  0  0  0  0  0
    4.7536   10.3058   -2.3657 H   0  0  0  0  0  0  0  0  0  0  0  0
    5.5091    9.6497   -5.8666 H   0  0  0  0  0  0  0  0  0  0  0  0
    5.5003   11.4244   -6.1443 H   0  0  0  0  0  0  0  0  0  0  0  0
    7.0541   10.5231   -6.1443 H   0  0  0  0  0  0  0  0  0  0  0  0
    7.4540   10.5600   -2.5219 H   0  0  0  0  0  0  0  0  0  0  0  0
    7.8839    9.5548   -3.9472 H   0  0  0  0  0  0  0  0  0  0  0  0
    8.2453   11.3144   -3.9472 H   0  0  0  0  0  0  0  0  0  0  0  0
    0.5556   11.8158   -3.7151 H   0  0  0  0  0  0  0  0  0  0  0  0
   -1.6358   11.2905   -2.8462 H   0  0  0  0  0  0  0  0  0  0  0  0
   -0.9685   10.2112   -1.6024 H   0  0  0  0  0  0  0  0  0  0  0  0
   -1.9570   12.8545   -1.1512 H   0  0  0  0  0  0  0  0  0  0  0  0
   -0.9671   11.9609   -0.0003 H   0  0  0  0  0  0  0  0  0  0  0  0
   -0.8206   15.0572   -2.1606 H   0  0  0  0  0  0  0  0  0  0  0  0
    0.5510   14.4608   -3.1555 H   0  0  0  0  0  0  0  0  0  0  0  0
   -1.0109   13.5737   -3.1555 H   0  0  0  0  0  0  0  0  0  0  0  0
    0.8413   13.4385    0.6433 H   0  0  0  0  0  0  0  0  0  0  0  0
   -1.3570   14.7274    0.2628 H   0  0  0  0  0  0  0  0  0  0  0  0
   -0.0915   15.3317    1.4555 H   0  0  0  0  0  0  0  0  0  0  0  0
   -1.2335   17.1604   -0.0576 H   0  0  0  0  0  0  0  0  0  0  0  0
    1.8794   15.8688   -2.2805 H   0  0  0  0  0  0  0  0  0  0  0  0
    3.1819   17.4988   -0.0117 H   0  0  0  0  0  0  0  0  0  0  0  0
    4.0374   16.6295   -1.3616 H   0  0  0  0  0  0  0  0  0  0  0  0
    3.9090   19.0691   -1.7528 H   0  0  0  0  0  0  0  0  0  0  0  0
    3.0206   18.1070   -2.9982 H   0  0  0  0  0  0  0  0  0  0  0  0
    1.6856   20.0086   -2.3974 H   0  0  0  0  0  0  0  0  0  0  0  0
    1.6220   19.0260    0.2950 H   0  0  0  0  0  0  0  0  0  0  0  0
   -0.4434   17.1513   -3.3578 H   0  0  0  0  0  0  0  0  0  0  0  0
   -0.2461   18.8882   -3.7713 H   0  0  0  0  0  0  0  0  0  0  0  0
    1.1809   17.7972   -3.7713 H   0  0  0  0  0  0  0  0  0  0  0  0
   -0.7632   19.2427   -0.2268 H   0  0  0  0  0  0  0  0  0  0  0  0
   -0.6119   20.2413   -1.7123 H   0  0  0  0  0  0  0  0  0  0  0  0
   -1.6635   18.7850   -1.7123 H   0  0  0  0  0  0  0  0  0  0  0  0
    1.9936   14.8459    1.7732 H   0  0  0  0  0  0  0  0  0  0  0  0
    3.6456   14.6657    1.0912 H   0  0  0  0  0  0  0  0  0  0  0  0
    2.8444   16.2734    1.0912 H   0  0  0  0  0  0  0  0  0  0  0  0
    3.8509   14.5796   -1.6294 H   0  0  0  0  0  0  0  0  0  0  0  0
    3.4854   13.2737   -0.3665 H   0  0  0  0  0  0  0  0  0  0  0  0
    2.2271   13.6015   -3.1042 H   0  0  0  0  0  0  0  0  0  0  0  0
    3.2957   12.2725   -2.5052 H   0  0  0  0  0  0  0  0  0  0  0  0
    1.5111   11.8374    0.4408 H   0  0  0  0  0  0  0  0  0  0  0  0
    1.2633   10.3707   -0.5662 H   0  0  0  0  0  0  0  0  0  0  0  0
    2.8559   11.2016   -0.5662 H   0  0  0  0  0  0  0  0  0  0  0  0
  1  2  1  0
  2  3  1  0
  3  4  1  0
  4  5  1  0
  5  6  1  0
  6  7  1  0
  7  8  1  0
  7  9  1  0
  2 10  1  0
 10 11  1  0
 11 12  1  0
 12 13  1  0
 13 14  1  6
 13 15  1  0
 15 16  1  0
 16 17  1  0
 17 18  2  0
 18 19  1  0
 19 20  1  0
 20 21  1  0
 21 22  1  0
 22 23  1  0
 22 24  1  0
 24 25  1  0
 24 26  1  0
 19 27  1  0
 27 28  1  1
 27 29  1  0
 29 30  1  0
 30 31  1  0
 31 32  1  1
  7  5  1  0
 31 10  1  0
 31 13  1  0
 27 15  1  0
 24 18  1  0
  1 33  1  0
  1 34  1  0
  1 35  1  0
  2 36  1  6
  3 37  1  0
  3 38  1  0
  4 39  1  0
  4 40  1  0
  5 41  1  1
  8 42  1  0
  8 43  1  0
  8 44  1  0
  9 45  1  0
  9 46  1  0
  9 47  1  0
 10 48  1  6
 11 49  1  0
 11 50  1  0
 12 51  1  0
 12 52  1  0
 14 53  1  0
 14 54  1  0
 14 55  1  0
 15 56  1  1
 16 57  1  0
 16 58  1  0
 17 59  1  0
 19 60  1  6
 20 61  1  0
 20 62  1  0
 21 63  1  0
 21 64  1  0
 22 65  1  6
 23 66  1  0
 25 67  1  0
 25 68  1  0
 25 69  1  0
 26 70  1  0
 26 71  1  0
 26 72  1  0
 28 73  1  0
 28 74  1  0
 28 75  1  0
 29 76  1  0
 29 77  1  0
 30 78  1  0
 30 79  1  0
 32 80  1  0
 32 81  1  0
 32 82  1  0
M  END
>  <meeko>  (7) 
{"is_sidechain": [false], "intermolecular_energy": 2.731, "internal_energy": -0.839}

$$$$
EPH_relaxed_0001_pdb2pqr_Repair_113_r2_0001_out
     RDKit          3D

 82 86  0  0  0  0  0  0  0  0999 V2000
    2.5930   19.2210   -1.0530 C   0  0  0  0  0  0  0  0  0  0  0  0
    2.3780   18.1900   -2.1650 C   0  0  2  0  0  0  0  0  0  0  0  0
    0.9540   18.2550   -2.7500 C   0  0  0  0  0  0  0  0  0  0  0  0
    0.1580   19.4830   -2.2980 C   0  0  0  0  0  0  0  0  0  0  0  0
   -1.0900   19.0940   -1.5650 C   0  0  2  0  0  0  0  0  0  0  0  0
   -1.9250   20.1940   -1.1800 O   0  0  0  0  0  0  0  0  0  0  0  0
   -1.3450   19.4340   -0.1080 C   0  0  0  0  0  0  0  0  0  0  0  0
   -0.3420   20.1930    0.7030 C   0  0  0  0  0  0  0  0  0  0  0  0
   -2.3370   18.6140    0.6550 C   0  0  0  0  0  0  0  0  0  0  0  0
    2.6610   16.7890   -1.6370 C   0  0  1  0  0  0  0  0  0  0  0  0
    3.4770   16.8010   -0.3170 C   0  0  0  0  0  0  0  0  0  0  0  0
    2.9700   15.6080    0.5340 C   0  0  0  0  0  0  0  0  0  0  0  0
    2.1270   14.7600   -0.4470 C   0  0  1  0  0  0  0  0  0  0  0  0
    3.1680   13.9130   -1.2420 C   0  0  0  0  0  0  0  0  0  0  0  0
    1.0190   13.8610    0.1940 C   0  0  2  0  0  0  0  0  0  0  0  0
    1.5360   12.7700    1.1470 C   0  0  0  0  0  0  0  0  0  0  0  0
    1.8390   11.4550    0.5080 C   0  0  0  0  0  0  0  0  0  0  0  0
    1.4380   11.0710   -0.7180 C   0  0  0  0  0  0  0  0  0  0  0  0
    0.5130   11.9610   -1.5590 C   0  0  1  0  0  0  0  0  0  0  0  0
   -0.6310   11.1000   -2.1570 C   0  0  0  0  0  0  0  0  0  0  0  0
   -0.1110    9.8960   -2.9370 C   0  0  0  0  0  0  0  0  0  0  0  0
    0.7550    9.0050   -2.0510 C   0  0  2  0  0  0  0  0  0  0  0  0
   -0.0700    8.4190   -1.0390 O   0  0  0  0  0  0  0  0  0  0  0  0
    1.9370    9.7660   -1.3860 C   0  0  0  0  0  0  0  0  0  0  0  0
    2.9860   10.1410   -2.4610 C   0  0  0  0  0  0  0  0  0  0  0  0
    2.6450    8.7880   -0.4100 C   0  0  0  0  0  0  0  0  0  0  0  0
   -0.0210   13.2760   -0.8450 C   0  0  1  0  0  0  0  0  0  0  0  0
   -1.3190   12.9560   -0.0430 C   0  0  0  0  0  0  0  0  0  0  0  0
   -0.4260   14.3290   -1.9440 C   0  0  0  0  0  0  0  0  0  0  0  0
    0.6850   15.2680   -2.4500 C   0  0  0  0  0  0  0  0  0  0  0  0
    1.4400   15.9040   -1.2790 C   0  0  2  0  0  0  0  0  0  0  0  0
    0.4230   16.7810   -0.4720 C   0  0  0  0  0  0  0  0  0  0  0  0
    2.4908   18.7307   -0.0736 H   0  0  0  0  0  0  0  0  0  0  0  0
    3.6006   19.6530   -1.1434 H   0  0  0  0  0  0  0  0  0  0  0  0
    1.8421   20.0197   -1.1434 H   0  0  0  0  0  0  0  0  0  0  0  0
    3.0795   18.4294   -2.9778 H   0  0  0  0  0  0  0  0  0  0  0  0
    1.0299   18.2749   -3.8472 H   0  0  0  0  0  0  0  0  0  0  0  0
    0.4148   17.3694   -2.3826 H   0  0  0  0  0  0  0  0  0  0  0  0
    0.7879   20.0912   -1.6321 H   0  0  0  0  0  0  0  0  0  0  0  0
   -0.1328   20.0524   -3.1931 H   0  0  0  0  0  0  0  0  0  0  0  0
   -1.1522   18.1486   -2.1239 H   0  0  0  0  0  0  0  0  0  0  0  0
   -0.5444   20.0398    1.7733 H   0  0  0  0  0  0  0  0  0  0  0  0
    0.6698   19.8323    0.4659 H   0  0  0  0  0  0  0  0  0  0  0  0
   -0.4142   21.2647    0.4659 H   0  0  0  0  0  0  0  0  0  0  0  0
   -2.1725   18.7500    1.7341 H   0  0  0  0  0  0  0  0  0  0  0  0
   -3.3562   18.9368    0.3959 H   0  0  0  0  0  0  0  0  0  0  0  0
   -2.2117   17.5523    0.3959 H   0  0  0  0  0  0  0  0  0  0  0  0
    3.1897   16.3683   -2.5050 H   0  0  0  0  0  0  0  0  0  0  0  0
    4.5490   16.6832   -0.5334 H   0  0  0  0  0  0  0  0  0  0  0  0
    3.3459   17.7524    0.2194 H   0  0  0  0  0  0  0  0  0  0  0  0
    3.8154   15.0231    0.9255 H   0  0  0  0  0  0  0  0  0  0  0  0
    2.3884   15.9362    1.4081 H   0  0  0  0  0  0  0  0  0  0  0  0
    3.8227   13.3803   -0.5366 H   0  0  0  0  0  0  0  0  0  0  0  0
    2.6409   13.1840   -1.8750 H   0  0  0  0  0  0  0  0  0  0  0  0
    3.7745   14.5774   -1.8750 H   0  0  0  0  0  0  0  0  0  0  0  0
    0.4710   14.5748    0.8265 H   0  0  0  0  0  0  0  0  0  0  0  0
    2.4589   13.1396    1.6178 H   0  0  0  0  0  0  0  0  0  0  0  0
    0.7217   12.5801    1.8618 H   0  0  0  0  0  0  0  0  0  0  0  0
    2.4406   10.7398    1.0881 H   0  0  0  0  0  0  0  0  0  0  0  0
    1.1360   12.3676   -2.3692 H   0  0  0  0  0  0  0  0  0  0  0  0
   -1.2675   10.7397   -1.3354 H   0  0  0  0  0  0  0  0  0  0  0  0
   -1.1944   11.7337   -2.8577 H   0  0  0  0  0  0  0  0  0  0  0  0
   -0.9655    9.3119   -3.3093 H   0  0  0  0  0  0  0  0  0  0  0  0
    0.5014   10.2588   -3.7756 H   0  0  0  0  0  0  0  0  0  0  0  0
    1.2014    8.2332   -2.6953 H   0  0  0  0  0  0  0  0  0  0  0  0
    0.4920    7.8330   -0.5040 H   0  0  0  0  0  0  0  0  0  0  0  0
    3.9126   10.4722   -1.9693 H   0  0  0  0  0  0  0  0  0  0  0  0
    3.1977    9.2629   -3.0888 H   0  0  0  0  0  0  0  0  0  0  0  0
    2.5931   10.9543   -3.0888 H   0  0  0  0  0  0  0  0  0  0  0  0
    2.4299    9.0851    0.6270 H   0  0  0  0  0  0  0  0  0  0  0  0
    2.2759    7.7663   -0.5828 H   0  0  0  0  0  0  0  0  0  0  0  0
    3.7309    8.8196   -0.5828 H   0  0  0  0  0  0  0  0  0  0  0  0
   -1.1063   13.0084    1.0350 H   0  0  0  0  0  0  0  0  0  0  0  0
   -2.0983   13.6889   -0.2990 H   0  0  0  0  0  0  0  0  0  0  0  0
   -1.6683   11.9448   -0.2990 H   0  0  0  0  0  0  0  0  0  0  0  0
   -0.8121   13.7731   -2.8111 H   0  0  0  0  0  0  0  0  0  0  0  0
   -1.1586   14.9878   -1.4548 H   0  0  0  0  0  0  0  0  0  0  0  0
    1.3925   14.6908   -3.0634 H   0  0  0  0  0  0  0  0  0  0  0  0
    0.2232   16.0688   -3.0462 H   0  0  0  0  0  0  0  0  0  0  0  0
    0.5895   16.6374    0.6058 H   0  0  0  0  0  0  0  0  0  0  0  0
    0.5693   17.8408   -0.7276 H   0  0  0  0  0  0  0  0  0  0  0  0
   -0.6038   16.4805   -0.7276 H   0  0  0  0  0  0  0  0  0  0  0  0
  1  2  1  0
  2  3  1  0
  3  4  1  0
  4  5  1  0
  5  6  1  0
  6  7  1  0
  7  8  1  0
  7  9  1  0
  2 10  1  0
 10 11  1  0
 11 12  1  0
 12 13  1  0
 13 14  1  6
 13 15  1  0
 15 16  1  0
 16 17  1  0
 17 18  2  0
 18 19  1  0
 19 20  1  0
 20 21  1  0
 21 22  1  0
 22 23  1  0
 22 24  1  0
 24 25  1  0
 24 26  1  0
 19 27  1  0
 27 28  1  1
 27 29  1  0
 29 30  1  0
 30 31  1  0
 31 32  1  1
  7  5  1  0
 31 10  1  0
 31 13  1  0
 27 15  1  0
 24 18  1  0
  1 33  1  0
  1 34  1  0
  1 35  1  0
  2 36  1  6
  3 37  1  0
  3 38  1  0
  4 39  1  0
  4 40  1  0
  5 41  1  1
  8 42  1  0
  8 43  1  0
  8 44  1  0
  9 45  1  0
  9 46  1  0
  9 47  1  0
 10 48  1  6
 11 49  1  0
 11 50  1  0
 12 51  1  0
 12 52  1  0
 14 53  1  0
 14 54  1  0
 14 55  1  0
 15 56  1  1
 16 57  1  0
 16 58  1  0
 17 59  1  0
 19 60  1  6
 20 61  1  0
 20 62  1  0
 21 63  1  0
 21 64  1  0
 22 65  1  6
 23 66  1  0
 25 67  1  0
 25 68  1  0
 25 69  1  0
 26 70  1  0
 26 71  1  0
 26 72  1  0
 28 73  1  0
 28 74  1  0
 28 75  1  0
 29 76  1  0
 29 77  1  0
 30 78  1  0
 30 79  1  0
 32 80  1  0
 32 81  1  0
 32 82  1  0
M  END
>  <meeko>  (8) 
{"is_sidechain": [false], "intermolecular_energy": 2.731, "internal_energy": -0.839}

$$$$
EPH_relaxed_0001_pdb2pqr_Repair_113_r2_0001_out
     RDKit          3D

 82 86  0  0  0  0  0  0  0  0999 V2000
   -1.8190   14.7980    0.2850 C   0  0  0  0  0  0  0  0  0  0  0  0
   -0.4740   15.5190    0.1600 C   0  0  2  0  0  0  0  0  0  0  0  0
   -0.4770   16.5620   -0.9760 C   0  0  0  0  0  0  0  0  0  0  0  0
   -0.0720   17.9670   -0.5230 C   0  0  0  0  0  0  0  0  0  0  0  0
    1.3540   18.0100   -0.0620 C   0  0  2  0  0  0  0  0  0  0  0  0
    2.0440   19.2300   -0.3640 O   0  0  0  0  0  0  0  0  0  0  0  0
    2.5390   18.0450   -1.0080 C   0  0  0  0  0  0  0  0  0  0  0  0
    2.3520   18.0360   -2.4930 C   0  0  0  0  0  0  0  0  0  0  0  0
    3.8730   17.5950   -0.5000 C   0  0  0  0  0  0  0  0  0  0  0  0
    0.6410   14.5050   -0.0670 C   0  0  1  0  0  0  0  0  0  0  0  0
    0.7650   13.4840    1.0950 C   0  0  0  0  0  0  0  0  0  0  0  0
    1.1800   12.1310    0.4600 C   0  0  0  0  0  0  0  0  0  0  0  0
    1.6010   12.4920   -0.9840 C   0  0  1  0  0  0  0  0  0  0  0  0
    3.0630   13.0230   -0.8550 C   0  0  0  0  0  0  0  0  0  0  0  0
    1.4950   11.3440   -2.0410 C   0  0  2  0  0  0  0  0  0  0  0  0
    2.3950   10.1260   -1.7750 C   0  0  0  0  0  0  0  0  0  0  0  0
    3.7530   10.1890   -2.3920 C   0  0  0  0  0  0  0  0  0  0  0  0
    4.1320   11.0420   -3.3610 C   0  0  0  0  0  0  0  0  0  0  0  0
    3.1240   12.0030   -4.0040 C   0  0  1  0  0  0  0  0  0  0  0  0
    3.2830   11.9640   -5.5470 C   0  0  0  0  0  0  0  0  0  0  0  0
    4.7150   12.2370   -5.9950 C   0  0  0  0  0  0  0  0  0  0  0  0
    5.6810   11.2260   -5.3810 C   0  0  2  0  0  0  0  0  0  0  0  0
    5.4000    9.9330   -5.9250 O   0  0  0  0  0  0  0  0  0  0  0  0
    5.6030   11.1690   -3.8290 C   0  0  0  0  0  0  0  0  0  0  0  0
    6.1940   12.4700   -3.2310 C   0  0  0  0  0  0  0  0  0  0  0  0
    6.5220   10.0130   -3.3480 C   0  0  0  0  0  0  0  0  0  0  0  0
    1.6130   11.8330   -3.5420 C   0  0  1  0  0  0  0  0  0  0  0  0
    0.9060   10.7540   -4.4180 C   0  0  0  0  0  0  0  0  0  0  0  0
    0.8430   13.1830   -3.7940 C   0  0  0  0  0  0  0  0  0  0  0  0
    0.8860   14.2290   -2.6640 C   0  0  0  0  0  0  0  0  0  0  0  0
    0.5300   13.5940   -1.3160 C   0  0  2  0  0  0  0  0  0  0  0  0
   -0.9440   13.0700   -1.4080 C   0  0  0  0  0  0  0  0  0  0  0  0
   -2.0665   14.6653    1.3486 H   0  0  0  0  0  0  0  0  0  0  0  0
   -2.6027   15.3969   -0.2019 H   0  0  0  0  0  0  0  0  0  0  0  0
   -1.7541   13.8138   -0.2019 H   0  0  0  0  0  0  0  0  0  0  0  0
   -0.2995   16.0583    1.1027 H   0  0  0  0  0  0  0  0  0  0  0  0
    0.2278   16.2311   -1.7530 H   0  0  0  0  0  0  0  0  0  0  0  0
   -1.5102   16.6295   -1.3474 H   0  0  0  0  0  0  0  0  0  0  0  0
   -0.1956   18.6630   -1.3658 H   0  0  0  0  0  0  0  0  0  0  0  0
   -0.7150   18.2541    0.3220 H   0  0  0  0  0  0  0  0  0  0  0  0
    1.1185   17.3707    0.8016 H   0  0  0  0  0  0  0  0  0  0  0  0
    1.2784   17.9843   -2.7271 H   0  0  0  0  0  0  0  0  0  0  0  0
    2.7769   18.9556   -2.9216 H   0  0  0  0  0  0  0  0  0  0  0  0
    2.8632   17.1614   -2.9216 H   0  0  0  0  0  0  0  0  0  0  0  0
    3.8663   17.5973    0.6000 H   0  0  0  0  0  0  0  0  0  0  0  0
    4.0795   16.5775   -0.8633 H   0  0  0  0  0  0  0  0  0  0  0  0
    4.6537   18.2795   -0.8633 H   0  0  0  0  0  0  0  0  0  0  0  0
    1.4947   15.1901   -0.1755 H   0  0  0  0  0  0  0  0  0  0  0  0
    1.5305   13.8167    1.8115 H   0  0  0  0  0  0  0  0  0  0  0  0
   -0.1856   13.3891    1.6403 H   0  0  0  0  0  0  0  0  0  0  0  0
    2.0219   11.6855    1.0103 H   0  0  0  0  0  0  0  0  0  0  0  0
    0.3666   11.3909    0.4852 H   0  0  0  0  0  0  0  0  0  0  0  0
    3.3259   13.1185    0.2088 H   0  0  0  0  0  0  0  0  0  0  0  0
    3.7534   12.3182   -1.3415 H   0  0  0  0  0  0  0  0  0  0  0  0
    3.1401   14.0066   -1.3415 H   0  0  0  0  0  0  0  0  0  0  0  0
    0.4636   10.9886   -1.9001 H   0  0  0  0  0  0  0  0  0  0  0  0
    2.5205   10.0275   -0.6866 H   0  0  0  0  0  0  0  0  0  0  0  0
    1.8893    9.2669   -2.2400 H   0  0  0  0  0  0  0  0  0  0  0  0
    4.5072    9.4782   -2.0233 H   0  0  0  0  0  0  0  0  0  0  0  0
    3.3767   13.0054   -3.6280 H   0  0  0  0  0  0  0  0  0  0  0  0
    2.9848   10.9683   -5.9071 H   0  0  0  0  0  0  0  0  0  0  0  0
    2.6451   12.7550   -5.9682 H   0  0  0  0  0  0  0  0  0  0  0  0
    4.7689   12.1664   -7.0914 H   0  0  0  0  0  0  0  0  0  0  0  0
    5.0016   13.2448   -5.6600 H   0  0  0  0  0  0  0  0  0  0  0  0
    6.7021   11.5494   -5.6316 H   0  0  0  0  0  0  0  0  0  0  0  0
    5.4500    9.2900   -5.1960 H   0  0  0  0  0  0  0  0  0  0  0  0
    6.1683   12.4134   -2.1328 H   0  0  0  0  0  0  0  0  0  0  0  0
    7.2344   12.5888   -3.5678 H   0  0  0  0  0  0  0  0  0  0  0  0
    5.5990   13.3317   -3.5678 H   0  0  0  0  0  0  0  0  0  0  0  0
    6.5391    9.9915   -2.2483 H   0  0  0  0  0  0  0  0  0  0  0  0
    6.1358    9.0555   -3.7275 H   0  0  0  0  0  0  0  0  0  0  0  0
    7.5419   10.1733   -3.7275 H   0  0  0  0  0  0  0  0  0  0  0  0
    0.4204   10.0130   -3.7660 H   0  0  0  0  0  0  0  0  0  0  0  0
    0.1482   11.2362   -5.0530 H   0  0  0  0  0  0  0  0  0  0  0  0
    1.6506   10.2517   -5.0530 H   0  0  0  0  0  0  0  0  0  0  0  0
    1.2720   13.6477   -4.6940 H   0  0  0  0  0  0  0  0  0  0  0  0
   -0.2158   12.8981   -3.8821 H   0  0  0  0  0  0  0  0  0  0  0  0
    1.8988   14.6541   -2.6054 H   0  0  0  0  0  0  0  0  0  0  0  0
    0.1506   15.0163   -2.8863 H   0  0  0  0  0  0  0  0  0  0  0  0
   -1.3463   12.9270   -0.3942 H   0  0  0  0  0  0  0  0  0  0  0  0
   -1.5610   13.8039   -1.9472 H   0  0  0  0  0  0  0  0  0  0  0  0
   -0.9594   12.1113   -1.9472 H   0  0  0  0  0  0  0  0  0  0  0  0
  1  2  1  0
  2  3  1  0
  3  4  1  0
  4  5  1  0
  5  6  1  0
  6  7  1  0
  7  8  1  0
  7  9  1  0
  2 10  1  0
 10 11  1  0
 11 12  1  0
 12 13  1  0
 13 14  1  1
 13 15  1  0
 15 16  1  0
 16 17  1  0
 17 18  2  0
 18 19  1  0
 19 20  1  0
 20 21  1  0
 21 22  1  0
 22 23  1  0
 22 24  1  0
 24 25  1  0
 24 26  1  0
 19 27  1  0
 27 28  1  6
 27 29  1  0
 29 30  1  0
 30 31  1  0
 31 32  1  6
  7  5  1  0
 31 10  1  0
 31 13  1  0
 27 15  1  0
 24 18  1  0
  1 33  1  0
  1 34  1  0
  1 35  1  0
  2 36  1  1
  3 37  1  0
  3 38  1  0
  4 39  1  0
  4 40  1  0
  5 41  1  1
  8 42  1  0
  8 43  1  0
  8 44  1  0
  9 45  1  0
  9 46  1  0
  9 47  1  0
 10 48  1  6
 11 49  1  0
 11 50  1  0
 12 51  1  0
 12 52  1  0
 14 53  1  0
 14 54  1  0
 14 55  1  0
 15 56  1  6
 16 57  1  0
 16 58  1  0
 17 59  1  0
 19 60  1  1
 20 61  1  0
 20 62  1  0
 21 63  1  0
 21 64  1  0
 22 65  1  1
 23 66  1  0
 25 67  1  0
 25 68  1  0
 25 69  1  0
 26 70  1  0
 26 71  1  0
 26 72  1  0
 28 73  1  0
 28 74  1  0
 28 75  1  0
 29 76  1  0
 29 77  1  0
 30 78  1  0
 30 79  1  0
 32 80  1  0
 32 81  1  0
 32 82  1  0
M  END
>  <meeko>  (9) 
{"is_sidechain": [false], "intermolecular_energy": 2.731, "internal_energy": -0.839}

$$$$
EPH_relaxed_0001_pdb2pqr_Repair_113_r2_0001_out
     RDKit          3D

 82 86  0  0  0  0  0  0  0  0999 V2000
   -0.2500   15.0140   -7.6910 C   0  0  0  0  0  0  0  0  0  0  0  0
    1.1090   15.0490   -6.9860 C   0  0  2  0  0  0  0  0  0  0  0  0
    2.2780   15.1640   -7.9850 C   0  0  0  0  0  0  0  0  0  0  0  0
    2.3010   16.4870   -8.7560 C   0  0  0  0  0  0  0  0  0  0  0  0
    1.8970   16.3030  -10.1870 C   0  0  2  0  0  0  0  0  0  0  0  0
    1.2140   15.0730  -10.4620 O   0  0  0  0  0  0  0  0  0  0  0  0
    2.4930   15.2430  -11.0940 C   0  0  0  0  0  0  0  0  0  0  0  0
    3.5440   14.2970  -10.6040 C   0  0  0  0  0  0  0  0  0  0  0  0
    2.4120   15.4410  -12.5760 C   0  0  0  0  0  0  0  0  0  0  0  0
    1.2800   13.8040   -6.1250 C   0  0  1  0  0  0  0  0  0  0  0  0
    2.7340   13.2610   -6.1430 C   0  0  0  0  0  0  0  0  0  0  0  0
    3.0150   12.6890   -4.7290 C   0  0  0  0  0  0  0  0  0  0  0  0
    1.6250   12.6180   -4.0540 C   0  0  1  0  0  0  0  0  0  0  0  0
    0.9830   11.3030   -4.5960 C   0  0  0  0  0  0  0  0  0  0  0  0
    1.6130   12.6650   -2.4910 C   0  0  2  0  0  0  0  0  0  0  0  0
    2.3310   11.4930   -1.7980 C   0  0  0  0  0  0  0  0  0  0  0  0
    1.4710   10.3120   -1.4890 C   0  0  0  0  0  0  0  0  0  0  0  0
    0.1260   10.3010   -1.4960 C   0  0  0  0  0  0  0  0  0  0  0  0
   -0.6720   11.5880   -1.7420 C   0  0  1  0  0  0  0  0  0  0  0  0
   -1.8090   11.7020   -0.6930 C   0  0  0  0  0  0  0  0  0  0  0  0
   -2.6980   10.4630   -0.6580 C   0  0  0  0  0  0  0  0  0  0  0  0
   -1.8780    9.2120   -0.3530 C   0  0  2  0  0  0  0  0  0  0  0  0
   -1.3780    9.3040    0.9850 O   0  0  0  0  0  0  0  0  0  0  0  0
   -0.6960    8.9980   -1.3390 C   0  0  0  0  0  0  0  0  0  0  0  0
   -1.2460    8.6000   -2.7310 C   0  0  0  0  0  0  0  0  0  0  0  0
    0.1320    7.7850   -0.8360 C   0  0  0  0  0  0  0  0  0  0  0  0
    0.1850   12.9220   -1.8610 C   0  0  1  0  0  0  0  0  0  0  0  0
    0.4250   13.5280   -0.4450 C   0  0  0  0  0  0  0  0  0  0  0  0
   -0.6410   13.9930   -2.6680 C   0  0  0  0  0  0  0  0  0  0  0  0
   -0.4940   13.9720   -4.2020 C   0  0  0  0  0  0  0  0  0  0  0  0
    0.9810   13.9390   -4.6110 C   0  0  2  0  0  0  0  0  0  0  0  0
    1.6490   15.2610   -4.0980 C   0  0  0  0  0  0  0  0  0  0  0  0
   -1.0527   14.9933   -6.9391 H   0  0  0  0  0  0  0  0  0  0  0  0
   -0.3599   15.9096   -8.3201 H   0  0  0  0  0  0  0  0  0  0  0  0
   -0.3136   14.1139   -8.3201 H   0  0  0  0  0  0  0  0  0  0  0  0
    1.1290   15.9461   -6.3497 H   0  0  0  0  0  0  0  0  0  0  0  0
    3.2217   15.0705   -7.4276 H   0  0  0  0  0  0  0  0  0  0  0  0
    2.1473   14.3620   -8.7265 H   0  0  0  0  0  0  0  0  0  0  0  0
    1.6044   17.1907   -8.2768 H   0  0  0  0  0  0  0  0  0  0  0  0
    3.3298   16.8759   -8.7380 H   0  0  0  0  0  0  0  0  0  0  0  0
    1.7564   17.3868  -10.3120 H   0  0  0  0  0  0  0  0  0  0  0  0
    3.5491   14.2924   -9.5040 H   0  0  0  0  0  0  0  0  0  0  0  0
    3.3268   13.2841  -10.9739 H   0  0  0  0  0  0  0  0  0  0  0  0
    4.5286   14.6192  -10.9739 H   0  0  0  0  0  0  0  0  0  0  0  0
    2.0035   16.4395  -12.7907 H   0  0  0  0  0  0  0  0  0  0  0  0
    3.4178   15.3545  -13.0130 H   0  0  0  0  0  0  0  0  0  0  0  0
    1.7552   14.6744  -13.0130 H   0  0  0  0  0  0  0  0  0  0  0  0
    0.5339   13.1487   -6.5982 H   0  0  0  0  0  0  0  0  0  0  0  0
    2.8330   12.4681   -6.8990 H   0  0  0  0  0  0  0  0  0  0  0  0
    3.4499   14.0567   -6.3968 H   0  0  0  0  0  0  0  0  0  0  0  0
    3.4651   11.6877   -4.7975 H   0  0  0  0  0  0  0  0  0  0  0  0
    3.7236   13.3097   -4.1610 H   0  0  0  0  0  0  0  0  0  0  0  0
    0.6741   10.6703   -3.7508 H   0  0  0  0  0  0  0  0  0  0  0  0
    0.1041   11.5499   -5.2096 H   0  0  0  0  0  0  0  0  0  0  0  0
    1.7183   10.7618   -5.2096 H   0  0  0  0  0  0  0  0  0  0  0  0
    2.2206   13.5566   -2.2769 H   0  0  0  0  0  0  0  0  0  0  0  0
    3.1464   11.1571   -2.4555 H   0  0  0  0  0  0  0  0  0  0  0  0
    2.6782   11.8790   -0.8283 H   0  0  0  0  0  0  0  0  0  0  0  0
    1.9807    9.3712   -1.2340 H   0  0  0  0  0  0  0  0  0  0  0  0
   -1.1033   11.4907   -2.7493 H   0  0  0  0  0  0  0  0  0  0  0  0
   -1.3591   11.8415    0.3011 H   0  0  0  0  0  0  0  0  0  0  0  0
   -2.4396   12.5579   -0.9754 H   0  0  0  0  0  0  0  0  0  0  0  0
   -3.4633   10.5909    0.1218 H   0  0  0  0  0  0  0  0  0  0  0  0
   -3.1703   10.3416   -1.6440 H   0  0  0  0  0  0  0  0  0  0  0  0
   -2.5441    8.3444   -0.4699 H   0  0  0  0  0  0  0  0  0  0  0  0
   -1.9420    9.9320    1.4670 H   0  0  0  0  0  0  0  0  0  0  0  0
   -2.1314    7.9593   -2.6059 H   0  0  0  0  0  0  0  0  0  0  0  0
   -1.5252    9.5066   -3.2879 H   0  0  0  0  0  0  0  0  0  0  0  0
   -0.4721    8.0514   -3.2879 H   0  0  0  0  0  0  0  0  0  0  0  0
    0.1381    7.7760    0.2639 H   0  0  0  0  0  0  0  0  0  0  0  0
   -0.3195    6.8534   -1.2078 H   0  0  0  0  0  0  0  0  0  0  0  0
    1.1641    7.8661   -1.2078 H   0  0  0  0  0  0  0  0  0  0  0  0
    0.1346   12.7947    0.3217 H   0  0  0  0  0  0  0  0  0  0  0  0
    1.4899   13.7778   -0.3287 H   0  0  0  0  0  0  0  0  0  0  0  0
   -0.1801   14.4392   -0.3287 H   0  0  0  0  0  0  0  0  0  0  0  0
   -1.7046   13.8389   -2.4334 H   0  0  0  0  0  0  0  0  0  0  0  0
   -0.2359   14.9660   -2.3532 H   0  0  0  0  0  0  0  0  0  0  0  0
   -0.9977   13.0785   -4.5995 H   0  0  0  0  0  0  0  0  0  0  0  0
   -0.9508   14.8855   -4.6106 H   0  0  0  0  0  0  0  0  0  0  0  0
    1.6522   15.2673   -2.9980 H   0  0  0  0  0  0  0  0  0  0  0  0
    2.6834   15.3167   -4.4680 H   0  0  0  0  0  0  0  0  0  0  0  0
    1.0802   16.1268   -4.4680 H   0  0  0  0  0  0  0  0  0  0  0  0
  1  2  1  0
  2  3  1  0
  3  4  1  0
  4  5  1  0
  5  6  1  0
  6  7  1  0
  7  8  1  0
  7  9  1  0
  2 10  1  0
 10 11  1  0
 11 12  1  0
 12 13  1  0
 13 14  1  1
 13 15  1  0
 15 16  1  0
 16 17  1  0
 17 18  2  0
 18 19  1  0
 19 20  1  0
 20 21  1  0
 21 22  1  0
 22 23  1  0
 22 24  1  0
 24 25  1  0
 24 26  1  0
 19 27  1  0
 27 28  1  1
 27 29  1  0
 29 30  1  0
 30 31  1  0
 31 32  1  1
  7  5  1  0
 31 10  1  0
 31 13  1  0
 27 15  1  0
 24 18  1  0
  1 33  1  0
  1 34  1  0
  1 35  1  0
  2 36  1  1
  3 37  1  0
  3 38  1  0
  4 39  1  0
  4 40  1  0
  5 41  1  6
  8 42  1  0
  8 43  1  0
  8 44  1  0
  9 45  1  0
  9 46  1  0
  9 47  1  0
 10 48  1  6
 11 49  1  0
 11 50  1  0
 12 51  1  0
 12 52  1  0
 14 53  1  0
 14 54  1  0
 14 55  1  0
 15 56  1  6
 16 57  1  0
 16 58  1  0
 17 59  1  0
 19 60  1  6
 20 61  1  0
 20 62  1  0
 21 63  1  0
 21 64  1  0
 22 65  1  1
 23 66  1  0
 25 67  1  0
 25 68  1  0
 25 69  1  0
 26 70  1  0
 26 71  1  0
 26 72  1  0
 28 73  1  0
 28 74  1  0
 28 75  1  0
 29 76  1  0
 29 77  1  0
 30 78  1  0
 30 79  1  0
 32 80  1  0
 32 81  1  0
 32 82  1  0
M  END
>  <meeko>  (10) 
{"is_sidechain": [false], "intermolecular_energy": 2.731, "internal_energy": -0.839}

$$$$
EPH_relaxed_0001_pdb2pqr_Repair_113_r2_0001_out
     RDKit          3D

 82 86  0  0  0  0  0  0  0  0999 V2000
    4.1270   17.7290   -0.0300 C   0  0  0  0  0  0  0  0  0  0  0  0
    2.7600   17.9700   -0.6750 C   0  0  2  0  0  0  0  0  0  0  0  0
    2.0930   19.2610   -0.1580 C   0  0  0  0  0  0  0  0  0  0  0  0
    0.9500   19.7610   -1.0450 C   0  0  0  0  0  0  0  0  0  0  0  0
   -0.3730   19.6700   -0.3470 C   0  0  2  0  0  0  0  0  0  0  0  0
   -1.1610   18.5270   -0.7060 O   0  0  0  0  0  0  0  0  0  0  0  0
   -1.7060   19.8090   -1.0600 C   0  0  0  0  0  0  0  0  0  0  0  0
   -1.7810   20.0520   -2.5340 C   0  0  0  0  0  0  0  0  0  0  0  0
   -2.9090   20.1950   -0.2570 C   0  0  0  0  0  0  0  0  0  0  0  0
    1.8470   16.7760   -0.4210 C   0  0  1  0  0  0  0  0  0  0  0  0
    0.3990   17.1970   -0.0560 C   0  0  0  0  0  0  0  0  0  0  0  0
   -0.5450   16.1310   -0.6700 C   0  0  0  0  0  0  0  0  0  0  0  0
    0.3910   14.9690   -1.0760 C   0  0  1  0  0  0  0  0  0  0  0  0
    0.6370   14.1720    0.2440 C   0  0  0  0  0  0  0  0  0  0  0  0
   -0.1200   14.0390   -2.2240 C   0  0  2  0  0  0  0  0  0  0  0  0
   -1.4160   13.2700   -1.9130 C   0  0  0  0  0  0  0  0  0  0  0  0
   -1.2270   11.9260   -1.2900 C   0  0  0  0  0  0  0  0  0  0  0  0
   -0.0700   11.2380   -1.2520 C   0  0  0  0  0  0  0  0  0  0  0  0
    1.1830   11.7640   -1.9620 C   0  0  1  0  0  0  0  0  0  0  0  0
    1.8430   10.6150   -2.7690 C   0  0  0  0  0  0  0  0  0  0  0  0
    2.1300    9.3880   -1.9100 C   0  0  0  0  0  0  0  0  0  0  0  0
    0.8500    8.8590   -1.2670 C   0  0  2  0  0  0  0  0  0  0  0  0
   -0.0070    8.3550   -2.2960 O   0  0  0  0  0  0  0  0  0  0  0  0
    0.0940    9.9320   -0.4360 C   0  0  0  0  0  0  0  0  0  0  0  0
    0.8980   10.2590    0.8470 C   0  0  0  0  0  0  0  0  0  0  0  0
   -1.2470    9.3100    0.0390 C   0  0  0  0  0  0  0  0  0  0  0  0
    0.9880   13.0830   -2.8270 C   0  0  1  0  0  0  0  0  0  0  0  0
    0.5200   12.7110   -4.2670 C   0  0  0  0  0  0  0  0  0  0  0  0
    2.3790   13.8050   -2.9840 C   0  0  0  0  0  0  0  0  0  0  0  0
    2.7740   14.8020   -1.8780 C   0  0  0  0  0  0  0  0  0  0  0  0
    1.6330   15.7830   -1.5910 C   0  0  2  0  0  0  0  0  0  0  0  0
    1.3780   16.6140   -2.8950 C   0  0  0  0  0  0  0  0  0  0  0  0
    4.0241   17.7471    1.0650 H   0  0  0  0  0  0  0  0  0  0  0  0
    4.5137   16.7488   -0.3457 H   0  0  0  0  0  0  0  0  0  0  0  0
    4.8256   18.5178   -0.3457 H   0  0  0  0  0  0  0  0  0  0  0  0
    2.9220   18.0914   -1.7562 H   0  0  0  0  0  0  0  0  0  0  0  0
    1.6923   19.0661    0.8477 H   0  0  0  0  0  0  0  0  0  0  0  0
    2.8656   20.0440   -0.1576 H   0  0  0  0  0  0  0  0  0  0  0  0
    1.1400   20.8106   -1.3136 H   0  0  0  0  0  0  0  0  0  0  0  0
    0.9090   19.1260   -1.9423 H   0  0  0  0  0  0  0  0  0  0  0  0
    0.0387   20.1573    0.5491 H   0  0  0  0  0  0  0  0  0  0  0  0
   -2.1008   21.0881   -2.7190 H   0  0  0  0  0  0  0  0  0  0  0  0
   -0.7905   19.8882   -2.9835 H   0  0  0  0  0  0  0  0  0  0  0  0
   -2.5069   19.3584   -2.9835 H   0  0  0  0  0  0  0  0  0  0  0  0
   -2.6740   20.1196    0.8149 H   0  0  0  0  0  0  0  0  0  0  0  0
   -3.1941   21.2297   -0.4979 H   0  0  0  0  0  0  0  0  0  0  0  0
   -3.7429   19.5193   -0.4979 H   0  0  0  0  0  0  0  0  0  0  0  0
    2.4056   16.2868    0.3906 H   0  0  0  0  0  0  0  0  0  0  0  0
    0.2772   17.2265    1.0368 H   0  0  0  0  0  0  0  0  0  0  0  0
    0.1691   18.1996   -0.4457 H   0  0  0  0  0  0  0  0  0  0  0  0
   -1.2841   15.7934    0.0715 H   0  0  0  0  0  0  0  0  0  0  0  0
   -1.1180   16.5229   -1.5233 H   0  0  0  0  0  0  0  0  0  0  0  0
    0.4362   14.8226    1.1080 H   0  0  0  0  0  0  0  0  0  0  0  0
   -0.0341   13.3011    0.2770 H   0  0  0  0  0  0  0  0  0  0  0  0
    1.6822   13.8309    0.2770 H   0  0  0  0  0  0  0  0  0  0  0  0
   -0.3819   14.7607   -3.0118 H   0  0  0  0  0  0  0  0  0  0  0  0
   -2.0174   13.8820   -1.2247 H   0  0  0  0  0  0  0  0  0  0  0  0
   -1.9028   13.0899   -2.8828 H   0  0  0  0  0  0  0  0  0  0  0  0
   -2.1066   11.4589   -0.8230 H   0  0  0  0  0  0  0  0  0  0  0  0
    1.8640   12.0999   -1.1661 H   0  0  0  0  0  0  0  0  0  0  0  0
    1.1662   10.3234   -3.5856 H   0  0  0  0  0  0  0  0  0  0  0  0
    2.8045   10.9861   -3.1536 H   0  0  0  0  0  0  0  0  0  0  0  0
    2.5672    8.6008   -2.5418 H   0  0  0  0  0  0  0  0  0  0  0  0
    2.8306    9.6748   -1.1119 H   0  0  0  0  0  0  0  0  0  0  0  0
    1.1373    8.0634   -0.5638 H   0  0  0  0  0  0  0  0  0  0  0  0
   -0.5800    9.0850   -2.5860 H   0  0  0  0  0  0  0  0  0  0  0  0
    0.2926   10.0128    1.7318 H   0  0  0  0  0  0  0  0  0  0  0  0
    1.8245    9.6662    0.8601 H   0  0  0  0  0  0  0  0  0  0  0  0
    1.1478   11.3302    0.8601 H   0  0  0  0  0  0  0  0  0  0  0  0
   -1.2759    9.2966    1.1385 H   0  0  0  0  0  0  0  0  0  0  0  0
   -2.0855    9.9111   -0.3425 H   0  0  0  0  0  0  0  0  0  0  0  0
   -1.3297    8.2816   -0.3425 H   0  0  0  0  0  0  0  0  0  0  0  0
   -0.3399   12.0275   -4.2080 H   0  0  0  0  0  0  0  0  0  0  0  0
    0.2260   13.6246   -4.8045 H   0  0  0  0  0  0  0  0  0  0  0  0
    1.3437   12.2184   -4.8045 H   0  0  0  0  0  0  0  0  0  0  0  0
    3.1552   13.0266   -3.0228 H   0  0  0  0  0  0  0  0  0  0  0  0
    2.2868   14.4108   -3.8975 H   0  0  0  0  0  0  0  0  0  0  0  0
    3.0095   14.2452   -0.9590 H   0  0  0  0  0  0  0  0  0  0  0  0
    3.6506   15.3732   -2.2175 H   0  0  0  0  0  0  0  0  0  0  0  0
    1.0652   17.6334   -2.6249 H   0  0  0  0  0  0  0  0  0  0  0  0
    2.3035   16.6594   -3.4877 H   0  0  0  0  0  0  0  0  0  0  0  0
    0.5863   16.1325   -3.4877 H   0  0  0  0  0  0  0  0  0  0  0  0
  1  2  1  0
  2  3  1  0
  3  4  1  0
  4  5  1  0
  5  6  1  0
  6  7  1  0
  7  8  1  0
  7  9  1  0
  2 10  1  0
 10 11  1  0
 11 12  1  0
 12 13  1  0
 13 14  1  1
 13 15  1  0
 15 16  1  0
 16 17  1  0
 17 18  2  0
 18 19  1  0
 19 20  1  0
 20 21  1  0
 21 22  1  0
 22 23  1  0
 22 24  1  0
 24 25  1  0
 24 26  1  0
 19 27  1  0
 27 28  1  6
 27 29  1  0
 29 30  1  0
 30 31  1  0
 31 32  1  6
  7  5  1  0
 31 10  1  0
 31 13  1  0
 27 15  1  0
 24 18  1  0
  1 33  1  0
  1 34  1  0
  1 35  1  0
  2 36  1  6
  3 37  1  0
  3 38  1  0
  4 39  1  0
  4 40  1  0
  5 41  1  1
  8 42  1  0
  8 43  1  0
  8 44  1  0
  9 45  1  0
  9 46  1  0
  9 47  1  0
 10 48  1  1
 11 49  1  0
 11 50  1  0
 12 51  1  0
 12 52  1  0
 14 53  1  0
 14 54  1  0
 14 55  1  0
 15 56  1  6
 16 57  1  0
 16 58  1  0
 17 59  1  0
 19 60  1  1
 20 61  1  0
 20 62  1  0
 21 63  1  0
 21 64  1  0
 22 65  1  1
 23 66  1  0
 25 67  1  0
 25 68  1  0
 25 69  1  0
 26 70  1  0
 26 71  1  0
 26 72  1  0
 28 73  1  0
 28 74  1  0
 28 75  1  0
 29 76  1  0
 29 77  1  0
 30 78  1  0
 30 79  1  0
 32 80  1  0
 32 81  1  0
 32 82  1  0
M  END
>  <meeko>  (11) 
{"is_sidechain": [false], "intermolecular_energy": 2.731, "internal_energy": -0.839}

$$$$
EPH_relaxed_0001_pdb2pqr_Repair_113_r2_0001_out
     RDKit          3D

 82 86  0  0  0  0  0  0  0  0999 V2000
   -0.2870    9.2990   -2.3350 C   0  0  0  0  0  0  0  0  0  0  0  0
    0.7690   10.2910   -2.8310 C   0  0  2  0  0  0  0  0  0  0  0  0
    2.1560    9.6360   -2.9830 C   0  0  0  0  0  0  0  0  0  0  0  0
    3.1330   10.4540   -3.8310 C   0  0  0  0  0  0  0  0  0  0  0  0
    4.5400   10.3310   -3.3290 C   0  0  2  0  0  0  0  0  0  0  0  0
    5.1280   11.5620   -2.8870 O   0  0  0  0  0  0  0  0  0  0  0  0
    5.7370   10.9440   -4.0330 C   0  0  0  0  0  0  0  0  0  0  0  0
    5.5800   11.7250   -5.3000 C   0  0  0  0  0  0  0  0  0  0  0  0
    7.0950   10.3760   -3.7610 C   0  0  0  0  0  0  0  0  0  0  0  0
    0.8540   11.4780   -1.8780 C   0  0  1  0  0  0  0  0  0  0  0  0
    1.9120   11.2710   -0.7610 C   0  0  0  0  0  0  0  0  0  0  0  0
    2.5350   12.6620   -0.4720 C   0  0  0  0  0  0  0  0  0  0  0  0
    1.5960   13.6640   -1.1840 C   0  0  1  0  0  0  0  0  0  0  0  0
    0.3980   13.8580   -0.2020 C   0  0  0  0  0  0  0  0  0  0  0  0
    2.2310   15.0320   -1.5950 C   0  0  2  0  0  0  0  0  0  0  0  0
    2.7410   15.8940   -0.4260 C   0  0  0  0  0  0  0  0  0  0  0  0
    1.7440   16.8480    0.1440 C   0  0  0  0  0  0  0  0  0  0  0  0
    0.5870   17.2130   -0.4390 C   0  0  0  0  0  0  0  0  0  0  0  0
    0.2280   16.7250   -1.8490 C   0  0  1  0  0  0  0  0  0  0  0  0
   -0.2830   17.9200   -2.6960 C   0  0  0  0  0  0  0  0  0  0  0  0
   -1.4350   18.6620   -2.0240 C   0  0  0  0  0  0  0  0  0  0  0  0
   -1.0210   19.1820   -0.6500 C   0  0  2  0  0  0  0  0  0  0  0  0
   -0.0240   20.1940   -0.8210 O   0  0  0  0  0  0  0  0  0  0  0  0
   -0.4790   18.0680    0.2890 C   0  0  0  0  0  0  0  0  0  0  0  0
   -1.6400   17.1370    0.7160 C   0  0  0  0  0  0  0  0  0  0  0  0
    0.0350   18.7460    1.5880 C   0  0  0  0  0  0  0  0  0  0  0  0
    1.3490   15.8820   -2.5970 C   0  0  1  0  0  0  0  0  0  0  0  0
    2.3240   16.8400   -3.3470 C   0  0  0  0  0  0  0  0  0  0  0  0
    0.6680   14.9880   -3.7000 C   0  0  0  0  0  0  0  0  0  0  0  0
    0.1690   13.5990   -3.2590 C   0  0  0  0  0  0  0  0  0  0  0  0
    1.2540   12.8470   -2.4820 C   0  0  2  0  0  0  0  0  0  0  0  0
    2.4640   12.6190   -3.4510 C   0  0  0  0  0  0  0  0  0  0  0  0
   -0.2950    9.2915   -1.2351 H   0  0  0  0  0  0  0  0  0  0  0  0
   -1.2772    9.6011   -2.7068 H   0  0  0  0  0  0  0  0  0  0  0  0
   -0.0473    8.2919   -2.7068 H   0  0  0  0  0  0  0  0  0  0  0  0
    0.4571   10.6358   -3.8279 H   0  0  0  0  0  0  0  0  0  0  0  0
    2.5905    9.5062   -1.9808 H   0  0  0  0  0  0  0  0  0  0  0  0
    2.0040    8.6780   -3.5018 H   0  0  0  0  0  0  0  0  0  0  0  0
    3.0922   10.0934   -4.8694 H   0  0  0  0  0  0  0  0  0  0  0  0
    2.8381   11.5119   -3.7693 H   0  0  0  0  0  0  0  0  0  0  0  0
    4.3434    9.3143   -2.9580 H   0  0  0  0  0  0  0  0  0  0  0  0
    5.3685   12.7771   -5.0584 H   0  0  0  0  0  0  0  0  0  0  0  0
    6.5086   11.6630   -5.8864 H   0  0  0  0  0  0  0  0  0  0  0  0
    4.7475   11.3090   -5.8864 H   0  0  0  0  0  0  0  0  0  0  0  0
    7.2538   10.3096   -2.6745 H   0  0  0  0  0  0  0  0  0  0  0  0
    7.1680    9.3719   -4.2043 H   0  0  0  0  0  0  0  0  0  0  0  0
    7.8611   11.0291   -4.2043 H   0  0  0  0  0  0  0  0  0  0  0  0
   -0.1888   11.5111   -1.5294 H   0  0  0  0  0  0  0  0  0  0  0  0
    1.4326   10.8747    0.1462 H   0  0  0  0  0  0  0  0  0  0  0  0
    2.6819   10.5506   -1.0746 H   0  0  0  0  0  0  0  0  0  0  0  0
    2.5635   12.8578    0.6101 H   0  0  0  0  0  0  0  0  0  0  0  0
    3.5731   12.7369   -0.8281 H   0  0  0  0  0  0  0  0  0  0  0  0
    0.7606   13.7993    0.8349 H   0  0  0  0  0  0  0  0  0  0  0  0
   -0.0618   14.8423   -0.3745 H   0  0  0  0  0  0  0  0  0  0  0  0
   -0.3489   13.0691   -0.3745 H   0  0  0  0  0  0  0  0  0  0  0  0
    3.1285   14.7169   -2.1474 H   0  0  0  0  0  0  0  0  0  0  0  0
    3.0639   15.2180    0.3794 H   0  0  0  0  0  0  0  0  0  0  0  0
    3.5544   16.5114   -0.8348 H   0  0  0  0  0  0  0  0  0  0  0  0
    1.9747   17.2905    1.1243 H   0  0  0  0  0  0  0  0  0  0  0  0
   -0.5779   15.9875   -1.7198 H   0  0  0  0  0  0  0  0  0  0  0  0
    0.5480   18.6241   -2.8502 H   0  0  0  0  0  0  0  0  0  0  0  0
   -0.6551   17.5186   -3.6502 H   0  0  0  0  0  0  0  0  0  0  0  0
   -1.7331   19.5117   -2.6557 H   0  0  0  0  0  0  0  0  0  0  0  0
   -2.2756   17.9640   -1.8967 H   0  0  0  0  0  0  0  0  0  0  0  0
   -1.9213   19.5891   -0.1666 H   0  0  0  0  0  0  0  0  0  0  0  0
   -0.4630   21.0570   -0.7380 H   0  0  0  0  0  0  0  0  0  0  0  0
   -1.6918   17.0955    1.8140 H   0  0  0  0  0  0  0  0  0  0  0  0
   -2.5884   17.5277    0.3187 H   0  0  0  0  0  0  0  0  0  0  0  0
   -1.4647   16.1264    0.3187 H   0  0  0  0  0  0  0  0  0  0  0  0
   -0.3678   18.2147    2.4630 H   0  0  0  0  0  0  0  0  0  0  0  0
    1.1342   18.7092    1.6106 H   0  0  0  0  0  0  0  0  0  0  0  0
   -0.2973   19.7944    1.6106 H   0  0  0  0  0  0  0  0  0  0  0  0
    2.9091   17.4149   -2.6142 H   0  0  0  0  0  0  0  0  0  0  0  0
    3.0048   16.2498   -3.9780 H   0  0  0  0  0  0  0  0  0  0  0  0
    1.7459   17.5311   -3.9780 H   0  0  0  0  0  0  0  0  0  0  0  0
   -0.1972   15.5435   -4.0909 H   0  0  0  0  0  0  0  0  0  0  0  0
    1.4596   14.7883   -4.4372 H   0  0  0  0  0  0  0  0  0  0  0  0
   -0.7146   13.7219   -2.6154 H   0  0  0  0  0  0  0  0  0  0  0  0
   -0.0861   13.0170   -4.1569 H   0  0  0  0  0  0  0  0  0  0  0  0
    3.3774   12.4469   -2.8628 H   0  0  0  0  0  0  0  0  0  0  0  0
    2.2657   11.7424   -4.0853 H   0  0  0  0  0  0  0  0  0  0  0  0
    2.5983   13.5076   -4.0853 H   0  0  0  0  0  0  0  0  0  0  0  0
  1  2  1  0
  2  3  1  0
  3  4  1  0
  4  5  1  0
  5  6  1  0
  6  7  1  0
  7  8  1  0
  7  9  1  0
  2 10  1  0
 10 11  1  0
 11 12  1  0
 12 13  1  0
 13 14  1  1
 13 15  1  0
 15 16  1  0
 16 17  1  0
 17 18  2  0
 18 19  1  0
 19 20  1  0
 20 21  1  0
 21 22  1  0
 22 23  1  0
 22 24  1  0
 24 25  1  0
 24 26  1  0
 19 27  1  0
 27 28  1  6
 27 29  1  0
 29 30  1  0
 30 31  1  0
 31 32  1  6
  7  5  1  0
 31 10  1  0
 31 13  1  0
 27 15  1  0
 24 18  1  0
  1 33  1  0
  1 34  1  0
  1 35  1  0
  2 36  1  6
  3 37  1  0
  3 38  1  0
  4 39  1  0
  4 40  1  0
  5 41  1  1
  8 42  1  0
  8 43  1  0
  8 44  1  0
  9 45  1  0
  9 46  1  0
  9 47  1  0
 10 48  1  1
 11 49  1  0
 11 50  1  0
 12 51  1  0
 12 52  1  0
 14 53  1  0
 14 54  1  0
 14 55  1  0
 15 56  1  6
 16 57  1  0
 16 58  1  0
 17 59  1  0
 19 60  1  1
 20 61  1  0
 20 62  1  0
 21 63  1  0
 21 64  1  0
 22 65  1  1
 23 66  1  0
 25 67  1  0
 25 68  1  0
 25 69  1  0
 26 70  1  0
 26 71  1  0
 26 72  1  0
 28 73  1  0
 28 74  1  0
 28 75  1  0
 29 76  1  0
 29 77  1  0
 30 78  1  0
 30 79  1  0
 32 80  1  0
 32 81  1  0
 32 82  1  0
M  END
>  <meeko>  (12) 
{"is_sidechain": [false], "intermolecular_energy": 2.731, "internal_energy": -0.839}

$$$$
EPH_relaxed_0001_pdb2pqr_Repair_113_r2_0001_out
     RDKit          3D

 82 86  0  0  0  0  0  0  0  0999 V2000
   -3.1480    6.8300   -3.1300 C   0  0  0  0  0  0  0  0  0  0  0  0
   -3.8650    7.3190   -1.8680 C   0  0  2  0  0  0  0  0  0  0  0  0
   -5.3890    7.4280   -2.0710 C   0  0  0  0  0  0  0  0  0  0  0  0
   -6.2070    6.7820   -0.9500 C   0  0  0  0  0  0  0  0  0  0  0  0
   -7.5790    7.3780   -0.8500 C   0  0  2  0  0  0  0  0  0  0  0  0
   -8.5340    6.5690   -0.1510 O   0  0  0  0  0  0  0  0  0  0  0  0
   -8.7960    6.7960   -1.5450 C   0  0  0  0  0  0  0  0  0  0  0  0
   -8.6980    5.5660   -2.3920 C   0  0  0  0  0  0  0  0  0  0  0  0
   -9.9700    7.6900   -1.8000 C   0  0  0  0  0  0  0  0  0  0  0  0
   -3.2980    8.6670   -1.4380 C   0  0  1  0  0  0  0  0  0  0  0  0
   -3.9330    9.1900   -0.1220 C   0  0  0  0  0  0  0  0  0  0  0  0
   -2.8170    9.9430    0.6450 C   0  0  0  0  0  0  0  0  0  0  0  0
   -1.6810   10.1160   -0.3900 C   0  0  1  0  0  0  0  0  0  0  0  0
   -2.1020   11.3530   -1.2450 C   0  0  0  0  0  0  0  0  0  0  0  0
   -0.2370   10.2790    0.1890 C   0  0  2  0  0  0  0  0  0  0  0  0
   -0.0220   11.5260    1.0640 C   0  0  0  0  0  0  0  0  0  0  0  0
    0.4360   12.7450    0.3350 C   0  0  0  0  0  0  0  0  0  0  0  0
    0.9380   12.7680   -0.9140 C   0  0  0  0  0  0  0  0  0  0  0  0
    1.1770   11.4660   -1.6900 C   0  0  1  0  0  0  0  0  0  0  0  0
    2.5840   11.5040   -2.3430 C   0  0  0  0  0  0  0  0  0  0  0  0
    2.7950   12.7450   -3.2050 C   0  0  0  0  0  0  0  0  0  0  0  0
    2.6060   14.0180   -2.3850 C   0  0  2  0  0  0  0  0  0  0  0  0
    3.6540   14.1010   -1.4150 O   0  0  0  0  0  0  0  0  0  0  0  0
    1.2270   14.0870   -1.6710 C   0  0  0  0  0  0  0  0  0  0  0  0
    0.1080   14.3010   -2.7210 C   0  0  0  0  0  0  0  0  0  0  0  0
    1.2200   15.3490   -0.7670 C   0  0  0  0  0  0  0  0  0  0  0  0
    0.9140   10.1210   -0.8860 C   0  0  1  0  0  0  0  0  0  0  0  0
    2.1980    9.7080   -0.1050 C   0  0  0  0  0  0  0  0  0  0  0  0
    0.6220    8.9590   -1.9080 C   0  0  0  0  0  0  0  0  0  0  0  0
   -0.8420    8.7730   -2.3500 C   0  0  0  0  0  0  0  0  0  0  0  0
   -1.7800    8.7380   -1.1400 C   0  0  2  0  0  0  0  0  0  0  0  0
   -1.3940    7.4910   -0.2730 C   0  0  0  0  0  0  0  0  0  0  0  0
   -2.2704    6.2315   -2.8445 H   0  0  0  0  0  0  0  0  0  0  0  0
   -3.8354    6.2117   -3.7260 H   0  0  0  0  0  0  0  0  0  0  0  0
   -2.8233    7.6957   -3.7260 H   0  0  0  0  0  0  0  0  0  0  0  0
   -3.6907    6.5735   -1.0782 H   0  0  0  0  0  0  0  0  0  0  0  0
   -5.6566    8.4935   -2.1264 H   0  0  0  0  0  0  0  0  0  0  0  0
   -5.6294    6.8861   -2.9976 H   0  0  0  0  0  0  0  0  0  0  0  0
   -6.3002    5.7048   -1.1521 H   0  0  0  0  0  0  0  0  0  0  0  0
   -5.6854    6.9610    0.0018 H   0  0  0  0  0  0  0  0  0  0  0  0
   -7.1610    8.3951   -0.8220 H   0  0  0  0  0  0  0  0  0  0  0  0
   -8.6274    4.6796   -1.7445 H   0  0  0  0  0  0  0  0  0  0  0  0
   -9.5926    5.4859   -3.0270 H   0  0  0  0  0  0  0  0  0  0  0  0
   -7.8020    5.6285   -3.0270 H   0  0  0  0  0  0  0  0  0  0  0  0
  -10.3980    8.0159   -0.8405 H   0  0  0  0  0  0  0  0  0  0  0  0
   -9.6431    8.5700   -2.3734 H   0  0  0  0  0  0  0  0  0  0  0  0
  -10.7313    7.1408   -2.3734 H   0  0  0  0  0  0  0  0  0  0  0  0
   -3.5333    9.2597   -2.3343 H   0  0  0  0  0  0  0  0  0  0  0  0
   -4.7645    9.8736   -0.3483 H   0  0  0  0  0  0  0  0  0  0  0  0
   -4.3348    8.3610    0.4791 H   0  0  0  0  0  0  0  0  0  0  0  0
   -3.1777   10.9222    0.9930 H   0  0  0  0  0  0  0  0  0  0  0  0
   -2.4856    9.3977    1.5410 H   0  0  0  0  0  0  0  0  0  0  0  0
   -2.3838   12.1810   -0.5779 H   0  0  0  0  0  0  0  0  0  0  0  0
   -1.2591   11.6641   -1.8797 H   0  0  0  0  0  0  0  0  0  0  0  0
   -2.9596   11.0853   -1.8797 H   0  0  0  0  0  0  0  0  0  0  0  0
   -0.1573    9.4191    0.8703 H   0  0  0  0  0  0  0  0  0  0  0  0
   -0.9759   11.7635    1.5576 H   0  0  0  0  0  0  0  0  0  0  0  0
    0.7854   11.2698    1.7658 H   0  0  0  0  0  0  0  0  0  0  0  0
    0.3567   13.7066    0.8632 H   0  0  0  0  0  0  0  0  0  0  0  0
    0.4031   11.4310   -2.4710 H   0  0  0  0  0  0  0  0  0  0  0  0
    3.3428   11.4945   -1.5467 H   0  0  0  0  0  0  0  0  0  0  0  0
    2.6727   10.6239   -2.9969 H   0  0  0  0  0  0  0  0  0  0  0  0
    3.8157   12.7292   -3.6149 H   0  0  0  0  0  0  0  0  0  0  0  0
    2.0537   12.7379   -4.0176 H   0  0  0  0  0  0  0  0  0  0  0  0
    2.6416   14.8681   -3.0821 H   0  0  0  0  0  0  0  0  0  0  0  0
    3.2410   14.2390   -0.5460 H   0  0  0  0  0  0  0  0  0  0  0  0
   -0.8472   14.4837   -2.2069 H   0  0  0  0  0  0  0  0  0  0  0  0
    0.3570   15.1678   -3.3508 H   0  0  0  0  0  0  0  0  0  0  0  0
    0.0196   13.4035   -3.3508 H   0  0  0  0  0  0  0  0  0  0  0  0
    1.2217   15.0432    0.2896 H   0  0  0  0  0  0  0  0  0  0  0  0
    2.1148   15.9540   -0.9750 H   0  0  0  0  0  0  0  0  0  0  0  0
    0.3185   15.9441   -0.9750 H   0  0  0  0  0  0  0  0  0  0  0  0
    2.0053    9.7700    0.9762 H   0  0  0  0  0  0  0  0  0  0  0  0
    2.4724    8.6763   -0.3700 H   0  0  0  0  0  0  0  0  0  0  0  0
    3.0224   10.3863   -0.3700 H   0  0  0  0  0  0  0  0  0  0  0  0
    1.2200    9.1520   -2.8108 H   0  0  0  0  0  0  0  0  0  0  0  0
    0.8803    8.0336   -1.3724 H   0  0  0  0  0  0  0  0  0  0  0  0
   -1.1294    9.6095   -3.0040 H   0  0  0  0  0  0  0  0  0  0  0  0
   -0.9272    7.8170   -2.8874 H   0  0  0  0  0  0  0  0  0  0  0  0
   -1.4734    7.7474    0.7938 H   0  0  0  0  0  0  0  0  0  0  0  0
   -2.0768    6.6596   -0.5021 H   0  0  0  0  0  0  0  0  0  0  0  0
   -0.3609    7.1907   -0.5021 H   0  0  0  0  0  0  0  0  0  0  0  0
  1  2  1  0
  2  3  1  0
  3  4  1  0
  4  5  1  0
  5  6  1  0
  6  7  1  0
  7  8  1  0
  7  9  1  0
  2 10  1  0
 10 11  1  0
 11 12  1  0
 12 13  1  0
 13 14  1  6
 13 15  1  0
 15 16  1  0
 16 17  1  0
 17 18  2  0
 18 19  1  0
 19 20  1  0
 20 21  1  0
 21 22  1  0
 22 23  1  0
 22 24  1  0
 24 25  1  0
 24 26  1  0
 19 27  1  0
 27 28  1  1
 27 29  1  0
 29 30  1  0
 30 31  1  0
 31 32  1  1
  7  5  1  0
 31 10  1  0
 31 13  1  0
 27 15  1  0
 24 18  1  0
  1 33  1  0
  1 34  1  0
  1 35  1  0
  2 36  1  1
  3 37  1  0
  3 38  1  0
  4 39  1  0
  4 40  1  0
  5 41  1  1
  8 42  1  0
  8 43  1  0
  8 44  1  0
  9 45  1  0
  9 46  1  0
  9 47  1  0
 10 48  1  6
 11 49  1  0
 11 50  1  0
 12 51  1  0
 12 52  1  0
 14 53  1  0
 14 54  1  0
 14 55  1  0
 15 56  1  1
 16 57  1  0
 16 58  1  0
 17 59  1  0
 19 60  1  6
 20 61  1  0
 20 62  1  0
 21 63  1  0
 21 64  1  0
 22 65  1  6
 23 66  1  0
 25 67  1  0
 25 68  1  0
 25 69  1  0
 26 70  1  0
 26 71  1  0
 26 72  1  0
 28 73  1  0
 28 74  1  0
 28 75  1  0
 29 76  1  0
 29 77  1  0
 30 78  1  0
 30 79  1  0
 32 80  1  0
 32 81  1  0
 32 82  1  0
M  END
>  <meeko>  (13) 
{"is_sidechain": [false], "intermolecular_energy": 2.731, "internal_energy": -0.839}

$$$$
EPH_relaxed_0001_pdb2pqr_Repair_113_r2_0001_out
     RDKit          3D

 82 86  0  0  0  0  0  0  0  0999 V2000
   -3.3570    7.7470   -0.7100 C   0  0  0  0  0  0  0  0  0  0  0  0
   -3.6760    9.2060   -0.3710 C   0  0  2  0  0  0  0  0  0  0  0  0
   -5.1610    9.5460   -0.6080 C   0  0  0  0  0  0  0  0  0  0  0  0
   -5.9010    8.5130   -1.4620 C   0  0  0  0  0  0  0  0  0  0  0  0
   -6.8410    7.6850   -0.6390 C   0  0  2  0  0  0  0  0  0  0  0  0
   -7.1810    6.4160   -1.2140 O   0  0  0  0  0  0  0  0  0  0  0  0
   -8.2590    7.3550   -1.0670 C   0  0  0  0  0  0  0  0  0  0  0  0
   -8.8170    7.8490   -2.3650 C   0  0  0  0  0  0  0  0  0  0  0  0
   -9.2530    6.9720   -0.0150 C   0  0  0  0  0  0  0  0  0  0  0  0
   -2.7910   10.1360   -1.1940 C   0  0  1  0  0  0  0  0  0  0  0  0
   -3.3470   11.5830   -1.2630 C   0  0  0  0  0  0  0  0  0  0  0  0
   -2.1210   12.5320   -1.2770 C   0  0  0  0  0  0  0  0  0  0  0  0
   -0.9130   11.6060   -1.5500 C   0  0  1  0  0  0  0  0  0  0  0  0
   -0.9190   11.3850   -3.0950 C   0  0  0  0  0  0  0  0  0  0  0  0
    0.4760   12.1140   -1.0440 C   0  0  2  0  0  0  0  0  0  0  0  0
    0.9660   13.4230   -1.6880 C   0  0  0  0  0  0  0  0  0  0  0  0
    1.7900   13.2580   -2.9220 C   0  0  0  0  0  0  0  0  0  0  0  0
    2.3630   12.1100   -3.3320 C   0  0  0  0  0  0  0  0  0  0  0  0
    2.2870   10.8420   -2.4720 C   0  0  1  0  0  0  0  0  0  0  0  0
    3.6910   10.1870   -2.3920 C   0  0  0  0  0  0  0  0  0  0  0  0
    4.2940    9.9240   -3.7690 C   0  0  0  0  0  0  0  0  0  0  0  0
    4.4060   11.2180   -4.5710 C   0  0  2  0  0  0  0  0  0  0  0  0
    5.3690   12.0690   -3.9400 O   0  0  0  0  0  0  0  0  0  0  0  0
    3.0540   11.9720   -4.7100 C   0  0  0  0  0  0  0  0  0  0  0  0
    2.1120   11.1800   -5.6500 C   0  0  0  0  0  0  0  0  0  0  0  0
    3.3330   13.3260   -5.4160 C   0  0  0  0  0  0  0  0  0  0  0  0
    1.6100   11.0100   -1.0450 C   0  0  1  0  0  0  0  0  0  0  0  0
    2.6750   11.4650   -0.0010 C   0  0  0  0  0  0  0  0  0  0  0  0
    1.0810    9.6090   -0.5580 C   0  0  0  0  0  0  0  0  0  0  0  0
   -0.3440    9.2160   -0.9910 C   0  0  0  0  0  0  0  0  0  0  0  0
   -1.3360   10.3480   -0.7070 C   0  0  2  0  0  0  0  0  0  0  0  0
   -1.3690   10.5770    0.8420 C   0  0  0  0  0  0  0  0  0  0  0  0
   -3.2316    7.1734    0.2202 H   0  0  0  0  0  0  0  0  0  0  0  0
   -4.1826    7.3180   -1.2968 H   0  0  0  0  0  0  0  0  0  0  0  0
   -2.4277    7.7017   -1.2968 H   0  0  0  0  0  0  0  0  0  0  0  0
   -3.4716    9.3492    0.7003 H   0  0  0  0  0  0  0  0  0  0  0  0
   -5.6622    9.6119    0.3690 H   0  0  0  0  0  0  0  0  0  0  0  0
   -5.1886   10.4975   -1.1593 H   0  0  0  0  0  0  0  0  0  0  0  0
   -6.4756    9.0385   -2.2390 H   0  0  0  0  0  0  0  0  0  0  0  0
   -5.1547    7.8409   -1.9107 H   0  0  0  0  0  0  0  0  0  0  0  0
   -6.4294    8.1008    0.2925 H   0  0  0  0  0  0  0  0  0  0  0  0
   -9.6271    8.5662   -2.1666 H   0  0  0  0  0  0  0  0  0  0  0  0
   -8.0216    8.3444   -2.9412 H   0  0  0  0  0  0  0  0  0  0  0  0
   -9.2123    6.9995   -2.9412 H   0  0  0  0  0  0  0  0  0  0  0  0
   -8.8164    7.1402    0.9805 H   0  0  0  0  0  0  0  0  0  0  0  0
  -10.1594    7.5853   -0.1263 H   0  0  0  0  0  0  0  0  0  0  0  0
   -9.5135    5.9091   -0.1263 H   0  0  0  0  0  0  0  0  0  0  0  0
   -2.7918    9.5930   -2.1506 H   0  0  0  0  0  0  0  0  0  0  0  0
   -3.9408   11.7175   -2.1791 H   0  0  0  0  0  0  0  0  0  0  0  0
   -4.0022   11.7961   -0.4055 H   0  0  0  0  0  0  0  0  0  0  0  0
   -2.2214   13.2841   -2.0734 H   0  0  0  0  0  0  0  0  0  0  0  0
   -2.0144   13.0893   -0.3346 H   0  0  0  0  0  0  0  0  0  0  0  0
   -0.9483   10.3068   -3.3111 H   0  0  0  0  0  0  0  0  0  0  0  0
   -1.8043   11.8706   -3.5314 H   0  0  0  0  0  0  0  0  0  0  0  0
   -0.0087   11.8218   -3.5314 H   0  0  0  0  0  0  0  0  0  0  0  0
    0.2687   12.3576    0.0085 H   0  0  0  0  0  0  0  0  0  0  0  0
    0.0829   14.0255   -1.9472 H   0  0  0  0  0  0  0  0  0  0  0  0
    1.6227   13.8999   -0.9455 H   0  0  0  0  0  0  0  0  0  0  0  0
    1.9420   14.1489   -3.5491 H   0  0  0  0  0  0  0  0  0  0  0  0
    1.5878   10.1669   -2.9872 H   0  0  0  0  0  0  0  0  0  0  0  0
    4.3619   10.8581   -1.8357 H   0  0  0  0  0  0  0  0  0  0  0  0
    3.5781    9.2167   -1.8863 H   0  0  0  0  0  0  0  0  0  0  0  0
    5.2967    9.4887   -3.6459 H   0  0  0  0  0  0  0  0  0  0  0  0
    3.6375    9.2291   -4.3132 H   0  0  0  0  0  0  0  0  0  0  0  0
    4.7205   10.9485   -5.5900 H   0  0  0  0  0  0  0  0  0  0  0  0
    5.6080   12.7650   -4.5760 H   0  0  0  0  0  0  0  0  0  0  0  0
    1.4071   10.5874   -5.0484 H   0  0  0  0  0  0  0  0  0  0  0  0
    1.5519   11.8825   -6.2847 H   0  0  0  0  0  0  0  0  0  0  0  0
    2.7079   10.5076   -6.2847 H   0  0  0  0  0  0  0  0  0  0  0  0
    3.4941   14.1078   -4.6591 H   0  0  0  0  0  0  0  0  0  0  0  0
    4.2310   13.2336   -6.0446 H   0  0  0  0  0  0  0  0  0  0  0  0
    2.4716   13.5961   -6.0446 H   0  0  0  0  0  0  0  0  0  0  0  0
    2.2869   11.2992    1.0148 H   0  0  0  0  0  0  0  0  0  0  0  0
    3.5976   10.8825   -0.1406 H   0  0  0  0  0  0  0  0  0  0  0  0
    2.8919   12.5343   -0.1406 H   0  0  0  0  0  0  0  0  0  0  0  0
    1.7691    8.8416   -0.9422 H   0  0  0  0  0  0  0  0  0  0  0  0
    1.0386    9.6827    0.5387 H   0  0  0  0  0  0  0  0  0  0  0  0
   -0.3452    8.9988   -2.0693 H   0  0  0  0  0  0  0  0  0  0  0  0
   -0.6519    8.3285   -0.4187 H   0  0  0  0  0  0  0  0  0  0  0  0
   -1.2304    9.6154    1.3578 H   0  0  0  0  0  0  0  0  0  0  0  0
   -0.5609   11.2663    1.1280 H   0  0  0  0  0  0  0  0  0  0  0  0
   -2.3388   11.0101    1.1280 H   0  0  0  0  0  0  0  0  0  0  0  0
  1  2  1  0
  2  3  1  0
  3  4  1  0
  4  5  1  0
  5  6  1  0
  6  7  1  0
  7  8  1  0
  7  9  1  0
  2 10  1  0
 10 11  1  0
 11 12  1  0
 12 13  1  0
 13 14  1  6
 13 15  1  0
 15 16  1  0
 16 17  1  0
 17 18  2  0
 18 19  1  0
 19 20  1  0
 20 21  1  0
 21 22  1  0
 22 23  1  0
 22 24  1  0
 24 25  1  0
 24 26  1  0
 19 27  1  0
 27 28  1  1
 27 29  1  0
 29 30  1  0
 30 31  1  0
 31 32  1  1
  7  5  1  0
 31 10  1  0
 31 13  1  0
 27 15  1  0
 24 18  1  0
  1 33  1  0
  1 34  1  0
  1 35  1  0
  2 36  1  1
  3 37  1  0
  3 38  1  0
  4 39  1  0
  4 40  1  0
  5 41  1  1
  8 42  1  0
  8 43  1  0
  8 44  1  0
  9 45  1  0
  9 46  1  0
  9 47  1  0
 10 48  1  6
 11 49  1  0
 11 50  1  0
 12 51  1  0
 12 52  1  0
 14 53  1  0
 14 54  1  0
 14 55  1  0
 15 56  1  1
 16 57  1  0
 16 58  1  0
 17 59  1  0
 19 60  1  6
 20 61  1  0
 20 62  1  0
 21 63  1  0
 21 64  1  0
 22 65  1  6
 23 66  1  0
 25 67  1  0
 25 68  1  0
 25 69  1  0
 26 70  1  0
 26 71  1  0
 26 72  1  0
 28 73  1  0
 28 74  1  0
 28 75  1  0
 29 76  1  0
 29 77  1  0
 30 78  1  0
 30 79  1  0
 32 80  1  0
 32 81  1  0
 32 82  1  0
M  END
>  <meeko>  (14) 
{"is_sidechain": [false], "intermolecular_energy": 2.731, "internal_energy": -0.839}

$$$$
EPH_relaxed_0001_pdb2pqr_Repair_113_r2_0001_out
     RDKit          3D

 82 86  0  0  0  0  0  0  0  0999 V2000
   -1.6670    7.8090   -1.9020 C   0  0  0  0  0  0  0  0  0  0  0  0
   -1.8910    8.5430   -0.5770 C   0  0  2  0  0  0  0  0  0  0  0  0
   -3.3670    8.5030   -0.1330 C   0  0  0  0  0  0  0  0  0  0  0  0
   -4.3610    8.6000   -1.2920 C   0  0  0  0  0  0  0  0  0  0  0  0
   -5.6620    7.9300   -0.9650 C   0  0  2  0  0  0  0  0  0  0  0  0
   -5.5660    6.8790    0.0050 O   0  0  0  0  0  0  0  0  0  0  0  0
   -5.9720    6.4870   -1.3170 C   0  0  0  0  0  0  0  0  0  0  0  0
   -4.9760    5.6270   -2.0290 C   0  0  0  0  0  0  0  0  0  0  0  0
   -7.4050    6.0650   -1.4070 C   0  0  0  0  0  0  0  0  0  0  0  0
   -1.4230    9.9890   -0.6980 C   0  0  1  0  0  0  0  0  0  0  0  0
   -1.0190   10.6020    0.6690 C   0  0  0  0  0  0  0  0  0  0  0  0
    0.1660   11.5640    0.3950 C   0  0  0  0  0  0  0  0  0  0  0  0
    0.1880   11.7270   -1.1430 C   0  0  1  0  0  0  0  0  0  0  0  0
   -0.9110   12.7910   -1.4500 C   0  0  0  0  0  0  0  0  0  0  0  0
    1.5630   12.1180   -1.7770 C   0  0  2  0  0  0  0  0  0  0  0  0
    2.1200   13.4820   -1.3350 C   0  0  0  0  0  0  0  0  0  0  0  0
    1.7170   14.6420   -2.1850 C   0  0  0  0  0  0  0  0  0  0  0  0
    1.1770   14.5590   -3.4150 C   0  0  0  0  0  0  0  0  0  0  0  0
    1.0120   13.2030   -4.1130 C   0  0  1  0  0  0  0  0  0  0  0  0
    1.5120   13.3110   -5.5780 C   0  0  0  0  0  0  0  0  0  0  0  0
    0.8420   14.4470   -6.3440 C   0  0  0  0  0  0  0  0  0  0  0  0
    1.0780   15.7860   -5.6500 C   0  0  2  0  0  0  0  0  0  0  0  0
    2.4700   16.1060   -5.7270 O   0  0  0  0  0  0  0  0  0  0  0  0
    0.6210   15.7950   -4.1640 C   0  0  0  0  0  0  0  0  0  0  0  0
   -0.9260   15.7500   -4.0950 C   0  0  0  0  0  0  0  0  0  0  0  0
    1.0440   17.1540   -3.5430 C   0  0  0  0  0  0  0  0  0  0  0  0
    1.6230   11.9510   -3.3500 C   0  0  1  0  0  0  0  0  0  0  0  0
    3.1280   11.7830   -3.7220 C   0  0  0  0  0  0  0  0  0  0  0  0
    0.8950   10.6440   -3.8400 C   0  0  0  0  0  0  0  0  0  0  0  0
   -0.3940   10.2450   -3.0960 C   0  0  0  0  0  0  0  0  0  0  0  0
   -0.1790   10.2620   -1.5800 C   0  0  2  0  0  0  0  0  0  0  0  0
    0.9070    9.1850   -1.2390 C   0  0  0  0  0  0  0  0  0  0  0  0
   -1.3514    6.7749   -1.6995 H   0  0  0  0  0  0  0  0  0  0  0  0
   -2.6034    7.8003   -2.4792 H   0  0  0  0  0  0  0  0  0  0  0  0
   -0.8853    8.3246   -2.4792 H   0  0  0  0  0  0  0  0  0  0  0  0
   -1.3005    8.0239    0.1923 H   0  0  0  0  0  0  0  0  0  0  0  0
   -3.5443    7.5562    0.3982 H   0  0  0  0  0  0  0  0  0  0  0  0
   -3.5338    9.3814    0.5077 H   0  0  0  0  0  0  0  0  0  0  0  0
   -4.5516    9.6612   -1.5102 H   0  0  0  0  0  0  0  0  0  0  0  0
   -3.9227    8.0908   -2.1629 H   0  0  0  0  0  0  0  0  0  0  0  0
   -6.2143    8.8657   -1.1364 H   0  0  0  0  0  0  0  0  0  0  0  0
   -4.3584    5.0937   -1.2914 H   0  0  0  0  0  0  0  0  0  0  0  0
   -5.5057    4.8977   -2.6596 H   0  0  0  0  0  0  0  0  0  0  0  0
   -4.3317    6.2573   -2.6596 H   0  0  0  0  0  0  0  0  0  0  0  0
   -7.8159    5.9440   -0.3938 H   0  0  0  0  0  0  0  0  0  0  0  0
   -7.9799    6.8320   -1.9467 H   0  0  0  0  0  0  0  0  0  0  0  0
   -7.4725    5.1089   -1.9467 H   0  0  0  0  0  0  0  0  0  0  0  0
   -2.3165   10.4345   -1.1599 H   0  0  0  0  0  0  0  0  0  0  0  0
   -1.8653   11.1567    1.1004 H   0  0  0  0  0  0  0  0  0  0  0  0
   -0.7333    9.8172    1.3849 H   0  0  0  0  0  0  0  0  0  0  0  0
    0.0002   12.5342    0.8861 H   0  0  0  0  0  0  0  0  0  0  0  0
    1.1177   11.1762    0.7872 H   0  0  0  0  0  0  0  0  0  0  0  0
   -1.3159   13.1830   -0.5053 H   0  0  0  0  0  0  0  0  0  0  0  0
   -0.4713   13.6154   -2.0306 H   0  0  0  0  0  0  0  0  0  0  0  0
   -1.7207   12.3248   -2.0306 H   0  0  0  0  0  0  0  0  0  0  0  0
    2.2422   11.3652   -1.3505 H   0  0  0  0  0  0  0  0  0  0  0  0
    1.7719   13.6750   -0.3095 H   0  0  0  0  0  0  0  0  0  0  0  0
    3.2139   13.4065   -1.4224 H   0  0  0  0  0  0  0  0  0  0  0  0
    1.8748   15.6488   -1.7710 H   0  0  0  0  0  0  0  0  0  0  0  0
   -0.0660   12.9842   -4.1015 H   0  0  0  0  0  0  0  0  0  0  0  0
    2.5980   13.4855   -5.5677 H   0  0  0  0  0  0  0  0  0  0  0  0
    1.2572   12.3699   -6.0873 H   0  0  0  0  0  0  0  0  0  0  0  0
    1.2586   14.4903   -7.3611 H   0  0  0  0  0  0  0  0  0  0  0  0
   -0.2407   14.2559   -6.3798 H   0  0  0  0  0  0  0  0  0  0  0  0
    0.4679   16.5391   -6.1702 H   0  0  0  0  0  0  0  0  0  0  0  0
    2.5500   16.9680   -6.1700 H   0  0  0  0  0  0  0  0  0  0  0  0
   -1.2460   15.7407   -3.0426 H   0  0  0  0  0  0  0  0  0  0  0  0
   -1.3414   16.6364   -4.5967 H   0  0  0  0  0  0  0  0  0  0  0  0
   -1.2891   14.8409   -4.5967 H   0  0  0  0  0  0  0  0  0  0  0  0
    1.0206   17.0789   -2.4458 H   0  0  0  0  0  0  0  0  0  0  0  0
    2.0631   17.4060   -3.8716 H   0  0  0  0  0  0  0  0  0  0  0  0
    0.3479   17.9398   -3.8716 H   0  0  0  0  0  0  0  0  0  0  0  0
    3.7278   11.7161   -2.8023 H   0  0  0  0  0  0  0  0  0  0  0  0
    3.2593   10.8646   -4.3130 H   0  0  0  0  0  0  0  0  0  0  0  0
    3.4586   12.6498   -4.3130 H   0  0  0  0  0  0  0  0  0  0  0  0
    0.6372   10.7844   -4.9001 H   0  0  0  0  0  0  0  0  0  0  0  0
    1.6055    9.8279   -3.6419 H   0  0  0  0  0  0  0  0  0  0  0  0
   -1.1931   10.9554   -3.3542 H   0  0  0  0  0  0  0  0  0  0  0  0
   -0.6729    9.2251   -3.3994 H   0  0  0  0  0  0  0  0  0  0  0  0
    1.0009    9.0919   -0.1470 H   0  0  0  0  0  0  0  0  0  0  0  0
    0.6088    8.2158   -1.6653 H   0  0  0  0  0  0  0  0  0  0  0  0
    1.8737    9.4913   -1.6653 H   0  0  0  0  0  0  0  0  0  0  0  0
  1  2  1  0
  2  3  1  0
  3  4  1  0
  4  5  1  0
  5  6  1  0
  6  7  1  0
  7  8  1  0
  7  9  1  0
  2 10  1  0
 10 11  1  0
 11 12  1  0
 12 13  1  0
 13 14  1  1
 13 15  1  0
 15 16  1  0
 16 17  1  0
 17 18  2  0
 18 19  1  0
 19 20  1  0
 20 21  1  0
 21 22  1  0
 22 23  1  0
 22 24  1  0
 24 25  1  0
 24 26  1  0
 19 27  1  0
 27 28  1  6
 27 29  1  0
 29 30  1  0
 30 31  1  0
 31 32  1  6
  7  5  1  0
 31 10  1  0
 31 13  1  0
 27 15  1  0
 24 18  1  0
  1 33  1  0
  1 34  1  0
  1 35  1  0
  2 36  1  1
  3 37  1  0
  3 38  1  0
  4 39  1  0
  4 40  1  0
  5 41  1  1
  8 42  1  0
  8 43  1  0
  8 44  1  0
  9 45  1  0
  9 46  1  0
  9 47  1  0
 10 48  1  6
 11 49  1  0
 11 50  1  0
 12 51  1  0
 12 52  1  0
 14 53  1  0
 14 54  1  0
 14 55  1  0
 15 56  1  1
 16 57  1  0
 16 58  1  0
 17 59  1  0
 19 60  1  6
 20 61  1  0
 20 62  1  0
 21 63  1  0
 21 64  1  0
 22 65  1  6
 23 66  1  0
 25 67  1  0
 25 68  1  0
 25 69  1  0
 26 70  1  0
 26 71  1  0
 26 72  1  0
 28 73  1  0
 28 74  1  0
 28 75  1  0
 29 76  1  0
 29 77  1  0
 30 78  1  0
 30 79  1  0
 32 80  1  0
 32 81  1  0
 32 82  1  0
M  END
>  <meeko>  (15) 
{"is_sidechain": [false], "intermolecular_energy": 2.731, "internal_energy": -0.839}

$$$$
EPH_relaxed_0001_pdb2pqr_Repair_113_r2_0001_out
     RDKit          3D

 82 86  0  0  0  0  0  0  0  0999 V2000
    0.9950    9.6180    0.6460 C   0  0  0  0  0  0  0  0  0  0  0  0
    0.1490   10.2270   -0.4750 C   0  0  2  0  0  0  0  0  0  0  0  0
   -0.1740    9.2040   -1.5810 C   0  0  0  0  0  0  0  0  0  0  0  0
   -1.5020    8.4700   -1.3730 C   0  0  0  0  0  0  0  0  0  0  0  0
   -2.5850    9.4020   -0.9180 C   0  0  2  0  0  0  0  0  0  0  0  0
   -3.1350    9.0970    0.3700 O   0  0  0  0  0  0  0  0  0  0  0  0
   -4.0320    8.9810   -0.7460 C   0  0  0  0  0  0  0  0  0  0  0  0
   -4.4770    7.5800   -1.0270 C   0  0  0  0  0  0  0  0  0  0  0  0
   -5.0930   10.0370   -0.7790 C   0  0  0  0  0  0  0  0  0  0  0  0
    0.8670   11.4310   -1.0730 C   0  0  1  0  0  0  0  0  0  0  0  0
    1.1860   11.2490   -2.5800 C   0  0  0  0  0  0  0  0  0  0  0  0
    1.0500   12.6460   -3.2390 C   0  0  0  0  0  0  0  0  0  0  0  0
    0.9870   13.6330   -2.0500 C   0  0  1  0  0  0  0  0  0  0  0  0
    2.4730   13.8400   -1.6210 C   0  0  0  0  0  0  0  0  0  0  0  0
    0.2680   14.9950   -2.3210 C   0  0  2  0  0  0  0  0  0  0  0  0
    0.9280   15.8790   -3.3930 C   0  0  0  0  0  0  0  0  0  0  0  0
    1.9520   16.8400   -2.8870 C   0  0  0  0  0  0  0  0  0  0  0  0
    2.1250   17.1910   -1.5990 C   0  0  0  0  0  0  0  0  0  0  0  0
    1.1770   16.6760   -0.5080 C   0  0  1  0  0  0  0  0  0  0  0  0
    0.7570   17.8540    0.4100 C   0  0  0  0  0  0  0  0  0  0  0  0
    1.9540   18.6060    0.9840 C   0  0  0  0  0  0  0  0  0  0  0  0
    2.8410   19.1520   -0.1320 C   0  0  2  0  0  0  0  0  0  0  0  0
    2.1190   20.1630   -0.8410 O   0  0  0  0  0  0  0  0  0  0  0  0
    3.3190   18.0570   -1.1260 C   0  0  0  0  0  0  0  0  0  0  0  0
    4.3440   17.1300   -0.4260 C   0  0  0  0  0  0  0  0  0  0  0  0
    4.0860   18.7600   -2.2790 C   0  0  0  0  0  0  0  0  0  0  0  0
   -0.0640   15.8230   -1.0140 C   0  0  1  0  0  0  0  0  0  0  0  0
   -1.2480   16.7700   -1.3760 C   0  0  0  0  0  0  0  0  0  0  0  0
   -0.5720   14.9070    0.1620 C   0  0  0  0  0  0  0  0  0  0  0  0
    0.0940   13.5250    0.3040 C   0  0  0  0  0  0  0  0  0  0  0  0
    0.1250   12.7910   -1.0400 C   0  0  2  0  0  0  0  0  0  0  0  0
   -1.3570   12.5480   -1.4860 C   0  0  0  0  0  0  0  0  0  0  0  0
    0.5813    9.9158    1.6207 H   0  0  0  0  0  0  0  0  0  0  0  0
    0.9811    8.5213    0.5614 H   0  0  0  0  0  0  0  0  0  0  0  0
    2.0306    9.9792    0.5614 H   0  0  0  0  0  0  0  0  0  0  0  0
   -0.8060   10.5458   -0.0318 H   0  0  0  0  0  0  0  0  0  0  0  0
   -0.2180    9.7353   -2.5432 H   0  0  0  0  0  0  0  0  0  0  0  0
    0.6204    8.4435   -1.5570 H   0  0  0  0  0  0  0  0  0  0  0  0
   -1.8061    8.0069   -2.3233 H   0  0  0  0  0  0  0  0  0  0  0  0
   -1.3546    7.7085   -0.5930 H   0  0  0  0  0  0  0  0  0  0  0  0
   -2.1197   10.2426   -1.4537 H   0  0  0  0  0  0  0  0  0  0  0  0
   -4.6450    7.0512   -0.0772 H   0  0  0  0  0  0  0  0  0  0  0  0
   -5.4126    7.6014   -1.6052 H   0  0  0  0  0  0  0  0  0  0  0  0
   -3.7006    7.0577   -1.6052 H   0  0  0  0  0  0  0  0  0  0  0  0
   -5.3690   10.3117    0.2498 H   0  0  0  0  0  0  0  0  0  0  0  0
   -4.7111   10.9241   -1.3055 H   0  0  0  0  0  0  0  0  0  0  0  0
   -5.9783    9.6510   -1.3055 H   0  0  0  0  0  0  0  0  0  0  0  0
    1.7467   11.4661   -0.4136 H   0  0  0  0  0  0  0  0  0  0  0  0
    2.2103   10.8686   -2.7069 H   0  0  0  0  0  0  0  0  0  0  0  0
    0.4996   10.5254   -3.0440 H   0  0  0  0  0  0  0  0  0  0  0  0
    1.9201   12.8611   -3.8767 H   0  0  0  0  0  0  0  0  0  0  0  0
    0.1646   12.7170   -3.8878 H   0  0  0  0  0  0  0  0  0  0  0  0
    2.5398   13.8493   -0.5231 H   0  0  0  0  0  0  0  0  0  0  0  0
    3.0873   13.0188   -2.0188 H   0  0  0  0  0  0  0  0  0  0  0  0
    2.8394   14.7979   -2.0188 H   0  0  0  0  0  0  0  0  0  0  0  0
   -0.6931   14.6738   -2.7489 H   0  0  0  0  0  0  0  0  0  0  0  0
    1.4149   15.2183   -4.1254 H   0  0  0  0  0  0  0  0  0  0  0  0
    0.1208   16.4923   -3.8200 H   0  0  0  0  0  0  0  0  0  0  0  0
    2.6214   17.3000   -3.6289 H   0  0  0  0  0  0  0  0  0  0  0  0
    1.7512   15.9378    0.0712 H   0  0  0  0  0  0  0  0  0  0  0  0
    0.1471   18.5573   -0.1761 H   0  0  0  0  0  0  0  0  0  0  0  0
    0.1917   17.4331    1.2546 H   0  0  0  0  0  0  0  0  0  0  0  0
    1.5921   19.4434    1.5986 H   0  0  0  0  0  0  0  0  0  0  0  0
    2.5468   17.9090    1.5946 H   0  0  0  0  0  0  0  0  0  0  0  0
    3.7457   19.5652    0.3378 H   0  0  0  0  0  0  0  0  0  0  0  0
    1.4070   19.7240   -1.3370 H   0  0  0  0  0  0  0  0  0  0  0  0
    4.2390   17.2249    0.6649 H   0  0  0  0  0  0  0  0  0  0  0  0
    4.1579   16.0873   -0.7229 H   0  0  0  0  0  0  0  0  0  0  0  0
    5.3628   17.4196   -0.7229 H   0  0  0  0  0  0  0  0  0  0  0  0
    4.8347   19.4462   -1.8564 H   0  0  0  0  0  0  0  0  0  0  0  0
    4.5901   18.0037   -2.8986 H   0  0  0  0  0  0  0  0  0  0  0  0
    3.3764   19.3280   -2.8986 H   0  0  0  0  0  0  0  0  0  0  0  0
   -1.7146   17.1432   -0.4524 H   0  0  0  0  0  0  0  0  0  0  0  0
   -0.8715   17.6189   -1.9655 H   0  0  0  0  0  0  0  0  0  0  0  0
   -1.9935   16.2162   -1.9655 H   0  0  0  0  0  0  0  0  0  0  0  0
   -0.4094   15.4529    1.1030 H   0  0  0  0  0  0  0  0  0  0  0  0
   -1.6257   14.6958   -0.0725 H   0  0  0  0  0  0  0  0  0  0  0  0
    1.1244   13.6575    0.6656 H   0  0  0  0  0  0  0  0  0  0  0  0
   -0.4903   12.9256    1.0177 H   0  0  0  0  0  0  0  0  0  0  0  0
   -1.9952   12.4434   -0.5962 H   0  0  0  0  0  0  0  0  0  0  0  0
   -1.7035   13.4013   -2.0875 H   0  0  0  0  0  0  0  0  0  0  0  0
   -1.4129   11.6287   -2.0875 H   0  0  0  0  0  0  0  0  0  0  0  0
  1  2  1  0
  2  3  1  0
  3  4  1  0
  4  5  1  0
  5  6  1  0
  6  7  1  0
  7  8  1  0
  7  9  1  0
  2 10  1  0
 10 11  1  0
 11 12  1  0
 12 13  1  0
 13 14  1  1
 13 15  1  0
 15 16  1  0
 16 17  1  0
 17 18  2  0
 18 19  1  0
 19 20  1  0
 20 21  1  0
 21 22  1  0
 22 23  1  0
 22 24  1  0
 24 25  1  0
 24 26  1  0
 19 27  1  0
 27 28  1  6
 27 29  1  0
 29 30  1  0
 30 31  1  0
 31 32  1  6
  7  5  1  0
 31 10  1  0
 31 13  1  0
 27 15  1  0
 24 18  1  0
  1 33  1  0
  1 34  1  0
  1 35  1  0
  2 36  1  1
  3 37  1  0
  3 38  1  0
  4 39  1  0
  4 40  1  0
  5 41  1  1
  8 42  1  0
  8 43  1  0
  8 44  1  0
  9 45  1  0
  9 46  1  0
  9 47  1  0
 10 48  1  1
 11 49  1  0
 11 50  1  0
 12 51  1  0
 12 52  1  0
 14 53  1  0
 14 54  1  0
 14 55  1  0
 15 56  1  6
 16 57  1  0
 16 58  1  0
 17 59  1  0
 19 60  1  1
 20 61  1  0
 20 62  1  0
 21 63  1  0
 21 64  1  0
 22 65  1  1
 23 66  1  0
 25 67  1  0
 25 68  1  0
 25 69  1  0
 26 70  1  0
 26 71  1  0
 26 72  1  0
 28 73  1  0
 28 74  1  0
 28 75  1  0
 29 76  1  0
 29 77  1  0
 30 78  1  0
 30 79  1  0
 32 80  1  0
 32 81  1  0
 32 82  1  0
M  END
>  <meeko>  (16) 
{"is_sidechain": [false], "intermolecular_energy": 2.731, "internal_energy": -0.839}

$$$$
EPH_relaxed_0001_pdb2pqr_Repair_113_r2_0001_out
     RDKit          3D

 82 86  0  0  0  0  0  0  0  0999 V2000
   -0.7180   18.7000   -2.0490 C   0  0  0  0  0  0  0  0  0  0  0  0
    0.5830   18.5080   -1.2650 C   0  0  2  0  0  0  0  0  0  0  0  0
    1.6280   19.5930   -1.5990 C   0  0  0  0  0  0  0  0  0  0  0  0
    2.3400   20.1610   -0.3690 C   0  0  0  0  0  0  0  0  0  0  0  0
    2.6180   19.0980    0.6510 C   0  0  2  0  0  0  0  0  0  0  0  0
    2.5490   19.5410    2.0120 O   0  0  0  0  0  0  0  0  0  0  0  0
    3.8380   19.1030    1.5530 C   0  0  0  0  0  0  0  0  0  0  0  0
    4.8600   20.1930    1.4770 C   0  0  0  0  0  0  0  0  0  0  0  0
    4.2850   17.8090    2.1580 C   0  0  0  0  0  0  0  0  0  0  0  0
    1.1600   17.1260   -1.5460 C   0  0  1  0  0  0  0  0  0  0  0  0
    2.7120   17.1150   -1.5500 C   0  0  0  0  0  0  0  0  0  0  0  0
    3.1520   15.7490   -0.9640 C   0  0  0  0  0  0  0  0  0  0  0  0
    1.8610   14.8960   -0.9530 C   0  0  1  0  0  0  0  0  0  0  0  0
    1.7180   14.3660   -2.4140 C   0  0  0  0  0  0  0  0  0  0  0  0
    1.8110   13.7330    0.0910 C   0  0  2  0  0  0  0  0  0  0  0  0
    2.8770   12.6400   -0.0980 C   0  0  0  0  0  0  0  0  0  0  0  0
    2.4720   11.4980   -0.9710 C   0  0  0  0  0  0  0  0  0  0  0  0
    1.2120   11.2110   -1.3480 C   0  0  0  0  0  0  0  0  0  0  0  0
    0.0240   12.0180   -0.8080 C   0  0  1  0  0  0  0  0  0  0  0  0
   -1.0980   11.0480   -0.3550 C   0  0  0  0  0  0  0  0  0  0  0  0
   -1.5070   10.0720   -1.4540 C   0  0  0  0  0  0  0  0  0  0  0  0
   -0.3120    9.2470   -1.9240 C   0  0  2  0  0  0  0  0  0  0  0  0
    0.1070    8.3920   -0.8560 O   0  0  0  0  0  0  0  0  0  0  0  0
    0.8860   10.1180   -2.3960 C   0  0  0  0  0  0  0  0  0  0  0  0
    0.5280   10.8160   -3.7310 C   0  0  0  0  0  0  0  0  0  0  0  0
    2.0740    9.1680   -2.7080 C   0  0  0  0  0  0  0  0  0  0  0  0
    0.3710   13.1080    0.2950 C   0  0  1  0  0  0  0  0  0  0  0  0
    0.3670   12.4520    1.7100 C   0  0  0  0  0  0  0  0  0  0  0  0
   -0.7600   14.2030    0.3100 C   0  0  0  0  0  0  0  0  0  0  0  0
   -0.5920   15.3880   -0.6600 C   0  0  0  0  0  0  0  0  0  0  0  0
    0.8100   15.9930   -0.5490 C   0  0  2  0  0  0  0  0  0  0  0  0
    0.9750   16.5550    0.9040 C   0  0  0  0  0  0  0  0  0  0  0  0
   -1.5549   18.8235   -1.3460 H   0  0  0  0  0  0  0  0  0  0  0  0
   -0.6358   19.5957   -2.6822 H   0  0  0  0  0  0  0  0  0  0  0  0
   -0.8980   17.8187   -2.6822 H   0  0  0  0  0  0  0  0  0  0  0  0
    0.3415   18.5998   -0.1958 H   0  0  0  0  0  0  0  0  0  0  0  0
    2.3843   19.1532   -2.2658 H   0  0  0  0  0  0  0  0  0  0  0  0
    1.0866   20.4264   -2.0704 H   0  0  0  0  0  0  0  0  0  0  0  0
    3.2932   20.6102   -0.6846 H   0  0  0  0  0  0  0  0  0  0  0  0
    1.6826   20.9137    0.0906 H   0  0  0  0  0  0  0  0  0  0  0  0
    2.1865   18.3254   -0.0024 H   0  0  0  0  0  0  0  0  0  0  0  0
    5.1465   20.4986    2.4941 H   0  0  0  0  0  0  0  0  0  0  0  0
    5.7476   19.8266    0.9405 H   0  0  0  0  0  0  0  0  0  0  0  0
    4.4373   21.0552    0.9405 H   0  0  0  0  0  0  0  0  0  0  0  0
    4.2576   17.8882    3.2548 H   0  0  0  0  0  0  0  0  0  0  0  0
    3.6140   17.0006    1.8319 H   0  0  0  0  0  0  0  0  0  0  0  0
    5.3119   17.5871    1.8319 H   0  0  0  0  0  0  0  0  0  0  0  0
    0.6926   16.9267   -2.5216 H   0  0  0  0  0  0  0  0  0  0  0  0
    3.0888   17.2252   -2.5776 H   0  0  0  0  0  0  0  0  0  0  0  0
    3.1140   17.9478   -0.9543 H   0  0  0  0  0  0  0  0  0  0  0  0
    3.9200   15.2832   -1.5989 H   0  0  0  0  0  0  0  0  0  0  0  0
    3.5957   15.8478    0.0377 H   0  0  0  0  0  0  0  0  0  0  0  0
    1.4315   13.3042   -2.3925 H   0  0  0  0  0  0  0  0  0  0  0  0
    0.9437   14.9441   -2.9396 H   0  0  0  0  0  0  0  0  0  0  0  0
    2.6780   14.4762   -2.9396 H   0  0  0  0  0  0  0  0  0  0  0  0
    2.0728   14.2453    1.0286 H   0  0  0  0  0  0  0  0  0  0  0  0
    3.7683   13.1076   -0.5418 H   0  0  0  0  0  0  0  0  0  0  0  0
    3.0544   12.2122    0.8998 H   0  0  0  0  0  0  0  0  0  0  0  0
    3.2705   10.8357   -1.3367 H   0  0  0  0  0  0  0  0  0  0  0  0
   -0.3320   12.6338   -1.6471 H   0  0  0  0  0  0  0  0  0  0  0  0
   -0.7386   10.4731    0.5112 H   0  0  0  0  0  0  0  0  0  0  0  0
   -1.9804   11.6537   -0.1012 H   0  0  0  0  0  0  0  0  0  0  0  0
   -2.2810    9.3946   -1.0640 H   0  0  0  0  0  0  0  0  0  0  0  0
   -1.8939   10.6473   -2.3080 H   0  0  0  0  0  0  0  0  0  0  0  0
   -0.6381    8.6620   -2.7966 H   0  0  0  0  0  0  0  0  0  0  0  0
    1.0640    8.5140   -0.7390 H   0  0  0  0  0  0  0  0  0  0  0  0
    0.0352   11.7769   -3.5217 H   0  0  0  0  0  0  0  0  0  0  0  0
    1.4464   10.9934   -4.3098 H   0  0  0  0  0  0  0  0  0  0  0  0
   -0.1519   10.1736   -4.3098 H   0  0  0  0  0  0  0  0  0  0  0  0
    2.5173    8.8135   -1.7657 H   0  0  0  0  0  0  0  0  0  0  0  0
    1.7122    8.3073   -3.2896 H   0  0  0  0  0  0  0  0  0  0  0  0
    2.8341    9.7102   -3.2896 H   0  0  0  0  0  0  0  0  0  0  0  0
    0.3718   13.2387    2.4789 H   0  0  0  0  0  0  0  0  0  0  0  0
   -0.5349   11.8328    1.8246 H   0  0  0  0  0  0  0  0  0  0  0  0
    1.2613   11.8219    1.8246 H   0  0  0  0  0  0  0  0  0  0  0  0
   -1.7094   13.7043    0.0650 H   0  0  0  0  0  0  0  0  0  0  0  0
   -0.7185   14.6461    1.3159 H   0  0  0  0  0  0  0  0  0  0  0  0
   -0.7512   15.0354   -1.6897 H   0  0  0  0  0  0  0  0  0  0  0  0
   -1.3293   16.1616   -0.3994 H   0  0  0  0  0  0  0  0  0  0  0  0
    0.7427   15.7636    1.6318 H   0  0  0  0  0  0  0  0  0  0  0  0
    2.0109   16.8950    1.0502 H   0  0  0  0  0  0  0  0  0  0  0  0
    0.2873   17.4010    1.0502 H   0  0  0  0  0  0  0  0  0  0  0  0
  1  2  1  0
  2  3  1  0
  3  4  1  0
  4  5  1  0
  5  6  1  0
  6  7  1  0
  7  8  1  0
  7  9  1  0
  2 10  1  0
 10 11  1  0
 11 12  1  0
 12 13  1  0
 13 14  1  6
 13 15  1  0
 15 16  1  0
 16 17  1  0
 17 18  2  0
 18 19  1  0
 19 20  1  0
 20 21  1  0
 21 22  1  0
 22 23  1  0
 22 24  1  0
 24 25  1  0
 24 26  1  0
 19 27  1  0
 27 28  1  1
 27 29  1  0
 29 30  1  0
 30 31  1  0
 31 32  1  1
  7  5  1  0
 31 10  1  0
 31 13  1  0
 27 15  1  0
 24 18  1  0
  1 33  1  0
  1 34  1  0
  1 35  1  0
  2 36  1  1
  3 37  1  0
  3 38  1  0
  4 39  1  0
  4 40  1  0
  5 41  1  1
  8 42  1  0
  8 43  1  0
  8 44  1  0
  9 45  1  0
  9 46  1  0
  9 47  1  0
 10 48  1  6
 11 49  1  0
 11 50  1  0
 12 51  1  0
 12 52  1  0
 14 53  1  0
 14 54  1  0
 14 55  1  0
 15 56  1  1
 16 57  1  0
 16 58  1  0
 17 59  1  0
 19 60  1  6
 20 61  1  0
 20 62  1  0
 21 63  1  0
 21 64  1  0
 22 65  1  6
 23 66  1  0
 25 67  1  0
 25 68  1  0
 25 69  1  0
 26 70  1  0
 26 71  1  0
 26 72  1  0
 28 73  1  0
 28 74  1  0
 28 75  1  0
 29 76  1  0
 29 77  1  0
 30 78  1  0
 30 79  1  0
 32 80  1  0
 32 81  1  0
 32 82  1  0
M  END
>  <meeko>  (17) 
{"is_sidechain": [false], "intermolecular_energy": 2.731, "internal_energy": -0.839}

$$$$
EPH_relaxed_0001_pdb2pqr_Repair_113_r2_0001_out
     RDKit          3D

 82 86  0  0  0  0  0  0  0  0999 V2000
    0.3990    9.9050   -4.3860 C   0  0  0  0  0  0  0  0  0  0  0  0
    1.3820   10.7560   -3.5770 C   0  0  2  0  0  0  0  0  0  0  0  0
    1.9640    9.9860   -2.3740 C   0  0  0  0  0  0  0  0  0  0  0  0
    1.1120    8.7900   -1.9390 C   0  0  0  0  0  0  0  0  0  0  0  0
    0.1140    9.1730   -0.8890 C   0  0  2  0  0  0  0  0  0  0  0  0
   -0.4390    8.0710   -0.1580 O   0  0  0  0  0  0  0  0  0  0  0  0
   -1.3600    8.8210   -0.9670 C   0  0  0  0  0  0  0  0  0  0  0  0
   -1.9180    8.0530   -2.1240 C   0  0  0  0  0  0  0  0  0  0  0  0
   -2.3340    9.6360   -0.1750 C   0  0  0  0  0  0  0  0  0  0  0  0
    0.6950   12.0290   -3.0970 C   0  0  1  0  0  0  0  0  0  0  0  0
   -0.6960   11.7560   -2.4670 C   0  0  0  0  0  0  0  0  0  0  0  0
   -0.8750   12.7800   -1.3160 C   0  0  0  0  0  0  0  0  0  0  0  0
    0.2570   13.8110   -1.5330 C   0  0  1  0  0  0  0  0  0  0  0  0
   -0.2820   14.7710   -2.6400 C   0  0  0  0  0  0  0  0  0  0  0  0
    0.7270   14.5970   -0.2660 C   0  0  2  0  0  0  0  0  0  0  0  0
   -0.3480   15.4820    0.3890 C   0  0  0  0  0  0  0  0  0  0  0  0
   -0.4110   16.8870   -0.1140 C   0  0  0  0  0  0  0  0  0  0  0  0
    0.5400   17.5000   -0.8430 C   0  0  0  0  0  0  0  0  0  0  0  0
    1.8700   16.8000   -1.1510 C   0  0  1  0  0  0  0  0  0  0  0  0
    3.0440   17.7780   -0.8850 C   0  0  0  0  0  0  0  0  0  0  0  0
    2.8900   19.0960   -1.6390 C   0  0  0  0  0  0  0  0  0  0  0  0
    1.5830   19.7900   -1.2620 C   0  0  2  0  0  0  0  0  0  0  0  0
    1.6550   20.1940    0.1080 O   0  0  0  0  0  0  0  0  0  0  0  0
    0.3300   18.8960   -1.4790 C   0  0  0  0  0  0  0  0  0  0  0  0
    0.0810   18.7070   -2.9960 C   0  0  0  0  0  0  0  0  0  0  0  0
   -0.9030   19.6620   -0.9290 C   0  0  0  0  0  0  0  0  0  0  0  0
    2.0860   15.3850   -0.4590 C   0  0  1  0  0  0  0  0  0  0  0  0
    2.6960   15.5760    0.9630 C   0  0  0  0  0  0  0  0  0  0  0  0
    3.1420   14.5630   -1.2880 C   0  0  0  0  0  0  0  0  0  0  0  0
    2.6000   13.7120   -2.4530 C   0  0  0  0  0  0  0  0  0  0  0  0
    1.4140   12.8550   -2.0010 C   0  0  2  0  0  0  0  0  0  0  0  0
    1.9310   11.8640   -0.9030 C   0  0  0  0  0  0  0  0  0  0  0  0
   -0.2506    9.3426   -3.6992 H   0  0  0  0  0  0  0  0  0  0  0  0
   -0.2171   10.5596   -5.0200 H   0  0  0  0  0  0  0  0  0  0  0  0
    0.9586    9.2015   -5.0200 H   0  0  0  0  0  0  0  0  0  0  0  0
    2.2203   11.0135   -4.2410 H   0  0  0  0  0  0  0  0  0  0  0  0
    2.9642    9.6189   -2.6475 H   0  0  0  0  0  0  0  0  0  0  0  0
    1.9917   10.6866   -1.5264 H   0  0  0  0  0  0  0  0  0  0  0  0
    0.5749    8.3976   -2.8151 H   0  0  0  0  0  0  0  0  0  0  0  0
    1.7820    8.0284   -1.5136 H   0  0  0  0  0  0  0  0  0  0  0  0
    0.6368   10.1233   -0.7058 H   0  0  0  0  0  0  0  0  0  0  0  0
   -2.5260    7.2162   -1.7496 H   0  0  0  0  0  0  0  0  0  0  0  0
   -2.5457    8.7171   -2.7364 H   0  0  0  0  0  0  0  0  0  0  0  0
   -1.0925    7.6612   -2.7364 H   0  0  0  0  0  0  0  0  0  0  0  0
   -2.1517    9.4835    0.8990 H   0  0  0  0  0  0  0  0  0  0  0  0
   -2.2067   10.7006   -0.4210 H   0  0  0  0  0  0  0  0  0  0  0  0
   -3.3594    9.3229   -0.4210 H   0  0  0  0  0  0  0  0  0  0  0  0
    0.6736   12.5939   -4.0406 H   0  0  0  0  0  0  0  0  0  0  0  0
   -1.4861   11.8910   -3.2204 H   0  0  0  0  0  0  0  0  0  0  0  0
   -0.7638   10.7242   -2.0917 H   0  0  0  0  0  0  0  0  0  0  0  0
   -1.8600   13.2657   -1.3778 H   0  0  0  0  0  0  0  0  0  0  0  0
   -0.8243   12.3067   -0.3243 H   0  0  0  0  0  0  0  0  0  0  0  0
   -0.7686   15.6376   -2.1687 H   0  0  0  0  0  0  0  0  0  0  0  0
    0.5546   15.1156   -3.2656 H   0  0  0  0  0  0  0  0  0  0  0  0
   -1.0117   14.2362   -3.2656 H   0  0  0  0  0  0  0  0  0  0  0  0
    0.9264   13.7884    0.4526 H   0  0  0  0  0  0  0  0  0  0  0  0
   -1.3276   15.0136    0.2127 H   0  0  0  0  0  0  0  0  0  0  0  0
   -0.0780   15.5515    1.4531 H   0  0  0  0  0  0  0  0  0  0  0  0
   -1.3107   17.4700    0.1322 H   0  0  0  0  0  0  0  0  0  0  0  0
    1.8357   16.5396   -2.2192 H   0  0  0  0  0  0  0  0  0  0  0  0
    3.0876   17.9916    0.1932 H   0  0  0  0  0  0  0  0  0  0  0  0
    3.9670   17.2961   -1.2399 H   0  0  0  0  0  0  0  0  0  0  0  0
    3.7336   19.7556   -1.3874 H   0  0  0  0  0  0  0  0  0  0  0  0
    2.8767   18.8840   -2.7183 H   0  0  0  0  0  0  0  0  0  0  0  0
    1.4665   20.6588   -1.9266 H   0  0  0  0  0  0  0  0  0  0  0  0
    2.5910   20.1880    0.3680 H   0  0  0  0  0  0  0  0  0  0  0  0
   -0.7870   18.0481   -3.1458 H   0  0  0  0  0  0  0  0  0  0  0  0
   -0.1164   19.6847   -3.4598 H   0  0  0  0  0  0  0  0  0  0  0  0
    0.9696   18.2539   -3.4598 H   0  0  0  0  0  0  0  0  0  0  0  0
   -0.8821   19.6490    0.1707 H   0  0  0  0  0  0  0  0  0  0  0  0
   -0.8764   20.7028   -1.2840 H   0  0  0  0  0  0  0  0  0  0  0  0
   -1.8243   19.1770   -1.2840 H   0  0  0  0  0  0  0  0  0  0  0  0
    1.9368   15.3383    1.7226 H   0  0  0  0  0  0  0  0  0  0  0  0
    3.5592   14.9051    1.0848 H   0  0  0  0  0  0  0  0  0  0  0  0
    3.0224   16.6194    1.0848 H   0  0  0  0  0  0  0  0  0  0  0  0
    3.8660   15.2776   -1.7065 H   0  0  0  0  0  0  0  0  0  0  0  0
    3.5672   13.8399   -0.5764 H   0  0  0  0  0  0  0  0  0  0  0  0
    2.2733   14.3792   -3.2643 H   0  0  0  0  0  0  0  0  0  0  0  0
    3.4017   13.0447   -2.8023 H   0  0  0  0  0  0  0  0  0  0  0  0
    1.7158   12.2764    0.0938 H   0  0  0  0  0  0  0  0  0  0  0  0
    1.4238   10.8945   -1.0160 H   0  0  0  0  0  0  0  0  0  0  0  0
    3.0164   11.7253   -1.0160 H   0  0  0  0  0  0  0  0  0  0  0  0
  1  2  1  0
  2  3  1  0
  3  4  1  0
  4  5  1  0
  5  6  1  0
  6  7  1  0
  7  8  1  0
  7  9  1  0
  2 10  1  0
 10 11  1  0
 11 12  1  0
 12 13  1  0
 13 14  1  6
 13 15  1  0
 15 16  1  0
 16 17  1  0
 17 18  2  0
 18 19  1  0
 19 20  1  0
 20 21  1  0
 21 22  1  0
 22 23  1  0
 22 24  1  0
 24 25  1  0
 24 26  1  0
 19 27  1  0
 27 28  1  1
 27 29  1  0
 29 30  1  0
 30 31  1  0
 31 32  1  1
  7  5  1  0
 31 10  1  0
 31 13  1  0
 27 15  1  0
 24 18  1  0
  1 33  1  0
  1 34  1  0
  1 35  1  0
  2 36  1  6
  3 37  1  0
  3 38  1  0
  4 39  1  0
  4 40  1  0
  5 41  1  1
  8 42  1  0
  8 43  1  0
  8 44  1  0
  9 45  1  0
  9 46  1  0
  9 47  1  0
 10 48  1  6
 11 49  1  0
 11 50  1  0
 12 51  1  0
 12 52  1  0
 14 53  1  0
 14 54  1  0
 14 55  1  0
 15 56  1  1
 16 57  1  0
 16 58  1  0
 17 59  1  0
 19 60  1  6
 20 61  1  0
 20 62  1  0
 21 63  1  0
 21 64  1  0
 22 65  1  6
 23 66  1  0
 25 67  1  0
 25 68  1  0
 25 69  1  0
 26 70  1  0
 26 71  1  0
 26 72  1  0
 28 73  1  0
 28 74  1  0
 28 75  1  0
 29 76  1  0
 29 77  1  0
 30 78  1  0
 30 79  1  0
 32 80  1  0
 32 81  1  0
 32 82  1  0
M  END
>  <meeko>  (18) 
{"is_sidechain": [false], "intermolecular_energy": 2.731, "internal_energy": -0.839}

$$$$
