EPH_relaxed_0001_pdb2pqr_Repair_302_r2_0001_out
     RDKit          3D

 82 86  0  0  0  0  0  0  0  0999 V2000
    4.5640   17.6410   -0.7250 C   0  0  0  0  0  0  0  0  0  0  0  0
    3.1900   18.2440   -0.4180 C   0  0  2  0  0  0  0  0  0  0  0  0
    3.1380   18.8890    0.9810 C   0  0  0  0  0  0  0  0  0  0  0  0
    4.4000   18.6510    1.8160 C   0  0  0  0  0  0  0  0  0  0  0  0
    4.2550   19.1930    3.2050 C   0  0  2  0  0  0  0  0  0  0  0  0
    5.2180   20.1940    3.5610 O   0  0  0  0  0  0  0  0  0  0  0  0
    5.2780   18.9660    4.3030 C   0  0  0  0  0  0  0  0  0  0  0  0
    6.5200   18.1670    4.0580 C   0  0  0  0  0  0  0  0  0  0  0  0
    4.8410   19.1000    5.7280 C   0  0  0  0  0  0  0  0  0  0  0  0
    2.1140   17.1710   -0.5370 C   0  0  1  0  0  0  0  0  0  0  0  0
    0.7770   17.7260   -1.0970 C   0  0  0  0  0  0  0  0  0  0  0  0
    0.1550   16.6020   -1.9660 C   0  0  0  0  0  0  0  0  0  0  0  0
    0.9740   15.3380   -1.6130 C   0  0  1  0  0  0  0  0  0  0  0  0
    0.3570   14.8200   -0.2770 C   0  0  0  0  0  0  0  0  0  0  0  0
    1.0180   14.2170   -2.7020 C   0  0  2  0  0  0  0  0  0  0  0  0
   -0.3440   13.5900   -3.0480 C   0  0  0  0  0  0  0  0  0  0  0  0
   -0.7210   12.3960   -2.2350 C   0  0  0  0  0  0  0  0  0  0  0  0
    0.1170   11.6770   -1.4660 C   0  0  0  0  0  0  0  0  0  0  0  0
    1.6190   11.9870   -1.4350 C   0  0  1  0  0  0  0  0  0  0  0  0
    2.4230   10.6670   -1.5670 C   0  0  0  0  0  0  0  0  0  0  0  0
    2.0200    9.6300   -0.5230 C   0  0  0  0  0  0  0  0  0  0  0  0
    0.5310    9.3050   -0.6230 C   0  0  2  0  0  0  0  0  0  0  0  0
    0.2870    8.6410   -1.8660 O   0  0  0  0  0  0  0  0  0  0  0  0
   -0.3780   10.5610   -0.5140 C   0  0  0  0  0  0  0  0  0  0  0  0
   -0.3410   11.1060    0.9360 C   0  0  0  0  0  0  0  0  0  0  0  0
   -1.8420   10.1130   -0.7720 C   0  0  0  0  0  0  0  0  0  0  0  0
    2.1170   13.1080   -2.4470 C   0  0  1  0  0  0  0  0  0  0  0  0
    2.4360   12.4690   -3.8330 C   0  0  0  0  0  0  0  0  0  0  0  0
    3.4690   13.7150   -1.9160 C   0  0  0  0  0  0  0  0  0  0  0  0
    3.3610   14.8990   -0.9350 C   0  0  0  0  0  0  0  0  0  0  0  0
    2.4070   15.9700   -1.4710 C   0  0  2  0  0  0  0  0  0  0  0  0
    3.0130   16.5260   -2.8050 C   0  0  0  0  0  0  0  0  0  0  0  0
    5.0833   17.4131    0.2175 H   0  0  0  0  0  0  0  0  0  0  0  0
    4.4368   16.7160   -1.3065 H   0  0  0  0  0  0  0  0  0  0  0  0
    5.1587   18.3608   -1.3065 H   0  0  0  0  0  0  0  0  0  0  0  0
    3.0056   19.0396   -1.1549 H   0  0  0  0  0  0  0  0  0  0  0  0
    3.0021   19.9737    0.8585 H   0  0  0  0  0  0  0  0  0  0  0  0
    2.3022   18.4196    1.5206 H   0  0  0  0  0  0  0  0  0  0  0  0
    4.5908   17.5692    1.8735 H   0  0  0  0  0  0  0  0  0  0  0  0
    5.2370   19.1733    1.3295 H   0  0  0  0  0  0  0  0  0  0  0  0
    3.1646   19.0518    3.1714 H   0  0  0  0  0  0  0  0  0  0  0  0
    6.9670   17.8795    5.0211 H   0  0  0  0  0  0  0  0  0  0  0  0
    6.2669   17.2619    3.4864 H   0  0  0  0  0  0  0  0  0  0  0  0
    7.2388   18.7726    3.4864 H   0  0  0  0  0  0  0  0  0  0  0  0
    5.6781   18.8433    6.3939 H   0  0  0  0  0  0  0  0  0  0  0  0
    4.5252   20.1363    5.9188 H   0  0  0  0  0  0  0  0  0  0  0  0
    3.9986   18.4189    5.9188 H   0  0  0  0  0  0  0  0  0  0  0  0
    2.0742   16.8327    0.5089 H   0  0  0  0  0  0  0  0  0  0  0  0
    0.0987   17.9852   -0.2707 H   0  0  0  0  0  0  0  0  0  0  0  0
    0.9451   18.6368   -1.6905 H   0  0  0  0  0  0  0  0  0  0  0  0
   -0.9065   16.4596   -1.7152 H   0  0  0  0  0  0  0  0  0  0  0  0
    0.1915   16.8364   -3.0401 H   0  0  0  0  0  0  0  0  0  0  0  0
    0.8922   15.2693    0.5725 H   0  0  0  0  0  0  0  0  0  0  0  0
   -0.7056   15.1006   -0.2308 H   0  0  0  0  0  0  0  0  0  0  0  0
    0.4494   13.7249   -0.2308 H   0  0  0  0  0  0  0  0  0  0  0  0
    1.3280   14.7722   -3.5996 H   0  0  0  0  0  0  0  0  0  0  0  0
   -1.1183   14.3579   -2.9035 H   0  0  0  0  0  0  0  0  0  0  0  0
   -0.2618   13.2374   -4.0867 H   0  0  0  0  0  0  0  0  0  0  0  0
   -1.7732   12.0769   -2.2674 H   0  0  0  0  0  0  0  0  0  0  0  0
    1.8141   12.4469   -0.4550 H   0  0  0  0  0  0  0  0  0  0  0  0
    2.2480   10.2461   -2.5681 H   0  0  0  0  0  0  0  0  0  0  0  0
    3.4850   10.9055   -1.4083 H   0  0  0  0  0  0  0  0  0  0  0  0
    2.6010    8.7103   -0.6862 H   0  0  0  0  0  0  0  0  0  0  0  0
    2.2233   10.0410    0.4769 H   0  0  0  0  0  0  0  0  0  0  0  0
    0.2760    8.6582    0.2294 H   0  0  0  0  0  0  0  0  0  0  0  0
    0.0870    9.3230   -2.5300 H   0  0  0  0  0  0  0  0  0  0  0  0
   -0.3980   10.2667    1.6447 H   0  0  0  0  0  0  0  0  0  0  0  0
    0.5967   11.6583    1.0963 H   0  0  0  0  0  0  0  0  0  0  0  0
   -1.1955   11.7799    1.0963 H   0  0  0  0  0  0  0  0  0  0  0  0
   -2.3525    9.9568    0.1897 H   0  0  0  0  0  0  0  0  0  0  0  0
   -2.3682   10.8912   -1.3443 H   0  0  0  0  0  0  0  0  0  0  0  0
   -1.8425    9.1736   -1.3443 H   0  0  0  0  0  0  0  0  0  0  0  0
    2.9228   11.4939   -3.6839 H   0  0  0  0  0  0  0  0  0  0  0  0
    1.5016   12.3300   -4.3965 H   0  0  0  0  0  0  0  0  0  0  0  0
    3.1087   13.1323   -4.3965 H   0  0  0  0  0  0  0  0  0  0  0  0
    4.0180   12.9095   -1.4063 H   0  0  0  0  0  0  0  0  0  0  0  0
    3.9706   14.1231   -2.8059 H   0  0  0  0  0  0  0  0  0  0  0  0
    2.9841   14.5324    0.0312 H   0  0  0  0  0  0  0  0  0  0  0  0
    4.3586   15.3466   -0.8146 H   0  0  0  0  0  0  0  0  0  0  0  0
    3.8053   17.2529   -2.5729 H   0  0  0  0  0  0  0  0  0  0  0  0
    3.4367   15.6959   -3.3892 H   0  0  0  0  0  0  0  0  0  0  0  0
    2.2223   17.0195   -3.3892 H   0  0  0  0  0  0  0  0  0  0  0  0
  1  2  1  0
  2  3  1  0
  3  4  1  0
  4  5  1  0
  5  6  1  0
  6  7  1  0
  7  8  1  0
  7  9  1  0
  2 10  1  0
 10 11  1  0
 11 12  1  0
 12 13  1  0
 13 14  1  1
 13 15  1  0
 15 16  1  0
 16 17  1  0
 17 18  2  0
 18 19  1  0
 19 20  1  0
 20 21  1  0
 21 22  1  0
 22 23  1  0
 22 24  1  0
 24 25  1  0
 24 26  1  0
 19 27  1  0
 27 28  1  6
 27 29  1  0
 29 30  1  0
 30 31  1  0
 31 32  1  6
  7  5  1  0
 31 10  1  0
 31 13  1  0
 27 15  1  0
 24 18  1  0
  1 33  1  0
  1 34  1  0
  1 35  1  0
  2 36  1  6
  3 37  1  0
  3 38  1  0
  4 39  1  0
  4 40  1  0
  5 41  1  1
  8 42  1  0
  8 43  1  0
  8 44  1  0
  9 45  1  0
  9 46  1  0
  9 47  1  0
 10 48  1  1
 11 49  1  0
 11 50  1  0
 12 51  1  0
 12 52  1  0
 14 53  1  0
 14 54  1  0
 14 55  1  0
 15 56  1  6
 16 57  1  0
 16 58  1  0
 17 59  1  0
 19 60  1  1
 20 61  1  0
 20 62  1  0
 21 63  1  0
 21 64  1  0
 22 65  1  1
 23 66  1  0
 25 67  1  0
 25 68  1  0
 25 69  1  0
 26 70  1  0
 26 71  1  0
 26 72  1  0
 28 73  1  0
 28 74  1  0
 28 75  1  0
 29 76  1  0
 29 77  1  0
 30 78  1  0
 30 79  1  0
 32 80  1  0
 32 81  1  0
 32 82  1  0
M  END
>  <meeko>  (1) 
{"is_sidechain": [false], "intermolecular_energy": 2.731, "internal_energy": -0.839}

$$$$
EPH_relaxed_0001_pdb2pqr_Repair_302_r2_0001_out
     RDKit          3D

 82 86  0  0  0  0  0  0  0  0999 V2000
    3.8280   17.9580    0.6260 C   0  0  0  0  0  0  0  0  0  0  0  0
    2.9520   18.3550   -0.5650 C   0  0  2  0  0  0  0  0  0  0  0  0
    2.2100   19.6850   -0.3230 C   0  0  0  0  0  0  0  0  0  0  0  0
    1.1750   19.6160    0.8040 C   0  0  0  0  0  0  0  0  0  0  0  0
   -0.1480   20.1750    0.3770 C   0  0  2  0  0  0  0  0  0  0  0  0
   -1.1490   20.1940    1.4020 O   0  0  0  0  0  0  0  0  0  0  0  0
   -1.4130   19.3450    0.2740 C   0  0  0  0  0  0  0  0  0  0  0  0
   -1.4170   17.8840    0.6000 C   0  0  0  0  0  0  0  0  0  0  0  0
   -2.5220   19.8360   -0.6040 C   0  0  0  0  0  0  0  0  0  0  0  0
    1.9500   17.2470   -0.8660 C   0  0  1  0  0  0  0  0  0  0  0  0
    0.8240   17.7050   -1.8300 C   0  0  0  0  0  0  0  0  0  0  0  0
    0.4680   16.4820   -2.7150 C   0  0  0  0  0  0  0  0  0  0  0  0
    1.1540   15.2840   -2.0180 C   0  0  1  0  0  0  0  0  0  0  0  0
    0.1870   14.8860   -0.8590 C   0  0  0  0  0  0  0  0  0  0  0  0
    1.4980   14.0600   -2.9290 C   0  0  2  0  0  0  0  0  0  0  0  0
    0.2860   13.3640   -3.5720 C   0  0  0  0  0  0  0  0  0  0  0  0
   -0.3050   12.2480   -2.7760 C   0  0  0  0  0  0  0  0  0  0  0  0
    0.2840   11.6340   -1.7330 C   0  0  0  0  0  0  0  0  0  0  0  0
    1.7180   11.9870   -1.3180 C   0  0  1  0  0  0  0  0  0  0  0  0
    2.5240   10.6830   -1.0820 C   0  0  0  0  0  0  0  0  0  0  0  0
    1.8440    9.7460   -0.0890 C   0  0  0  0  0  0  0  0  0  0  0  0
    0.4420    9.3720   -0.5640 C   0  0  2  0  0  0  0  0  0  0  0  0
    0.5540    8.5790   -1.7500 O   0  0  0  0  0  0  0  0  0  0  0  0
   -0.4600   10.6060   -0.8440 C   0  0  0  0  0  0  0  0  0  0  0  0
   -0.8280   11.2950    0.4930 C   0  0  0  0  0  0  0  0  0  0  0  0
   -1.7940   10.0950   -1.4510 C   0  0  0  0  0  0  0  0  0  0  0  0
    2.4800   13.0130   -2.2630 C   0  0  1  0  0  0  0  0  0  0  0  0
    3.1730   12.2470   -3.4310 C   0  0  0  0  0  0  0  0  0  0  0  0
    3.6310   13.7080   -1.4440 C   0  0  0  0  0  0  0  0  0  0  0  0
    3.2550   14.9810   -0.6610 C   0  0  0  0  0  0  0  0  0  0  0  0
    2.4910   15.9660   -1.5510 C   0  0  2  0  0  0  0  0  0  0  0  0
    3.4460   16.4020   -2.7140 C   0  0  0  0  0  0  0  0  0  0  0  0
    3.3029   18.1960    1.5628 H   0  0  0  0  0  0  0  0  0  0  0  0
    4.0345   16.8783    0.5855 H   0  0  0  0  0  0  0  0  0  0  0  0
    4.7760   18.5144    0.5855 H   0  0  0  0  0  0  0  0  0  0  0  0
    3.6162   18.5003   -1.4297 H   0  0  0  0  0  0  0  0  0  0  0  0
    2.9523   20.4551   -0.0662 H   0  0  0  0  0  0  0  0  0  0  0  0
    1.6632   19.9211   -1.2478 H   0  0  0  0  0  0  0  0  0  0  0  0
    1.0393   18.5651    1.0994 H   0  0  0  0  0  0  0  0  0  0  0  0
    1.5455   20.2180    1.6469 H   0  0  0  0  0  0  0  0  0  0  0  0
    0.3436   20.8612   -0.3283 H   0  0  0  0  0  0  0  0  0  0  0  0
   -1.4174   17.7520    1.6921 H   0  0  0  0  0  0  0  0  0  0  0  0
   -2.3164   17.4157    0.1738 H   0  0  0  0  0  0  0  0  0  0  0  0
   -0.5201   17.4107    0.1738 H   0  0  0  0  0  0  0  0  0  0  0  0
   -3.3497   20.2024    0.0211 H   0  0  0  0  0  0  0  0  0  0  0  0
   -2.1519   20.6544   -1.2390 H   0  0  0  0  0  0  0  0  0  0  0  0
   -2.8791   19.0119   -1.2390 H   0  0  0  0  0  0  0  0  0  0  0  0
    1.6183   17.0155    0.1569 H   0  0  0  0  0  0  0  0  0  0  0  0
   -0.0577   18.0272   -1.2567 H   0  0  0  0  0  0  0  0  0  0  0  0
    1.1524   18.5556   -2.4453 H   0  0  0  0  0  0  0  0  0  0  0  0
   -0.6215   16.3359   -2.7556 H   0  0  0  0  0  0  0  0  0  0  0  0
    0.8033   16.6077   -3.7551 H   0  0  0  0  0  0  0  0  0  0  0  0
    0.6719   15.0856    0.1080 H   0  0  0  0  0  0  0  0  0  0  0  0
   -0.7380   15.4765   -0.9341 H   0  0  0  0  0  0  0  0  0  0  0  0
   -0.0543   13.8154   -0.9341 H   0  0  0  0  0  0  0  0  0  0  0  0
    2.0467   14.5298   -3.7586 H   0  0  0  0  0  0  0  0  0  0  0  0
   -0.4966   14.1209   -3.7293 H   0  0  0  0  0  0  0  0  0  0  0  0
    0.6545   12.9109   -4.5041 H   0  0  0  0  0  0  0  0  0  0  0  0
   -1.3065   11.8978   -3.0664 H   0  0  0  0  0  0  0  0  0  0  0  0
    1.6331   12.5489   -0.3762 H   0  0  0  0  0  0  0  0  0  0  0  0
    2.6349   10.1584   -2.0425 H   0  0  0  0  0  0  0  0  0  0  0  0
    3.4996   10.9656   -0.6597 H   0  0  0  0  0  0  0  0  0  0  0  0
    2.4458    8.8308    0.0125 H   0  0  0  0  0  0  0  0  0  0  0  0
    1.7609   10.2610    0.8794 H   0  0  0  0  0  0  0  0  0  0  0  0
   -0.0417    8.8082    0.2473 H   0  0  0  0  0  0  0  0  0  0  0  0
   -0.1220    7.8820   -1.7030 H   0  0  0  0  0  0  0  0  0  0  0  0
   -0.4933   10.6683    1.3328 H   0  0  0  0  0  0  0  0  0  0  0  0
   -0.3339   12.2762    0.5480 H   0  0  0  0  0  0  0  0  0  0  0  0
   -1.9183   11.4300    0.5480 H   0  0  0  0  0  0  0  0  0  0  0  0
   -2.4879    9.8292   -0.6399 H   0  0  0  0  0  0  0  0  0  0  0  0
   -2.2410   10.8855   -2.0716 H   0  0  0  0  0  0  0  0  0  0  0  0
   -1.5985    9.2081   -2.0716 H   0  0  0  0  0  0  0  0  0  0  0  0
    3.8572   11.4908   -3.0186 H   0  0  0  0  0  0  0  0  0  0  0  0
    2.4093   11.7524   -4.0492 H   0  0  0  0  0  0  0  0  0  0  0  0
    3.7414   12.9575   -4.0492 H   0  0  0  0  0  0  0  0  0  0  0  0
    4.0151   12.9736   -0.7207 H   0  0  0  0  0  0  0  0  0  0  0  0
    4.3615   14.0383   -2.1972 H   0  0  0  0  0  0  0  0  0  0  0  0
    2.6219   14.7034    0.1947 H   0  0  0  0  0  0  0  0  0  0  0  0
    4.1796   15.4657   -0.3144 H   0  0  0  0  0  0  0  0  0  0  0  0
    4.3698   16.8238   -2.2913 H   0  0  0  0  0  0  0  0  0  0  0  0
    3.6924   15.5272   -3.3336 H   0  0  0  0  0  0  0  0  0  0  0  0
    2.9463   17.1612   -3.3336 H   0  0  0  0  0  0  0  0  0  0  0  0
  1  2  1  0
  2  3  1  0
  3  4  1  0
  4  5  1  0
  5  6  1  0
  6  7  1  0
  7  8  1  0
  7  9  1  0
  2 10  1  0
 10 11  1  0
 11 12  1  0
 12 13  1  0
 13 14  1  1
 13 15  1  0
 15 16  1  0
 16 17  1  0
 17 18  2  0
 18 19  1  0
 19 20  1  0
 20 21  1  0
 21 22  1  0
 22 23  1  0
 22 24  1  0
 24 25  1  0
 24 26  1  0
 19 27  1  0
 27 28  1  6
 27 29  1  0
 29 30  1  0
 30 31  1  0
 31 32  1  6
  7  5  1  0
 31 10  1  0
 31 13  1  0
 27 15  1  0
 24 18  1  0
  1 33  1  0
  1 34  1  0
  1 35  1  0
  2 36  1  6
  3 37  1  0
  3 38  1  0
  4 39  1  0
  4 40  1  0
  5 41  1  6
  8 42  1  0
  8 43  1  0
  8 44  1  0
  9 45  1  0
  9 46  1  0
  9 47  1  0
 10 48  1  1
 11 49  1  0
 11 50  1  0
 12 51  1  0
 12 52  1  0
 14 53  1  0
 14 54  1  0
 14 55  1  0
 15 56  1  6
 16 57  1  0
 16 58  1  0
 17 59  1  0
 19 60  1  1
 20 61  1  0
 20 62  1  0
 21 63  1  0
 21 64  1  0
 22 65  1  1
 23 66  1  0
 25 67  1  0
 25 68  1  0
 25 69  1  0
 26 70  1  0
 26 71  1  0
 26 72  1  0
 28 73  1  0
 28 74  1  0
 28 75  1  0
 29 76  1  0
 29 77  1  0
 30 78  1  0
 30 79  1  0
 32 80  1  0
 32 81  1  0
 32 82  1  0
M  END
>  <meeko>  (2) 
{"is_sidechain": [false], "intermolecular_energy": 2.731, "internal_energy": -0.839}

$$$$
EPH_relaxed_0001_pdb2pqr_Repair_302_r2_0001_out
     RDKit          3D

 82 86  0  0  0  0  0  0  0  0999 V2000
    2.9520   17.1600    0.3230 C   0  0  0  0  0  0  0  0  0  0  0  0
    2.4820   17.3380   -1.1230 C   0  0  2  0  0  0  0  0  0  0  0  0
    1.7790   18.6930   -1.3430 C   0  0  0  0  0  0  0  0  0  0  0  0
    1.3820   19.3980   -0.0430 C   0  0  0  0  0  0  0  0  0  0  0  0
    0.0430   20.0600   -0.1590 C   0  0  2  0  0  0  0  0  0  0  0  0
   -0.6680   20.1930    1.0790 O   0  0  0  0  0  0  0  0  0  0  0  0
   -1.2700   19.3410    0.0900 C   0  0  0  0  0  0  0  0  0  0  0  0
   -1.3070   17.8950    0.4740 C   0  0  0  0  0  0  0  0  0  0  0  0
   -2.5200   19.9050   -0.5110 C   0  0  0  0  0  0  0  0  0  0  0  0
    1.5480   16.1970   -1.5100 C   0  0  1  0  0  0  0  0  0  0  0  0
    0.7680   16.4830   -2.8210 C   0  0  0  0  0  0  0  0  0  0  0  0
    0.6120   15.1250   -3.5530 C   0  0  0  0  0  0  0  0  0  0  0  0
    1.0060   14.0650   -2.4980 C   0  0  1  0  0  0  0  0  0  0  0  0
   -0.2700   13.8810   -1.6180 C   0  0  0  0  0  0  0  0  0  0  0  0
    1.5270   12.6990   -3.0510 C   0  0  2  0  0  0  0  0  0  0  0  0
    0.5110   11.9050   -3.8910 C   0  0  0  0  0  0  0  0  0  0  0  0
   -0.3410   10.9490   -3.1240 C   0  0  0  0  0  0  0  0  0  0  0  0
   -0.1070   10.5260   -1.8680 C   0  0  0  0  0  0  0  0  0  0  0  0
    1.1680   10.9410   -1.1220 C   0  0  1  0  0  0  0  0  0  0  0  0
    1.8020    9.6960   -0.4480 C   0  0  0  0  0  0  0  0  0  0  0  0
    0.8180    8.9510    0.4480 C   0  0  0  0  0  0  0  0  0  0  0  0
   -0.4090    8.5040   -0.3420 C   0  0  2  0  0  0  0  0  0  0  0  0
   -0.0090    7.5140   -1.2940 O   0  0  0  0  0  0  0  0  0  0  0  0
   -1.1260    9.6730   -1.0730 C   0  0  0  0  0  0  0  0  0  0  0  0
   -1.8200   10.5890   -0.0350 C   0  0  0  0  0  0  0  0  0  0  0  0
   -2.2590    9.0680   -1.9450 C   0  0  0  0  0  0  0  0  0  0  0  0
    2.2210   11.7820   -1.9650 C   0  0  1  0  0  0  0  0  0  0  0  0
    3.1740   10.8200   -2.7380 C   0  0  0  0  0  0  0  0  0  0  0  0
    3.1290   12.6070   -0.9770 C   0  0  0  0  0  0  0  0  0  0  0  0
    2.6160   13.9990   -0.5610 C   0  0  0  0  0  0  0  0  0  0  0  0
    2.1900   14.8150   -1.7850 C   0  0  2  0  0  0  0  0  0  0  0  0
    3.4590   15.0350   -2.6780 C   0  0  0  0  0  0  0  0  0  0  0  0
    2.1485   17.4643    1.0098 H   0  0  0  0  0  0  0  0  0  0  0  0
    3.2045   16.1040    0.4991 H   0  0  0  0  0  0  0  0  0  0  0  0
    3.8407   17.7838    0.4991 H   0  0  0  0  0  0  0  0  0  0  0  0
    3.3747   17.3218   -1.7655 H   0  0  0  0  0  0  0  0  0  0  0  0
    2.4608   19.3515   -1.9011 H   0  0  0  0  0  0  0  0  0  0  0  0
    0.8496   18.4875   -1.8943 H   0  0  0  0  0  0  0  0  0  0  0  0
    1.3438   18.6557    0.7679 H   0  0  0  0  0  0  0  0  0  0  0  0
    2.1316   20.1746    0.1690 H   0  0  0  0  0  0  0  0  0  0  0  0
    0.3964   20.6822   -0.9945 H   0  0  0  0  0  0  0  0  0  0  0  0
   -1.3093   17.8067    1.5705 H   0  0  0  0  0  0  0  0  0  0  0  0
   -2.2173   17.4307    0.0669 H   0  0  0  0  0  0  0  0  0  0  0  0
   -0.4216   17.3847    0.0669 H   0  0  0  0  0  0  0  0  0  0  0  0
   -3.2056   20.2143    0.2917 H   0  0  0  0  0  0  0  0  0  0  0  0
   -2.2670   20.7762   -1.1331 H   0  0  0  0  0  0  0  0  0  0  0  0
   -3.0058   19.1388   -1.1331 H   0  0  0  0  0  0  0  0  0  0  0  0
    0.9283   16.1495   -0.6024 H   0  0  0  0  0  0  0  0  0  0  0  0
   -0.2213   16.9043   -2.5891 H   0  0  0  0  0  0  0  0  0  0  0  0
    1.3029   17.2111   -3.4484 H   0  0  0  0  0  0  0  0  0  0  0  0
   -0.4275   14.9782   -3.8815 H   0  0  0  0  0  0  0  0  0  0  0  0
    1.2352   15.0648   -4.4574 H   0  0  0  0  0  0  0  0  0  0  0  0
    0.0090   13.9212   -0.5547 H   0  0  0  0  0  0  0  0  0  0  0  0
   -0.9873   14.6850   -1.8396 H   0  0  0  0  0  0  0  0  0  0  0  0
   -0.7309   12.9071   -1.8396 H   0  0  0  0  0  0  0  0  0  0  0  0
    2.3138   13.0135   -3.7524 H   0  0  0  0  0  0  0  0  0  0  0  0
   -0.1525   12.6252   -4.3921 H   0  0  0  0  0  0  0  0  0  0  0  0
    1.1034   11.2936   -4.5876 H   0  0  0  0  0  0  0  0  0  0  0  0
   -1.2364   10.5568   -3.6284 H   0  0  0  0  0  0  0  0  0  0  0  0
    0.8504   11.6601   -0.3526 H   0  0  0  0  0  0  0  0  0  0  0  0
    2.1527    9.0102   -1.2333 H   0  0  0  0  0  0  0  0  0  0  0  0
    2.6313   10.0450    0.1848 H   0  0  0  0  0  0  0  0  0  0  0  0
    1.3156    8.0660    0.8712 H   0  0  0  0  0  0  0  0  0  0  0  0
    0.4911    9.6291    1.2501 H   0  0  0  0  0  0  0  0  0  0  0  0
   -1.1328    8.0933    0.3773 H   0  0  0  0  0  0  0  0  0  0  0  0
   -0.4350    6.6770   -1.0450 H   0  0  0  0  0  0  0  0  0  0  0  0
   -1.5645   10.2518    0.9804 H   0  0  0  0  0  0  0  0  0  0  0  0
   -1.4783   11.6253   -0.1740 H   0  0  0  0  0  0  0  0  0  0  0  0
   -2.9101   10.5405   -0.1740 H   0  0  0  0  0  0  0  0  0  0  0  0
   -3.0405    8.6507   -1.2929 H   0  0  0  0  0  0  0  0  0  0  0  0
   -2.6927    9.8546   -2.5800 H   0  0  0  0  0  0  0  0  0  0  0  0
   -1.8466    8.2700   -2.5800 H   0  0  0  0  0  0  0  0  0  0  0  0
    3.7599   10.2285   -2.0191 H   0  0  0  0  0  0  0  0  0  0  0  0
    2.5791   10.1443   -3.3701 H   0  0  0  0  0  0  0  0  0  0  0  0
    3.8552   11.4085   -3.3701 H   0  0  0  0  0  0  0  0  0  0  0  0
    3.2521   12.0103   -0.0612 H   0  0  0  0  0  0  0  0  0  0  0  0
    4.0597   12.7970   -1.5317 H   0  0  0  0  0  0  0  0  0  0  0  0
    1.7523   13.8785    0.1094 H   0  0  0  0  0  0  0  0  0  0  0  0
    3.4295   14.5338   -0.0490 H   0  0  0  0  0  0  0  0  0  0  0  0
    4.3381   15.1874   -2.0347 H   0  0  0  0  0  0  0  0  0  0  0  0
    3.6182   14.1511   -3.3131 H   0  0  0  0  0  0  0  0  0  0  0  0
    3.3114   15.9209   -3.3131 H   0  0  0  0  0  0  0  0  0  0  0  0
  1  2  1  0
  2  3  1  0
  3  4  1  0
  4  5  1  0
  5  6  1  0
  6  7  1  0
  7  8  1  0
  7  9  1  0
  2 10  1  0
 10 11  1  0
 11 12  1  0
 12 13  1  0
 13 14  1  1
 13 15  1  0
 15 16  1  0
 16 17  1  0
 17 18  2  0
 18 19  1  0
 19 20  1  0
 20 21  1  0
 21 22  1  0
 22 23  1  0
 22 24  1  0
 24 25  1  0
 24 26  1  0
 19 27  1  0
 27 28  1  6
 27 29  1  0
 29 30  1  0
 30 31  1  0
 31 32  1  6
  7  5  1  0
 31 10  1  0
 31 13  1  0
 27 15  1  0
 24 18  1  0
  1 33  1  0
  1 34  1  0
  1 35  1  0
  2 36  1  6
  3 37  1  0
  3 38  1  0
  4 39  1  0
  4 40  1  0
  5 41  1  6
  8 42  1  0
  8 43  1  0
  8 44  1  0
  9 45  1  0
  9 46  1  0
  9 47  1  0
 10 48  1  1
 11 49  1  0
 11 50  1  0
 12 51  1  0
 12 52  1  0
 14 53  1  0
 14 54  1  0
 14 55  1  0
 15 56  1  6
 16 57  1  0
 16 58  1  0
 17 59  1  0
 19 60  1  1
 20 61  1  0
 20 62  1  0
 21 63  1  0
 21 64  1  0
 22 65  1  1
 23 66  1  0
 25 67  1  0
 25 68  1  0
 25 69  1  0
 26 70  1  0
 26 71  1  0
 26 72  1  0
 28 73  1  0
 28 74  1  0
 28 75  1  0
 29 76  1  0
 29 77  1  0
 30 78  1  0
 30 79  1  0
 32 80  1  0
 32 81  1  0
 32 82  1  0
M  END
>  <meeko>  (3) 
{"is_sidechain": [false], "intermolecular_energy": 2.731, "internal_energy": -0.839}

$$$$
EPH_relaxed_0001_pdb2pqr_Repair_302_r2_0001_out
     RDKit          3D

 82 86  0  0  0  0  0  0  0  0999 V2000
   -1.1310    8.7750   -1.8510 C   0  0  0  0  0  0  0  0  0  0  0  0
   -1.5640    9.1870   -0.4410 C   0  0  2  0  0  0  0  0  0  0  0  0
   -3.0940    9.3370   -0.3240 C   0  0  0  0  0  0  0  0  0  0  0  0
   -3.8770    8.4140   -1.2630 C   0  0  0  0  0  0  0  0  0  0  0  0
   -5.2250    8.0700   -0.7050 C   0  0  2  0  0  0  0  0  0  0  0  0
   -5.4590    6.6660   -0.5290 O   0  0  0  0  0  0  0  0  0  0  0  0
   -6.2920    7.3320   -1.4920 C   0  0  0  0  0  0  0  0  0  0  0  0
   -6.0580    6.8950   -2.9040 C   0  0  0  0  0  0  0  0  0  0  0  0
   -7.7190    7.4680   -1.0630 C   0  0  0  0  0  0  0  0  0  0  0  0
   -0.8820   10.4920   -0.0480 C   0  0  1  0  0  0  0  0  0  0  0  0
    0.0460   10.3330    1.1860 C   0  0  0  0  0  0  0  0  0  0  0  0
    1.2490   11.2850    0.9670 C   0  0  0  0  0  0  0  0  0  0  0  0
    0.8170   12.1960   -0.2070 C   0  0  1  0  0  0  0  0  0  0  0  0
   -0.0890   13.2870    0.4450 C   0  0  0  0  0  0  0  0  0  0  0  0
    1.9710   12.8310   -1.0490 C   0  0  2  0  0  0  0  0  0  0  0  0
    2.8980   13.7830   -0.2730 C   0  0  0  0  0  0  0  0  0  0  0  0
    2.4860   15.2170   -0.2740 C   0  0  0  0  0  0  0  0  0  0  0  0
    1.5800   15.7700   -1.1030 C   0  0  0  0  0  0  0  0  0  0  0  0
    0.9380   14.9480   -2.2280 C   0  0  1  0  0  0  0  0  0  0  0  0
    0.9630   15.7670   -3.5460 C   0  0  0  0  0  0  0  0  0  0  0  0
    0.3240   17.1440   -3.3910 C   0  0  0  0  0  0  0  0  0  0  0  0
    1.0270   17.9520   -2.3040 C   0  0  2  0  0  0  0  0  0  0  0  0
    2.3590   18.2470   -2.7360 O   0  0  0  0  0  0  0  0  0  0  0  0
    1.0730   17.2230   -0.9320 C   0  0  0  0  0  0  0  0  0  0  0  0
   -0.3500   17.1720   -0.3220 C   0  0  0  0  0  0  0  0  0  0  0  0
    1.9300   18.0820    0.0370 C   0  0  0  0  0  0  0  0  0  0  0  0
    1.4980   13.4730   -2.4160 C   0  0  1  0  0  0  0  0  0  0  0  0
    2.7440   13.4920   -3.3540 C   0  0  0  0  0  0  0  0  0  0  0  0
    0.4090   12.5980   -3.1420 C   0  0  0  0  0  0  0  0  0  0  0  0
   -0.6320   11.8990   -2.2470 C   0  0  0  0  0  0  0  0  0  0  0  0
    0.0490   11.1520   -1.0960 C   0  0  2  0  0  0  0  0  0  0  0  0
    0.9510   10.0330   -1.7200 C   0  0  0  0  0  0  0  0  0  0  0  0
   -0.3356    8.0182   -1.7838 H   0  0  0  0  0  0  0  0  0  0  0  0
   -1.9923    8.3548   -2.3910 H   0  0  0  0  0  0  0  0  0  0  0  0
   -0.7541    9.6561   -2.3910 H   0  0  0  0  0  0  0  0  0  0  0  0
   -1.2570    8.3851    0.2465 H   0  0  0  0  0  0  0  0  0  0  0  0
   -3.3871    9.1087    0.7114 H   0  0  0  0  0  0  0  0  0  0  0  0
   -3.3385   10.3702   -0.6114 H   0  0  0  0  0  0  0  0  0  0  0  0
   -4.0102    8.9198   -2.2307 H   0  0  0  0  0  0  0  0  0  0  0  0
   -3.3064    7.4810   -1.3812 H   0  0  0  0  0  0  0  0  0  0  0  0
   -5.2499    9.0040   -0.1244 H   0  0  0  0  0  0  0  0  0  0  0  0
   -5.5387    5.9253   -2.9064 H   0  0  0  0  0  0  0  0  0  0  0  0
   -7.0234    6.7953   -3.4217 H   0  0  0  0  0  0  0  0  0  0  0  0
   -5.4398    7.6432   -3.4217 H   0  0  0  0  0  0  0  0  0  0  0  0
   -7.7727    7.4731    0.0357 H   0  0  0  0  0  0  0  0  0  0  0  0
   -8.1315    8.4095   -1.4546 H   0  0  0  0  0  0  0  0  0  0  0  0
   -8.3019    6.6213   -1.4546 H   0  0  0  0  0  0  0  0  0  0  0  0
   -1.7692   11.1212    0.1164 H   0  0  0  0  0  0  0  0  0  0  0  0
   -0.4936   10.6096    2.1038 H   0  0  0  0  0  0  0  0  0  0  0  0
    0.3818    9.2913    1.2957 H   0  0  0  0  0  0  0  0  0  0  0  0
    1.4417   11.8815    1.8709 H   0  0  0  0  0  0  0  0  0  0  0  0
    2.1792   10.7390    0.7510 H   0  0  0  0  0  0  0  0  0  0  0  0
   -0.0251   13.2100    1.5404 H   0  0  0  0  0  0  0  0  0  0  0  0
    0.2507   14.2837    0.1270 H   0  0  0  0  0  0  0  0  0  0  0  0
   -1.1312   13.1361    0.1270 H   0  0  0  0  0  0  0  0  0  0  0  0
    2.5866   11.9554   -1.3027 H   0  0  0  0  0  0  0  0  0  0  0  0
    2.9376   13.4417    0.7720 H   0  0  0  0  0  0  0  0  0  0  0  0
    3.8701   13.7459   -0.7864 H   0  0  0  0  0  0  0  0  0  0  0  0
    2.9624   15.8784    0.4647 H   0  0  0  0  0  0  0  0  0  0  0  0
   -0.1023   14.7693   -1.9184 H   0  0  0  0  0  0  0  0  0  0  0  0
    2.0090   15.8970   -3.8607 H   0  0  0  0  0  0  0  0  0  0  0  0
    0.3810   15.2111   -4.2958 H   0  0  0  0  0  0  0  0  0  0  0  0
    0.3978   17.6847   -4.3461 H   0  0  0  0  0  0  0  0  0  0  0  0
   -0.7297   17.0119   -3.1043 H   0  0  0  0  0  0  0  0  0  0  0  0
    0.4459   18.8734   -2.1511 H   0  0  0  0  0  0  0  0  0  0  0  0
    2.3790   18.1610   -3.7050 H   0  0  0  0  0  0  0  0  0  0  0  0
   -0.2787   17.1746    0.7757 H   0  0  0  0  0  0  0  0  0  0  0  0
   -0.9231   18.0502   -0.6543 H   0  0  0  0  0  0  0  0  0  0  0  0
   -0.8587   16.2550   -0.6543 H   0  0  0  0  0  0  0  0  0  0  0  0
    1.6753   17.8267    1.0762 H   0  0  0  0  0  0  0  0  0  0  0  0
    2.9967   17.8796   -0.1394 H   0  0  0  0  0  0  0  0  0  0  0  0
    1.7251   19.1483   -0.1394 H   0  0  0  0  0  0  0  0  0  0  0  0
    3.6605   13.5060   -2.7459 H   0  0  0  0  0  0  0  0  0  0  0  0
    2.7388   12.5937   -3.9888 H   0  0  0  0  0  0  0  0  0  0  0  0
    2.7114   14.3898   -3.9888 H   0  0  0  0  0  0  0  0  0  0  0  0
   -0.1364   13.2543   -3.8361 H   0  0  0  0  0  0  0  0  0  0  0  0
    0.9693   11.7821   -3.6220 H   0  0  0  0  0  0  0  0  0  0  0  0
   -1.3150   12.6546   -1.8316 H   0  0  0  0  0  0  0  0  0  0  0  0
   -1.1880   11.1720   -2.8572 H   0  0  0  0  0  0  0  0  0  0  0  0
    1.4213    9.4496   -0.9147 H   0  0  0  0  0  0  0  0  0  0  0  0
    0.3332    9.3683   -2.3417 H   0  0  0  0  0  0  0  0  0  0  0  0
    1.7317   10.4956   -2.3417 H   0  0  0  0  0  0  0  0  0  0  0  0
  1  2  1  0
  2  3  1  0
  3  4  1  0
  4  5  1  0
  5  6  1  0
  6  7  1  0
  7  8  1  0
  7  9  1  0
  2 10  1  0
 10 11  1  0
 11 12  1  0
 12 13  1  0
 13 14  1  1
 13 15  1  0
 15 16  1  0
 16 17  1  0
 17 18  2  0
 18 19  1  0
 19 20  1  0
 20 21  1  0
 21 22  1  0
 22 23  1  0
 22 24  1  0
 24 25  1  0
 24 26  1  0
 19 27  1  0
 27 28  1  6
 27 29  1  0
 29 30  1  0
 30 31  1  0
 31 32  1  6
  7  5  1  0
 31 10  1  0
 31 13  1  0
 27 15  1  0
 24 18  1  0
  1 33  1  0
  1 34  1  0
  1 35  1  0
  2 36  1  1
  3 37  1  0
  3 38  1  0
  4 39  1  0
  4 40  1  0
  5 41  1  1
  8 42  1  0
  8 43  1  0
  8 44  1  0
  9 45  1  0
  9 46  1  0
  9 47  1  0
 10 48  1  1
 11 49  1  0
 11 50  1  0
 12 51  1  0
 12 52  1  0
 14 53  1  0
 14 54  1  0
 14 55  1  0
 15 56  1  6
 16 57  1  0
 16 58  1  0
 17 59  1  0
 19 60  1  1
 20 61  1  0
 20 62  1  0
 21 63  1  0
 21 64  1  0
 22 65  1  1
 23 66  1  0
 25 67  1  0
 25 68  1  0
 25 69  1  0
 26 70  1  0
 26 71  1  0
 26 72  1  0
 28 73  1  0
 28 74  1  0
 28 75  1  0
 29 76  1  0
 29 77  1  0
 30 78  1  0
 30 79  1  0
 32 80  1  0
 32 81  1  0
 32 82  1  0
M  END
>  <meeko>  (4) 
{"is_sidechain": [false], "intermolecular_energy": 2.731, "internal_energy": -0.839}

$$$$
EPH_relaxed_0001_pdb2pqr_Repair_302_r2_0001_out
     RDKit          3D

 82 86  0  0  0  0  0  0  0  0999 V2000
    1.5580   18.5880   -1.0920 C   0  0  0  0  0  0  0  0  0  0  0  0
    2.0130   17.2590   -0.4820 C   0  0  2  0  0  0  0  0  0  0  0  0
    3.5190   17.0090   -0.6920 C   0  0  0  0  0  0  0  0  0  0  0  0
    4.4160   18.0590   -0.0300 C   0  0  0  0  0  0  0  0  0  0  0  0
    3.9150   18.4360    1.3310 C   0  0  2  0  0  0  0  0  0  0  0  0
    3.9760   19.8380    1.6240 O   0  0  0  0  0  0  0  0  0  0  0  0
    4.8080   18.9860    2.4280 C   0  0  0  0  0  0  0  0  0  0  0  0
    6.2750   19.1880    2.2130 C   0  0  0  0  0  0  0  0  0  0  0  0
    4.3520   18.8660    3.8490 C   0  0  0  0  0  0  0  0  0  0  0  0
    1.2060   16.1120   -1.0780 C   0  0  1  0  0  0  0  0  0  0  0  0
    0.6530   16.4400   -2.4900 C   0  0  0  0  0  0  0  0  0  0  0  0
    0.6800   15.1180   -3.2990 C   0  0  0  0  0  0  0  0  0  0  0  0
    0.9280   14.0180   -2.2410 C   0  0  1  0  0  0  0  0  0  0  0  0
   -0.4720   13.7480   -1.6060 C   0  0  0  0  0  0  0  0  0  0  0  0
    1.5910   12.6990   -2.7570 C   0  0  2  0  0  0  0  0  0  0  0  0
    0.7680   11.9180   -3.7960 C   0  0  0  0  0  0  0  0  0  0  0  0
   -0.1650   10.8970   -3.2350 C   0  0  0  0  0  0  0  0  0  0  0  0
   -0.1340   10.4170   -1.9770 C   0  0  0  0  0  0  0  0  0  0  0  0
    0.9760   10.8330   -1.0030 C   0  0  1  0  0  0  0  0  0  0  0  0
    1.5330    9.5750   -0.2860 C   0  0  0  0  0  0  0  0  0  0  0  0
    0.4400    8.7540    0.3900 C   0  0  0  0  0  0  0  0  0  0  0  0
   -0.6140    8.3100   -0.6210 C   0  0  2  0  0  0  0  0  0  0  0  0
   -0.0160    7.3840   -1.5340 O   0  0  0  0  0  0  0  0  0  0  0  0
   -1.2400    9.4920   -1.4120 C   0  0  0  0  0  0  0  0  0  0  0  0
   -2.1400   10.3300   -0.4700 C   0  0  0  0  0  0  0  0  0  0  0  0
   -2.1810    8.8980   -2.4950 C   0  0  0  0  0  0  0  0  0  0  0  0
    2.1240   11.7490   -1.6090 C   0  0  1  0  0  0  0  0  0  0  0  0
    3.2340   10.8590   -2.2470 C   0  0  0  0  0  0  0  0  0  0  0  0
    2.8130   12.5500   -0.4420 C   0  0  0  0  0  0  0  0  0  0  0  0
    2.1810   13.9010   -0.0580 C   0  0  0  0  0  0  0  0  0  0  0  0
    1.9410   14.7660   -1.2990 C   0  0  2  0  0  0  0  0  0  0  0  0
    3.3340   15.0720   -1.9470 C   0  0  0  0  0  0  0  0  0  0  0  0
    1.3153   19.2970   -0.2868 H   0  0  0  0  0  0  0  0  0  0  0  0
    2.3657   19.0017   -1.7137 H   0  0  0  0  0  0  0  0  0  0  0  0
    0.6662   18.4199   -1.7137 H   0  0  0  0  0  0  0  0  0  0  0  0
    1.8366   17.3142    0.6024 H   0  0  0  0  0  0  0  0  0  0  0  0
    3.7693   16.0238   -0.2717 H   0  0  0  0  0  0  0  0  0  0  0  0
    3.7058   17.0634   -1.7747 H   0  0  0  0  0  0  0  0  0  0  0  0
    5.4330   17.6506    0.0648 H   0  0  0  0  0  0  0  0  0  0  0  0
    4.4110   18.9610   -0.6597 H   0  0  0  0  0  0  0  0  0  0  0  0
    3.1853   17.6130    1.3167 H   0  0  0  0  0  0  0  0  0  0  0  0
    6.7821   19.2578    3.1866 H   0  0  0  0  0  0  0  0  0  0  0  0
    6.6832   18.3376    1.6472 H   0  0  0  0  0  0  0  0  0  0  0  0
    6.4381   20.1171    1.6472 H   0  0  0  0  0  0  0  0  0  0  0  0
    5.1922   19.0871    4.5236 H   0  0  0  0  0  0  0  0  0  0  0  0
    3.5358   19.5799    4.0337 H   0  0  0  0  0  0  0  0  0  0  0  0
    3.9929   17.8428    4.0337 H   0  0  0  0  0  0  0  0  0  0  0  0
    0.4407   15.9992   -0.2960 H   0  0  0  0  0  0  0  0  0  0  0  0
   -0.3776   16.8172   -2.4150 H   0  0  0  0  0  0  0  0  0  0  0  0
    1.2587   17.2160   -2.9810 H   0  0  0  0  0  0  0  0  0  0  0  0
   -0.2805   14.9558   -3.8100 H   0  0  0  0  0  0  0  0  0  0  0  0
    1.4518   15.1244   -4.0828 H   0  0  0  0  0  0  0  0  0  0  0  0
   -0.3866   13.7645   -0.5094 H   0  0  0  0  0  0  0  0  0  0  0  0
   -1.1781   14.5265   -1.9305 H   0  0  0  0  0  0  0  0  0  0  0  0
   -0.8380   12.7627   -1.9305 H   0  0  0  0  0  0  0  0  0  0  0  0
    2.4734   13.0742   -3.2960 H   0  0  0  0  0  0  0  0  0  0  0  0
    0.1728   12.6420   -4.3718 H   0  0  0  0  0  0  0  0  0  0  0  0
    1.4962   11.3621   -4.4049 H   0  0  0  0  0  0  0  0  0  0  0  0
   -0.9433   10.5035   -3.9053 H   0  0  0  0  0  0  0  0  0  0  0  0
    0.5021   11.5020   -0.2696 H   0  0  0  0  0  0  0  0  0  0  0  0
    2.0409    8.9420   -1.0285 H   0  0  0  0  0  0  0  0  0  0  0  0
    2.2258    9.9168    0.4970 H   0  0  0  0  0  0  0  0  0  0  0  0
    0.8923    7.8643    0.8526 H   0  0  0  0  0  0  0  0  0  0  0  0
   -0.0471    9.3791    1.1529 H   0  0  0  0  0  0  0  0  0  0  0  0
   -1.4337    7.8399   -0.0579 H   0  0  0  0  0  0  0  0  0  0  0  0
   -0.6290    6.6370   -1.6390 H   0  0  0  0  0  0  0  0  0  0  0  0
   -1.8915   10.0986    0.5763 H   0  0  0  0  0  0  0  0  0  0  0  0
   -1.9718   11.4006   -0.6587 H   0  0  0  0  0  0  0  0  0  0  0  0
   -3.1959   10.0859   -0.6587 H   0  0  0  0  0  0  0  0  0  0  0  0
   -3.0148    8.3716   -2.0075 H   0  0  0  0  0  0  0  0  0  0  0  0
   -2.5768    9.7103   -3.1223 H   0  0  0  0  0  0  0  0  0  0  0  0
   -1.6180    8.1913   -3.1223 H   0  0  0  0  0  0  0  0  0  0  0  0
    3.8261   10.3843   -1.4507 H   0  0  0  0  0  0  0  0  0  0  0  0
    2.7677   10.0817   -2.8702 H   0  0  0  0  0  0  0  0  0  0  0  0
    3.8913   11.4832   -2.8702 H   0  0  0  0  0  0  0  0  0  0  0  0
    2.8004   11.9106    0.4530 H   0  0  0  0  0  0  0  0  0  0  0  0
    3.8166   12.7986   -0.8175 H   0  0  0  0  0  0  0  0  0  0  0  0
    1.2199   13.7187    0.4450 H   0  0  0  0  0  0  0  0  0  0  0  0
    2.8715   14.4334    0.6127 H   0  0  0  0  0  0  0  0  0  0  0  0
    4.0791   15.2357   -1.1545 H   0  0  0  0  0  0  0  0  0  0  0  0
    3.6433   14.2204   -2.5708 H   0  0  0  0  0  0  0  0  0  0  0  0
    3.2578   15.9748   -2.5708 H   0  0  0  0  0  0  0  0  0  0  0  0
  1  2  1  0
  2  3  1  0
  3  4  1  0
  4  5  1  0
  5  6  1  0
  6  7  1  0
  7  8  1  0
  7  9  1  0
  2 10  1  0
 10 11  1  0
 11 12  1  0
 12 13  1  0
 13 14  1  1
 13 15  1  0
 15 16  1  0
 16 17  1  0
 17 18  2  0
 18 19  1  0
 19 20  1  0
 20 21  1  0
 21 22  1  0
 22 23  1  0
 22 24  1  0
 24 25  1  0
 24 26  1  0
 19 27  1  0
 27 28  1  6
 27 29  1  0
 29 30  1  0
 30 31  1  0
 31 32  1  6
  7  5  1  0
 31 10  1  0
 31 13  1  0
 27 15  1  0
 24 18  1  0
  1 33  1  0
  1 34  1  0
  1 35  1  0
  2 36  1  1
  3 37  1  0
  3 38  1  0
  4 39  1  0
  4 40  1  0
  5 41  1  1
  8 42  1  0
  8 43  1  0
  8 44  1  0
  9 45  1  0
  9 46  1  0
  9 47  1  0
 10 48  1  1
 11 49  1  0
 11 50  1  0
 12 51  1  0
 12 52  1  0
 14 53  1  0
 14 54  1  0
 14 55  1  0
 15 56  1  6
 16 57  1  0
 16 58  1  0
 17 59  1  0
 19 60  1  1
 20 61  1  0
 20 62  1  0
 21 63  1  0
 21 64  1  0
 22 65  1  1
 23 66  1  0
 25 67  1  0
 25 68  1  0
 25 69  1  0
 26 70  1  0
 26 71  1  0
 26 72  1  0
 28 73  1  0
 28 74  1  0
 28 75  1  0
 29 76  1  0
 29 77  1  0
 30 78  1  0
 30 79  1  0
 32 80  1  0
 32 81  1  0
 32 82  1  0
M  END
>  <meeko>  (5) 
{"is_sidechain": [false], "intermolecular_energy": 2.731, "internal_energy": -0.839}

$$$$
EPH_relaxed_0001_pdb2pqr_Repair_302_r2_0001_out
     RDKit          3D

 82 86  0  0  0  0  0  0  0  0999 V2000
   -0.7460    7.9280   -0.4700 C   0  0  0  0  0  0  0  0  0  0  0  0
   -1.1860    9.2920    0.0690 C   0  0  2  0  0  0  0  0  0  0  0  0
   -2.4460    9.8200   -0.6460 C   0  0  0  0  0  0  0  0  0  0  0  0
   -3.7550    9.2790   -0.0660 C   0  0  0  0  0  0  0  0  0  0  0  0
   -4.0740    7.9140   -0.5970 C   0  0  2  0  0  0  0  0  0  0  0  0
   -4.2100    7.8420   -2.0230 O   0  0  0  0  0  0  0  0  0  0  0  0
   -5.3930    7.5600   -1.2580 C   0  0  0  0  0  0  0  0  0  0  0  0
   -6.4800    8.5740   -1.4220 C   0  0  0  0  0  0  0  0  0  0  0  0
   -5.8090    6.1220   -1.3000 C   0  0  0  0  0  0  0  0  0  0  0  0
   -0.0490   10.2970   -0.0680 C   0  0  1  0  0  0  0  0  0  0  0  0
    1.3510    9.6310    0.0130 C   0  0  0  0  0  0  0  0  0  0  0  0
    2.2780   10.4180   -0.9490 C   0  0  0  0  0  0  0  0  0  0  0  0
    1.4830   11.6990   -1.2950 C   0  0  1  0  0  0  0  0  0  0  0  0
    1.7180   12.6560   -0.0840 C   0  0  0  0  0  0  0  0  0  0  0  0
    1.8400   12.3880   -2.6520 C   0  0  2  0  0  0  0  0  0  0  0  0
    3.2850   12.9060   -2.7610 C   0  0  0  0  0  0  0  0  0  0  0  0
    3.4920   14.3160   -2.3130 C   0  0  0  0  0  0  0  0  0  0  0  0
    2.5180   15.2230   -2.1120 C   0  0  0  0  0  0  0  0  0  0  0  0
    1.0550   14.8930   -2.4320 C   0  0  1  0  0  0  0  0  0  0  0  0
    0.4210   16.0660   -3.2260 C   0  0  0  0  0  0  0  0  0  0  0  0
    0.5740   17.4050   -2.5120 C   0  0  0  0  0  0  0  0  0  0  0  0
    2.0450   17.7260   -2.2630 C   0  0  2  0  0  0  0  0  0  0  0  0
    2.6890   17.9420   -3.5220 O   0  0  0  0  0  0  0  0  0  0  0  0
    2.7910   16.6100   -1.4790 C   0  0  0  0  0  0  0  0  0  0  0  0
    2.2930   16.5820   -0.0130 C   0  0  0  0  0  0  0  0  0  0  0  0
    4.2950   16.9920   -1.4200 C   0  0  0  0  0  0  0  0  0  0  0  0
    0.7960   13.4820   -3.1180 C   0  0  1  0  0  0  0  0  0  0  0  0
    0.9430   13.6080   -4.6650 C   0  0  0  0  0  0  0  0  0  0  0  0
   -0.6910   13.0440   -2.8470 C   0  0  0  0  0  0  0  0  0  0  0  0
   -0.9600   12.2620   -1.5470 C   0  0  0  0  0  0  0  0  0  0  0  0
    0.0310   11.1050   -1.3880 C   0  0  2  0  0  0  0  0  0  0  0  0
   -0.1970   10.1140   -2.5810 C   0  0  0  0  0  0  0  0  0  0  0  0
   -0.5286    7.2539    0.3716 H   0  0  0  0  0  0  0  0  0  0  0  0
   -1.5514    7.4994   -1.0844 H   0  0  0  0  0  0  0  0  0  0  0  0
    0.1581    8.0508   -1.0844 H   0  0  0  0  0  0  0  0  0  0  0  0
   -1.4399    9.1615    1.1313 H   0  0  0  0  0  0  0  0  0  0  0  0
   -2.4574   10.9169   -0.5648 H   0  0  0  0  0  0  0  0  0  0  0  0
   -2.3908    9.4769   -1.6897 H   0  0  0  0  0  0  0  0  0  0  0  0
   -3.6638    9.2233    1.0288 H   0  0  0  0  0  0  0  0  0  0  0  0
   -4.5676    9.9598   -0.3596 H   0  0  0  0  0  0  0  0  0  0  0  0
   -3.5057    7.4397    0.2166 H   0  0  0  0  0  0  0  0  0  0  0  0
   -6.8297    8.9002   -0.4314 H   0  0  0  0  0  0  0  0  0  0  0  0
   -6.0923    9.4406   -1.9776 H   0  0  0  0  0  0  0  0  0  0  0  0
   -7.3176    8.1271   -1.9776 H   0  0  0  0  0  0  0  0  0  0  0  0
   -5.9189    5.7420   -0.2736 H   0  0  0  0  0  0  0  0  0  0  0  0
   -6.7696    6.0335   -1.8286 H   0  0  0  0  0  0  0  0  0  0  0  0
   -5.0440    5.5343   -1.8286 H   0  0  0  0  0  0  0  0  0  0  0  0
   -0.2936   10.9666    0.7698 H   0  0  0  0  0  0  0  0  0  0  0  0
    1.7377    9.6864    1.0413 H   0  0  0  0  0  0  0  0  0  0  0  0
    1.2997    8.5690   -0.2691 H   0  0  0  0  0  0  0  0  0  0  0  0
    3.2267   10.6716   -0.4534 H   0  0  0  0  0  0  0  0  0  0  0  0
    2.5415    9.8357   -1.8443 H   0  0  0  0  0  0  0  0  0  0  0  0
    1.5814   12.0995    0.8550 H   0  0  0  0  0  0  0  0  0  0  0  0
    2.7413   13.0572   -0.1269 H   0  0  0  0  0  0  0  0  0  0  0  0
    0.9969   13.4855   -0.1269 H   0  0  0  0  0  0  0  0  0  0  0  0
    1.7678   11.5542   -3.3659 H   0  0  0  0  0  0  0  0  0  0  0  0
    3.9263   12.2565   -2.1471 H   0  0  0  0  0  0  0  0  0  0  0  0
    3.5357   12.8866   -3.8319 H   0  0  0  0  0  0  0  0  0  0  0  0
    4.5274   14.6403   -2.1322 H   0  0  0  0  0  0  0  0  0  0  0  0
    0.5493   14.7824   -1.4614 H   0  0  0  0  0  0  0  0  0  0  0  0
    0.9109   16.1323   -4.2087 H   0  0  0  0  0  0  0  0  0  0  0  0
   -0.6552   15.8604   -3.3235 H   0  0  0  0  0  0  0  0  0  0  0  0
    0.1331   18.1974   -3.1347 H   0  0  0  0  0  0  0  0  0  0  0  0
    0.0586   17.3463   -1.5420 H   0  0  0  0  0  0  0  0  0  0  0  0
    2.0844   18.6294   -1.6366 H   0  0  0  0  0  0  0  0  0  0  0  0
    3.1190   18.8130   -3.4870 H   0  0  0  0  0  0  0  0  0  0  0  0
    3.1554   16.6305    0.6682 H   0  0  0  0  0  0  0  0  0  0  0  0
    1.6345   17.4445    0.1671 H   0  0  0  0  0  0  0  0  0  0  0  0
    1.7354   15.6511    0.1671 H   0  0  0  0  0  0  0  0  0  0  0  0
    4.6119   17.0725   -0.3697 H   0  0  0  0  0  0  0  0  0  0  0  0
    4.8903   16.2165   -1.9242 H   0  0  0  0  0  0  0  0  0  0  0  0
    4.4481   17.9576   -1.9242 H   0  0  0  0  0  0  0  0  0  0  0  0
    1.7589   14.3073   -4.9000 H   0  0  0  0  0  0  0  0  0  0  0  0
    1.1714   12.6209   -5.0932 H   0  0  0  0  0  0  0  0  0  0  0  0
    0.0024   13.9847   -5.0932 H   0  0  0  0  0  0  0  0  0  0  0  0
   -1.3065   13.9553   -2.8204 H   0  0  0  0  0  0  0  0  0  0  0  0
   -0.9371   12.3444   -3.6594 H   0  0  0  0  0  0  0  0  0  0  0  0
   -0.8581   12.9435   -0.6895 H   0  0  0  0  0  0  0  0  0  0  0  0
   -1.9782   11.8481   -1.5911 H   0  0  0  0  0  0  0  0  0  0  0  0
   -0.4273    9.1130   -2.1873 H   0  0  0  0  0  0  0  0  0  0  0  0
   -1.0371   10.4682   -3.1964 H   0  0  0  0  0  0  0  0  0  0  0  0
    0.7134   10.0654   -3.1964 H   0  0  0  0  0  0  0  0  0  0  0  0
  1  2  1  0
  2  3  1  0
  3  4  1  0
  4  5  1  0
  5  6  1  0
  6  7  1  0
  7  8  1  0
  7  9  1  0
  2 10  1  0
 10 11  1  0
 11 12  1  0
 12 13  1  0
 13 14  1  1
 13 15  1  0
 15 16  1  0
 16 17  1  0
 17 18  2  0
 18 19  1  0
 19 20  1  0
 20 21  1  0
 21 22  1  0
 22 23  1  0
 22 24  1  0
 24 25  1  0
 24 26  1  0
 19 27  1  0
 27 28  1  6
 27 29  1  0
 29 30  1  0
 30 31  1  0
 31 32  1  6
  7  5  1  0
 31 10  1  0
 31 13  1  0
 27 15  1  0
 24 18  1  0
  1 33  1  0
  1 34  1  0
  1 35  1  0
  2 36  1  1
  3 37  1  0
  3 38  1  0
  4 39  1  0
  4 40  1  0
  5 41  1  1
  8 42  1  0
  8 43  1  0
  8 44  1  0
  9 45  1  0
  9 46  1  0
  9 47  1  0
 10 48  1  1
 11 49  1  0
 11 50  1  0
 12 51  1  0
 12 52  1  0
 14 53  1  0
 14 54  1  0
 14 55  1  0
 15 56  1  6
 16 57  1  0
 16 58  1  0
 17 59  1  0
 19 60  1  1
 20 61  1  0
 20 62  1  0
 21 63  1  0
 21 64  1  0
 22 65  1  1
 23 66  1  0
 25 67  1  0
 25 68  1  0
 25 69  1  0
 26 70  1  0
 26 71  1  0
 26 72  1  0
 28 73  1  0
 28 74  1  0
 28 75  1  0
 29 76  1  0
 29 77  1  0
 30 78  1  0
 30 79  1  0
 32 80  1  0
 32 81  1  0
 32 82  1  0
M  END
>  <meeko>  (6) 
{"is_sidechain": [false], "intermolecular_energy": 2.731, "internal_energy": -0.839}

$$$$
EPH_relaxed_0001_pdb2pqr_Repair_302_r2_0001_out
     RDKit          3D

 82 86  0  0  0  0  0  0  0  0999 V2000
    3.2380   17.9690   -1.0870 C   0  0  0  0  0  0  0  0  0  0  0  0
    2.9380   17.5010   -2.5140 C   0  0  2  0  0  0  0  0  0  0  0  0
    1.6100   18.0750   -3.0470 C   0  0  0  0  0  0  0  0  0  0  0  0
    1.0270   19.1890   -2.1730 C   0  0  0  0  0  0  0  0  0  0  0  0
   -0.2500   18.7640   -1.5130 C   0  0  2  0  0  0  0  0  0  0  0  0
   -1.0310   19.8390   -0.9730 O   0  0  0  0  0  0  0  0  0  0  0  0
   -0.5060   18.8980   -0.0230 C   0  0  0  0  0  0  0  0  0  0  0  0
    0.5250   19.4730    0.8970 C   0  0  0  0  0  0  0  0  0  0  0  0
   -1.5500   18.0280    0.6040 C   0  0  0  0  0  0  0  0  0  0  0  0
    2.9050   15.9780   -2.5650 C   0  0  1  0  0  0  0  0  0  0  0  0
    4.3230   15.3520   -2.6460 C   0  0  0  0  0  0  0  0  0  0  0  0
    4.2730   14.0270   -1.8420 C   0  0  0  0  0  0  0  0  0  0  0  0
    2.7660   13.7690   -1.6090 C   0  0  1  0  0  0  0  0  0  0  0  0
    2.2590   13.1270   -2.9380 C   0  0  0  0  0  0  0  0  0  0  0  0
    2.4000   12.8910   -0.3680 C   0  0  2  0  0  0  0  0  0  0  0  0
    2.9370   11.4490   -0.4070 C   0  0  0  0  0  0  0  0  0  0  0  0
    2.0260   10.4460   -1.0330 C   0  0  0  0  0  0  0  0  0  0  0  0
    0.7160   10.6290   -1.2860 C   0  0  0  0  0  0  0  0  0  0  0  0
    0.0010   11.9120   -0.8440 C   0  0  1  0  0  0  0  0  0  0  0  0
   -1.3450   11.5470   -0.1630 C   0  0  0  0  0  0  0  0  0  0  0  0
   -2.2230   10.6620   -1.0420 C   0  0  0  0  0  0  0  0  0  0  0  0
   -1.4990    9.3700   -1.4130 C   0  0  2  0  0  0  0  0  0  0  0  0
   -1.3150    8.5890   -0.2280 O   0  0  0  0  0  0  0  0  0  0  0  0
   -0.1250    9.6130   -2.0970 C   0  0  0  0  0  0  0  0  0  0  0  0
   -0.3450   10.1890   -3.5180 C   0  0  0  0  0  0  0  0  0  0  0  0
    0.5630    8.2350   -2.2900 C   0  0  0  0  0  0  0  0  0  0  0  0
    0.8660   12.9260    0.0210 C   0  0  1  0  0  0  0  0  0  0  0  0
    0.7810   12.5450    1.5310 C   0  0  0  0  0  0  0  0  0  0  0  0
    0.2500   14.3690   -0.1080 C   0  0  0  0  0  0  0  0  0  0  0  0
    0.7410   15.2320   -1.2860 C   0  0  0  0  0  0  0  0  0  0  0  0
    2.2700   15.2400   -1.3600 C   0  0  2  0  0  0  0  0  0  0  0  0
    2.8090   15.8990   -0.0450 C   0  0  0  0  0  0  0  0  0  0  0  0
    2.7883   17.2675   -0.3689 H   0  0  0  0  0  0  0  0  0  0  0  0
    4.3267   18.0031   -0.9336 H   0  0  0  0  0  0  0  0  0  0  0  0
    2.8145   18.9725   -0.9336 H   0  0  0  0  0  0  0  0  0  0  0  0
    3.7433   17.8776   -3.1617 H   0  0  0  0  0  0  0  0  0  0  0  0
    1.7860   18.4800   -4.0545 H   0  0  0  0  0  0  0  0  0  0  0  0
    0.8807   17.2515   -3.0477 H   0  0  0  0  0  0  0  0  0  0  0  0
    1.7595   19.4528   -1.3959 H   0  0  0  0  0  0  0  0  0  0  0  0
    0.8089   20.0528   -2.8182 H   0  0  0  0  0  0  0  0  0  0  0  0
   -0.3548   17.9167   -2.2066 H   0  0  0  0  0  0  0  0  0  0  0  0
    0.2208   19.3034    1.9404 H   0  0  0  0  0  0  0  0  0  0  0  0
    1.4934   18.9847    0.7134 H   0  0  0  0  0  0  0  0  0  0  0  0
    0.6185   20.5535    0.7134 H   0  0  0  0  0  0  0  0  0  0  0  0
   -1.4720   18.0930    1.6993 H   0  0  0  0  0  0  0  0  0  0  0  0
   -2.5476   18.3658    0.2868 H   0  0  0  0  0  0  0  0  0  0  0  0
   -1.3977   16.9858    0.2868 H   0  0  0  0  0  0  0  0  0  0  0  0
    2.2842   15.8368   -3.4620 H   0  0  0  0  0  0  0  0  0  0  0  0
    4.5885   15.1494   -3.6941 H   0  0  0  0  0  0  0  0  0  0  0  0
    5.0807   16.0353   -2.2350 H   0  0  0  0  0  0  0  0  0  0  0  0
    4.7230   13.2055   -2.4188 H   0  0  0  0  0  0  0  0  0  0  0  0
    4.8363   14.0895   -0.8992 H   0  0  0  0  0  0  0  0  0  0  0  0
    1.5925   12.2830   -2.7066 H   0  0  0  0  0  0  0  0  0  0  0  0
    1.7087   13.8794   -3.5221 H   0  0  0  0  0  0  0  0  0  0  0  0
    3.1184   12.7661   -3.5221 H   0  0  0  0  0  0  0  0  0  0  0  0
    2.9472   13.3915    0.4444 H   0  0  0  0  0  0  0  0  0  0  0  0
    3.8796   11.4526   -0.9741 H   0  0  0  0  0  0  0  0  0  0  0  0
    3.0550   11.1398    0.6420 H   0  0  0  0  0  0  0  0  0  0  0  0
    2.4616    9.4750   -1.3113 H   0  0  0  0  0  0  0  0  0  0  0  0
   -0.1885   12.4854   -1.7634 H   0  0  0  0  0  0  0  0  0  0  0  0
   -1.1325   11.0128    0.7748 H   0  0  0  0  0  0  0  0  0  0  0  0
   -1.8918   12.4837    0.0203 H   0  0  0  0  0  0  0  0  0  0  0  0
   -3.1449   10.4137   -0.4956 H   0  0  0  0  0  0  0  0  0  0  0  0
   -2.4588   11.2097   -1.9664 H   0  0  0  0  0  0  0  0  0  0  0  0
   -2.1246    8.8393   -2.1458 H   0  0  0  0  0  0  0  0  0  0  0  0
   -0.4110    8.7490    0.0930 H   0  0  0  0  0  0  0  0  0  0  0  0
   -0.7365   11.2141   -3.4415 H   0  0  0  0  0  0  0  0  0  0  0  0
    0.6117   10.2014   -4.0608 H   0  0  0  0  0  0  0  0  0  0  0  0
   -1.0664    9.5605   -4.0608 H   0  0  0  0  0  0  0  0  0  0  0  0
    0.7831    7.7941   -1.3065 H   0  0  0  0  0  0  0  0  0  0  0  0
   -0.1068    7.5660   -2.8501 H   0  0  0  0  0  0  0  0  0  0  0  0
    1.5003    8.3684   -2.8501 H   0  0  0  0  0  0  0  0  0  0  0  0
    0.9796   13.4354    2.1456 H   0  0  0  0  0  0  0  0  0  0  0  0
   -0.2249   12.1610    1.7562 H   0  0  0  0  0  0  0  0  0  0  0  0
    1.5283   11.7699    1.7562 H   0  0  0  0  0  0  0  0  0  0  0  0
   -0.8397   14.2577   -0.2087 H   0  0  0  0  0  0  0  0  0  0  0  0
    0.5777   14.9033    0.7960 H   0  0  0  0  0  0  0  0  0  0  0  0
    0.3375   14.8232   -2.2241 H   0  0  0  0  0  0  0  0  0  0  0  0
    0.3920   16.2640   -1.1339 H   0  0  0  0  0  0  0  0  0  0  0  0
    2.3840   15.3794    0.8264 H   0  0  0  0  0  0  0  0  0  0  0  0
    3.9060   15.8216   -0.0190 H   0  0  0  0  0  0  0  0  0  0  0  0
    2.5155   16.9588   -0.0190 H   0  0  0  0  0  0  0  0  0  0  0  0
  1  2  1  0
  2  3  1  0
  3  4  1  0
  4  5  1  0
  5  6  1  0
  6  7  1  0
  7  8  1  0
  7  9  1  0
  2 10  1  0
 10 11  1  0
 11 12  1  0
 12 13  1  0
 13 14  1  6
 13 15  1  0
 15 16  1  0
 16 17  1  0
 17 18  2  0
 18 19  1  0
 19 20  1  0
 20 21  1  0
 21 22  1  0
 22 23  1  0
 22 24  1  0
 24 25  1  0
 24 26  1  0
 19 27  1  0
 27 28  1  1
 27 29  1  0
 29 30  1  0
 30 31  1  0
 31 32  1  1
  7  5  1  0
 31 10  1  0
 31 13  1  0
 27 15  1  0
 24 18  1  0
  1 33  1  0
  1 34  1  0
  1 35  1  0
  2 36  1  6
  3 37  1  0
  3 38  1  0
  4 39  1  0
  4 40  1  0
  5 41  1  6
  8 42  1  0
  8 43  1  0
  8 44  1  0
  9 45  1  0
  9 46  1  0
  9 47  1  0
 10 48  1  6
 11 49  1  0
 11 50  1  0
 12 51  1  0
 12 52  1  0
 14 53  1  0
 14 54  1  0
 14 55  1  0
 15 56  1  1
 16 57  1  0
 16 58  1  0
 17 59  1  0
 19 60  1  6
 20 61  1  0
 20 62  1  0
 21 63  1  0
 21 64  1  0
 22 65  1  6
 23 66  1  0
 25 67  1  0
 25 68  1  0
 25 69  1  0
 26 70  1  0
 26 71  1  0
 26 72  1  0
 28 73  1  0
 28 74  1  0
 28 75  1  0
 29 76  1  0
 29 77  1  0
 30 78  1  0
 30 79  1  0
 32 80  1  0
 32 81  1  0
 32 82  1  0
M  END
>  <meeko>  (7) 
{"is_sidechain": [false], "intermolecular_energy": 2.731, "internal_energy": -0.839}

$$$$
EPH_relaxed_0001_pdb2pqr_Repair_302_r2_0001_out
     RDKit          3D

 82 86  0  0  0  0  0  0  0  0999 V2000
   -2.6430    7.6470   -3.0620 C   0  0  0  0  0  0  0  0  0  0  0  0
   -2.9070    7.8890   -1.5740 C   0  0  2  0  0  0  0  0  0  0  0  0
   -4.4120    7.8530   -1.2380 C   0  0  0  0  0  0  0  0  0  0  0  0
   -5.1570    6.6780   -1.8770 C   0  0  0  0  0  0  0  0  0  0  0  0
   -6.3610    7.1360   -2.6440 C   0  0  2  0  0  0  0  0  0  0  0  0
   -6.9180    8.3790   -2.1970 O   0  0  0  0  0  0  0  0  0  0  0  0
   -7.7520    7.2190   -2.0450 C   0  0  0  0  0  0  0  0  0  0  0  0
   -8.0130    6.8400   -0.6210 C   0  0  0  0  0  0  0  0  0  0  0  0
   -8.9310    7.2000   -2.9670 C   0  0  0  0  0  0  0  0  0  0  0  0
   -2.3120    9.2270   -1.1510 C   0  0  1  0  0  0  0  0  0  0  0  0
   -2.8030    9.6850    0.2480 C   0  0  0  0  0  0  0  0  0  0  0  0
   -1.6170   10.4230    0.9200 C   0  0  0  0  0  0  0  0  0  0  0  0
   -0.6040   10.6570   -0.2260 C   0  0  1  0  0  0  0  0  0  0  0  0
   -1.1300   11.9210   -0.9750 C   0  0  0  0  0  0  0  0  0  0  0  0
    0.8920   10.8170    0.1970 C   0  0  2  0  0  0  0  0  0  0  0  0
    1.1900   12.0300    1.0960 C   0  0  0  0  0  0  0  0  0  0  0  0
    1.5510   13.2860    0.3740 C   0  0  0  0  0  0  0  0  0  0  0  0
    1.9110   13.3680   -0.9200 C   0  0  0  0  0  0  0  0  0  0  0  0
    2.0770   12.1040   -1.7730 C   0  0  1  0  0  0  0  0  0  0  0  0
    3.4030   12.1910   -2.5750 C   0  0  0  0  0  0  0  0  0  0  0  0
    3.5040   13.4690   -3.4010 C   0  0  0  0  0  0  0  0  0  0  0  0
    3.3920   14.7040   -2.5110 C   0  0  2  0  0  0  0  0  0  0  0  0
    4.5410   14.7630   -1.6590 O   0  0  0  0  0  0  0  0  0  0  0  0
    2.1000   14.7220   -1.6470 C   0  0  0  0  0  0  0  0  0  0  0  0
    0.8700   14.9620   -2.5570 C   0  0  0  0  0  0  0  0  0  0  0  0
    2.1800   15.9450   -0.6940 C   0  0  0  0  0  0  0  0  0  0  0  0
    1.9190   10.7220   -1.0030 C   0  0  1  0  0  0  0  0  0  0  0  0
    3.2870   10.2970   -0.3870 C   0  0  0  0  0  0  0  0  0  0  0  0
    1.5290    9.6000   -2.0360 C   0  0  0  0  0  0  0  0  0  0  0  0
    0.0280    9.4100   -2.3220 C   0  0  0  0  0  0  0  0  0  0  0  0
   -0.7700    9.3090   -1.0190 C   0  0  2  0  0  0  0  0  0  0  0  0
   -0.2780    8.0330   -0.2540 C   0  0  0  0  0  0  0  0  0  0  0  0
   -1.8365    6.9077   -3.1758 H   0  0  0  0  0  0  0  0  0  0  0  0
   -3.5583    7.2676   -3.5398 H   0  0  0  0  0  0  0  0  0  0  0  0
   -2.3445    8.5918   -3.5398 H   0  0  0  0  0  0  0  0  0  0  0  0
   -2.4237    7.0737   -1.0157 H   0  0  0  0  0  0  0  0  0  0  0  0
   -4.5225    7.7817   -0.1459 H   0  0  0  0  0  0  0  0  0  0  0  0
   -4.8545    8.7741   -1.6452 H   0  0  0  0  0  0  0  0  0  0  0  0
   -4.4751    6.1544   -2.5632 H   0  0  0  0  0  0  0  0  0  0  0  0
   -5.4969    6.0092   -1.0725 H   0  0  0  0  0  0  0  0  0  0  0  0
   -5.9810    6.6700   -3.5651 H   0  0  0  0  0  0  0  0  0  0  0  0
   -7.5172    7.5599    0.0468 H   0  0  0  0  0  0  0  0  0  0  0  0
   -9.0965    6.8502   -0.4315 H   0  0  0  0  0  0  0  0  0  0  0  0
   -7.6171    5.8314   -0.4315 H   0  0  0  0  0  0  0  0  0  0  0  0
   -9.8585    7.1851   -2.3759 H   0  0  0  0  0  0  0  0  0  0  0  0
   -8.9149    8.0985   -3.6014 H   0  0  0  0  0  0  0  0  0  0  0  0
   -8.8860    6.3025   -3.6014 H   0  0  0  0  0  0  0  0  0  0  0  0
   -2.6525    9.8530   -1.9890 H   0  0  0  0  0  0  0  0  0  0  0  0
   -3.6618   10.3645    0.1441 H   0  0  0  0  0  0  0  0  0  0  0  0
   -3.1267    8.8255    0.8533 H   0  0  0  0  0  0  0  0  0  0  0  0
   -1.9477   11.3810    1.3477 H   0  0  0  0  0  0  0  0  0  0  0  0
   -1.1826    9.8461    1.7498 H   0  0  0  0  0  0  0  0  0  0  0  0
   -1.4448   12.6775   -0.2411 H   0  0  0  0  0  0  0  0  0  0  0  0
   -0.3288   12.3333   -1.6059 H   0  0  0  0  0  0  0  0  0  0  0  0
   -1.9872   11.6431   -1.6059 H   0  0  0  0  0  0  0  0  0  0  0  0
    1.0543    9.9303    0.8274 H   0  0  0  0  0  0  0  0  0  0  0  0
    0.2946   12.2319    1.7022 H   0  0  0  0  0  0  0  0  0  0  0  0
    2.0734   11.7571    1.6920 H   0  0  0  0  0  0  0  0  0  0  0  0
    1.5201   14.2236    0.9484 H   0  0  0  0  0  0  0  0  0  0  0  0
    1.2222   12.0896   -2.4652 H   0  0  0  0  0  0  0  0  0  0  0  0
    4.2453   12.1605   -1.8682 H   0  0  0  0  0  0  0  0  0  0  0  0
    3.4283   11.3402   -3.2718 H   0  0  0  0  0  0  0  0  0  0  0  0
    4.4735   13.4863   -3.9204 H   0  0  0  0  0  0  0  0  0  0  0  0
    2.6782   13.4837   -4.1275 H   0  0  0  0  0  0  0  0  0  0  0  0
    3.3400   15.5826   -3.1708 H   0  0  0  0  0  0  0  0  0  0  0  0
    4.2590   15.1480   -0.8120 H   0  0  0  0  0  0  0  0  0  0  0  0
   -0.0193   15.1355   -1.9333 H   0  0  0  0  0  0  0  0  0  0  0  0
    1.0498   15.8420   -3.1920 H   0  0  0  0  0  0  0  0  0  0  0  0
    0.7058   14.0789   -3.1920 H   0  0  0  0  0  0  0  0  0  0  0  0
    2.1573   15.5986    0.3498 H   0  0  0  0  0  0  0  0  0  0  0  0
    3.1159   16.4928   -0.8783 H   0  0  0  0  0  0  0  0  0  0  0  0
    1.3234   16.6101   -0.8783 H   0  0  0  0  0  0  0  0  0  0  0  0
    3.2174   10.3186    0.7106 H   0  0  0  0  0  0  0  0  0  0  0  0
    3.5378    9.2786   -0.7185 H   0  0  0  0  0  0  0  0  0  0  0  0
    4.0708   10.9940   -0.7185 H   0  0  0  0  0  0  0  0  0  0  0  0
    2.0216    9.8402   -2.9898 H   0  0  0  0  0  0  0  0  0  0  0  0
    1.8551    8.6570   -1.5730 H   0  0  0  0  0  0  0  0  0  0  0  0
   -0.3391   10.2688   -2.9031 H   0  0  0  0  0  0  0  0  0  0  0  0
   -0.1056    8.4765   -2.8883 H   0  0  0  0  0  0  0  0  0  0  0  0
   -0.3450    8.2068    0.8301 H   0  0  0  0  0  0  0  0  0  0  0  0
   -0.9098    7.1751   -0.5275 H   0  0  0  0  0  0  0  0  0  0  0  0
    0.7662    7.8213   -0.5275 H   0  0  0  0  0  0  0  0  0  0  0  0
  1  2  1  0
  2  3  1  0
  3  4  1  0
  4  5  1  0
  5  6  1  0
  6  7  1  0
  7  8  1  0
  7  9  1  0
  2 10  1  0
 10 11  1  0
 11 12  1  0
 12 13  1  0
 13 14  1  6
 13 15  1  0
 15 16  1  0
 16 17  1  0
 17 18  2  0
 18 19  1  0
 19 20  1  0
 20 21  1  0
 21 22  1  0
 22 23  1  0
 22 24  1  0
 24 25  1  0
 24 26  1  0
 19 27  1  0
 27 28  1  1
 27 29  1  0
 29 30  1  0
 30 31  1  0
 31 32  1  1
  7  5  1  0
 31 10  1  0
 31 13  1  0
 27 15  1  0
 24 18  1  0
  1 33  1  0
  1 34  1  0
  1 35  1  0
  2 36  1  1
  3 37  1  0
  3 38  1  0
  4 39  1  0
  4 40  1  0
  5 41  1  6
  8 42  1  0
  8 43  1  0
  8 44  1  0
  9 45  1  0
  9 46  1  0
  9 47  1  0
 10 48  1  6
 11 49  1  0
 11 50  1  0
 12 51  1  0
 12 52  1  0
 14 53  1  0
 14 54  1  0
 14 55  1  0
 15 56  1  1
 16 57  1  0
 16 58  1  0
 17 59  1  0
 19 60  1  6
 20 61  1  0
 20 62  1  0
 21 63  1  0
 21 64  1  0
 22 65  1  6
 23 66  1  0
 25 67  1  0
 25 68  1  0
 25 69  1  0
 26 70  1  0
 26 71  1  0
 26 72  1  0
 28 73  1  0
 28 74  1  0
 28 75  1  0
 29 76  1  0
 29 77  1  0
 30 78  1  0
 30 79  1  0
 32 80  1  0
 32 81  1  0
 32 82  1  0
M  END
>  <meeko>  (8) 
{"is_sidechain": [false], "intermolecular_energy": 2.731, "internal_energy": -0.839}

$$$$
EPH_relaxed_0001_pdb2pqr_Repair_302_r2_0001_out
     RDKit          3D

 82 86  0  0  0  0  0  0  0  0999 V2000
    0.2690   17.8320   -0.3470 C   0  0  0  0  0  0  0  0  0  0  0  0
    1.2180   17.0930   -1.2960 C   0  0  2  0  0  0  0  0  0  0  0  0
    1.6420   17.9710   -2.4910 C   0  0  0  0  0  0  0  0  0  0  0  0
    3.1430   18.2710   -2.5310 C   0  0  0  0  0  0  0  0  0  0  0  0
    3.9600   17.0620   -2.1860 C   0  0  2  0  0  0  0  0  0  0  0  0
    5.1310   17.3340   -1.4060 O   0  0  0  0  0  0  0  0  0  0  0  0
    5.3550   16.8130   -2.7260 C   0  0  0  0  0  0  0  0  0  0  0  0
    6.0150   17.7790   -3.6580 C   0  0  0  0  0  0  0  0  0  0  0  0
    5.8770   15.4100   -2.7390 C   0  0  0  0  0  0  0  0  0  0  0  0
    0.5590   15.8140   -1.7980 C   0  0  1  0  0  0  0  0  0  0  0  0
    0.1390   15.9030   -3.2890 C   0  0  0  0  0  0  0  0  0  0  0  0
    0.3410   14.4910   -3.8960 C   0  0  0  0  0  0  0  0  0  0  0  0
    0.5490   13.5670   -2.6740 C   0  0  1  0  0  0  0  0  0  0  0  0
   -0.8900   13.2710   -2.1450 C   0  0  0  0  0  0  0  0  0  0  0  0
    1.3510   12.2500   -2.9310 C   0  0  2  0  0  0  0  0  0  0  0  0
    0.6990   11.2720   -3.9230 C   0  0  0  0  0  0  0  0  0  0  0  0
   -0.2180   10.2620   -3.3150 C   0  0  0  0  0  0  0  0  0  0  0  0
   -0.2880    9.9600   -2.0050 C   0  0  0  0  0  0  0  0  0  0  0  0
    0.6800   10.5920   -0.9970 C   0  0  1  0  0  0  0  0  0  0  0  0
    1.2420    9.4920   -0.0590 C   0  0  0  0  0  0  0  0  0  0  0  0
    0.1410    8.6820    0.6190 C   0  0  0  0  0  0  0  0  0  0  0  0
   -0.7660    8.0220   -0.4160 C   0  0  2  0  0  0  0  0  0  0  0  0
   -0.0130    7.0340   -1.1260 O   0  0  0  0  0  0  0  0  0  0  0  0
   -1.3830    9.0320   -1.4240 C   0  0  0  0  0  0  0  0  0  0  0  0
   -2.4330    9.9120   -0.7010 C   0  0  0  0  0  0  0  0  0  0  0  0
   -2.1610    8.2220   -2.4960 C   0  0  0  0  0  0  0  0  0  0  0  0
    1.8220   11.5090   -1.6140 C   0  0  1  0  0  0  0  0  0  0  0  0
    3.0510   10.6350   -2.0090 C   0  0  0  0  0  0  0  0  0  0  0  0
    2.3270   12.5130   -0.5110 C   0  0  0  0  0  0  0  0  0  0  0  0
    1.5670   13.8480   -0.3860 C   0  0  0  0  0  0  0  0  0  0  0  0
    1.4020   14.5150   -1.7550 C   0  0  2  0  0  0  0  0  0  0  0  0
    2.8330   14.8450   -2.3020 C   0  0  0  0  0  0  0  0  0  0  0  0
    0.5487   17.6142    0.6943 H   0  0  0  0  0  0  0  0  0  0  0  0
    0.3403   18.9148   -0.5270 H   0  0  0  0  0  0  0  0  0  0  0  0
   -0.7634   17.4976   -0.5270 H   0  0  0  0  0  0  0  0  0  0  0  0
    2.1271   16.8446   -0.7287 H   0  0  0  0  0  0  0  0  0  0  0  0
    1.3669   17.4500   -3.4199 H   0  0  0  0  0  0  0  0  0  0  0  0
    1.1238   18.9351   -2.3820 H   0  0  0  0  0  0  0  0  0  0  0  0
    3.4126   18.6063   -3.5434 H   0  0  0  0  0  0  0  0  0  0  0  0
    3.3562   19.0525   -1.7868 H   0  0  0  0  0  0  0  0  0  0  0  0
    3.0583   16.4328   -2.1543 H   0  0  0  0  0  0  0  0  0  0  0  0
    6.5413   18.5493   -3.0753 H   0  0  0  0  0  0  0  0  0  0  0  0
    6.7361   17.2424   -4.2920 H   0  0  0  0  0  0  0  0  0  0  0  0
    5.2529   18.2557   -4.2920 H   0  0  0  0  0  0  0  0  0  0  0  0
    6.0080   15.0579   -1.7051 H   0  0  0  0  0  0  0  0  0  0  0  0
    5.1615   14.7574   -3.2607 H   0  0  0  0  0  0  0  0  0  0  0  0
    6.8451   15.3838   -3.2607 H   0  0  0  0  0  0  0  0  0  0  0  0
   -0.2753   15.7453   -1.0844 H   0  0  0  0  0  0  0  0  0  0  0  0
   -0.9167   16.2017   -3.3679 H   0  0  0  0  0  0  0  0  0  0  0  0
    0.7402   16.6526   -3.8244 H   0  0  0  0  0  0  0  0  0  0  0  0
   -0.5467   14.1838   -4.4684 H   0  0  0  0  0  0  0  0  0  0  0  0
    1.1894   14.4551   -4.5952 H   0  0  0  0  0  0  0  0  0  0  0  0
   -0.8838   13.2723   -1.0450 H   0  0  0  0  0  0  0  0  0  0  0  0
   -1.5809   14.0458   -2.5087 H   0  0  0  0  0  0  0  0  0  0  0  0
   -1.2190   12.2864   -2.5087 H   0  0  0  0  0  0  0  0  0  0  0  0
    2.2584   12.6212   -3.4298 H   0  0  0  0  0  0  0  0  0  0  0  0
    0.1213   11.8609   -4.6506 H   0  0  0  0  0  0  0  0  0  0  0  0
    1.5242   10.7010   -4.3736 H   0  0  0  0  0  0  0  0  0  0  0  0
   -0.8923    9.7198   -3.9942 H   0  0  0  0  0  0  0  0  0  0  0  0
    0.0855   11.3113   -0.4146 H   0  0  0  0  0  0  0  0  0  0  0  0
    1.8678    8.8089   -0.6521 H   0  0  0  0  0  0  0  0  0  0  0  0
    1.8231    9.9914    0.7303 H   0  0  0  0  0  0  0  0  0  0  0  0
    0.6006    7.9024    1.2443 H   0  0  0  0  0  0  0  0  0  0  0  0
   -0.4658    9.3613    1.2357 H   0  0  0  0  0  0  0  0  0  0  0  0
   -1.6076    7.5666    0.1265 H   0  0  0  0  0  0  0  0  0  0  0  0
    0.4240    6.4680   -0.4670 H   0  0  0  0  0  0  0  0  0  0  0  0
   -2.3106    9.8094    0.3873 H   0  0  0  0  0  0  0  0  0  0  0  0
   -2.2901   10.9641   -0.9885 H   0  0  0  0  0  0  0  0  0  0  0  0
   -3.4439    9.5874   -0.9885 H   0  0  0  0  0  0  0  0  0  0  0  0
   -2.8408    7.5143   -1.9990 H   0  0  0  0  0  0  0  0  0  0  0  0
   -2.7445    8.9111   -3.1243 H   0  0  0  0  0  0  0  0  0  0  0  0
   -1.4490    7.6668   -3.1243 H   0  0  0  0  0  0  0  0  0  0  0  0
    3.5542   10.2771   -1.0987 H   0  0  0  0  0  0  0  0  0  0  0  0
    2.7125    9.7736   -2.6035 H   0  0  0  0  0  0  0  0  0  0  0  0
    3.7535   11.2375   -2.6035 H   0  0  0  0  0  0  0  0  0  0  0  0
    2.2617   12.0007    0.4602 H   0  0  0  0  0  0  0  0  0  0  0  0
    3.3462   12.7898   -0.8187 H   0  0  0  0  0  0  0  0  0  0  0  0
    0.5725   13.6571    0.0435 H   0  0  0  0  0  0  0  0  0  0  0  0
    2.1446   14.5209    0.2648 H   0  0  0  0  0  0  0  0  0  0  0  0
    3.5206   15.0036   -1.4581 H   0  0  0  0  0  0  0  0  0  0  0  0
    3.1933   14.0064   -2.9159 H   0  0  0  0  0  0  0  0  0  0  0  0
    2.7896   15.7567   -2.9159 H   0  0  0  0  0  0  0  0  0  0  0  0
  1  2  1  0
  2  3  1  0
  3  4  1  0
  4  5  1  0
  5  6  1  0
  6  7  1  0
  7  8  1  0
  7  9  1  0
  2 10  1  0
 10 11  1  0
 11 12  1  0
 12 13  1  0
 13 14  1  1
 13 15  1  0
 15 16  1  0
 16 17  1  0
 17 18  2  0
 18 19  1  0
 19 20  1  0
 20 21  1  0
 21 22  1  0
 22 23  1  0
 22 24  1  0
 24 25  1  0
 24 26  1  0
 19 27  1  0
 27 28  1  6
 27 29  1  0
 29 30  1  0
 30 31  1  0
 31 32  1  6
  7  5  1  0
 31 10  1  0
 31 13  1  0
 27 15  1  0
 24 18  1  0
  1 33  1  0
  1 34  1  0
  1 35  1  0
  2 36  1  1
  3 37  1  0
  3 38  1  0
  4 39  1  0
  4 40  1  0
  5 41  1  1
  8 42  1  0
  8 43  1  0
  8 44  1  0
  9 45  1  0
  9 46  1  0
  9 47  1  0
 10 48  1  1
 11 49  1  0
 11 50  1  0
 12 51  1  0
 12 52  1  0
 14 53  1  0
 14 54  1  0
 14 55  1  0
 15 56  1  6
 16 57  1  0
 16 58  1  0
 17 59  1  0
 19 60  1  1
 20 61  1  0
 20 62  1  0
 21 63  1  0
 21 64  1  0
 22 65  1  1
 23 66  1  0
 25 67  1  0
 25 68  1  0
 25 69  1  0
 26 70  1  0
 26 71  1  0
 26 72  1  0
 28 73  1  0
 28 74  1  0
 28 75  1  0
 29 76  1  0
 29 77  1  0
 30 78  1  0
 30 79  1  0
 32 80  1  0
 32 81  1  0
 32 82  1  0
M  END
>  <meeko>  (9) 
{"is_sidechain": [false], "intermolecular_energy": 2.731, "internal_energy": -0.839}

$$$$
EPH_relaxed_0001_pdb2pqr_Repair_302_r2_0001_out
     RDKit          3D

 82 86  0  0  0  0  0  0  0  0999 V2000
    2.3620   18.2410   -3.3080 C   0  0  0  0  0  0  0  0  0  0  0  0
    2.3210   17.5140   -1.9610 C   0  0  2  0  0  0  0  0  0  0  0  0
    3.4750   17.9430   -1.0340 C   0  0  0  0  0  0  0  0  0  0  0  0
    3.1200   19.1090   -0.1080 C   0  0  0  0  0  0  0  0  0  0  0  0
    3.3090   18.7490    1.3350 C   0  0  2  0  0  0  0  0  0  0  0  0
    3.1350   19.8380    2.2510 O   0  0  0  0  0  0  0  0  0  0  0  0
    4.4530   19.2700    2.1840 C   0  0  0  0  0  0  0  0  0  0  0  0
    5.4860   20.1940    1.6200 C   0  0  0  0  0  0  0  0  0  0  0  0
    4.8420   18.5020    3.4090 C   0  0  0  0  0  0  0  0  0  0  0  0
    2.3630   16.0070   -2.1830 C   0  0  1  0  0  0  0  0  0  0  0  0
    3.7890   15.4920   -2.5180 C   0  0  0  0  0  0  0  0  0  0  0  0
    3.9200   14.0880   -1.8730 C   0  0  0  0  0  0  0  0  0  0  0  0
    2.4750   13.7030   -1.4780 C   0  0  1  0  0  0  0  0  0  0  0  0
    1.8270   13.1750   -2.7970 C   0  0  0  0  0  0  0  0  0  0  0  0
    2.3290   12.6740   -0.3110 C   0  0  2  0  0  0  0  0  0  0  0  0
    2.9320   11.2860   -0.5850 C   0  0  0  0  0  0  0  0  0  0  0  0
    2.0000   10.2950   -1.2000 C   0  0  0  0  0  0  0  0  0  0  0  0
    0.6610   10.4140   -1.2590 C   0  0  0  0  0  0  0  0  0  0  0  0
   -0.0570   11.5890   -0.5830 C   0  0  1  0  0  0  0  0  0  0  0  0
   -1.2750   11.0610    0.2180 C   0  0  0  0  0  0  0  0  0  0  0  0
   -2.2160   10.2170   -0.6370 C   0  0  0  0  0  0  0  0  0  0  0  0
   -1.4800    9.0260   -1.2440 C   0  0  2  0  0  0  0  0  0  0  0  0
   -1.0950    8.1360   -0.1920 O   0  0  0  0  0  0  0  0  0  0  0  0
   -0.2260    9.4350   -2.0680 C   0  0  0  0  0  0  0  0  0  0  0  0
   -0.6690   10.1430   -3.3720 C   0  0  0  0  0  0  0  0  0  0  0  0
    0.5020    8.1360   -2.5050 C   0  0  0  0  0  0  0  0  0  0  0  0
    0.8630   12.5620    0.2740 C   0  0  1  0  0  0  0  0  0  0  0  0
    1.0040   12.0160    1.7280 C   0  0  0  0  0  0  0  0  0  0  0  0
    0.1570   13.9640    0.3930 C   0  0  0  0  0  0  0  0  0  0  0  0
    0.4360   14.9800   -0.7310 C   0  0  0  0  0  0  0  0  0  0  0  0
    1.9390   15.1010   -1.0000 C   0  0  2  0  0  0  0  0  0  0  0  0
    2.6150   15.6520    0.3020 C   0  0  0  0  0  0  0  0  0  0  0  0
    2.4232   19.3260   -3.1374 H   0  0  0  0  0  0  0  0  0  0  0  0
    3.2429   17.9091   -3.8771 H   0  0  0  0  0  0  0  0  0  0  0  0
    1.4494   18.0102   -3.8771 H   0  0  0  0  0  0  0  0  0  0  0  0
    1.3794   17.7904   -1.4640 H   0  0  0  0  0  0  0  0  0  0  0  0
    3.7604   17.0810   -0.4131 H   0  0  0  0  0  0  0  0  0  0  0  0
    4.2965   18.2850   -1.6807 H   0  0  0  0  0  0  0  0  0  0  0  0
    3.7667   19.9654   -0.3493 H   0  0  0  0  0  0  0  0  0  0  0  0
    2.0601   19.3592   -0.2628 H   0  0  0  0  0  0  0  0  0  0  0  0
    2.9259   17.7334    1.1565 H   0  0  0  0  0  0  0  0  0  0  0  0
    6.0305   20.6810    2.4424 H   0  0  0  0  0  0  0  0  0  0  0  0
    6.1922   19.6207    1.0015 H   0  0  0  0  0  0  0  0  0  0  0  0
    4.9947   20.9595    1.0015 H   0  0  0  0  0  0  0  0  0  0  0  0
    4.5539   19.0709    4.3053 H   0  0  0  0  0  0  0  0  0  0  0  0
    4.3277   17.5296    3.4108 H   0  0  0  0  0  0  0  0  0  0  0  0
    5.9302   18.3413    3.4108 H   0  0  0  0  0  0  0  0  0  0  0  0
    1.6340   15.9214   -3.0023 H   0  0  0  0  0  0  0  0  0  0  0  0
    3.9202   15.4220   -3.6079 H   0  0  0  0  0  0  0  0  0  0  0  0
    4.5576   16.1776   -2.1318 H   0  0  0  0  0  0  0  0  0  0  0  0
    4.3307   13.3662   -2.5943 H   0  0  0  0  0  0  0  0  0  0  0  0
    4.6022   14.0876   -1.0101 H   0  0  0  0  0  0  0  0  0  0  0  0
    0.9957   12.4977   -2.5516 H   0  0  0  0  0  0  0  0  0  0  0  0
    1.4471   14.0240   -3.3843 H   0  0  0  0  0  0  0  0  0  0  0  0
    2.5817   12.6314   -3.3843 H   0  0  0  0  0  0  0  0  0  0  0  0
    2.9542   13.1204    0.4763 H   0  0  0  0  0  0  0  0  0  0  0  0
    3.7872   11.4153   -1.2646 H   0  0  0  0  0  0  0  0  0  0  0  0
    3.2076   10.8750    0.3974 H   0  0  0  0  0  0  0  0  0  0  0  0
    2.4454    9.3916   -1.6421 H   0  0  0  0  0  0  0  0  0  0  0  0
   -0.4026   12.2434   -1.3968 H   0  0  0  0  0  0  0  0  0  0  0  0
   -0.9082   10.4448    1.0521 H   0  0  0  0  0  0  0  0  0  0  0  0
   -1.8417   11.9326    0.5774 H   0  0  0  0  0  0  0  0  0  0  0  0
   -3.0404    9.8487   -0.0088 H   0  0  0  0  0  0  0  0  0  0  0  0
   -2.6050   10.8429   -1.4537 H   0  0  0  0  0  0  0  0  0  0  0  0
   -2.1703    8.5355   -1.9461 H   0  0  0  0  0  0  0  0  0  0  0  0
   -1.6180    7.3220   -0.2880 H   0  0  0  0  0  0  0  0  0  0  0  0
   -1.2371   11.0510   -3.1214 H   0  0  0  0  0  0  0  0  0  0  0  0
    0.2191   10.4169   -3.9604 H   0  0  0  0  0  0  0  0  0  0  0  0
   -1.3037    9.4641   -3.9604 H   0  0  0  0  0  0  0  0  0  0  0  0
    0.8168    7.5743   -1.6131 H   0  0  0  0  0  0  0  0  0  0  0  0
   -0.1809    7.5174   -3.1058 H   0  0  0  0  0  0  0  0  0  0  0  0
    1.3861    8.3956   -3.1058 H   0  0  0  0  0  0  0  0  0  0  0  0
    0.7954   12.8238    2.4449 H   0  0  0  0  0  0  0  0  0  0  0  0
    0.2884   11.1950    1.8824 H   0  0  0  0  0  0  0  0  0  0  0  0
    2.0277   11.6441    1.8824 H   0  0  0  0  0  0  0  0  0  0  0  0
   -0.9286   13.7886    0.4211 H   0  0  0  0  0  0  0  0  0  0  0  0
    0.5741   14.4199    1.3031 H   0  0  0  0  0  0  0  0  0  0  0  0
   -0.0684   14.6473   -1.6502 H   0  0  0  0  0  0  0  0  0  0  0  0
    0.0556   15.9633   -0.4173 H   0  0  0  0  0  0  0  0  0  0  0  0
    2.1053   15.2365    1.1838 H   0  0  0  0  0  0  0  0  0  0  0  0
    3.6746   15.3569    0.3181 H   0  0  0  0  0  0  0  0  0  0  0  0
    2.5397   16.7493    0.3181 H   0  0  0  0  0  0  0  0  0  0  0  0
  1  2  1  0
  2  3  1  0
  3  4  1  0
  4  5  1  0
  5  6  1  0
  6  7  1  0
  7  8  1  0
  7  9  1  0
  2 10  1  0
 10 11  1  0
 11 12  1  0
 12 13  1  0
 13 14  1  6
 13 15  1  0
 15 16  1  0
 16 17  1  0
 17 18  2  0
 18 19  1  0
 19 20  1  0
 20 21  1  0
 21 22  1  0
 22 23  1  0
 22 24  1  0
 24 25  1  0
 24 26  1  0
 19 27  1  0
 27 28  1  1
 27 29  1  0
 29 30  1  0
 30 31  1  0
 31 32  1  1
  7  5  1  0
 31 10  1  0
 31 13  1  0
 27 15  1  0
 24 18  1  0
  1 33  1  0
  1 34  1  0
  1 35  1  0
  2 36  1  1
  3 37  1  0
  3 38  1  0
  4 39  1  0
  4 40  1  0
  5 41  1  1
  8 42  1  0
  8 43  1  0
  8 44  1  0
  9 45  1  0
  9 46  1  0
  9 47  1  0
 10 48  1  6
 11 49  1  0
 11 50  1  0
 12 51  1  0
 12 52  1  0
 14 53  1  0
 14 54  1  0
 14 55  1  0
 15 56  1  1
 16 57  1  0
 16 58  1  0
 17 59  1  0
 19 60  1  6
 20 61  1  0
 20 62  1  0
 21 63  1  0
 21 64  1  0
 22 65  1  6
 23 66  1  0
 25 67  1  0
 25 68  1  0
 25 69  1  0
 26 70  1  0
 26 71  1  0
 26 72  1  0
 28 73  1  0
 28 74  1  0
 28 75  1  0
 29 76  1  0
 29 77  1  0
 30 78  1  0
 30 79  1  0
 32 80  1  0
 32 81  1  0
 32 82  1  0
M  END
>  <meeko>  (10) 
{"is_sidechain": [false], "intermolecular_energy": 2.731, "internal_energy": -0.839}

$$$$
EPH_relaxed_0001_pdb2pqr_Repair_302_r2_0001_out
     RDKit          3D

 82 86  0  0  0  0  0  0  0  0999 V2000
    0.4890    8.9450   -2.2930 C   0  0  0  0  0  0  0  0  0  0  0  0
    1.2520   10.0490   -3.0300 C   0  0  2  0  0  0  0  0  0  0  0  0
    2.7480   10.0710   -2.6550 C   0  0  0  0  0  0  0  0  0  0  0  0
    3.6620   10.5210   -3.7980 C   0  0  0  0  0  0  0  0  0  0  0  0
    5.0530   10.8030   -3.3160 C   0  0  2  0  0  0  0  0  0  0  0  0
    5.6190   12.0260   -3.8060 O   0  0  0  0  0  0  0  0  0  0  0  0
    6.2670   10.8140   -4.2260 C   0  0  0  0  0  0  0  0  0  0  0  0
    6.1470   10.5360   -5.6910 C   0  0  0  0  0  0  0  0  0  0  0  0
    7.6190   10.6110   -3.6160 C   0  0  0  0  0  0  0  0  0  0  0  0
    0.6210   11.4040   -2.7340 C   0  0  1  0  0  0  0  0  0  0  0  0
   -0.6690   11.2880   -1.8790 C   0  0  0  0  0  0  0  0  0  0  0  0
   -0.7030   12.5290   -0.9500 C   0  0  0  0  0  0  0  0  0  0  0  0
    0.3770   13.4760   -1.5250 C   0  0  1  0  0  0  0  0  0  0  0  0
   -0.3180   14.1970   -2.7220 C   0  0  0  0  0  0  0  0  0  0  0  0
    1.0040   14.4980   -0.5210 C   0  0  2  0  0  0  0  0  0  0  0  0
    0.0170   15.5150    0.0760 C   0  0  0  0  0  0  0  0  0  0  0  0
   -0.1300   16.7870   -0.6910 C   0  0  0  0  0  0  0  0  0  0  0  0
    0.7060   17.2220   -1.6520 C   0  0  0  0  0  0  0  0  0  0  0  0
    1.9900   16.4530   -1.9860 C   0  0  1  0  0  0  0  0  0  0  0  0
    3.1780   17.4460   -2.0880 C   0  0  0  0  0  0  0  0  0  0  0  0
    2.9070   18.5830   -3.0680 C   0  0  0  0  0  0  0  0  0  0  0  0
    1.6550   19.3610   -2.6690 C   0  0  2  0  0  0  0  0  0  0  0  0
    1.9060   20.0370   -1.4330 O   0  0  0  0  0  0  0  0  0  0  0  0
    0.3950   18.4620   -2.5270 C   0  0  0  0  0  0  0  0  0  0  0  0
   -0.0540   17.9700   -3.9250 C   0  0  0  0  0  0  0  0  0  0  0  0
   -0.7620   19.3440   -1.9850 C   0  0  0  0  0  0  0  0  0  0  0  0
    2.3150   15.2070   -1.0540 C   0  0  1  0  0  0  0  0  0  0  0  0
    3.1090   15.6760    0.2030 C   0  0  0  0  0  0  0  0  0  0  0  0
    3.2590   14.2150   -1.8310 C   0  0  0  0  0  0  0  0  0  0  0  0
    2.5750   13.1530   -2.7130 C   0  0  0  0  0  0  0  0  0  0  0  0
    1.4710   12.4260   -1.9380 C   0  0  2  0  0  0  0  0  0  0  0  0
    2.1430   11.6730   -0.7400 C   0  0  0  0  0  0  0  0  0  0  0  0
    0.5901    9.0913   -1.2075 H   0  0  0  0  0  0  0  0  0  0  0  0
   -0.5745    8.9859   -2.5710 H   0  0  0  0  0  0  0  0  0  0  0  0
    0.9032    7.9646   -2.5710 H   0  0  0  0  0  0  0  0  0  0  0  0
    1.1847    9.8351   -4.1069 H   0  0  0  0  0  0  0  0  0  0  0  0
    2.8840   10.7611   -1.8092 H   0  0  0  0  0  0  0  0  0  0  0  0
    3.0318    9.0384   -2.4037 H   0  0  0  0  0  0  0  0  0  0  0  0
    3.7019    9.7258   -4.5570 H   0  0  0  0  0  0  0  0  0  0  0  0
    3.2506   11.4491   -4.2215 H   0  0  0  0  0  0  0  0  0  0  0  0
    4.8513   10.2951   -2.3614 H   0  0  0  0  0  0  0  0  0  0  0  0
    5.7151    9.5354   -5.8402 H   0  0  0  0  0  0  0  0  0  0  0  0
    5.4942   11.2900   -6.1550 H   0  0  0  0  0  0  0  0  0  0  0  0
    7.1434   10.5781   -6.1550 H   0  0  0  0  0  0  0  0  0  0  0  0
    7.5322   10.6240   -2.5195 H   0  0  0  0  0  0  0  0  0  0  0  0
    8.0257    9.6417   -3.9401 H   0  0  0  0  0  0  0  0  0  0  0  0
    8.2924   11.4181   -3.9401 H   0  0  0  0  0  0  0  0  0  0  0  0
    0.4657   11.7635   -3.7619 H   0  0  0  0  0  0  0  0  0  0  0  0
   -1.5555   11.2779   -2.5302 H   0  0  0  0  0  0  0  0  0  0  0  0
   -0.6727   10.3565   -1.2940 H   0  0  0  0  0  0  0  0  0  0  0  0
   -1.6932   13.0073   -0.9769 H   0  0  0  0  0  0  0  0  0  0  0  0
   -0.5126   12.2685    0.1016 H   0  0  0  0  0  0  0  0  0  0  0  0
   -1.0333   14.9391   -2.3378 H   0  0  0  0  0  0  0  0  0  0  0  0
    0.4414   14.7034   -3.3360 H   0  0  0  0  0  0  0  0  0  0  0  0
   -0.8519   13.4567   -3.3360 H   0  0  0  0  0  0  0  0  0  0  0  0
    1.3080   13.8521    0.3159 H   0  0  0  0  0  0  0  0  0  0  0  0
   -0.9717   15.0361    0.1327 H   0  0  0  0  0  0  0  0  0  0  0  0
    0.4270   15.7970    1.0570 H   0  0  0  0  0  0  0  0  0  0  0  0
   -0.9948   17.4228   -0.4505 H   0  0  0  0  0  0  0  0  0  0  0  0
    1.8143   15.9797   -2.9633 H   0  0  0  0  0  0  0  0  0  0  0  0
    3.3652   17.8754   -1.0927 H   0  0  0  0  0  0  0  0  0  0  0  0
    4.0500   16.8868   -2.4580 H   0  0  0  0  0  0  0  0  0  0  0  0
    3.7689   19.2664   -3.0737 H   0  0  0  0  0  0  0  0  0  0  0  0
    2.7496   18.1539   -4.0686 H   0  0  0  0  0  0  0  0  0  0  0  0
    1.4402   20.0769   -3.4761 H   0  0  0  0  0  0  0  0  0  0  0  0
    2.3580   20.8720   -1.6410 H   0  0  0  0  0  0  0  0  0  0  0  0
   -0.7914   17.1619   -3.8099 H   0  0  0  0  0  0  0  0  0  0  0  0
   -0.5082   18.8047   -4.4791 H   0  0  0  0  0  0  0  0  0  0  0  0
    0.8187   17.5939   -4.4791 H   0  0  0  0  0  0  0  0  0  0  0  0
   -0.7473   19.3328   -0.8852 H   0  0  0  0  0  0  0  0  0  0  0  0
   -0.6347   20.3763   -2.3429 H   0  0  0  0  0  0  0  0  0  0  0  0
   -1.7237   18.9478   -2.3429 H   0  0  0  0  0  0  0  0  0  0  0  0
    2.5758   15.3610    1.1121 H   0  0  0  0  0  0  0  0  0  0  0  0
    4.1125   15.2256    0.1919 H   0  0  0  0  0  0  0  0  0  0  0  0
    3.1990   16.7723    0.1919 H   0  0  0  0  0  0  0  0  0  0  0  0
    3.9119   14.8167   -2.4804 H   0  0  0  0  0  0  0  0  0  0  0  0
    3.7842   13.6458   -1.0498 H   0  0  0  0  0  0  0  0  0  0  0  0
    2.1334   13.6452   -3.5921 H   0  0  0  0  0  0  0  0  0  0  0  0
    3.3298   12.4156   -3.0237 H   0  0  0  0  0  0  0  0  0  0  0  0
    1.7722   12.0885    0.2086 H   0  0  0  0  0  0  0  0  0  0  0  0
    1.8943   10.6028   -0.7937 H   0  0  0  0  0  0  0  0  0  0  0  0
    3.2345   11.7989   -0.7937 H   0  0  0  0  0  0  0  0  0  0  0  0
  1  2  1  0
  2  3  1  0
  3  4  1  0
  4  5  1  0
  5  6  1  0
  6  7  1  0
  7  8  1  0
  7  9  1  0
  2 10  1  0
 10 11  1  0
 11 12  1  0
 12 13  1  0
 13 14  1  6
 13 15  1  0
 15 16  1  0
 16 17  1  0
 17 18  2  0
 18 19  1  0
 19 20  1  0
 20 21  1  0
 21 22  1  0
 22 23  1  0
 22 24  1  0
 24 25  1  0
 24 26  1  0
 19 27  1  0
 27 28  1  1
 27 29  1  0
 29 30  1  0
 30 31  1  0
 31 32  1  1
  7  5  1  0
 31 10  1  0
 31 13  1  0
 27 15  1  0
 24 18  1  0
  1 33  1  0
  1 34  1  0
  1 35  1  0
  2 36  1  6
  3 37  1  0
  3 38  1  0
  4 39  1  0
  4 40  1  0
  5 41  1  1
  8 42  1  0
  8 43  1  0
  8 44  1  0
  9 45  1  0
  9 46  1  0
  9 47  1  0
 10 48  1  6
 11 49  1  0
 11 50  1  0
 12 51  1  0
 12 52  1  0
 14 53  1  0
 14 54  1  0
 14 55  1  0
 15 56  1  1
 16 57  1  0
 16 58  1  0
 17 59  1  0
 19 60  1  6
 20 61  1  0
 20 62  1  0
 21 63  1  0
 21 64  1  0
 22 65  1  6
 23 66  1  0
 25 67  1  0
 25 68  1  0
 25 69  1  0
 26 70  1  0
 26 71  1  0
 26 72  1  0
 28 73  1  0
 28 74  1  0
 28 75  1  0
 29 76  1  0
 29 77  1  0
 30 78  1  0
 30 79  1  0
 32 80  1  0
 32 81  1  0
 32 82  1  0
M  END
>  <meeko>  (11) 
{"is_sidechain": [false], "intermolecular_energy": 2.731, "internal_energy": -0.839}

$$$$
EPH_relaxed_0001_pdb2pqr_Repair_302_r2_0001_out
     RDKit          3D

 82 86  0  0  0  0  0  0  0  0999 V2000
    0.3510   10.3550   -3.6300 C   0  0  0  0  0  0  0  0  0  0  0  0
    1.1810   10.1630   -2.3570 C   0  0  2  0  0  0  0  0  0  0  0  0
    0.6890    8.9670   -1.5180 C   0  0  0  0  0  0  0  0  0  0  0  0
   -0.6280    8.3650   -2.0170 C   0  0  0  0  0  0  0  0  0  0  0  0
   -1.6820    8.3770   -0.9520 C   0  0  2  0  0  0  0  0  0  0  0  0
   -3.0030    8.6800   -1.4210 O   0  0  0  0  0  0  0  0  0  0  0  0
   -2.4170    9.6310   -0.5170 C   0  0  0  0  0  0  0  0  0  0  0  0
   -2.1270   10.9610   -1.1390 C   0  0  0  0  0  0  0  0  0  0  0  0
   -3.0590    9.6510    0.8350 C   0  0  0  0  0  0  0  0  0  0  0  0
    1.1490   11.4360   -1.5190 C   0  0  1  0  0  0  0  0  0  0  0  0
    1.5040   11.1800   -0.0310 C   0  0  0  0  0  0  0  0  0  0  0  0
    2.2800   12.4280    0.4650 C   0  0  0  0  0  0  0  0  0  0  0  0
    2.0590   13.4880   -0.6390 C   0  0  1  0  0  0  0  0  0  0  0  0
    0.6500   14.0900   -0.3400 C   0  0  0  0  0  0  0  0  0  0  0  0
    3.1500   14.6020   -0.7550 C   0  0  2  0  0  0  0  0  0  0  0  0
    3.2980   15.5030    0.4840 C   0  0  0  0  0  0  0  0  0  0  0  0
    2.4460   16.7290    0.4860 C   0  0  0  0  0  0  0  0  0  0  0  0
    1.8120   17.2430   -0.5840 C   0  0  0  0  0  0  0  0  0  0  0  0
    1.9990   16.6320   -1.9790 C   0  0  1  0  0  0  0  0  0  0  0  0
    2.2540   17.7620   -3.0100 C   0  0  0  0  0  0  0  0  0  0  0  0
    1.1690   18.8350   -2.9830 C   0  0  0  0  0  0  0  0  0  0  0  0
    1.0540   19.4590   -1.5950 C   0  0  2  0  0  0  0  0  0  0  0  0
    2.2530   20.1890   -1.3160 O   0  0  0  0  0  0  0  0  0  0  0  0
    0.8050   18.4140   -0.4710 C   0  0  0  0  0  0  0  0  0  0  0  0
   -0.6260   17.8390   -0.6030 C   0  0  0  0  0  0  0  0  0  0  0  0
    0.8500   19.1580    0.8910 C   0  0  0  0  0  0  0  0  0  0  0  0
    3.0640   15.4570   -2.0840 C   0  0  1  0  0  0  0  0  0  0  0  0
    4.4870   16.0490   -2.3250 C   0  0  0  0  0  0  0  0  0  0  0  0
    2.7320   14.5730   -3.3440 C   0  0  0  0  0  0  0  0  0  0  0  0
    1.7380   13.4140   -3.1370 C   0  0  0  0  0  0  0  0  0  0  0  0
    2.1230   12.5730   -1.9160 C   0  0  2  0  0  0  0  0  0  0  0  0
    3.5270   11.9370   -2.1960 C   0  0  0  0  0  0  0  0  0  0  0  0
   -0.6874   10.5952   -3.3579 H   0  0  0  0  0  0  0  0  0  0  0  0
    0.7746   11.1789   -4.2231 H   0  0  0  0  0  0  0  0  0  0  0  0
    0.3698    9.4288   -4.2231 H   0  0  0  0  0  0  0  0  0  0  0  0
    2.2146    9.9467   -2.6651 H   0  0  0  0  0  0  0  0  0  0  0  0
    1.4608    8.1836   -1.5441 H   0  0  0  0  0  0  0  0  0  0  0  0
    0.5058    9.3420   -0.5003 H   0  0  0  0  0  0  0  0  0  0  0  0
   -0.9841    8.9505   -2.8775 H   0  0  0  0  0  0  0  0  0  0  0  0
   -0.4406    7.3192   -2.3019 H   0  0  0  0  0  0  0  0  0  0  0  0
   -1.1512    7.5986   -0.3843 H   0  0  0  0  0  0  0  0  0  0  0  0
   -1.9641   11.7080   -0.3481 H   0  0  0  0  0  0  0  0  0  0  0  0
   -1.2243   10.8849   -1.7630 H   0  0  0  0  0  0  0  0  0  0  0  0
   -2.9794   11.2676   -1.7630 H   0  0  0  0  0  0  0  0  0  0  0  0
   -2.2800    9.6267    1.6112 H   0  0  0  0  0  0  0  0  0  0  0  0
   -3.6564   10.5682    0.9437 H   0  0  0  0  0  0  0  0  0  0  0  0
   -3.7124    8.7728    0.9437 H   0  0  0  0  0  0  0  0  0  0  0  0
    0.1106   11.7504   -1.7002 H   0  0  0  0  0  0  0  0  0  0  0  0
    0.5859   11.0453    0.5597 H   0  0  0  0  0  0  0  0  0  0  0  0
    2.1099   10.2686    0.0793 H   0  0  0  0  0  0  0  0  0  0  0  0
    1.8774   12.7789    1.4266 H   0  0  0  0  0  0  0  0  0  0  0  0
    3.3463   12.2168    0.6335 H   0  0  0  0  0  0  0  0  0  0  0  0
    0.5017   14.1534    0.7481 H   0  0  0  0  0  0  0  0  0  0  0  0
    0.5806   15.0963   -0.7787 H   0  0  0  0  0  0  0  0  0  0  0  0
   -0.1251   13.4445   -0.7787 H   0  0  0  0  0  0  0  0  0  0  0  0
    4.0795   14.0165   -0.8109 H   0  0  0  0  0  0  0  0  0  0  0  0
    3.0378   14.9067    1.3710 H   0  0  0  0  0  0  0  0  0  0  0  0
    4.3397   15.8562    0.4809 H   0  0  0  0  0  0  0  0  0  0  0  0
    2.3263   17.2571    1.4435 H   0  0  0  0  0  0  0  0  0  0  0  0
    1.0552   16.1187   -2.2151 H   0  0  0  0  0  0  0  0  0  0  0  0
    3.2218   18.2335   -2.7842 H   0  0  0  0  0  0  0  0  0  0  0  0
    2.2489   17.3073   -4.0116 H   0  0  0  0  0  0  0  0  0  0  0  0
    1.4209   19.6202   -3.7110 H   0  0  0  0  0  0  0  0  0  0  0  0
    0.2066   18.3679   -3.2390 H   0  0  0  0  0  0  0  0  0  0  0  0
    0.1775   20.1236   -1.6048 H   0  0  0  0  0  0  0  0  0  0  0  0
    2.5530   19.9340   -0.4270 H   0  0  0  0  0  0  0  0  0  0  0  0
   -1.0471   17.6698    0.3990 H   0  0  0  0  0  0  0  0  0  0  0  0
   -1.2588   18.5527   -1.1509 H   0  0  0  0  0  0  0  0  0  0  0  0
   -0.5891   16.8859   -1.1509 H   0  0  0  0  0  0  0  0  0  0  0  0
    0.8057   18.4256    1.7105 H   0  0  0  0  0  0  0  0  0  0  0  0
    1.7846   19.7335    0.9637 H   0  0  0  0  0  0  0  0  0  0  0  0
   -0.0084   19.8420    0.9637 H   0  0  0  0  0  0  0  0  0  0  0  0
    4.9694   16.2497   -1.3570 H   0  0  0  0  0  0  0  0  0  0  0  0
    5.0925   15.3281   -2.8940 H   0  0  0  0  0  0  0  0  0  0  0  0
    4.4025   16.9866   -2.8940 H   0  0  0  0  0  0  0  0  0  0  0  0
    2.3136   15.2365   -4.1152 H   0  0  0  0  0  0  0  0  0  0  0  0
    3.6828   14.0916   -3.6165 H   0  0  0  0  0  0  0  0  0  0  0  0
    0.7298   13.8272   -2.9859 H   0  0  0  0  0  0  0  0  0  0  0  0
    1.7604   12.7694   -4.0281 H   0  0  0  0  0  0  0  0  0  0  0  0
    4.0245   11.7117   -1.2411 H   0  0  0  0  0  0  0  0  0  0  0  0
    3.4006   11.0083   -2.7717 H   0  0  0  0  0  0  0  0  0  0  0  0
    4.1418   12.6445   -2.7717 H   0  0  0  0  0  0  0  0  0  0  0  0
  1  2  1  0
  2  3  1  0
  3  4  1  0
  4  5  1  0
  5  6  1  0
  6  7  1  0
  7  8  1  0
  7  9  1  0
  2 10  1  0
 10 11  1  0
 11 12  1  0
 12 13  1  0
 13 14  1  1
 13 15  1  0
 15 16  1  0
 16 17  1  0
 17 18  2  0
 18 19  1  0
 19 20  1  0
 20 21  1  0
 21 22  1  0
 22 23  1  0
 22 24  1  0
 24 25  1  0
 24 26  1  0
 19 27  1  0
 27 28  1  6
 27 29  1  0
 29 30  1  0
 30 31  1  0
 31 32  1  6
  7  5  1  0
 31 10  1  0
 31 13  1  0
 27 15  1  0
 24 18  1  0
  1 33  1  0
  1 34  1  0
  1 35  1  0
  2 36  1  6
  3 37  1  0
  3 38  1  0
  4 39  1  0
  4 40  1  0
  5 41  1  1
  8 42  1  0
  8 43  1  0
  8 44  1  0
  9 45  1  0
  9 46  1  0
  9 47  1  0
 10 48  1  1
 11 49  1  0
 11 50  1  0
 12 51  1  0
 12 52  1  0
 14 53  1  0
 14 54  1  0
 14 55  1  0
 15 56  1  6
 16 57  1  0
 16 58  1  0
 17 59  1  0
 19 60  1  6
 20 61  1  0
 20 62  1  0
 21 63  1  0
 21 64  1  0
 22 65  1  6
 23 66  1  0
 25 67  1  0
 25 68  1  0
 25 69  1  0
 26 70  1  0
 26 71  1  0
 26 72  1  0
 28 73  1  0
 28 74  1  0
 28 75  1  0
 29 76  1  0
 29 77  1  0
 30 78  1  0
 30 79  1  0
 32 80  1  0
 32 81  1  0
 32 82  1  0
M  END
>  <meeko>  (12) 
{"is_sidechain": [false], "intermolecular_energy": 2.731, "internal_energy": -0.839}

$$$$
EPH_relaxed_0001_pdb2pqr_Repair_302_r2_0001_out
     RDKit          3D

 82 86  0  0  0  0  0  0  0  0999 V2000
    0.9390    8.6970   -0.2810 C   0  0  0  0  0  0  0  0  0  0  0  0
   -0.1230    9.4560   -1.0820 C   0  0  2  0  0  0  0  0  0  0  0  0
   -0.8280    8.5530   -2.1140 C   0  0  0  0  0  0  0  0  0  0  0  0
   -2.3290    8.3880   -1.8630 C   0  0  0  0  0  0  0  0  0  0  0  0
   -2.9030    7.2550   -2.6600 C   0  0  2  0  0  0  0  0  0  0  0  0
   -3.9440    7.6310   -3.5700 O   0  0  0  0  0  0  0  0  0  0  0  0
   -4.3260    6.7550   -2.4970 C   0  0  0  0  0  0  0  0  0  0  0  0
   -5.2630    7.3750   -1.5090 C   0  0  0  0  0  0  0  0  0  0  0  0
   -4.6500    5.3630   -2.9420 C   0  0  0  0  0  0  0  0  0  0  0  0
    0.5120   10.6510   -1.7840 C   0  0  1  0  0  0  0  0  0  0  0  0
    0.1670   10.7080   -3.2960 C   0  0  0  0  0  0  0  0  0  0  0  0
    0.0460   12.2080   -3.6710 C   0  0  0  0  0  0  0  0  0  0  0  0
    0.6450   12.9620   -2.4600 C   0  0  1  0  0  0  0  0  0  0  0  0
    2.1900   12.9040   -2.6750 C   0  0  0  0  0  0  0  0  0  0  0  0
    0.1470   14.4290   -2.2450 C   0  0  2  0  0  0  0  0  0  0  0  0
    0.4800   15.4050   -3.3860 C   0  0  0  0  0  0  0  0  0  0  0  0
    1.7810   16.1250   -3.2500 C   0  0  0  0  0  0  0  0  0  0  0  0
    2.5130   16.2110   -2.1240 C   0  0  0  0  0  0  0  0  0  0  0  0
    1.9970   15.6270   -0.8020 C   0  0  1  0  0  0  0  0  0  0  0  0
    2.2030   16.6610    0.3360 C   0  0  0  0  0  0  0  0  0  0  0  0
    3.6470   17.1420    0.4350 C   0  0  0  0  0  0  0  0  0  0  0  0
    4.1050   17.7690   -0.8790 C   0  0  2  0  0  0  0  0  0  0  0  0
    3.3650   18.9740   -1.0980 O   0  0  0  0  0  0  0  0  0  0  0  0
    3.9360   16.8230   -2.1010 C   0  0  0  0  0  0  0  0  0  0  0  0
    4.9610   15.6650   -2.0090 C   0  0  0  0  0  0  0  0  0  0  0  0
    4.3000   17.6240   -3.3800 C   0  0  0  0  0  0  0  0  0  0  0  0
    0.5210   15.0390   -0.8340 C   0  0  1  0  0  0  0  0  0  0  0  0
   -0.5100   16.1750   -0.5530 C   0  0  0  0  0  0  0  0  0  0  0  0
    0.3590   13.9940    0.3320 C   0  0  0  0  0  0  0  0  0  0  0  0
    0.7550   12.5380    0.0210 C   0  0  0  0  0  0  0  0  0  0  0  0
    0.1120   12.0630   -1.2860 C   0  0  2  0  0  0  0  0  0  0  0  0
   -1.4420   12.0900   -1.0920 C   0  0  0  0  0  0  0  0  0  0  0  0
    0.7520    8.8307    0.7947 H   0  0  0  0  0  0  0  0  0  0  0  0
    0.8917    7.6269   -0.5312 H   0  0  0  0  0  0  0  0  0  0  0  0
    1.9361    9.0883   -0.5312 H   0  0  0  0  0  0  0  0  0  0  0  0
   -0.8872    9.8042   -0.3716 H   0  0  0  0  0  0  0  0  0  0  0  0
   -0.6891    8.9928   -3.1127 H   0  0  0  0  0  0  0  0  0  0  0  0
   -0.3759    7.5538   -2.0291 H   0  0  0  0  0  0  0  0  0  0  0  0
   -2.4920    8.1900   -0.7933 H   0  0  0  0  0  0  0  0  0  0  0  0
   -2.8327    9.3154   -2.1732 H   0  0  0  0  0  0  0  0  0  0  0  0
   -1.9339    6.7345   -2.6629 H   0  0  0  0  0  0  0  0  0  0  0  0
   -4.9215    7.1490   -0.4881 H   0  0  0  0  0  0  0  0  0  0  0  0
   -5.2826    8.4649   -1.6563 H   0  0  0  0  0  0  0  0  0  0  0  0
   -6.2738    6.9669   -1.6563 H   0  0  0  0  0  0  0  0  0  0  0  0
   -4.7993    4.7217   -2.0608 H   0  0  0  0  0  0  0  0  0  0  0  0
   -5.5692    5.3758   -3.5461 H   0  0  0  0  0  0  0  0  0  0  0  0
   -3.8197    4.9686   -3.5461 H   0  0  0  0  0  0  0  0  0  0  0  0
    1.5707   10.4575   -1.5568 H   0  0  0  0  0  0  0  0  0  0  0  0
    0.9658   10.2335   -3.8850 H   0  0  0  0  0  0  0  0  0  0  0  0
   -0.7694   10.1711   -3.5080 H   0  0  0  0  0  0  0  0  0  0  0  0
    0.6164   12.4269   -4.5857 H   0  0  0  0  0  0  0  0  0  0  0  0
   -0.9934   12.5047   -3.8749 H   0  0  0  0  0  0  0  0  0  0  0  0
    2.6957   12.8850   -1.6983 H   0  0  0  0  0  0  0  0  0  0  0  0
    2.4479   11.9955   -3.2391 H   0  0  0  0  0  0  0  0  0  0  0  0
    2.5152   13.7906   -3.2391 H   0  0  0  0  0  0  0  0  0  0  0  0
   -0.9467   14.3124   -2.2628 H   0  0  0  0  0  0  0  0  0  0  0  0
    0.5043   14.8337   -4.3257 H   0  0  0  0  0  0  0  0  0  0  0  0
   -0.3006   16.1797   -3.3614 H   0  0  0  0  0  0  0  0  0  0  0  0
    2.1744   16.6276   -4.1459 H   0  0  0  0  0  0  0  0  0  0  0  0
    2.6051   14.7315   -0.6062 H   0  0  0  0  0  0  0  0  0  0  0  0
    1.5545   17.5289    0.1455 H   0  0  0  0  0  0  0  0  0  0  0  0
    1.9498   16.1671    1.2857 H   0  0  0  0  0  0  0  0  0  0  0  0
    3.7226   17.8912    1.2369 H   0  0  0  0  0  0  0  0  0  0  0  0
    4.2906   16.2773    0.6542 H   0  0  0  0  0  0  0  0  0  0  0  0
    5.1817   17.9751   -0.7881 H   0  0  0  0  0  0  0  0  0  0  0  0
    3.8360   19.4900   -1.7730 H   0  0  0  0  0  0  0  0  0  0  0  0
    5.1628   15.4370   -0.9520 H   0  0  0  0  0  0  0  0  0  0  0  0
    4.5515   14.7726   -2.5049 H   0  0  0  0  0  0  0  0  0  0  0  0
    5.8965   15.9632   -2.5049 H   0  0  0  0  0  0  0  0  0  0  0  0
    4.7395   18.5911   -3.0943 H   0  0  0  0  0  0  0  0  0  0  0  0
    5.0269   17.0527   -3.9760 H   0  0  0  0  0  0  0  0  0  0  0  0
    3.3915   17.7958   -3.9760 H   0  0  0  0  0  0  0  0  0  0  0  0
   -0.6268   16.3037    0.5332 H   0  0  0  0  0  0  0  0  0  0  0  0
   -0.1501   17.1149   -0.9970 H   0  0  0  0  0  0  0  0  0  0  0  0
   -1.4803   15.9077   -0.9970 H   0  0  0  0  0  0  0  0  0  0  0  0
    0.9803   14.3352    1.1732 H   0  0  0  0  0  0  0  0  0  0  0  0
   -0.7207   13.9601    0.5397 H   0  0  0  0  0  0  0  0  0  0  0  0
    1.8492   12.4746   -0.0723 H   0  0  0  0  0  0  0  0  0  0  0  0
    0.4010   11.8952    0.8404 H   0  0  0  0  0  0  0  0  0  0  0  0
   -1.6774   12.0941   -0.0175 H   0  0  0  0  0  0  0  0  0  0  0  0
   -1.8544   12.9954   -1.5611 H   0  0  0  0  0  0  0  0  0  0  0  0
   -1.8856   11.1994   -1.5611 H   0  0  0  0  0  0  0  0  0  0  0  0
  1  2  1  0
  2  3  1  0
  3  4  1  0
  4  5  1  0
  5  6  1  0
  6  7  1  0
  7  8  1  0
  7  9  1  0
  2 10  1  0
 10 11  1  0
 11 12  1  0
 12 13  1  0
 13 14  1  6
 13 15  1  0
 15 16  1  0
 16 17  1  0
 17 18  2  0
 18 19  1  0
 19 20  1  0
 20 21  1  0
 21 22  1  0
 22 23  1  0
 22 24  1  0
 24 25  1  0
 24 26  1  0
 19 27  1  0
 27 28  1  1
 27 29  1  0
 29 30  1  0
 30 31  1  0
 31 32  1  1
  7  5  1  0
 31 10  1  0
 31 13  1  0
 27 15  1  0
 24 18  1  0
  1 33  1  0
  1 34  1  0
  1 35  1  0
  2 36  1  1
  3 37  1  0
  3 38  1  0
  4 39  1  0
  4 40  1  0
  5 41  1  6
  8 42  1  0
  8 43  1  0
  8 44  1  0
  9 45  1  0
  9 46  1  0
  9 47  1  0
 10 48  1  6
 11 49  1  0
 11 50  1  0
 12 51  1  0
 12 52  1  0
 14 53  1  0
 14 54  1  0
 14 55  1  0
 15 56  1  1
 16 57  1  0
 16 58  1  0
 17 59  1  0
 19 60  1  1
 20 61  1  0
 20 62  1  0
 21 63  1  0
 21 64  1  0
 22 65  1  1
 23 66  1  0
 25 67  1  0
 25 68  1  0
 25 69  1  0
 26 70  1  0
 26 71  1  0
 26 72  1  0
 28 73  1  0
 28 74  1  0
 28 75  1  0
 29 76  1  0
 29 77  1  0
 30 78  1  0
 30 79  1  0
 32 80  1  0
 32 81  1  0
 32 82  1  0
M  END
>  <meeko>  (13) 
{"is_sidechain": [false], "intermolecular_energy": 2.731, "internal_energy": -0.839}

$$$$
EPH_relaxed_0001_pdb2pqr_Repair_302_r2_0001_out
     RDKit          3D

 82 86  0  0  0  0  0  0  0  0999 V2000
   -5.2000    5.7780   -1.6690 C   0  0  0  0  0  0  0  0  0  0  0  0
   -5.4700    7.2820   -1.7700 C   0  0  2  0  0  0  0  0  0  0  0  0
   -5.2260    8.0060   -0.4310 C   0  0  0  0  0  0  0  0  0  0  0  0
   -4.1990    9.1380   -0.5210 C   0  0  0  0  0  0  0  0  0  0  0  0
   -2.8220    8.6160   -0.8000 C   0  0  2  0  0  0  0  0  0  0  0  0
   -1.8430    8.9500    0.1920 O   0  0  0  0  0  0  0  0  0  0  0  0
   -1.6370    9.5100   -1.1150 C   0  0  0  0  0  0  0  0  0  0  0  0
   -1.7740   10.9990   -1.1690 C   0  0  0  0  0  0  0  0  0  0  0  0
   -0.4710    8.9200   -1.8470 C   0  0  0  0  0  0  0  0  0  0  0  0
   -6.8990    7.5240   -2.2400 C   0  0  1  0  0  0  0  0  0  0  0  0
   -7.2090    6.8280   -3.5920 C   0  0  0  0  0  0  0  0  0  0  0  0
   -8.6900    6.3720   -3.5310 C   0  0  0  0  0  0  0  0  0  0  0  0
   -9.2730    7.1040   -2.3000 C   0  0  1  0  0  0  0  0  0  0  0  0
   -9.6050    8.5420   -2.8090 C   0  0  0  0  0  0  0  0  0  0  0  0
  -10.5100    6.4320   -1.6190 C   0  0  2  0  0  0  0  0  0  0  0  0
  -11.7620    6.3190   -2.5060 C   0  0  0  0  0  0  0  0  0  0  0  0
  -12.7030    7.4750   -2.4330 C   0  0  0  0  0  0  0  0  0  0  0  0
  -12.6990    8.4270   -1.4810 C   0  0  0  0  0  0  0  0  0  0  0  0
  -11.7410    8.3430   -0.2860 C   0  0  1  0  0  0  0  0  0  0  0  0
  -12.5190    8.6350    1.0240 C   0  0  0  0  0  0  0  0  0  0  0  0
  -13.2720    9.9610    0.9730 C   0  0  0  0  0  0  0  0  0  0  0  0
  -14.2570    9.9830   -0.1930 C   0  0  2  0  0  0  0  0  0  0  0  0
  -15.2870    9.0210    0.0550 O   0  0  0  0  0  0  0  0  0  0  0  0
  -13.5890    9.6920   -1.5650 C   0  0  0  0  0  0  0  0  0  0  0  0
  -12.6950   10.8890   -1.9740 C   0  0  0  0  0  0  0  0  0  0  0  0
  -14.7120    9.6050   -2.6340 C   0  0  0  0  0  0  0  0  0  0  0  0
  -10.8640    7.0210   -0.1930 C   0  0  1  0  0  0  0  0  0  0  0  0
  -11.6540    5.9100    0.5630 C   0  0  0  0  0  0  0  0  0  0  0  0
   -9.5790    7.3160    0.6680 C   0  0  0  0  0  0  0  0  0  0  0  0
   -8.3510    7.8650   -0.0830 C   0  0  0  0  0  0  0  0  0  0  0  0
   -8.0440    7.0220   -1.3240 C   0  0  2  0  0  0  0  0  0  0  0  0
   -7.6840    5.5750   -0.8420 C   0  0  0  0  0  0  0  0  0  0  0  0
   -5.1474    5.4852   -0.6100 H   0  0  0  0  0  0  0  0  0  0  0  0
   -6.0133    5.2255   -2.1622 H   0  0  0  0  0  0  0  0  0  0  0  0
   -4.2453    5.5429   -2.1622 H   0  0  0  0  0  0  0  0  0  0  0  0
   -4.7630    7.6965   -2.5037 H   0  0  0  0  0  0  0  0  0  0  0  0
   -6.1808    8.4300   -0.0866 H   0  0  0  0  0  0  0  0  0  0  0  0
   -4.8211    7.2598    0.2685 H   0  0  0  0  0  0  0  0  0  0  0  0
   -4.4921    9.8217   -1.3314 H   0  0  0  0  0  0  0  0  0  0  0  0
   -4.1783    9.6601    0.4470 H   0  0  0  0  0  0  0  0  0  0  0  0
   -3.2342    7.7311   -1.3071 H   0  0  0  0  0  0  0  0  0  0  0  0
   -1.8110   11.4012   -0.1458 H   0  0  0  0  0  0  0  0  0  0  0  0
   -0.9115   11.4275   -1.7004 H   0  0  0  0  0  0  0  0  0  0  0  0
   -2.7002   11.2630   -1.7004 H   0  0  0  0  0  0  0  0  0  0  0  0
    0.2667    8.5467   -1.1214 H   0  0  0  0  0  0  0  0  0  0  0  0
   -0.8172    8.0886   -2.4786 H   0  0  0  0  0  0  0  0  0  0  0  0
   -0.0062    9.6914   -2.4786 H   0  0  0  0  0  0  0  0  0  0  0  0
   -6.8982    8.6235   -2.2734 H   0  0  0  0  0  0  0  0  0  0  0  0
   -7.0638    7.5335   -4.4233 H   0  0  0  0  0  0  0  0  0  0  0  0
   -6.5386    5.9719   -3.7585 H   0  0  0  0  0  0  0  0  0  0  0  0
   -9.2247    6.6653   -4.4465 H   0  0  0  0  0  0  0  0  0  0  0  0
   -8.7871    5.2792   -3.4512 H   0  0  0  0  0  0  0  0  0  0  0  0
   -9.7590    9.2092   -1.9481 H   0  0  0  0  0  0  0  0  0  0  0  0
   -8.7698    8.9171   -3.4188 H   0  0  0  0  0  0  0  0  0  0  0  0
  -10.5201    8.5130   -3.4188 H   0  0  0  0  0  0  0  0  0  0  0  0
  -10.1611    5.4007   -1.4616 H   0  0  0  0  0  0  0  0  0  0  0  0
  -11.4306    6.2163   -3.5498 H   0  0  0  0  0  0  0  0  0  0  0  0
  -12.3211    5.4483   -2.1328 H   0  0  0  0  0  0  0  0  0  0  0  0
  -13.4637    7.5561   -3.2234 H   0  0  0  0  0  0  0  0  0  0  0  0
  -10.9816    9.1218   -0.4498 H   0  0  0  0  0  0  0  0  0  0  0  0
  -13.2432    7.8243    1.1924 H   0  0  0  0  0  0  0  0  0  0  0  0
  -11.7856    8.6983    1.8413 H   0  0  0  0  0  0  0  0  0  0  0  0
  -13.8247   10.0978    1.9141 H   0  0  0  0  0  0  0  0  0  0  0  0
  -12.5439   10.7737    0.8337 H   0  0  0  0  0  0  0  0  0  0  0  0
  -14.6708   11.0003   -0.2558 H   0  0  0  0  0  0  0  0  0  0  0  0
  -15.1800    8.3020   -0.5910 H   0  0  0  0  0  0  0  0  0  0  0  0
  -12.3195   11.3917   -1.0705 H   0  0  0  0  0  0  0  0  0  0  0  0
  -11.8457   10.5252   -2.5710 H   0  0  0  0  0  0  0  0  0  0  0  0
  -13.2849   11.6001   -2.5710 H   0  0  0  0  0  0  0  0  0  0  0  0
  -15.6890    9.5293   -2.1342 H   0  0  0  0  0  0  0  0  0  0  0  0
  -14.6906   10.5075   -3.2625 H   0  0  0  0  0  0  0  0  0  0  0  0
  -14.5519    8.7166   -3.2625 H   0  0  0  0  0  0  0  0  0  0  0  0
  -11.5484    6.0586    1.6478 H   0  0  0  0  0  0  0  0  0  0  0  0
  -12.7175    5.9642    0.2873 H   0  0  0  0  0  0  0  0  0  0  0  0
  -11.2536    4.9232    0.2873 H   0  0  0  0  0  0  0  0  0  0  0  0
   -9.8554    8.0523    1.4370 H   0  0  0  0  0  0  0  0  0  0  0  0
   -9.2636    6.3375    1.0592 H   0  0  0  0  0  0  0  0  0  0  0  0
   -8.5525    8.9010   -0.3929 H   0  0  0  0  0  0  0  0  0  0  0  0
   -7.4822    7.8260    0.5906 H   0  0  0  0  0  0  0  0  0  0  0  0
   -7.6768    5.5460    0.2576 H   0  0  0  0  0  0  0  0  0  0  0  0
   -8.4328    4.8648   -1.2226 H   0  0  0  0  0  0  0  0  0  0  0  0
   -6.6897    5.2985   -1.2226 H   0  0  0  0  0  0  0  0  0  0  0  0
  1  2  1  0
  2  3  1  0
  3  4  1  0
  4  5  1  0
  5  6  1  0
  6  7  1  0
  7  8  1  0
  7  9  1  0
  2 10  1  0
 10 11  1  0
 11 12  1  0
 12 13  1  0
 13 14  1  6
 13 15  1  0
 15 16  1  0
 16 17  1  0
 17 18  2  0
 18 19  1  0
 19 20  1  0
 20 21  1  0
 21 22  1  0
 22 23  1  0
 22 24  1  0
 24 25  1  0
 24 26  1  0
 19 27  1  0
 27 28  1  1
 27 29  1  0
 29 30  1  0
 30 31  1  0
 31 32  1  1
  7  5  1  0
 31 10  1  0
 31 13  1  0
 27 15  1  0
 24 18  1  0
  1 33  1  0
  1 34  1  0
  1 35  1  0
  2 36  1  6
  3 37  1  0
  3 38  1  0
  4 39  1  0
  4 40  1  0
  5 41  1  6
  8 42  1  0
  8 43  1  0
  8 44  1  0
  9 45  1  0
  9 46  1  0
  9 47  1  0
 10 48  1  6
 11 49  1  0
 11 50  1  0
 12 51  1  0
 12 52  1  0
 14 53  1  0
 14 54  1  0
 14 55  1  0
 15 56  1  1
 16 57  1  0
 16 58  1  0
 17 59  1  0
 19 60  1  6
 20 61  1  0
 20 62  1  0
 21 63  1  0
 21 64  1  0
 22 65  1  6
 23 66  1  0
 25 67  1  0
 25 68  1  0
 25 69  1  0
 26 70  1  0
 26 71  1  0
 26 72  1  0
 28 73  1  0
 28 74  1  0
 28 75  1  0
 29 76  1  0
 29 77  1  0
 30 78  1  0
 30 79  1  0
 32 80  1  0
 32 81  1  0
 32 82  1  0
M  END
>  <meeko>  (14) 
{"is_sidechain": [false], "intermolecular_energy": 2.731, "internal_energy": -0.839}

$$$$
EPH_relaxed_0001_pdb2pqr_Repair_302_r2_0001_out
     RDKit          3D

 82 86  0  0  0  0  0  0  0  0999 V2000
    4.6210   16.8780   -1.6470 C   0  0  0  0  0  0  0  0  0  0  0  0
    4.7400   15.3510   -1.6450 C   0  0  2  0  0  0  0  0  0  0  0  0
    5.1130   14.7950   -3.0330 C   0  0  0  0  0  0  0  0  0  0  0  0
    5.9950   13.5450   -2.9790 C   0  0  0  0  0  0  0  0  0  0  0  0
    5.5720   12.5240   -3.9910 C   0  0  2  0  0  0  0  0  0  0  0  0
    5.1440   11.2730   -3.4370 O   0  0  0  0  0  0  0  0  0  0  0  0
    6.3310   11.2350   -4.2470 C   0  0  0  0  0  0  0  0  0  0  0  0
    7.5750   10.8990   -3.4880 C   0  0  0  0  0  0  0  0  0  0  0  0
    6.1420   10.5420   -5.5600 C   0  0  0  0  0  0  0  0  0  0  0  0
    3.4330   14.7290   -1.1680 C   0  0  1  0  0  0  0  0  0  0  0  0
    2.4470   15.7800   -0.5910 C   0  0  0  0  0  0  0  0  0  0  0  0
    1.0190   15.3100   -0.9710 C   0  0  0  0  0  0  0  0  0  0  0  0
    1.2050   13.8530   -1.4570 C   0  0  1  0  0  0  0  0  0  0  0  0
    1.2740   13.0000   -0.1520 C   0  0  0  0  0  0  0  0  0  0  0  0
    0.1200   13.3110   -2.4440 C   0  0  2  0  0  0  0  0  0  0  0  0
   -1.3070   13.2440   -1.8730 C   0  0  0  0  0  0  0  0  0  0  0  0
   -1.6690   11.9560   -1.2100 C   0  0  0  0  0  0  0  0  0  0  0  0
   -0.9900   10.7990   -1.3250 C   0  0  0  0  0  0  0  0  0  0  0  0
    0.2150   10.6840   -2.2670 C   0  0  1  0  0  0  0  0  0  0  0  0
    0.0970    9.3810   -3.1010 C   0  0  0  0  0  0  0  0  0  0  0  0
   -0.0830    8.1420   -2.2300 C   0  0  0  0  0  0  0  0  0  0  0  0
   -1.3240    8.2700   -1.3500 C   0  0  2  0  0  0  0  0  0  0  0  0
   -2.4850    8.2630   -2.1870 O   0  0  0  0  0  0  0  0  0  0  0  0
   -1.3220    9.5520   -0.4700 C   0  0  0  0  0  0  0  0  0  0  0  0
   -0.2470    9.4210    0.6370 C   0  0  0  0  0  0  0  0  0  0  0  0
   -2.6900    9.6310    0.2610 C   0  0  0  0  0  0  0  0  0  0  0  0
    0.5180   11.9590   -3.1650 C   0  0  1  0  0  0  0  0  0  0  0  0
   -0.3170   11.8940   -4.4800 C   0  0  0  0  0  0  0  0  0  0  0  0
    2.0310   11.9350   -3.5990 C   0  0  0  0  0  0  0  0  0  0  0  0
    3.0400   12.5930   -2.6370 C   0  0  0  0  0  0  0  0  0  0  0  0
    2.5710   13.9910   -2.2230 C   0  0  2  0  0  0  0  0  0  0  0  0
    2.5130   14.8780   -3.5130 C   0  0  0  0  0  0  0  0  0  0  0  0
    4.5924   17.2449   -0.6104 H   0  0  0  0  0  0  0  0  0  0  0  0
    5.4880   17.3127   -2.1660 H   0  0  0  0  0  0  0  0  0  0  0  0
    3.6971   17.1731   -2.1660 H   0  0  0  0  0  0  0  0  0  0  0  0
    5.5531   15.0835   -0.9541 H   0  0  0  0  0  0  0  0  0  0  0  0
    4.1849   14.5423   -3.5666 H   0  0  0  0  0  0  0  0  0  0  0  0
    5.6934   15.5757   -3.5465 H   0  0  0  0  0  0  0  0  0  0  0  0
    7.0370   13.8350   -3.1793 H   0  0  0  0  0  0  0  0  0  0  0  0
    5.8955   13.0981   -1.9788 H   0  0  0  0  0  0  0  0  0  0  0  0
    5.2060   13.3112   -4.6666 H   0  0  0  0  0  0  0  0  0  0  0  0
    7.3719   10.9539   -2.4083 H   0  0  0  0  0  0  0  0  0  0  0  0
    7.8999    9.8809   -3.7487 H   0  0  0  0  0  0  0  0  0  0  0  0
    8.3683   11.6151   -3.7487 H   0  0  0  0  0  0  0  0  0  0  0  0
    5.8563    9.4944   -5.3839 H   0  0  0  0  0  0  0  0  0  0  0  0
    5.3489   11.0474   -6.1306 H   0  0  0  0  0  0  0  0  0  0  0  0
    7.0819   10.5748   -6.1306 H   0  0  0  0  0  0  0  0  0  0  0  0
    3.8269   14.0107   -0.4340 H   0  0  0  0  0  0  0  0  0  0  0  0
    2.5492   15.8348    0.5029 H   0  0  0  0  0  0  0  0  0  0  0  0
    2.6545   16.7809   -0.9973 H   0  0  0  0  0  0  0  0  0  0  0  0
    0.3527   15.3457   -0.0965 H   0  0  0  0  0  0  0  0  0  0  0  0
    0.5590   15.9504   -1.7380 H   0  0  0  0  0  0  0  0  0  0  0  0
    1.2203   13.6640    0.7233 H   0  0  0  0  0  0  0  0  0  0  0  0
    0.4300   12.2950   -0.1297 H   0  0  0  0  0  0  0  0  0  0  0  0
    2.2204   12.4398   -0.1297 H   0  0  0  0  0  0  0  0  0  0  0  0
    0.0949   14.0915   -3.2187 H   0  0  0  0  0  0  0  0  0  0  0  0
   -1.4147   14.0497   -1.1319 H   0  0  0  0  0  0  0  0  0  0  0  0
   -1.9842   13.3438   -2.7340 H   0  0  0  0  0  0  0  0  0  0  0  0
   -2.5663   11.9520   -0.5738 H   0  0  0  0  0  0  0  0  0  0  0  0
    1.1033   10.6340   -1.6201 H   0  0  0  0  0  0  0  0  0  0  0  0
   -0.7704    9.4693   -3.7718 H   0  0  0  0  0  0  0  0  0  0  0  0
    1.0342    9.2595   -3.6639 H   0  0  0  0  0  0  0  0  0  0  0  0
   -0.1901    7.2592   -2.8774 H   0  0  0  0  0  0  0  0  0  0  0  0
    0.7988    8.0378   -1.5808 H   0  0  0  0  0  0  0  0  0  0  0  0
   -1.3275    7.4149   -0.6581 H   0  0  0  0  0  0  0  0  0  0  0  0
   -2.6340    7.3470   -2.4750 H   0  0  0  0  0  0  0  0  0  0  0  0
   -0.7284    9.4797    1.6243 H   0  0  0  0  0  0  0  0  0  0  0  0
    0.2668    8.4536    0.5365 H   0  0  0  0  0  0  0  0  0  0  0  0
    0.4841   10.2367    0.5365 H   0  0  0  0  0  0  0  0  0  0  0  0
   -2.5256    9.6215    1.3486 H   0  0  0  0  0  0  0  0  0  0  0  0
   -3.2049   10.5604   -0.0239 H   0  0  0  0  0  0  0  0  0  0  0  0
   -3.3084    8.7671   -0.0239 H   0  0  0  0  0  0  0  0  0  0  0  0
   -1.3855   11.8108   -4.2321 H   0  0  0  0  0  0  0  0  0  0  0  0
   -0.1470   12.8081   -5.0678 H   0  0  0  0  0  0  0  0  0  0  0  0
   -0.0076   11.0172   -5.0678 H   0  0  0  0  0  0  0  0  0  0  0  0
    2.3256   10.8823   -3.7213 H   0  0  0  0  0  0  0  0  0  0  0  0
    2.0763   12.5360   -4.5192 H   0  0  0  0  0  0  0  0  0  0  0  0
    3.1415   11.9667   -1.7384 H   0  0  0  0  0  0  0  0  0  0  0  0
    4.0071   12.6859   -3.1528 H   0  0  0  0  0  0  0  0  0  0  0  0
    2.4437   15.9378   -3.2265 H   0  0  0  0  0  0  0  0  0  0  0  0
    3.4235   14.7181   -4.1092 H   0  0  0  0  0  0  0  0  0  0  0  0
    1.6311   14.6009   -4.1092 H   0  0  0  0  0  0  0  0  0  0  0  0
  1  2  1  0
  2  3  1  0
  3  4  1  0
  4  5  1  0
  5  6  1  0
  6  7  1  0
  7  8  1  0
  7  9  1  0
  2 10  1  0
 10 11  1  0
 11 12  1  0
 12 13  1  0
 13 14  1  1
 13 15  1  0
 15 16  1  0
 16 17  1  0
 17 18  2  0
 18 19  1  0
 19 20  1  0
 20 21  1  0
 21 22  1  0
 22 23  1  0
 22 24  1  0
 24 25  1  0
 24 26  1  0
 19 27  1  0
 27 28  1  6
 27 29  1  0
 29 30  1  0
 30 31  1  0
 31 32  1  6
  7  5  1  0
 31 10  1  0
 31 13  1  0
 27 15  1  0
 24 18  1  0
  1 33  1  0
  1 34  1  0
  1 35  1  0
  2 36  1  1
  3 37  1  0
  3 38  1  0
  4 39  1  0
  4 40  1  0
  5 41  1  6
  8 42  1  0
  8 43  1  0
  8 44  1  0
  9 45  1  0
  9 46  1  0
  9 47  1  0
 10 48  1  1
 11 49  1  0
 11 50  1  0
 12 51  1  0
 12 52  1  0
 14 53  1  0
 14 54  1  0
 14 55  1  0
 15 56  1  6
 16 57  1  0
 16 58  1  0
 17 59  1  0
 19 60  1  1
 20 61  1  0
 20 62  1  0
 21 63  1  0
 21 64  1  0
 22 65  1  1
 23 66  1  0
 25 67  1  0
 25 68  1  0
 25 69  1  0
 26 70  1  0
 26 71  1  0
 26 72  1  0
 28 73  1  0
 28 74  1  0
 28 75  1  0
 29 76  1  0
 29 77  1  0
 30 78  1  0
 30 79  1  0
 32 80  1  0
 32 81  1  0
 32 82  1  0
M  END
>  <meeko>  (15) 
{"is_sidechain": [false], "intermolecular_energy": 2.731, "internal_energy": -0.839}

$$$$
EPH_relaxed_0001_pdb2pqr_Repair_302_r2_0001_out
     RDKit          3D

 82 86  0  0  0  0  0  0  0  0999 V2000
    3.0390   18.4600    0.5400 C   0  0  0  0  0  0  0  0  0  0  0  0
    3.2820   17.2880   -0.4130 C   0  0  2  0  0  0  0  0  0  0  0  0
    3.4970   17.7560   -1.8670 C   0  0  0  0  0  0  0  0  0  0  0  0
    4.8570   17.3580   -2.4460 C   0  0  0  0  0  0  0  0  0  0  0  0
    4.9700   15.8740   -2.6280 C   0  0  2  0  0  0  0  0  0  0  0  0
    6.1590   15.2930   -2.0780 O   0  0  0  0  0  0  0  0  0  0  0  0
    6.0180   15.2160   -3.5050 C   0  0  0  0  0  0  0  0  0  0  0  0
    7.0240   16.0270   -4.2610 C   0  0  0  0  0  0  0  0  0  0  0  0
    5.7600   13.8320   -4.0120 C   0  0  0  0  0  0  0  0  0  0  0  0
    2.1110   16.3140   -0.3480 C   0  0  1  0  0  0  0  0  0  0  0  0
    0.7390   17.0160   -0.5230 C   0  0  0  0  0  0  0  0  0  0  0  0
   -0.1730   16.0300   -1.2970 C   0  0  0  0  0  0  0  0  0  0  0  0
    0.5820   14.6810   -1.2500 C   0  0  1  0  0  0  0  0  0  0  0  0
    0.2510   14.0840    0.1540 C   0  0  0  0  0  0  0  0  0  0  0  0
    0.2620   13.6690   -2.3980 C   0  0  2  0  0  0  0  0  0  0  0  0
   -1.1960   13.1800   -2.4490 C   0  0  0  0  0  0  0  0  0  0  0  0
   -1.4830   11.9450   -1.6610 C   0  0  0  0  0  0  0  0  0  0  0  0
   -0.5580   11.0960   -1.1740 C   0  0  0  0  0  0  0  0  0  0  0  0
    0.9310   11.2900   -1.4860 C   0  0  1  0  0  0  0  0  0  0  0  0
    1.5530    9.9320   -1.9070 C   0  0  0  0  0  0  0  0  0  0  0  0
    1.3100    8.8330   -0.8780 C   0  0  0  0  0  0  0  0  0  0  0  0
   -0.1840    8.6300   -0.6380 C   0  0  2  0  0  0  0  0  0  0  0  0
   -0.7750    8.1080   -1.8310 O   0  0  0  0  0  0  0  0  0  0  0  0
   -0.9190    9.9330   -0.2170 C   0  0  0  0  0  0  0  0  0  0  0  0
   -0.4900   10.3330    1.2170 C   0  0  0  0  0  0  0  0  0  0  0  0
   -2.4380    9.6220   -0.1450 C   0  0  0  0  0  0  0  0  0  0  0  0
    1.2800   12.4620   -2.5010 C   0  0  1  0  0  0  0  0  0  0  0  0
    1.2020   11.9380   -3.9670 C   0  0  0  0  0  0  0  0  0  0  0  0
    2.7700   12.9150   -2.2700 C   0  0  0  0  0  0  0  0  0  0  0  0
    3.0090   14.0040   -1.2060 C   0  0  0  0  0  0  0  0  0  0  0  0
    2.0610   15.1890   -1.4130 C   0  0  2  0  0  0  0  0  0  0  0  0
    2.3860   15.8240   -2.8080 C   0  0  0  0  0  0  0  0  0  0  0  0
    3.1119   18.1083    1.5797 H   0  0  0  0  0  0  0  0  0  0  0  0
    3.7946   19.2395    0.3627 H   0  0  0  0  0  0  0  0  0  0  0  0
    2.0357   18.8748    0.3627 H   0  0  0  0  0  0  0  0  0  0  0  0
    4.2042   16.7838   -0.0885 H   0  0  0  0  0  0  0  0  0  0  0  0
    2.7093   17.3135   -2.4945 H   0  0  0  0  0  0  0  0  0  0  0  0
    3.4595   18.8553   -1.8601 H   0  0  0  0  0  0  0  0  0  0  0  0
    4.9857   17.8476   -3.4226 H   0  0  0  0  0  0  0  0  0  0  0  0
    5.6370   17.6769   -1.7390 H   0  0  0  0  0  0  0  0  0  0  0  0
    3.8773   15.7602   -2.5728 H   0  0  0  0  0  0  0  0  0  0  0  0
    7.6781   16.5543   -3.5510 H   0  0  0  0  0  0  0  0  0  0  0  0
    7.6302   15.3621   -4.8937 H   0  0  0  0  0  0  0  0  0  0  0  0
    6.5028   16.7605   -4.8937 H   0  0  0  0  0  0  0  0  0  0  0  0
    5.6324   13.1474   -3.1605 H   0  0  0  0  0  0  0  0  0  0  0  0
    4.8460   13.8302   -4.6241 H   0  0  0  0  0  0  0  0  0  0  0  0
    6.6119   13.5010   -4.6241 H   0  0  0  0  0  0  0  0  0  0  0  0
    2.2868   15.8817    0.6481 H   0  0  0  0  0  0  0  0  0  0  0  0
    0.3019   17.2437    0.4604 H   0  0  0  0  0  0  0  0  0  0  0  0
    0.8478   17.9646   -1.0691 H   0  0  0  0  0  0  0  0  0  0  0  0
   -1.1543   15.9430   -0.8076 H   0  0  0  0  0  0  0  0  0  0  0  0
   -0.3679   16.3632   -2.3271 H   0  0  0  0  0  0  0  0  0  0  0  0
    0.6255   14.7595    0.9372 H   0  0  0  0  0  0  0  0  0  0  0  0
   -0.8384   13.9714    0.2570 H   0  0  0  0  0  0  0  0  0  0  0  0
    0.7326   13.1004    0.2570 H   0  0  0  0  0  0  0  0  0  0  0  0
    0.4031   14.2832   -3.2996 H   0  0  0  0  0  0  0  0  0  0  0  0
   -1.8383   13.9857   -2.0638 H   0  0  0  0  0  0  0  0  0  0  0  0
   -1.3938   12.9228   -3.5001 H   0  0  0  0  0  0  0  0  0  0  0  0
   -2.5386   11.7086   -1.4614 H   0  0  0  0  0  0  0  0  0  0  0  0
    1.3945   11.6393   -0.5516 H   0  0  0  0  0  0  0  0  0  0  0  0
    1.1090    9.6227   -2.8647 H   0  0  0  0  0  0  0  0  0  0  0  0
    2.6403   10.0750   -1.9921 H   0  0  0  0  0  0  0  0  0  0  0  0
    1.7464    7.8927   -1.2459 H   0  0  0  0  0  0  0  0  0  0  0  0
    1.7805    9.1305    0.0708 H   0  0  0  0  0  0  0  0  0  0  0  0
   -0.2914    7.9251    0.1996 H   0  0  0  0  0  0  0  0  0  0  0  0
   -1.2400    8.8380   -2.2730 H   0  0  0  0  0  0  0  0  0  0  0  0
   -1.0905    9.7731    1.9490 H   0  0  0  0  0  0  0  0  0  0  0  0
    0.5751   10.0981    1.3601 H   0  0  0  0  0  0  0  0  0  0  0  0
   -0.6499   11.4119    1.3601 H   0  0  0  0  0  0  0  0  0  0  0  0
   -2.7497    9.5582    0.9080 H   0  0  0  0  0  0  0  0  0  0  0  0
   -3.0005   10.4236   -0.6460 H   0  0  0  0  0  0  0  0  0  0  0  0
   -2.6402    8.6638   -0.6460 H   0  0  0  0  0  0  0  0  0  0  0  0
    1.0400   10.8500   -3.9594 H   0  0  0  0  0  0  0  0  0  0  0  0
    0.3671   12.4293   -4.4881 H   0  0  0  0  0  0  0  0  0  0  0  0
    2.1438   12.1649   -4.4881 H   0  0  0  0  0  0  0  0  0  0  0  0
    3.3454   12.0263   -1.9714 H   0  0  0  0  0  0  0  0  0  0  0  0
    3.0832   13.3692   -3.2216 H   0  0  0  0  0  0  0  0  0  0  0  0
    2.8371   13.5756   -0.2075 H   0  0  0  0  0  0  0  0  0  0  0  0
    4.0448   14.3629   -1.2975 H   0  0  0  0  0  0  0  0  0  0  0  0
    2.8827   16.7946   -2.6623 H   0  0  0  0  0  0  0  0  0  0  0  0
    3.0512   15.1524   -3.3705 H   0  0  0  0  0  0  0  0  0  0  0  0
    1.4522   15.9708   -3.3705 H   0  0  0  0  0  0  0  0  0  0  0  0
  1  2  1  0
  2  3  1  0
  3  4  1  0
  4  5  1  0
  5  6  1  0
  6  7  1  0
  7  8  1  0
  7  9  1  0
  2 10  1  0
 10 11  1  0
 11 12  1  0
 12 13  1  0
 13 14  1  1
 13 15  1  0
 15 16  1  0
 16 17  1  0
 17 18  2  0
 18 19  1  0
 19 20  1  0
 20 21  1  0
 21 22  1  0
 22 23  1  0
 22 24  1  0
 24 25  1  0
 24 26  1  0
 19 27  1  0
 27 28  1  6
 27 29  1  0
 29 30  1  0
 30 31  1  0
 31 32  1  6
  7  5  1  0
 31 10  1  0
 31 13  1  0
 27 15  1  0
 24 18  1  0
  1 33  1  0
  1 34  1  0
  1 35  1  0
  2 36  1  1
  3 37  1  0
  3 38  1  0
  4 39  1  0
  4 40  1  0
  5 41  1  1
  8 42  1  0
  8 43  1  0
  8 44  1  0
  9 45  1  0
  9 46  1  0
  9 47  1  0
 10 48  1  1
 11 49  1  0
 11 50  1  0
 12 51  1  0
 12 52  1  0
 14 53  1  0
 14 54  1  0
 14 55  1  0
 15 56  1  6
 16 57  1  0
 16 58  1  0
 17 59  1  0
 19 60  1  1
 20 61  1  0
 20 62  1  0
 21 63  1  0
 21 64  1  0
 22 65  1  1
 23 66  1  0
 25 67  1  0
 25 68  1  0
 25 69  1  0
 26 70  1  0
 26 71  1  0
 26 72  1  0
 28 73  1  0
 28 74  1  0
 28 75  1  0
 29 76  1  0
 29 77  1  0
 30 78  1  0
 30 79  1  0
 32 80  1  0
 32 81  1  0
 32 82  1  0
M  END
>  <meeko>  (16) 
{"is_sidechain": [false], "intermolecular_energy": 2.731, "internal_energy": -0.839}

$$$$
EPH_relaxed_0001_pdb2pqr_Repair_302_r2_0001_out
     RDKit          3D

 82 86  0  0  0  0  0  0  0  0999 V2000
    0.0990   10.0640    1.4420 C   0  0  0  0  0  0  0  0  0  0  0  0
    0.3950   10.3560   -0.0320 C   0  0  2  0  0  0  0  0  0  0  0  0
    0.9190    9.1130   -0.7770 C   0  0  0  0  0  0  0  0  0  0  0  0
   -0.0000    8.6400   -1.9070 C   0  0  0  0  0  0  0  0  0  0  0  0
   -1.3360    8.2000   -1.3880 C   0  0  2  0  0  0  0  0  0  0  0  0
   -2.4300    8.4260   -2.2860 O   0  0  0  0  0  0  0  0  0  0  0  0
   -2.4600    9.1610   -1.0520 C   0  0  0  0  0  0  0  0  0  0  0  0
   -2.3000   10.6400   -1.2210 C   0  0  0  0  0  0  0  0  0  0  0  0
   -3.5290    8.7090   -0.1060 C   0  0  0  0  0  0  0  0  0  0  0  0
    1.4030   11.4940   -0.1430 C   0  0  1  0  0  0  0  0  0  0  0  0
    2.7130   11.0630   -0.8560 C   0  0  0  0  0  0  0  0  0  0  0  0
    3.2020   12.2890   -1.6710 C   0  0  0  0  0  0  0  0  0  0  0  0
    2.3550   13.4710   -1.1440 C   0  0  1  0  0  0  0  0  0  0  0  0
    3.0590   13.9100    0.1780 C   0  0  0  0  0  0  0  0  0  0  0  0
    2.1640   14.6740   -2.1230 C   0  0  2  0  0  0  0  0  0  0  0  0
    3.4590   15.4030   -2.5220 C   0  0  0  0  0  0  0  0  0  0  0  0
    3.8450   16.5450   -1.6410 C   0  0  0  0  0  0  0  0  0  0  0  0
    3.0420   17.1490   -0.7470 C   0  0  0  0  0  0  0  0  0  0  0  0
    1.5650   16.7540   -0.6210 C   0  0  1  0  0  0  0  0  0  0  0  0
    0.6890   18.0340   -0.5710 C   0  0  0  0  0  0  0  0  0  0  0  0
    1.1290   19.0010    0.5240 C   0  0  0  0  0  0  0  0  0  0  0  0
    2.5860   19.4160    0.3320 C   0  0  2  0  0  0  0  0  0  0  0  0
    2.6900   20.1940   -0.8650 O   0  0  0  0  0  0  0  0  0  0  0  0
    3.5620   18.2090    0.2560 C   0  0  0  0  0  0  0  0  0  0  0  0
    3.6760   17.5440    1.6500 C   0  0  0  0  0  0  0  0  0  0  0  0
    4.9750   18.7570   -0.0800 C   0  0  0  0  0  0  0  0  0  0  0  0
    1.0380   15.6950   -1.6830 C   0  0  1  0  0  0  0  0  0  0  0  0
    0.5700   16.4280   -2.9780 C   0  0  0  0  0  0  0  0  0  0  0  0
   -0.2320   14.9710   -1.1000 C   0  0  0  0  0  0  0  0  0  0  0  0
    0.0170   13.7180   -0.2380 C   0  0  0  0  0  0  0  0  0  0  0  0
    0.9730   12.7500   -0.9420 C   0  0  2  0  0  0  0  0  0  0  0  0
    0.2820   12.2730   -2.2650 C   0  0  0  0  0  0  0  0  0  0  0  0
    0.7387   10.6951    2.0764 H   0  0  0  0  0  0  0  0  0  0  0  0
   -0.9579   10.2830    1.6541 H   0  0  0  0  0  0  0  0  0  0  0  0
    0.3036    9.0042    1.6541 H   0  0  0  0  0  0  0  0  0  0  0  0
   -0.5521   10.6498   -0.5081 H   0  0  0  0  0  0  0  0  0  0  0  0
    1.9022    9.3546   -1.2070 H   0  0  0  0  0  0  0  0  0  0  0  0
    0.9718    8.2961   -0.0422 H   0  0  0  0  0  0  0  0  0  0  0  0
   -0.1481    9.4678   -2.6161 H   0  0  0  0  0  0  0  0  0  0  0  0
    0.4769    7.7796   -2.3993 H   0  0  0  0  0  0  0  0  0  0  0  0
   -0.8723    7.3799   -0.8202 H   0  0  0  0  0  0  0  0  0  0  0  0
   -2.2482   11.1186   -0.2319 H   0  0  0  0  0  0  0  0  0  0  0  0
   -1.3742   10.8474   -1.7776 H   0  0  0  0  0  0  0  0  0  0  0  0
   -3.1600   11.0406   -1.7776 H   0  0  0  0  0  0  0  0  0  0  0  0
   -3.1873    8.8535    0.9295 H   0  0  0  0  0  0  0  0  0  0  0  0
   -4.4423    9.2980   -0.2763 H   0  0  0  0  0  0  0  0  0  0  0  0
   -3.7428    7.6435   -0.2763 H   0  0  0  0  0  0  0  0  0  0  0  0
    1.5151   11.7461    0.9218 H   0  0  0  0  0  0  0  0  0  0  0  0
    3.4715   10.7747   -0.1133 H   0  0  0  0  0  0  0  0  0  0  0  0
    2.5399   10.1964   -1.5110 H   0  0  0  0  0  0  0  0  0  0  0  0
    4.2727   12.4699   -1.4955 H   0  0  0  0  0  0  0  0  0  0  0  0
    3.0852   12.1428   -2.7550 H   0  0  0  0  0  0  0  0  0  0  0  0
    2.4790   13.5483    1.0399 H   0  0  0  0  0  0  0  0  0  0  0  0
    4.0723   13.4834    0.2129 H   0  0  0  0  0  0  0  0  0  0  0  0
    3.1218   15.0076    0.2129 H   0  0  0  0  0  0  0  0  0  0  0  0
    1.8064   14.1789   -3.0378 H   0  0  0  0  0  0  0  0  0  0  0  0
    4.2795   14.6705   -2.5082 H   0  0  0  0  0  0  0  0  0  0  0  0
    3.2712   15.8352   -3.5159 H   0  0  0  0  0  0  0  0  0  0  0  0
    4.8735   16.9246   -1.7308 H   0  0  0  0  0  0  0  0  0  0  0  0
    1.4768   16.2042    0.3276 H   0  0  0  0  0  0  0  0  0  0  0  0
    0.7571   18.5462   -1.5421 H   0  0  0  0  0  0  0  0  0  0  0  0
   -0.3428   17.7243   -0.3484 H   0  0  0  0  0  0  0  0  0  0  0  0
    0.4919   19.8971    0.4903 H   0  0  0  0  0  0  0  0  0  0  0  0
    1.0326   18.4972    1.4971 H   0  0  0  0  0  0  0  0  0  0  0  0
    2.8805   20.0028    1.2146 H   0  0  0  0  0  0  0  0  0  0  0  0
    3.2710   19.7140   -1.4780 H   0  0  0  0  0  0  0  0  0  0  0  0
    3.5453   18.3066    2.4319 H   0  0  0  0  0  0  0  0  0  0  0  0
    2.8966   16.7748    1.7541 H   0  0  0  0  0  0  0  0  0  0  0  0
    4.6671   17.0783    1.7541 H   0  0  0  0  0  0  0  0  0  0  0  0
    5.5180   18.9676    0.8531 H   0  0  0  0  0  0  0  0  0  0  0  0
    5.5289   18.0085   -0.6656 H   0  0  0  0  0  0  0  0  0  0  0  0
    4.8794   19.6832   -0.6656 H   0  0  0  0  0  0  0  0  0  0  0  0
   -0.0033   17.3260   -2.7042 H   0  0  0  0  0  0  0  0  0  0  0  0
    1.4487   16.7208   -3.5715 H   0  0  0  0  0  0  0  0  0  0  0  0
   -0.0654   15.7541   -3.5715 H   0  0  0  0  0  0  0  0  0  0  0  0
   -0.7748   15.6993   -0.4795 H   0  0  0  0  0  0  0  0  0  0  0  0
   -0.7865   14.6103   -1.9788 H   0  0  0  0  0  0  0  0  0  0  0  0
    0.4571   14.0236    0.7227 H   0  0  0  0  0  0  0  0  0  0  0  0
   -0.9435   13.2070   -0.0759 H   0  0  0  0  0  0  0  0  0  0  0  0
   -0.6003   11.6639   -2.0189 H   0  0  0  0  0  0  0  0  0  0  0  0
   -0.0296   13.1492   -2.8524 H   0  0  0  0  0  0  0  0  0  0  0  0
    0.9908   11.6710   -2.8524 H   0  0  0  0  0  0  0  0  0  0  0  0
  1  2  1  0
  2  3  1  0
  3  4  1  0
  4  5  1  0
  5  6  1  0
  6  7  1  0
  7  8  1  0
  7  9  1  0
  2 10  1  0
 10 11  1  0
 11 12  1  0
 12 13  1  0
 13 14  1  1
 13 15  1  0
 15 16  1  0
 16 17  1  0
 17 18  2  0
 18 19  1  0
 19 20  1  0
 20 21  1  0
 21 22  1  0
 22 23  1  0
 22 24  1  0
 24 25  1  0
 24 26  1  0
 19 27  1  0
 27 28  1  6
 27 29  1  0
 29 30  1  0
 30 31  1  0
 31 32  1  6
  7  5  1  0
 31 10  1  0
 31 13  1  0
 27 15  1  0
 24 18  1  0
  1 33  1  0
  1 34  1  0
  1 35  1  0
  2 36  1  6
  3 37  1  0
  3 38  1  0
  4 39  1  0
  4 40  1  0
  5 41  1  1
  8 42  1  0
  8 43  1  0
  8 44  1  0
  9 45  1  0
  9 46  1  0
  9 47  1  0
 10 48  1  1
 11 49  1  0
 11 50  1  0
 12 51  1  0
 12 52  1  0
 14 53  1  0
 14 54  1  0
 14 55  1  0
 15 56  1  6
 16 57  1  0
 16 58  1  0
 17 59  1  0
 19 60  1  1
 20 61  1  0
 20 62  1  0
 21 63  1  0
 21 64  1  0
 22 65  1  1
 23 66  1  0
 25 67  1  0
 25 68  1  0
 25 69  1  0
 26 70  1  0
 26 71  1  0
 26 72  1  0
 28 73  1  0
 28 74  1  0
 28 75  1  0
 29 76  1  0
 29 77  1  0
 30 78  1  0
 30 79  1  0
 32 80  1  0
 32 81  1  0
 32 82  1  0
M  END
>  <meeko>  (17) 
{"is_sidechain": [false], "intermolecular_energy": 2.731, "internal_energy": -0.839}

$$$$
EPH_relaxed_0001_pdb2pqr_Repair_302_r2_0001_out
     RDKit          3D

 82 86  0  0  0  0  0  0  0  0999 V2000
   -0.1940    8.7270   -3.7770 C   0  0  0  0  0  0  0  0  0  0  0  0
   -0.1810    9.1240   -2.2980 C   0  0  2  0  0  0  0  0  0  0  0  0
   -1.2070    8.3220   -1.4730 C   0  0  0  0  0  0  0  0  0  0  0  0
   -2.6460    8.4630   -1.9760 C   0  0  0  0  0  0  0  0  0  0  0  0
   -3.1150    7.2200   -2.6690 C   0  0  2  0  0  0  0  0  0  0  0  0
   -4.1440    7.4310   -3.6450 O   0  0  0  0  0  0  0  0  0  0  0  0
   -4.5080    6.6430   -2.5000 C   0  0  0  0  0  0  0  0  0  0  0  0
   -5.5200    7.2940   -1.6100 C   0  0  0  0  0  0  0  0  0  0  0  0
   -4.7250    5.1940   -2.8100 C   0  0  0  0  0  0  0  0  0  0  0  0
   -0.4520   10.6170   -2.1580 C   0  0  1  0  0  0  0  0  0  0  0  0
   -1.7680   10.9160   -1.3920 C   0  0  0  0  0  0  0  0  0  0  0  0
   -1.5240   12.2080   -0.5700 C   0  0  0  0  0  0  0  0  0  0  0  0
   -0.2090   12.7890   -1.1400 C   0  0  1  0  0  0  0  0  0  0  0  0
   -0.6340   13.5450   -2.4380 C   0  0  0  0  0  0  0  0  0  0  0  0
    0.6130   13.7100   -0.1800 C   0  0  2  0  0  0  0  0  0  0  0  0
   -0.1040   14.9970    0.2620 C   0  0  0  0  0  0  0  0  0  0  0  0
    0.1210   16.1850   -0.6130 C   0  0  0  0  0  0  0  0  0  0  0  0
    1.0870   16.2990   -1.5440 C   0  0  0  0  0  0  0  0  0  0  0  0
    2.1430   15.2000   -1.7220 C   0  0  1  0  0  0  0  0  0  0  0  0
    3.5500   15.8450   -1.8180 C   0  0  0  0  0  0  0  0  0  0  0  0
    3.6320   16.9130   -2.9030 C   0  0  0  0  0  0  0  0  0  0  0  0
    2.6070   18.0180   -2.6590 C   0  0  2  0  0  0  0  0  0  0  0  0
    2.9650   18.7230   -1.4670 O   0  0  0  0  0  0  0  0  0  0  0  0
    1.1520   17.4870   -2.5350 C   0  0  0  0  0  0  0  0  0  0  0  0
    0.6580   16.9930   -3.9180 C   0  0  0  0  0  0  0  0  0  0  0  0
    0.2380   18.6820   -2.1500 C   0  0  0  0  0  0  0  0  0  0  0  0
    2.0870   14.0080   -0.6720 C   0  0  1  0  0  0  0  0  0  0  0  0
    2.9140   14.3790    0.5970 C   0  0  0  0  0  0  0  0  0  0  0  0
    2.7780   12.7390   -1.2970 C   0  0  0  0  0  0  0  0  0  0  0  0
    1.8850   11.8050   -2.1370 C   0  0  0  0  0  0  0  0  0  0  0  0
    0.5940   11.4610   -1.3880 C   0  0  2  0  0  0  0  0  0  0  0  0
    0.9890   10.6810   -0.0880 C   0  0  0  0  0  0  0  0  0  0  0  0
   -0.2299    7.6309   -3.8621 H   0  0  0  0  0  0  0  0  0  0  0  0
   -1.0784    9.1619   -4.2656 H   0  0  0  0  0  0  0  0  0  0  0  0
    0.7169    9.1031   -4.2656 H   0  0  0  0  0  0  0  0  0  0  0  0
    0.8176    8.8892   -1.9009 H   0  0  0  0  0  0  0  0  0  0  0  0
   -0.9283    7.2586   -1.5112 H   0  0  0  0  0  0  0  0  0  0  0  0
   -1.1830    8.7255   -0.4500 H   0  0  0  0  0  0  0  0  0  0  0  0
   -3.3053    8.6635   -1.1186 H   0  0  0  0  0  0  0  0  0  0  0  0
   -2.6769    9.2913   -2.6992 H   0  0  0  0  0  0  0  0  0  0  0  0
   -2.1149    6.7691   -2.5882 H   0  0  0  0  0  0  0  0  0  0  0  0
   -5.2493    7.1198   -0.5582 H   0  0  0  0  0  0  0  0  0  0  0  0
   -5.5414    8.3757   -1.8089 H   0  0  0  0  0  0  0  0  0  0  0  0
   -6.5132    6.8650   -1.8089 H   0  0  0  0  0  0  0  0  0  0  0  0
   -4.8099    4.6269   -1.8713 H   0  0  0  0  0  0  0  0  0  0  0  0
   -5.6505    5.0784   -3.3932 H   0  0  0  0  0  0  0  0  0  0  0  0
   -3.8740    4.8124   -3.3932 H   0  0  0  0  0  0  0  0  0  0  0  0
   -0.4580   10.9032   -3.2201 H   0  0  0  0  0  0  0  0  0  0  0  0
   -2.5934   11.0695   -2.1027 H   0  0  0  0  0  0  0  0  0  0  0  0
   -2.0424   10.0767   -0.7361 H   0  0  0  0  0  0  0  0  0  0  0  0
   -2.3534   12.9176   -0.7061 H   0  0  0  0  0  0  0  0  0  0  0  0
   -1.4595   12.0099    0.5101 H   0  0  0  0  0  0  0  0  0  0  0  0
   -1.1564   14.4742   -2.1667 H   0  0  0  0  0  0  0  0  0  0  0  0
    0.2604   13.7869   -3.0310 H   0  0  0  0  0  0  0  0  0  0  0  0
   -1.3055   12.9066   -3.0310 H   0  0  0  0  0  0  0  0  0  0  0  0
    0.6985   13.0908    0.7251 H   0  0  0  0  0  0  0  0  0  0  0  0
   -1.1846   14.7927    0.2865 H   0  0  0  0  0  0  0  0  0  0  0  0
    0.3175   15.2582    1.2439 H   0  0  0  0  0  0  0  0  0  0  0  0
   -0.5599   17.0396   -0.4866 H   0  0  0  0  0  0  0  0  0  0  0  0
    1.8996   14.6941   -2.6680 H   0  0  0  0  0  0  0  0  0  0  0  0
    3.7927   16.3070   -0.8497 H   0  0  0  0  0  0  0  0  0  0  0  0
    4.2642   15.0499   -2.0782 H   0  0  0  0  0  0  0  0  0  0  0  0
    4.6410   17.3511   -2.9015 H   0  0  0  0  0  0  0  0  0  0  0  0
    3.4181   16.4438   -3.8746 H   0  0  0  0  0  0  0  0  0  0  0  0
    2.6242   18.6836   -3.5346 H   0  0  0  0  0  0  0  0  0  0  0  0
    2.6580   19.6410   -1.5650 H   0  0  0  0  0  0  0  0  0  0  0  0
   -0.1135   16.2215   -3.7777 H   0  0  0  0  0  0  0  0  0  0  0  0
    0.2333   17.8385   -4.4791 H   0  0  0  0  0  0  0  0  0  0  0  0
    1.5035   16.5683   -4.4791 H   0  0  0  0  0  0  0  0  0  0  0  0
    0.1784   18.7599   -1.0544 H   0  0  0  0  0  0  0  0  0  0  0  0
    0.6575   19.6119   -2.5615 H   0  0  0  0  0  0  0  0  0  0  0  0
   -0.7693   18.5206   -2.5615 H   0  0  0  0  0  0  0  0  0  0  0  0
    2.3385   14.1208    1.4982 H   0  0  0  0  0  0  0  0  0  0  0  0
    3.8611   13.8195    0.5940 H   0  0  0  0  0  0  0  0  0  0  0  0
    3.1258   15.4584    0.5940 H   0  0  0  0  0  0  0  0  0  0  0  0
    3.5949   13.0899   -1.9448 H   0  0  0  0  0  0  0  0  0  0  0  0
    3.0998   12.1333   -0.4370 H   0  0  0  0  0  0  0  0  0  0  0  0
    1.6299   12.3056   -3.0827 H   0  0  0  0  0  0  0  0  0  0  0  0
    2.4367   10.8734   -2.3312 H   0  0  0  0  0  0  0  0  0  0  0  0
    0.6927   11.2662    0.7950 H   0  0  0  0  0  0  0  0  0  0  0  0
    0.4746    9.7088   -0.0731 H   0  0  0  0  0  0  0  0  0  0  0  0
    2.0771   10.5203   -0.0731 H   0  0  0  0  0  0  0  0  0  0  0  0
  1  2  1  0
  2  3  1  0
  3  4  1  0
  4  5  1  0
  5  6  1  0
  6  7  1  0
  7  8  1  0
  7  9  1  0
  2 10  1  0
 10 11  1  0
 11 12  1  0
 12 13  1  0
 13 14  1  6
 13 15  1  0
 15 16  1  0
 16 17  1  0
 17 18  2  0
 18 19  1  0
 19 20  1  0
 20 21  1  0
 21 22  1  0
 22 23  1  0
 22 24  1  0
 24 25  1  0
 24 26  1  0
 19 27  1  0
 27 28  1  1
 27 29  1  0
 29 30  1  0
 30 31  1  0
 31 32  1  1
  7  5  1  0
 31 10  1  0
 31 13  1  0
 27 15  1  0
 24 18  1  0
  1 33  1  0
  1 34  1  0
  1 35  1  0
  2 36  1  1
  3 37  1  0
  3 38  1  0
  4 39  1  0
  4 40  1  0
  5 41  1  6
  8 42  1  0
  8 43  1  0
  8 44  1  0
  9 45  1  0
  9 46  1  0
  9 47  1  0
 10 48  1  6
 11 49  1  0
 11 50  1  0
 12 51  1  0
 12 52  1  0
 14 53  1  0
 14 54  1  0
 14 55  1  0
 15 56  1  1
 16 57  1  0
 16 58  1  0
 17 59  1  0
 19 60  1  6
 20 61  1  0
 20 62  1  0
 21 63  1  0
 21 64  1  0
 22 65  1  6
 23 66  1  0
 25 67  1  0
 25 68  1  0
 25 69  1  0
 26 70  1  0
 26 71  1  0
 26 72  1  0
 28 73  1  0
 28 74  1  0
 28 75  1  0
 29 76  1  0
 29 77  1  0
 30 78  1  0
 30 79  1  0
 32 80  1  0
 32 81  1  0
 32 82  1  0
M  END
>  <meeko>  (18) 
{"is_sidechain": [false], "intermolecular_energy": 2.731, "internal_energy": -0.839}

$$$$
EPH_relaxed_0001_pdb2pqr_Repair_302_r2_0001_out
     RDKit          3D

 82 86  0  0  0  0  0  0  0  0999 V2000
   -1.4750   10.2930    1.4910 C   0  0  0  0  0  0  0  0  0  0  0  0
   -2.0550    9.9430    0.1170 C   0  0  2  0  0  0  0  0  0  0  0  0
   -2.7650    8.5740    0.1190 C   0  0  0  0  0  0  0  0  0  0  0  0
   -4.2900    8.6710    0.0360 C   0  0  0  0  0  0  0  0  0  0  0  0
   -4.7910    8.3760   -1.3450 C   0  0  2  0  0  0  0  0  0  0  0  0
   -6.1890    8.6270   -1.5420 O   0  0  0  0  0  0  0  0  0  0  0  0
   -5.7670    7.2580   -1.6600 C   0  0  0  0  0  0  0  0  0  0  0  0
   -6.3000    6.3620   -0.5860 C   0  0  0  0  0  0  0  0  0  0  0  0
   -5.8230    6.7290   -3.0590 C   0  0  0  0  0  0  0  0  0  0  0  0
   -0.9500    9.9560   -0.9320 C   0  0  1  0  0  0  0  0  0  0  0  0
   -1.3130    9.1250   -2.1920 C   0  0  0  0  0  0  0  0  0  0  0  0
   -0.6850    9.8560   -3.4060 C   0  0  0  0  0  0  0  0  0  0  0  0
    0.2860   10.8850   -2.7820 C   0  0  1  0  0  0  0  0  0  0  0  0
    1.5740   10.0700   -2.4470 C   0  0  0  0  0  0  0  0  0  0  0  0
    0.6100   12.1450   -3.6500 C   0  0  2  0  0  0  0  0  0  0  0  0
    1.3180   11.8530   -4.9850 C   0  0  0  0  0  0  0  0  0  0  0  0
    2.8100   11.8550   -4.9290 C   0  0  0  0  0  0  0  0  0  0  0  0
    3.5550   12.3590   -3.9270 C   0  0  0  0  0  0  0  0  0  0  0  0
    2.8980   13.0890   -2.7480 C   0  0  1  0  0  0  0  0  0  0  0  0
    3.6670   14.4060   -2.4620 C   0  0  0  0  0  0  0  0  0  0  0  0
    5.1600   14.1760   -2.2480 C   0  0  0  0  0  0  0  0  0  0  0  0
    5.7880   13.5010   -3.4640 C   0  0  2  0  0  0  0  0  0  0  0  0
    5.7440   14.4080   -4.5700 O   0  0  0  0  0  0  0  0  0  0  0  0
    5.0900   12.1680   -3.8540 C   0  0  0  0  0  0  0  0  0  0  0  0
    5.3950   11.0880   -2.7860 C   0  0  0  0  0  0  0  0  0  0  0  0
    5.7280   11.6630   -5.1760 C   0  0  0  0  0  0  0  0  0  0  0  0
    1.3280   13.3110   -2.8580 C   0  0  1  0  0  0  0  0  0  0  0  0
    1.0300   14.6280   -3.6380 C   0  0  0  0  0  0  0  0  0  0  0  0
    0.7350   13.5070   -1.4130 C   0  0  0  0  0  0  0  0  0  0  0  0
    0.3230   12.2320   -0.6530 C   0  0  0  0  0  0  0  0  0  0  0  0
   -0.5520   11.3290   -1.5290 C   0  0  2  0  0  0  0  0  0  0  0  0
   -1.8650   12.1150   -1.8630 C   0  0  0  0  0  0  0  0  0  0  0  0
   -2.1326    9.8962    2.2785 H   0  0  0  0  0  0  0  0  0  0  0  0
   -0.4739    9.8481    1.5906 H   0  0  0  0  0  0  0  0  0  0  0  0
   -1.4020   11.3861    1.5906 H   0  0  0  0  0  0  0  0  0  0  0  0
   -2.8089   10.7054   -0.1287 H   0  0  0  0  0  0  0  0  0  0  0  0
   -2.4064    7.9957   -0.7453 H   0  0  0  0  0  0  0  0  0  0  0  0
   -2.5257    8.0895    1.0771 H   0  0  0  0  0  0  0  0  0  0  0  0
   -4.7317    7.9477    0.7373 H   0  0  0  0  0  0  0  0  0  0  0  0
   -4.5821    9.6997    0.2937 H   0  0  0  0  0  0  0  0  0  0  0  0
   -3.8197    8.6521   -1.7813 H   0  0  0  0  0  0  0  0  0  0  0  0
   -6.0501    6.7821    0.3995 H   0  0  0  0  0  0  0  0  0  0  0  0
   -7.3927    6.2819   -0.6841 H   0  0  0  0  0  0  0  0  0  0  0  0
   -5.8489    5.3636   -0.6841 H   0  0  0  0  0  0  0  0  0  0  0  0
   -5.9388    5.6354   -3.0331 H   0  0  0  0  0  0  0  0  0  0  0  0
   -6.6788    7.1760   -3.5860 H   0  0  0  0  0  0  0  0  0  0  0  0
   -4.8925    6.9869   -3.5860 H   0  0  0  0  0  0  0  0  0  0  0  0
   -0.1214    9.5519   -0.3319 H   0  0  0  0  0  0  0  0  0  0  0  0
   -0.9009    8.1087   -2.1071 H   0  0  0  0  0  0  0  0  0  0  0  0
   -2.4035    9.0357   -2.3056 H   0  0  0  0  0  0  0  0  0  0  0  0
   -0.1403    9.1471   -4.0469 H   0  0  0  0  0  0  0  0  0  0  0  0
   -1.4437   10.3322   -4.0444 H   0  0  0  0  0  0  0  0  0  0  0  0
    1.6885    9.9976   -1.3554 H   0  0  0  0  0  0  0  0  0  0  0  0
    1.4904    9.0600   -2.8747 H   0  0  0  0  0  0  0  0  0  0  0  0
    2.4509   10.5780   -2.8747 H   0  0  0  0  0  0  0  0  0  0  0  0
   -0.3923   12.5113   -3.9170 H   0  0  0  0  0  0  0  0  0  0  0  0
    0.9922   10.8616   -5.3329 H   0  0  0  0  0  0  0  0  0  0  0  0
    1.0377   12.6719   -5.6638 H   0  0  0  0  0  0  0  0  0  0  0  0
    3.3461   11.4067   -5.7784 H   0  0  0  0  0  0  0  0  0  0  0  0
    2.9825   12.4119   -1.8853 H   0  0  0  0  0  0  0  0  0  0  0  0
    3.5337   15.0852   -3.3170 H   0  0  0  0  0  0  0  0  0  0  0  0
    3.2590   14.8369   -1.5358 H   0  0  0  0  0  0  0  0  0  0  0  0
    5.6529   15.1448   -2.0796 H   0  0  0  0  0  0  0  0  0  0  0  0
    5.2924   13.5200   -1.3750 H   0  0  0  0  0  0  0  0  0  0  0  0
    6.8251   13.2467   -3.2000 H   0  0  0  0  0  0  0  0  0  0  0  0
    4.8190   14.6820   -4.6880 H   0  0  0  0  0  0  0  0  0  0  0  0
    5.2729   11.5204   -1.7820 H   0  0  0  0  0  0  0  0  0  0  0  0
    4.7000   10.2443   -2.9089 H   0  0  0  0  0  0  0  0  0  0  0  0
    6.4287   10.7325   -2.9089 H   0  0  0  0  0  0  0  0  0  0  0  0
    6.5712   10.9956   -4.9447 H   0  0  0  0  0  0  0  0  0  0  0  0
    4.9750   11.1136   -5.7601 H   0  0  0  0  0  0  0  0  0  0  0  0
    6.0899   12.5220   -5.7601 H   0  0  0  0  0  0  0  0  0  0  0  0
    0.8454   15.4436   -2.9234 H   0  0  0  0  0  0  0  0  0  0  0  0
    1.8932   14.8829   -4.2704 H   0  0  0  0  0  0  0  0  0  0  0  0
    0.1412   14.4865   -4.2704 H   0  0  0  0  0  0  0  0  0  0  0  0
    1.4950   14.0239   -0.8086 H   0  0  0  0  0  0  0  0  0  0  0  0
   -0.1988   14.0699   -1.5587 H   0  0  0  0  0  0  0  0  0  0  0  0
    1.2280   11.6802   -0.3590 H   0  0  0  0  0  0  0  0  0  0  0  0
   -0.2554   12.5252    0.2356 H   0  0  0  0  0  0  0  0  0  0  0  0
   -2.3621   12.4126   -0.9279 H   0  0  0  0  0  0  0  0  0  0  0  0
   -1.6162   13.0128   -2.4478 H   0  0  0  0  0  0  0  0  0  0  0  0
   -2.5388   11.4716   -2.4478 H   0  0  0  0  0  0  0  0  0  0  0  0
  1  2  1  0
  2  3  1  0
  3  4  1  0
  4  5  1  0
  5  6  1  0
  6  7  1  0
  7  8  1  0
  7  9  1  0
  2 10  1  0
 10 11  1  0
 11 12  1  0
 12 13  1  0
 13 14  1  1
 13 15  1  0
 15 16  1  0
 16 17  1  0
 17 18  2  0
 18 19  1  0
 19 20  1  0
 20 21  1  0
 21 22  1  0
 22 23  1  0
 22 24  1  0
 24 25  1  0
 24 26  1  0
 19 27  1  0
 27 28  1  6
 27 29  1  0
 29 30  1  0
 30 31  1  0
 31 32  1  6
  7  5  1  0
 31 10  1  0
 31 13  1  0
 27 15  1  0
 24 18  1  0
  1 33  1  0
  1 34  1  0
  1 35  1  0
  2 36  1  6
  3 37  1  0
  3 38  1  0
  4 39  1  0
  4 40  1  0
  5 41  1  6
  8 42  1  0
  8 43  1  0
  8 44  1  0
  9 45  1  0
  9 46  1  0
  9 47  1  0
 10 48  1  1
 11 49  1  0
 11 50  1  0
 12 51  1  0
 12 52  1  0
 14 53  1  0
 14 54  1  0
 14 55  1  0
 15 56  1  6
 16 57  1  0
 16 58  1  0
 17 59  1  0
 19 60  1  1
 20 61  1  0
 20 62  1  0
 21 63  1  0
 21 64  1  0
 22 65  1  1
 23 66  1  0
 25 67  1  0
 25 68  1  0
 25 69  1  0
 26 70  1  0
 26 71  1  0
 26 72  1  0
 28 73  1  0
 28 74  1  0
 28 75  1  0
 29 76  1  0
 29 77  1  0
 30 78  1  0
 30 79  1  0
 32 80  1  0
 32 81  1  0
 32 82  1  0
M  END
>  <meeko>  (19) 
{"is_sidechain": [false], "intermolecular_energy": 2.731, "internal_energy": -0.839}

$$$$
EPH_relaxed_0001_pdb2pqr_Repair_302_r2_0001_out
     RDKit          3D

 82 86  0  0  0  0  0  0  0  0999 V2000
    1.4360   10.6100   -4.8010 C   0  0  0  0  0  0  0  0  0  0  0  0
    0.7440   10.4940   -3.4400 C   0  0  2  0  0  0  0  0  0  0  0  0
   -0.4140    9.4770   -3.4620 C   0  0  0  0  0  0  0  0  0  0  0  0
   -0.2660    8.3540   -2.4320 C   0  0  0  0  0  0  0  0  0  0  0  0
    0.1280    8.8840   -1.0860 C   0  0  2  0  0  0  0  0  0  0  0  0
   -0.2670    8.0620    0.0200 O   0  0  0  0  0  0  0  0  0  0  0  0
   -0.8720    9.3630   -0.0510 C   0  0  0  0  0  0  0  0  0  0  0  0
   -2.3450    9.3350   -0.3160 C   0  0  0  0  0  0  0  0  0  0  0  0
   -0.4030   10.3050    1.0150 C   0  0  0  0  0  0  0  0  0  0  0  0
    0.2290   11.8600   -3.0010 C   0  0  1  0  0  0  0  0  0  0  0  0
   -1.0540   11.7640   -2.1350 C   0  0  0  0  0  0  0  0  0  0  0  0
   -0.9750   12.9070   -1.0900 C   0  0  0  0  0  0  0  0  0  0  0  0
    0.1710   13.8160   -1.5930 C   0  0  1  0  0  0  0  0  0  0  0  0
   -0.4790   14.7040   -2.7000 C   0  0  0  0  0  0  0  0  0  0  0  0
    0.8930   14.6820   -0.5090 C   0  0  2  0  0  0  0  0  0  0  0  0
   -0.0000   15.7110    0.2050 C   0  0  0  0  0  0  0  0  0  0  0  0
   -0.0540   17.0600   -0.4330 C   0  0  0  0  0  0  0  0  0  0  0  0
    0.8020   17.5190   -1.3650 C   0  0  0  0  0  0  0  0  0  0  0  0
    2.0150   16.6860   -1.7990 C   0  0  1  0  0  0  0  0  0  0  0  0
    3.2780   17.5870   -1.8290 C   0  0  0  0  0  0  0  0  0  0  0  0
    3.0870   18.8320   -2.6890 C   0  0  0  0  0  0  0  0  0  0  0  0
    1.9080   19.6640   -2.1910 C   0  0  2  0  0  0  0  0  0  0  0  0
    2.2300   20.1940   -0.9010 O   0  0  0  0  0  0  0  0  0  0  0  0
    0.5810   18.8590   -2.1090 C   0  0  0  0  0  0  0  0  0  0  0  0
    0.0750   18.5440   -3.5380 C   0  0  0  0  0  0  0  0  0  0  0  0
   -0.4920   19.7730   -1.4600 C   0  0  0  0  0  0  0  0  0  0  0  0
    2.2490   15.3330   -0.9980 C   0  0  1  0  0  0  0  0  0  0  0  0
    3.0960   15.6120    0.2810 C   0  0  0  0  0  0  0  0  0  0  0  0
    3.0990   14.3500   -1.8870 C   0  0  0  0  0  0  0  0  0  0  0  0
    2.3190   13.4370   -2.8520 C   0  0  0  0  0  0  0  0  0  0  0  0
    1.1700   12.7280   -2.1290 C   0  0  2  0  0  0  0  0  0  0  0  0
    1.7950   11.8100   -1.0230 C   0  0  0  0  0  0  0  0  0  0  0  0
    2.5108   10.7902   -4.6517 H   0  0  0  0  0  0  0  0  0  0  0  0
    1.2956    9.6758   -5.3645 H   0  0  0  0  0  0  0  0  0  0  0  0
    0.9987   11.4474   -5.3645 H   0  0  0  0  0  0  0  0  0  0  0  0
    1.4904   10.1285   -2.7194 H   0  0  0  0  0  0  0  0  0  0  0  0
   -1.3520   10.0142   -3.2578 H   0  0  0  0  0  0  0  0  0  0  0  0
   -0.4086    9.0049   -4.4555 H   0  0  0  0  0  0  0  0  0  0  0  0
   -1.2266    7.8260   -2.3399 H   0  0  0  0  0  0  0  0  0  0  0  0
    0.5263    7.6739   -2.7779 H   0  0  0  0  0  0  0  0  0  0  0  0
    1.0334    9.3460   -1.5064 H   0  0  0  0  0  0  0  0  0  0  0  0
   -2.8894    9.3247    0.6398 H   0  0  0  0  0  0  0  0  0  0  0  0
   -2.6311   10.2279   -0.8913 H   0  0  0  0  0  0  0  0  0  0  0  0
   -2.5970    8.4319   -0.8913 H   0  0  0  0  0  0  0  0  0  0  0  0
   -0.6171    9.8749    2.0045 H   0  0  0  0  0  0  0  0  0  0  0  0
    0.6803   10.4656    0.9117 H   0  0  0  0  0  0  0  0  0  0  0  0
   -0.9277   11.2662    0.9117 H   0  0  0  0  0  0  0  0  0  0  0  0
    0.0895   12.3298   -3.9858 H   0  0  0  0  0  0  0  0  0  0  0  0
   -1.9468   11.8882   -2.7655 H   0  0  0  0  0  0  0  0  0  0  0  0
   -1.1257   10.7830   -1.6426 H   0  0  0  0  0  0  0  0  0  0  0  0
   -1.9231   13.4633   -1.0503 H   0  0  0  0  0  0  0  0  0  0  0  0
   -0.7933   12.5306   -0.0725 H   0  0  0  0  0  0  0  0  0  0  0  0
   -1.0661   15.5061   -2.2289 H   0  0  0  0  0  0  0  0  0  0  0  0
    0.3103   15.1463   -3.3256 H   0  0  0  0  0  0  0  0  0  0  0  0
   -1.1392   14.0854   -3.3256 H   0  0  0  0  0  0  0  0  0  0  0  0
    1.1552   13.9346    0.2543 H   0  0  0  0  0  0  0  0  0  0  0  0
   -1.0234   15.3089    0.2370 H   0  0  0  0  0  0  0  0  0  0  0  0
    0.4451   15.8622    1.1995 H   0  0  0  0  0  0  0  0  0  0  0  0
   -0.8614   17.7357   -0.1145 H   0  0  0  0  0  0  0  0  0  0  0  0
    1.7896   16.3258   -2.8136 H   0  0  0  0  0  0  0  0  0  0  0  0
    3.5119   17.9009   -0.8010 H   0  0  0  0  0  0  0  0  0  0  0  0
    4.0973   16.9994   -2.2688 H   0  0  0  0  0  0  0  0  0  0  0  0
    4.0013   19.4422   -2.6470 H   0  0  0  0  0  0  0  0  0  0  0  0
    2.8820   18.5164   -3.7226 H   0  0  0  0  0  0  0  0  0  0  0  0
    1.7411   20.4696   -2.9211 H   0  0  0  0  0  0  0  0  0  0  0  0
    1.5520   19.8830   -0.2780 H   0  0  0  0  0  0  0  0  0  0  0  0
   -0.8574   17.9636   -3.4772 H   0  0  0  0  0  0  0  0  0  0  0  0
   -0.1132   19.4848   -4.0760 H   0  0  0  0  0  0  0  0  0  0  0  0
    0.8361   17.9599   -4.0760 H   0  0  0  0  0  0  0  0  0  0  0  0
   -0.4153   19.7077   -0.3646 H   0  0  0  0  0  0  0  0  0  0  0  0
   -0.3282   20.8133   -1.7777 H   0  0  0  0  0  0  0  0  0  0  0  0
   -1.4930   19.4459   -1.7777 H   0  0  0  0  0  0  0  0  0  0  0  0
    2.4872   15.4115    1.1749 H   0  0  0  0  0  0  0  0  0  0  0  0
    3.9802   14.9576    0.2852 H   0  0  0  0  0  0  0  0  0  0  0  0
    3.4182   16.6637    0.2852 H   0  0  0  0  0  0  0  0  0  0  0  0
    3.7895   14.9586   -2.4894 H   0  0  0  0  0  0  0  0  0  0  0  0
    3.5873   13.6675   -1.1759 H   0  0  0  0  0  0  0  0  0  0  0  0
    1.9076   14.0464   -3.6702 H   0  0  0  0  0  0  0  0  0  0  0  0
    3.0073   12.6754   -3.2471 H   0  0  0  0  0  0  0  0  0  0  0  0
    1.5294   12.2002   -0.0294 H   0  0  0  0  0  0  0  0  0  0  0  0
    1.4047   10.7873   -1.1317 H   0  0  0  0  0  0  0  0  0  0  0  0
    2.8896   11.7982   -1.1317 H   0  0  0  0  0  0  0  0  0  0  0  0
  1  2  1  0
  2  3  1  0
  3  4  1  0
  4  5  1  0
  5  6  1  0
  6  7  1  0
  7  8  1  0
  7  9  1  0
  2 10  1  0
 10 11  1  0
 11 12  1  0
 12 13  1  0
 13 14  1  6
 13 15  1  0
 15 16  1  0
 16 17  1  0
 17 18  2  0
 18 19  1  0
 19 20  1  0
 20 21  1  0
 21 22  1  0
 22 23  1  0
 22 24  1  0
 24 25  1  0
 24 26  1  0
 19 27  1  0
 27 28  1  1
 27 29  1  0
 29 30  1  0
 30 31  1  0
 31 32  1  1
  7  5  1  0
 31 10  1  0
 31 13  1  0
 27 15  1  0
 24 18  1  0
  1 33  1  0
  1 34  1  0
  1 35  1  0
  2 36  1  1
  3 37  1  0
  3 38  1  0
  4 39  1  0
  4 40  1  0
  5 41  1  6
  8 42  1  0
  8 43  1  0
  8 44  1  0
  9 45  1  0
  9 46  1  0
  9 47  1  0
 10 48  1  6
 11 49  1  0
 11 50  1  0
 12 51  1  0
 12 52  1  0
 14 53  1  0
 14 54  1  0
 14 55  1  0
 15 56  1  1
 16 57  1  0
 16 58  1  0
 17 59  1  0
 19 60  1  6
 20 61  1  0
 20 62  1  0
 21 63  1  0
 21 64  1  0
 22 65  1  6
 23 66  1  0
 25 67  1  0
 25 68  1  0
 25 69  1  0
 26 70  1  0
 26 71  1  0
 26 72  1  0
 28 73  1  0
 28 74  1  0
 28 75  1  0
 29 76  1  0
 29 77  1  0
 30 78  1  0
 30 79  1  0
 32 80  1  0
 32 81  1  0
 32 82  1  0
M  END
>  <meeko>  (20) 
{"is_sidechain": [false], "intermolecular_energy": 2.731, "internal_energy": -0.839}

$$$$
