EPH_relaxed_0001_pdb2pqr_Repair_362_r2_0001_out
     RDKit          3D

 82 86  0  0  0  0  0  0  0  0999 V2000
   -1.6440    8.5960   -1.7700 C   0  0  0  0  0  0  0  0  0  0  0  0
   -2.0460    9.1870   -0.4160 C   0  0  2  0  0  0  0  0  0  0  0  0
   -3.5310    9.6010   -0.3820 C   0  0  0  0  0  0  0  0  0  0  0  0
   -4.4710    8.4860    0.0860 C   0  0  0  0  0  0  0  0  0  0  0  0
   -5.8400    8.6310   -0.5060 C   0  0  2  0  0  0  0  0  0  0  0  0
   -6.8360    7.7780    0.0740 O   0  0  0  0  0  0  0  0  0  0  0  0
   -6.5240    7.5400   -1.3080 C   0  0  0  0  0  0  0  0  0  0  0  0
   -5.8580    6.2250   -1.5640 C   0  0  0  0  0  0  0  0  0  0  0  0
   -7.6230    7.9260   -2.2490 C   0  0  0  0  0  0  0  0  0  0  0  0
   -1.1630   10.3850   -0.0880 C   0  0  1  0  0  0  0  0  0  0  0  0
   -0.0850   10.0590    0.9780 C   0  0  0  0  0  0  0  0  0  0  0  0
    1.1750   10.8820    0.6070 C   0  0  0  0  0  0  0  0  0  0  0  0
    0.6800   11.8960   -0.4510 C   0  0  1  0  0  0  0  0  0  0  0  0
    0.0180   13.0450    0.3730 C   0  0  0  0  0  0  0  0  0  0  0  0
    1.7600   12.4440   -1.4410 C   0  0  2  0  0  0  0  0  0  0  0  0
    2.8990   13.2440   -0.7860 C   0  0  0  0  0  0  0  0  0  0  0  0
    2.6630   14.7140   -0.6720 C   0  0  0  0  0  0  0  0  0  0  0  0
    1.7140   15.4070   -1.3280 C   0  0  0  0  0  0  0  0  0  0  0  0
    0.8160   14.7230   -2.3670 C   0  0  1  0  0  0  0  0  0  0  0  0
    0.7360   15.6030   -3.6420 C   0  0  0  0  0  0  0  0  0  0  0  0
    0.2950   17.0320   -3.3400 C   0  0  0  0  0  0  0  0  0  0  0  0
    1.2450   17.6980   -2.3480 C   0  0  2  0  0  0  0  0  0  0  0  0
    2.5210   17.8660   -2.9740 O   0  0  0  0  0  0  0  0  0  0  0  0
    1.4130   16.8960   -1.0270 C   0  0  0  0  0  0  0  0  0  0  0  0
    0.1030   16.9700   -0.2040 C   0  0  0  0  0  0  0  0  0  0  0  0
    2.5020   17.6010   -0.1750 C   0  0  0  0  0  0  0  0  0  0  0  0
    1.1630   13.2070   -2.6930 C   0  0  1  0  0  0  0  0  0  0  0  0
    2.2460   13.1380   -3.8130 C   0  0  0  0  0  0  0  0  0  0  0  0
   -0.1190   12.4980   -3.2700 C   0  0  0  0  0  0  0  0  0  0  0  0
   -1.0860   11.8720   -2.2470 C   0  0  0  0  0  0  0  0  0  0  0  0
   -0.3310   10.9930   -1.2450 C   0  0  2  0  0  0  0  0  0  0  0  0
    0.3270    9.8160   -2.0430 C   0  0  0  0  0  0  0  0  0  0  0  0
   -1.0319    7.6961   -1.6101 H   0  0  0  0  0  0  0  0  0  0  0  0
   -2.5483    8.3285   -2.3363 H   0  0  0  0  0  0  0  0  0  0  0  0
   -1.0630    9.3388   -2.3363 H   0  0  0  0  0  0  0  0  0  0  0  0
   -1.9041    8.4032    0.3426 H   0  0  0  0  0  0  0  0  0  0  0  0
   -3.6377   10.4552    0.3028 H   0  0  0  0  0  0  0  0  0  0  0  0
   -3.8184    9.8514   -1.4138 H   0  0  0  0  0  0  0  0  0  0  0  0
   -4.0520    7.5154   -0.2180 H   0  0  0  0  0  0  0  0  0  0  0  0
   -4.5618    8.5505    1.1803 H   0  0  0  0  0  0  0  0  0  0  0  0
   -5.6647    9.6975   -0.7108 H   0  0  0  0  0  0  0  0  0  0  0  0
   -5.6146    5.7444   -0.6049 H   0  0  0  0  0  0  0  0  0  0  0  0
   -6.5361    5.5761   -2.1376 H   0  0  0  0  0  0  0  0  0  0  0  0
   -4.9336    6.3877   -2.1376 H   0  0  0  0  0  0  0  0  0  0  0  0
   -8.5070    8.2365   -1.6727 H   0  0  0  0  0  0  0  0  0  0  0  0
   -7.2870    8.7599   -2.8828 H   0  0  0  0  0  0  0  0  0  0  0  0
   -7.8823    7.0651   -2.8828 H   0  0  0  0  0  0  0  0  0  0  0  0
   -1.9345   11.0988    0.2365 H   0  0  0  0  0  0  0  0  0  0  0  0
   -0.4429   10.3446    1.9782 H   0  0  0  0  0  0  0  0  0  0  0  0
    0.1384    8.9821    0.9969 H   0  0  0  0  0  0  0  0  0  0  0  0
    1.5717   11.4044    1.4900 H   0  0  0  0  0  0  0  0  0  0  0  0
    1.9909   10.2486    0.2287 H   0  0  0  0  0  0  0  0  0  0  0  0
    0.1358   12.8406    1.4474 H   0  0  0  0  0  0  0  0  0  0  0  0
    0.5041   14.0004    0.1261 H   0  0  0  0  0  0  0  0  0  0  0  0
   -1.0523   13.1036    0.1261 H   0  0  0  0  0  0  0  0  0  0  0  0
    2.2232   11.5212   -1.8202 H   0  0  0  0  0  0  0  0  0  0  0  0
    3.0552   12.8453    0.2272 H   0  0  0  0  0  0  0  0  0  0  0  0
    3.7715   13.1263   -1.4454 H   0  0  0  0  0  0  0  0  0  0  0  0
    3.3206   15.2783    0.0056 H   0  0  0  0  0  0  0  0  0  0  0  0
   -0.1789   14.6449   -1.9042 H   0  0  0  0  0  0  0  0  0  0  0  0
    1.7297   15.6327   -4.1128 H   0  0  0  0  0  0  0  0  0  0  0  0
   -0.0152   15.1559   -4.3097 H   0  0  0  0  0  0  0  0  0  0  0  0
    0.2867   17.6114   -4.2750 H   0  0  0  0  0  0  0  0  0  0  0  0
   -0.7113   17.0026   -2.8968 H   0  0  0  0  0  0  0  0  0  0  0  0
    0.8065   18.6683   -2.0720 H   0  0  0  0  0  0  0  0  0  0  0  0
    2.9380   16.9900   -3.0330 H   0  0  0  0  0  0  0  0  0  0  0  0
    0.3431   16.9564    0.8694 H   0  0  0  0  0  0  0  0  0  0  0  0
   -0.4316   17.8998   -0.4484 H   0  0  0  0  0  0  0  0  0  0  0  0
   -0.5329   16.1063   -0.4484 H   0  0  0  0  0  0  0  0  0  0  0  0
    2.2814   17.4582    0.8931 H   0  0  0  0  0  0  0  0  0  0  0  0
    3.4863   17.1683   -0.4071 H   0  0  0  0  0  0  0  0  0  0  0  0
    2.5101   18.6762   -0.4071 H   0  0  0  0  0  0  0  0  0  0  0  0
    3.2439   13.0744   -3.3547 H   0  0  0  0  0  0  0  0  0  0  0  0
    2.0719   12.2491   -4.4372 H   0  0  0  0  0  0  0  0  0  0  0  0
    2.1861   14.0418   -4.4372 H   0  0  0  0  0  0  0  0  0  0  0  0
   -0.6827   13.2468   -3.8459 H   0  0  0  0  0  0  0  0  0  0  0  0
    0.2614   11.6523   -3.8617 H   0  0  0  0  0  0  0  0  0  0  0  0
   -1.6032   12.6756   -1.7023 H   0  0  0  0  0  0  0  0  0  0  0  0
   -1.8103   11.2448   -2.7874 H   0  0  0  0  0  0  0  0  0  0  0  0
    0.7387    9.0795   -1.3372 H   0  0  0  0  0  0  0  0  0  0  0  0
   -0.4318    9.3328   -2.6760 H   0  0  0  0  0  0  0  0  0  0  0  0
    1.1361   10.2094   -2.6760 H   0  0  0  0  0  0  0  0  0  0  0  0
  1  2  1  0
  2  3  1  0
  3  4  1  0
  4  5  1  0
  5  6  1  0
  6  7  1  0
  7  8  1  0
  7  9  1  0
  2 10  1  0
 10 11  1  0
 11 12  1  0
 12 13  1  0
 13 14  1  1
 13 15  1  0
 15 16  1  0
 16 17  1  0
 17 18  2  0
 18 19  1  0
 19 20  1  0
 20 21  1  0
 21 22  1  0
 22 23  1  0
 22 24  1  0
 24 25  1  0
 24 26  1  0
 19 27  1  0
 27 28  1  6
 27 29  1  0
 29 30  1  0
 30 31  1  0
 31 32  1  6
  7  5  1  0
 31 10  1  0
 31 13  1  0
 27 15  1  0
 24 18  1  0
  1 33  1  0
  1 34  1  0
  1 35  1  0
  2 36  1  1
  3 37  1  0
  3 38  1  0
  4 39  1  0
  4 40  1  0
  5 41  1  6
  8 42  1  0
  8 43  1  0
  8 44  1  0
  9 45  1  0
  9 46  1  0
  9 47  1  0
 10 48  1  1
 11 49  1  0
 11 50  1  0
 12 51  1  0
 12 52  1  0
 14 53  1  0
 14 54  1  0
 14 55  1  0
 15 56  1  6
 16 57  1  0
 16 58  1  0
 17 59  1  0
 19 60  1  1
 20 61  1  0
 20 62  1  0
 21 63  1  0
 21 64  1  0
 22 65  1  1
 23 66  1  0
 25 67  1  0
 25 68  1  0
 25 69  1  0
 26 70  1  0
 26 71  1  0
 26 72  1  0
 28 73  1  0
 28 74  1  0
 28 75  1  0
 29 76  1  0
 29 77  1  0
 30 78  1  0
 30 79  1  0
 32 80  1  0
 32 81  1  0
 32 82  1  0
M  END
>  <meeko>  (1) 
{"is_sidechain": [false], "intermolecular_energy": 2.731, "internal_energy": -0.839}

$$$$
EPH_relaxed_0001_pdb2pqr_Repair_362_r2_0001_out
     RDKit          3D

 82 86  0  0  0  0  0  0  0  0999 V2000
    2.3620   18.0950   -2.6150 C   0  0  0  0  0  0  0  0  0  0  0  0
    1.0560   17.6980   -1.9210 C   0  0  2  0  0  0  0  0  0  0  0  0
    1.1730   17.7570   -0.3850 C   0  0  0  0  0  0  0  0  0  0  0  0
    0.8070   19.1210    0.2080 C   0  0  0  0  0  0  0  0  0  0  0  0
   -0.6460   19.1990    0.5660 C   0  0  2  0  0  0  0  0  0  0  0  0
   -1.4890   18.2910   -0.1560 O   0  0  0  0  0  0  0  0  0  0  0  0
   -1.7170   19.6910   -0.3900 C   0  0  0  0  0  0  0  0  0  0  0  0
   -1.3800   20.1390   -1.7770 C   0  0  0  0  0  0  0  0  0  0  0  0
   -3.0070   20.1940    0.1800 C   0  0  0  0  0  0  0  0  0  0  0  0
    0.6400   16.2990   -2.3590 C   0  0  1  0  0  0  0  0  0  0  0  0
    0.8060   16.0760   -3.8850 C   0  0  0  0  0  0  0  0  0  0  0  0
    1.2290   14.5970   -4.0780 C   0  0  0  0  0  0  0  0  0  0  0  0
    0.9720   13.9350   -2.7030 C   0  0  1  0  0  0  0  0  0  0  0  0
   -0.5580   13.6270   -2.6870 C   0  0  0  0  0  0  0  0  0  0  0  0
    1.8200   12.6630   -2.3790 C   0  0  2  0  0  0  0  0  0  0  0  0
    1.5920   11.4680   -3.3210 C   0  0  0  0  0  0  0  0  0  0  0  0
    0.5210   10.5180   -2.8970 C   0  0  0  0  0  0  0  0  0  0  0  0
   -0.0320   10.4590   -1.6710 C   0  0  0  0  0  0  0  0  0  0  0  0
    0.4860   11.3430   -0.5300 C   0  0  1  0  0  0  0  0  0  0  0  0
    0.6640   10.4850    0.7500 C   0  0  0  0  0  0  0  0  0  0  0  0
   -0.6060    9.7280    1.1280 C   0  0  0  0  0  0  0  0  0  0  0  0
   -1.0560    8.8160   -0.0090 C   0  0  2  0  0  0  0  0  0  0  0  0
   -0.0860    7.7780   -0.1800 O   0  0  0  0  0  0  0  0  0  0  0  0
   -1.2590    9.5690   -1.3540 C   0  0  0  0  0  0  0  0  0  0  0  0
   -2.5080   10.4800   -1.2580 C   0  0  0  0  0  0  0  0  0  0  0  0
   -1.5750    8.5140   -2.4490 C   0  0  0  0  0  0  0  0  0  0  0  0
    1.7700   12.2200   -0.8600 C   0  0  1  0  0  0  0  0  0  0  0  0
    3.0630   11.3910   -0.5950 C   0  0  0  0  0  0  0  0  0  0  0  0
    1.8200   13.4480    0.1230 C   0  0  0  0  0  0  0  0  0  0  0  0
    1.0600   14.7170   -0.3100 C   0  0  0  0  0  0  0  0  0  0  0  0
    1.4140   15.1040   -1.7490 C   0  0  2  0  0  0  0  0  0  0  0  0
    2.9440   15.4410   -1.7910 C   0  0  0  0  0  0  0  0  0  0  0  0
    3.1244   18.3268   -1.8567 H   0  0  0  0  0  0  0  0  0  0  0  0
    2.7111   17.2624   -3.2434 H   0  0  0  0  0  0  0  0  0  0  0  0
    2.1887   18.9810   -3.2434 H   0  0  0  0  0  0  0  0  0  0  0  0
    0.2873   18.4254   -2.2208 H   0  0  0  0  0  0  0  0  0  0  0  0
    0.5001   16.9999    0.0440 H   0  0  0  0  0  0  0  0  0  0  0  0
    2.2279   17.5703   -0.1354 H   0  0  0  0  0  0  0  0  0  0  0  0
    1.4068   19.2878    1.1149 H   0  0  0  0  0  0  0  0  0  0  0  0
    1.0148   19.8908   -0.5498 H   0  0  0  0  0  0  0  0  0  0  0  0
   -0.4012   19.4718    1.6031 H   0  0  0  0  0  0  0  0  0  0  0  0
   -0.7194   21.0172   -1.7283 H   0  0  0  0  0  0  0  0  0  0  0  0
   -0.8687   19.3247   -2.3113 H   0  0  0  0  0  0  0  0  0  0  0  0
   -2.3042   20.4045   -2.3113 H   0  0  0  0  0  0  0  0  0  0  0  0
   -2.9551   20.1738    1.2786 H   0  0  0  0  0  0  0  0  0  0  0  0
   -3.1805   21.2257   -0.1599 H   0  0  0  0  0  0  0  0  0  0  0  0
   -3.8331   19.5521   -0.1599 H   0  0  0  0  0  0  0  0  0  0  0  0
   -0.4002   16.2957   -2.0012 H   0  0  0  0  0  0  0  0  0  0  0  0
   -0.1460   16.2681   -4.4016 H   0  0  0  0  0  0  0  0  0  0  0  0
    1.5587   16.7598   -4.3043 H   0  0  0  0  0  0  0  0  0  0  0  0
    0.6208   14.1179   -4.8594 H   0  0  0  0  0  0  0  0  0  0  0  0
    2.2771   14.5012   -4.3978 H   0  0  0  0  0  0  0  0  0  0  0  0
   -0.9070   13.5567   -1.6462 H   0  0  0  0  0  0  0  0  0  0  0  0
   -1.0999   14.4341   -3.2018 H   0  0  0  0  0  0  0  0  0  0  0  0
   -0.7454   12.6731   -3.2018 H   0  0  0  0  0  0  0  0  0  0  0  0
    2.8456   13.0073   -2.5777 H   0  0  0  0  0  0  0  0  0  0  0  0
    1.3237   11.8626   -4.3121 H   0  0  0  0  0  0  0  0  0  0  0  0
    2.5294   10.8925   -3.3155 H   0  0  0  0  0  0  0  0  0  0  0  0
    0.1526    9.8060   -3.6502 H   0  0  0  0  0  0  0  0  0  0  0  0
   -0.2873   12.1072   -0.3627 H   0  0  0  0  0  0  0  0  0  0  0  0
    1.4703    9.7570    0.5773 H   0  0  0  0  0  0  0  0  0  0  0  0
    0.9053   11.1672    1.5785 H   0  0  0  0  0  0  0  0  0  0  0  0
   -0.4090    9.1182    2.0221 H   0  0  0  0  0  0  0  0  0  0  0  0
   -1.4035   10.4585    1.3287 H   0  0  0  0  0  0  0  0  0  0  0  0
   -2.0359    8.4009    0.2693 H   0  0  0  0  0  0  0  0  0  0  0  0
   -0.3830    7.2170   -0.9160 H   0  0  0  0  0  0  0  0  0  0  0  0
   -2.7517   10.6578   -0.2002 H   0  0  0  0  0  0  0  0  0  0  0  0
   -2.3004   11.4402   -1.7528 H   0  0  0  0  0  0  0  0  0  0  0  0
   -3.3589    9.9890   -1.7528 H   0  0  0  0  0  0  0  0  0  0  0  0
   -1.8594    7.5644   -1.9721 H   0  0  0  0  0  0  0  0  0  0  0  0
   -2.4051    8.8729   -3.0752 H   0  0  0  0  0  0  0  0  0  0  0  0
   -0.6843    8.3574   -3.0752 H   0  0  0  0  0  0  0  0  0  0  0  0
    3.2187   11.2912    0.4893 H   0  0  0  0  0  0  0  0  0  0  0  0
    2.9566   10.3923   -1.0437 H   0  0  0  0  0  0  0  0  0  0  0  0
    3.9262   11.9045   -1.0437 H   0  0  0  0  0  0  0  0  0  0  0  0
    1.4000   13.1209    1.0856 H   0  0  0  0  0  0  0  0  0  0  0  0
    2.8786   13.7449    0.1586 H   0  0  0  0  0  0  0  0  0  0  0  0
   -0.0217   14.5287   -0.2438 H   0  0  0  0  0  0  0  0  0  0  0  0
    1.3486   15.5432    0.3564 H   0  0  0  0  0  0  0  0  0  0  0  0
    3.3291   15.5258   -0.7641 H   0  0  0  0  0  0  0  0  0  0  0  0
    3.4816   14.6397   -2.3192 H   0  0  0  0  0  0  0  0  0  0  0  0
    3.0952   16.3940   -2.3192 H   0  0  0  0  0  0  0  0  0  0  0  0
  1  2  1  0
  2  3  1  0
  3  4  1  0
  4  5  1  0
  5  6  1  0
  6  7  1  0
  7  8  1  0
  7  9  1  0
  2 10  1  0
 10 11  1  0
 11 12  1  0
 12 13  1  0
 13 14  1  6
 13 15  1  0
 15 16  1  0
 16 17  1  0
 17 18  2  0
 18 19  1  0
 19 20  1  0
 20 21  1  0
 21 22  1  0
 22 23  1  0
 22 24  1  0
 24 25  1  0
 24 26  1  0
 19 27  1  0
 27 28  1  1
 27 29  1  0
 29 30  1  0
 30 31  1  0
 31 32  1  1
  7  5  1  0
 31 10  1  0
 31 13  1  0
 27 15  1  0
 24 18  1  0
  1 33  1  0
  1 34  1  0
  1 35  1  0
  2 36  1  6
  3 37  1  0
  3 38  1  0
  4 39  1  0
  4 40  1  0
  5 41  1  1
  8 42  1  0
  8 43  1  0
  8 44  1  0
  9 45  1  0
  9 46  1  0
  9 47  1  0
 10 48  1  6
 11 49  1  0
 11 50  1  0
 12 51  1  0
 12 52  1  0
 14 53  1  0
 14 54  1  0
 14 55  1  0
 15 56  1  6
 16 57  1  0
 16 58  1  0
 17 59  1  0
 19 60  1  1
 20 61  1  0
 20 62  1  0
 21 63  1  0
 21 64  1  0
 22 65  1  1
 23 66  1  0
 25 67  1  0
 25 68  1  0
 25 69  1  0
 26 70  1  0
 26 71  1  0
 26 72  1  0
 28 73  1  0
 28 74  1  0
 28 75  1  0
 29 76  1  0
 29 77  1  0
 30 78  1  0
 30 79  1  0
 32 80  1  0
 32 81  1  0
 32 82  1  0
M  END
>  <meeko>  (2) 
{"is_sidechain": [false], "intermolecular_energy": 2.731, "internal_energy": -0.839}

$$$$
EPH_relaxed_0001_pdb2pqr_Repair_362_r2_0001_out
     RDKit          3D

 82 86  0  0  0  0  0  0  0  0999 V2000
    4.1990   17.5830   -0.0680 C   0  0  0  0  0  0  0  0  0  0  0  0
    2.7860   18.1700   -0.1180 C   0  0  2  0  0  0  0  0  0  0  0  0
    2.5080   19.1150    1.0680 C   0  0  0  0  0  0  0  0  0  0  0  0
    3.7510   19.8560    1.5690 C   0  0  0  0  0  0  0  0  0  0  0  0
    4.2610   19.2770    2.8540 C   0  0  2  0  0  0  0  0  0  0  0  0
    4.9970   20.1940    3.6740 O   0  0  0  0  0  0  0  0  0  0  0  0
    5.7350   19.0760    3.1550 C   0  0  0  0  0  0  0  0  0  0  0  0
    6.7910   19.4510    2.1630 C   0  0  0  0  0  0  0  0  0  0  0  0
    6.1220   18.0730    4.1960 C   0  0  0  0  0  0  0  0  0  0  0  0
    1.7570   17.0460   -0.1400 C   0  0  1  0  0  0  0  0  0  0  0  0
    0.3290   17.5490   -0.4810 C   0  0  0  0  0  0  0  0  0  0  0  0
   -0.3540   16.4310   -1.3100 C   0  0  0  0  0  0  0  0  0  0  0  0
    0.5670   15.2010   -1.1380 C   0  0  1  0  0  0  0  0  0  0  0  0
    0.1700   14.5930    0.2440 C   0  0  0  0  0  0  0  0  0  0  0  0
    0.5110   14.1310   -2.2770 C   0  0  2  0  0  0  0  0  0  0  0  0
   -0.8540   13.4460   -2.4620 C   0  0  0  0  0  0  0  0  0  0  0  0
   -1.0550   12.1990   -1.6650 C   0  0  0  0  0  0  0  0  0  0  0  0
   -0.0820   11.4950   -1.0560 C   0  0  0  0  0  0  0  0  0  0  0  0
    1.3920   11.8850   -1.2180 C   0  0  1  0  0  0  0  0  0  0  0  0
    2.2330   10.6180   -1.5250 C   0  0  0  0  0  0  0  0  0  0  0  0
    2.0310    9.5170   -0.4890 C   0  0  0  0  0  0  0  0  0  0  0  0
    0.5610    9.1160   -0.3980 C   0  0  2  0  0  0  0  0  0  0  0  0
    0.1770    8.4920   -1.6280 O   0  0  0  0  0  0  0  0  0  0  0  0
   -0.3840   10.3130   -0.1020 C   0  0  0  0  0  0  0  0  0  0  0  0
   -0.1700   10.7980    1.3540 C   0  0  0  0  0  0  0  0  0  0  0  0
   -1.8460    9.7980   -0.1770 C   0  0  0  0  0  0  0  0  0  0  0  0
    1.6880   13.0740   -2.2320 C   0  0  1  0  0  0  0  0  0  0  0  0
    1.8390   12.5130   -3.6790 C   0  0  0  0  0  0  0  0  0  0  0  0
    3.0700   13.7320   -1.8630 C   0  0  0  0  0  0  0  0  0  0  0  0
    3.0440   14.8640   -0.8190 C   0  0  0  0  0  0  0  0  0  0  0  0
    1.9730   15.9040   -1.1640 C   0  0  2  0  0  0  0  0  0  0  0  0
    2.3580   16.5490   -2.5390 C   0  0  0  0  0  0  0  0  0  0  0  0
    4.5061   17.4554    0.9805 H   0  0  0  0  0  0  0  0  0  0  0  0
    4.2085   16.6065   -0.5743 H   0  0  0  0  0  0  0  0  0  0  0  0
    4.8976   18.2653   -0.5743 H   0  0  0  0  0  0  0  0  0  0  0  0
    2.7070   18.7647   -1.0400 H   0  0  0  0  0  0  0  0  0  0  0  0
    1.7636   19.8603    0.7511 H   0  0  0  0  0  0  0  0  0  0  0  0
    2.1491   18.4905    1.8994 H   0  0  0  0  0  0  0  0  0  0  0  0
    4.5408   19.7832    0.8069 H   0  0  0  0  0  0  0  0  0  0  0  0
    3.4747   20.9050    1.7513 H   0  0  0  0  0  0  0  0  0  0  0  0
    3.3956   18.6012    2.9198 H   0  0  0  0  0  0  0  0  0  0  0  0
    7.6975   19.7729    2.6965 H   0  0  0  0  0  0  0  0  0  0  0  0
    7.0264   18.5815    1.5317 H   0  0  0  0  0  0  0  0  0  0  0  0
    6.4253   20.2742    1.5317 H   0  0  0  0  0  0  0  0  0  0  0  0
    5.9571   18.5003    5.1961 H   0  0  0  0  0  0  0  0  0  0  0  0
    5.5087   17.1674    4.0785 H   0  0  0  0  0  0  0  0  0  0  0  0
    7.1846   17.8140    4.0785 H   0  0  0  0  0  0  0  0  0  0  0  0
    1.8817   16.6628    0.8835 H   0  0  0  0  0  0  0  0  0  0  0  0
   -0.2377   17.7349    0.4433 H   0  0  0  0  0  0  0  0  0  0  0  0
    0.3673   18.4919   -1.0462 H   0  0  0  0  0  0  0  0  0  0  0  0
   -1.3611   16.2195   -0.9215 H   0  0  0  0  0  0  0  0  0  0  0  0
   -0.4814   16.7127   -2.3656 H   0  0  0  0  0  0  0  0  0  0  0  0
    0.5787   15.2189    1.0510 H   0  0  0  0  0  0  0  0  0  0  0  0
   -0.9262   14.5569    0.3274 H   0  0  0  0  0  0  0  0  0  0  0  0
    0.5778   13.5748    0.3274 H   0  0  0  0  0  0  0  0  0  0  0  0
    0.6639   14.7397   -3.1804 H   0  0  0  0  0  0  0  0  0  0  0  0
   -1.6363   14.1635   -2.1736 H   0  0  0  0  0  0  0  0  0  0  0  0
   -0.9019   13.1431   -3.5184 H   0  0  0  0  0  0  0  0  0  0  0  0
   -2.0845   11.8241   -1.5673 H   0  0  0  0  0  0  0  0  0  0  0  0
    1.7004   12.3128   -0.2527 H   0  0  0  0  0  0  0  0  0  0  0  0
    1.9404   10.2312   -2.5123 H   0  0  0  0  0  0  0  0  0  0  0  0
    3.2939   10.9077   -1.5020 H   0  0  0  0  0  0  0  0  0  0  0  0
    2.6266    8.6382   -0.7769 H   0  0  0  0  0  0  0  0  0  0  0  0
    2.3529    9.8953    0.4924 H   0  0  0  0  0  0  0  0  0  0  0  0
    0.4604    8.4213    0.4489 H   0  0  0  0  0  0  0  0  0  0  0  0
   -0.1980    9.1810   -2.2020 H   0  0  0  0  0  0  0  0  0  0  0  0
   -0.5128   10.0212    2.0533 H   0  0  0  0  0  0  0  0  0  0  0  0
    0.8990   10.9960    1.5211 H   0  0  0  0  0  0  0  0  0  0  0  0
   -0.7444   11.7211    1.5211 H   0  0  0  0  0  0  0  0  0  0  0  0
   -2.2387    9.6597    0.8412 H   0  0  0  0  0  0  0  0  0  0  0  0
   -2.4662   10.5318   -0.7127 H   0  0  0  0  0  0  0  0  0  0  0  0
   -1.8694    8.8375   -0.7127 H   0  0  0  0  0  0  0  0  0  0  0  0
    2.1247   11.4517   -3.6329 H   0  0  0  0  0  0  0  0  0  0  0  0
    0.8822   12.6123   -4.2125 H   0  0  0  0  0  0  0  0  0  0  0  0
    2.6167   13.0792   -4.2125 H   0  0  0  0  0  0  0  0  0  0  0  0
    3.7241   12.9370   -1.4755 H   0  0  0  0  0  0  0  0  0  0  0  0
    3.4202   14.2055   -2.7920 H   0  0  0  0  0  0  0  0  0  0  0  0
    2.8245   14.4361    0.1703 H   0  0  0  0  0  0  0  0  0  0  0  0
    4.0259   15.3599   -0.8149 H   0  0  0  0  0  0  0  0  0  0  0  0
    2.9146   17.4814   -2.3636 H   0  0  0  0  0  0  0  0  0  0  0  0
    2.9861   15.8489   -3.1094 H   0  0  0  0  0  0  0  0  0  0  0  0
    1.4437   16.7695   -3.1094 H   0  0  0  0  0  0  0  0  0  0  0  0
  1  2  1  0
  2  3  1  0
  3  4  1  0
  4  5  1  0
  5  6  1  0
  6  7  1  0
  7  8  1  0
  7  9  1  0
  2 10  1  0
 10 11  1  0
 11 12  1  0
 12 13  1  0
 13 14  1  1
 13 15  1  0
 15 16  1  0
 16 17  1  0
 17 18  2  0
 18 19  1  0
 19 20  1  0
 20 21  1  0
 21 22  1  0
 22 23  1  0
 22 24  1  0
 24 25  1  0
 24 26  1  0
 19 27  1  0
 27 28  1  6
 27 29  1  0
 29 30  1  0
 30 31  1  0
 31 32  1  6
  7  5  1  0
 31 10  1  0
 31 13  1  0
 27 15  1  0
 24 18  1  0
  1 33  1  0
  1 34  1  0
  1 35  1  0
  2 36  1  6
  3 37  1  0
  3 38  1  0
  4 39  1  0
  4 40  1  0
  5 41  1  1
  8 42  1  0
  8 43  1  0
  8 44  1  0
  9 45  1  0
  9 46  1  0
  9 47  1  0
 10 48  1  1
 11 49  1  0
 11 50  1  0
 12 51  1  0
 12 52  1  0
 14 53  1  0
 14 54  1  0
 14 55  1  0
 15 56  1  6
 16 57  1  0
 16 58  1  0
 17 59  1  0
 19 60  1  1
 20 61  1  0
 20 62  1  0
 21 63  1  0
 21 64  1  0
 22 65  1  1
 23 66  1  0
 25 67  1  0
 25 68  1  0
 25 69  1  0
 26 70  1  0
 26 71  1  0
 26 72  1  0
 28 73  1  0
 28 74  1  0
 28 75  1  0
 29 76  1  0
 29 77  1  0
 30 78  1  0
 30 79  1  0
 32 80  1  0
 32 81  1  0
 32 82  1  0
M  END
>  <meeko>  (3) 
{"is_sidechain": [false], "intermolecular_energy": 2.731, "internal_energy": -0.839}

$$$$
EPH_relaxed_0001_pdb2pqr_Repair_362_r2_0001_out
     RDKit          3D

 82 86  0  0  0  0  0  0  0  0999 V2000
    0.4090   18.4290   -0.0710 C   0  0  0  0  0  0  0  0  0  0  0  0
    1.4900   17.3620   -0.2590 C   0  0  2  0  0  0  0  0  0  0  0  0
    2.7200   17.9080   -1.0120 C   0  0  0  0  0  0  0  0  0  0  0  0
    3.9520   18.0980   -0.1220 C   0  0  0  0  0  0  0  0  0  0  0  0
    3.5770   18.5760    1.2480 C   0  0  2  0  0  0  0  0  0  0  0  0
    3.7990   19.9740    1.4760 O   0  0  0  0  0  0  0  0  0  0  0  0
    4.5870   19.0700    2.2670 C   0  0  0  0  0  0  0  0  0  0  0  0
    6.0510   19.1090    1.9590 C   0  0  0  0  0  0  0  0  0  0  0  0
    4.2100   19.0520    3.7160 C   0  0  0  0  0  0  0  0  0  0  0  0
    0.9140   16.1640   -1.0050 C   0  0  1  0  0  0  0  0  0  0  0  0
    0.7820   16.4160   -2.5300 C   0  0  0  0  0  0  0  0  0  0  0  0
    1.0690   15.0640   -3.2330 C   0  0  0  0  0  0  0  0  0  0  0  0
    1.0270   14.0160   -2.0960 C   0  0  1  0  0  0  0  0  0  0  0  0
   -0.4900   13.7240   -1.8760 C   0  0  0  0  0  0  0  0  0  0  0  0
    1.8390   12.7020   -2.3370 C   0  0  2  0  0  0  0  0  0  0  0  0
    1.3660   11.8520   -3.5290 C   0  0  0  0  0  0  0  0  0  0  0  0
    0.3340   10.8230   -3.2090 C   0  0  0  0  0  0  0  0  0  0  0  0
    0.0130   10.3950   -1.9730 C   0  0  0  0  0  0  0  0  0  0  0  0
    0.7870   10.8870   -0.7440 C   0  0  1  0  0  0  0  0  0  0  0  0
    1.1430    9.6790    0.1620 C   0  0  0  0  0  0  0  0  0  0  0  0
   -0.0810    8.8480    0.5370 C   0  0  0  0  0  0  0  0  0  0  0  0
   -0.7900    8.3280   -0.7110 C   0  0  2  0  0  0  0  0  0  0  0  0
    0.0650    7.3880   -1.3680 O   0  0  0  0  0  0  0  0  0  0  0  0
   -1.1880    9.4560   -1.7040 C   0  0  0  0  0  0  0  0  0  0  0  0
   -2.3380   10.2990   -1.1000 C   0  0  0  0  0  0  0  0  0  0  0  0
   -1.7650    8.7860   -2.9800 C   0  0  0  0  0  0  0  0  0  0  0  0
    2.0400   11.8180   -1.0400 C   0  0  1  0  0  0  0  0  0  0  0  0
    3.3060   10.9420   -1.2910 C   0  0  0  0  0  0  0  0  0  0  0  0
    2.3480   12.6880    0.2360 C   0  0  0  0  0  0  0  0  0  0  0  0
    1.6030   14.0310    0.3570 C   0  0  0  0  0  0  0  0  0  0  0  0
    1.7100   14.8360   -0.9420 C   0  0  2  0  0  0  0  0  0  0  0  0
    3.2240   15.1650   -1.1780 C   0  0  0  0  0  0  0  0  0  0  0  0
    0.2407   18.5951    1.0033 H   0  0  0  0  0  0  0  0  0  0  0  0
    0.7356   19.3686   -0.5406 H   0  0  0  0  0  0  0  0  0  0  0  0
   -0.5262   18.0902   -0.5406 H   0  0  0  0  0  0  0  0  0  0  0  0
    1.8254   17.0515    0.7415 H   0  0  0  0  0  0  0  0  0  0  0  0
    2.9773   17.2018   -1.8152 H   0  0  0  0  0  0  0  0  0  0  0  0
    2.4460   18.9009   -1.3982 H   0  0  0  0  0  0  0  0  0  0  0  0
    4.4789   17.1366   -0.0324 H   0  0  0  0  0  0  0  0  0  0  0  0
    4.5967   18.8587   -0.5863 H   0  0  0  0  0  0  0  0  0  0  0  0
    2.7676   17.8338    1.3112 H   0  0  0  0  0  0  0  0  0  0  0  0
    6.6231   19.1242    2.8984 H   0  0  0  0  0  0  0  0  0  0  0  0
    6.3269   18.2179    1.3761 H   0  0  0  0  0  0  0  0  0  0  0  0
    6.2791   20.0135    1.3761 H   0  0  0  0  0  0  0  0  0  0  0  0
    5.1201   19.0955    4.3322 H   0  0  0  0  0  0  0  0  0  0  0  0
    3.5736   19.9208    3.9401 H   0  0  0  0  0  0  0  0  0  0  0  0
    3.6593   18.1265    3.9401 H   0  0  0  0  0  0  0  0  0  0  0  0
   -0.0404   16.0559   -0.4689 H   0  0  0  0  0  0  0  0  0  0  0  0
   -0.2348   16.7598   -2.7706 H   0  0  0  0  0  0  0  0  0  0  0  0
    1.4857   17.1925   -2.8645 H   0  0  0  0  0  0  0  0  0  0  0  0
    0.2993   14.8482   -3.9886 H   0  0  0  0  0  0  0  0  0  0  0  0
    2.0329   15.0659   -3.7630 H   0  0  0  0  0  0  0  0  0  0  0  0
   -0.7029   13.6830   -0.7976 H   0  0  0  0  0  0  0  0  0  0  0  0
   -1.0880   14.5235   -2.3377 H   0  0  0  0  0  0  0  0  0  0  0  0
   -0.7485   12.7596   -2.3377 H   0  0  0  0  0  0  0  0  0  0  0  0
    2.8307   13.0855   -2.6190 H   0  0  0  0  0  0  0  0  0  0  0  0
    0.9455   12.5313   -4.2851 H   0  0  0  0  0  0  0  0  0  0  0  0
    2.2502   11.2979   -3.8772 H   0  0  0  0  0  0  0  0  0  0  0  0
   -0.2106   10.3763   -4.0539 H   0  0  0  0  0  0  0  0  0  0  0  0
    0.1073   11.5669   -0.2094 H   0  0  0  0  0  0  0  0  0  0  0  0
    1.8561    9.0348   -0.3733 H   0  0  0  0  0  0  0  0  0  0  0  0
    1.5753   10.0755    1.0926 H   0  0  0  0  0  0  0  0  0  0  0  0
    0.2384    7.9937    1.1520 H   0  0  0  0  0  0  0  0  0  0  0  0
   -0.7800    9.4856    1.0982 H   0  0  0  0  0  0  0  0  0  0  0  0
   -1.7268    7.8526   -0.3850 H   0  0  0  0  0  0  0  0  0  0  0  0
    0.3370    6.7270   -0.7100 H   0  0  0  0  0  0  0  0  0  0  0  0
   -2.2841   10.2595   -0.0020 H   0  0  0  0  0  0  0  0  0  0  0  0
   -2.2424   11.3426   -1.4345 H   0  0  0  0  0  0  0  0  0  0  0  0
   -3.3044    9.8938   -1.4345 H   0  0  0  0  0  0  0  0  0  0  0  0
   -2.4575    7.9818   -2.6907 H   0  0  0  0  0  0  0  0  0  0  0  0
   -2.3037    9.5368   -3.5767 H   0  0  0  0  0  0  0  0  0  0  0  0
   -0.9426    8.3646   -3.5767 H   0  0  0  0  0  0  0  0  0  0  0  0
    3.7408   10.6411   -0.3264 H   0  0  0  0  0  0  0  0  0  0  0  0
    3.0239   10.0450   -1.8618 H   0  0  0  0  0  0  0  0  0  0  0  0
    4.0460   11.5221   -1.8618 H   0  0  0  0  0  0  0  0  0  0  0  0
    2.0925   12.0848    1.1197 H   0  0  0  0  0  0  0  0  0  0  0  0
    3.4118   12.9553    0.1524 H   0  0  0  0  0  0  0  0  0  0  0  0
    0.5422   13.8359    0.5732 H   0  0  0  0  0  0  0  0  0  0  0  0
    2.0605   14.6141    1.1698 H   0  0  0  0  0  0  0  0  0  0  0  0
    3.7308   15.2751   -0.2079 H   0  0  0  0  0  0  0  0  0  0  0  0
    3.6926   14.3477   -1.7458 H   0  0  0  0  0  0  0  0  0  0  0  0
    3.3112   16.1031   -1.7458 H   0  0  0  0  0  0  0  0  0  0  0  0
  1  2  1  0
  2  3  1  0
  3  4  1  0
  4  5  1  0
  5  6  1  0
  6  7  1  0
  7  8  1  0
  7  9  1  0
  2 10  1  0
 10 11  1  0
 11 12  1  0
 12 13  1  0
 13 14  1  1
 13 15  1  0
 15 16  1  0
 16 17  1  0
 17 18  2  0
 18 19  1  0
 19 20  1  0
 20 21  1  0
 21 22  1  0
 22 23  1  0
 22 24  1  0
 24 25  1  0
 24 26  1  0
 19 27  1  0
 27 28  1  6
 27 29  1  0
 29 30  1  0
 30 31  1  0
 31 32  1  6
  7  5  1  0
 31 10  1  0
 31 13  1  0
 27 15  1  0
 24 18  1  0
  1 33  1  0
  1 34  1  0
  1 35  1  0
  2 36  1  1
  3 37  1  0
  3 38  1  0
  4 39  1  0
  4 40  1  0
  5 41  1  1
  8 42  1  0
  8 43  1  0
  8 44  1  0
  9 45  1  0
  9 46  1  0
  9 47  1  0
 10 48  1  1
 11 49  1  0
 11 50  1  0
 12 51  1  0
 12 52  1  0
 14 53  1  0
 14 54  1  0
 14 55  1  0
 15 56  1  6
 16 57  1  0
 16 58  1  0
 17 59  1  0
 19 60  1  1
 20 61  1  0
 20 62  1  0
 21 63  1  0
 21 64  1  0
 22 65  1  1
 23 66  1  0
 25 67  1  0
 25 68  1  0
 25 69  1  0
 26 70  1  0
 26 71  1  0
 26 72  1  0
 28 73  1  0
 28 74  1  0
 28 75  1  0
 29 76  1  0
 29 77  1  0
 30 78  1  0
 30 79  1  0
 32 80  1  0
 32 81  1  0
 32 82  1  0
M  END
>  <meeko>  (4) 
{"is_sidechain": [false], "intermolecular_energy": 2.731, "internal_energy": -0.839}

$$$$
EPH_relaxed_0001_pdb2pqr_Repair_362_r2_0001_out
     RDKit          3D

 82 86  0  0  0  0  0  0  0  0999 V2000
    2.2360   18.1130   -2.6800 C   0  0  0  0  0  0  0  0  0  0  0  0
    0.9520   17.7200   -1.9450 C   0  0  2  0  0  0  0  0  0  0  0  0
    1.1190   17.7760   -0.4130 C   0  0  0  0  0  0  0  0  0  0  0  0
    2.5370   18.1360    0.0380 C   0  0  0  0  0  0  0  0  0  0  0  0
    2.5320   19.2400    1.0520 C   0  0  2  0  0  0  0  0  0  0  0  0
    3.5910   20.1940    0.9040 O   0  0  0  0  0  0  0  0  0  0  0  0
    3.6080   19.4110    2.1080 C   0  0  0  0  0  0  0  0  0  0  0  0
    4.7640   18.4660    2.2040 C   0  0  0  0  0  0  0  0  0  0  0  0
    3.2820   20.1940    3.3420 C   0  0  0  0  0  0  0  0  0  0  0  0
    0.5160   16.3230   -2.3710 C   0  0  1  0  0  0  0  0  0  0  0  0
    0.5750   16.1210   -3.9090 C   0  0  0  0  0  0  0  0  0  0  0  0
    0.9950   14.6490   -4.1510 C   0  0  0  0  0  0  0  0  0  0  0  0
    0.8410   13.9670   -2.7720 C   0  0  1  0  0  0  0  0  0  0  0  0
   -0.6820   13.6450   -2.6510 C   0  0  0  0  0  0  0  0  0  0  0  0
    1.7210   12.6980   -2.5260 C   0  0  2  0  0  0  0  0  0  0  0  0
    1.4340   11.5140   -3.4660 C   0  0  0  0  0  0  0  0  0  0  0  0
    0.4040   10.5490   -2.9800 C   0  0  0  0  0  0  0  0  0  0  0  0
   -0.0590   10.4680   -1.7190 C   0  0  0  0  0  0  0  0  0  0  0  0
    0.5320   11.3420   -0.6050 C   0  0  1  0  0  0  0  0  0  0  0  0
    0.8080   10.4690    0.6470 C   0  0  0  0  0  0  0  0  0  0  0  0
   -0.4260    9.6960    1.1040 C   0  0  0  0  0  0  0  0  0  0  0  0
   -0.9500    8.7950   -0.0110 C   0  0  2  0  0  0  0  0  0  0  0  0
    0.0140    7.7680   -0.2650 O   0  0  0  0  0  0  0  0  0  0  0  0
   -1.2540    9.5640   -1.3280 C   0  0  0  0  0  0  0  0  0  0  0  0
   -2.5000   10.4620   -1.1300 C   0  0  0  0  0  0  0  0  0  0  0  0
   -1.6390    8.5210   -2.4110 C   0  0  0  0  0  0  0  0  0  0  0  0
    1.7820   12.2340   -1.0140 C   0  0  1  0  0  0  0  0  0  0  0  0
    3.0970   11.4130   -0.8530 C   0  0  0  0  0  0  0  0  0  0  0  0
    1.8930   13.4500   -0.0200 C   0  0  0  0  0  0  0  0  0  0  0  0
    1.0950   14.7170   -0.3800 C   0  0  0  0  0  0  0  0  0  0  0  0
    1.3420   15.1260   -1.8350 C   0  0  2  0  0  0  0  0  0  0  0  0
    2.8610   15.4780   -1.9820 C   0  0  0  0  0  0  0  0  0  0  0  0
    3.0197   18.3529   -1.9463 H   0  0  0  0  0  0  0  0  0  0  0  0
    2.5683   17.2754   -3.3109 H   0  0  0  0  0  0  0  0  0  0  0  0
    2.0426   18.9931   -3.3109 H   0  0  0  0  0  0  0  0  0  0  0  0
    0.1770   18.4510   -2.2191 H   0  0  0  0  0  0  0  0  0  0  0  0
    0.4256   18.5317   -0.0153 H   0  0  0  0  0  0  0  0  0  0  0  0
    0.9055   16.7676   -0.0290 H   0  0  0  0  0  0  0  0  0  0  0  0
    3.0067   17.2460    0.4821 H   0  0  0  0  0  0  0  0  0  0  0  0
    3.0999   18.4807   -0.8419 H   0  0  0  0  0  0  0  0  0  0  0  0
    1.4343   19.2083    1.1153 H   0  0  0  0  0  0  0  0  0  0  0  0
    4.9958   18.2765    3.2625 H   0  0  0  0  0  0  0  0  0  0  0  0
    4.5046   17.5180    1.7100 H   0  0  0  0  0  0  0  0  0  0  0  0
    5.6415   18.9087    1.7100 H   0  0  0  0  0  0  0  0  0  0  0  0
    3.5307   19.5967    4.2316 H   0  0  0  0  0  0  0  0  0  0  0  0
    3.8671   21.1255    3.3505 H   0  0  0  0  0  0  0  0  0  0  0  0
    2.2088   20.4350    3.3505 H   0  0  0  0  0  0  0  0  0  0  0  0
   -0.4957   16.3063   -1.9395 H   0  0  0  0  0  0  0  0  0  0  0  0
   -0.4128   16.3111   -4.3542 H   0  0  0  0  0  0  0  0  0  0  0  0
    1.2904   16.8169   -4.3715 H   0  0  0  0  0  0  0  0  0  0  0  0
    0.3372   14.1748   -4.8942 H   0  0  0  0  0  0  0  0  0  0  0  0
    2.0189   14.5670   -4.5446 H   0  0  0  0  0  0  0  0  0  0  0  0
   -0.9610   13.5860   -1.5886 H   0  0  0  0  0  0  0  0  0  0  0  0
   -1.2648   14.4398   -3.1396 H   0  0  0  0  0  0  0  0  0  0  0  0
   -0.8932   12.6823   -3.1396 H   0  0  0  0  0  0  0  0  0  0  0  0
    2.7276   13.0536   -2.7910 H   0  0  0  0  0  0  0  0  0  0  0  0
    1.0916   11.9200   -4.4293 H   0  0  0  0  0  0  0  0  0  0  0  0
    2.3737   10.9464   -3.5361 H   0  0  0  0  0  0  0  0  0  0  0  0
   -0.0119    9.8442   -3.7151 H   0  0  0  0  0  0  0  0  0  0  0  0
   -0.2336   12.0968   -0.3721 H   0  0  0  0  0  0  0  0  0  0  0  0
    1.6056    9.7504    0.4072 H   0  0  0  0  0  0  0  0  0  0  0  0
    1.1028   11.1422    1.4655 H   0  0  0  0  0  0  0  0  0  0  0  0
   -0.1608    9.0760    1.9730 H   0  0  0  0  0  0  0  0  0  0  0  0
   -1.2126   10.4170    1.3712 H   0  0  0  0  0  0  0  0  0  0  0  0
   -1.9046    8.3682    0.3305 H   0  0  0  0  0  0  0  0  0  0  0  0
    0.8640    8.2020   -0.4490 H   0  0  0  0  0  0  0  0  0  0  0  0
   -2.6874   10.5971   -0.0545 H   0  0  0  0  0  0  0  0  0  0  0  0
   -2.3237   11.4420   -1.5974 H   0  0  0  0  0  0  0  0  0  0  0  0
   -3.3739    9.9848   -1.5974 H   0  0  0  0  0  0  0  0  0  0  0  0
   -1.9805    7.5957   -1.9240 H   0  0  0  0  0  0  0  0  0  0  0  0
   -2.4472    8.9251   -3.0383 H   0  0  0  0  0  0  0  0  0  0  0  0
   -0.7621    8.3030   -3.0383 H   0  0  0  0  0  0  0  0  0  0  0  0
    3.3155   11.2766    0.2164 H   0  0  0  0  0  0  0  0  0  0  0  0
    2.9761   10.4296   -1.3309 H   0  0  0  0  0  0  0  0  0  0  0  0
    3.9275   11.9533   -1.3309 H   0  0  0  0  0  0  0  0  0  0  0  0
    1.5454   13.1068    0.9656 H   0  0  0  0  0  0  0  0  0  0  0  0
    2.9491   13.7554   -0.0561 H   0  0  0  0  0  0  0  0  0  0  0  0
    0.0222   14.5186   -0.2392 H   0  0  0  0  0  0  0  0  0  0  0  0
    1.4245   15.5368    0.2753 H   0  0  0  0  0  0  0  0  0  0  0  0
    3.3114   15.5824   -0.9839 H   0  0  0  0  0  0  0  0  0  0  0  0
    3.3720   14.6745   -2.5327 H   0  0  0  0  0  0  0  0  0  0  0  0
    2.9665   16.4244   -2.5327 H   0  0  0  0  0  0  0  0  0  0  0  0
  1  2  1  0
  2  3  1  0
  3  4  1  0
  4  5  1  0
  5  6  1  0
  6  7  1  0
  7  8  1  0
  7  9  1  0
  2 10  1  0
 10 11  1  0
 11 12  1  0
 12 13  1  0
 13 14  1  1
 13 15  1  0
 15 16  1  0
 16 17  1  0
 17 18  2  0
 18 19  1  0
 19 20  1  0
 20 21  1  0
 21 22  1  0
 22 23  1  0
 22 24  1  0
 24 25  1  0
 24 26  1  0
 19 27  1  0
 27 28  1  6
 27 29  1  0
 29 30  1  0
 30 31  1  0
 31 32  1  1
  7  5  1  0
 31 10  1  0
 31 13  1  0
 27 15  1  0
 24 18  1  0
  1 33  1  0
  1 34  1  0
  1 35  1  0
  2 36  1  6
  3 37  1  0
  3 38  1  0
  4 39  1  0
  4 40  1  0
  5 41  1  1
  8 42  1  0
  8 43  1  0
  8 44  1  0
  9 45  1  0
  9 46  1  0
  9 47  1  0
 10 48  1  1
 11 49  1  0
 11 50  1  0
 12 51  1  0
 12 52  1  0
 14 53  1  0
 14 54  1  0
 14 55  1  0
 15 56  1  6
 16 57  1  0
 16 58  1  0
 17 59  1  0
 19 60  1  1
 20 61  1  0
 20 62  1  0
 21 63  1  0
 21 64  1  0
 22 65  1  1
 23 66  1  0
 25 67  1  0
 25 68  1  0
 25 69  1  0
 26 70  1  0
 26 71  1  0
 26 72  1  0
 28 73  1  0
 28 74  1  0
 28 75  1  0
 29 76  1  0
 29 77  1  0
 30 78  1  0
 30 79  1  0
 32 80  1  0
 32 81  1  0
 32 82  1  0
M  END
>  <meeko>  (5) 
{"is_sidechain": [false], "intermolecular_energy": 2.731, "internal_energy": -0.839}

$$$$
EPH_relaxed_0001_pdb2pqr_Repair_362_r2_0001_out
     RDKit          3D

 82 86  0  0  0  0  0  0  0  0999 V2000
   -4.9350    6.1830   -1.7090 C   0  0  0  0  0  0  0  0  0  0  0  0
   -5.3600    7.6520   -1.6200 C   0  0  2  0  0  0  0  0  0  0  0  0
   -5.2280    8.2090   -0.1890 C   0  0  0  0  0  0  0  0  0  0  0  0
   -4.1580    9.2950   -0.0470 C   0  0  0  0  0  0  0  0  0  0  0  0
   -2.8110    8.8070   -0.4890 C   0  0  2  0  0  0  0  0  0  0  0  0
   -1.7170    9.2560    0.3210 O   0  0  0  0  0  0  0  0  0  0  0  0
   -1.7310    9.7190   -1.0400 C   0  0  0  0  0  0  0  0  0  0  0  0
   -1.9500   11.1930   -1.1790 C   0  0  0  0  0  0  0  0  0  0  0  0
   -0.6550    9.1210   -1.8910 C   0  0  0  0  0  0  0  0  0  0  0  0
   -6.7940    7.8090   -2.1110 C   0  0  1  0  0  0  0  0  0  0  0  0
   -7.0440    7.0960   -3.4660 C   0  0  0  0  0  0  0  0  0  0  0  0
   -8.4960    6.5530   -3.4260 C   0  0  0  0  0  0  0  0  0  0  0  0
   -9.1380    7.2500   -2.2040 C   0  0  1  0  0  0  0  0  0  0  0  0
   -9.5480    8.6660   -2.7180 C   0  0  0  0  0  0  0  0  0  0  0  0
  -10.3430    6.5060   -1.5390 C   0  0  2  0  0  0  0  0  0  0  0  0
  -11.5730    6.3190   -2.4440 C   0  0  0  0  0  0  0  0  0  0  0  0
  -12.5820    7.4180   -2.3840 C   0  0  0  0  0  0  0  0  0  0  0  0
  -12.6480    8.3690   -1.4330 C   0  0  0  0  0  0  0  0  0  0  0  0
  -11.7020    8.3410   -0.2250 C   0  0  1  0  0  0  0  0  0  0  0  0
  -12.5140    8.5870    1.0740 C   0  0  0  0  0  0  0  0  0  0  0  0
  -13.3440    9.8660    1.0120 C   0  0  0  0  0  0  0  0  0  0  0  0
  -14.3120    9.8300   -0.1680 C   0  0  2  0  0  0  0  0  0  0  0  0
  -15.2870    8.8090    0.0660 O   0  0  0  0  0  0  0  0  0  0  0  0
  -13.6090    9.5790   -1.5310 C   0  0  0  0  0  0  0  0  0  0  0  0
  -12.7810   10.8260   -1.9280 C   0  0  0  0  0  0  0  0  0  0  0  0
  -14.7100    9.4250   -2.6150 C   0  0  0  0  0  0  0  0  0  0  0  0
  -10.7500    7.0730   -0.1190 C   0  0  1  0  0  0  0  0  0  0  0  0
  -11.4840    5.9170    0.6280 C   0  0  0  0  0  0  0  0  0  0  0  0
   -9.4970    7.4430    0.7600 C   0  0  0  0  0  0  0  0  0  0  0  0
   -8.2930    8.0640    0.0260 C   0  0  0  0  0  0  0  0  0  0  0  0
   -7.9200    7.2410   -1.2100 C   0  0  2  0  0  0  0  0  0  0  0  0
   -7.4820    5.8170   -0.7220 C   0  0  0  0  0  0  0  0  0  0  0  0
   -4.8165    5.7735   -0.6950 H   0  0  0  0  0  0  0  0  0  0  0  0
   -5.7044    5.6107   -2.2480 H   0  0  0  0  0  0  0  0  0  0  0  0
   -3.9789    6.1099   -2.2480 H   0  0  0  0  0  0  0  0  0  0  0  0
   -4.6819    8.2322   -2.2631 H   0  0  0  0  0  0  0  0  0  0  0  0
   -6.1973    8.6357    0.1083 H   0  0  0  0  0  0  0  0  0  0  0  0
   -4.9228    7.3711    0.4550 H   0  0  0  0  0  0  0  0  0  0  0  0
   -4.4438   10.1599   -0.6636 H   0  0  0  0  0  0  0  0  0  0  0  0
   -4.0905    9.5733    1.0151 H   0  0  0  0  0  0  0  0  0  0  0  0
   -3.2470    7.8695   -0.8646 H   0  0  0  0  0  0  0  0  0  0  0  0
   -2.0178   11.6494   -0.1804 H   0  0  0  0  0  0  0  0  0  0  0  0
   -1.1082   11.6385   -1.7294 H   0  0  0  0  0  0  0  0  0  0  0  0
   -2.8850   11.3745   -1.7294 H   0  0  0  0  0  0  0  0  0  0  0  0
    0.1241    8.6880   -1.2464 H   0  0  0  0  0  0  0  0  0  0  0  0
   -1.0854    8.3327   -2.5261 H   0  0  0  0  0  0  0  0  0  0  0  0
   -0.2128    9.9028   -2.5261 H   0  0  0  0  0  0  0  0  0  0  0  0
   -6.8571    8.9066   -2.1466 H   0  0  0  0  0  0  0  0  0  0  0  0
   -6.9291    7.8089   -4.2958 H   0  0  0  0  0  0  0  0  0  0  0  0
   -6.3221    6.2808   -3.6219 H   0  0  0  0  0  0  0  0  0  0  0  0
   -9.0340    6.8140   -4.3493 H   0  0  0  0  0  0  0  0  0  0  0  0
   -8.5299    5.4564   -3.3469 H   0  0  0  0  0  0  0  0  0  0  0  0
   -9.7393    9.3265   -1.8594 H   0  0  0  0  0  0  0  0  0  0  0  0
   -8.7341    9.0844   -3.3284 H   0  0  0  0  0  0  0  0  0  0  0  0
  -10.4595    8.5848   -3.3284 H   0  0  0  0  0  0  0  0  0  0  0  0
   -9.9371    5.4969   -1.3749 H   0  0  0  0  0  0  0  0  0  0  0  0
  -11.2212    6.2369   -3.4830 H   0  0  0  0  0  0  0  0  0  0  0  0
  -12.0846    5.4160   -2.0794 H   0  0  0  0  0  0  0  0  0  0  0  0
  -13.3354    7.4538   -3.1847 H   0  0  0  0  0  0  0  0  0  0  0  0
  -10.9869    9.1624   -0.3794 H   0  0  0  0  0  0  0  0  0  0  0  0
  -13.1910    7.7347    1.2334 H   0  0  0  0  0  0  0  0  0  0  0  0
  -11.7965    8.6944    1.9009 H   0  0  0  0  0  0  0  0  0  0  0  0
  -13.9172    9.9690    1.9452 H   0  0  0  0  0  0  0  0  0  0  0  0
  -12.6638   10.7207    0.8829 H   0  0  0  0  0  0  0  0  0  0  0  0
  -14.7837   10.8213   -0.2371 H   0  0  0  0  0  0  0  0  0  0  0  0
  -15.0690    8.3830    0.9120 H   0  0  0  0  0  0  0  0  0  0  0  0
  -12.4379   11.3427   -1.0196 H   0  0  0  0  0  0  0  0  0  0  0  0
  -11.9103   10.5137   -2.5232 H   0  0  0  0  0  0  0  0  0  0  0  0
  -13.4067   11.5073   -2.5232 H   0  0  0  0  0  0  0  0  0  0  0  0
  -15.6870    9.2883   -2.1284 H   0  0  0  0  0  0  0  0  0  0  0  0
  -14.7359   10.3283   -3.2422 H   0  0  0  0  0  0  0  0  0  0  0  0
  -14.4871    8.5493   -3.2422 H   0  0  0  0  0  0  0  0  0  0  0  0
  -11.3903    6.0645    1.7140 H   0  0  0  0  0  0  0  0  0  0  0  0
  -12.5479    5.9170    0.3484 H   0  0  0  0  0  0  0  0  0  0  0  0
  -11.0314    4.9542    0.3484 H   0  0  0  0  0  0  0  0  0  0  0  0
   -9.8273    8.1614    1.5247 H   0  0  0  0  0  0  0  0  0  0  0  0
   -9.1299    6.4847    1.1561 H   0  0  0  0  0  0  0  0  0  0  0  0
   -8.5509    9.0865   -0.2870 H   0  0  0  0  0  0  0  0  0  0  0  0
   -7.4329    8.0763    0.7116 H   0  0  0  0  0  0  0  0  0  0  0  0
   -7.4745    5.7925    0.3777 H   0  0  0  0  0  0  0  0  0  0  0  0
   -8.1906    5.0656   -1.1006 H   0  0  0  0  0  0  0  0  0  0  0  0
   -6.4736    5.5937   -1.1006 H   0  0  0  0  0  0  0  0  0  0  0  0
  1  2  1  0
  2  3  1  0
  3  4  1  0
  4  5  1  0
  5  6  1  0
  6  7  1  0
  7  8  1  0
  7  9  1  0
  2 10  1  0
 10 11  1  0
 11 12  1  0
 12 13  1  0
 13 14  1  6
 13 15  1  0
 15 16  1  0
 16 17  1  0
 17 18  2  0
 18 19  1  0
 19 20  1  0
 20 21  1  0
 21 22  1  0
 22 23  1  0
 22 24  1  0
 24 25  1  0
 24 26  1  0
 19 27  1  0
 27 28  1  1
 27 29  1  0
 29 30  1  0
 30 31  1  0
 31 32  1  1
  7  5  1  0
 31 10  1  0
 31 13  1  0
 27 15  1  0
 24 18  1  0
  1 33  1  0
  1 34  1  0
  1 35  1  0
  2 36  1  6
  3 37  1  0
  3 38  1  0
  4 39  1  0
  4 40  1  0
  5 41  1  6
  8 42  1  0
  8 43  1  0
  8 44  1  0
  9 45  1  0
  9 46  1  0
  9 47  1  0
 10 48  1  6
 11 49  1  0
 11 50  1  0
 12 51  1  0
 12 52  1  0
 14 53  1  0
 14 54  1  0
 14 55  1  0
 15 56  1  1
 16 57  1  0
 16 58  1  0
 17 59  1  0
 19 60  1  6
 20 61  1  0
 20 62  1  0
 21 63  1  0
 21 64  1  0
 22 65  1  6
 23 66  1  0
 25 67  1  0
 25 68  1  0
 25 69  1  0
 26 70  1  0
 26 71  1  0
 26 72  1  0
 28 73  1  0
 28 74  1  0
 28 75  1  0
 29 76  1  0
 29 77  1  0
 30 78  1  0
 30 79  1  0
 32 80  1  0
 32 81  1  0
 32 82  1  0
M  END
>  <meeko>  (6) 
{"is_sidechain": [false], "intermolecular_energy": 2.731, "internal_energy": -0.839}

$$$$
EPH_relaxed_0001_pdb2pqr_Repair_362_r2_0001_out
     RDKit          3D

 82 86  0  0  0  0  0  0  0  0999 V2000
    3.7320   18.2740    0.5810 C   0  0  0  0  0  0  0  0  0  0  0  0
    2.6320   18.7610   -0.3650 C   0  0  2  0  0  0  0  0  0  0  0  0
    1.8630   19.9680    0.2100 C   0  0  0  0  0  0  0  0  0  0  0  0
    0.6710   19.5760    1.0880 C   0  0  0  0  0  0  0  0  0  0  0  0
   -0.6100   20.1610    0.5750 C   0  0  2  0  0  0  0  0  0  0  0  0
   -1.6780   20.1940    1.5320 O   0  0  0  0  0  0  0  0  0  0  0  0
   -1.8810   19.3530    0.3850 C   0  0  0  0  0  0  0  0  0  0  0  0
   -1.9320   17.8920    0.7030 C   0  0  0  0  0  0  0  0  0  0  0  0
   -2.9190   19.8670   -0.5630 C   0  0  0  0  0  0  0  0  0  0  0  0
    1.6640   17.6230   -0.6660 C   0  0  1  0  0  0  0  0  0  0  0  0
    0.5800   18.0190   -1.7050 C   0  0  0  0  0  0  0  0  0  0  0  0
    0.2890   16.7540   -2.5520 C   0  0  0  0  0  0  0  0  0  0  0  0
    0.9580   15.5990   -1.7700 C   0  0  1  0  0  0  0  0  0  0  0  0
   -0.0600   15.2330   -0.6450 C   0  0  0  0  0  0  0  0  0  0  0  0
    1.3670   14.3440   -2.6080 C   0  0  2  0  0  0  0  0  0  0  0  0
    0.2000   13.5990   -3.2800 C   0  0  0  0  0  0  0  0  0  0  0  0
   -0.4130   12.5070   -2.4660 C   0  0  0  0  0  0  0  0  0  0  0  0
    0.1330   11.9490   -1.3690 C   0  0  0  0  0  0  0  0  0  0  0  0
    1.5380   12.3450   -0.9000 C   0  0  1  0  0  0  0  0  0  0  0  0
    2.3520   11.0670   -0.5680 C   0  0  0  0  0  0  0  0  0  0  0  0
    1.6380   10.1610    0.4310 C   0  0  0  0  0  0  0  0  0  0  0  0
    0.2680    9.7420   -0.0970 C   0  0  2  0  0  0  0  0  0  0  0  0
    0.4520    8.9010   -1.2400 O   0  0  0  0  0  0  0  0  0  0  0  0
   -0.6380   10.9470   -0.4750 C   0  0  0  0  0  0  0  0  0  0  0  0
   -1.0840   11.6860    0.8100 C   0  0  0  0  0  0  0  0  0  0  0  0
   -1.9320   10.3860   -1.1250 C   0  0  0  0  0  0  0  0  0  0  0  0
    2.3310   13.3440   -1.8500 C   0  0  1  0  0  0  0  0  0  0  0  0
    3.0940   12.5410   -2.9480 C   0  0  0  0  0  0  0  0  0  0  0  0
    3.4270   14.0940   -1.0050 C   0  0  0  0  0  0  0  0  0  0  0  0
    2.9930   15.3920   -0.2990 C   0  0  0  0  0  0  0  0  0  0  0  0
    2.2590   16.3240   -1.2670 C   0  0  2  0  0  0  0  0  0  0  0  0
    3.2640   16.7270   -2.3990 C   0  0  0  0  0  0  0  0  0  0  0  0
    3.4094   18.4168    1.6229 H   0  0  0  0  0  0  0  0  0  0  0  0
    3.9251   17.2063    0.4000 H   0  0  0  0  0  0  0  0  0  0  0  0
    4.6522   18.8488    0.4000 H   0  0  0  0  0  0  0  0  0  0  0  0
    3.1182   19.0918   -1.2946 H   0  0  0  0  0  0  0  0  0  0  0  0
    2.5589   20.5666    0.8161 H   0  0  0  0  0  0  0  0  0  0  0  0
    1.4612   20.5308   -0.6455 H   0  0  0  0  0  0  0  0  0  0  0  0
    0.5826   18.4796    1.1007 H   0  0  0  0  0  0  0  0  0  0  0  0
    0.8465   19.9684    2.1005 H   0  0  0  0  0  0  0  0  0  0  0  0
   -0.0607   20.8406   -0.0931 H   0  0  0  0  0  0  0  0  0  0  0  0
   -1.9368   17.7542    1.7943 H   0  0  0  0  0  0  0  0  0  0  0  0
   -2.8459   17.4551    0.2742 H   0  0  0  0  0  0  0  0  0  0  0  0
   -1.0507   17.3924    0.2742 H   0  0  0  0  0  0  0  0  0  0  0  0
   -3.7619   20.2844    0.0073 H   0  0  0  0  0  0  0  0  0  0  0  0
   -2.4804   20.6520   -1.1965 H   0  0  0  0  0  0  0  0  0  0  0  0
   -3.2775   19.0423   -1.1965 H   0  0  0  0  0  0  0  0  0  0  0  0
    1.2851   17.4298    0.3484 H   0  0  0  0  0  0  0  0  0  0  0  0
   -0.3347   18.3493   -1.1909 H   0  0  0  0  0  0  0  0  0  0  0  0
    0.9256   18.8483   -2.3397 H   0  0  0  0  0  0  0  0  0  0  0  0
   -0.7946   16.5866   -2.6405 H   0  0  0  0  0  0  0  0  0  0  0  0
    0.6745   16.8413   -3.5785 H   0  0  0  0  0  0  0  0  0  0  0  0
    0.4043   15.3999    0.3381 H   0  0  0  0  0  0  0  0  0  0  0  0
   -0.9548   15.8657   -0.7401 H   0  0  0  0  0  0  0  0  0  0  0  0
   -0.3470   14.1754   -0.7401 H   0  0  0  0  0  0  0  0  0  0  0  0
    1.9495   14.7885   -3.4284 H   0  0  0  0  0  0  0  0  0  0  0  0
   -0.5856   14.3341   -3.5091 H   0  0  0  0  0  0  0  0  0  0  0  0
    0.6224   13.1132   -4.1719 H   0  0  0  0  0  0  0  0  0  0  0  0
   -1.3930   12.1266   -2.7900 H   0  0  0  0  0  0  0  0  0  0  0  0
    1.3965   12.9451    0.0110 H   0  0  0  0  0  0  0  0  0  0  0  0
    2.5189   10.5038   -1.4980 H   0  0  0  0  0  0  0  0  0  0  0  0
    3.3008   11.3850   -0.1112 H   0  0  0  0  0  0  0  0  0  0  0  0
    2.2484    9.2621    0.6024 H   0  0  0  0  0  0  0  0  0  0  0  0
    1.4983   10.7151    1.3710 H   0  0  0  0  0  0  0  0  0  0  0  0
   -0.2472    9.2046    0.7128 H   0  0  0  0  0  0  0  0  0  0  0  0
    0.5780    7.9920   -0.9200 H   0  0  0  0  0  0  0  0  0  0  0  0
   -0.7448   11.1240    1.6927 H   0  0  0  0  0  0  0  0  0  0  0  0
   -0.6431   12.6937    0.8252 H   0  0  0  0  0  0  0  0  0  0  0  0
   -2.1810   11.7655    0.8252 H   0  0  0  0  0  0  0  0  0  0  0  0
   -2.6358   10.0809   -0.3366 H   0  0  0  0  0  0  0  0  0  0  0  0
   -2.3956   11.1639   -1.7494 H   0  0  0  0  0  0  0  0  0  0  0  0
   -1.6811    9.5158   -1.7494 H   0  0  0  0  0  0  0  0  0  0  0  0
    3.7763   11.8229   -2.4696 H   0  0  0  0  0  0  0  0  0  0  0  0
    2.3708   11.9982   -3.5744 H   0  0  0  0  0  0  0  0  0  0  0  0
    3.6730   13.2355   -3.5744 H   0  0  0  0  0  0  0  0  0  0  0  0
    3.7845   13.3983   -0.2316 H   0  0  0  0  0  0  0  0  0  0  0  0
    4.1895   14.4047   -1.7344 H   0  0  0  0  0  0  0  0  0  0  0  0
    2.3227   15.1405    0.5361 H   0  0  0  0  0  0  0  0  0  0  0  0
    3.8918   15.9075    0.0702 H   0  0  0  0  0  0  0  0  0  0  0  0
    4.1948   17.1003   -1.9471 H   0  0  0  0  0  0  0  0  0  0  0  0
    3.4857   15.8482   -3.0224 H   0  0  0  0  0  0  0  0  0  0  0  0
    2.8172   17.5155   -3.0224 H   0  0  0  0  0  0  0  0  0  0  0  0
  1  2  1  0
  2  3  1  0
  3  4  1  0
  4  5  1  0
  5  6  1  0
  6  7  1  0
  7  8  1  0
  7  9  1  0
  2 10  1  0
 10 11  1  0
 11 12  1  0
 12 13  1  0
 13 14  1  1
 13 15  1  0
 15 16  1  0
 16 17  1  0
 17 18  2  0
 18 19  1  0
 19 20  1  0
 20 21  1  0
 21 22  1  0
 22 23  1  0
 22 24  1  0
 24 25  1  0
 24 26  1  0
 19 27  1  0
 27 28  1  6
 27 29  1  0
 29 30  1  0
 30 31  1  0
 31 32  1  6
  7  5  1  0
 31 10  1  0
 31 13  1  0
 27 15  1  0
 24 18  1  0
  1 33  1  0
  1 34  1  0
  1 35  1  0
  2 36  1  6
  3 37  1  0
  3 38  1  0
  4 39  1  0
  4 40  1  0
  5 41  1  6
  8 42  1  0
  8 43  1  0
  8 44  1  0
  9 45  1  0
  9 46  1  0
  9 47  1  0
 10 48  1  1
 11 49  1  0
 11 50  1  0
 12 51  1  0
 12 52  1  0
 14 53  1  0
 14 54  1  0
 14 55  1  0
 15 56  1  6
 16 57  1  0
 16 58  1  0
 17 59  1  0
 19 60  1  1
 20 61  1  0
 20 62  1  0
 21 63  1  0
 21 64  1  0
 22 65  1  1
 23 66  1  0
 25 67  1  0
 25 68  1  0
 25 69  1  0
 26 70  1  0
 26 71  1  0
 26 72  1  0
 28 73  1  0
 28 74  1  0
 28 75  1  0
 29 76  1  0
 29 77  1  0
 30 78  1  0
 30 79  1  0
 32 80  1  0
 32 81  1  0
 32 82  1  0
M  END
>  <meeko>  (7) 
{"is_sidechain": [false], "intermolecular_energy": 2.731, "internal_energy": -0.839}

$$$$
EPH_relaxed_0001_pdb2pqr_Repair_362_r2_0001_out
     RDKit          3D

 82 86  0  0  0  0  0  0  0  0999 V2000
    0.4430    8.8170   -2.3820 C   0  0  0  0  0  0  0  0  0  0  0  0
    1.1880    9.9630   -3.0730 C   0  0  2  0  0  0  0  0  0  0  0  0
    2.6870    9.9810   -2.7130 C   0  0  0  0  0  0  0  0  0  0  0  0
    3.5750   10.5850   -3.8040 C   0  0  0  0  0  0  0  0  0  0  0  0
    4.9710   10.8250   -3.3140 C   0  0  2  0  0  0  0  0  0  0  0  0
    5.5670   12.0430   -3.7770 O   0  0  0  0  0  0  0  0  0  0  0  0
    6.1870   10.8260   -4.2210 C   0  0  0  0  0  0  0  0  0  0  0  0
    6.0640   10.5810   -5.6920 C   0  0  0  0  0  0  0  0  0  0  0  0
    7.5330   10.5780   -3.6130 C   0  0  0  0  0  0  0  0  0  0  0  0
    0.5470   11.2960   -2.7050 C   0  0  1  0  0  0  0  0  0  0  0  0
   -0.8290   11.1250   -2.0080 C   0  0  0  0  0  0  0  0  0  0  0  0
   -0.9460   12.2640   -0.9630 C   0  0  0  0  0  0  0  0  0  0  0  0
    0.2030   13.2380   -1.3180 C   0  0  1  0  0  0  0  0  0  0  0  0
   -0.3490   14.0950   -2.5000 C   0  0  0  0  0  0  0  0  0  0  0  0
    0.7320   14.1350   -0.1520 C   0  0  2  0  0  0  0  0  0  0  0  0
   -0.2990   15.1100    0.4410 C   0  0  0  0  0  0  0  0  0  0  0  0
   -0.3450   16.4580   -0.2000 C   0  0  0  0  0  0  0  0  0  0  0  0
    0.5950   16.9680   -1.0160 C   0  0  0  0  0  0  0  0  0  0  0  0
    1.8970   16.2050   -1.2910 C   0  0  1  0  0  0  0  0  0  0  0  0
    3.1020   17.1740   -1.1620 C   0  0  0  0  0  0  0  0  0  0  0  0
    2.9550   18.4120   -2.0410 C   0  0  0  0  0  0  0  0  0  0  0  0
    1.6780   19.1750   -1.6980 C   0  0  2  0  0  0  0  0  0  0  0  0
    1.8040   19.7140   -0.3780 O   0  0  0  0  0  0  0  0  0  0  0  0
    0.3980   18.2980   -1.7840 C   0  0  0  0  0  0  0  0  0  0  0  0
    0.0950   17.9640   -3.2660 C   0  0  0  0  0  0  0  0  0  0  0  0
   -0.7990   19.1490   -1.2780 C   0  0  0  0  0  0  0  0  0  0  0  0
    2.1020   14.8630   -0.4650 C   0  0  1  0  0  0  0  0  0  0  0  0
    2.7630   15.1800    0.9110 C   0  0  0  0  0  0  0  0  0  0  0  0
    3.1110   13.9330   -1.2380 C   0  0  0  0  0  0  0  0  0  0  0  0
    2.5120   12.9840   -2.2930 C   0  0  0  0  0  0  0  0  0  0  0  0
    1.3210   12.2090   -1.7210 C   0  0  2  0  0  0  0  0  0  0  0  0
    1.8490   11.3200   -0.5440 C   0  0  0  0  0  0  0  0  0  0  0  0
    0.5197    8.9349   -1.2910 H   0  0  0  0  0  0  0  0  0  0  0  0
   -0.6159    8.8360   -2.6793 H   0  0  0  0  0  0  0  0  0  0  0  0
    0.8901    7.8570   -2.6793 H   0  0  0  0  0  0  0  0  0  0  0  0
    1.1114    9.8013   -4.1583 H   0  0  0  0  0  0  0  0  0  0  0  0
    2.8163   10.5712   -1.7938 H   0  0  0  0  0  0  0  0  0  0  0  0
    2.9998    8.9340   -2.5871 H   0  0  0  0  0  0  0  0  0  0  0  0
    3.6112    9.8925   -4.6579 H   0  0  0  0  0  0  0  0  0  0  0  0
    3.1444   11.5532   -4.0991 H   0  0  0  0  0  0  0  0  0  0  0  0
    4.7546   10.3028   -2.3703 H   0  0  0  0  0  0  0  0  0  0  0  0
    5.5764    9.6098   -5.8625 H   0  0  0  0  0  0  0  0  0  0  0  0
    5.4599   11.3795   -6.1475 H   0  0  0  0  0  0  0  0  0  0  0  0
    7.0652   10.5736   -6.1475 H   0  0  0  0  0  0  0  0  0  0  0  0
    7.4485   10.5936   -2.5164 H   0  0  0  0  0  0  0  0  0  0  0  0
    7.9068    9.5959   -3.9380 H   0  0  0  0  0  0  0  0  0  0  0  0
    8.2323   11.3624   -3.9380 H   0  0  0  0  0  0  0  0  0  0  0  0
    0.5075   11.7630   -3.7001 H   0  0  0  0  0  0  0  0  0  0  0  0
   -1.6402   11.2040   -2.7467 H   0  0  0  0  0  0  0  0  0  0  0  0
   -0.9083   10.1387   -1.5275 H   0  0  0  0  0  0  0  0  0  0  0  0
   -1.9208   12.7671   -1.0443 H   0  0  0  0  0  0  0  0  0  0  0  0
   -0.8739   11.8921    0.0697 H   0  0  0  0  0  0  0  0  0  0  0  0
   -0.9039   14.9566   -2.1003 H   0  0  0  0  0  0  0  0  0  0  0  0
    0.4890   14.4525   -3.1163 H   0  0  0  0  0  0  0  0  0  0  0  0
   -1.0211   13.4798   -3.1163 H   0  0  0  0  0  0  0  0  0  0  0  0
    0.9349   13.3978    0.6388 H   0  0  0  0  0  0  0  0  0  0  0  0
   -1.2947   14.6529    0.3428 H   0  0  0  0  0  0  0  0  0  0  0  0
    0.0073   15.2794    1.4838 H   0  0  0  0  0  0  0  0  0  0  0  0
   -1.2218   17.0872    0.0131 H   0  0  0  0  0  0  0  0  0  0  0  0
    1.8219   15.8382   -2.3253 H   0  0  0  0  0  0  0  0  0  0  0  0
    3.1858   17.4945   -0.1131 H   0  0  0  0  0  0  0  0  0  0  0  0
    4.0011   16.6341   -1.4940 H   0  0  0  0  0  0  0  0  0  0  0  0
    3.8216   19.0708   -1.8831 H   0  0  0  0  0  0  0  0  0  0  0  0
    2.9019   18.0924   -3.0922 H   0  0  0  0  0  0  0  0  0  0  0  0
    1.5608   19.9743   -2.4445 H   0  0  0  0  0  0  0  0  0  0  0  0
    0.9870   19.5030    0.1050 H   0  0  0  0  0  0  0  0  0  0  0  0
   -0.6434   17.1501   -3.3149 H   0  0  0  0  0  0  0  0  0  0  0  0
   -0.3086   18.8558   -3.7677 H   0  0  0  0  0  0  0  0  0  0  0  0
    1.0218   17.6489   -3.7677 H   0  0  0  0  0  0  0  0  0  0  0  0
   -0.8062   19.1541   -0.1780 H   0  0  0  0  0  0  0  0  0  0  0  0
   -0.6988   20.1798   -1.6488 H   0  0  0  0  0  0  0  0  0  0  0  0
   -1.7396   18.7157   -1.6488 H   0  0  0  0  0  0  0  0  0  0  0  0
    2.0932   14.8588    1.7222 H   0  0  0  0  0  0  0  0  0  0  0  0
    3.7195   14.6426    0.9908 H   0  0  0  0  0  0  0  0  0  0  0  0
    2.9427   16.2623    0.9908 H   0  0  0  0  0  0  0  0  0  0  0  0
    3.8376   14.5821   -1.7486 H   0  0  0  0  0  0  0  0  0  0  0  0
    3.5417   13.2741   -0.4696 H   0  0  0  0  0  0  0  0  0  0  0  0
    2.1751   13.5743   -3.1579 H   0  0  0  0  0  0  0  0  0  0  0  0
    3.2860   12.2635   -2.5961 H   0  0  0  0  0  0  0  0  0  0  0  0
    1.5747   11.7818    0.4159 H   0  0  0  0  0  0  0  0  0  0  0  0
    1.3993   10.3183   -0.6108 H   0  0  0  0  0  0  0  0  0  0  0  0
    2.9437   11.2356   -0.6108 H   0  0  0  0  0  0  0  0  0  0  0  0
  1  2  1  0
  2  3  1  0
  3  4  1  0
  4  5  1  0
  5  6  1  0
  6  7  1  0
  7  8  1  0
  7  9  1  0
  2 10  1  0
 10 11  1  0
 11 12  1  0
 12 13  1  0
 13 14  1  6
 13 15  1  0
 15 16  1  0
 16 17  1  0
 17 18  2  0
 18 19  1  0
 19 20  1  0
 20 21  1  0
 21 22  1  0
 22 23  1  0
 22 24  1  0
 24 25  1  0
 24 26  1  0
 19 27  1  0
 27 28  1  1
 27 29  1  0
 29 30  1  0
 30 31  1  0
 31 32  1  1
  7  5  1  0
 31 10  1  0
 31 13  1  0
 27 15  1  0
 24 18  1  0
  1 33  1  0
  1 34  1  0
  1 35  1  0
  2 36  1  6
  3 37  1  0
  3 38  1  0
  4 39  1  0
  4 40  1  0
  5 41  1  1
  8 42  1  0
  8 43  1  0
  8 44  1  0
  9 45  1  0
  9 46  1  0
  9 47  1  0
 10 48  1  6
 11 49  1  0
 11 50  1  0
 12 51  1  0
 12 52  1  0
 14 53  1  0
 14 54  1  0
 14 55  1  0
 15 56  1  1
 16 57  1  0
 16 58  1  0
 17 59  1  0
 19 60  1  6
 20 61  1  0
 20 62  1  0
 21 63  1  0
 21 64  1  0
 22 65  1  6
 23 66  1  0
 25 67  1  0
 25 68  1  0
 25 69  1  0
 26 70  1  0
 26 71  1  0
 26 72  1  0
 28 73  1  0
 28 74  1  0
 28 75  1  0
 29 76  1  0
 29 77  1  0
 30 78  1  0
 30 79  1  0
 32 80  1  0
 32 81  1  0
 32 82  1  0
M  END
>  <meeko>  (8) 
{"is_sidechain": [false], "intermolecular_energy": 2.731, "internal_energy": -0.839}

$$$$
EPH_relaxed_0001_pdb2pqr_Repair_362_r2_0001_out
     RDKit          3D

 82 86  0  0  0  0  0  0  0  0999 V2000
    2.9730   19.1450   -1.3650 C   0  0  0  0  0  0  0  0  0  0  0  0
    1.5480   19.1180   -0.8050 C   0  0  2  0  0  0  0  0  0  0  0  0
    1.3890   20.0380    0.4220 C   0  0  0  0  0  0  0  0  0  0  0  0
    2.0720   19.5050    1.6840 C   0  0  0  0  0  0  0  0  0  0  0  0
    3.5640   19.6310    1.6030 C   0  0  2  0  0  0  0  0  0  0  0  0
    4.2850   18.4440    1.9580 O   0  0  0  0  0  0  0  0  0  0  0  0
    4.4750   19.5820    2.8150 C   0  0  0  0  0  0  0  0  0  0  0  0
    3.9270   19.4020    4.1960 C   0  0  0  0  0  0  0  0  0  0  0  0
    5.8370   20.1930    2.7110 C   0  0  0  0  0  0  0  0  0  0  0  0
    1.1610   17.6900   -0.4380 C   0  0  1  0  0  0  0  0  0  0  0  0
   -0.1720   17.6170    0.3540 C   0  0  0  0  0  0  0  0  0  0  0  0
   -0.8830   16.3120   -0.0860 C   0  0  0  0  0  0  0  0  0  0  0  0
    0.1990   15.5180   -0.8550 C   0  0  1  0  0  0  0  0  0  0  0  0
    1.0540   14.8280    0.2540 C   0  0  0  0  0  0  0  0  0  0  0  0
   -0.3190   14.4870   -1.9100 C   0  0  2  0  0  0  0  0  0  0  0  0
   -1.1660   13.3380   -1.3380 C   0  0  0  0  0  0  0  0  0  0  0  0
   -0.4020   12.1200   -0.9380 C   0  0  0  0  0  0  0  0  0  0  0  0
    0.8660   11.8410   -1.2920 C   0  0  0  0  0  0  0  0  0  0  0  0
    1.6320   12.7520   -2.2600 C   0  0  1  0  0  0  0  0  0  0  0  0
    2.3420   11.8860   -3.3340 C   0  0  0  0  0  0  0  0  0  0  0  0
    3.2300   10.8070   -2.7230 C   0  0  0  0  0  0  0  0  0  0  0  0
    2.4210    9.8860   -1.8130 C   0  0  2  0  0  0  0  0  0  0  0  0
    1.4950    9.1450   -2.6140 O   0  0  0  0  0  0  0  0  0  0  0  0
    1.6530   10.6470   -0.6970 C   0  0  0  0  0  0  0  0  0  0  0  0
    2.6600   11.1990    0.3430 C   0  0  0  0  0  0  0  0  0  0  0  0
    0.7680    9.6200    0.0600 C   0  0  0  0  0  0  0  0  0  0  0  0
    0.7990   13.9480   -2.8930 C   0  0  1  0  0  0  0  0  0  0  0  0
    0.0640   13.4620   -4.1790 C   0  0  0  0  0  0  0  0  0  0  0  0
    1.7920   15.0810   -3.3490 C   0  0  0  0  0  0  0  0  0  0  0  0
    2.1720   16.1380   -2.2950 C   0  0  0  0  0  0  0  0  0  0  0  0
    0.9250   16.6960   -1.6030 C   0  0  2  0  0  0  0  0  0  0  0  0
    0.0560   17.4160   -2.6900 C   0  0  0  0  0  0  0  0  0  0  0  0
    3.6934   19.1587   -0.5338 H   0  0  0  0  0  0  0  0  0  0  0  0
    3.1416   18.2499   -1.9817 H   0  0  0  0  0  0  0  0  0  0  0  0
    3.1076   20.0459   -1.9817 H   0  0  0  0  0  0  0  0  0  0  0  0
    0.8766   19.4955   -1.5903 H   0  0  0  0  0  0  0  0  0  0  0  0
    1.8244   21.0186    0.1794 H   0  0  0  0  0  0  0  0  0  0  0  0
    0.3127   20.0988    0.6406 H   0  0  0  0  0  0  0  0  0  0  0  0
    1.7127   20.0768    2.5523 H   0  0  0  0  0  0  0  0  0  0  0  0
    1.8231   18.4382    1.7838 H   0  0  0  0  0  0  0  0  0  0  0  0
    3.4819   20.3453    0.7705 H   0  0  0  0  0  0  0  0  0  0  0  0
    4.7019   19.6565    4.9340 H   0  0  0  0  0  0  0  0  0  0  0  0
    3.0579   20.0619    4.3345 H   0  0  0  0  0  0  0  0  0  0  0  0
    3.6184   18.3553    4.3345 H   0  0  0  0  0  0  0  0  0  0  0  0
    6.2365   20.3722    3.7201 H   0  0  0  0  0  0  0  0  0  0  0  0
    6.5055   19.5085    2.1682 H   0  0  0  0  0  0  0  0  0  0  0  0
    5.7702   21.1474    2.1682 H   0  0  0  0  0  0  0  0  0  0  0  0
    2.0552   17.3968    0.1317 H   0  0  0  0  0  0  0  0  0  0  0  0
    0.0305   17.5920    1.4349 H   0  0  0  0  0  0  0  0  0  0  0  0
   -0.8005   18.4967    0.1512 H   0  0  0  0  0  0  0  0  0  0  0  0
   -1.2313   15.7453    0.7901 H   0  0  0  0  0  0  0  0  0  0  0  0
   -1.7725   16.5092   -0.7023 H   0  0  0  0  0  0  0  0  0  0  0  0
    0.6815   15.1286    1.2444 H   0  0  0  0  0  0  0  0  0  0  0  0
    0.9774   13.7357    0.1495 H   0  0  0  0  0  0  0  0  0  0  0  0
    2.1055   15.1335    0.1495 H   0  0  0  0  0  0  0  0  0  0  0  0
   -1.0092   15.0942   -2.5140 H   0  0  0  0  0  0  0  0  0  0  0  0
   -1.6941   13.7148   -0.4497 H   0  0  0  0  0  0  0  0  0  0  0  0
   -1.8381   13.0224   -2.1496 H   0  0  0  0  0  0  0  0  0  0  0  0
   -0.9191   11.3884   -0.2998 H   0  0  0  0  0  0  0  0  0  0  0  0
    2.3809   13.2804   -1.6518 H   0  0  0  0  0  0  0  0  0  0  0  0
    1.5769   11.4011   -3.9581 H   0  0  0  0  0  0  0  0  0  0  0  0
    2.9862   12.5519   -3.9269 H   0  0  0  0  0  0  0  0  0  0  0  0
    3.6798   10.2108   -3.5306 H   0  0  0  0  0  0  0  0  0  0  0  0
    4.0128   11.2943   -2.1232 H   0  0  0  0  0  0  0  0  0  0  0  0
    3.1314    9.2176   -1.3046 H   0  0  0  0  0  0  0  0  0  0  0  0
    2.0060    8.6620   -3.2850 H   0  0  0  0  0  0  0  0  0  0  0  0
    2.2879   10.9950    1.3578 H   0  0  0  0  0  0  0  0  0  0  0  0
    3.6353   10.7094    0.2048 H   0  0  0  0  0  0  0  0  0  0  0  0
    2.7718   12.2845    0.2048 H   0  0  0  0  0  0  0  0  0  0  0  0
    0.8891    9.7605    1.1443 H   0  0  0  0  0  0  0  0  0  0  0  0
   -0.2864    9.7723   -0.2140 H   0  0  0  0  0  0  0  0  0  0  0  0
    1.0744    8.5997   -0.2140 H   0  0  0  0  0  0  0  0  0  0  0  0
   -0.8225   12.8758   -3.8953 H   0  0  0  0  0  0  0  0  0  0  0  0
   -0.2474   14.3328   -4.7746 H   0  0  0  0  0  0  0  0  0  0  0  0
    0.7433   12.8344   -4.7746 H   0  0  0  0  0  0  0  0  0  0  0  0
    2.7207   14.5949   -3.6825 H   0  0  0  0  0  0  0  0  0  0  0  0
    1.2548   15.6361   -4.1321 H   0  0  0  0  0  0  0  0  0  0  0  0
    2.8253   15.6752   -1.5407 H   0  0  0  0  0  0  0  0  0  0  0  0
    2.6923   16.9652   -2.8000 H   0  0  0  0  0  0  0  0  0  0  0  0
   -0.7014   18.0435   -2.1974 H   0  0  0  0  0  0  0  0  0  0  0  0
    0.7027   18.0466   -3.3178 H   0  0  0  0  0  0  0  0  0  0  0  0
   -0.4434   16.6634   -3.3178 H   0  0  0  0  0  0  0  0  0  0  0  0
  1  2  1  0
  2  3  1  0
  3  4  1  0
  4  5  1  0
  5  6  1  0
  6  7  1  0
  7  8  1  0
  7  9  1  0
  2 10  1  0
 10 11  1  0
 11 12  1  0
 12 13  1  0
 13 14  1  1
 13 15  1  0
 15 16  1  0
 16 17  1  0
 17 18  2  0
 18 19  1  0
 19 20  1  0
 20 21  1  0
 21 22  1  0
 22 23  1  0
 22 24  1  0
 24 25  1  0
 24 26  1  0
 19 27  1  0
 27 28  1  6
 27 29  1  0
 29 30  1  0
 30 31  1  0
 31 32  1  6
  7  5  1  0
 31 10  1  0
 31 13  1  0
 27 15  1  0
 24 18  1  0
  1 33  1  0
  1 34  1  0
  1 35  1  0
  2 36  1  6
  3 37  1  0
  3 38  1  0
  4 39  1  0
  4 40  1  0
  5 41  1  6
  8 42  1  0
  8 43  1  0
  8 44  1  0
  9 45  1  0
  9 46  1  0
  9 47  1  0
 10 48  1  1
 11 49  1  0
 11 50  1  0
 12 51  1  0
 12 52  1  0
 14 53  1  0
 14 54  1  0
 14 55  1  0
 15 56  1  6
 16 57  1  0
 16 58  1  0
 17 59  1  0
 19 60  1  1
 20 61  1  0
 20 62  1  0
 21 63  1  0
 21 64  1  0
 22 65  1  1
 23 66  1  0
 25 67  1  0
 25 68  1  0
 25 69  1  0
 26 70  1  0
 26 71  1  0
 26 72  1  0
 28 73  1  0
 28 74  1  0
 28 75  1  0
 29 76  1  0
 29 77  1  0
 30 78  1  0
 30 79  1  0
 32 80  1  0
 32 81  1  0
 32 82  1  0
M  END
>  <meeko>  (9) 
{"is_sidechain": [false], "intermolecular_energy": 2.731, "internal_energy": -0.839}

$$$$
EPH_relaxed_0001_pdb2pqr_Repair_362_r2_0001_out
     RDKit          3D

 82 86  0  0  0  0  0  0  0  0999 V2000
   -2.3440    7.9520   -1.9250 C   0  0  0  0  0  0  0  0  0  0  0  0
   -2.1910    8.5730   -0.5330 C   0  0  2  0  0  0  0  0  0  0  0  0
   -3.5240    8.5950    0.2420 C   0  0  0  0  0  0  0  0  0  0  0  0
   -4.7260    9.0090   -0.6120 C   0  0  0  0  0  0  0  0  0  0  0  0
   -5.9770    8.3030   -0.1860 C   0  0  2  0  0  0  0  0  0  0  0  0
   -5.8900    6.8720   -0.1950 O   0  0  0  0  0  0  0  0  0  0  0  0
   -6.8200    7.4560   -1.1220 C   0  0  0  0  0  0  0  0  0  0  0  0
   -6.4440    7.2710   -2.5580 C   0  0  0  0  0  0  0  0  0  0  0  0
   -8.2550    7.2130   -0.7700 C   0  0  0  0  0  0  0  0  0  0  0  0
   -1.6350    9.9870   -0.6530 C   0  0  1  0  0  0  0  0  0  0  0  0
   -1.1240   10.5450    0.7020 C   0  0  0  0  0  0  0  0  0  0  0  0
    0.1070   11.4330    0.3840 C   0  0  0  0  0  0  0  0  0  0  0  0
    0.0640   11.6250   -1.1500 C   0  0  1  0  0  0  0  0  0  0  0  0
   -0.9770   12.7650   -1.3820 C   0  0  0  0  0  0  0  0  0  0  0  0
    1.4280   11.9390   -1.8450 C   0  0  2  0  0  0  0  0  0  0  0  0
    2.0960   13.2540   -1.4090 C   0  0  0  0  0  0  0  0  0  0  0  0
    1.7290   14.4550   -2.2170 C   0  0  0  0  0  0  0  0  0  0  0  0
    1.1250   14.4330   -3.4200 C   0  0  0  0  0  0  0  0  0  0  0  0
    0.8350   13.1050   -4.1320 C   0  0  1  0  0  0  0  0  0  0  0  0
    1.2690   13.2100   -5.6180 C   0  0  0  0  0  0  0  0  0  0  0  0
    0.6390   14.4030   -6.3290 C   0  0  0  0  0  0  0  0  0  0  0  0
    0.9970   15.7090   -5.6250 C   0  0  2  0  0  0  0  0  0  0  0  0
    2.4020   15.9390   -5.7670 O   0  0  0  0  0  0  0  0  0  0  0  0
    0.6150   15.7180   -4.1180 C   0  0  0  0  0  0  0  0  0  0  0  0
   -0.9250   15.7720   -3.9720 C   0  0  0  0  0  0  0  0  0  0  0  0
    1.1580   17.0330   -3.4960 C   0  0  0  0  0  0  0  0  0  0  0  0
    1.3990   11.8000   -3.4220 C   0  0  1  0  0  0  0  0  0  0  0  0
    2.8690   11.5420   -3.8730 C   0  0  0  0  0  0  0  0  0  0  0  0
    0.5630   10.5540   -3.8970 C   0  0  0  0  0  0  0  0  0  0  0  0
   -0.7110   10.2250   -3.0960 C   0  0  0  0  0  0  0  0  0  0  0  0
   -0.4210   10.1970   -1.5920 C   0  0  2  0  0  0  0  0  0  0  0  0
    0.6070    9.0440   -1.3250 C   0  0  0  0  0  0  0  0  0  0  0  0
   -2.6061    6.8883   -1.8252 H   0  0  0  0  0  0  0  0  0  0  0  0
   -3.1400    8.4757   -2.4747 H   0  0  0  0  0  0  0  0  0  0  0  0
   -1.3958    8.0460   -2.4747 H   0  0  0  0  0  0  0  0  0  0  0  0
   -1.4890    7.9446    0.0347 H   0  0  0  0  0  0  0  0  0  0  0  0
   -3.7113    7.5866    0.6395 H   0  0  0  0  0  0  0  0  0  0  0  0
   -3.4207    9.3474    1.0378 H   0  0  0  0  0  0  0  0  0  0  0  0
   -4.8773   10.0940   -0.5125 H   0  0  0  0  0  0  0  0  0  0  0  0
   -4.5158    8.7348   -1.6563 H   0  0  0  0  0  0  0  0  0  0  0  0
   -6.2343    9.1234    0.5001 H   0  0  0  0  0  0  0  0  0  0  0  0
   -5.4585    6.7861   -2.6195 H   0  0  0  0  0  0  0  0  0  0  0  0
   -7.1950    6.6395   -3.0552 H   0  0  0  0  0  0  0  0  0  0  0  0
   -6.4020    8.2513   -3.0552 H   0  0  0  0  0  0  0  0  0  0  0  0
   -8.3660    7.1942    0.3242 H   0  0  0  0  0  0  0  0  0  0  0  0
   -8.8765    8.0187   -1.1878 H   0  0  0  0  0  0  0  0  0  0  0  0
   -8.5766    6.2476   -1.1878 H   0  0  0  0  0  0  0  0  0  0  0  0
   -2.5192   10.4983   -1.0615 H   0  0  0  0  0  0  0  0  0  0  0  0
   -1.9093   11.1450    1.1850 H   0  0  0  0  0  0  0  0  0  0  0  0
   -0.8557    9.7292    1.3894 H   0  0  0  0  0  0  0  0  0  0  0  0
    0.0302   12.4020    0.8989 H   0  0  0  0  0  0  0  0  0  0  0  0
    1.0491   10.9759    0.7209 H   0  0  0  0  0  0  0  0  0  0  0  0
   -1.3254   13.1466   -0.4109 H   0  0  0  0  0  0  0  0  0  0  0  0
   -0.5063   13.5815   -1.9493 H   0  0  0  0  0  0  0  0  0  0  0  0
   -1.8328   12.3702   -1.9493 H   0  0  0  0  0  0  0  0  0  0  0  0
    2.0762   11.1355   -1.4651 H   0  0  0  0  0  0  0  0  0  0  0  0
    1.8135   13.4484   -0.3638 H   0  0  0  0  0  0  0  0  0  0  0  0
    3.1767   13.1087   -1.5539 H   0  0  0  0  0  0  0  0  0  0  0  0
    1.9727   15.4406   -1.7936 H   0  0  0  0  0  0  0  0  0  0  0  0
   -0.2533   12.9572   -4.0700 H   0  0  0  0  0  0  0  0  0  0  0  0
    2.3634   13.3128   -5.6592 H   0  0  0  0  0  0  0  0  0  0  0  0
    0.9281   12.2982   -6.1303 H   0  0  0  0  0  0  0  0  0  0  0  0
    1.0068   14.4400   -7.3650 H   0  0  0  0  0  0  0  0  0  0  0  0
   -0.4544   14.2839   -6.3130 H   0  0  0  0  0  0  0  0  0  0  0  0
    0.4132   16.5108   -6.1007 H   0  0  0  0  0  0  0  0  0  0  0  0
    2.7690   15.2060   -6.2900 H   0  0  0  0  0  0  0  0  0  0  0  0
   -1.1920   15.7814   -2.9049 H   0  0  0  0  0  0  0  0  0  0  0  0
   -1.3072   16.6841   -4.4536 H   0  0  0  0  0  0  0  0  0  0  0  0
   -1.3702   14.8889   -4.4536 H   0  0  0  0  0  0  0  0  0  0  0  0
    1.1277   16.9595   -2.3989 H   0  0  0  0  0  0  0  0  0  0  0  0
    2.1957   17.1927   -3.8242 H   0  0  0  0  0  0  0  0  0  0  0  0
    0.5354   17.8783   -3.8242 H   0  0  0  0  0  0  0  0  0  0  0  0
    3.5102   11.4295   -2.9863 H   0  0  0  0  0  0  0  0  0  0  0  0
    2.9117   10.6226   -4.4754 H   0  0  0  0  0  0  0  0  0  0  0  0
    3.2222   12.3919   -4.4754 H   0  0  0  0  0  0  0  0  0  0  0  0
    0.2631   10.7327   -4.9401 H   0  0  0  0  0  0  0  0  0  0  0  0
    1.2267    9.6893   -3.7493 H   0  0  0  0  0  0  0  0  0  0  0  0
   -1.4731   10.9912   -3.3013 H   0  0  0  0  0  0  0  0  0  0  0  0
   -1.0713    9.2318   -3.4023 H   0  0  0  0  0  0  0  0  0  0  0  0
    0.7299    8.9062   -0.2406 H   0  0  0  0  0  0  0  0  0  0  0  0
    0.2358    8.1107   -1.7735 H   0  0  0  0  0  0  0  0  0  0  0  0
    1.5766    9.3061   -1.7735 H   0  0  0  0  0  0  0  0  0  0  0  0
  1  2  1  0
  2  3  1  0
  3  4  1  0
  4  5  1  0
  5  6  1  0
  6  7  1  0
  7  8  1  0
  7  9  1  0
  2 10  1  0
 10 11  1  0
 11 12  1  0
 12 13  1  0
 13 14  1  1
 13 15  1  0
 15 16  1  0
 16 17  1  0
 17 18  2  0
 18 19  1  0
 19 20  1  0
 20 21  1  0
 21 22  1  0
 22 23  1  0
 22 24  1  0
 24 25  1  0
 24 26  1  0
 19 27  1  0
 27 28  1  6
 27 29  1  0
 29 30  1  0
 30 31  1  0
 31 32  1  6
  7  5  1  0
 31 10  1  0
 31 13  1  0
 27 15  1  0
 24 18  1  0
  1 33  1  0
  1 34  1  0
  1 35  1  0
  2 36  1  1
  3 37  1  0
  3 38  1  0
  4 39  1  0
  4 40  1  0
  5 41  1  1
  8 42  1  0
  8 43  1  0
  8 44  1  0
  9 45  1  0
  9 46  1  0
  9 47  1  0
 10 48  1  6
 11 49  1  0
 11 50  1  0
 12 51  1  0
 12 52  1  0
 14 53  1  0
 14 54  1  0
 14 55  1  0
 15 56  1  1
 16 57  1  0
 16 58  1  0
 17 59  1  0
 19 60  1  6
 20 61  1  0
 20 62  1  0
 21 63  1  0
 21 64  1  0
 22 65  1  6
 23 66  1  0
 25 67  1  0
 25 68  1  0
 25 69  1  0
 26 70  1  0
 26 71  1  0
 26 72  1  0
 28 73  1  0
 28 74  1  0
 28 75  1  0
 29 76  1  0
 29 77  1  0
 30 78  1  0
 30 79  1  0
 32 80  1  0
 32 81  1  0
 32 82  1  0
M  END
>  <meeko>  (10) 
{"is_sidechain": [false], "intermolecular_energy": 2.731, "internal_energy": -0.839}

$$$$
EPH_relaxed_0001_pdb2pqr_Repair_362_r2_0001_out
     RDKit          3D

 82 86  0  0  0  0  0  0  0  0999 V2000
    0.2920   17.8030   -2.4650 C   0  0  0  0  0  0  0  0  0  0  0  0
   -0.0050   16.8800   -1.2810 C   0  0  2  0  0  0  0  0  0  0  0  0
   -0.0620   17.6480    0.0550 C   0  0  0  0  0  0  0  0  0  0  0  0
    0.4050   19.1020   -0.0510 C   0  0  0  0  0  0  0  0  0  0  0  0
    1.5860   19.3710    0.8310 C   0  0  2  0  0  0  0  0  0  0  0  0
    2.6010   20.1940    0.2400 O   0  0  0  0  0  0  0  0  0  0  0  0
    2.9800   18.8420    0.5470 C   0  0  0  0  0  0  0  0  0  0  0  0
    3.2660   18.0010   -0.6570 C   0  0  0  0  0  0  0  0  0  0  0  0
    3.9480   18.7310    1.6840 C   0  0  0  0  0  0  0  0  0  0  0  0
    1.0470   15.7790   -1.2040 C   0  0  1  0  0  0  0  0  0  0  0  0
    1.2280   15.2250    0.2350 C   0  0  0  0  0  0  0  0  0  0  0  0
    1.5350   13.7120    0.0960 C   0  0  0  0  0  0  0  0  0  0  0  0
    1.8480   13.5130   -1.4050 C   0  0  1  0  0  0  0  0  0  0  0  0
    3.3350   13.9580   -1.5680 C   0  0  0  0  0  0  0  0  0  0  0  0
    1.6090   12.0780   -1.9770 C   0  0  2  0  0  0  0  0  0  0  0  0
    2.4810   10.9740   -1.3520 C   0  0  0  0  0  0  0  0  0  0  0  0
    3.7840   10.7260   -2.0380 C   0  0  0  0  0  0  0  0  0  0  0  0
    4.1140   11.1580   -3.2690 C   0  0  0  0  0  0  0  0  0  0  0  0
    3.0940   11.8950   -4.1460 C   0  0  1  0  0  0  0  0  0  0  0  0
    3.1220   11.3070   -5.5810 C   0  0  0  0  0  0  0  0  0  0  0  0
    4.5220   11.3100   -6.1870 C   0  0  0  0  0  0  0  0  0  0  0  0
    5.4950   10.5180   -5.3170 C   0  0  2  0  0  0  0  0  0  0  0  0
    5.1200    9.1370   -5.3470 O   0  0  0  0  0  0  0  0  0  0  0  0
    5.5440   11.0150   -3.8450 C   0  0  0  0  0  0  0  0  0  0  0  0
    6.2330   12.4010   -3.7870 C   0  0  0  0  0  0  0  0  0  0  0  0
    6.4540   10.0440   -3.0440 C   0  0  0  0  0  0  0  0  0  0  0  0
    1.6210   11.9990   -3.5570 C   0  0  1  0  0  0  0  0  0  0  0  0
    0.8020   10.7300   -3.9460 C   0  0  0  0  0  0  0  0  0  0  0  0
    0.8860   13.2220   -4.2230 C   0  0  0  0  0  0  0  0  0  0  0  0
    1.0640   14.5930   -3.5430 C   0  0  0  0  0  0  0  0  0  0  0  0
    0.7970   14.4970   -2.0370 C   0  0  2  0  0  0  0  0  0  0  0  0
   -0.6990   14.0730   -1.8430 C   0  0  0  0  0  0  0  0  0  0  0  0
    0.6089   18.7879   -2.0916 H   0  0  0  0  0  0  0  0  0  0  0  0
    1.0952   17.3671   -3.0772 H   0  0  0  0  0  0  0  0  0  0  0  0
   -0.6147   17.9174   -3.0772 H   0  0  0  0  0  0  0  0  0  0  0  0
   -0.9973   16.4359   -1.4487 H   0  0  0  0  0  0  0  0  0  0  0  0
   -1.1015   17.6424    0.4148 H   0  0  0  0  0  0  0  0  0  0  0  0
    0.6245   17.1394    0.7479 H   0  0  0  0  0  0  0  0  0  0  0  0
    0.6842   19.3115   -1.0942 H   0  0  0  0  0  0  0  0  0  0  0  0
   -0.4208   19.7517    0.2744 H   0  0  0  0  0  0  0  0  0  0  0  0
    0.9522   19.3364    1.7294 H   0  0  0  0  0  0  0  0  0  0  0  0
    3.6048   17.0048   -0.3363 H   0  0  0  0  0  0  0  0  0  0  0  0
    2.3514   17.9008   -1.2599 H   0  0  0  0  0  0  0  0  0  0  0  0
    4.0521   18.4791   -1.2599 H   0  0  0  0  0  0  0  0  0  0  0  0
    3.4027   18.7935    2.6373 H   0  0  0  0  0  0  0  0  0  0  0  0
    4.4739   17.7667    1.6250 H   0  0  0  0  0  0  0  0  0  0  0  0
    4.6785   19.5513    1.6250 H   0  0  0  0  0  0  0  0  0  0  0  0
    1.9144   16.3247   -1.6038 H   0  0  0  0  0  0  0  0  0  0  0  0
    2.0632   15.7366    0.7357 H   0  0  0  0  0  0  0  0  0  0  0  0
    0.3236   15.3908    0.8389 H   0  0  0  0  0  0  0  0  0  0  0  0
    2.4016   13.4334    0.7135 H   0  0  0  0  0  0  0  0  0  0  0  0
    0.6975   13.0840    0.4340 H   0  0  0  0  0  0  0  0  0  0  0  0
    3.7881   14.0936   -0.5749 H   0  0  0  0  0  0  0  0  0  0  0  0
    3.8900   13.1866   -2.1220 H   0  0  0  0  0  0  0  0  0  0  0  0
    3.3750   14.9075   -2.1220 H   0  0  0  0  0  0  0  0  0  0  0  0
    0.5790   11.8642   -1.6556 H   0  0  0  0  0  0  0  0  0  0  0  0
    2.6936   11.2574   -0.3106 H   0  0  0  0  0  0  0  0  0  0  0  0
    1.9052   10.0415   -1.4458 H   0  0  0  0  0  0  0  0  0  0  0  0
    4.5377   10.1408   -1.4909 H   0  0  0  0  0  0  0  0  0  0  0  0
    3.4164   12.9465   -4.1686 H   0  0  0  0  0  0  0  0  0  0  0  0
    2.7557   10.2704   -5.5446 H   0  0  0  0  0  0  0  0  0  0  0  0
    2.4828   11.9401   -6.2139 H   0  0  0  0  0  0  0  0  0  0  0  0
    4.4820   10.8553   -7.1878 H   0  0  0  0  0  0  0  0  0  0  0  0
    4.8747   12.3500   -6.2507 H   0  0  0  0  0  0  0  0  0  0  0  0
    6.5035   10.6648   -5.7309 H   0  0  0  0  0  0  0  0  0  0  0  0
    4.9010    8.8720   -4.4370 H   0  0  0  0  0  0  0  0  0  0  0  0
    6.3788   12.6943   -2.7369 H   0  0  0  0  0  0  0  0  0  0  0  0
    7.2090   12.3467   -4.2915 H   0  0  0  0  0  0  0  0  0  0  0  0
    5.6005   13.1463   -4.2915 H   0  0  0  0  0  0  0  0  0  0  0  0
    6.3031   10.2050   -1.9664 H   0  0  0  0  0  0  0  0  0  0  0  0
    6.1963    9.0055   -3.2992 H   0  0  0  0  0  0  0  0  0  0  0  0
    7.5070   10.2338   -3.2992 H   0  0  0  0  0  0  0  0  0  0  0  0
    0.4692   10.2143   -3.0331 H   0  0  0  0  0  0  0  0  0  0  0  0
   -0.0750   11.0274   -4.5396 H   0  0  0  0  0  0  0  0  0  0  0  0
    1.4342   10.0533   -4.5396 H   0  0  0  0  0  0  0  0  0  0  0  0
    1.2567   13.3115   -5.2548 H   0  0  0  0  0  0  0  0  0  0  0  0
   -0.1869   12.9949   -4.1370 H   0  0  0  0  0  0  0  0  0  0  0  0
    2.0941   14.9436   -3.7042 H   0  0  0  0  0  0  0  0  0  0  0  0
    0.3438   15.2988   -3.9826 H   0  0  0  0  0  0  0  0  0  0  0  0
   -0.9255   14.0088   -0.7685 H   0  0  0  0  0  0  0  0  0  0  0  0
   -1.3557   14.8204   -2.3122 H   0  0  0  0  0  0  0  0  0  0  0  0
   -0.8659   13.0922   -2.3122 H   0  0  0  0  0  0  0  0  0  0  0  0
  1  2  1  0
  2  3  1  0
  3  4  1  0
  4  5  1  0
  5  6  1  0
  6  7  1  0
  7  8  1  0
  7  9  1  0
  2 10  1  0
 10 11  1  0
 11 12  1  0
 12 13  1  0
 13 14  1  1
 13 15  1  0
 15 16  1  0
 16 17  1  0
 17 18  2  0
 18 19  1  0
 19 20  1  0
 20 21  1  0
 21 22  1  0
 22 23  1  0
 22 24  1  0
 24 25  1  0
 24 26  1  0
 19 27  1  0
 27 28  1  1
 27 29  1  0
 29 30  1  0
 30 31  1  0
 31 32  1  6
  7  5  1  0
 31 10  1  0
 31 13  1  0
 27 15  1  0
 24 18  1  0
  1 33  1  0
  1 34  1  0
  1 35  1  0
  2 36  1  6
  3 37  1  0
  3 38  1  0
  4 39  1  0
  4 40  1  0
  5 41  1  1
  8 42  1  0
  8 43  1  0
  8 44  1  0
  9 45  1  0
  9 46  1  0
  9 47  1  0
 10 48  1  6
 11 49  1  0
 11 50  1  0
 12 51  1  0
 12 52  1  0
 14 53  1  0
 14 54  1  0
 14 55  1  0
 15 56  1  1
 16 57  1  0
 16 58  1  0
 17 59  1  0
 19 60  1  6
 20 61  1  0
 20 62  1  0
 21 63  1  0
 21 64  1  0
 22 65  1  6
 23 66  1  0
 25 67  1  0
 25 68  1  0
 25 69  1  0
 26 70  1  0
 26 71  1  0
 26 72  1  0
 28 73  1  0
 28 74  1  0
 28 75  1  0
 29 76  1  0
 29 77  1  0
 30 78  1  0
 30 79  1  0
 32 80  1  0
 32 81  1  0
 32 82  1  0
M  END
>  <meeko>  (11) 
{"is_sidechain": [false], "intermolecular_energy": 2.731, "internal_energy": -0.839}

$$$$
EPH_relaxed_0001_pdb2pqr_Repair_362_r2_0001_out
     RDKit          3D

 82 86  0  0  0  0  0  0  0  0999 V2000
   -7.3630    7.8880   -2.5710 C   0  0  0  0  0  0  0  0  0  0  0  0
   -6.7120    7.5860   -1.2190 C   0  0  2  0  0  0  0  0  0  0  0  0
   -7.7510    7.4860   -0.0840 C   0  0  0  0  0  0  0  0  0  0  0  0
   -9.1030    6.9260   -0.5350 C   0  0  0  0  0  0  0  0  0  0  0  0
  -10.2230    7.4170    0.3310 C   0  0  2  0  0  0  0  0  0  0  0  0
  -11.2840    6.4730    0.5310 O   0  0  0  0  0  0  0  0  0  0  0  0
  -11.6280    7.6720   -0.1820 C   0  0  0  0  0  0  0  0  0  0  0  0
  -11.9880    7.4440   -1.6170 C   0  0  0  0  0  0  0  0  0  0  0  0
  -12.5150    8.5990    0.5890 C   0  0  0  0  0  0  0  0  0  0  0  0
   -5.6810    8.6590   -0.8870 C   0  0  1  0  0  0  0  0  0  0  0  0
   -5.8340    9.2090    0.5560 C   0  0  0  0  0  0  0  0  0  0  0  0
   -4.4050    9.5210    1.0690 C   0  0  0  0  0  0  0  0  0  0  0  0
   -3.5140    9.4570   -0.1930 C   0  0  1  0  0  0  0  0  0  0  0  0
   -3.7030   10.8420   -0.8880 C   0  0  0  0  0  0  0  0  0  0  0  0
   -2.0040    9.1310    0.0430 C   0  0  2  0  0  0  0  0  0  0  0  0
   -1.2360   10.1650    0.8840 C   0  0  0  0  0  0  0  0  0  0  0  0
   -0.5880   11.2640    0.1090 C   0  0  0  0  0  0  0  0  0  0  0  0
   -0.3770   11.2640   -1.2200 C   0  0  0  0  0  0  0  0  0  0  0  0
   -0.7180   10.0350   -2.0720 C   0  0  1  0  0  0  0  0  0  0  0  0
    0.4620    9.7240   -3.0300 C   0  0  0  0  0  0  0  0  0  0  0  0
    0.8600   10.9290   -3.8770 C   0  0  0  0  0  0  0  0  0  0  0  0
    1.2480   12.1120   -2.9940 C   0  0  2  0  0  0  0  0  0  0  0  0
    2.4500   11.7870   -2.2890 O   0  0  0  0  0  0  0  0  0  0  0  0
    0.1390   12.5100   -1.9810 C   0  0  0  0  0  0  0  0  0  0  0  0
   -1.0530   13.1470   -2.7370 C   0  0  0  0  0  0  0  0  0  0  0  0
    0.7110   13.6210   -1.0590 C   0  0  0  0  0  0  0  0  0  0  0  0
   -1.2090    8.7520   -1.2720 C   0  0  1  0  0  0  0  0  0  0  0  0
    0.0190    7.9040   -0.8220 C   0  0  0  0  0  0  0  0  0  0  0  0
   -2.0510    7.8360   -2.2370 C   0  0  0  0  0  0  0  0  0  0  0  0
   -3.5600    8.1320   -2.3360 C   0  0  0  0  0  0  0  0  0  0  0  0
   -4.1880    8.2510   -0.9440 C   0  0  2  0  0  0  0  0  0  0  0  0
   -4.0330    6.8650   -0.2300 C   0  0  0  0  0  0  0  0  0  0  0  0
   -8.3499    8.3458   -2.4086 H   0  0  0  0  0  0  0  0  0  0  0  0
   -6.7255    8.5823   -3.1380 H   0  0  0  0  0  0  0  0  0  0  0  0
   -7.4814    6.9529   -3.1380 H   0  0  0  0  0  0  0  0  0  0  0  0
   -6.2170    6.6071   -1.3016 H   0  0  0  0  0  0  0  0  0  0  0  0
   -7.3468    6.8286    0.6999 H   0  0  0  0  0  0  0  0  0  0  0  0
   -7.9313    8.5090    0.2780 H   0  0  0  0  0  0  0  0  0  0  0  0
   -9.2907    7.2398   -1.5725 H   0  0  0  0  0  0  0  0  0  0  0  0
   -9.0637    5.8296   -0.4558 H   0  0  0  0  0  0  0  0  0  0  0  0
   -9.5284    8.0355    0.9183 H   0  0  0  0  0  0  0  0  0  0  0  0
  -12.9161    6.8562   -1.6733 H   0  0  0  0  0  0  0  0  0  0  0  0
  -12.1368    8.4129   -2.1161 H   0  0  0  0  0  0  0  0  0  0  0  0
  -11.1757    6.8954   -2.1161 H   0  0  0  0  0  0  0  0  0  0  0  0
  -12.3630    8.4401    1.6668 H   0  0  0  0  0  0  0  0  0  0  0  0
  -12.2680    9.6400    0.3334 H   0  0  0  0  0  0  0  0  0  0  0  0
  -13.5659    8.3981    0.3334 H   0  0  0  0  0  0  0  0  0  0  0  0
   -5.9044    9.3828   -1.6846 H   0  0  0  0  0  0  0  0  0  0  0  0
   -6.4427   10.1252    0.5497 H   0  0  0  0  0  0  0  0  0  0  0  0
   -6.3364    8.4778    1.2064 H   0  0  0  0  0  0  0  0  0  0  0  0
   -4.3652   10.5227    1.5219 H   0  0  0  0  0  0  0  0  0  0  0  0
   -4.0778    8.8149    1.8465 H   0  0  0  0  0  0  0  0  0  0  0  0
   -3.8098   11.6248   -0.1226 H   0  0  0  0  0  0  0  0  0  0  0  0
   -2.8263   11.0600   -1.5156 H   0  0  0  0  0  0  0  0  0  0  0  0
   -4.6061   10.8171   -1.5156 H   0  0  0  0  0  0  0  0  0  0  0  0
   -2.0541    8.2217    0.6600 H   0  0  0  0  0  0  0  0  0  0  0  0
   -1.9440   10.6204    1.5921 H   0  0  0  0  0  0  0  0  0  0  0  0
   -0.4183    9.6136    1.3711 H   0  0  0  0  0  0  0  0  0  0  0  0
   -0.2549   12.1485    0.6718 H   0  0  0  0  0  0  0  0  0  0  0  0
   -1.6096   10.3078   -2.6556 H   0  0  0  0  0  0  0  0  0  0  0  0
    1.3300    9.4118   -2.4308 H   0  0  0  0  0  0  0  0  0  0  0  0
    0.1357    8.9273   -3.7147 H   0  0  0  0  0  0  0  0  0  0  0  0
    1.7168   10.6564   -4.5107 H   0  0  0  0  0  0  0  0  0  0  0  0
    0.0002   11.2213   -4.4978 H   0  0  0  0  0  0  0  0  0  0  0  0
    1.3968   12.9802   -3.6528 H   0  0  0  0  0  0  0  0  0  0  0  0
    3.1970   12.1320   -2.8070 H   0  0  0  0  0  0  0  0  0  0  0  0
   -1.7818   13.5364   -2.0109 H   0  0  0  0  0  0  0  0  0  0  0  0
   -0.6887   13.9706   -3.3686 H   0  0  0  0  0  0  0  0  0  0  0  0
   -1.5353   12.3864   -3.3686 H   0  0  0  0  0  0  0  0  0  0  0  0
    0.5642   13.3359   -0.0068 H   0  0  0  0  0  0  0  0  0  0  0  0
    1.7855   13.7459   -1.2586 H   0  0  0  0  0  0  0  0  0  0  0  0
    0.1885   14.5682   -1.2586 H   0  0  0  0  0  0  0  0  0  0  0  0
    0.0615    7.8747    0.2768 H   0  0  0  0  0  0  0  0  0  0  0  0
   -0.0793    6.8804   -1.2126 H   0  0  0  0  0  0  0  0  0  0  0  0
    0.9414    8.3585   -1.2126 H   0  0  0  0  0  0  0  0  0  0  0  0
   -1.6254    7.9363   -3.2464 H   0  0  0  0  0  0  0  0  0  0  0  0
   -1.9837    6.8261   -1.8062 H   0  0  0  0  0  0  0  0  0  0  0  0
   -3.7064    9.0775   -2.8788 H   0  0  0  0  0  0  0  0  0  0  0  0
   -4.0458    7.3021   -2.8701 H   0  0  0  0  0  0  0  0  0  0  0  0
   -4.0493    7.0103    0.8602 H   0  0  0  0  0  0  0  0  0  0  0  0
   -4.8630    6.2060   -0.5245 H   0  0  0  0  0  0  0  0  0  0  0  0
   -3.0779    6.4056   -0.5245 H   0  0  0  0  0  0  0  0  0  0  0  0
  1  2  1  0
  2  3  1  0
  3  4  1  0
  4  5  1  0
  5  6  1  0
  6  7  1  0
  7  8  1  0
  7  9  1  0
  2 10  1  0
 10 11  1  0
 11 12  1  0
 12 13  1  0
 13 14  1  6
 13 15  1  0
 15 16  1  0
 16 17  1  0
 17 18  2  0
 18 19  1  0
 19 20  1  0
 20 21  1  0
 21 22  1  0
 22 23  1  0
 22 24  1  0
 24 25  1  0
 24 26  1  0
 19 27  1  0
 27 28  1  1
 27 29  1  0
 29 30  1  0
 30 31  1  0
 31 32  1  1
  7  5  1  0
 31 10  1  0
 31 13  1  0
 27 15  1  0
 24 18  1  0
  1 33  1  0
  1 34  1  0
  1 35  1  0
  2 36  1  6
  3 37  1  0
  3 38  1  0
  4 39  1  0
  4 40  1  0
  5 41  1  1
  8 42  1  0
  8 43  1  0
  8 44  1  0
  9 45  1  0
  9 46  1  0
  9 47  1  0
 10 48  1  6
 11 49  1  0
 11 50  1  0
 12 51  1  0
 12 52  1  0
 14 53  1  0
 14 54  1  0
 14 55  1  0
 15 56  1  1
 16 57  1  0
 16 58  1  0
 17 59  1  0
 19 60  1  6
 20 61  1  0
 20 62  1  0
 21 63  1  0
 21 64  1  0
 22 65  1  6
 23 66  1  0
 25 67  1  0
 25 68  1  0
 25 69  1  0
 26 70  1  0
 26 71  1  0
 26 72  1  0
 28 73  1  0
 28 74  1  0
 28 75  1  0
 29 76  1  0
 29 77  1  0
 30 78  1  0
 30 79  1  0
 32 80  1  0
 32 81  1  0
 32 82  1  0
M  END
>  <meeko>  (12) 
{"is_sidechain": [false], "intermolecular_energy": 2.731, "internal_energy": -0.839}

$$$$
EPH_relaxed_0001_pdb2pqr_Repair_362_r2_0001_out
     RDKit          3D

 82 86  0  0  0  0  0  0  0  0999 V2000
   -0.8450   16.3510   -5.8250 C   0  0  0  0  0  0  0  0  0  0  0  0
    0.2330   15.6410   -6.6500 C   0  0  2  0  0  0  0  0  0  0  0  0
   -0.1890   15.4590   -8.1220 C   0  0  0  0  0  0  0  0  0  0  0  0
    0.4320   16.4870   -9.0710 C   0  0  0  0  0  0  0  0  0  0  0  0
    1.8390   16.1240   -9.4370 C   0  0  2  0  0  0  0  0  0  0  0  0
    2.3050   16.6980  -10.6660 O   0  0  0  0  0  0  0  0  0  0  0  0
    2.1970   15.2660  -10.6360 C   0  0  0  0  0  0  0  0  0  0  0  0
    1.1430   14.7160  -11.5450 C   0  0  0  0  0  0  0  0  0  0  0  0
    3.5180   14.5610  -10.6430 C   0  0  0  0  0  0  0  0  0  0  0  0
    0.5540   14.2870   -6.0290 C   0  0  1  0  0  0  0  0  0  0  0  0
    1.8230   13.6350   -6.6400 C   0  0  0  0  0  0  0  0  0  0  0  0
    2.5290   12.8680   -5.4930 C   0  0  0  0  0  0  0  0  0  0  0  0
    1.4850   12.8240   -4.3530 C   0  0  1  0  0  0  0  0  0  0  0  0
    0.5340   11.6440   -4.7260 C   0  0  0  0  0  0  0  0  0  0  0  0
    2.0510   12.6740   -2.9030 C   0  0  2  0  0  0  0  0  0  0  0  0
    2.8240   11.3700   -2.6360 C   0  0  0  0  0  0  0  0  0  0  0  0
    2.0000   10.2320   -2.1310 C   0  0  0  0  0  0  0  0  0  0  0  0
    0.7540   10.3300   -1.6320 C   0  0  0  0  0  0  0  0  0  0  0  0
    0.0850   11.6980   -1.4460 C   0  0  1  0  0  0  0  0  0  0  0  0
   -0.5670   11.7690   -0.0400 C   0  0  0  0  0  0  0  0  0  0  0  0
   -1.5250   10.6100    0.2190 C   0  0  0  0  0  0  0  0  0  0  0  0
   -0.8100    9.2690    0.0820 C   0  0  2  0  0  0  0  0  0  0  0  0
    0.1520    9.1500    1.1350 O   0  0  0  0  0  0  0  0  0  0  0  0
   -0.1060    9.0880   -1.2910 C   0  0  0  0  0  0  0  0  0  0  0  0
   -1.1700    8.9140   -2.4030 C   0  0  0  0  0  0  0  0  0  0  0  0
    0.6950    7.7580   -1.2460 C   0  0  0  0  0  0  0  0  0  0  0  0
    0.9940   12.9630   -1.7620 C   0  0  1  0  0  0  0  0  0  0  0  0
    1.8070   13.3630   -0.4930 C   0  0  0  0  0  0  0  0  0  0  0  0
    0.0680   14.1900   -2.1010 C   0  0  0  0  0  0  0  0  0  0  0  0
   -0.3600   14.3520   -3.5720 C   0  0  0  0  0  0  0  0  0  0  0  0
    0.8480   14.2530   -4.5080 C   0  0  2  0  0  0  0  0  0  0  0  0
    1.8120   15.4410   -4.1720 C   0  0  0  0  0  0  0  0  0  0  0  0
   -0.6366   16.2137   -4.7537 H   0  0  0  0  0  0  0  0  0  0  0  0
   -0.8422   17.4246   -6.0645 H   0  0  0  0  0  0  0  0  0  0  0  0
   -1.8303   15.9245   -6.0645 H   0  0  0  0  0  0  0  0  0  0  0  0
    1.1306   16.2768   -6.6401 H   0  0  0  0  0  0  0  0  0  0  0  0
    0.1171   14.4545   -8.4495 H   0  0  0  0  0  0  0  0  0  0  0  0
   -1.2792   15.5997   -8.1640 H   0  0  0  0  0  0  0  0  0  0  0  0
   -0.1734   16.5370   -9.9881 H   0  0  0  0  0  0  0  0  0  0  0  0
    0.4511   17.4598   -8.5579 H   0  0  0  0  0  0  0  0  0  0  0  0
    2.1248   16.0658   -8.3764 H   0  0  0  0  0  0  0  0  0  0  0  0
    0.3263   14.2898  -10.9438 H   0  0  0  0  0  0  0  0  0  0  0  0
    0.7485   15.5232  -12.1796 H   0  0  0  0  0  0  0  0  0  0  0  0
    1.5795   13.9307  -12.1796 H   0  0  0  0  0  0  0  0  0  0  0  0
    3.8458   14.3861   -9.6076 H   0  0  0  0  0  0  0  0  0  0  0  0
    3.4165   13.5971  -11.1633 H   0  0  0  0  0  0  0  0  0  0  0  0
    4.2622   15.1819  -11.1633 H   0  0  0  0  0  0  0  0  0  0  0  0
   -0.3874   13.7594   -6.2421 H   0  0  0  0  0  0  0  0  0  0  0  0
    1.5414   12.9389   -7.4439 H   0  0  0  0  0  0  0  0  0  0  0  0
    2.4881   14.3964   -7.0736 H   0  0  0  0  0  0  0  0  0  0  0  0
    2.7971   11.8505   -5.8136 H   0  0  0  0  0  0  0  0  0  0  0  0
    3.4662   13.3526   -5.1820 H   0  0  0  0  0  0  0  0  0  0  0  0
    0.1551   11.1738   -3.8066 H   0  0  0  0  0  0  0  0  0  0  0  0
   -0.3110   12.0269   -5.3171 H   0  0  0  0  0  0  0  0  0  0  0  0
    1.0876   10.8997   -5.3171 H   0  0  0  0  0  0  0  0  0  0  0  0
    2.7988   13.4794   -2.8569 H   0  0  0  0  0  0  0  0  0  0  0  0
    3.2962   11.0557   -3.5785 H   0  0  0  0  0  0  0  0  0  0  0  0
    3.5447   11.6015   -1.8379 H   0  0  0  0  0  0  0  0  0  0  0  0
    2.4493    9.2287   -2.1701 H   0  0  0  0  0  0  0  0  0  0  0  0
   -0.6924   11.7642   -2.2214 H   0  0  0  0  0  0  0  0  0  0  0  0
    0.2285   11.7455    0.7193 H   0  0  0  0  0  0  0  0  0  0  0  0
   -1.1485   12.7013    0.0121 H   0  0  0  0  0  0  0  0  0  0  0  0
   -1.9305   10.6991    1.2377 H   0  0  0  0  0  0  0  0  0  0  0  0
   -2.3356   10.6526   -0.5233 H   0  0  0  0  0  0  0  0  0  0  0  0
   -1.5732    8.4797    0.1497 H   0  0  0  0  0  0  0  0  0  0  0  0
    0.3320    8.2040    1.2640 H   0  0  0  0  0  0  0  0  0  0  0  0
   -2.1567    8.7526   -1.9443 H   0  0  0  0  0  0  0  0  0  0  0  0
   -1.1994    9.8193   -3.0272 H   0  0  0  0  0  0  0  0  0  0  0  0
   -0.9095    8.0465   -3.0272 H   0  0  0  0  0  0  0  0  0  0  0  0
    0.8686    7.4698   -0.1987 H   0  0  0  0  0  0  0  0  0  0  0  0
    0.1225    6.9678   -1.7537 H   0  0  0  0  0  0  0  0  0  0  0  0
    1.6612    7.8945   -1.7537 H   0  0  0  0  0  0  0  0  0  0  0  0
    1.2408   13.0845    0.4080 H   0  0  0  0  0  0  0  0  0  0  0  0
    2.7733   12.8375   -0.4959 H   0  0  0  0  0  0  0  0  0  0  0  0
    1.9803   14.4493   -0.4959 H   0  0  0  0  0  0  0  0  0  0  0  0
   -0.8464   14.0937   -1.4971 H   0  0  0  0  0  0  0  0  0  0  0  0
    0.6759   15.0794   -1.8786 H   0  0  0  0  0  0  0  0  0  0  0  0
   -1.0789   13.5594   -3.8271 H   0  0  0  0  0  0  0  0  0  0  0  0
   -0.8200   15.3434   -3.6965 H   0  0  0  0  0  0  0  0  0  0  0  0
    1.8975   15.5463   -3.0804 H   0  0  0  0  0  0  0  0  0  0  0  0
    2.8052   15.2395   -4.5998 H   0  0  0  0  0  0  0  0  0  0  0  0
    1.4103   16.3714   -4.5998 H   0  0  0  0  0  0  0  0  0  0  0  0
  1  2  1  0
  2  3  1  0
  3  4  1  0
  4  5  1  0
  5  6  1  0
  6  7  1  0
  7  8  1  0
  7  9  1  0
  2 10  1  0
 10 11  1  0
 11 12  1  0
 12 13  1  0
 13 14  1  6
 13 15  1  0
 15 16  1  0
 16 17  1  0
 17 18  2  0
 18 19  1  0
 19 20  1  0
 20 21  1  0
 21 22  1  0
 22 23  1  0
 22 24  1  0
 24 25  1  0
 24 26  1  0
 19 27  1  0
 27 28  1  1
 27 29  1  0
 29 30  1  0
 30 31  1  0
 31 32  1  1
  7  5  1  0
 31 10  1  0
 31 13  1  0
 27 15  1  0
 24 18  1  0
  1 33  1  0
  1 34  1  0
  1 35  1  0
  2 36  1  6
  3 37  1  0
  3 38  1  0
  4 39  1  0
  4 40  1  0
  5 41  1  1
  8 42  1  0
  8 43  1  0
  8 44  1  0
  9 45  1  0
  9 46  1  0
  9 47  1  0
 10 48  1  1
 11 49  1  0
 11 50  1  0
 12 51  1  0
 12 52  1  0
 14 53  1  0
 14 54  1  0
 14 55  1  0
 15 56  1  6
 16 57  1  0
 16 58  1  0
 17 59  1  0
 19 60  1  6
 20 61  1  0
 20 62  1  0
 21 63  1  0
 21 64  1  0
 22 65  1  1
 23 66  1  0
 25 67  1  0
 25 68  1  0
 25 69  1  0
 26 70  1  0
 26 71  1  0
 26 72  1  0
 28 73  1  0
 28 74  1  0
 28 75  1  0
 29 76  1  0
 29 77  1  0
 30 78  1  0
 30 79  1  0
 32 80  1  0
 32 81  1  0
 32 82  1  0
M  END
>  <meeko>  (13) 
{"is_sidechain": [false], "intermolecular_energy": 2.731, "internal_energy": -0.839}

$$$$
EPH_relaxed_0001_pdb2pqr_Repair_362_r2_0001_out
     RDKit          3D

 82 86  0  0  0  0  0  0  0  0999 V2000
   -3.8060    7.1800   -3.3400 C   0  0  0  0  0  0  0  0  0  0  0  0
   -3.8530    7.2840   -1.8130 C   0  0  2  0  0  0  0  0  0  0  0  0
   -5.2820    7.0990   -1.2620 C   0  0  0  0  0  0  0  0  0  0  0  0
   -6.3790    7.3460   -2.3010 C   0  0  0  0  0  0  0  0  0  0  0  0
   -7.7180    7.5410   -1.6580 C   0  0  2  0  0  0  0  0  0  0  0  0
   -8.2950    6.3500   -1.1050 O   0  0  0  0  0  0  0  0  0  0  0  0
   -9.0030    6.9470   -2.2040 C   0  0  0  0  0  0  0  0  0  0  0  0
   -9.0110    6.1130   -3.4470 C   0  0  0  0  0  0  0  0  0  0  0  0
  -10.3040    7.5750   -1.8130 C   0  0  0  0  0  0  0  0  0  0  0  0
   -3.2930    8.6290   -1.3660 C   0  0  1  0  0  0  0  0  0  0  0  0
   -3.8880    9.1050   -0.0140 C   0  0  0  0  0  0  0  0  0  0  0  0
   -2.7560    9.8550    0.7330 C   0  0  0  0  0  0  0  0  0  0  0  0
   -1.6620   10.0760   -0.3370 C   0  0  1  0  0  0  0  0  0  0  0  0
   -2.1340   11.3280   -1.1410 C   0  0  0  0  0  0  0  0  0  0  0  0
   -0.2010   10.2470    0.1940 C   0  0  2  0  0  0  0  0  0  0  0  0
    0.0260   11.4730    1.0950 C   0  0  0  0  0  0  0  0  0  0  0  0
    0.4370   12.7200    0.3840 C   0  0  0  0  0  0  0  0  0  0  0  0
    0.8930   12.7850   -0.8810 C   0  0  0  0  0  0  0  0  0  0  0  0
    1.1240   11.5100   -1.7010 C   0  0  1  0  0  0  0  0  0  0  0  0
    2.5050   11.5900   -2.4040 C   0  0  0  0  0  0  0  0  0  0  0  0
    2.6650   12.8570   -3.2380 C   0  0  0  0  0  0  0  0  0  0  0  0
    2.4850   14.1040   -2.3750 C   0  0  2  0  0  0  0  0  0  0  0  0
    3.5670   14.1780   -1.4420 O   0  0  0  0  0  0  0  0  0  0  0  0
    1.1320   14.1300   -1.6110 C   0  0  0  0  0  0  0  0  0  0  0  0
   -0.0270   14.3530   -2.6120 C   0  0  0  0  0  0  0  0  0  0  0  0
    1.1390   15.3660   -0.6720 C   0  0  0  0  0  0  0  0  0  0  0  0
    0.9120   10.1390   -0.9260 C   0  0  1  0  0  0  0  0  0  0  0  0
    2.2310    9.7260   -0.2040 C   0  0  0  0  0  0  0  0  0  0  0  0
    0.6020    9.0010   -1.9690 C   0  0  0  0  0  0  0  0  0  0  0  0
   -0.8740    8.8020   -2.3630 C   0  0  0  0  0  0  0  0  0  0  0  0
   -1.7660    8.7180   -1.1210 C   0  0  2  0  0  0  0  0  0  0  0  0
   -1.3300    7.4540   -0.3040 C   0  0  0  0  0  0  0  0  0  0  0  0
   -3.3688    6.2127   -3.6283 H   0  0  0  0  0  0  0  0  0  0  0  0
   -4.8261    7.2564   -3.7443 H   0  0  0  0  0  0  0  0  0  0  0  0
   -3.1893    7.9962   -3.7443 H   0  0  0  0  0  0  0  0  0  0  0  0
   -3.2343    6.4702   -1.4068 H   0  0  0  0  0  0  0  0  0  0  0  0
   -5.3805    6.0680   -0.8914 H   0  0  0  0  0  0  0  0  0  0  0  0
   -5.4189    7.8460   -0.4662 H   0  0  0  0  0  0  0  0  0  0  0  0
   -6.1264    8.2474   -2.8786 H   0  0  0  0  0  0  0  0  0  0  0  0
   -6.4377    6.4627   -2.9540 H   0  0  0  0  0  0  0  0  0  0  0  0
   -7.4493    8.5631   -1.3530 H   0  0  0  0  0  0  0  0  0  0  0  0
   -9.0212    5.0476   -3.1736 H   0  0  0  0  0  0  0  0  0  0  0  0
   -9.9069    6.3479   -4.0404 H   0  0  0  0  0  0  0  0  0  0  0  0
   -8.1107    6.3307   -4.0404 H   0  0  0  0  0  0  0  0  0  0  0  0
  -10.3787    7.6111   -0.7161 H   0  0  0  0  0  0  0  0  0  0  0  0
  -10.3543    8.5966   -2.2177 H   0  0  0  0  0  0  0  0  0  0  0  0
  -11.1352    6.9789   -2.2177 H   0  0  0  0  0  0  0  0  0  0  0  0
   -3.5707    9.2419   -2.2362 H   0  0  0  0  0  0  0  0  0  0  0  0
   -4.7377    9.7808   -0.1910 H   0  0  0  0  0  0  0  0  0  0  0  0
   -4.2552    8.2535    0.5777 H   0  0  0  0  0  0  0  0  0  0  0  0
   -3.1189   10.8178    1.1219 H   0  0  0  0  0  0  0  0  0  0  0  0
   -2.3831    9.2903    1.6002 H   0  0  0  0  0  0  0  0  0  0  0  0
   -2.4333   12.1219   -0.4409 H   0  0  0  0  0  0  0  0  0  0  0  0
   -1.3102   11.6890   -1.7743 H   0  0  0  0  0  0  0  0  0  0  0  0
   -2.9911   11.0553   -1.7743 H   0  0  0  0  0  0  0  0  0  0  0  0
   -0.0829    9.3700    0.8474 H   0  0  0  0  0  0  0  0  0  0  0  0
   -0.9127   11.6803    1.6296 H   0  0  0  0  0  0  0  0  0  0  0  0
    0.8630   11.2116    1.7592 H   0  0  0  0  0  0  0  0  0  0  0  0
    0.3607   13.6655    0.9409 H   0  0  0  0  0  0  0  0  0  0  0  0
    0.3226   11.4832   -2.4540 H   0  0  0  0  0  0  0  0  0  0  0  0
    3.2928   11.5714   -1.6365 H   0  0  0  0  0  0  0  0  0  0  0  0
    2.5827   10.7300   -3.0855 H   0  0  0  0  0  0  0  0  0  0  0  0
    3.6704   12.8699   -3.6842 H   0  0  0  0  0  0  0  0  0  0  0  0
    1.8956   12.8597   -4.0242 H   0  0  0  0  0  0  0  0  0  0  0  0
    2.4809   14.9741   -3.0480 H   0  0  0  0  0  0  0  0  0  0  0  0
    3.2290   14.5990   -0.6330 H   0  0  0  0  0  0  0  0  0  0  0  0
   -0.9603   14.5326   -2.0582 H   0  0  0  0  0  0  0  0  0  0  0  0
    0.1975   15.2244   -3.2446 H   0  0  0  0  0  0  0  0  0  0  0  0
   -0.1419   13.4605   -3.2446 H   0  0  0  0  0  0  0  0  0  0  0  0
    1.1371   15.0306    0.3756 H   0  0  0  0  0  0  0  0  0  0  0  0
    2.0406   15.9666   -0.8631 H   0  0  0  0  0  0  0  0  0  0  0  0
    0.2443   15.9767   -0.8631 H   0  0  0  0  0  0  0  0  0  0  0  0
    2.0829    9.7724    0.8850 H   0  0  0  0  0  0  0  0  0  0  0  0
    2.5019    8.7000   -0.4938 H   0  0  0  0  0  0  0  0  0  0  0  0
    3.0386   10.4143   -0.4938 H   0  0  0  0  0  0  0  0  0  0  0  0
    1.1634    9.2292   -2.8870 H   0  0  0  0  0  0  0  0  0  0  0  0
    0.8948    8.0657   -1.4695 H   0  0  0  0  0  0  0  0  0  0  0  0
   -1.1987    9.6509   -2.9826 H   0  0  0  0  0  0  0  0  0  0  0  0
   -0.9635    7.8599   -2.9237 H   0  0  0  0  0  0  0  0  0  0  0  0
   -1.4043    7.6694    0.7721 H   0  0  0  0  0  0  0  0  0  0  0  0
   -1.9889    6.6098   -0.5553 H   0  0  0  0  0  0  0  0  0  0  0  0
   -0.2908    7.1955   -0.5553 H   0  0  0  0  0  0  0  0  0  0  0  0
  1  2  1  0
  2  3  1  0
  3  4  1  0
  4  5  1  0
  5  6  1  0
  6  7  1  0
  7  8  1  0
  7  9  1  0
  2 10  1  0
 10 11  1  0
 11 12  1  0
 12 13  1  0
 13 14  1  6
 13 15  1  0
 15 16  1  0
 16 17  1  0
 17 18  2  0
 18 19  1  0
 19 20  1  0
 20 21  1  0
 21 22  1  0
 22 23  1  0
 22 24  1  0
 24 25  1  0
 24 26  1  0
 19 27  1  0
 27 28  1  1
 27 29  1  0
 29 30  1  0
 30 31  1  0
 31 32  1  1
  7  5  1  0
 31 10  1  0
 31 13  1  0
 27 15  1  0
 24 18  1  0
  1 33  1  0
  1 34  1  0
  1 35  1  0
  2 36  1  1
  3 37  1  0
  3 38  1  0
  4 39  1  0
  4 40  1  0
  5 41  1  1
  8 42  1  0
  8 43  1  0
  8 44  1  0
  9 45  1  0
  9 46  1  0
  9 47  1  0
 10 48  1  6
 11 49  1  0
 11 50  1  0
 12 51  1  0
 12 52  1  0
 14 53  1  0
 14 54  1  0
 14 55  1  0
 15 56  1  1
 16 57  1  0
 16 58  1  0
 17 59  1  0
 19 60  1  6
 20 61  1  0
 20 62  1  0
 21 63  1  0
 21 64  1  0
 22 65  1  6
 23 66  1  0
 25 67  1  0
 25 68  1  0
 25 69  1  0
 26 70  1  0
 26 71  1  0
 26 72  1  0
 28 73  1  0
 28 74  1  0
 28 75  1  0
 29 76  1  0
 29 77  1  0
 30 78  1  0
 30 79  1  0
 32 80  1  0
 32 81  1  0
 32 82  1  0
M  END
>  <meeko>  (14) 
{"is_sidechain": [false], "intermolecular_energy": 2.731, "internal_energy": -0.839}

$$$$
EPH_relaxed_0001_pdb2pqr_Repair_362_r2_0001_out
     RDKit          3D

 82 86  0  0  0  0  0  0  0  0999 V2000
    3.1270   18.6690   -1.9460 C   0  0  0  0  0  0  0  0  0  0  0  0
    2.3370   17.5960   -2.7010 C   0  0  2  0  0  0  0  0  0  0  0  0
    0.8700   18.0110   -2.9330 C   0  0  0  0  0  0  0  0  0  0  0  0
    0.4680   19.2920   -2.1970 C   0  0  0  0  0  0  0  0  0  0  0  0
   -0.6870   19.0600   -1.2710 C   0  0  2  0  0  0  0  0  0  0  0  0
   -1.0370   20.1870   -0.4560 O   0  0  0  0  0  0  0  0  0  0  0  0
   -0.5540   19.0270    0.2400 C   0  0  0  0  0  0  0  0  0  0  0  0
    0.7680   19.2260    0.9120 C   0  0  0  0  0  0  0  0  0  0  0  0
   -1.6080   18.3200    1.0350 C   0  0  0  0  0  0  0  0  0  0  0  0
    2.3910   16.2780   -1.9380 C   0  0  1  0  0  0  0  0  0  0  0  0
    2.7560   16.4680   -0.4420 C   0  0  0  0  0  0  0  0  0  0  0  0
    1.9680   15.3940    0.3510 C   0  0  0  0  0  0  0  0  0  0  0  0
    1.4430   14.4190   -0.7300 C   0  0  1  0  0  0  0  0  0  0  0  0
    2.6500   13.4820   -1.0450 C   0  0  0  0  0  0  0  0  0  0  0  0
    0.1600   13.6050   -0.3610 C   0  0  2  0  0  0  0  0  0  0  0  0
    0.3150   12.6510    0.8370 C   0  0  0  0  0  0  0  0  0  0  0  0
    0.7560   11.2660    0.4960 C   0  0  0  0  0  0  0  0  0  0  0  0
    0.7440   10.7220   -0.7360 C   0  0  0  0  0  0  0  0  0  0  0  0
    0.1600   11.4880   -1.9290 C   0  0  1  0  0  0  0  0  0  0  0  0
   -0.7710   10.5490   -2.7420 C   0  0  0  0  0  0  0  0  0  0  0  0
   -0.0760    9.2570   -3.1610 C   0  0  0  0  0  0  0  0  0  0  0  0
    0.4390    8.4950   -1.9430 C   0  0  2  0  0  0  0  0  0  0  0  0
   -0.6800    8.0410   -1.1760 O   0  0  0  0  0  0  0  0  0  0  0  0
    1.3800    9.3440   -1.0430 C   0  0  0  0  0  0  0  0  0  0  0  0
    2.7250    9.5810   -1.7730 C   0  0  0  0  0  0  0  0  0  0  0  0
    1.7150    8.5060    0.2210 C   0  0  0  0  0  0  0  0  0  0  0  0
   -0.5250   12.8820   -1.5910 C   0  0  1  0  0  0  0  0  0  0  0  0
   -2.0180   12.6610   -1.2020 C   0  0  0  0  0  0  0  0  0  0  0  0
   -0.5300   13.7790   -2.8850 C   0  0  0  0  0  0  0  0  0  0  0  0
    0.7150   14.6520   -3.1310 C   0  0  0  0  0  0  0  0  0  0  0  0
    1.0900   15.4400   -1.8720 C   0  0  2  0  0  0  0  0  0  0  0  0
   -0.0970   16.4080   -1.5430 C   0  0  0  0  0  0  0  0  0  0  0  0
    3.0130   18.5142   -0.8629 H   0  0  0  0  0  0  0  0  0  0  0  0
    4.1910   18.5993   -2.2164 H   0  0  0  0  0  0  0  0  0  0  0  0
    2.7444   19.6643   -2.2164 H   0  0  0  0  0  0  0  0  0  0  0  0
    2.8055   17.4732   -3.6886 H   0  0  0  0  0  0  0  0  0  0  0  0
    0.7203   18.1687   -4.0113 H   0  0  0  0  0  0  0  0  0  0  0  0
    0.2406   17.2013   -2.5353 H   0  0  0  0  0  0  0  0  0  0  0  0
    1.3273   19.6516   -1.6119 H   0  0  0  0  0  0  0  0  0  0  0  0
    0.1622   20.0366   -2.9467 H   0  0  0  0  0  0  0  0  0  0  0  0
   -1.1515   18.3653   -1.9863 H   0  0  0  0  0  0  0  0  0  0  0  0
    0.6314   19.2054    2.0033 H   0  0  0  0  0  0  0  0  0  0  0  0
    1.4559   18.4213    0.6134 H   0  0  0  0  0  0  0  0  0  0  0  0
    1.1886   20.1976    0.6134 H   0  0  0  0  0  0  0  0  0  0  0  0
   -1.4088   18.4536    2.1085 H   0  0  0  0  0  0  0  0  0  0  0  0
   -2.5950   18.7394    0.7902 H   0  0  0  0  0  0  0  0  0  0  0  0
   -1.5943   17.2477    0.7902 H   0  0  0  0  0  0  0  0  0  0  0  0
    3.1480   15.7501   -2.5365 H   0  0  0  0  0  0  0  0  0  0  0  0
    3.8374   16.3295   -0.2955 H   0  0  0  0  0  0  0  0  0  0  0  0
    2.4983   17.4807   -0.0983 H   0  0  0  0  0  0  0  0  0  0  0  0
    2.6284   14.8709    1.0582 H   0  0  0  0  0  0  0  0  0  0  0  0
    1.1551   15.8301    0.9502 H   0  0  0  0  0  0  0  0  0  0  0  0
    3.0991   13.1334   -0.1033 H   0  0  0  0  0  0  0  0  0  0  0  0
    2.3002   12.6165   -1.6269 H   0  0  0  0  0  0  0  0  0  0  0  0
    3.4017   14.0354   -1.6269 H   0  0  0  0  0  0  0  0  0  0  0  0
   -0.5320   14.3927   -0.0283 H   0  0  0  0  0  0  0  0  0  0  0  0
    1.0572   13.0848    1.5232 H   0  0  0  0  0  0  0  0  0  0  0  0
   -0.6876   12.5513    1.2785 H   0  0  0  0  0  0  0  0  0  0  0  0
    1.1216   10.6366    1.3207 H   0  0  0  0  0  0  0  0  0  0  0  0
    1.0192   11.7889   -2.5464 H   0  0  0  0  0  0  0  0  0  0  0  0
   -1.6440   10.2952   -2.1227 H   0  0  0  0  0  0  0  0  0  0  0  0
   -1.0661   11.0820   -3.6579 H   0  0  0  0  0  0  0  0  0  0  0  0
   -0.7916    8.6236   -3.7058 H   0  0  0  0  0  0  0  0  0  0  0  0
    0.7797    9.5111   -3.8038 H   0  0  0  0  0  0  0  0  0  0  0  0
    1.0369    7.6485   -2.3117 H   0  0  0  0  0  0  0  0  0  0  0  0
   -1.4460    8.5860   -1.4220 H   0  0  0  0  0  0  0  0  0  0  0  0
    3.5249    9.7220   -1.0312 H   0  0  0  0  0  0  0  0  0  0  0  0
    2.9586    8.7102   -2.4032 H   0  0  0  0  0  0  0  0  0  0  0  0
    2.6469   10.4792   -2.4032 H   0  0  0  0  0  0  0  0  0  0  0  0
    1.4808    9.0919    1.1220 H   0  0  0  0  0  0  0  0  0  0  0  0
    1.1168    7.5829    0.2181 H   0  0  0  0  0  0  0  0  0  0  0  0
    2.7847    8.2497    0.2181 H   0  0  0  0  0  0  0  0  0  0  0  0
   -2.1132   12.6469   -0.1062 H   0  0  0  0  0  0  0  0  0  0  0  0
   -2.6288   13.4785   -1.6126 H   0  0  0  0  0  0  0  0  0  0  0  0
   -2.3657   11.7016   -1.6126 H   0  0  0  0  0  0  0  0  0  0  0  0
   -0.6448   13.1116   -3.7518 H   0  0  0  0  0  0  0  0  0  0  0  0
   -1.3556   14.4909   -2.7380 H   0  0  0  0  0  0  0  0  0  0  0  0
    1.5579   14.0047   -3.4147 H   0  0  0  0  0  0  0  0  0  0  0  0
    0.4891   15.3657   -3.9370 H   0  0  0  0  0  0  0  0  0  0  0  0
   -0.2060   16.4969   -0.4520 H   0  0  0  0  0  0  0  0  0  0  0  0
    0.1084   17.3994   -1.9730 H   0  0  0  0  0  0  0  0  0  0  0  0
   -1.0268   16.0073   -1.9730 H   0  0  0  0  0  0  0  0  0  0  0  0
  1  2  1  0
  2  3  1  0
  3  4  1  0
  4  5  1  0
  5  6  1  0
  6  7  1  0
  7  8  1  0
  7  9  1  0
  2 10  1  0
 10 11  1  0
 11 12  1  0
 12 13  1  0
 13 14  1  6
 13 15  1  0
 15 16  1  0
 16 17  1  0
 17 18  2  0
 18 19  1  0
 19 20  1  0
 20 21  1  0
 21 22  1  0
 22 23  1  0
 22 24  1  0
 24 25  1  0
 24 26  1  0
 19 27  1  0
 27 28  1  1
 27 29  1  0
 29 30  1  0
 30 31  1  0
 31 32  1  1
  7  5  1  0
 31 10  1  0
 31 13  1  0
 27 15  1  0
 24 18  1  0
  1 33  1  0
  1 34  1  0
  1 35  1  0
  2 36  1  6
  3 37  1  0
  3 38  1  0
  4 39  1  0
  4 40  1  0
  5 41  1  6
  8 42  1  0
  8 43  1  0
  8 44  1  0
  9 45  1  0
  9 46  1  0
  9 47  1  0
 10 48  1  6
 11 49  1  0
 11 50  1  0
 12 51  1  0
 12 52  1  0
 14 53  1  0
 14 54  1  0
 14 55  1  0
 15 56  1  1
 16 57  1  0
 16 58  1  0
 17 59  1  0
 19 60  1  6
 20 61  1  0
 20 62  1  0
 21 63  1  0
 21 64  1  0
 22 65  1  6
 23 66  1  0
 25 67  1  0
 25 68  1  0
 25 69  1  0
 26 70  1  0
 26 71  1  0
 26 72  1  0
 28 73  1  0
 28 74  1  0
 28 75  1  0
 29 76  1  0
 29 77  1  0
 30 78  1  0
 30 79  1  0
 32 80  1  0
 32 81  1  0
 32 82  1  0
M  END
>  <meeko>  (15) 
{"is_sidechain": [false], "intermolecular_energy": 2.731, "internal_energy": -0.839}

$$$$
EPH_relaxed_0001_pdb2pqr_Repair_362_r2_0001_out
     RDKit          3D

 82 86  0  0  0  0  0  0  0  0999 V2000
    0.0320    9.2700   -2.2950 C   0  0  0  0  0  0  0  0  0  0  0  0
    1.0010   10.3310   -2.8250 C   0  0  2  0  0  0  0  0  0  0  0  0
    2.4240    9.7710   -3.0230 C   0  0  0  0  0  0  0  0  0  0  0  0
    3.3580   10.7190   -3.7800 C   0  0  0  0  0  0  0  0  0  0  0  0
    4.7610   10.6470   -3.2600 C   0  0  2  0  0  0  0  0  0  0  0  0
    5.4730   11.8920   -3.2820 O   0  0  0  0  0  0  0  0  0  0  0  0
    5.9880   10.8520   -4.1290 C   0  0  0  0  0  0  0  0  0  0  0  0
    5.8670   11.1440   -5.5920 C   0  0  0  0  0  0  0  0  0  0  0  0
    7.2950   10.2900   -3.6660 C   0  0  0  0  0  0  0  0  0  0  0  0
    1.0370   11.5220   -1.8740 C   0  0  1  0  0  0  0  0  0  0  0  0
    2.1050   11.3640   -0.7590 C   0  0  0  0  0  0  0  0  0  0  0  0
    2.6670   12.7810   -0.4740 C   0  0  0  0  0  0  0  0  0  0  0  0
    1.6840   13.7400   -1.1860 C   0  0  1  0  0  0  0  0  0  0  0  0
    0.4810   13.8830   -0.2020 C   0  0  0  0  0  0  0  0  0  0  0  0
    2.2590   15.1340   -1.6010 C   0  0  2  0  0  0  0  0  0  0  0  0
    2.7320   16.0190   -0.4350 C   0  0  0  0  0  0  0  0  0  0  0  0
    1.6960   16.9300    0.1360 C   0  0  0  0  0  0  0  0  0  0  0  0
    0.5240   17.2430   -0.4470 C   0  0  0  0  0  0  0  0  0  0  0  0
    0.1840   16.7370   -1.8540 C   0  0  1  0  0  0  0  0  0  0  0  0
   -0.3810   17.9070   -2.7020 C   0  0  0  0  0  0  0  0  0  0  0  0
   -1.5620   18.6000   -2.0300 C   0  0  0  0  0  0  0  0  0  0  0  0
   -1.1680   19.1400   -0.6580 C   0  0  2  0  0  0  0  0  0  0  0  0
   -0.2170   20.1940   -0.8330 O   0  0  0  0  0  0  0  0  0  0  0  0
   -0.5770   18.0530    0.2820 C   0  0  0  0  0  0  0  0  0  0  0  0
   -1.6960   17.0730    0.7140 C   0  0  0  0  0  0  0  0  0  0  0  0
   -0.0910   18.7550    1.5790 C   0  0  0  0  0  0  0  0  0  0  0  0
    1.3380   15.9420   -2.6030 C   0  0  1  0  0  0  0  0  0  0  0  0
    2.2690   16.9400   -3.3570 C   0  0  0  0  0  0  0  0  0  0  0  0
    0.6950   15.0170   -3.7030 C   0  0  0  0  0  0  0  0  0  0  0  0
    0.2570   13.6090   -3.2580 C   0  0  0  0  0  0  0  0  0  0  0  0
    1.3750   12.9060   -2.4820 C   0  0  2  0  0  0  0  0  0  0  0  0
    2.5920   12.7290   -3.4530 C   0  0  0  0  0  0  0  0  0  0  0  0
    0.0420    9.2810   -1.1951 H   0  0  0  0  0  0  0  0  0  0  0  0
   -0.9842    9.4892   -2.6546 H   0  0  0  0  0  0  0  0  0  0  0  0
    0.3422    8.2778   -2.6546 H   0  0  0  0  0  0  0  0  0  0  0  0
    0.6335   10.6528   -3.8106 H   0  0  0  0  0  0  0  0  0  0  0  0
    2.8597    9.5714   -2.0329 H   0  0  0  0  0  0  0  0  0  0  0  0
    2.3292    8.8592   -3.6310 H   0  0  0  0  0  0  0  0  0  0  0  0
    3.3581   10.4441   -4.8451 H   0  0  0  0  0  0  0  0  0  0  0  0
    2.9921   11.7466   -3.6380 H   0  0  0  0  0  0  0  0  0  0  0  0
    4.4824    9.8520   -2.5527 H   0  0  0  0  0  0  0  0  0  0  0  0
    5.4493   12.1520   -5.7314 H   0  0  0  0  0  0  0  0  0  0  0  0
    6.8611   11.0911   -6.0599 H   0  0  0  0  0  0  0  0  0  0  0  0
    5.2017   10.4035   -6.0599 H   0  0  0  0  0  0  0  0  0  0  0  0
    7.3205   10.2790   -2.5663 H   0  0  0  0  0  0  0  0  0  0  0  0
    7.4079    9.2638   -4.0456 H   0  0  0  0  0  0  0  0  0  0  0  0
    8.1175   10.9140   -4.0456 H   0  0  0  0  0  0  0  0  0  0  0  0
   -0.0052   11.5097   -1.5223 H   0  0  0  0  0  0  0  0  0  0  0  0
    1.6451   10.9490    0.1500 H   0  0  0  0  0  0  0  0  0  0  0  0
    2.9051   10.6775   -1.0728 H   0  0  0  0  0  0  0  0  0  0  0  0
    2.6890   12.9799    0.6076 H   0  0  0  0  0  0  0  0  0  0  0  0
    3.7001   12.9003   -0.8324 H   0  0  0  0  0  0  0  0  0  0  0  0
    0.8477   13.8394    0.8342 H   0  0  0  0  0  0  0  0  0  0  0  0
   -0.0202   14.8471   -0.3733 H   0  0  0  0  0  0  0  0  0  0  0  0
   -0.2323   13.0633   -0.3733 H   0  0  0  0  0  0  0  0  0  0  0  0
    3.1690   14.8583   -2.1541 H   0  0  0  0  0  0  0  0  0  0  0  0
    3.0854   15.3590    0.3709 H   0  0  0  0  0  0  0  0  0  0  0  0
    3.5164   16.6709   -0.8469 H   0  0  0  0  0  0  0  0  0  0  0  0
    1.9085   17.3834    1.1154 H   0  0  0  0  0  0  0  0  0  0  0  0
   -0.5882   15.9649   -1.7213 H   0  0  0  0  0  0  0  0  0  0  0  0
    0.4183   18.6461   -2.8597 H   0  0  0  0  0  0  0  0  0  0  0  0
   -0.7381   17.4871   -3.6539 H   0  0  0  0  0  0  0  0  0  0  0  0
   -1.8973   19.4349   -2.6629 H   0  0  0  0  0  0  0  0  0  0  0  0
   -2.3719   17.8671   -1.8998 H   0  0  0  0  0  0  0  0  0  0  0  0
   -2.0842   19.5084   -0.1733 H   0  0  0  0  0  0  0  0  0  0  0  0
    0.3750   20.1880   -0.0620 H   0  0  0  0  0  0  0  0  0  0  0  0
   -1.7433   17.0316    1.8122 H   0  0  0  0  0  0  0  0  0  0  0  0
   -2.6614   17.4214    0.3183 H   0  0  0  0  0  0  0  0  0  0  0  0
   -1.4780   16.0701    0.3183 H   0  0  0  0  0  0  0  0  0  0  0  0
   -0.4693   18.2085    2.4555 H   0  0  0  0  0  0  0  0  0  0  0  0
    1.0087   18.7656    1.6001 H   0  0  0  0  0  0  0  0  0  0  0  0
   -0.4682   19.7881    1.6001 H   0  0  0  0  0  0  0  0  0  0  0  0
    2.8300   17.5414   -2.6265 H   0  0  0  0  0  0  0  0  0  0  0  0
    2.9736   16.3787   -3.9882 H   0  0  0  0  0  0  0  0  0  0  0  0
    1.6601   17.6040   -3.9882 H   0  0  0  0  0  0  0  0  0  0  0  0
   -0.1938   15.5338   -4.0941 H   0  0  0  0  0  0  0  0  0  0  0  0
    1.4936   14.8499   -4.4408 H   0  0  0  0  0  0  0  0  0  0  0  0
   -0.6296   13.6953   -2.6126 H   0  0  0  0  0  0  0  0  0  0  0  0
    0.0250   13.0146   -4.1540 H   0  0  0  0  0  0  0  0  0  0  0  0
    3.5128   12.5951   -2.8663 H   0  0  0  0  0  0  0  0  0  0  0  0
    2.4295   11.8450   -4.0872 H   0  0  0  0  0  0  0  0  0  0  0  0
    2.6881   13.6226   -4.0872 H   0  0  0  0  0  0  0  0  0  0  0  0
  1  2  1  0
  2  3  1  0
  3  4  1  0
  4  5  1  0
  5  6  1  0
  6  7  1  0
  7  8  1  0
  7  9  1  0
  2 10  1  0
 10 11  1  0
 11 12  1  0
 12 13  1  0
 13 14  1  1
 13 15  1  0
 15 16  1  0
 16 17  1  0
 17 18  2  0
 18 19  1  0
 19 20  1  0
 20 21  1  0
 21 22  1  0
 22 23  1  0
 22 24  1  0
 24 25  1  0
 24 26  1  0
 19 27  1  0
 27 28  1  6
 27 29  1  0
 29 30  1  0
 30 31  1  0
 31 32  1  6
  7  5  1  0
 31 10  1  0
 31 13  1  0
 27 15  1  0
 24 18  1  0
  1 33  1  0
  1 34  1  0
  1 35  1  0
  2 36  1  6
  3 37  1  0
  3 38  1  0
  4 39  1  0
  4 40  1  0
  5 41  1  1
  8 42  1  0
  8 43  1  0
  8 44  1  0
  9 45  1  0
  9 46  1  0
  9 47  1  0
 10 48  1  1
 11 49  1  0
 11 50  1  0
 12 51  1  0
 12 52  1  0
 14 53  1  0
 14 54  1  0
 14 55  1  0
 15 56  1  6
 16 57  1  0
 16 58  1  0
 17 59  1  0
 19 60  1  1
 20 61  1  0
 20 62  1  0
 21 63  1  0
 21 64  1  0
 22 65  1  1
 23 66  1  0
 25 67  1  0
 25 68  1  0
 25 69  1  0
 26 70  1  0
 26 71  1  0
 26 72  1  0
 28 73  1  0
 28 74  1  0
 28 75  1  0
 29 76  1  0
 29 77  1  0
 30 78  1  0
 30 79  1  0
 32 80  1  0
 32 81  1  0
 32 82  1  0
M  END
>  <meeko>  (16) 
{"is_sidechain": [false], "intermolecular_energy": 2.731, "internal_energy": -0.839}

$$$$
EPH_relaxed_0001_pdb2pqr_Repair_362_r2_0001_out
     RDKit          3D

 82 86  0  0  0  0  0  0  0  0999 V2000
   -3.2190    7.4830   -0.7960 C   0  0  0  0  0  0  0  0  0  0  0  0
   -3.1190    8.8540   -0.1200 C   0  0  2  0  0  0  0  0  0  0  0  0
   -4.5040    9.4290    0.2350 C   0  0  0  0  0  0  0  0  0  0  0  0
   -5.5650    8.3580    0.5060 C   0  0  0  0  0  0  0  0  0  0  0  0
   -6.7300    8.4820   -0.4290 C   0  0  2  0  0  0  0  0  0  0  0  0
   -7.8380    7.6280   -0.1200 O   0  0  0  0  0  0  0  0  0  0  0  0
   -7.1710    7.3750   -1.3670 C   0  0  0  0  0  0  0  0  0  0  0  0
   -6.4530    6.0630   -1.4180 C   0  0  0  0  0  0  0  0  0  0  0  0
   -7.9840    7.7380   -2.5710 C   0  0  0  0  0  0  0  0  0  0  0  0
   -2.3670    9.8250   -1.0220 C   0  0  1  0  0  0  0  0  0  0  0  0
   -3.0370   11.2230   -1.0850 C   0  0  0  0  0  0  0  0  0  0  0  0
   -1.8930   12.2620   -1.2050 C   0  0  0  0  0  0  0  0  0  0  0  0
   -0.6370   11.4230   -1.5410 C   0  0  1  0  0  0  0  0  0  0  0  0
   -0.7300   11.1600   -3.0770 C   0  0  0  0  0  0  0  0  0  0  0  0
    0.7390   12.0500   -1.1440 C   0  0  2  0  0  0  0  0  0  0  0  0
    1.0810   13.3740   -1.8500 C   0  0  0  0  0  0  0  0  0  0  0  0
    1.8300   13.2380   -3.1340 C   0  0  0  0  0  0  0  0  0  0  0  0
    2.4620   12.1260   -3.5560 C   0  0  0  0  0  0  0  0  0  0  0  0
    2.5440   10.8800   -2.6660 C   0  0  1  0  0  0  0  0  0  0  0  0
    3.9970   10.3370   -2.6680 C   0  0  0  0  0  0  0  0  0  0  0  0
    4.5240   10.0830   -4.0770 C   0  0  0  0  0  0  0  0  0  0  0  0
    4.4810   11.3590   -4.9140 C   0  0  2  0  0  0  0  0  0  0  0  0
    5.4140   12.2980   -4.3710 O   0  0  0  0  0  0  0  0  0  0  0  0
    3.0670   12.0030   -4.9760 C   0  0  0  0  0  0  0  0  0  0  0  0
    2.1280   11.1150   -5.8300 C   0  0  0  0  0  0  0  0  0  0  0  0
    3.1920   13.3540   -5.7300 C   0  0  0  0  0  0  0  0  0  0  0  0
    1.9530   11.0360   -1.1990 C   0  0  1  0  0  0  0  0  0  0  0  0
    3.0470   11.6000   -0.2420 C   0  0  0  0  0  0  0  0  0  0  0  0
    1.5690    9.6130   -0.6450 C   0  0  0  0  0  0  0  0  0  0  0  0
    0.1530    9.1000   -0.9690 C   0  0  0  0  0  0  0  0  0  0  0  0
   -0.9030   10.1610   -0.6430 C   0  0  2  0  0  0  0  0  0  0  0  0
   -0.8490   10.4300    0.9000 C   0  0  0  0  0  0  0  0  0  0  0  0
   -3.2762    6.6984   -0.0272 H   0  0  0  0  0  0  0  0  0  0  0  0
   -4.1221    7.4484   -1.4231 H   0  0  0  0  0  0  0  0  0  0  0  0
   -2.3305    7.3177   -1.4231 H   0  0  0  0  0  0  0  0  0  0  0  0
   -2.5671    8.7187    0.8218 H   0  0  0  0  0  0  0  0  0  0  0  0
   -4.4009   10.0514    1.1361 H   0  0  0  0  0  0  0  0  0  0  0  0
   -4.8454   10.0059   -0.6371 H   0  0  0  0  0  0  0  0  0  0  0  0
   -5.1096    7.3649    0.3783 H   0  0  0  0  0  0  0  0  0  0  0  0
   -5.9341    8.4935    1.5333 H   0  0  0  0  0  0  0  0  0  0  0  0
   -6.5130    9.5474   -0.5961 H   0  0  0  0  0  0  0  0  0  0  0  0
   -6.2601    5.7105   -0.3940 H   0  0  0  0  0  0  0  0  0  0  0  0
   -7.0734    5.3259   -1.9487 H   0  0  0  0  0  0  0  0  0  0  0  0
   -5.4977    6.1882   -1.9487 H   0  0  0  0  0  0  0  0  0  0  0  0
   -8.9445    8.1668   -2.2492 H   0  0  0  0  0  0  0  0  0  0  0  0
   -7.4362    8.4770   -3.1741 H   0  0  0  0  0  0  0  0  0  0  0  0
   -8.1685    6.8368   -3.1741 H   0  0  0  0  0  0  0  0  0  0  0  0
   -2.3903    9.2565   -1.9634 H   0  0  0  0  0  0  0  0  0  0  0  0
   -3.6997   11.2864   -1.9607 H   0  0  0  0  0  0  0  0  0  0  0  0
   -3.6474   11.4092   -0.1890 H   0  0  0  0  0  0  0  0  0  0  0  0
   -2.1053   12.9822   -2.0089 H   0  0  0  0  0  0  0  0  0  0  0  0
   -1.7668   12.8515   -0.2849 H   0  0  0  0  0  0  0  0  0  0  0  0
   -1.0920   10.1362   -3.2524 H   0  0  0  0  0  0  0  0  0  0  0  0
   -1.4285   11.8787   -3.5304 H   0  0  0  0  0  0  0  0  0  0  0  0
    0.2650   11.2798   -3.5304 H   0  0  0  0  0  0  0  0  0  0  0  0
    0.5845   12.3069   -0.0856 H   0  0  0  0  0  0  0  0  0  0  0  0
    0.1382   13.9000   -2.0608 H   0  0  0  0  0  0  0  0  0  0  0  0
    1.7473   13.9199   -1.1659 H   0  0  0  0  0  0  0  0  0  0  0  0
    1.8691   14.1198   -3.7905 H   0  0  0  0  0  0  0  0  0  0  0  0
    1.8680   10.1388   -3.1173 H   0  0  0  0  0  0  0  0  0  0  0  0
    4.6492   11.0728   -2.1748 H   0  0  0  0  0  0  0  0  0  0  0  0
    3.9952    9.3756   -2.1335 H   0  0  0  0  0  0  0  0  0  0  0  0
    5.5634    9.7286   -4.0141 H   0  0  0  0  0  0  0  0  0  0  0  0
    3.8879    9.3257   -4.5585 H   0  0  0  0  0  0  0  0  0  0  0  0
    4.7472   11.0863   -5.9459 H   0  0  0  0  0  0  0  0  0  0  0  0
    6.0390   11.8030   -3.8140 H   0  0  0  0  0  0  0  0  0  0  0  0
    1.4903   10.5120   -5.1669 H   0  0  0  0  0  0  0  0  0  0  0  0
    1.4963   11.7538   -6.4648 H   0  0  0  0  0  0  0  0  0  0  0  0
    2.7306   10.4487   -6.4648 H   0  0  0  0  0  0  0  0  0  0  0  0
    3.2679   14.1748   -5.0016 H   0  0  0  0  0  0  0  0  0  0  0  0
    4.0926   13.3396   -6.3614 H   0  0  0  0  0  0  0  0  0  0  0  0
    2.3040   13.5051   -6.3614 H   0  0  0  0  0  0  0  0  0  0  0  0
    2.7385   11.4409    0.8018 H   0  0  0  0  0  0  0  0  0  0  0  0
    3.9988   11.0802   -0.4263 H   0  0  0  0  0  0  0  0  0  0  0  0
    3.1756   12.6768   -0.4263 H   0  0  0  0  0  0  0  0  0  0  0  0
    2.2875    8.8900   -1.0585 H   0  0  0  0  0  0  0  0  0  0  0  0
    1.5948    9.7140    0.4500 H   0  0  0  0  0  0  0  0  0  0  0  0
    0.0961    8.8527   -2.0393 H   0  0  0  0  0  0  0  0  0  0  0  0
   -0.0454    8.2081   -0.3565 H   0  0  0  0  0  0  0  0  0  0  0  0
   -1.0373    9.4918    1.4426 H   0  0  0  0  0  0  0  0  0  0  0  0
    0.1447   10.8167    1.1702 H   0  0  0  0  0  0  0  0  0  0  0  0
   -1.6165   11.1703    1.1702 H   0  0  0  0  0  0  0  0  0  0  0  0
  1  2  1  0
  2  3  1  0
  3  4  1  0
  4  5  1  0
  5  6  1  0
  6  7  1  0
  7  8  1  0
  7  9  1  0
  2 10  1  0
 10 11  1  0
 11 12  1  0
 12 13  1  0
 13 14  1  6
 13 15  1  0
 15 16  1  0
 16 17  1  0
 17 18  2  0
 18 19  1  0
 19 20  1  0
 20 21  1  0
 21 22  1  0
 22 23  1  0
 22 24  1  0
 24 25  1  0
 24 26  1  0
 19 27  1  0
 27 28  1  1
 27 29  1  0
 29 30  1  0
 30 31  1  0
 31 32  1  1
  7  5  1  0
 31 10  1  0
 31 13  1  0
 27 15  1  0
 24 18  1  0
  1 33  1  0
  1 34  1  0
  1 35  1  0
  2 36  1  1
  3 37  1  0
  3 38  1  0
  4 39  1  0
  4 40  1  0
  5 41  1  6
  8 42  1  0
  8 43  1  0
  8 44  1  0
  9 45  1  0
  9 46  1  0
  9 47  1  0
 10 48  1  6
 11 49  1  0
 11 50  1  0
 12 51  1  0
 12 52  1  0
 14 53  1  0
 14 54  1  0
 14 55  1  0
 15 56  1  1
 16 57  1  0
 16 58  1  0
 17 59  1  0
 19 60  1  6
 20 61  1  0
 20 62  1  0
 21 63  1  0
 21 64  1  0
 22 65  1  6
 23 66  1  0
 25 67  1  0
 25 68  1  0
 25 69  1  0
 26 70  1  0
 26 71  1  0
 26 72  1  0
 28 73  1  0
 28 74  1  0
 28 75  1  0
 29 76  1  0
 29 77  1  0
 30 78  1  0
 30 79  1  0
 32 80  1  0
 32 81  1  0
 32 82  1  0
M  END
>  <meeko>  (17) 
{"is_sidechain": [false], "intermolecular_energy": 2.731, "internal_energy": -0.839}

$$$$
EPH_relaxed_0001_pdb2pqr_Repair_362_r2_0001_out
     RDKit          3D

 82 86  0  0  0  0  0  0  0  0999 V2000
  -14.2030    5.5570    0.2940 C   0  0  0  0  0  0  0  0  0  0  0  0
  -13.6850    6.9930    0.1850 C   0  0  2  0  0  0  0  0  0  0  0  0
  -14.8100    7.9920   -0.1550 C   0  0  0  0  0  0  0  0  0  0  0  0
  -14.4380    9.4530    0.1100 C   0  0  0  0  0  0  0  0  0  0  0  0
  -15.2030   10.3900   -0.7740 C   0  0  2  0  0  0  0  0  0  0  0  0
  -15.1880   10.0450   -2.1660 O   0  0  0  0  0  0  0  0  0  0  0  0
  -14.5490   11.2820   -1.8120 C   0  0  0  0  0  0  0  0  0  0  0  0
  -13.0660   11.2820   -2.0190 C   0  0  0  0  0  0  0  0  0  0  0  0
  -15.2880   12.4980   -2.2780 C   0  0  0  0  0  0  0  0  0  0  0  0
  -12.5850    7.0710   -0.8660 C   0  0  1  0  0  0  0  0  0  0  0  0
  -12.8600    8.1550   -1.9420 C   0  0  0  0  0  0  0  0  0  0  0  0
  -11.4850    8.7500   -2.3400 C   0  0  0  0  0  0  0  0  0  0  0  0
  -10.4480    7.7740   -1.7360 C   0  0  1  0  0  0  0  0  0  0  0  0
  -10.3720    6.5920   -2.7530 C   0  0  0  0  0  0  0  0  0  0  0  0
   -9.0340    8.3680   -1.4350 C   0  0  2  0  0  0  0  0  0  0  0  0
   -8.2650    8.8810   -2.6650 C   0  0  0  0  0  0  0  0  0  0  0  0
   -7.3900    7.8740   -3.3350 C   0  0  0  0  0  0  0  0  0  0  0  0
   -7.0050    6.6970   -2.8070 C   0  0  0  0  0  0  0  0  0  0  0  0
   -7.3770    6.3210   -1.3670 C   0  0  1  0  0  0  0  0  0  0  0  0
   -6.1270    5.7640   -0.6370 C   0  0  0  0  0  0  0  0  0  0  0  0
   -5.4750    4.6100   -1.3920 C   0  0  0  0  0  0  0  0  0  0  0  0
   -5.0660    5.0390   -2.7990 C   0  0  2  0  0  0  0  0  0  0  0  0
   -4.0180    6.0080   -2.6990 O   0  0  0  0  0  0  0  0  0  0  0  0
   -6.2440    5.6260   -3.6260 C   0  0  0  0  0  0  0  0  0  0  0  0
   -7.2380    4.4960   -3.9920 C   0  0  0  0  0  0  0  0  0  0  0  0
   -5.6690    6.1500   -4.9700 C   0  0  0  0  0  0  0  0  0  0  0  0
   -8.1230    7.4460   -0.5270 C   0  0  1  0  0  0  0  0  0  0  0  0
   -7.0790    8.3820    0.1530 C   0  0  0  0  0  0  0  0  0  0  0  0
   -8.9350    6.7640    0.6370 C   0  0  0  0  0  0  0  0  0  0  0  0
  -10.3690    6.3070    0.3100 C   0  0  0  0  0  0  0  0  0  0  0  0
  -11.1580    7.4250   -0.3780 C   0  0  2  0  0  0  0  0  0  0  0  0
  -11.2700    8.6200    0.6290 C   0  0  0  0  0  0  0  0  0  0  0  0
  -14.3020    5.2824    1.3546 H   0  0  0  0  0  0  0  0  0  0  0  0
  -15.1845    5.4830   -0.1971 H   0  0  0  0  0  0  0  0  0  0  0  0
  -13.4948    4.8735   -0.1971 H   0  0  0  0  0  0  0  0  0  0  0  0
  -13.2798    7.2736    1.1684 H   0  0  0  0  0  0  0  0  0  0  0  0
  -15.0586    7.8851   -1.2212 H   0  0  0  0  0  0  0  0  0  0  0  0
  -15.6602    7.7533    0.5008 H   0  0  0  0  0  0  0  0  0  0  0  0
  -14.6607    9.6924    1.1603 H   0  0  0  0  0  0  0  0  0  0  0  0
  -13.3664    9.5778   -0.1048 H   0  0  0  0  0  0  0  0  0  0  0  0
  -15.9227   10.6001    0.0309 H   0  0  0  0  0  0  0  0  0  0  0  0
  -12.7029   10.2449   -2.0697 H   0  0  0  0  0  0  0  0  0  0  0  0
  -12.8270   11.8005   -2.9592 H   0  0  0  0  0  0  0  0  0  0  0  0
  -12.5787   11.8005   -1.1802 H   0  0  0  0  0  0  0  0  0  0  0  0
  -15.6366   13.0716   -1.4065 H   0  0  0  0  0  0  0  0  0  0  0  0
  -14.6176   13.1243   -2.8849 H   0  0  0  0  0  0  0  0  0  0  0  0
  -16.1527   12.1914   -2.8849 H   0  0  0  0  0  0  0  0  0  0  0  0
  -12.6109    6.0349   -1.2346 H   0  0  0  0  0  0  0  0  0  0  0  0
  -13.3453    7.7029   -2.8196 H   0  0  0  0  0  0  0  0  0  0  0  0
  -13.5303    8.9358   -1.5534 H   0  0  0  0  0  0  0  0  0  0  0  0
  -11.3838    8.7958   -3.4344 H   0  0  0  0  0  0  0  0  0  0  0  0
  -11.3534    9.7784   -1.9726 H   0  0  0  0  0  0  0  0  0  0  0  0
  -10.3108    5.6402   -2.2050 H   0  0  0  0  0  0  0  0  0  0  0  0
  -11.2721    6.5939   -3.3853 H   0  0  0  0  0  0  0  0  0  0  0  0
   -9.4795    6.7091   -3.3853 H   0  0  0  0  0  0  0  0  0  0  0  0
   -9.2765    9.2616   -0.8411 H   0  0  0  0  0  0  0  0  0  0  0  0
   -9.0004    9.2363   -3.4019 H   0  0  0  0  0  0  0  0  0  0  0  0
   -7.5937    9.6708   -2.2968 H   0  0  0  0  0  0  0  0  0  0  0  0
   -7.0292    8.1141   -4.3460 H   0  0  0  0  0  0  0  0  0  0  0  0
   -8.1432    5.5358   -1.4468 H   0  0  0  0  0  0  0  0  0  0  0  0
   -5.3915    6.5747   -0.5285 H   0  0  0  0  0  0  0  0  0  0  0  0
   -6.4542    5.3809    0.3408 H   0  0  0  0  0  0  0  0  0  0  0  0
   -4.5812    4.2798   -0.8424 H   0  0  0  0  0  0  0  0  0  0  0  0
   -6.2023    3.7888   -1.4733 H   0  0  0  0  0  0  0  0  0  0  0  0
   -4.7252    4.1397   -3.3329 H   0  0  0  0  0  0  0  0  0  0  0  0
   -3.5760    6.0540   -3.5640 H   0  0  0  0  0  0  0  0  0  0  0  0
   -7.6352    4.0445   -3.0709 H   0  0  0  0  0  0  0  0  0  0  0  0
   -8.0668    4.9137   -4.5825 H   0  0  0  0  0  0  0  0  0  0  0  0
   -6.7180    3.7273   -4.5825 H   0  0  0  0  0  0  0  0  0  0  0  0
   -4.8698    6.8783   -4.7678 H   0  0  0  0  0  0  0  0  0  0  0  0
   -5.2600    5.3076   -5.5471 H   0  0  0  0  0  0  0  0  0  0  0  0
   -6.4699    6.6353   -5.5471 H   0  0  0  0  0  0  0  0  0  0  0  0
   -7.1703    8.3001    1.2461 H   0  0  0  0  0  0  0  0  0  0  0  0
   -6.0653    8.0846   -0.1536 H   0  0  0  0  0  0  0  0  0  0  0  0
   -7.2644    9.4220   -0.1536 H   0  0  0  0  0  0  0  0  0  0  0  0
   -8.3697    5.8782    0.9622 H   0  0  0  0  0  0  0  0  0  0  0  0
   -9.0501    7.5451    1.4030 H   0  0  0  0  0  0  0  0  0  0  0  0
  -10.3249    5.4342   -0.3581 H   0  0  0  0  0  0  0  0  0  0  0  0
  -10.8770    6.0472    1.2504 H   0  0  0  0  0  0  0  0  0  0  0  0
  -11.2340    8.2360    1.6592 H   0  0  0  0  0  0  0  0  0  0  0  0
  -10.4331    9.3153    0.4674 H   0  0  0  0  0  0  0  0  0  0  0  0
  -12.2215    9.1477    0.4674 H   0  0  0  0  0  0  0  0  0  0  0  0
  1  2  1  0
  2  3  1  0
  3  4  1  0
  4  5  1  0
  5  6  1  0
  6  7  1  0
  7  8  1  0
  7  9  1  0
  2 10  1  0
 10 11  1  0
 11 12  1  0
 12 13  1  0
 13 14  1  6
 13 15  1  0
 15 16  1  0
 16 17  1  0
 17 18  2  0
 18 19  1  0
 19 20  1  0
 20 21  1  0
 21 22  1  0
 22 23  1  0
 22 24  1  0
 24 25  1  0
 24 26  1  0
 19 27  1  0
 27 28  1  1
 27 29  1  0
 29 30  1  0
 30 31  1  0
 31 32  1  1
  7  5  1  0
 31 10  1  0
 31 13  1  0
 27 15  1  0
 24 18  1  0
  1 33  1  0
  1 34  1  0
  1 35  1  0
  2 36  1  1
  3 37  1  0
  3 38  1  0
  4 39  1  0
  4 40  1  0
  5 41  1  1
  8 42  1  0
  8 43  1  0
  8 44  1  0
  9 45  1  0
  9 46  1  0
  9 47  1  0
 10 48  1  6
 11 49  1  0
 11 50  1  0
 12 51  1  0
 12 52  1  0
 14 53  1  0
 14 54  1  0
 14 55  1  0
 15 56  1  1
 16 57  1  0
 16 58  1  0
 17 59  1  0
 19 60  1  6
 20 61  1  0
 20 62  1  0
 21 63  1  0
 21 64  1  0
 22 65  1  6
 23 66  1  0
 25 67  1  0
 25 68  1  0
 25 69  1  0
 26 70  1  0
 26 71  1  0
 26 72  1  0
 28 73  1  0
 28 74  1  0
 28 75  1  0
 29 76  1  0
 29 77  1  0
 30 78  1  0
 30 79  1  0
 32 80  1  0
 32 81  1  0
 32 82  1  0
M  END
>  <meeko>  (18) 
{"is_sidechain": [false], "intermolecular_energy": 2.731, "internal_energy": -0.839}

$$$$
