EPH_relaxed_0001_pdb2pqr_Repair_397_r2_0001_out
     RDKit          3D

 82 86  0  0  0  0  0  0  0  0999 V2000
   -1.8350    8.8000   -1.8450 C   0  0  0  0  0  0  0  0  0  0  0  0
   -1.8280    9.0670   -0.3380 C   0  0  2  0  0  0  0  0  0  0  0  0
   -3.2520    9.2450    0.2270 C   0  0  0  0  0  0  0  0  0  0  0  0
   -4.3480    9.2040   -0.8420 C   0  0  0  0  0  0  0  0  0  0  0  0
   -5.0760    7.8940   -0.8400 C   0  0  2  0  0  0  0  0  0  0  0  0
   -5.3570    7.3630   -2.1410 O   0  0  0  0  0  0  0  0  0  0  0  0
   -6.4960    7.7250   -1.3450 C   0  0  0  0  0  0  0  0  0  0  0  0
   -7.2740    8.8830   -1.8870 C   0  0  0  0  0  0  0  0  0  0  0  0
   -7.2930    6.5530   -0.8630 C   0  0  0  0  0  0  0  0  0  0  0  0
   -0.9890   10.3030   -0.0330 C   0  0  1  0  0  0  0  0  0  0  0  0
    0.0980   10.0360    1.0420 C   0  0  0  0  0  0  0  0  0  0  0  0
    1.3290   10.8960    0.6570 C   0  0  0  0  0  0  0  0  0  0  0  0
    0.8010   11.8710   -0.4220 C   0  0  1  0  0  0  0  0  0  0  0  0
    0.0960   13.0110    0.3780 C   0  0  0  0  0  0  0  0  0  0  0  0
    1.8620   12.4370   -1.4210 C   0  0  2  0  0  0  0  0  0  0  0  0
    2.9710   13.2900   -0.7800 C   0  0  0  0  0  0  0  0  0  0  0  0
    2.6830   14.7520   -0.6960 C   0  0  0  0  0  0  0  0  0  0  0  0
    1.7110   15.3980   -1.3670 C   0  0  0  0  0  0  0  0  0  0  0  0
    0.8410   14.6620   -2.3940 C   0  0  1  0  0  0  0  0  0  0  0  0
    0.7330   15.5130   -3.6860 C   0  0  0  0  0  0  0  0  0  0  0  0
    0.2410   16.9310   -3.4140 C   0  0  0  0  0  0  0  0  0  0  0  0
    1.1640   17.6500   -2.4330 C   0  0  2  0  0  0  0  0  0  0  0  0
    2.4350   17.8510   -3.0600 O   0  0  0  0  0  0  0  0  0  0  0  0
    1.3570   16.8810   -1.0970 C   0  0  0  0  0  0  0  0  0  0  0  0
    0.0440   16.9250   -0.2770 C   0  0  0  0  0  0  0  0  0  0  0  0
    2.4190   17.6410   -0.2570 C   0  0  0  0  0  0  0  0  0  0  0  0
    1.2420   13.1530   -2.6890 C   0  0  1  0  0  0  0  0  0  0  0  0
    2.3290   13.1000   -3.8060 C   0  0  0  0  0  0  0  0  0  0  0  0
   -0.0120   12.3880   -3.2540 C   0  0  0  0  0  0  0  0  0  0  0  0
   -0.9590   11.7480   -2.2210 C   0  0  0  0  0  0  0  0  0  0  0  0
   -0.1760   10.9160   -1.2000 C   0  0  2  0  0  0  0  0  0  0  0  0
    0.5250    9.7480   -1.9730 C   0  0  0  0  0  0  0  0  0  0  0  0
   -1.8634    7.7152   -2.0250 H   0  0  0  0  0  0  0  0  0  0  0  0
   -2.7211    9.2700   -2.2965 H   0  0  0  0  0  0  0  0  0  0  0  0
   -0.9255    9.2229   -2.2965 H   0  0  0  0  0  0  0  0  0  0  0  0
   -1.3859    8.1869    0.1518 H   0  0  0  0  0  0  0  0  0  0  0  0
   -3.4420    8.4383    0.9503 H   0  0  0  0  0  0  0  0  0  0  0  0
   -3.2918   10.2419    0.6902 H   0  0  0  0  0  0  0  0  0  0  0  0
   -5.0679   10.0121   -0.6455 H   0  0  0  0  0  0  0  0  0  0  0  0
   -3.8722    9.3302   -1.8257 H   0  0  0  0  0  0  0  0  0  0  0  0
   -4.5869    7.5974    0.0996 H   0  0  0  0  0  0  0  0  0  0  0  0
   -7.6740    9.4784   -1.0531 H   0  0  0  0  0  0  0  0  0  0  0  0
   -6.6144    9.5117   -2.5031 H   0  0  0  0  0  0  0  0  0  0  0  0
   -8.1054    8.5100   -2.5031 H   0  0  0  0  0  0  0  0  0  0  0  0
   -7.3004    6.5421    0.2369 H   0  0  0  0  0  0  0  0  0  0  0  0
   -8.3248    6.6329   -1.2359 H   0  0  0  0  0  0  0  0  0  0  0  0
   -6.8394    5.6228   -1.2359 H   0  0  0  0  0  0  0  0  0  0  0  0
   -1.7859   10.9959    0.2750 H   0  0  0  0  0  0  0  0  0  0  0  0
   -0.2723   10.3282    2.0357 H   0  0  0  0  0  0  0  0  0  0  0  0
    0.3594    8.9683    1.0825 H   0  0  0  0  0  0  0  0  0  0  0  0
    1.7046   11.4495    1.5303 H   0  0  0  0  0  0  0  0  0  0  0  0
    2.1678   10.2847    0.2927 H   0  0  0  0  0  0  0  0  0  0  0  0
    0.2100   12.8267    1.4565 H   0  0  0  0  0  0  0  0  0  0  0  0
    0.5545   13.9772    0.1207 H   0  0  0  0  0  0  0  0  0  0  0  0
   -0.9733   13.0324    0.1207 H   0  0  0  0  0  0  0  0  0  0  0  0
    2.3577   11.5235   -1.7814 H   0  0  0  0  0  0  0  0  0  0  0  0
    3.1388   12.9175    0.2413 H   0  0  0  0  0  0  0  0  0  0  0  0
    3.8488   13.1901   -1.4354 H   0  0  0  0  0  0  0  0  0  0  0  0
    3.3190   15.3527   -0.0292 H   0  0  0  0  0  0  0  0  0  0  0  0
   -0.1516   14.5576   -1.9316 H   0  0  0  0  0  0  0  0  0  0  0  0
    1.7262   15.5685   -4.1555 H   0  0  0  0  0  0  0  0  0  0  0  0
   -0.0005   15.0263   -4.3456 H   0  0  0  0  0  0  0  0  0  0  0  0
    0.2153   17.4909   -4.3605 H   0  0  0  0  0  0  0  0  0  0  0  0
   -0.7651   16.8750   -2.9728 H   0  0  0  0  0  0  0  0  0  0  0  0
    0.6903   18.6092   -2.1767 H   0  0  0  0  0  0  0  0  0  0  0  0
    3.1190   17.7520   -2.3770 H   0  0  0  0  0  0  0  0  0  0  0  0
    0.2820   16.9170    0.7969 H   0  0  0  0  0  0  0  0  0  0  0  0
   -0.5112   17.8423   -0.5227 H   0  0  0  0  0  0  0  0  0  0  0  0
   -0.5714   16.0470   -0.5227 H   0  0  0  0  0  0  0  0  0  0  0  0
    2.2135   17.4940    0.8136 H   0  0  0  0  0  0  0  0  0  0  0  0
    3.4206   17.2533   -0.4948 H   0  0  0  0  0  0  0  0  0  0  0  0
    2.3752   18.7141   -0.4948 H   0  0  0  0  0  0  0  0  0  0  0  0
    3.3265   13.0514   -3.3449 H   0  0  0  0  0  0  0  0  0  0  0  0
    2.1699   12.2085   -4.4305 H   0  0  0  0  0  0  0  0  0  0  0  0
    2.2573   14.0027   -4.4305 H   0  0  0  0  0  0  0  0  0  0  0  0
   -0.6004   13.1048   -3.8455 H   0  0  0  0  0  0  0  0  0  0  0  0
    0.3998   11.5448   -3.8280 H   0  0  0  0  0  0  0  0  0  0  0  0
   -1.5061   12.5432   -1.6934 H   0  0  0  0  0  0  0  0  0  0  0  0
   -1.6589   11.0849   -2.7506 H   0  0  0  0  0  0  0  0  0  0  0  0
    0.9525    9.0357   -1.2520 H   0  0  0  0  0  0  0  0  0  0  0  0
   -0.2127    9.2318   -2.6050 H   0  0  0  0  0  0  0  0  0  0  0  0
    1.3275   10.1562   -2.6050 H   0  0  0  0  0  0  0  0  0  0  0  0
  1  2  1  0
  2  3  1  0
  3  4  1  0
  4  5  1  0
  5  6  1  0
  6  7  1  0
  7  8  1  0
  7  9  1  0
  2 10  1  0
 10 11  1  0
 11 12  1  0
 12 13  1  0
 13 14  1  1
 13 15  1  0
 15 16  1  0
 16 17  1  0
 17 18  2  0
 18 19  1  0
 19 20  1  0
 20 21  1  0
 21 22  1  0
 22 23  1  0
 22 24  1  0
 24 25  1  0
 24 26  1  0
 19 27  1  0
 27 28  1  6
 27 29  1  0
 29 30  1  0
 30 31  1  0
 31 32  1  6
  7  5  1  0
 31 10  1  0
 31 13  1  0
 27 15  1  0
 24 18  1  0
  1 33  1  0
  1 34  1  0
  1 35  1  0
  2 36  1  1
  3 37  1  0
  3 38  1  0
  4 39  1  0
  4 40  1  0
  5 41  1  1
  8 42  1  0
  8 43  1  0
  8 44  1  0
  9 45  1  0
  9 46  1  0
  9 47  1  0
 10 48  1  1
 11 49  1  0
 11 50  1  0
 12 51  1  0
 12 52  1  0
 14 53  1  0
 14 54  1  0
 14 55  1  0
 15 56  1  6
 16 57  1  0
 16 58  1  0
 17 59  1  0
 19 60  1  1
 20 61  1  0
 20 62  1  0
 21 63  1  0
 21 64  1  0
 22 65  1  1
 23 66  1  0
 25 67  1  0
 25 68  1  0
 25 69  1  0
 26 70  1  0
 26 71  1  0
 26 72  1  0
 28 73  1  0
 28 74  1  0
 28 75  1  0
 29 76  1  0
 29 77  1  0
 30 78  1  0
 30 79  1  0
 32 80  1  0
 32 81  1  0
 32 82  1  0
M  END
>  <meeko>  (1) 
{"is_sidechain": [false], "intermolecular_energy": 2.731, "internal_energy": -0.839}

$$$$
EPH_relaxed_0001_pdb2pqr_Repair_397_r2_0001_out
     RDKit          3D

 82 86  0  0  0  0  0  0  0  0999 V2000
    2.2810   18.0480   -2.8920 C   0  0  0  0  0  0  0  0  0  0  0  0
    1.0410   17.6410   -2.0900 C   0  0  2  0  0  0  0  0  0  0  0  0
    1.2880   17.7000   -0.5690 C   0  0  0  0  0  0  0  0  0  0  0  0
    0.9800   19.0640    0.0520 C   0  0  0  0  0  0  0  0  0  0  0  0
   -0.4470   19.1590    0.5010 C   0  0  2  0  0  0  0  0  0  0  0  0
   -1.3480   18.2730   -0.1770 O   0  0  0  0  0  0  0  0  0  0  0  0
   -1.5690   19.6790   -0.3790 C   0  0  0  0  0  0  0  0  0  0  0  0
   -1.3120   20.1400   -1.7790 C   0  0  0  0  0  0  0  0  0  0  0  0
   -2.8120   20.1940    0.2760 C   0  0  0  0  0  0  0  0  0  0  0  0
    0.5990   16.2390   -2.4920 C   0  0  1  0  0  0  0  0  0  0  0  0
    0.7040   15.9950   -4.0220 C   0  0  0  0  0  0  0  0  0  0  0  0
    1.1090   14.5110   -4.2110 C   0  0  0  0  0  0  0  0  0  0  0  0
    0.9020   13.8690   -2.8190 C   0  0  1  0  0  0  0  0  0  0  0  0
   -0.6290   13.5720   -2.7390 C   0  0  0  0  0  0  0  0  0  0  0  0
    1.7540   12.5950   -2.5120 C   0  0  2  0  0  0  0  0  0  0  0  0
    1.4800   11.3900   -3.4290 C   0  0  0  0  0  0  0  0  0  0  0  0
    0.4210   10.4530   -2.9510 C   0  0  0  0  0  0  0  0  0  0  0  0
   -0.0830   10.4130   -1.7030 C   0  0  0  0  0  0  0  0  0  0  0  0
    0.4850   11.3080   -0.5950 C   0  0  1  0  0  0  0  0  0  0  0  0
    0.7080   10.4650    0.6880 C   0  0  0  0  0  0  0  0  0  0  0  0
   -0.5510    9.7220    1.1260 C   0  0  0  0  0  0  0  0  0  0  0  0
   -1.0520    8.7990    0.0190 C   0  0  2  0  0  0  0  0  0  0  0  0
   -0.0960    7.7520   -0.1770 O   0  0  0  0  0  0  0  0  0  0  0  0
   -1.3030    9.5360   -1.3270 C   0  0  0  0  0  0  0  0  0  0  0  0
   -2.5410   10.4570   -1.1930 C   0  0  0  0  0  0  0  0  0  0  0  0
   -1.6680    8.4690   -2.3940 C   0  0  0  0  0  0  0  0  0  0  0  0
    1.7610   12.1720   -0.9870 C   0  0  1  0  0  0  0  0  0  0  0  0
    3.0580   11.3370   -0.7620 C   0  0  0  0  0  0  0  0  0  0  0  0
    1.8580   13.4120   -0.0220 C   0  0  0  0  0  0  0  0  0  0  0  0
    1.0900   14.6800   -0.4410 C   0  0  0  0  0  0  0  0  0  0  0  0
    1.3890   15.0460   -1.8980 C   0  0  2  0  0  0  0  0  0  0  0  0
    2.9180   15.3720   -2.0060 C   0  0  0  0  0  0  0  0  0  0  0  0
    3.0937   18.3148   -2.2004 H   0  0  0  0  0  0  0  0  0  0  0  0
    2.6000   17.2074   -3.5258 H   0  0  0  0  0  0  0  0  0  0  0  0
    2.0398   18.9141   -3.5258 H   0  0  0  0  0  0  0  0  0  0  0  0
    0.2445   18.3629   -2.3232 H   0  0  0  0  0  0  0  0  0  0  0  0
    0.6506   16.9459   -0.0842 H   0  0  0  0  0  0  0  0  0  0  0  0
    2.3595   17.5091   -0.4098 H   0  0  0  0  0  0  0  0  0  0  0  0
    1.6379   19.2172    0.9202 H   0  0  0  0  0  0  0  0  0  0  0  0
    1.1510   19.8357   -0.7130 H   0  0  0  0  0  0  0  0  0  0  0  0
   -0.1327   19.4151    1.5236 H   0  0  0  0  0  0  0  0  0  0  0  0
   -0.7765   21.1006   -1.7562 H   0  0  0  0  0  0  0  0  0  0  0  0
   -0.7008   19.3918   -2.3050 H   0  0  0  0  0  0  0  0  0  0  0  0
   -2.2698   20.2665   -2.3050 H   0  0  0  0  0  0  0  0  0  0  0  0
   -2.6972   20.1464    1.3690 H   0  0  0  0  0  0  0  0  0  0  0  0
   -2.9825   21.2368   -0.0297 H   0  0  0  0  0  0  0  0  0  0  0  0
   -3.6700   19.5773   -0.0297 H   0  0  0  0  0  0  0  0  0  0  0  0
   -0.4259   16.2475   -2.0926 H   0  0  0  0  0  0  0  0  0  0  0  0
   -0.2660   16.1873   -4.5038 H   0  0  0  0  0  0  0  0  0  0  0  0
    1.4442   16.6679   -4.4795 H   0  0  0  0  0  0  0  0  0  0  0  0
    0.4674   14.0260   -4.9615 H   0  0  0  0  0  0  0  0  0  0  0  0
    2.1432   14.4036   -4.5700 H   0  0  0  0  0  0  0  0  0  0  0  0
   -0.9363   13.5124   -1.6845 H   0  0  0  0  0  0  0  0  0  0  0  0
   -1.1856   14.3789   -3.2381 H   0  0  0  0  0  0  0  0  0  0  0  0
   -0.8435   12.6155   -3.2381 H   0  0  0  0  0  0  0  0  0  0  0  0
    2.7736   12.9288   -2.7550 H   0  0  0  0  0  0  0  0  0  0  0  0
    1.1746   11.7744   -4.4134 H   0  0  0  0  0  0  0  0  0  0  0  0
    2.4130   10.8078   -3.4535 H   0  0  0  0  0  0  0  0  0  0  0  0
    0.0182    9.7344   -3.6799 H   0  0  0  0  0  0  0  0  0  0  0  0
   -0.2762   12.0796   -0.4072 H   0  0  0  0  0  0  0  0  0  0  0  0
    1.5019    9.7290    0.4928 H   0  0  0  0  0  0  0  0  0  0  0  0
    0.9866   11.1559    1.4973 H   0  0  0  0  0  0  0  0  0  0  0  0
   -0.3226    9.1220    2.0192 H   0  0  0  0  0  0  0  0  0  0  0  0
   -1.3350   10.4606    1.3492 H   0  0  0  0  0  0  0  0  0  0  0  0
   -2.0230    8.3950    0.3413 H   0  0  0  0  0  0  0  0  0  0  0  0
   -0.5360    7.0410   -0.6720 H   0  0  0  0  0  0  0  0  0  0  0  0
   -2.7621   10.6215   -0.1281 H   0  0  0  0  0  0  0  0  0  0  0  0
   -2.3340   11.4224   -1.6779 H   0  0  0  0  0  0  0  0  0  0  0  0
   -3.4062    9.9812   -1.6779 H   0  0  0  0  0  0  0  0  0  0  0  0
   -1.9849    7.5426   -1.8927 H   0  0  0  0  0  0  0  0  0  0  0  0
   -2.4887    8.8449   -3.0227 H   0  0  0  0  0  0  0  0  0  0  0  0
   -0.7891    8.2635   -3.0227 H   0  0  0  0  0  0  0  0  0  0  0  0
    3.2372   11.2216    0.3172 H   0  0  0  0  0  0  0  0  0  0  0  0
    2.9398   10.3449   -1.2222 H   0  0  0  0  0  0  0  0  0  0  0  0
    3.9122   11.8553   -1.2222 H   0  0  0  0  0  0  0  0  0  0  0  0
    1.4742   13.0999    0.9605 H   0  0  0  0  0  0  0  0  0  0  0  0
    2.9191   13.7018   -0.0316 H   0  0  0  0  0  0  0  0  0  0  0  0
    0.0105   14.5002   -0.3294 H   0  0  0  0  0  0  0  0  0  0  0  0
    1.4103   15.5126    0.2025 H   0  0  0  0  0  0  0  0  0  0  0  0
    3.3457   15.4632   -0.9966 H   0  0  0  0  0  0  0  0  0  0  0  0
    3.4281   14.5624   -2.5486 H   0  0  0  0  0  0  0  0  0  0  0  0
    3.0535   16.3192   -2.5486 H   0  0  0  0  0  0  0  0  0  0  0  0
  1  2  1  0
  2  3  1  0
  3  4  1  0
  4  5  1  0
  5  6  1  0
  6  7  1  0
  7  8  1  0
  7  9  1  0
  2 10  1  0
 10 11  1  0
 11 12  1  0
 12 13  1  0
 13 14  1  1
 13 15  1  0
 15 16  1  0
 16 17  1  0
 17 18  2  0
 18 19  1  0
 19 20  1  0
 20 21  1  0
 21 22  1  0
 22 23  1  0
 22 24  1  0
 24 25  1  0
 24 26  1  0
 19 27  1  0
 27 28  1  6
 27 29  1  0
 29 30  1  0
 30 31  1  0
 31 32  1  1
  7  5  1  0
 31 10  1  0
 31 13  1  0
 27 15  1  0
 24 18  1  0
  1 33  1  0
  1 34  1  0
  1 35  1  0
  2 36  1  1
  3 37  1  0
  3 38  1  0
  4 39  1  0
  4 40  1  0
  5 41  1  1
  8 42  1  0
  8 43  1  0
  8 44  1  0
  9 45  1  0
  9 46  1  0
  9 47  1  0
 10 48  1  1
 11 49  1  0
 11 50  1  0
 12 51  1  0
 12 52  1  0
 14 53  1  0
 14 54  1  0
 14 55  1  0
 15 56  1  6
 16 57  1  0
 16 58  1  0
 17 59  1  0
 19 60  1  1
 20 61  1  0
 20 62  1  0
 21 63  1  0
 21 64  1  0
 22 65  1  1
 23 66  1  0
 25 67  1  0
 25 68  1  0
 25 69  1  0
 26 70  1  0
 26 71  1  0
 26 72  1  0
 28 73  1  0
 28 74  1  0
 28 75  1  0
 29 76  1  0
 29 77  1  0
 30 78  1  0
 30 79  1  0
 32 80  1  0
 32 81  1  0
 32 82  1  0
M  END
>  <meeko>  (2) 
{"is_sidechain": [false], "intermolecular_energy": 2.731, "internal_energy": -0.839}

$$$$
EPH_relaxed_0001_pdb2pqr_Repair_397_r2_0001_out
     RDKit          3D

 82 86  0  0  0  0  0  0  0  0999 V2000
    0.3920   18.3870    0.0040 C   0  0  0  0  0  0  0  0  0  0  0  0
    1.4840   17.3430   -0.2430 C   0  0  2  0  0  0  0  0  0  0  0  0
    2.6780   17.9250   -1.0270 C   0  0  0  0  0  0  0  0  0  0  0  0
    3.9110   18.1940   -0.1600 C   0  0  0  0  0  0  0  0  0  0  0  0
    3.5320   18.6630    1.2120 C   0  0  2  0  0  0  0  0  0  0  0  0
    3.7940   20.0500    1.4640 O   0  0  0  0  0  0  0  0  0  0  0  0
    4.5430   19.1100    2.2520 C   0  0  0  0  0  0  0  0  0  0  0  0
    6.0120   19.1090    1.9640 C   0  0  0  0  0  0  0  0  0  0  0  0
    4.1460   19.0810    3.6950 C   0  0  0  0  0  0  0  0  0  0  0  0
    0.9030   16.1490   -0.9900 C   0  0  1  0  0  0  0  0  0  0  0  0
    0.7590   16.4100   -2.5130 C   0  0  0  0  0  0  0  0  0  0  0  0
    1.0410   15.0630   -3.2270 C   0  0  0  0  0  0  0  0  0  0  0  0
    1.0090   14.0080   -2.0960 C   0  0  1  0  0  0  0  0  0  0  0  0
   -0.5060   13.7130   -1.8650 C   0  0  0  0  0  0  0  0  0  0  0  0
    1.8200   12.6970   -2.3510 C   0  0  2  0  0  0  0  0  0  0  0  0
    1.3380   11.8530   -3.5440 C   0  0  0  0  0  0  0  0  0  0  0  0
    0.3090   10.8210   -3.2210 C   0  0  0  0  0  0  0  0  0  0  0  0
   -0.0000   10.3850   -1.9860 C   0  0  0  0  0  0  0  0  0  0  0  0
    0.7830   10.8710   -0.7600 C   0  0  1  0  0  0  0  0  0  0  0  0
    1.1470    9.6580    0.1360 C   0  0  0  0  0  0  0  0  0  0  0  0
   -0.0720    8.8240    0.5150 C   0  0  0  0  0  0  0  0  0  0  0  0
   -0.7910    8.3100   -0.7300 C   0  0  2  0  0  0  0  0  0  0  0  0
    0.0590    7.3750   -1.4000 O   0  0  0  0  0  0  0  0  0  0  0  0
   -1.1990    9.4430   -1.7120 C   0  0  0  0  0  0  0  0  0  0  0  0
   -2.3450   10.2820   -1.0940 C   0  0  0  0  0  0  0  0  0  0  0  0
   -1.7860    8.7800   -2.9880 C   0  0  0  0  0  0  0  0  0  0  0  0
    2.0330   11.8050   -1.0610 C   0  0  1  0  0  0  0  0  0  0  0  0
    3.2970   10.9310   -1.3280 C   0  0  0  0  0  0  0  0  0  0  0  0
    2.3510   12.6670    0.2170 C   0  0  0  0  0  0  0  0  0  0  0  0
    1.6060   14.0090    0.3520 C   0  0  0  0  0  0  0  0  0  0  0  0
    1.7010   14.8220   -0.9420 C   0  0  2  0  0  0  0  0  0  0  0  0
    3.2120   15.1530   -1.1890 C   0  0  0  0  0  0  0  0  0  0  0  0
    0.2514   18.5214    1.0867 H   0  0  0  0  0  0  0  0  0  0  0  0
    0.6906   19.3441   -0.4486 H   0  0  0  0  0  0  0  0  0  0  0  0
   -0.5507   18.0457   -0.4486 H   0  0  0  0  0  0  0  0  0  0  0  0
    1.8600   17.0198    0.7389 H   0  0  0  0  0  0  0  0  0  0  0  0
    2.9571   17.2107   -1.8156 H   0  0  0  0  0  0  0  0  0  0  0  0
    2.3537   18.8940   -1.4342 H   0  0  0  0  0  0  0  0  0  0  0  0
    4.4937   17.2653   -0.0710 H   0  0  0  0  0  0  0  0  0  0  0  0
    4.5030   18.9861   -0.6419 H   0  0  0  0  0  0  0  0  0  0  0  0
    2.6991   17.9457    1.2532 H   0  0  0  0  0  0  0  0  0  0  0  0
    6.5713   19.1086    2.9112 H   0  0  0  0  0  0  0  0  0  0  0  0
    6.2714   18.2107    1.3846 H   0  0  0  0  0  0  0  0  0  0  0  0
    6.2727   20.0070    1.3846 H   0  0  0  0  0  0  0  0  0  0  0  0
    5.0458   19.1467    4.3242 H   0  0  0  0  0  0  0  0  0  0  0  0
    3.4848   19.9332    3.9106 H   0  0  0  0  0  0  0  0  0  0  0  0
    3.6156   18.1417    3.9106 H   0  0  0  0  0  0  0  0  0  0  0  0
   -0.0466   16.0364   -0.4463 H   0  0  0  0  0  0  0  0  0  0  0  0
   -0.2599   16.7547   -2.7435 H   0  0  0  0  0  0  0  0  0  0  0  0
    1.4601   17.1886   -2.8480 H   0  0  0  0  0  0  0  0  0  0  0  0
    0.2652   14.8514   -3.9776 H   0  0  0  0  0  0  0  0  0  0  0  0
    2.0003   15.0688   -3.7652 H   0  0  0  0  0  0  0  0  0  0  0  0
   -0.7113   13.6730   -0.7851 H   0  0  0  0  0  0  0  0  0  0  0  0
   -1.1089   14.5106   -2.3236 H   0  0  0  0  0  0  0  0  0  0  0  0
   -0.7656   12.7474   -2.3236 H   0  0  0  0  0  0  0  0  0  0  0  0
    2.8087   13.0839   -2.6386 H   0  0  0  0  0  0  0  0  0  0  0  0
    0.9108   12.5361   -4.2930 H   0  0  0  0  0  0  0  0  0  0  0  0
    2.2197   11.3016   -3.9025 H   0  0  0  0  0  0  0  0  0  0  0  0
   -0.2433   10.3796   -4.0637 H   0  0  0  0  0  0  0  0  0  0  0  0
    0.1072   11.5472   -0.2159 H   0  0  0  0  0  0  0  0  0  0  0  0
    1.8567    9.0178   -0.4085 H   0  0  0  0  0  0  0  0  0  0  0  0
    1.5857   10.0495    1.0657 H   0  0  0  0  0  0  0  0  0  0  0  0
    0.2534    7.9666    1.1224 H   0  0  0  0  0  0  0  0  0  0  0  0
   -0.7672    9.4579    1.0849 H   0  0  0  0  0  0  0  0  0  0  0  0
   -1.7241    7.8309   -0.3987 H   0  0  0  0  0  0  0  0  0  0  0  0
   -0.5030    6.8180   -1.9650 H   0  0  0  0  0  0  0  0  0  0  0  0
   -2.2824   10.2362    0.0033 H   0  0  0  0  0  0  0  0  0  0  0  0
   -2.2527   11.3275   -1.4232 H   0  0  0  0  0  0  0  0  0  0  0  0
   -3.3138    9.8781   -1.4232 H   0  0  0  0  0  0  0  0  0  0  0  0
   -2.4894    7.9856   -2.6979 H   0  0  0  0  0  0  0  0  0  0  0  0
   -2.3146    9.5378   -3.5849 H   0  0  0  0  0  0  0  0  0  0  0  0
   -0.9697    8.3471   -3.5849 H   0  0  0  0  0  0  0  0  0  0  0  0
    3.7402   10.6246   -0.3690 H   0  0  0  0  0  0  0  0  0  0  0  0
    3.0103   10.0373   -1.9017 H   0  0  0  0  0  0  0  0  0  0  0  0
    4.0319   11.5148   -1.9017 H   0  0  0  0  0  0  0  0  0  0  0  0
    2.1032   12.0584    1.0992 H   0  0  0  0  0  0  0  0  0  0  0  0
    3.4139   12.9353    0.1264 H   0  0  0  0  0  0  0  0  0  0  0  0
    0.5473   13.8117    0.5760 H   0  0  0  0  0  0  0  0  0  0  0  0
    2.0704   14.5875    1.1642 H   0  0  0  0  0  0  0  0  0  0  0  0
    3.7254   15.2655   -0.2227 H   0  0  0  0  0  0  0  0  0  0  0  0
    3.6780   14.3356   -1.7589 H   0  0  0  0  0  0  0  0  0  0  0  0
    3.2936   16.0903   -1.7589 H   0  0  0  0  0  0  0  0  0  0  0  0
  1  2  1  0
  2  3  1  0
  3  4  1  0
  4  5  1  0
  5  6  1  0
  6  7  1  0
  7  8  1  0
  7  9  1  0
  2 10  1  0
 10 11  1  0
 11 12  1  0
 12 13  1  0
 13 14  1  1
 13 15  1  0
 15 16  1  0
 16 17  1  0
 17 18  2  0
 18 19  1  0
 19 20  1  0
 20 21  1  0
 21 22  1  0
 22 23  1  0
 22 24  1  0
 24 25  1  0
 24 26  1  0
 19 27  1  0
 27 28  1  6
 27 29  1  0
 29 30  1  0
 30 31  1  0
 31 32  1  6
  7  5  1  0
 31 10  1  0
 31 13  1  0
 27 15  1  0
 24 18  1  0
  1 33  1  0
  1 34  1  0
  1 35  1  0
  2 36  1  1
  3 37  1  0
  3 38  1  0
  4 39  1  0
  4 40  1  0
  5 41  1  1
  8 42  1  0
  8 43  1  0
  8 44  1  0
  9 45  1  0
  9 46  1  0
  9 47  1  0
 10 48  1  1
 11 49  1  0
 11 50  1  0
 12 51  1  0
 12 52  1  0
 14 53  1  0
 14 54  1  0
 14 55  1  0
 15 56  1  6
 16 57  1  0
 16 58  1  0
 17 59  1  0
 19 60  1  1
 20 61  1  0
 20 62  1  0
 21 63  1  0
 21 64  1  0
 22 65  1  1
 23 66  1  0
 25 67  1  0
 25 68  1  0
 25 69  1  0
 26 70  1  0
 26 71  1  0
 26 72  1  0
 28 73  1  0
 28 74  1  0
 28 75  1  0
 29 76  1  0
 29 77  1  0
 30 78  1  0
 30 79  1  0
 32 80  1  0
 32 81  1  0
 32 82  1  0
M  END
>  <meeko>  (3) 
{"is_sidechain": [false], "intermolecular_energy": 2.731, "internal_energy": -0.839}

$$$$
EPH_relaxed_0001_pdb2pqr_Repair_397_r2_0001_out
     RDKit          3D

 82 86  0  0  0  0  0  0  0  0999 V2000
    2.1930   18.0220   -2.5910 C   0  0  0  0  0  0  0  0  0  0  0  0
    0.6710   17.8580   -2.6320 C   0  0  2  0  0  0  0  0  0  0  0  0
    0.0030   18.3150   -1.3200 C   0  0  0  0  0  0  0  0  0  0  0  0
    0.7750   17.9110   -0.0620 C   0  0  0  0  0  0  0  0  0  0  0  0
    1.3070   19.1050    0.6700 C   0  0  2  0  0  0  0  0  0  0  0  0
    2.2360   19.9010   -0.0770 O   0  0  0  0  0  0  0  0  0  0  0  0
    2.7570   19.2500    1.0930 C   0  0  0  0  0  0  0  0  0  0  0  0
    3.7660   18.1850    0.7980 C   0  0  0  0  0  0  0  0  0  0  0  0
    3.0860   20.1910    2.2090 C   0  0  0  0  0  0  0  0  0  0  0  0
    0.3130   16.4050   -2.9210 C   0  0  1  0  0  0  0  0  0  0  0  0
    0.4000   16.0570   -4.4310 C   0  0  0  0  0  0  0  0  0  0  0  0
    0.8970   14.5920   -4.5240 C   0  0  0  0  0  0  0  0  0  0  0  0
    0.7620   14.0420   -3.0850 C   0  0  1  0  0  0  0  0  0  0  0  0
   -0.7430   13.6550   -2.9430 C   0  0  0  0  0  0  0  0  0  0  0  0
    1.7020   12.8500   -2.7090 C   0  0  2  0  0  0  0  0  0  0  0  0
    1.4880   11.5660   -3.5290 C   0  0  0  0  0  0  0  0  0  0  0  0
    0.5020   10.6020   -2.9580 C   0  0  0  0  0  0  0  0  0  0  0  0
    0.0290   10.6210   -1.6980 C   0  0  0  0  0  0  0  0  0  0  0  0
    0.5610   11.6300   -0.6720 C   0  0  1  0  0  0  0  0  0  0  0  0
    0.8660   10.8990    0.6620 C   0  0  0  0  0  0  0  0  0  0  0  0
   -0.3320   10.1120    1.1850 C   0  0  0  0  0  0  0  0  0  0  0  0
   -0.7960    9.0800    0.1600 C   0  0  2  0  0  0  0  0  0  0  0  0
    0.2220    8.0850    0.0150 O   0  0  0  0  0  0  0  0  0  0  0  0
   -1.1230    9.6990   -1.2280 C   0  0  0  0  0  0  0  0  0  0  0  0
   -2.4150   10.5470   -1.1280 C   0  0  0  0  0  0  0  0  0  0  0  0
   -1.4410    8.5360   -2.2060 C   0  0  0  0  0  0  0  0  0  0  0  0
    1.7690   12.5410   -1.1590 C   0  0  1  0  0  0  0  0  0  0  0  0
    3.1230   11.8090   -0.9080 C   0  0  0  0  0  0  0  0  0  0  0  0
    1.8060   13.8530   -0.2880 C   0  0  0  0  0  0  0  0  0  0  0  0
    0.9480   15.0360   -0.7770 C   0  0  0  0  0  0  0  0  0  0  0  0
    1.1920   15.3120   -2.2640 C   0  0  2  0  0  0  0  0  0  0  0  0
    2.6930   15.7250   -2.4340 C   0  0  0  0  0  0  0  0  0  0  0  0
    2.5298   18.0583   -1.5445 H   0  0  0  0  0  0  0  0  0  0  0  0
    2.6675   17.1698   -3.0995 H   0  0  0  0  0  0  0  0  0  0  0  0
    2.4750   18.9557   -3.0995 H   0  0  0  0  0  0  0  0  0  0  0  0
    0.2896   18.5020   -3.4381 H   0  0  0  0  0  0  0  0  0  0  0  0
   -0.0823   19.4115   -1.3376 H   0  0  0  0  0  0  0  0  0  0  0  0
   -0.9769   17.8179   -1.2687 H   0  0  0  0  0  0  0  0  0  0  0  0
    0.1013   17.3545    0.6061 H   0  0  0  0  0  0  0  0  0  0  0  0
    1.6287   17.2890   -0.3690 H   0  0  0  0  0  0  0  0  0  0  0  0
    0.3625   19.2155    1.2229 H   0  0  0  0  0  0  0  0  0  0  0  0
    4.1538   17.7756    1.7425 H   0  0  0  0  0  0  0  0  0  0  0  0
    3.2909   17.3805    0.2173 H   0  0  0  0  0  0  0  0  0  0  0  0
    4.5949   18.6160    0.2173 H   0  0  0  0  0  0  0  0  0  0  0  0
    2.9113   19.6915    3.1733 H   0  0  0  0  0  0  0  0  0  0  0  0
    4.1421   20.4902    2.1370 H   0  0  0  0  0  0  0  0  0  0  0  0
    2.4464   21.0831    2.1370 H   0  0  0  0  0  0  0  0  0  0  0  0
   -0.7015   16.3773   -2.4966 H   0  0  0  0  0  0  0  0  0  0  0  0
   -0.5909   16.1513   -4.8992 H   0  0  0  0  0  0  0  0  0  0  0  0
    1.0843   16.7404   -4.9551 H   0  0  0  0  0  0  0  0  0  0  0  0
    0.2726   14.0137   -5.2209 H   0  0  0  0  0  0  0  0  0  0  0  0
    1.9281   14.5245   -4.9013 H   0  0  0  0  0  0  0  0  0  0  0  0
   -1.0052   13.5876   -1.8768 H   0  0  0  0  0  0  0  0  0  0  0  0
   -1.3660   14.4222   -3.4260 H   0  0  0  0  0  0  0  0  0  0  0  0
   -0.9187   12.6825   -3.4260 H   0  0  0  0  0  0  0  0  0  0  0  0
    2.6919   13.2298   -3.0018 H   0  0  0  0  0  0  0  0  0  0  0  0
    1.1383   11.8567   -4.5306 H   0  0  0  0  0  0  0  0  0  0  0  0
    2.4561   11.0437   -3.5348 H   0  0  0  0  0  0  0  0  0  0  0  0
    0.1303    9.8087   -3.6233 H   0  0  0  0  0  0  0  0  0  0  0  0
   -0.2443   12.3638   -0.5198 H   0  0  0  0  0  0  0  0  0  0  0  0
    1.7017   10.2025    0.4994 H   0  0  0  0  0  0  0  0  0  0  0  0
    1.1165   11.6636    1.4121 H   0  0  0  0  0  0  0  0  0  0  0  0
   -0.0458    9.5947    2.1126 H   0  0  0  0  0  0  0  0  0  0  0  0
   -1.1574   10.8138    1.3752 H   0  0  0  0  0  0  0  0  0  0  0  0
   -1.7316    8.6398    0.5352 H   0  0  0  0  0  0  0  0  0  0  0  0
    0.0510    7.3910    0.6750 H   0  0  0  0  0  0  0  0  0  0  0  0
   -2.6649   10.7110   -0.0694 H   0  0  0  0  0  0  0  0  0  0  0  0
   -2.2561   11.5170   -1.6218 H   0  0  0  0  0  0  0  0  0  0  0  0
   -3.2417   10.0153   -1.6218 H   0  0  0  0  0  0  0  0  0  0  0  0
   -1.6884    7.6311   -1.6316 H   0  0  0  0  0  0  0  0  0  0  0  0
   -2.2963    8.8133   -2.8397 H   0  0  0  0  0  0  0  0  0  0  0  0
   -0.5636    8.3395   -2.8397 H   0  0  0  0  0  0  0  0  0  0  0  0
    3.2945   11.7163    0.1746 H   0  0  0  0  0  0  0  0  0  0  0  0
    3.0876   10.8071   -1.3608 H   0  0  0  0  0  0  0  0  0  0  0  0
    3.9419   12.3873   -1.3608 H   0  0  0  0  0  0  0  0  0  0  0  0
    1.4646   13.5903    0.7241 H   0  0  0  0  0  0  0  0  0  0  0  0
    2.8455   14.2079   -0.3462 H   0  0  0  0  0  0  0  0  0  0  0  0
   -0.1149   14.7968   -0.6250 H   0  0  0  0  0  0  0  0  0  0  0  0
    1.2266   15.9323   -0.2034 H   0  0  0  0  0  0  0  0  0  0  0  0
    3.1530   15.8516   -1.4428 H   0  0  0  0  0  0  0  0  0  0  0  0
    3.2284   14.9408   -2.9893 H   0  0  0  0  0  0  0  0  0  0  0  0
    2.7519   16.6727   -2.9893 H   0  0  0  0  0  0  0  0  0  0  0  0
  1  2  1  0
  2  3  1  0
  3  4  1  0
  4  5  1  0
  5  6  1  0
  6  7  1  0
  7  8  1  0
  7  9  1  0
  2 10  1  0
 10 11  1  0
 11 12  1  0
 12 13  1  0
 13 14  1  1
 13 15  1  0
 15 16  1  0
 16 17  1  0
 17 18  2  0
 18 19  1  0
 19 20  1  0
 20 21  1  0
 21 22  1  0
 22 23  1  0
 22 24  1  0
 24 25  1  0
 24 26  1  0
 19 27  1  0
 27 28  1  6
 27 29  1  0
 29 30  1  0
 30 31  1  0
 31 32  1  1
  7  5  1  0
 31 10  1  0
 31 13  1  0
 27 15  1  0
 24 18  1  0
  1 33  1  0
  1 34  1  0
  1 35  1  0
  2 36  1  6
  3 37  1  0
  3 38  1  0
  4 39  1  0
  4 40  1  0
  5 41  1  1
  8 42  1  0
  8 43  1  0
  8 44  1  0
  9 45  1  0
  9 46  1  0
  9 47  1  0
 10 48  1  1
 11 49  1  0
 11 50  1  0
 12 51  1  0
 12 52  1  0
 14 53  1  0
 14 54  1  0
 14 55  1  0
 15 56  1  6
 16 57  1  0
 16 58  1  0
 17 59  1  0
 19 60  1  1
 20 61  1  0
 20 62  1  0
 21 63  1  0
 21 64  1  0
 22 65  1  1
 23 66  1  0
 25 67  1  0
 25 68  1  0
 25 69  1  0
 26 70  1  0
 26 71  1  0
 26 72  1  0
 28 73  1  0
 28 74  1  0
 28 75  1  0
 29 76  1  0
 29 77  1  0
 30 78  1  0
 30 79  1  0
 32 80  1  0
 32 81  1  0
 32 82  1  0
M  END
>  <meeko>  (4) 
{"is_sidechain": [false], "intermolecular_energy": 2.731, "internal_energy": -0.839}

$$$$
EPH_relaxed_0001_pdb2pqr_Repair_397_r2_0001_out
     RDKit          3D

 82 86  0  0  0  0  0  0  0  0999 V2000
   -4.8290    6.0720   -4.6650 C   0  0  0  0  0  0  0  0  0  0  0  0
   -5.1040    6.9710   -3.4560 C   0  0  2  0  0  0  0  0  0  0  0  0
   -3.9860    6.8780   -2.3970 C   0  0  0  0  0  0  0  0  0  0  0  0
   -2.7810    7.7740   -2.6950 C   0  0  0  0  0  0  0  0  0  0  0  0
   -2.1400    8.2760   -1.4360 C   0  0  2  0  0  0  0  0  0  0  0  0
   -2.2710    9.6870   -1.2200 O   0  0  0  0  0  0  0  0  0  0  0  0
   -0.9350    9.1980   -1.4220 C   0  0  0  0  0  0  0  0  0  0  0  0
   -0.2990    9.6710   -2.6910 C   0  0  0  0  0  0  0  0  0  0  0  0
   -0.0840    9.2440   -0.1910 C   0  0  0  0  0  0  0  0  0  0  0  0
   -6.4450    6.6060   -2.8310 C   0  0  1  0  0  0  0  0  0  0  0  0
   -6.3240    5.4740   -1.7760 C   0  0  0  0  0  0  0  0  0  0  0  0
   -7.3670    5.7800   -0.6700 C   0  0  0  0  0  0  0  0  0  0  0  0
   -8.2720    6.8760   -1.2800 C   0  0  1  0  0  0  0  0  0  0  0  0
   -9.2780    6.1050   -2.1920 C   0  0  0  0  0  0  0  0  0  0  0  0
   -9.0100    7.8070   -0.2640 C   0  0  2  0  0  0  0  0  0  0  0  0
  -10.0080    7.0960    0.6670 C   0  0  0  0  0  0  0  0  0  0  0  0
  -11.4080    7.0120    0.1560 C   0  0  0  0  0  0  0  0  0  0  0  0
  -11.9130    7.7300   -0.8640 C   0  0  0  0  0  0  0  0  0  0  0  0
  -11.0740    8.8120   -1.5560 C   0  0  1  0  0  0  0  0  0  0  0  0
  -11.9240   10.1000   -1.7210 C   0  0  0  0  0  0  0  0  0  0  0  0
  -13.2470    9.8400   -2.4360 C   0  0  0  0  0  0  0  0  0  0  0  0
  -14.0770    8.8010   -1.6870 C   0  0  2  0  0  0  0  0  0  0  0  0
  -14.4790    9.3530   -0.4290 O   0  0  0  0  0  0  0  0  0  0  0  0
  -13.3200    7.4640   -1.4530 C   0  0  0  0  0  0  0  0  0  0  0  0
  -13.1510    6.7190   -2.8000 C   0  0  0  0  0  0  0  0  0  0  0  0
  -14.2160    6.5580   -0.5650 C   0  0  0  0  0  0  0  0  0  0  0  0
   -9.6490    9.1000   -0.9150 C   0  0  1  0  0  0  0  0  0  0  0  0
   -9.7820   10.1540    0.2260 C   0  0  0  0  0  0  0  0  0  0  0  0
   -8.7150    9.7440   -2.0070 C   0  0  0  0  0  0  0  0  0  0  0  0
   -7.9200    8.7730   -2.9020 C   0  0  0  0  0  0  0  0  0  0  0  0
   -7.1960    7.7190   -2.0580 C   0  0  2  0  0  0  0  0  0  0  0  0
   -6.1620    8.4630   -1.1470 C   0  0  0  0  0  0  0  0  0  0  0  0
   -4.5237    5.0739   -4.3178 H   0  0  0  0  0  0  0  0  0  0  0  0
   -5.7418    5.9855   -5.2728 H   0  0  0  0  0  0  0  0  0  0  0  0
   -4.0240    6.5109   -5.2728 H   0  0  0  0  0  0  0  0  0  0  0  0
   -5.1324    8.0101   -3.8159 H   0  0  0  0  0  0  0  0  0  0  0  0
   -4.4047    7.1715   -1.4231 H   0  0  0  0  0  0  0  0  0  0  0  0
   -3.6237    5.8394   -2.4019 H   0  0  0  0  0  0  0  0  0  0  0  0
   -2.0398    7.1965   -3.2669 H   0  0  0  0  0  0  0  0  0  0  0  0
   -3.1329    8.6425   -3.2711 H   0  0  0  0  0  0  0  0  0  0  0  0
   -2.3480    7.3259   -0.9222 H   0  0  0  0  0  0  0  0  0  0  0  0
    0.5627   10.3118   -2.4526 H   0  0  0  0  0  0  0  0  0  0  0  0
    0.0399    8.8038   -3.2767 H   0  0  0  0  0  0  0  0  0  0  0  0
   -1.0320   10.2451   -3.2767 H   0  0  0  0  0  0  0  0  0  0  0  0
   -0.7270    9.2092    0.7008 H   0  0  0  0  0  0  0  0  0  0  0  0
    0.5986    8.3814   -0.1847 H   0  0  0  0  0  0  0  0  0  0  0  0
    0.5017   10.1751   -0.1847 H   0  0  0  0  0  0  0  0  0  0  0  0
   -7.0041    6.3359   -3.7390 H   0  0  0  0  0  0  0  0  0  0  0  0
   -6.5382    4.4997   -2.2395 H   0  0  0  0  0  0  0  0  0  0  0  0
   -5.3072    5.4300   -1.3587 H   0  0  0  0  0  0  0  0  0  0  0  0
   -7.9537    4.8810   -0.4300 H   0  0  0  0  0  0  0  0  0  0  0  0
   -6.8958    6.1034    0.2699 H   0  0  0  0  0  0  0  0  0  0  0  0
   -9.9950    5.5555   -1.5643 H   0  0  0  0  0  0  0  0  0  0  0  0
   -9.8202    6.8210   -2.8271 H   0  0  0  0  0  0  0  0  0  0  0  0
   -8.7275    5.3953   -2.8271 H   0  0  0  0  0  0  0  0  0  0  0  0
   -8.1879    8.1477    0.3826 H   0  0  0  0  0  0  0  0  0  0  0  0
   -9.6454    6.0711    0.8349 H   0  0  0  0  0  0  0  0  0  0  0  0
  -10.0544    7.7026    1.5835 H   0  0  0  0  0  0  0  0  0  0  0  0
  -12.0844    6.3029    0.6557 H   0  0  0  0  0  0  0  0  0  0  0  0
  -10.8127    8.4077   -2.5450 H   0  0  0  0  0  0  0  0  0  0  0  0
  -12.1372   10.5121   -0.7236 H   0  0  0  0  0  0  0  0  0  0  0  0
  -11.3454   10.8057   -2.3352 H   0  0  0  0  0  0  0  0  0  0  0  0
  -13.8151   10.7801   -2.4950 H   0  0  0  0  0  0  0  0  0  0  0  0
  -13.0317    9.4567   -3.4443 H   0  0  0  0  0  0  0  0  0  0  0  0
  -14.9490    8.5614   -2.3133 H   0  0  0  0  0  0  0  0  0  0  0  0
  -13.7340    9.8740   -0.0840 H   0  0  0  0  0  0  0  0  0  0  0  0
  -12.9114    5.6628   -2.6073 H   0  0  0  0  0  0  0  0  0  0  0  0
  -14.0867    6.7838   -3.3748 H   0  0  0  0  0  0  0  0  0  0  0  0
  -12.3349    7.1812   -3.3748 H   0  0  0  0  0  0  0  0  0  0  0  0
  -14.0106    6.7657    0.4955 H   0  0  0  0  0  0  0  0  0  0  0  0
  -15.2746    6.7649   -0.7808 H   0  0  0  0  0  0  0  0  0  0  0  0
  -13.9974    5.5018   -0.7808 H   0  0  0  0  0  0  0  0  0  0  0  0
   -9.7183    9.6488    1.2011 H   0  0  0  0  0  0  0  0  0  0  0  0
   -8.9697   10.8909    0.1410 H   0  0  0  0  0  0  0  0  0  0  0  0
  -10.7519   10.6660    0.1410 H   0  0  0  0  0  0  0  0  0  0  0  0
   -9.3467   10.3603   -2.6636 H   0  0  0  0  0  0  0  0  0  0  0  0
   -7.9544   10.3027   -1.4419 H   0  0  0  0  0  0  0  0  0  0  0  0
   -8.6136    8.2684   -3.5907 H   0  0  0  0  0  0  0  0  0  0  0  0
   -7.1699    9.3482   -3.4646 H   0  0  0  0  0  0  0  0  0  0  0  0
   -6.4096    8.2848   -0.0901 H   0  0  0  0  0  0  0  0  0  0  0  0
   -5.1505    8.0843   -1.3555 H   0  0  0  0  0  0  0  0  0  0  0  0
   -6.1996    9.5424   -1.3555 H   0  0  0  0  0  0  0  0  0  0  0  0
  1  2  1  0
  2  3  1  0
  3  4  1  0
  4  5  1  0
  5  6  1  0
  6  7  1  0
  7  8  1  0
  7  9  1  0
  2 10  1  0
 10 11  1  0
 11 12  1  0
 12 13  1  0
 13 14  1  6
 13 15  1  0
 15 16  1  0
 16 17  1  0
 17 18  2  0
 18 19  1  0
 19 20  1  0
 20 21  1  0
 21 22  1  0
 22 23  1  0
 22 24  1  0
 24 25  1  0
 24 26  1  0
 19 27  1  0
 27 28  1  1
 27 29  1  0
 29 30  1  0
 30 31  1  0
 31 32  1  1
  7  5  1  0
 31 10  1  0
 31 13  1  0
 27 15  1  0
 24 18  1  0
  1 33  1  0
  1 34  1  0
  1 35  1  0
  2 36  1  6
  3 37  1  0
  3 38  1  0
  4 39  1  0
  4 40  1  0
  5 41  1  1
  8 42  1  0
  8 43  1  0
  8 44  1  0
  9 45  1  0
  9 46  1  0
  9 47  1  0
 10 48  1  6
 11 49  1  0
 11 50  1  0
 12 51  1  0
 12 52  1  0
 14 53  1  0
 14 54  1  0
 14 55  1  0
 15 56  1  1
 16 57  1  0
 16 58  1  0
 17 59  1  0
 19 60  1  6
 20 61  1  0
 20 62  1  0
 21 63  1  0
 21 64  1  0
 22 65  1  6
 23 66  1  0
 25 67  1  0
 25 68  1  0
 25 69  1  0
 26 70  1  0
 26 71  1  0
 26 72  1  0
 28 73  1  0
 28 74  1  0
 28 75  1  0
 29 76  1  0
 29 77  1  0
 30 78  1  0
 30 79  1  0
 32 80  1  0
 32 81  1  0
 32 82  1  0
M  END
>  <meeko>  (5) 
{"is_sidechain": [false], "intermolecular_energy": 2.731, "internal_energy": -0.839}

$$$$
EPH_relaxed_0001_pdb2pqr_Repair_397_r2_0001_out
     RDKit          3D

 82 86  0  0  0  0  0  0  0  0999 V2000
    3.6790   17.3750    0.6240 C   0  0  0  0  0  0  0  0  0  0  0  0
    3.4060   16.5720   -0.6510 C   0  0  2  0  0  0  0  0  0  0  0  0
    3.1300   17.4840   -1.8630 C   0  0  0  0  0  0  0  0  0  0  0  0
    2.5510   18.8500   -1.4860 C   0  0  0  0  0  0  0  0  0  0  0  0
    1.0620   18.8860   -1.6530 C   0  0  2  0  0  0  0  0  0  0  0  0
    0.5140   20.1940   -1.8620 O   0  0  0  0  0  0  0  0  0  0  0  0
    0.1220   19.5290   -0.6500 C   0  0  0  0  0  0  0  0  0  0  0  0
    0.6380   20.1810    0.5950 C   0  0  0  0  0  0  0  0  0  0  0  0
   -1.3110   19.0990   -0.6340 C   0  0  0  0  0  0  0  0  0  0  0  0
    2.2300   15.6290   -0.4290 C   0  0  1  0  0  0  0  0  0  0  0  0
    0.9000   16.3840   -0.1650 C   0  0  0  0  0  0  0  0  0  0  0  0
   -0.2290   15.5420   -0.8140 C   0  0  0  0  0  0  0  0  0  0  0  0
    0.4340   14.1820   -1.1360 C   0  0  1  0  0  0  0  0  0  0  0  0
    0.4150   13.3980    0.2130 C   0  0  0  0  0  0  0  0  0  0  0  0
   -0.2130   13.3550   -2.2940 C   0  0  2  0  0  0  0  0  0  0  0  0
   -1.6670   12.9150   -2.0490 C   0  0  0  0  0  0  0  0  0  0  0  0
   -1.8280   11.5870   -1.3870 C   0  0  0  0  0  0  0  0  0  0  0  0
   -0.8670   10.6540   -1.2610 C   0  0  0  0  0  0  0  0  0  0  0  0
    0.5130   10.8530   -1.9020 C   0  0  1  0  0  0  0  0  0  0  0  0
    0.9330    9.5550   -2.6420 C   0  0  0  0  0  0  0  0  0  0  0  0
    0.8800    8.3250   -1.7400 C   0  0  0  0  0  0  0  0  0  0  0  0
   -0.5210    8.1280   -1.1690 C   0  0  2  0  0  0  0  0  0  0  0  0
   -1.4130    7.7980   -2.2380 O   0  0  0  0  0  0  0  0  0  0  0  0
   -1.0550    9.3740   -0.4090 C   0  0  0  0  0  0  0  0  0  0  0  0
   -0.2710    9.5520    0.9140 C   0  0  0  0  0  0  0  0  0  0  0  0
   -2.5280    9.0940   -0.0070 C   0  0  0  0  0  0  0  0  0  0  0  0
    0.6770   12.1500   -2.8050 C   0  0  1  0  0  0  0  0  0  0  0  0
    0.2170   11.8450   -4.2640 C   0  0  0  0  0  0  0  0  0  0  0  0
    2.2030   12.5270   -2.8910 C   0  0  0  0  0  0  0  0  0  0  0  0
    2.7550   13.4450   -1.7830 C   0  0  0  0  0  0  0  0  0  0  0  0
    1.8580   14.6710   -1.5890 C   0  0  2  0  0  0  0  0  0  0  0  0
    1.8750   15.4920   -2.9240 C   0  0  0  0  0  0  0  0  0  0  0  0
    3.4664   16.7497    1.5037 H   0  0  0  0  0  0  0  0  0  0  0  0
    4.7337   17.6869    0.6421 H   0  0  0  0  0  0  0  0  0  0  0  0
    3.0330   18.2651    0.6421 H   0  0  0  0  0  0  0  0  0  0  0  0
    4.3115   15.9895   -0.8762 H   0  0  0  0  0  0  0  0  0  0  0  0
    4.0767   17.6442   -2.3998 H   0  0  0  0  0  0  0  0  0  0  0  0
    2.3769   16.9756   -2.4830 H   0  0  0  0  0  0  0  0  0  0  0  0
    2.7972   19.0639   -0.4355 H   0  0  0  0  0  0  0  0  0  0  0  0
    2.9895   19.6049   -2.1552 H   0  0  0  0  0  0  0  0  0  0  0  0
    1.0682   17.8934   -2.1270 H   0  0  0  0  0  0  0  0  0  0  0  0
    0.2292   19.6644    1.4759 H   0  0  0  0  0  0  0  0  0  0  0  0
    1.7363   20.1215    0.6119 H   0  0  0  0  0  0  0  0  0  0  0  0
    0.3277   21.2362    0.6119 H   0  0  0  0  0  0  0  0  0  0  0  0
   -1.6516   18.9968    0.4070 H   0  0  0  0  0  0  0  0  0  0  0  0
   -1.9256   19.8523   -1.1486 H   0  0  0  0  0  0  0  0  0  0  0  0
   -1.4094   18.1318   -1.1486 H   0  0  0  0  0  0  0  0  0  0  0  0
    2.6141   15.0536    0.4262 H   0  0  0  0  0  0  0  0  0  0  0  0
    0.7270   16.4795    0.9171 H   0  0  0  0  0  0  0  0  0  0  0  0
    0.9305   17.3981   -0.5901 H   0  0  0  0  0  0  0  0  0  0  0  0
   -1.0664   15.4095   -0.1131 H   0  0  0  0  0  0  0  0  0  0  0  0
   -0.6469   16.0247   -1.7097 H   0  0  0  0  0  0  0  0  0  0  0  0
    0.4323   14.1101    1.0512 H   0  0  0  0  0  0  0  0  0  0  0  0
   -0.4982   12.7874    0.2694 H   0  0  0  0  0  0  0  0  0  0  0  0
    1.2976   12.7438    0.2694 H   0  0  0  0  0  0  0  0  0  0  0  0
   -0.2573   14.0893   -3.1118 H   0  0  0  0  0  0  0  0  0  0  0  0
   -2.1488   13.6724   -1.4133 H   0  0  0  0  0  0  0  0  0  0  0  0
   -2.1271   12.8173   -3.0433 H   0  0  0  0  0  0  0  0  0  0  0  0
   -2.8166   11.3511   -0.9663 H   0  0  0  0  0  0  0  0  0  0  0  0
    1.2077   11.0509   -1.0724 H   0  0  0  0  0  0  0  0  0  0  0  0
    0.2534    9.3982   -3.4927 H   0  0  0  0  0  0  0  0  0  0  0  0
    1.9740    9.6814   -2.9741 H   0  0  0  0  0  0  0  0  0  0  0  0
    1.1582    7.4366   -2.3259 H   0  0  0  0  0  0  0  0  0  0  0  0
    1.5820    8.4707   -0.9058 H   0  0  0  0  0  0  0  0  0  0  0  0
   -0.4643    7.3127   -0.4327 H   0  0  0  0  0  0  0  0  0  0  0  0
   -1.4750    8.5740   -2.8200 H   0  0  0  0  0  0  0  0  0  0  0  0
   -0.9496    9.3979    1.7659 H   0  0  0  0  0  0  0  0  0  0  0  0
    0.5457    8.8164    0.9581 H   0  0  0  0  0  0  0  0  0  0  0  0
    0.1480   10.5681    0.9581 H   0  0  0  0  0  0  0  0  0  0  0  0
   -2.6121    9.0780    1.0897 H   0  0  0  0  0  0  0  0  0  0  0  0
   -3.1756    9.8851   -0.4129 H   0  0  0  0  0  0  0  0  0  0  0  0
   -2.8401    8.1204   -0.4129 H   0  0  0  0  0  0  0  0  0  0  0  0
   -0.6996   11.2373   -4.2400 H   0  0  0  0  0  0  0  0  0  0  0  0
    0.0168   12.7899   -4.7904 H   0  0  0  0  0  0  0  0  0  0  0  0
    1.0094   11.2928   -4.7904 H   0  0  0  0  0  0  0  0  0  0  0  0
    2.7792   11.5904   -2.8651 H   0  0  0  0  0  0  0  0  0  0  0  0
    2.3049   13.1050   -3.8213 H   0  0  0  0  0  0  0  0  0  0  0  0
    2.8030   12.8814   -0.8396 H   0  0  0  0  0  0  0  0  0  0  0  0
    3.7577   13.7874   -2.0786 H   0  0  0  0  0  0  0  0  0  0  0  0
    1.8973   16.5672   -2.6929 H   0  0  0  0  0  0  0  0  0  0  0  0
    2.7678   15.2239   -3.5080 H   0  0  0  0  0  0  0  0  0  0  0  0
    0.9719   15.2611   -3.5080 H   0  0  0  0  0  0  0  0  0  0  0  0
  1  2  1  0
  2  3  1  0
  3  4  1  0
  4  5  1  0
  5  6  1  0
  6  7  1  0
  7  8  1  0
  7  9  1  0
  2 10  1  0
 10 11  1  0
 11 12  1  0
 12 13  1  0
 13 14  1  1
 13 15  1  0
 15 16  1  0
 16 17  1  0
 17 18  2  0
 18 19  1  0
 19 20  1  0
 20 21  1  0
 21 22  1  0
 22 23  1  0
 22 24  1  0
 24 25  1  0
 24 26  1  0
 19 27  1  0
 27 28  1  6
 27 29  1  0
 29 30  1  0
 30 31  1  0
 31 32  1  6
  7  5  1  0
 31 10  1  0
 31 13  1  0
 27 15  1  0
 24 18  1  0
  1 33  1  0
  1 34  1  0
  1 35  1  0
  2 36  1  6
  3 37  1  0
  3 38  1  0
  4 39  1  0
  4 40  1  0
  5 41  1  6
  8 42  1  0
  8 43  1  0
  8 44  1  0
  9 45  1  0
  9 46  1  0
  9 47  1  0
 10 48  1  1
 11 49  1  0
 11 50  1  0
 12 51  1  0
 12 52  1  0
 14 53  1  0
 14 54  1  0
 14 55  1  0
 15 56  1  6
 16 57  1  0
 16 58  1  0
 17 59  1  0
 19 60  1  1
 20 61  1  0
 20 62  1  0
 21 63  1  0
 21 64  1  0
 22 65  1  1
 23 66  1  0
 25 67  1  0
 25 68  1  0
 25 69  1  0
 26 70  1  0
 26 71  1  0
 26 72  1  0
 28 73  1  0
 28 74  1  0
 28 75  1  0
 29 76  1  0
 29 77  1  0
 30 78  1  0
 30 79  1  0
 32 80  1  0
 32 81  1  0
 32 82  1  0
M  END
>  <meeko>  (6) 
{"is_sidechain": [false], "intermolecular_energy": 2.731, "internal_energy": -0.839}

$$$$
EPH_relaxed_0001_pdb2pqr_Repair_397_r2_0001_out
     RDKit          3D

 82 86  0  0  0  0  0  0  0  0999 V2000
    3.8090   17.7940    0.4950 C   0  0  0  0  0  0  0  0  0  0  0  0
    2.5460   18.3850   -0.1370 C   0  0  2  0  0  0  0  0  0  0  0  0
    1.8420   19.3870    0.8000 C   0  0  0  0  0  0  0  0  0  0  0  0
    0.7320   20.1920    0.1190 C   0  0  0  0  0  0  0  0  0  0  0  0
   -0.5880   20.0070    0.8040 C   0  0  2  0  0  0  0  0  0  0  0  0
   -1.1960   18.7250    0.5960 O   0  0  0  0  0  0  0  0  0  0  0  0
   -1.9020   19.8560    0.0610 C   0  0  0  0  0  0  0  0  0  0  0  0
   -1.9610   19.8850   -1.4340 C   0  0  0  0  0  0  0  0  0  0  0  0
   -3.1740   20.1700    0.7860 C   0  0  0  0  0  0  0  0  0  0  0  0
    1.5850   17.2670   -0.5210 C   0  0  1  0  0  0  0  0  0  0  0  0
    0.5100   17.7270   -1.5420 C   0  0  0  0  0  0  0  0  0  0  0  0
    0.2300   16.5180   -2.4720 C   0  0  0  0  0  0  0  0  0  0  0  0
    0.8950   15.3160   -1.7600 C   0  0  1  0  0  0  0  0  0  0  0  0
   -0.1320   14.8770   -0.6710 C   0  0  0  0  0  0  0  0  0  0  0  0
    1.3160   14.1190   -2.6740 C   0  0  2  0  0  0  0  0  0  0  0  0
    0.1580   13.4170   -3.4030 C   0  0  0  0  0  0  0  0  0  0  0  0
   -0.4600   12.2740   -2.6680 C   0  0  0  0  0  0  0  0  0  0  0  0
    0.0770   11.6470   -1.6040 C   0  0  0  0  0  0  0  0  0  0  0  0
    1.4770   12.0150   -1.0970 C   0  0  1  0  0  0  0  0  0  0  0  0
    2.2910   10.7200   -0.8400 C   0  0  0  0  0  0  0  0  0  0  0  0
    1.5690    9.7500    0.0910 C   0  0  0  0  0  0  0  0  0  0  0  0
    0.2060    9.3620   -0.4760 C   0  0  2  0  0  0  0  0  0  0  0  0
    0.4040    8.5980   -1.6700 O   0  0  0  0  0  0  0  0  0  0  0  0
   -0.7000   10.5870   -0.7840 C   0  0  0  0  0  0  0  0  0  0  0  0
   -1.1610   11.2400    0.5420 C   0  0  0  0  0  0  0  0  0  0  0  0
   -1.9860   10.0660   -1.4810 C   0  0  0  0  0  0  0  0  0  0  0  0
    2.2750   13.0740   -1.9720 C   0  0  1  0  0  0  0  0  0  0  0  0
    3.0510   12.3460   -3.1120 C   0  0  0  0  0  0  0  0  0  0  0  0
    3.3620   13.7710   -1.0700 C   0  0  0  0  0  0  0  0  0  0  0  0
    2.9160   15.0200   -0.2850 C   0  0  0  0  0  0  0  0  0  0  0  0
    2.1890   16.0110   -1.1990 C   0  0  2  0  0  0  0  0  0  0  0  0
    3.2040   16.4880   -2.2920 C   0  0  0  0  0  0  0  0  0  0  0  0
    3.7237   17.8339    1.5910 H   0  0  0  0  0  0  0  0  0  0  0  0
    3.9247   16.7482    0.1741 H   0  0  0  0  0  0  0  0  0  0  0  0
    4.6860   18.3752    0.1741 H   0  0  0  0  0  0  0  0  0  0  0  0
    2.8536   18.9361   -1.0379 H   0  0  0  0  0  0  0  0  0  0  0  0
    1.4009   18.8276    1.6381 H   0  0  0  0  0  0  0  0  0  0  0  0
    2.6045   20.1075    1.1309 H   0  0  0  0  0  0  0  0  0  0  0  0
    0.9995   21.2587    0.1429 H   0  0  0  0  0  0  0  0  0  0  0  0
    0.6341   19.8328   -0.9161 H   0  0  0  0  0  0  0  0  0  0  0  0
   -0.2785   20.6648    1.6295 H   0  0  0  0  0  0  0  0  0  0  0  0
   -2.9053   20.3491   -1.7547 H   0  0  0  0  0  0  0  0  0  0  0  0
   -1.1144   20.4696   -1.8231 H   0  0  0  0  0  0  0  0  0  0  0  0
   -1.9067   18.8575   -1.8231 H   0  0  0  0  0  0  0  0  0  0  0  0
   -2.9980   20.1265    1.8710 H   0  0  0  0  0  0  0  0  0  0  0  0
   -3.5140   21.1790    0.5098 H   0  0  0  0  0  0  0  0  0  0  0  0
   -3.9445   19.4351    0.5098 H   0  0  0  0  0  0  0  0  0  0  0  0
    1.1975   17.0073    0.4752 H   0  0  0  0  0  0  0  0  0  0  0  0
   -0.4102   18.0216   -1.0163 H   0  0  0  0  0  0  0  0  0  0  0  0
    0.8592   18.5963   -2.1185 H   0  0  0  0  0  0  0  0  0  0  0  0
   -0.8523   16.3545   -2.5812 H   0  0  0  0  0  0  0  0  0  0  0  0
    0.6247   16.6722   -3.4871 H   0  0  0  0  0  0  0  0  0  0  0  0
    0.2923   15.0584    0.3275 H   0  0  0  0  0  0  0  0  0  0  0  0
   -1.0593   15.4574   -0.7863 H   0  0  0  0  0  0  0  0  0  0  0  0
   -0.3532   13.8057   -0.7863 H   0  0  0  0  0  0  0  0  0  0  0  0
    1.9053   14.6164   -3.4584 H   0  0  0  0  0  0  0  0  0  0  0  0
   -0.6272   14.1639   -3.5916 H   0  0  0  0  0  0  0  0  0  0  0  0
    0.5904   12.9903   -4.3200 H   0  0  0  0  0  0  0  0  0  0  0  0
   -1.4359   11.9137   -3.0255 H   0  0  0  0  0  0  0  0  0  0  0  0
    1.3258   12.5549   -0.1506 H   0  0  0  0  0  0  0  0  0  0  0  0
    2.4688   10.2184   -1.8027 H   0  0  0  0  0  0  0  0  0  0  0  0
    3.2344   11.0096   -0.3540 H   0  0  0  0  0  0  0  0  0  0  0  0
    2.1804    8.8434    0.2107 H   0  0  0  0  0  0  0  0  0  0  0  0
    1.4176   10.2429    1.0627 H   0  0  0  0  0  0  0  0  0  0  0  0
   -0.3150    8.7713    0.2918 H   0  0  0  0  0  0  0  0  0  0  0  0
    0.8350    7.7640   -1.4170 H   0  0  0  0  0  0  0  0  0  0  0  0
   -0.7579   10.6690    1.3914 H   0  0  0  0  0  0  0  0  0  0  0  0
   -0.7926   12.2754    0.5883 H   0  0  0  0  0  0  0  0  0  0  0  0
   -2.2600   11.2395    0.5883 H   0  0  0  0  0  0  0  0  0  0  0  0
   -2.7211    9.7682   -0.7189 H   0  0  0  0  0  0  0  0  0  0  0  0
   -2.4112   10.8628   -2.1090 H   0  0  0  0  0  0  0  0  0  0  0  0
   -1.7367    9.1979   -2.1090 H   0  0  0  0  0  0  0  0  0  0  0  0
    3.7864   11.6561   -2.6724 H   0  0  0  0  0  0  0  0  0  0  0  0
    2.3425   11.7792   -3.7339 H   0  0  0  0  0  0  0  0  0  0  0  0
    3.5715   13.0892   -3.7339 H   0  0  0  0  0  0  0  0  0  0  0  0
    3.7153   13.0277   -0.3401 H   0  0  0  0  0  0  0  0  0  0  0  0
    4.1303   14.1302   -1.7705 H   0  0  0  0  0  0  0  0  0  0  0  0
    2.2377   14.7130    0.5247 H   0  0  0  0  0  0  0  0  0  0  0  0
    3.8090   15.5128    0.1270 H   0  0  0  0  0  0  0  0  0  0  0  0
    4.0968   16.9076   -1.8052 H   0  0  0  0  0  0  0  0  0  0  0  0
    3.4961   15.6329   -2.9193 H   0  0  0  0  0  0  0  0  0  0  0  0
    2.7321   17.2586   -2.9193 H   0  0  0  0  0  0  0  0  0  0  0  0
  1  2  1  0
  2  3  1  0
  3  4  1  0
  4  5  1  0
  5  6  1  0
  6  7  1  0
  7  8  1  0
  7  9  1  0
  2 10  1  0
 10 11  1  0
 11 12  1  0
 12 13  1  0
 13 14  1  1
 13 15  1  0
 15 16  1  0
 16 17  1  0
 17 18  2  0
 18 19  1  0
 19 20  1  0
 20 21  1  0
 21 22  1  0
 22 23  1  0
 22 24  1  0
 24 25  1  0
 24 26  1  0
 19 27  1  0
 27 28  1  6
 27 29  1  0
 29 30  1  0
 30 31  1  0
 31 32  1  6
  7  5  1  0
 31 10  1  0
 31 13  1  0
 27 15  1  0
 24 18  1  0
  1 33  1  0
  1 34  1  0
  1 35  1  0
  2 36  1  6
  3 37  1  0
  3 38  1  0
  4 39  1  0
  4 40  1  0
  5 41  1  1
  8 42  1  0
  8 43  1  0
  8 44  1  0
  9 45  1  0
  9 46  1  0
  9 47  1  0
 10 48  1  1
 11 49  1  0
 11 50  1  0
 12 51  1  0
 12 52  1  0
 14 53  1  0
 14 54  1  0
 14 55  1  0
 15 56  1  6
 16 57  1  0
 16 58  1  0
 17 59  1  0
 19 60  1  1
 20 61  1  0
 20 62  1  0
 21 63  1  0
 21 64  1  0
 22 65  1  1
 23 66  1  0
 25 67  1  0
 25 68  1  0
 25 69  1  0
 26 70  1  0
 26 71  1  0
 26 72  1  0
 28 73  1  0
 28 74  1  0
 28 75  1  0
 29 76  1  0
 29 77  1  0
 30 78  1  0
 30 79  1  0
 32 80  1  0
 32 81  1  0
 32 82  1  0
M  END
>  <meeko>  (7) 
{"is_sidechain": [false], "intermolecular_energy": 2.731, "internal_energy": -0.839}

$$$$
EPH_relaxed_0001_pdb2pqr_Repair_397_r2_0001_out
     RDKit          3D

 82 86  0  0  0  0  0  0  0  0999 V2000
    0.4360    8.8000   -2.3710 C   0  0  0  0  0  0  0  0  0  0  0  0
    1.1760    9.9440   -3.0690 C   0  0  2  0  0  0  0  0  0  0  0  0
    2.6770    9.9640   -2.7170 C   0  0  0  0  0  0  0  0  0  0  0  0
    3.5580   10.5730   -3.8110 C   0  0  0  0  0  0  0  0  0  0  0  0
    4.9550   10.8190   -3.3260 C   0  0  2  0  0  0  0  0  0  0  0  0
    5.5480   12.0340   -3.8020 O   0  0  0  0  0  0  0  0  0  0  0  0
    6.1690   10.8130   -4.2350 C   0  0  0  0  0  0  0  0  0  0  0  0
    6.0440   10.5530   -5.7040 C   0  0  0  0  0  0  0  0  0  0  0  0
    7.5160   10.5730   -3.6270 C   0  0  0  0  0  0  0  0  0  0  0  0
    0.5370   11.2770   -2.7010 C   0  0  1  0  0  0  0  0  0  0  0  0
   -0.8410   11.1080   -2.0070 C   0  0  0  0  0  0  0  0  0  0  0  0
   -0.9570   12.2470   -0.9610 C   0  0  0  0  0  0  0  0  0  0  0  0
    0.1930   13.2200   -1.3140 C   0  0  1  0  0  0  0  0  0  0  0  0
   -0.3560   14.0780   -2.4960 C   0  0  0  0  0  0  0  0  0  0  0  0
    0.7220   14.1160   -0.1470 C   0  0  2  0  0  0  0  0  0  0  0  0
   -0.3090   15.0920    0.4450 C   0  0  0  0  0  0  0  0  0  0  0  0
   -0.3520   16.4400   -0.1950 C   0  0  0  0  0  0  0  0  0  0  0  0
    0.5900   16.9490   -1.0100 C   0  0  0  0  0  0  0  0  0  0  0  0
    1.8920   16.1850   -1.2830 C   0  0  1  0  0  0  0  0  0  0  0  0
    3.0980   17.1510   -1.1520 C   0  0  0  0  0  0  0  0  0  0  0  0
    2.9530   18.3900   -2.0300 C   0  0  0  0  0  0  0  0  0  0  0  0
    1.6770   19.1550   -1.6890 C   0  0  2  0  0  0  0  0  0  0  0  0
    1.8020   19.6930   -0.3690 O   0  0  0  0  0  0  0  0  0  0  0  0
    0.3960   18.2800   -1.7780 C   0  0  0  0  0  0  0  0  0  0  0  0
    0.0950   17.9460   -3.2600 C   0  0  0  0  0  0  0  0  0  0  0  0
   -0.8000   19.1320   -1.2730 C   0  0  0  0  0  0  0  0  0  0  0  0
    2.0930   14.8410   -0.4580 C   0  0  1  0  0  0  0  0  0  0  0  0
    2.7520   15.1570    0.9200 C   0  0  0  0  0  0  0  0  0  0  0  0
    3.1020   13.9100   -1.2290 C   0  0  0  0  0  0  0  0  0  0  0  0
    2.5030   12.9620   -2.2860 C   0  0  0  0  0  0  0  0  0  0  0  0
    1.3100   12.1890   -1.7160 C   0  0  2  0  0  0  0  0  0  0  0  0
    1.8360   11.2990   -0.5380 C   0  0  0  0  0  0  0  0  0  0  0  0
    0.5156    8.9230   -1.2808 H   0  0  0  0  0  0  0  0  0  0  0  0
   -0.6238    8.8153   -2.6653 H   0  0  0  0  0  0  0  0  0  0  0  0
    0.8845    7.8397   -2.6653 H   0  0  0  0  0  0  0  0  0  0  0  0
    1.0932    9.7792   -4.1534 H   0  0  0  0  0  0  0  0  0  0  0  0
    2.8100   10.5518   -1.7968 H   0  0  0  0  0  0  0  0  0  0  0  0
    2.9926    8.9172   -2.5959 H   0  0  0  0  0  0  0  0  0  0  0  0
    3.5941    9.8814   -4.6656 H   0  0  0  0  0  0  0  0  0  0  0  0
    3.1218   11.5395   -4.1037 H   0  0  0  0  0  0  0  0  0  0  0  0
    4.7415   10.3051   -2.3771 H   0  0  0  0  0  0  0  0  0  0  0  0
    5.5724    9.5722   -5.8639 H   0  0  0  0  0  0  0  0  0  0  0  0
    5.4244   11.3371   -6.1637 H   0  0  0  0  0  0  0  0  0  0  0  0
    7.0433   10.5587   -6.1637 H   0  0  0  0  0  0  0  0  0  0  0  0
    7.4313   10.5881   -2.5304 H   0  0  0  0  0  0  0  0  0  0  0  0
    7.8956    9.5931   -3.9520 H   0  0  0  0  0  0  0  0  0  0  0  0
    8.2107   11.3615   -3.9520 H   0  0  0  0  0  0  0  0  0  0  0  0
    0.5007   11.7443   -3.6961 H   0  0  0  0  0  0  0  0  0  0  0  0
   -1.6506   11.1894   -2.7472 H   0  0  0  0  0  0  0  0  0  0  0  0
   -0.9238   10.1213   -1.5278 H   0  0  0  0  0  0  0  0  0  0  0  0
   -1.9312   12.7513   -1.0426 H   0  0  0  0  0  0  0  0  0  0  0  0
   -0.8856   11.8740    0.0714 H   0  0  0  0  0  0  0  0  0  0  0  0
   -0.9084   14.9414   -2.0967 H   0  0  0  0  0  0  0  0  0  0  0  0
    0.4832   14.4328   -3.1123 H   0  0  0  0  0  0  0  0  0  0  0  0
   -1.0298   13.4647   -3.1123 H   0  0  0  0  0  0  0  0  0  0  0  0
    0.9232   13.3790    0.6444 H   0  0  0  0  0  0  0  0  0  0  0  0
   -1.3051   14.6362    0.3447 H   0  0  0  0  0  0  0  0  0  0  0  0
   -0.0044   15.2602    1.4885 H   0  0  0  0  0  0  0  0  0  0  0  0
   -1.2279   17.0706    0.0177 H   0  0  0  0  0  0  0  0  0  0  0  0
    1.8186   15.8200   -2.3181 H   0  0  0  0  0  0  0  0  0  0  0  0
    3.1817   17.4702   -0.1027 H   0  0  0  0  0  0  0  0  0  0  0  0
    3.9966   16.6101   -1.4835 H   0  0  0  0  0  0  0  0  0  0  0  0
    3.8203   19.0476   -1.8705 H   0  0  0  0  0  0  0  0  0  0  0  0
    2.9001   18.0706   -3.0813 H   0  0  0  0  0  0  0  0  0  0  0  0
    1.5620   19.9551   -2.4350 H   0  0  0  0  0  0  0  0  0  0  0  0
    1.7400   20.6610   -0.4390 H   0  0  0  0  0  0  0  0  0  0  0  0
   -0.6406   17.1297   -3.3098 H   0  0  0  0  0  0  0  0  0  0  0  0
   -0.3113   18.8368   -3.7614 H   0  0  0  0  0  0  0  0  0  0  0  0
    1.0231   17.6343   -3.7614 H   0  0  0  0  0  0  0  0  0  0  0  0
   -0.8077   19.1375   -0.1730 H   0  0  0  0  0  0  0  0  0  0  0  0
   -0.6986   20.1625   -1.6441 H   0  0  0  0  0  0  0  0  0  0  0  0
   -1.7409   18.6995   -1.6441 H   0  0  0  0  0  0  0  0  0  0  0  0
    2.0808   14.8351    1.7299 H   0  0  0  0  0  0  0  0  0  0  0  0
    3.7083   14.6195    1.0010 H   0  0  0  0  0  0  0  0  0  0  0  0
    2.9316   16.2392    1.0010 H   0  0  0  0  0  0  0  0  0  0  0  0
    3.8307   14.5581   -1.7379 H   0  0  0  0  0  0  0  0  0  0  0  0
    3.5304   13.2503   -0.4601 H   0  0  0  0  0  0  0  0  0  0  0  0
    2.1685   13.5532   -3.1512 H   0  0  0  0  0  0  0  0  0  0  0  0
    3.2763   12.2405   -2.5884 H   0  0  0  0  0  0  0  0  0  0  0  0
    1.5625   11.7618    0.4217 H   0  0  0  0  0  0  0  0  0  0  0  0
    1.3842   10.2983   -0.6044 H   0  0  0  0  0  0  0  0  0  0  0  0
    2.9306   11.2122   -0.6044 H   0  0  0  0  0  0  0  0  0  0  0  0
  1  2  1  0
  2  3  1  0
  3  4  1  0
  4  5  1  0
  5  6  1  0
  6  7  1  0
  7  8  1  0
  7  9  1  0
  2 10  1  0
 10 11  1  0
 11 12  1  0
 12 13  1  0
 13 14  1  6
 13 15  1  0
 15 16  1  0
 16 17  1  0
 17 18  2  0
 18 19  1  0
 19 20  1  0
 20 21  1  0
 21 22  1  0
 22 23  1  0
 22 24  1  0
 24 25  1  0
 24 26  1  0
 19 27  1  0
 27 28  1  1
 27 29  1  0
 29 30  1  0
 30 31  1  0
 31 32  1  1
  7  5  1  0
 31 10  1  0
 31 13  1  0
 27 15  1  0
 24 18  1  0
  1 33  1  0
  1 34  1  0
  1 35  1  0
  2 36  1  6
  3 37  1  0
  3 38  1  0
  4 39  1  0
  4 40  1  0
  5 41  1  1
  8 42  1  0
  8 43  1  0
  8 44  1  0
  9 45  1  0
  9 46  1  0
  9 47  1  0
 10 48  1  6
 11 49  1  0
 11 50  1  0
 12 51  1  0
 12 52  1  0
 14 53  1  0
 14 54  1  0
 14 55  1  0
 15 56  1  1
 16 57  1  0
 16 58  1  0
 17 59  1  0
 19 60  1  6
 20 61  1  0
 20 62  1  0
 21 63  1  0
 21 64  1  0
 22 65  1  6
 23 66  1  0
 25 67  1  0
 25 68  1  0
 25 69  1  0
 26 70  1  0
 26 71  1  0
 26 72  1  0
 28 73  1  0
 28 74  1  0
 28 75  1  0
 29 76  1  0
 29 77  1  0
 30 78  1  0
 30 79  1  0
 32 80  1  0
 32 81  1  0
 32 82  1  0
M  END
>  <meeko>  (8) 
{"is_sidechain": [false], "intermolecular_energy": 2.731, "internal_energy": -0.839}

$$$$
EPH_relaxed_0001_pdb2pqr_Repair_397_r2_0001_out
     RDKit          3D

 82 86  0  0  0  0  0  0  0  0999 V2000
   -0.1700   10.4660   -3.7810 C   0  0  0  0  0  0  0  0  0  0  0  0
    0.8650   10.2270   -2.6790 C   0  0  2  0  0  0  0  0  0  0  0  0
    0.5530    8.9640   -1.8510 C   0  0  0  0  0  0  0  0  0  0  0  0
   -0.8620    8.4200   -2.0700 C   0  0  0  0  0  0  0  0  0  0  0  0
   -1.6960    8.5300   -0.8290 C   0  0  2  0  0  0  0  0  0  0  0  0
   -3.0840    8.8000   -1.0630 O   0  0  0  0  0  0  0  0  0  0  0  0
   -2.3480    9.8210   -0.3710 C   0  0  0  0  0  0  0  0  0  0  0  0
   -2.1930   11.0910   -1.1460 C   0  0  0  0  0  0  0  0  0  0  0  0
   -2.7210    9.9610    1.0720 C   0  0  0  0  0  0  0  0  0  0  0  0
    0.9400   11.4440   -1.7640 C   0  0  1  0  0  0  0  0  0  0  0  0
    1.9750   11.2700   -0.6210 C   0  0  0  0  0  0  0  0  0  0  0  0
    2.5990   12.6660   -0.3660 C   0  0  0  0  0  0  0  0  0  0  0  0
    1.6790   13.6490   -1.1270 C   0  0  1  0  0  0  0  0  0  0  0  0
    0.4640   13.8790   -0.1750 C   0  0  0  0  0  0  0  0  0  0  0  0
    2.3280   15.0010   -1.5710 C   0  0  2  0  0  0  0  0  0  0  0  0
    2.8190   15.8970   -0.4220 C   0  0  0  0  0  0  0  0  0  0  0  0
    1.8170   16.8740    0.0990 C   0  0  0  0  0  0  0  0  0  0  0  0
    0.6730   17.2240   -0.5180 C   0  0  0  0  0  0  0  0  0  0  0  0
    0.3370   16.6920   -1.9170 C   0  0  1  0  0  0  0  0  0  0  0  0
   -0.1530   17.8600   -2.8120 C   0  0  0  0  0  0  0  0  0  0  0  0
   -1.3130   18.6290   -2.1860 C   0  0  0  0  0  0  0  0  0  0  0  0
   -0.9220   19.1920   -0.8220 C   0  0  2  0  0  0  0  0  0  0  0  0
    0.0830   20.1940   -1.0080 O   0  0  0  0  0  0  0  0  0  0  0  0
   -0.4020   18.1070    0.1620 C   0  0  0  0  0  0  0  0  0  0  0  0
   -1.5750   17.1950    0.5990 C   0  0  0  0  0  0  0  0  0  0  0  0
    0.0910   18.8250    1.4480 C   0  0  0  0  0  0  0  0  0  0  0  0
    1.4670   15.8200   -2.6170 C   0  0  1  0  0  0  0  0  0  0  0  0
    2.4600   16.7490   -3.3790 C   0  0  0  0  0  0  0  0  0  0  0  0
    0.8030   14.8930   -3.7020 C   0  0  0  0  0  0  0  0  0  0  0  0
    0.2890   13.5220   -3.2250 C   0  0  0  0  0  0  0  0  0  0  0  0
    1.3560   12.7920   -2.4040 C   0  0  2  0  0  0  0  0  0  0  0  0
    2.5830   12.5260   -3.3430 C   0  0  0  0  0  0  0  0  0  0  0  0
   -1.1455   10.6913   -3.3252 H   0  0  0  0  0  0  0  0  0  0  0  0
    0.1479   11.3144   -4.4049 H   0  0  0  0  0  0  0  0  0  0  0  0
   -0.2563    9.5641   -4.4049 H   0  0  0  0  0  0  0  0  0  0  0  0
    1.8374   10.0682   -3.1681 H   0  0  0  0  0  0  0  0  0  0  0  0
    1.2734    8.1802   -2.1278 H   0  0  0  0  0  0  0  0  0  0  0  0
    0.6288    9.2471   -0.7907 H   0  0  0  0  0  0  0  0  0  0  0  0
   -1.3439    8.9936   -2.8755 H   0  0  0  0  0  0  0  0  0  0  0  0
   -0.7830    7.3559   -2.3371 H   0  0  0  0  0  0  0  0  0  0  0  0
   -1.0595    7.7997   -0.3080 H   0  0  0  0  0  0  0  0  0  0  0  0
   -2.0899   11.9357   -0.4489 H   0  0  0  0  0  0  0  0  0  0  0  0
   -1.2960   11.0268   -1.7795 H   0  0  0  0  0  0  0  0  0  0  0  0
   -3.0791   11.2444   -1.7795 H   0  0  0  0  0  0  0  0  0  0  0  0
   -1.8764    9.6440    1.7014 H   0  0  0  0  0  0  0  0  0  0  0  0
   -2.9647   11.0118    1.2874 H   0  0  0  0  0  0  0  0  0  0  0  0
   -3.5959    9.3301    1.2874 H   0  0  0  0  0  0  0  0  0  0  0  0
   -0.1090   11.4917   -1.4364 H   0  0  0  0  0  0  0  0  0  0  0  0
    1.4763   10.9060    0.2894 H   0  0  0  0  0  0  0  0  0  0  0  0
    2.7473   10.5365   -0.8959 H   0  0  0  0  0  0  0  0  0  0  0  0
    2.6086   12.8966    0.7095 H   0  0  0  0  0  0  0  0  0  0  0  0
    3.6437   12.7244   -0.7054 H   0  0  0  0  0  0  0  0  0  0  0  0
    0.8001   13.8154    0.8704 H   0  0  0  0  0  0  0  0  0  0  0  0
    0.0348   14.8743   -0.3622 H   0  0  0  0  0  0  0  0  0  0  0  0
   -0.2993   13.1094   -0.3622 H   0  0  0  0  0  0  0  0  0  0  0  0
    3.2348   14.6668   -2.0963 H   0  0  0  0  0  0  0  0  0  0  0  0
    3.1231   15.2456    0.4106 H   0  0  0  0  0  0  0  0  0  0  0  0
    3.6425   16.4976   -0.8356 H   0  0  0  0  0  0  0  0  0  0  0  0
    2.0318   17.3474    1.0684 H   0  0  0  0  0  0  0  0  0  0  0  0
   -0.4748   15.9629   -1.7776 H   0  0  0  0  0  0  0  0  0  0  0  0
    0.6840   18.5549   -2.9746 H   0  0  0  0  0  0  0  0  0  0  0  0
   -0.5102   17.4285   -3.7587 H   0  0  0  0  0  0  0  0  0  0  0  0
   -1.5949   19.4590   -2.8506 H   0  0  0  0  0  0  0  0  0  0  0  0
   -2.1593   17.9393   -2.0514 H   0  0  0  0  0  0  0  0  0  0  0  0
   -1.8290   19.6182   -0.3684 H   0  0  0  0  0  0  0  0  0  0  0  0
    0.9480   19.7510   -0.9850 H   0  0  0  0  0  0  0  0  0  0  0  0
   -1.6217   17.1587    1.6974 H   0  0  0  0  0  0  0  0  0  0  0  0
   -2.5195   17.5983    0.2050 H   0  0  0  0  0  0  0  0  0  0  0  0
   -1.4169   16.1802    0.2050 H   0  0  0  0  0  0  0  0  0  0  0  0
   -0.2787   18.2866    2.3331 H   0  0  0  0  0  0  0  0  0  0  0  0
    1.1908   18.8401    1.4608 H   0  0  0  0  0  0  0  0  0  0  0  0
   -0.2900   19.8568    1.4608 H   0  0  0  0  0  0  0  0  0  0  0  0
    3.0638   17.3139   -2.6535 H   0  0  0  0  0  0  0  0  0  0  0  0
    3.1221   16.1385   -4.0106 H   0  0  0  0  0  0  0  0  0  0  0  0
    1.8949   17.4502   -4.0106 H   0  0  0  0  0  0  0  0  0  0  0  0
   -0.0519   15.4389   -4.1277 H   0  0  0  0  0  0  0  0  0  0  0  0
    1.6076   14.6654   -4.4167 H   0  0  0  0  0  0  0  0  0  0  0  0
   -0.6056   13.6699   -2.6022 H   0  0  0  0  0  0  0  0  0  0  0  0
    0.0471   12.9117   -4.1076 H   0  0  0  0  0  0  0  0  0  0  0  0
    3.4770   12.3322   -2.7321 H   0  0  0  0  0  0  0  0  0  0  0  0
    2.3762   11.6518   -3.9779 H   0  0  0  0  0  0  0  0  0  0  0  0
    2.7567   13.4073   -3.9779 H   0  0  0  0  0  0  0  0  0  0  0  0
  1  2  1  0
  2  3  1  0
  3  4  1  0
  4  5  1  0
  5  6  1  0
  6  7  1  0
  7  8  1  0
  7  9  1  0
  2 10  1  0
 10 11  1  0
 11 12  1  0
 12 13  1  0
 13 14  1  1
 13 15  1  0
 15 16  1  0
 16 17  1  0
 17 18  2  0
 18 19  1  0
 19 20  1  0
 20 21  1  0
 21 22  1  0
 22 23  1  0
 22 24  1  0
 24 25  1  0
 24 26  1  0
 19 27  1  0
 27 28  1  6
 27 29  1  0
 29 30  1  0
 30 31  1  0
 31 32  1  6
  7  5  1  0
 31 10  1  0
 31 13  1  0
 27 15  1  0
 24 18  1  0
  1 33  1  0
  1 34  1  0
  1 35  1  0
  2 36  1  6
  3 37  1  0
  3 38  1  0
  4 39  1  0
  4 40  1  0
  5 41  1  1
  8 42  1  0
  8 43  1  0
  8 44  1  0
  9 45  1  0
  9 46  1  0
  9 47  1  0
 10 48  1  1
 11 49  1  0
 11 50  1  0
 12 51  1  0
 12 52  1  0
 14 53  1  0
 14 54  1  0
 14 55  1  0
 15 56  1  6
 16 57  1  0
 16 58  1  0
 17 59  1  0
 19 60  1  1
 20 61  1  0
 20 62  1  0
 21 63  1  0
 21 64  1  0
 22 65  1  1
 23 66  1  0
 25 67  1  0
 25 68  1  0
 25 69  1  0
 26 70  1  0
 26 71  1  0
 26 72  1  0
 28 73  1  0
 28 74  1  0
 28 75  1  0
 29 76  1  0
 29 77  1  0
 30 78  1  0
 30 79  1  0
 32 80  1  0
 32 81  1  0
 32 82  1  0
M  END
>  <meeko>  (9) 
{"is_sidechain": [false], "intermolecular_energy": 2.731, "internal_energy": -0.839}

$$$$
EPH_relaxed_0001_pdb2pqr_Repair_397_r2_0001_out
     RDKit          3D

 82 86  0  0  0  0  0  0  0  0999 V2000
   -4.1400    7.2000   -3.3160 C   0  0  0  0  0  0  0  0  0  0  0  0
   -4.0680    7.2780   -1.7890 C   0  0  2  0  0  0  0  0  0  0  0  0
   -5.4500    7.0950   -1.1310 C   0  0  0  0  0  0  0  0  0  0  0  0
   -6.6180    7.1860   -2.1180 C   0  0  0  0  0  0  0  0  0  0  0  0
   -7.3170    8.5090   -2.0280 C   0  0  2  0  0  0  0  0  0  0  0  0
   -8.0760    8.7050   -0.8280 O   0  0  0  0  0  0  0  0  0  0  0  0
   -8.8260    8.6600   -2.0520 C   0  0  0  0  0  0  0  0  0  0  0  0
   -9.7280    7.4720   -2.1700 C   0  0  0  0  0  0  0  0  0  0  0  0
   -9.4060    9.9810   -2.4520 C   0  0  0  0  0  0  0  0  0  0  0  0
   -3.4630    8.6120   -1.3650 C   0  0  1  0  0  0  0  0  0  0  0  0
   -4.0300    9.1230   -0.0140 C   0  0  0  0  0  0  0  0  0  0  0  0
   -2.8690    9.8490    0.7120 C   0  0  0  0  0  0  0  0  0  0  0  0
   -1.7780   10.0220   -0.3710 C   0  0  1  0  0  0  0  0  0  0  0  0
   -2.2200   11.2770   -1.1870 C   0  0  0  0  0  0  0  0  0  0  0  0
   -0.3080   10.1560    0.1440 C   0  0  2  0  0  0  0  0  0  0  0  0
   -0.0350   11.3860    1.0260 C   0  0  0  0  0  0  0  0  0  0  0  0
    0.4070   12.6100    0.2950 C   0  0  0  0  0  0  0  0  0  0  0  0
    0.8520   12.6450   -0.9750 C   0  0  0  0  0  0  0  0  0  0  0  0
    1.0360   11.3520   -1.7800 C   0  0  1  0  0  0  0  0  0  0  0  0
    2.4120   11.3810   -2.4970 C   0  0  0  0  0  0  0  0  0  0  0  0
    2.6020   12.6310   -3.3490 C   0  0  0  0  0  0  0  0  0  0  0  0
    2.4690   13.8940   -2.5020 C   0  0  2  0  0  0  0  0  0  0  0  0
    3.5620   13.9480   -1.5800 O   0  0  0  0  0  0  0  0  0  0  0  0
    1.1250   13.9720   -1.7250 C   0  0  0  0  0  0  0  0  0  0  0  0
   -0.0370   14.2170   -2.7190 C   0  0  0  0  0  0  0  0  0  0  0  0
    1.1780   15.2200   -0.8030 C   0  0  0  0  0  0  0  0  0  0  0  0
    0.7900    9.9990   -0.9850 C   0  0  1  0  0  0  0  0  0  0  0  0
    2.1030    9.5560   -0.2690 C   0  0  0  0  0  0  0  0  0  0  0  0
    0.4360    8.8570   -2.0100 C   0  0  0  0  0  0  0  0  0  0  0  0
   -1.0490    8.6980   -2.3870 C   0  0  0  0  0  0  0  0  0  0  0  0
   -1.9310    8.6570   -1.1360 C   0  0  2  0  0  0  0  0  0  0  0  0
   -1.5250    7.3920   -0.3060 C   0  0  0  0  0  0  0  0  0  0  0  0
   -4.8590    6.4211   -3.6099 H   0  0  0  0  0  0  0  0  0  0  0  0
   -4.4663    8.1706   -3.7177 H   0  0  0  0  0  0  0  0  0  0  0  0
   -3.1464    6.9522   -3.7177 H   0  0  0  0  0  0  0  0  0  0  0  0
   -3.4275    6.4520   -1.4461 H   0  0  0  0  0  0  0  0  0  0  0  0
   -5.4777    6.1060   -0.6502 H   0  0  0  0  0  0  0  0  0  0  0  0
   -5.5740    7.9157   -0.4092 H   0  0  0  0  0  0  0  0  0  0  0  0
   -6.2324    7.0551   -3.1399 H   0  0  0  0  0  0  0  0  0  0  0  0
   -7.3423    6.3973   -1.8664 H   0  0  0  0  0  0  0  0  0  0  0  0
   -6.5170    8.9976   -2.6036 H   0  0  0  0  0  0  0  0  0  0  0  0
   -9.9985    7.1157   -1.1651 H   0  0  0  0  0  0  0  0  0  0  0  0
  -10.6396    7.7566   -2.7158 H   0  0  0  0  0  0  0  0  0  0  0  0
   -9.2090    6.6703   -2.7158 H   0  0  0  0  0  0  0  0  0  0  0  0
   -9.6594   10.5582   -1.5506 H   0  0  0  0  0  0  0  0  0  0  0  0
   -8.6700   10.5387   -3.0497 H   0  0  0  0  0  0  0  0  0  0  0  0
  -10.3147    9.8166   -3.0497 H   0  0  0  0  0  0  0  0  0  0  0  0
   -3.7306    9.2224   -2.2401 H   0  0  0  0  0  0  0  0  0  0  0  0
   -4.8612    9.8213   -0.1918 H   0  0  0  0  0  0  0  0  0  0  0  0
   -4.4161    8.2905    0.5926 H   0  0  0  0  0  0  0  0  0  0  0  0
   -3.1993   10.8277    1.0901 H   0  0  0  0  0  0  0  0  0  0  0  0
   -2.5053    9.2854    1.5838 H   0  0  0  0  0  0  0  0  0  0  0  0
   -2.5039   12.0832   -0.4946 H   0  0  0  0  0  0  0  0  0  0  0  0
   -1.3866   11.6145   -1.8207 H   0  0  0  0  0  0  0  0  0  0  0  0
   -3.0809   11.0178   -1.8207 H   0  0  0  0  0  0  0  0  0  0  0  0
   -0.2102    9.2851    0.8088 H   0  0  0  0  0  0  0  0  0  0  0  0
   -0.9618   11.6291    1.5664 H   0  0  0  0  0  0  0  0  0  0  0  0
    0.8000   11.1077    1.6858 H   0  0  0  0  0  0  0  0  0  0  0  0
    0.3656   13.5644    0.8403 H   0  0  0  0  0  0  0  0  0  0  0  0
    0.2267   11.3392   -2.5249 H   0  0  0  0  0  0  0  0  0  0  0  0
    3.2063   11.3486   -1.7368 H   0  0  0  0  0  0  0  0  0  0  0  0
    2.4571   10.5102   -3.1676 H   0  0  0  0  0  0  0  0  0  0  0  0
    3.6027   12.6071   -3.8050 H   0  0  0  0  0  0  0  0  0  0  0  0
    1.8249   12.6468   -4.1273 H   0  0  0  0  0  0  0  0  0  0  0  0
    2.4849   14.7541   -3.1875 H   0  0  0  0  0  0  0  0  0  0  0  0
    3.3160   13.4200   -0.8010 H   0  0  0  0  0  0  0  0  0  0  0  0
   -0.9635   14.4123   -2.1591 H   0  0  0  0  0  0  0  0  0  0  0  0
    0.1988   15.0852   -3.3520 H   0  0  0  0  0  0  0  0  0  0  0  0
   -0.1717   13.3275   -3.3520 H   0  0  0  0  0  0  0  0  0  0  0  0
    1.1644   14.8994    0.2492 H   0  0  0  0  0  0  0  0  0  0  0  0
    2.1009   15.7843   -1.0025 H   0  0  0  0  0  0  0  0  0  0  0  0
    0.3062   15.8605   -1.0025 H   0  0  0  0  0  0  0  0  0  0  0  0
    1.9606    9.6041    0.8207 H   0  0  0  0  0  0  0  0  0  0  0  0
    2.3501    8.5248   -0.5614 H   0  0  0  0  0  0  0  0  0  0  0  0
    2.9243   10.2268   -0.5614 H   0  0  0  0  0  0  0  0  0  0  0  0
    0.9950    9.0561   -2.9362 H   0  0  0  0  0  0  0  0  0  0  0  0
    0.7058    7.9198   -1.5012 H   0  0  0  0  0  0  0  0  0  0  0  0
   -1.3539    9.5484   -3.0145 H   0  0  0  0  0  0  0  0  0  0  0  0
   -1.1724    7.7518   -2.9342 H   0  0  0  0  0  0  0  0  0  0  0  0
   -1.5979    7.6191    0.7678 H   0  0  0  0  0  0  0  0  0  0  0  0
   -2.2012    6.5598   -0.5515 H   0  0  0  0  0  0  0  0  0  0  0  0
   -0.4908    7.1088   -0.5515 H   0  0  0  0  0  0  0  0  0  0  0  0
  1  2  1  0
  2  3  1  0
  3  4  1  0
  4  5  1  0
  5  6  1  0
  6  7  1  0
  7  8  1  0
  7  9  1  0
  2 10  1  0
 10 11  1  0
 11 12  1  0
 12 13  1  0
 13 14  1  6
 13 15  1  0
 15 16  1  0
 16 17  1  0
 17 18  2  0
 18 19  1  0
 19 20  1  0
 20 21  1  0
 21 22  1  0
 22 23  1  0
 22 24  1  0
 24 25  1  0
 24 26  1  0
 19 27  1  0
 27 28  1  1
 27 29  1  0
 29 30  1  0
 30 31  1  0
 31 32  1  1
  7  5  1  0
 31 10  1  0
 31 13  1  0
 27 15  1  0
 24 18  1  0
  1 33  1  0
  1 34  1  0
  1 35  1  0
  2 36  1  1
  3 37  1  0
  3 38  1  0
  4 39  1  0
  4 40  1  0
  5 41  1  6
  8 42  1  0
  8 43  1  0
  8 44  1  0
  9 45  1  0
  9 46  1  0
  9 47  1  0
 10 48  1  6
 11 49  1  0
 11 50  1  0
 12 51  1  0
 12 52  1  0
 14 53  1  0
 14 54  1  0
 14 55  1  0
 15 56  1  1
 16 57  1  0
 16 58  1  0
 17 59  1  0
 19 60  1  6
 20 61  1  0
 20 62  1  0
 21 63  1  0
 21 64  1  0
 22 65  1  6
 23 66  1  0
 25 67  1  0
 25 68  1  0
 25 69  1  0
 26 70  1  0
 26 71  1  0
 26 72  1  0
 28 73  1  0
 28 74  1  0
 28 75  1  0
 29 76  1  0
 29 77  1  0
 30 78  1  0
 30 79  1  0
 32 80  1  0
 32 81  1  0
 32 82  1  0
M  END
>  <meeko>  (10) 
{"is_sidechain": [false], "intermolecular_energy": 2.731, "internal_energy": -0.839}

$$$$
EPH_relaxed_0001_pdb2pqr_Repair_397_r2_0001_out
     RDKit          3D

 82 86  0  0  0  0  0  0  0  0999 V2000
   -2.2430    7.8690   -2.2040 C   0  0  0  0  0  0  0  0  0  0  0  0
   -2.0830    8.4400   -0.7920 C   0  0  2  0  0  0  0  0  0  0  0  0
   -3.3990    8.3820    0.0100 C   0  0  0  0  0  0  0  0  0  0  0  0
   -4.6380    8.7460   -0.8120 C   0  0  0  0  0  0  0  0  0  0  0  0
   -5.5090    7.5520   -1.0600 C   0  0  2  0  0  0  0  0  0  0  0  0
   -5.9570    7.4080   -2.4140 O   0  0  0  0  0  0  0  0  0  0  0  0
   -6.9770    7.6490   -1.4310 C   0  0  0  0  0  0  0  0  0  0  0  0
   -7.6590    8.9730   -1.5750 C   0  0  0  0  0  0  0  0  0  0  0  0
   -7.8600    6.4680   -1.1760 C   0  0  0  0  0  0  0  0  0  0  0  0
   -1.5810    9.8770   -0.8660 C   0  0  1  0  0  0  0  0  0  0  0  0
   -1.1460   10.4300    0.5170 C   0  0  0  0  0  0  0  0  0  0  0  0
    0.0590   11.3720    0.2630 C   0  0  0  0  0  0  0  0  0  0  0  0
    0.0670   11.5910   -1.2680 C   0  0  1  0  0  0  0  0  0  0  0  0
   -1.0090   12.6920   -1.5220 C   0  0  0  0  0  0  0  0  0  0  0  0
    1.4430   11.9720   -1.9050 C   0  0  2  0  0  0  0  0  0  0  0  0
    2.0400   13.3050   -1.4200 C   0  0  0  0  0  0  0  0  0  0  0  0
    1.6550   14.5040   -2.2220 C   0  0  0  0  0  0  0  0  0  0  0  0
    1.0990   14.4800   -3.4470 C   0  0  0  0  0  0  0  0  0  0  0  0
    0.8910   13.1560   -4.1930 C   0  0  1  0  0  0  0  0  0  0  0  0
    1.3770   13.3050   -5.6580 C   0  0  0  0  0  0  0  0  0  0  0  0
    0.7260   14.4840   -6.3730 C   0  0  0  0  0  0  0  0  0  0  0  0
    1.0030   15.7910   -5.6340 C   0  0  2  0  0  0  0  0  0  0  0  0
    2.4030   16.0790   -5.7170 O   0  0  0  0  0  0  0  0  0  0  0  0
    0.5650   15.7560   -4.1430 C   0  0  0  0  0  0  0  0  0  0  0  0
   -0.9820   15.7460   -4.0560 C   0  0  0  0  0  0  0  0  0  0  0  0
    1.0280   17.0800   -3.4780 C   0  0  0  0  0  0  0  0  0  0  0  0
    1.4800   11.8610   -3.4830 C   0  0  1  0  0  0  0  0  0  0  0  0
    2.9760   11.6700   -3.8810 C   0  0  0  0  0  0  0  0  0  0  0  0
    0.7150   10.5910   -4.0120 C   0  0  0  0  0  0  0  0  0  0  0  0
   -0.5750   10.1970   -3.2660 C   0  0  0  0  0  0  0  0  0  0  0  0
   -0.3410   10.1520   -1.7530 C   0  0  2  0  0  0  0  0  0  0  0  0
    0.7210    9.0370   -1.4660 C   0  0  0  0  0  0  0  0  0  0  0  0
   -2.5393    6.8116   -2.1405 H   0  0  0  0  0  0  0  0  0  0  0  0
   -3.0171    8.4350   -2.7429 H   0  0  0  0  0  0  0  0  0  0  0  0
   -1.2875    7.9503   -2.7429 H   0  0  0  0  0  0  0  0  0  0  0  0
   -1.3467    7.8161   -0.2641 H   0  0  0  0  0  0  0  0  0  0  0  0
   -3.5260    7.3595    0.3951 H   0  0  0  0  0  0  0  0  0  0  0  0
   -3.3175    9.1271    0.8151 H   0  0  0  0  0  0  0  0  0  0  0  0
   -5.2187    9.5035   -0.2652 H   0  0  0  0  0  0  0  0  0  0  0  0
   -4.3022    9.1336   -1.7852 H   0  0  0  0  0  0  0  0  0  0  0  0
   -4.9803    6.9769   -0.2856 H   0  0  0  0  0  0  0  0  0  0  0  0
   -7.8718    9.3862   -0.5780 H   0  0  0  0  0  0  0  0  0  0  0  0
   -7.0048    9.6644   -2.1264 H   0  0  0  0  0  0  0  0  0  0  0  0
   -8.6017    8.8418   -2.1264 H   0  0  0  0  0  0  0  0  0  0  0  0
   -7.9705    6.3202   -0.0916 H   0  0  0  0  0  0  0  0  0  0  0  0
   -8.8486    6.6457   -1.6245 H   0  0  0  0  0  0  0  0  0  0  0  0
   -7.4099    5.5701   -1.6245 H   0  0  0  0  0  0  0  0  0  0  0  0
   -2.4687   10.3603   -1.3000 H   0  0  0  0  0  0  0  0  0  0  0  0
   -1.9732   10.9891    0.9786 H   0  0  0  0  0  0  0  0  0  0  0  0
   -0.8715    9.6130    1.2005 H   0  0  0  0  0  0  0  0  0  0  0  0
   -0.0768   12.3273    0.7912 H   0  0  0  0  0  0  0  0  0  0  0  0
    1.0053   10.9467    0.6285 H   0  0  0  0  0  0  0  0  0  0  0  0
   -1.3799   13.0715   -0.5584 H   0  0  0  0  0  0  0  0  0  0  0  0
   -0.5605   13.5181   -2.0933 H   0  0  0  0  0  0  0  0  0  0  0  0
   -1.8452   12.2626   -2.0933 H   0  0  0  0  0  0  0  0  0  0  0  0
    2.1086   11.1879   -1.5150 H   0  0  0  0  0  0  0  0  0  0  0  0
    1.7096   13.4686   -0.3836 H   0  0  0  0  0  0  0  0  0  0  0  0
    3.1307   13.2063   -1.5236 H   0  0  0  0  0  0  0  0  0  0  0  0
    1.8418   15.4908   -1.7733 H   0  0  0  0  0  0  0  0  0  0  0  0
   -0.1921   12.9646   -4.1773 H   0  0  0  0  0  0  0  0  0  0  0  0
    2.4670   13.4529   -5.6546 H   0  0  0  0  0  0  0  0  0  0  0  0
    1.0943   12.3895   -6.1983 H   0  0  0  0  0  0  0  0  0  0  0  0
    1.1311   14.5545   -7.3933 H   0  0  0  0  0  0  0  0  0  0  0  0
   -0.3614   14.3204   -6.4013 H   0  0  0  0  0  0  0  0  0  0  0  0
    0.4055   16.5774   -6.1184 H   0  0  0  0  0  0  0  0  0  0  0  0
    2.5250   17.0130   -5.4740 H   0  0  0  0  0  0  0  0  0  0  0  0
   -1.2898   15.7440   -3.0000 H   0  0  0  0  0  0  0  0  0  0  0  0
   -1.3830   16.6416   -4.5531 H   0  0  0  0  0  0  0  0  0  0  0  0
   -1.3714   14.8453   -4.5531 H   0  0  0  0  0  0  0  0  0  0  0  0
    0.9907   16.9734   -2.3838 H   0  0  0  0  0  0  0  0  0  0  0  0
    2.0585   17.3060   -3.7895 H   0  0  0  0  0  0  0  0  0  0  0  0
    0.3629   17.8989   -3.7895 H   0  0  0  0  0  0  0  0  0  0  0  0
    3.5902   11.5916   -2.9718 H   0  0  0  0  0  0  0  0  0  0  0  0
    3.0827   10.7509   -4.4759 H   0  0  0  0  0  0  0  0  0  0  0  0
    3.3102   12.5328   -4.4759 H   0  0  0  0  0  0  0  0  0  0  0  0
    0.4484   10.7767   -5.0629 H   0  0  0  0  0  0  0  0  0  0  0  0
    1.4073    9.7509   -3.8541 H   0  0  0  0  0  0  0  0  0  0  0  0
   -1.3588   10.9365   -3.4871 H   0  0  0  0  0  0  0  0  0  0  0  0
   -0.8837    9.1965   -3.6032 H   0  0  0  0  0  0  0  0  0  0  0  0
    0.8385    8.9136   -0.3793 H   0  0  0  0  0  0  0  0  0  0  0  0
    0.3848    8.0877   -1.9086 H   0  0  0  0  0  0  0  0  0  0  0  0
    1.6855    9.3266   -1.9086 H   0  0  0  0  0  0  0  0  0  0  0  0
  1  2  1  0
  2  3  1  0
  3  4  1  0
  4  5  1  0
  5  6  1  0
  6  7  1  0
  7  8  1  0
  7  9  1  0
  2 10  1  0
 10 11  1  0
 11 12  1  0
 12 13  1  0
 13 14  1  1
 13 15  1  0
 15 16  1  0
 16 17  1  0
 17 18  2  0
 18 19  1  0
 19 20  1  0
 20 21  1  0
 21 22  1  0
 22 23  1  0
 22 24  1  0
 24 25  1  0
 24 26  1  0
 19 27  1  0
 27 28  1  6
 27 29  1  0
 29 30  1  0
 30 31  1  0
 31 32  1  6
  7  5  1  0
 31 10  1  0
 31 13  1  0
 27 15  1  0
 24 18  1  0
  1 33  1  0
  1 34  1  0
  1 35  1  0
  2 36  1  1
  3 37  1  0
  3 38  1  0
  4 39  1  0
  4 40  1  0
  5 41  1  1
  8 42  1  0
  8 43  1  0
  8 44  1  0
  9 45  1  0
  9 46  1  0
  9 47  1  0
 10 48  1  6
 11 49  1  0
 11 50  1  0
 12 51  1  0
 12 52  1  0
 14 53  1  0
 14 54  1  0
 14 55  1  0
 15 56  1  1
 16 57  1  0
 16 58  1  0
 17 59  1  0
 19 60  1  6
 20 61  1  0
 20 62  1  0
 21 63  1  0
 21 64  1  0
 22 65  1  6
 23 66  1  0
 25 67  1  0
 25 68  1  0
 25 69  1  0
 26 70  1  0
 26 71  1  0
 26 72  1  0
 28 73  1  0
 28 74  1  0
 28 75  1  0
 29 76  1  0
 29 77  1  0
 30 78  1  0
 30 79  1  0
 32 80  1  0
 32 81  1  0
 32 82  1  0
M  END
>  <meeko>  (11) 
{"is_sidechain": [false], "intermolecular_energy": 2.731, "internal_energy": -0.839}

$$$$
EPH_relaxed_0001_pdb2pqr_Repair_397_r2_0001_out
     RDKit          3D

 82 86  0  0  0  0  0  0  0  0999 V2000
   -0.2060    9.3750   -2.3280 C   0  0  0  0  0  0  0  0  0  0  0  0
    0.9280   10.3090   -2.7600 C   0  0  2  0  0  0  0  0  0  0  0  0
    2.2890    9.5860   -2.8100 C   0  0  0  0  0  0  0  0  0  0  0  0
    3.2330   10.1240   -3.8890 C   0  0  0  0  0  0  0  0  0  0  0  0
    4.5630   10.5130   -3.3180 C   0  0  2  0  0  0  0  0  0  0  0  0
    5.0200   11.8170   -3.7000 O   0  0  0  0  0  0  0  0  0  0  0  0
    5.8100   10.7080   -4.1600 C   0  0  0  0  0  0  0  0  0  0  0  0
    5.7870   10.5190   -5.6450 C   0  0  0  0  0  0  0  0  0  0  0  0
    7.1470   10.6020   -3.4950 C   0  0  0  0  0  0  0  0  0  0  0  0
    1.0070   11.5030   -1.8160 C   0  0  1  0  0  0  0  0  0  0  0  0
    2.1030   11.3340   -0.7300 C   0  0  0  0  0  0  0  0  0  0  0  0
    2.6920   12.7440   -0.4670 C   0  0  0  0  0  0  0  0  0  0  0  0
    1.7020   13.7150   -1.1530 C   0  0  1  0  0  0  0  0  0  0  0  0
    0.5290   13.8760   -0.1360 C   0  0  0  0  0  0  0  0  0  0  0  0
    2.2830   15.0990   -1.5900 C   0  0  2  0  0  0  0  0  0  0  0  0
    2.8010   15.9810   -0.4400 C   0  0  0  0  0  0  0  0  0  0  0  0
    1.7930   16.9080    0.1560 C   0  0  0  0  0  0  0  0  0  0  0  0
    0.6090   17.2340   -0.3930 C   0  0  0  0  0  0  0  0  0  0  0  0
    0.2220   16.7290   -1.7890 C   0  0  1  0  0  0  0  0  0  0  0  0
   -0.3510   17.9030   -2.6250 C   0  0  0  0  0  0  0  0  0  0  0  0
   -1.5040   18.6140   -1.9220 C   0  0  0  0  0  0  0  0  0  0  0  0
   -1.0640   19.1530   -0.5630 C   0  0  2  0  0  0  0  0  0  0  0  0
   -0.1040   20.1940   -0.7690 O   0  0  0  0  0  0  0  0  0  0  0  0
   -0.4600   18.0610    0.3630 C   0  0  0  0  0  0  0  0  0  0  0  0
   -1.5790   17.0970    0.8300 C   0  0  0  0  0  0  0  0  0  0  0  0
    0.0710   18.7610    1.6430 C   0  0  0  0  0  0  0  0  0  0  0  0
    1.3440   15.9160   -2.5680 C   0  0  1  0  0  0  0  0  0  0  0  0
    2.2670   16.9000   -3.3510 C   0  0  0  0  0  0  0  0  0  0  0  0
    0.6590   14.9960   -3.6460 C   0  0  0  0  0  0  0  0  0  0  0  0
    0.2150   13.5950   -3.1830 C   0  0  0  0  0  0  0  0  0  0  0  0
    1.3460   12.8810   -2.4370 C   0  0  2  0  0  0  0  0  0  0  0  0
    2.5320   12.6840   -3.4410 C   0  0  0  0  0  0  0  0  0  0  0  0
   -0.2517    9.3374   -1.2296 H   0  0  0  0  0  0  0  0  0  0  0  0
   -1.1614    9.7516   -2.7220 H   0  0  0  0  0  0  0  0  0  0  0  0
   -0.0194    8.3651   -2.7220 H   0  0  0  0  0  0  0  0  0  0  0  0
    0.7006   10.6554   -3.7790 H   0  0  0  0  0  0  0  0  0  0  0  0
    2.7789    9.7001   -1.8318 H   0  0  0  0  0  0  0  0  0  0  0  0
    2.0849    8.5338   -3.0572 H   0  0  0  0  0  0  0  0  0  0  0  0
    3.3859    9.3444   -4.6498 H   0  0  0  0  0  0  0  0  0  0  0  0
    2.7737   11.0208   -4.3304 H   0  0  0  0  0  0  0  0  0  0  0  0
    4.3715    9.9243   -2.4088 H   0  0  0  0  0  0  0  0  0  0  0  0
    5.6571    9.4516   -5.8768 H   0  0  0  0  0  0  0  0  0  0  0  0
    4.9519   11.0918   -6.0746 H   0  0  0  0  0  0  0  0  0  0  0  0
    6.7351   10.8748   -6.0746 H   0  0  0  0  0  0  0  0  0  0  0  0
    7.0152   10.6124   -2.4030 H   0  0  0  0  0  0  0  0  0  0  0  0
    7.6331    9.6625   -3.7967 H   0  0  0  0  0  0  0  0  0  0  0  0
    7.7751   11.4532   -3.7967 H   0  0  0  0  0  0  0  0  0  0  0  0
   -0.0256   11.5062   -1.4369 H   0  0  0  0  0  0  0  0  0  0  0  0
    1.6626   10.9291    0.1931 H   0  0  0  0  0  0  0  0  0  0  0  0
    2.8844   10.6348   -1.0624 H   0  0  0  0  0  0  0  0  0  0  0  0
    2.7486   12.9459    0.6128 H   0  0  0  0  0  0  0  0  0  0  0  0
    3.7154   12.8478   -0.8566 H   0  0  0  0  0  0  0  0  0  0  0  0
    0.9229   13.8219    0.8896 H   0  0  0  0  0  0  0  0  0  0  0  0
    0.0408   14.8496   -0.2904 H   0  0  0  0  0  0  0  0  0  0  0  0
   -0.2034   13.0700   -0.2904 H   0  0  0  0  0  0  0  0  0  0  0  0
    3.1726   14.8103   -2.1690 H   0  0  0  0  0  0  0  0  0  0  0  0
    3.1675   15.3186    0.3581 H   0  0  0  0  0  0  0  0  0  0  0  0
    3.5831   16.6205   -0.8751 H   0  0  0  0  0  0  0  0  0  0  0  0
    2.0398   17.3629    1.1266 H   0  0  0  0  0  0  0  0  0  0  0  0
   -0.5570   15.9685   -1.6313 H   0  0  0  0  0  0  0  0  0  0  0  0
    0.4531   18.6310   -2.8080 H   0  0  0  0  0  0  0  0  0  0  0  0
   -0.7401   17.4848   -3.5650 H   0  0  0  0  0  0  0  0  0  0  0  0
   -1.8461   19.4513   -2.5480 H   0  0  0  0  0  0  0  0  0  0  0  0
   -2.3195   17.8924   -1.7666 H   0  0  0  0  0  0  0  0  0  0  0  0
   -1.9610   19.5348   -0.0535 H   0  0  0  0  0  0  0  0  0  0  0  0
    0.7690   19.7760   -0.8550 H   0  0  0  0  0  0  0  0  0  0  0  0
   -1.6070   17.0729    1.9294 H   0  0  0  0  0  0  0  0  0  0  0  0
   -2.5485   17.4472    0.4461 H   0  0  0  0  0  0  0  0  0  0  0  0
   -1.3761   16.0863    0.4461 H   0  0  0  0  0  0  0  0  0  0  0  0
   -0.3203   18.2451    2.5322 H   0  0  0  0  0  0  0  0  0  0  0  0
    1.1703   18.7241    1.6518 H   0  0  0  0  0  0  0  0  0  0  0  0
   -0.2608   19.8097    1.6518 H   0  0  0  0  0  0  0  0  0  0  0  0
    2.8401   17.5110   -2.6381 H   0  0  0  0  0  0  0  0  0  0  0  0
    2.9610   16.3270   -3.9835 H   0  0  0  0  0  0  0  0  0  0  0  0
    1.6508   17.5559   -3.9835 H   0  0  0  0  0  0  0  0  0  0  0  0
   -0.2335   15.5230   -4.0145 H   0  0  0  0  0  0  0  0  0  0  0  0
    1.4344   14.8158   -4.4051 H   0  0  0  0  0  0  0  0  0  0  0  0
   -0.6514   13.6952   -2.5126 H   0  0  0  0  0  0  0  0  0  0  0  0
   -0.0511   13.0003   -4.0693 H   0  0  0  0  0  0  0  0  0  0  0  0
    3.4654   12.5290   -2.8800 H   0  0  0  0  0  0  0  0  0  0  0  0
    2.3346   11.8063   -4.0740 H   0  0  0  0  0  0  0  0  0  0  0  0
    2.6289   13.5784   -4.0740 H   0  0  0  0  0  0  0  0  0  0  0  0
  1  2  1  0
  2  3  1  0
  3  4  1  0
  4  5  1  0
  5  6  1  0
  6  7  1  0
  7  8  1  0
  7  9  1  0
  2 10  1  0
 10 11  1  0
 11 12  1  0
 12 13  1  0
 13 14  1  1
 13 15  1  0
 15 16  1  0
 16 17  1  0
 17 18  2  0
 18 19  1  0
 19 20  1  0
 20 21  1  0
 21 22  1  0
 22 23  1  0
 22 24  1  0
 24 25  1  0
 24 26  1  0
 19 27  1  0
 27 28  1  6
 27 29  1  0
 29 30  1  0
 30 31  1  0
 31 32  1  6
  7  5  1  0
 31 10  1  0
 31 13  1  0
 27 15  1  0
 24 18  1  0
  1 33  1  0
  1 34  1  0
  1 35  1  0
  2 36  1  6
  3 37  1  0
  3 38  1  0
  4 39  1  0
  4 40  1  0
  5 41  1  1
  8 42  1  0
  8 43  1  0
  8 44  1  0
  9 45  1  0
  9 46  1  0
  9 47  1  0
 10 48  1  1
 11 49  1  0
 11 50  1  0
 12 51  1  0
 12 52  1  0
 14 53  1  0
 14 54  1  0
 14 55  1  0
 15 56  1  6
 16 57  1  0
 16 58  1  0
 17 59  1  0
 19 60  1  1
 20 61  1  0
 20 62  1  0
 21 63  1  0
 21 64  1  0
 22 65  1  1
 23 66  1  0
 25 67  1  0
 25 68  1  0
 25 69  1  0
 26 70  1  0
 26 71  1  0
 26 72  1  0
 28 73  1  0
 28 74  1  0
 28 75  1  0
 29 76  1  0
 29 77  1  0
 30 78  1  0
 30 79  1  0
 32 80  1  0
 32 81  1  0
 32 82  1  0
M  END
>  <meeko>  (12) 
{"is_sidechain": [false], "intermolecular_energy": 2.731, "internal_energy": -0.839}

$$$$
EPH_relaxed_0001_pdb2pqr_Repair_397_r2_0001_out
     RDKit          3D

 82 86  0  0  0  0  0  0  0  0999 V2000
   -0.9110   16.3800   -5.8610 C   0  0  0  0  0  0  0  0  0  0  0  0
    0.1890   15.6840   -6.6680 C   0  0  2  0  0  0  0  0  0  0  0  0
   -0.2080   15.4920   -8.1450 C   0  0  0  0  0  0  0  0  0  0  0  0
    0.4400   16.5050   -9.0930 C   0  0  0  0  0  0  0  0  0  0  0  0
    1.8450   16.1180   -9.4430 C   0  0  2  0  0  0  0  0  0  0  0  0
    2.3350   16.6820  -10.6660 O   0  0  0  0  0  0  0  0  0  0  0  0
    2.2010   15.2520  -10.6370 C   0  0  0  0  0  0  0  0  0  0  0  0
    1.1480   14.7190  -11.5570 C   0  0  0  0  0  0  0  0  0  0  0  0
    3.5100   14.5240  -10.6280 C   0  0  0  0  0  0  0  0  0  0  0  0
    0.5220   14.3370   -6.0380 C   0  0  1  0  0  0  0  0  0  0  0  0
    1.7670   13.6680   -6.6810 C   0  0  0  0  0  0  0  0  0  0  0  0
    2.5050   12.9130   -5.5460 C   0  0  0  0  0  0  0  0  0  0  0  0
    1.4980   12.8920   -4.3720 C   0  0  1  0  0  0  0  0  0  0  0  0
    0.5280   11.7130   -4.6970 C   0  0  0  0  0  0  0  0  0  0  0  0
    2.1090   12.7590   -2.9390 C   0  0  2  0  0  0  0  0  0  0  0  0
    2.8820   11.4540   -2.6790 C   0  0  0  0  0  0  0  0  0  0  0  0
    2.0680   10.3290   -2.1310 C   0  0  0  0  0  0  0  0  0  0  0  0
    0.8400   10.4420   -1.5930 C   0  0  0  0  0  0  0  0  0  0  0  0
    0.1850   11.8170   -1.4050 C   0  0  1  0  0  0  0  0  0  0  0  0
   -0.4200   11.9120    0.0190 C   0  0  0  0  0  0  0  0  0  0  0  0
   -1.3770   10.7640    0.3260 C   0  0  0  0  0  0  0  0  0  0  0  0
   -0.6740    9.4160    0.1860 C   0  0  2  0  0  0  0  0  0  0  0  0
    0.3200    9.3060    1.2090 O   0  0  0  0  0  0  0  0  0  0  0  0
   -0.0160    9.2100   -1.2070 C   0  0  0  0  0  0  0  0  0  0  0  0
   -1.1170    9.0280   -2.2810 C   0  0  0  0  0  0  0  0  0  0  0  0
    0.7770    7.8760   -1.1680 C   0  0  0  0  0  0  0  0  0  0  0  0
    1.0910   13.0710   -1.7680 C   0  0  1  0  0  0  0  0  0  0  0  0
    1.9480   13.4840   -0.5330 C   0  0  0  0  0  0  0  0  0  0  0  0
    0.1620   14.2990   -2.0950 C   0  0  0  0  0  0  0  0  0  0  0  0
   -0.3120   14.4430   -3.5540 C   0  0  0  0  0  0  0  0  0  0  0  0
    0.8650   14.3230   -4.5270 C   0  0  2  0  0  0  0  0  0  0  0  0
    1.8470   15.5090   -4.2390 C   0  0  0  0  0  0  0  0  0  0  0  0
   -0.7126   16.2544   -4.7864 H   0  0  0  0  0  0  0  0  0  0  0  0
   -0.9250   17.4517   -6.1085 H   0  0  0  0  0  0  0  0  0  0  0  0
   -1.8855   15.9337   -6.1085 H   0  0  0  0  0  0  0  0  0  0  0  0
    1.0766   16.3334   -6.6471 H   0  0  0  0  0  0  0  0  0  0  0  0
    0.0941   14.4815   -8.4573 H   0  0  0  0  0  0  0  0  0  0  0  0
   -1.2958   15.6429   -8.2078 H   0  0  0  0  0  0  0  0  0  0  0  0
   -0.1550   16.5599  -10.0165 H   0  0  0  0  0  0  0  0  0  0  0  0
    0.4699   17.4798   -8.5842 H   0  0  0  0  0  0  0  0  0  0  0  0
    2.1179   16.0567   -8.3792 H   0  0  0  0  0  0  0  0  0  0  0  0
    0.3211   14.3005  -10.9645 H   0  0  0  0  0  0  0  0  0  0  0  0
    0.7688   15.5337  -12.1914 H   0  0  0  0  0  0  0  0  0  0  0  0
    1.5800   13.9310  -12.1914 H   0  0  0  0  0  0  0  0  0  0  0  0
    3.8250   14.3488   -9.5887 H   0  0  0  0  0  0  0  0  0  0  0  0
    3.3966   13.5594  -11.1443 H   0  0  0  0  0  0  0  0  0  0  0  0
    4.2697   15.1292  -11.1443 H   0  0  0  0  0  0  0  0  0  0  0  0
   -0.4289   13.8122   -6.2125 H   0  0  0  0  0  0  0  0  0  0  0  0
    1.4553   12.9623   -7.4651 H   0  0  0  0  0  0  0  0  0  0  0  0
    2.4222   14.4186   -7.1473 H   0  0  0  0  0  0  0  0  0  0  0  0
    2.7565   11.8893   -5.8602 H   0  0  0  0  0  0  0  0  0  0  0  0
    3.4546   13.3962   -5.2724 H   0  0  0  0  0  0  0  0  0  0  0  0
    0.1630   11.2693   -3.7590 H   0  0  0  0  0  0  0  0  0  0  0  0
   -0.3248   12.0901   -5.2805 H   0  0  0  0  0  0  0  0  0  0  0  0
    1.0623   10.9488   -5.2805 H   0  0  0  0  0  0  0  0  0  0  0  0
    2.8622   13.5606   -2.9281 H   0  0  0  0  0  0  0  0  0  0  0  0
    3.3208   11.1233   -3.6319 H   0  0  0  0  0  0  0  0  0  0  0  0
    3.6301   11.6918   -1.9084 H   0  0  0  0  0  0  0  0  0  0  0  0
    2.5096    9.3223   -2.1704 H   0  0  0  0  0  0  0  0  0  0  0  0
   -0.6170   11.8772   -2.1555 H   0  0  0  0  0  0  0  0  0  0  0  0
    0.3997   11.8934    0.7523 H   0  0  0  0  0  0  0  0  0  0  0  0
   -0.9934   12.8490    0.0763 H   0  0  0  0  0  0  0  0  0  0  0  0
   -1.7490   10.8709    1.3557 H   0  0  0  0  0  0  0  0  0  0  0  0
   -2.2113   10.8011   -0.3899 H   0  0  0  0  0  0  0  0  0  0  0  0
   -1.4391    8.6325    0.2901 H   0  0  0  0  0  0  0  0  0  0  0  0
    0.9930    9.9880    1.0400 H   0  0  0  0  0  0  0  0  0  0  0  0
   -2.0872    8.8676   -1.7880 H   0  0  0  0  0  0  0  0  0  0  0  0
   -1.1694    9.9297   -2.9089 H   0  0  0  0  0  0  0  0  0  0  0  0
   -0.8764    8.1574   -2.9089 H   0  0  0  0  0  0  0  0  0  0  0  0
    0.9510    7.5833   -0.1220 H   0  0  0  0  0  0  0  0  0  0  0  0
    0.1989    7.0908   -1.6772 H   0  0  0  0  0  0  0  0  0  0  0  0
    1.7430    8.0087   -1.6772 H   0  0  0  0  0  0  0  0  0  0  0  0
    1.4094   13.2245    0.3904 H   0  0  0  0  0  0  0  0  0  0  0  0
    2.9096   12.9504   -0.5590 H   0  0  0  0  0  0  0  0  0  0  0  0
    2.1297   14.5686   -0.5590 H   0  0  0  0  0  0  0  0  0  0  0  0
   -0.7331   14.2171   -1.4609 H   0  0  0  0  0  0  0  0  0  0  0  0
    0.7821   15.1874   -1.9050 H   0  0  0  0  0  0  0  0  0  0  0  0
   -1.0434   13.6515   -3.7746 H   0  0  0  0  0  0  0  0  0  0  0  0
   -0.7698   15.4355   -3.6778 H   0  0  0  0  0  0  0  0  0  0  0  0
    1.9553   15.6397   -3.1522 H   0  0  0  0  0  0  0  0  0  0  0  0
    2.8294   15.2872   -4.6813 H   0  0  0  0  0  0  0  0  0  0  0  0
    1.4459   16.4328   -4.6813 H   0  0  0  0  0  0  0  0  0  0  0  0
  1  2  1  0
  2  3  1  0
  3  4  1  0
  4  5  1  0
  5  6  1  0
  6  7  1  0
  7  8  1  0
  7  9  1  0
  2 10  1  0
 10 11  1  0
 11 12  1  0
 12 13  1  0
 13 14  1  6
 13 15  1  0
 15 16  1  0
 16 17  1  0
 17 18  2  0
 18 19  1  0
 19 20  1  0
 20 21  1  0
 21 22  1  0
 22 23  1  0
 22 24  1  0
 24 25  1  0
 24 26  1  0
 19 27  1  0
 27 28  1  1
 27 29  1  0
 29 30  1  0
 30 31  1  0
 31 32  1  6
  7  5  1  0
 31 10  1  0
 31 13  1  0
 27 15  1  0
 24 18  1  0
  1 33  1  0
  1 34  1  0
  1 35  1  0
  2 36  1  6
  3 37  1  0
  3 38  1  0
  4 39  1  0
  4 40  1  0
  5 41  1  1
  8 42  1  0
  8 43  1  0
  8 44  1  0
  9 45  1  0
  9 46  1  0
  9 47  1  0
 10 48  1  1
 11 49  1  0
 11 50  1  0
 12 51  1  0
 12 52  1  0
 14 53  1  0
 14 54  1  0
 14 55  1  0
 15 56  1  6
 16 57  1  0
 16 58  1  0
 17 59  1  0
 19 60  1  6
 20 61  1  0
 20 62  1  0
 21 63  1  0
 21 64  1  0
 22 65  1  1
 23 66  1  0
 25 67  1  0
 25 68  1  0
 25 69  1  0
 26 70  1  0
 26 71  1  0
 26 72  1  0
 28 73  1  0
 28 74  1  0
 28 75  1  0
 29 76  1  0
 29 77  1  0
 30 78  1  0
 30 79  1  0
 32 80  1  0
 32 81  1  0
 32 82  1  0
M  END
>  <meeko>  (13) 
{"is_sidechain": [false], "intermolecular_energy": 2.731, "internal_energy": -0.839}

$$$$
EPH_relaxed_0001_pdb2pqr_Repair_397_r2_0001_out
     RDKit          3D

 82 86  0  0  0  0  0  0  0  0999 V2000
    2.9640   18.5420   -1.6760 C   0  0  0  0  0  0  0  0  0  0  0  0
    2.3510   17.4430   -2.5480 C   0  0  2  0  0  0  0  0  0  0  0  0
    0.8690   17.7200   -2.8740 C   0  0  0  0  0  0  0  0  0  0  0  0
    0.3710   19.0780   -2.3710 C   0  0  0  0  0  0  0  0  0  0  0  0
   -0.9160   18.9510   -1.6150 C   0  0  2  0  0  0  0  0  0  0  0  0
   -1.4730   20.1940   -1.1680 O   0  0  0  0  0  0  0  0  0  0  0  0
   -1.0570   19.2800   -0.1400 C   0  0  0  0  0  0  0  0  0  0  0  0
    0.1090   19.7610    0.6660 C   0  0  0  0  0  0  0  0  0  0  0  0
   -2.1920   18.6730    0.6230 C   0  0  0  0  0  0  0  0  0  0  0  0
    2.4890   16.0930   -1.8560 C   0  0  1  0  0  0  0  0  0  0  0  0
    3.1540   16.2030   -0.4580 C   0  0  0  0  0  0  0  0  0  0  0  0
    2.4850   15.1310    0.4400 C   0  0  0  0  0  0  0  0  0  0  0  0
    1.7070   14.2270   -0.5440 C   0  0  1  0  0  0  0  0  0  0  0  0
    2.7780   13.2520   -1.1270 C   0  0  0  0  0  0  0  0  0  0  0  0
    0.4840   13.4530    0.0480 C   0  0  2  0  0  0  0  0  0  0  0  0
    0.8250   12.4430    1.1570 C   0  0  0  0  0  0  0  0  0  0  0  0
    1.1180   11.0560    0.6890 C   0  0  0  0  0  0  0  0  0  0  0  0
    0.8330   10.5670   -0.5320 C   0  0  0  0  0  0  0  0  0  0  0  0
    0.0630   11.4080   -1.5580 C   0  0  1  0  0  0  0  0  0  0  0  0
   -1.0570   10.5460   -2.1970 C   0  0  0  0  0  0  0  0  0  0  0  0
   -0.5270    9.2440   -2.7900 C   0  0  0  0  0  0  0  0  0  0  0  0
    0.1810    8.4090   -1.7270 C   0  0  2  0  0  0  0  0  0  0  0  0
   -0.7840    7.9710   -0.7660 O   0  0  0  0  0  0  0  0  0  0  0  0
    1.3250    9.1770   -1.0060 C   0  0  0  0  0  0  0  0  0  0  0  0
    2.5070    9.3870   -1.9840 C   0  0  0  0  0  0  0  0  0  0  0  0
    1.8620    8.2720    0.1360 C   0  0  0  0  0  0  0  0  0  0  0  0
   -0.4680   12.8140   -1.0430 C   0  0  1  0  0  0  0  0  0  0  0  0
   -1.8640   12.6410   -0.3690 C   0  0  0  0  0  0  0  0  0  0  0  0
   -0.6860   13.7650   -2.2780 C   0  0  0  0  0  0  0  0  0  0  0  0
    0.5280   14.5930   -2.7410 C   0  0  0  0  0  0  0  0  0  0  0  0
    1.1860   15.3100   -1.5580 C   0  0  2  0  0  0  0  0  0  0  0  0
    0.1390   16.3130   -0.9650 C   0  0  0  0  0  0  0  0  0  0  0  0
    2.8231   18.2893   -0.6147 H   0  0  0  0  0  0  0  0  0  0  0  0
    4.0391   18.6256   -1.8934 H   0  0  0  0  0  0  0  0  0  0  0  0
    2.4703   19.5007   -1.8934 H   0  0  0  0  0  0  0  0  0  0  0  0
    2.9016   17.4299   -3.5002 H   0  0  0  0  0  0  0  0  0  0  0  0
    0.7415   17.6862   -3.9661 H   0  0  0  0  0  0  0  0  0  0  0  0
    0.2771   16.9496   -2.3581 H   0  0  0  0  0  0  0  0  0  0  0  0
    1.1327   19.5135   -1.7075 H   0  0  0  0  0  0  0  0  0  0  0  0
    0.1935   19.7229   -3.2442 H   0  0  0  0  0  0  0  0  0  0  0  0
   -1.2017   18.0671   -2.2042 H   0  0  0  0  0  0  0  0  0  0  0  0
   -0.1216   19.6659    1.7373 H   0  0  0  0  0  0  0  0  0  0  0  0
    0.9952   19.1550    0.4265 H   0  0  0  0  0  0  0  0  0  0  0  0
    0.3102   20.8156    0.4265 H   0  0  0  0  0  0  0  0  0  0  0  0
   -2.0038   18.7737    1.7021 H   0  0  0  0  0  0  0  0  0  0  0  0
   -3.1269   19.1915    0.3639 H   0  0  0  0  0  0  0  0  0  0  0  0
   -2.2797   17.6076    0.3639 H   0  0  0  0  0  0  0  0  0  0  0  0
    3.0841   15.5589   -2.6114 H   0  0  0  0  0  0  0  0  0  0  0  0
    4.2344   16.0114   -0.5361 H   0  0  0  0  0  0  0  0  0  0  0  0
    3.0227   17.2103   -0.0359 H   0  0  0  0  0  0  0  0  0  0  0  0
    3.2451   14.5500    0.9828 H   0  0  0  0  0  0  0  0  0  0  0  0
    1.8302   15.5764    1.2035 H   0  0  0  0  0  0  0  0  0  0  0  0
    3.3159   12.7623   -0.3018 H   0  0  0  0  0  0  0  0  0  0  0  0
    2.2817   12.4892   -1.7450 H   0  0  0  0  0  0  0  0  0  0  0  0
    3.4910   13.8175   -1.7450 H   0  0  0  0  0  0  0  0  0  0  0  0
   -0.0864   14.2546    0.5400 H   0  0  0  0  0  0  0  0  0  0  0  0
    1.7101   12.8144    1.6944 H   0  0  0  0  0  0  0  0  0  0  0  0
   -0.0738   12.3679    1.7867 H   0  0  0  0  0  0  0  0  0  0  0  0
    1.6080   10.3766    1.4020 H   0  0  0  0  0  0  0  0  0  0  0  0
    0.7955   11.6974   -2.3259 H   0  0  0  0  0  0  0  0  0  0  0  0
   -1.8005   10.3041   -1.4233 H   0  0  0  0  0  0  0  0  0  0  0  0
   -1.5009   11.1298   -3.0168 H   0  0  0  0  0  0  0  0  0  0  0  0
   -1.3685    8.6663   -3.2000 H   0  0  0  0  0  0  0  0  0  0  0  0
    0.1949    9.4878   -3.5833 H   0  0  0  0  0  0  0  0  0  0  0  0
    0.6495    7.5545   -2.2372 H   0  0  0  0  0  0  0  0  0  0  0  0
   -1.3760    8.7200   -0.5810 H   0  0  0  0  0  0  0  0  0  0  0  0
    3.4318    9.5513   -1.4115 H   0  0  0  0  0  0  0  0  0  0  0  0
    2.6215    8.4951   -2.6176 H   0  0  0  0  0  0  0  0  0  0  0  0
    2.3073   10.2637   -2.6176 H   0  0  0  0  0  0  0  0  0  0  0  0
    1.5996    8.7142    1.1084 H   0  0  0  0  0  0  0  0  0  0  0  0
    1.4110    7.2720    0.0543 H   0  0  0  0  0  0  0  0  0  0  0  0
    2.9558    8.1887    0.0543 H   0  0  0  0  0  0  0  0  0  0  0  0
   -1.7474   12.6554    0.7247 H   0  0  0  0  0  0  0  0  0  0  0  0
   -2.5250   13.4641   -0.6782 H   0  0  0  0  0  0  0  0  0  0  0  0
   -2.3041   11.6814   -0.6782 H   0  0  0  0  0  0  0  0  0  0  0  0
   -1.0060   13.1413   -3.1257 H   0  0  0  0  0  0  0  0  0  0  0  0
   -1.4280   14.5050   -1.9436 H   0  0  0  0  0  0  0  0  0  0  0  0
    1.2634   13.9224   -3.2095 H   0  0  0  0  0  0  0  0  0  0  0  0
    0.1826   15.3492   -3.4614 H   0  0  0  0  0  0  0  0  0  0  0  0
    0.1774   16.2762    0.1337 H   0  0  0  0  0  0  0  0  0  0  0  0
    0.3735   17.3321   -1.3062 H   0  0  0  0  0  0  0  0  0  0  0  0
   -0.8691   16.0350   -1.3062 H   0  0  0  0  0  0  0  0  0  0  0  0
  1  2  1  0
  2  3  1  0
  3  4  1  0
  4  5  1  0
  5  6  1  0
  6  7  1  0
  7  8  1  0
  7  9  1  0
  2 10  1  0
 10 11  1  0
 11 12  1  0
 12 13  1  0
 13 14  1  6
 13 15  1  0
 15 16  1  0
 16 17  1  0
 17 18  2  0
 18 19  1  0
 19 20  1  0
 20 21  1  0
 21 22  1  0
 22 23  1  0
 22 24  1  0
 24 25  1  0
 24 26  1  0
 19 27  1  0
 27 28  1  1
 27 29  1  0
 29 30  1  0
 30 31  1  0
 31 32  1  1
  7  5  1  0
 31 10  1  0
 31 13  1  0
 27 15  1  0
 24 18  1  0
  1 33  1  0
  1 34  1  0
  1 35  1  0
  2 36  1  6
  3 37  1  0
  3 38  1  0
  4 39  1  0
  4 40  1  0
  5 41  1  1
  8 42  1  0
  8 43  1  0
  8 44  1  0
  9 45  1  0
  9 46  1  0
  9 47  1  0
 10 48  1  6
 11 49  1  0
 11 50  1  0
 12 51  1  0
 12 52  1  0
 14 53  1  0
 14 54  1  0
 14 55  1  0
 15 56  1  1
 16 57  1  0
 16 58  1  0
 17 59  1  0
 19 60  1  6
 20 61  1  0
 20 62  1  0
 21 63  1  0
 21 64  1  0
 22 65  1  6
 23 66  1  0
 25 67  1  0
 25 68  1  0
 25 69  1  0
 26 70  1  0
 26 71  1  0
 26 72  1  0
 28 73  1  0
 28 74  1  0
 28 75  1  0
 29 76  1  0
 29 77  1  0
 30 78  1  0
 30 79  1  0
 32 80  1  0
 32 81  1  0
 32 82  1  0
M  END
>  <meeko>  (14) 
{"is_sidechain": [false], "intermolecular_energy": 2.731, "internal_energy": -0.839}

$$$$
EPH_relaxed_0001_pdb2pqr_Repair_397_r2_0001_out
     RDKit          3D

 82 86  0  0  0  0  0  0  0  0999 V2000
   -4.4990    7.2380    0.4420 C   0  0  0  0  0  0  0  0  0  0  0  0
   -4.5690    8.4330   -0.5130 C   0  0  2  0  0  0  0  0  0  0  0  0
   -3.5820    9.5500   -0.1190 C   0  0  0  0  0  0  0  0  0  0  0  0
   -2.1120    9.1340   -0.2170 C   0  0  0  0  0  0  0  0  0  0  0  0
   -1.5480    9.4100   -1.5780 C   0  0  2  0  0  0  0  0  0  0  0  0
   -0.7030    8.3740   -2.0970 O   0  0  0  0  0  0  0  0  0  0  0  0
   -0.0710    9.6390   -1.8410 C   0  0  0  0  0  0  0  0  0  0  0  0
    0.9340    9.6030   -0.7320 C   0  0  0  0  0  0  0  0  0  0  0  0
    0.3300   10.3750   -3.0810 C   0  0  0  0  0  0  0  0  0  0  0  0
   -5.9900    8.9840   -0.5510 C   0  0  1  0  0  0  0  0  0  0  0  0
   -6.0700   10.3850   -1.2130 C   0  0  0  0  0  0  0  0  0  0  0  0
   -7.4190   10.4440   -1.9750 C   0  0  0  0  0  0  0  0  0  0  0  0
   -8.2110    9.2200   -1.4600 C   0  0  1  0  0  0  0  0  0  0  0  0
   -8.8170    9.6790   -0.0970 C   0  0  0  0  0  0  0  0  0  0  0  0
   -9.3090    8.6540   -2.4190 C   0  0  2  0  0  0  0  0  0  0  0  0
  -10.4580    9.6260   -2.7400 C   0  0  0  0  0  0  0  0  0  0  0  0
  -11.6280    9.5590   -1.8160 C   0  0  0  0  0  0  0  0  0  0  0  0
  -11.8810    8.5640   -0.9450 C   0  0  0  0  0  0  0  0  0  0  0  0
  -10.9920    7.3150   -0.8970 C   0  0  1  0  0  0  0  0  0  0  0  0
  -11.8840    6.0460   -0.8570 C   0  0  0  0  0  0  0  0  0  0  0  0
  -12.9020    6.0820    0.2790 C   0  0  0  0  0  0  0  0  0  0  0  0
  -13.8040    7.3080    0.1640 C   0  0  2  0  0  0  0  0  0  0  0  0
  -14.6150    7.1750   -1.0080 O   0  0  0  0  0  0  0  0  0  0  0  0
  -13.0160    8.6460    0.1050 C   0  0  0  0  0  0  0  0  0  0  0  0
  -12.3800    8.9360    1.4870 C   0  0  0  0  0  0  0  0  0  0  0  0
  -14.0350    9.7890   -0.1530 C   0  0  0  0  0  0  0  0  0  0  0  0
   -9.8570    7.2280   -2.0070 C   0  0  1  0  0  0  0  0  0  0  0  0
  -10.4300    6.5790   -3.3040 C   0  0  0  0  0  0  0  0  0  0  0  0
   -8.7140    6.2720   -1.4990 C   0  0  0  0  0  0  0  0  0  0  0  0
   -7.5950    6.9130   -0.6570 C   0  0  0  0  0  0  0  0  0  0  0  0
   -7.0470    8.1700   -1.3390 C   0  0  2  0  0  0  0  0  0  0  0  0
   -6.4110    7.7360   -2.7030 C   0  0  0  0  0  0  0  0  0  0  0  0
   -4.5201    7.5975    1.4814 H   0  0  0  0  0  0  0  0  0  0  0  0
   -5.3599    6.5765    0.2653 H   0  0  0  0  0  0  0  0  0  0  0  0
   -3.5667    6.6815    0.2653 H   0  0  0  0  0  0  0  0  0  0  0  0
   -4.2809    8.0755   -1.5126 H   0  0  0  0  0  0  0  0  0  0  0  0
   -3.7452   10.4091   -0.7863 H   0  0  0  0  0  0  0  0  0  0  0  0
   -3.7775    9.7950    0.9354 H   0  0  0  0  0  0  0  0  0  0  0  0
   -1.5319    9.6956    0.5300 H   0  0  0  0  0  0  0  0  0  0  0  0
   -2.0486    8.0515   -0.0323 H   0  0  0  0  0  0  0  0  0  0  0  0
   -2.4448    9.9813   -1.8599 H   0  0  0  0  0  0  0  0  0  0  0  0
    0.4124    9.6217    0.2363 H   0  0  0  0  0  0  0  0  0  0  0  0
    1.5319    8.6829   -0.8087 H   0  0  0  0  0  0  0  0  0  0  0  0
    1.5962   10.4780   -0.8087 H   0  0  0  0  0  0  0  0  0  0  0  0
    0.8393   11.3098   -2.8040 H   0  0  0  0  0  0  0  0  0  0  0  0
    1.0114    9.7484   -3.6752 H   0  0  0  0  0  0  0  0  0  0  0  0
   -0.5660   10.6078   -3.6752 H   0  0  0  0  0  0  0  0  0  0  0  0
   -6.2241    8.9649    0.5236 H   0  0  0  0  0  0  0  0  0  0  0  0
   -6.0352   11.1701   -0.4433 H   0  0  0  0  0  0  0  0  0  0  0  0
   -5.2233   10.5477   -1.8962 H   0  0  0  0  0  0  0  0  0  0  0  0
   -7.9541   11.3773   -1.7458 H   0  0  0  0  0  0  0  0  0  0  0  0
   -7.2831   10.4241   -3.0664 H   0  0  0  0  0  0  0  0  0  0  0  0
   -8.2374    9.2400    0.7284 H   0  0  0  0  0  0  0  0  0  0  0  0
   -8.7781   10.7762   -0.0294 H   0  0  0  0  0  0  0  0  0  0  0  0
   -9.8627    9.3443   -0.0294 H   0  0  0  0  0  0  0  0  0  0  0  0
   -8.7555    8.5233   -3.3606 H   0  0  0  0  0  0  0  0  0  0  0  0
  -10.0565   10.6496   -2.7060 H   0  0  0  0  0  0  0  0  0  0  0  0
  -10.8360    9.3330   -3.7306 H   0  0  0  0  0  0  0  0  0  0  0  0
  -12.3443   10.3931   -1.8494 H   0  0  0  0  0  0  0  0  0  0  0  0
  -10.4097    7.3920    0.0330 H   0  0  0  0  0  0  0  0  0  0  0  0
  -12.4239    5.9643   -1.8119 H   0  0  0  0  0  0  0  0  0  0  0  0
  -11.2262    5.1806   -0.6885 H   0  0  0  0  0  0  0  0  0  0  0  0
  -13.5214    5.1740    0.2363 H   0  0  0  0  0  0  0  0  0  0  0  0
  -12.3600    6.1331    1.2349 H   0  0  0  0  0  0  0  0  0  0  0  0
  -14.4222    7.3488    1.0729 H   0  0  0  0  0  0  0  0  0  0  0  0
  -14.6820    6.2270   -1.2130 H   0  0  0  0  0  0  0  0  0  0  0  0
  -13.0715    8.6207    2.2823 H   0  0  0  0  0  0  0  0  0  0  0  0
  -11.4358    8.3794    1.5802 H   0  0  0  0  0  0  0  0  0  0  0  0
  -12.1810   10.0138    1.5802 H   0  0  0  0  0  0  0  0  0  0  0  0
  -14.3903   10.1875    0.8088 H   0  0  0  0  0  0  0  0  0  0  0  0
  -13.5479   10.5923   -0.7253 H   0  0  0  0  0  0  0  0  0  0  0  0
  -14.8887    9.3969   -0.7253 H   0  0  0  0  0  0  0  0  0  0  0  0
  -11.1356    5.7798   -3.0332 H   0  0  0  0  0  0  0  0  0  0  0  0
  -10.9526    7.3441   -3.8969 H   0  0  0  0  0  0  0  0  0  0  0  0
   -9.6060    6.1553   -3.8969 H   0  0  0  0  0  0  0  0  0  0  0  0
   -9.1836    5.4881   -0.8867 H   0  0  0  0  0  0  0  0  0  0  0  0
   -8.2163    5.9092   -2.4104 H   0  0  0  0  0  0  0  0  0  0  0  0
   -7.9982    7.1856    0.3294 H   0  0  0  0  0  0  0  0  0  0  0  0
   -6.7760    6.1864   -0.5509 H   0  0  0  0  0  0  0  0  0  0  0  0
   -5.5161    7.1253   -2.5125 H   0  0  0  0  0  0  0  0  0  0  0  0
   -7.1414    7.1471   -3.2772 H   0  0  0  0  0  0  0  0  0  0  0  0
   -6.1289    8.6308   -3.2772 H   0  0  0  0  0  0  0  0  0  0  0  0
  1  2  1  0
  2  3  1  0
  3  4  1  0
  4  5  1  0
  5  6  1  0
  6  7  1  0
  7  8  1  0
  7  9  1  0
  2 10  1  0
 10 11  1  0
 11 12  1  0
 12 13  1  0
 13 14  1  1
 13 15  1  0
 15 16  1  0
 16 17  1  0
 17 18  2  0
 18 19  1  0
 19 20  1  0
 20 21  1  0
 21 22  1  0
 22 23  1  0
 22 24  1  0
 24 25  1  0
 24 26  1  0
 19 27  1  0
 27 28  1  6
 27 29  1  0
 29 30  1  0
 30 31  1  0
 31 32  1  6
  7  5  1  0
 31 10  1  0
 31 13  1  0
 27 15  1  0
 24 18  1  0
  1 33  1  0
  1 34  1  0
  1 35  1  0
  2 36  1  6
  3 37  1  0
  3 38  1  0
  4 39  1  0
  4 40  1  0
  5 41  1  6
  8 42  1  0
  8 43  1  0
  8 44  1  0
  9 45  1  0
  9 46  1  0
  9 47  1  0
 10 48  1  1
 11 49  1  0
 11 50  1  0
 12 51  1  0
 12 52  1  0
 14 53  1  0
 14 54  1  0
 14 55  1  0
 15 56  1  6
 16 57  1  0
 16 58  1  0
 17 59  1  0
 19 60  1  1
 20 61  1  0
 20 62  1  0
 21 63  1  0
 21 64  1  0
 22 65  1  1
 23 66  1  0
 25 67  1  0
 25 68  1  0
 25 69  1  0
 26 70  1  0
 26 71  1  0
 26 72  1  0
 28 73  1  0
 28 74  1  0
 28 75  1  0
 29 76  1  0
 29 77  1  0
 30 78  1  0
 30 79  1  0
 32 80  1  0
 32 81  1  0
 32 82  1  0
M  END
>  <meeko>  (15) 
{"is_sidechain": [false], "intermolecular_energy": 2.731, "internal_energy": -0.839}

$$$$
EPH_relaxed_0001_pdb2pqr_Repair_397_r2_0001_out
     RDKit          3D

 82 86  0  0  0  0  0  0  0  0999 V2000
   -4.0460    6.4750   -2.6740 C   0  0  0  0  0  0  0  0  0  0  0  0
   -4.7190    7.7600   -2.1850 C   0  0  2  0  0  0  0  0  0  0  0  0
   -4.5610    7.9570   -0.6640 C   0  0  0  0  0  0  0  0  0  0  0  0
   -3.5920    9.0810   -0.2860 C   0  0  0  0  0  0  0  0  0  0  0  0
   -2.1960    8.7870   -0.7450 C   0  0  2  0  0  0  0  0  0  0  0  0
   -1.1650    9.3270    0.0920 O   0  0  0  0  0  0  0  0  0  0  0  0
   -1.2370    9.8520   -1.2430 C   0  0  0  0  0  0  0  0  0  0  0  0
   -1.6370   11.2920   -1.3100 C   0  0  0  0  0  0  0  0  0  0  0  0
   -0.0960    9.4340   -2.1180 C   0  0  0  0  0  0  0  0  0  0  0  0
   -6.1970    7.7470   -2.5570 C   0  0  1  0  0  0  0  0  0  0  0  0
   -6.4780    6.9470   -3.8580 C   0  0  0  0  0  0  0  0  0  0  0  0
   -7.8570    6.2630   -3.6730 C   0  0  0  0  0  0  0  0  0  0  0  0
   -8.4690    6.9480   -2.4280 C   0  0  1  0  0  0  0  0  0  0  0  0
   -9.0650    8.2890   -2.9620 C   0  0  0  0  0  0  0  0  0  0  0  0
   -9.5310    6.1190   -1.6350 C   0  0  2  0  0  0  0  0  0  0  0  0
  -10.8040    5.7650   -2.4240 C   0  0  0  0  0  0  0  0  0  0  0  0
  -11.9140    6.7570   -2.3220 C   0  0  0  0  0  0  0  0  0  0  0  0
  -12.0030    7.7410   -1.4080 C   0  0  0  0  0  0  0  0  0  0  0  0
  -10.9660    7.8680   -0.2840 C   0  0  1  0  0  0  0  0  0  0  0  0
  -11.6930    8.0920    1.0680 C   0  0  0  0  0  0  0  0  0  0  0  0
  -12.6550    9.2750    1.0260 C   0  0  0  0  0  0  0  0  0  0  0  0
  -13.7060    9.0850   -0.0650 C   0  0  2  0  0  0  0  0  0  0  0  0
  -14.5460    7.9820    0.2920 O   0  0  0  0  0  0  0  0  0  0  0  0
  -13.0910    8.8410   -1.4710 C   0  0  0  0  0  0  0  0  0  0  0  0
  -12.4340   10.1450   -1.9860 C   0  0  0  0  0  0  0  0  0  0  0  0
  -14.2530    8.5240   -2.4510 C   0  0  0  0  0  0  0  0  0  0  0  0
   -9.8800    6.7090   -0.2090 C   0  0  1  0  0  0  0  0  0  0  0  0
  -10.4270    5.5230    0.6420 C   0  0  0  0  0  0  0  0  0  0  0  0
   -8.6070    7.2470    0.5450 C   0  0  0  0  0  0  0  0  0  0  0  0
   -7.5380    7.9510   -0.3130 C   0  0  0  0  0  0  0  0  0  0  0  0
   -7.1800    7.1110   -1.5430 C   0  0  2  0  0  0  0  0  0  0  0  0
   -6.5580    5.7650   -1.0380 C   0  0  0  0  0  0  0  0  0  0  0  0
   -3.7311    5.8737   -1.8084 H   0  0  0  0  0  0  0  0  0  0  0  0
   -4.7573    5.8972   -3.2825 H   0  0  0  0  0  0  0  0  0  0  0  0
   -3.1660    6.7306   -3.2825 H   0  0  0  0  0  0  0  0  0  0  0  0
   -4.2177    8.6043   -2.6809 H   0  0  0  0  0  0  0  0  0  0  0  0
   -5.5483    8.1924   -0.2399 H   0  0  0  0  0  0  0  0  0  0  0  0
   -4.1428    7.0230   -0.2607 H   0  0  0  0  0  0  0  0  0  0  0  0
   -3.9315   10.0168   -0.7540 H   0  0  0  0  0  0  0  0  0  0  0  0
   -3.5809    9.1700    0.8103 H   0  0  0  0  0  0  0  0  0  0  0  0
   -2.5133    7.8232   -1.1698 H   0  0  0  0  0  0  0  0  0  0  0  0
   -1.7475   11.6897   -0.2904 H   0  0  0  0  0  0  0  0  0  0  0  0
   -0.8634   11.8629   -1.8444 H   0  0  0  0  0  0  0  0  0  0  0  0
   -2.5942   11.3822   -1.8444 H   0  0  0  0  0  0  0  0  0  0  0  0
    0.7524    9.1232   -1.4907 H   0  0  0  0  0  0  0  0  0  0  0  0
   -0.4101    8.5925   -2.7531 H   0  0  0  0  0  0  0  0  0  0  0  0
    0.2078   10.2792   -2.7531 H   0  0  0  0  0  0  0  0  0  0  0  0
   -6.3789    8.8295   -2.6289 H   0  0  0  0  0  0  0  0  0  0  0  0
   -6.5052    7.6268   -4.7224 H   0  0  0  0  0  0  0  0  0  0  0  0
   -5.6893    6.2027   -4.0423 H   0  0  0  0  0  0  0  0  0  0  0  0
   -8.4921    6.4244   -4.5565 H   0  0  0  0  0  0  0  0  0  0  0  0
   -7.7688    5.1736   -3.5485 H   0  0  0  0  0  0  0  0  0  0  0  0
   -9.3490    8.9279   -2.1128 H   0  0  0  0  0  0  0  0  0  0  0  0
   -8.3122    8.8066   -3.5747 H   0  0  0  0  0  0  0  0  0  0  0  0
   -9.9537    8.0771   -3.5747 H   0  0  0  0  0  0  0  0  0  0  0  0
   -9.0091    5.1654   -1.4669 H   0  0  0  0  0  0  0  0  0  0  0  0
  -10.5305    5.6690   -3.4851 H   0  0  0  0  0  0  0  0  0  0  0  0
  -11.1869    4.8335   -1.9815 H   0  0  0  0  0  0  0  0  0  0  0  0
  -12.7290    6.6773   -3.0564 H   0  0  0  0  0  0  0  0  0  0  0  0
  -10.3562    8.7498   -0.5301 H   0  0  0  0  0  0  0  0  0  0  0  0
  -12.2615    7.1839    1.3173 H   0  0  0  0  0  0  0  0  0  0  0  0
  -10.9271    8.3113    1.8265 H   0  0  0  0  0  0  0  0  0  0  0  0
  -13.1589    9.3640    1.9997 H   0  0  0  0  0  0  0  0  0  0  0  0
  -12.0807   10.1869    0.8054 H   0  0  0  0  0  0  0  0  0  0  0  0
  -14.2841   10.0183   -0.1337 H   0  0  0  0  0  0  0  0  0  0  0  0
  -14.2390    7.6440    1.1500 H   0  0  0  0  0  0  0  0  0  0  0  0
  -12.1232   10.7619   -1.1299 H   0  0  0  0  0  0  0  0  0  0  0  0
  -11.5539    9.8957   -2.5970 H   0  0  0  0  0  0  0  0  0  0  0  0
  -13.1581   10.7039   -2.5970 H   0  0  0  0  0  0  0  0  0  0  0  0
  -15.1588    8.2769   -1.8780 H   0  0  0  0  0  0  0  0  0  0  0  0
  -14.4480    9.4018   -3.0846 H   0  0  0  0  0  0  0  0  0  0  0  0
  -13.9753    7.6688   -3.0846 H   0  0  0  0  0  0  0  0  0  0  0  0
  -10.3185    5.7582    1.7111 H   0  0  0  0  0  0  0  0  0  0  0  0
  -11.4898    5.3631    0.4077 H   0  0  0  0  0  0  0  0  0  0  0  0
   -9.8586    4.6108    0.4077 H   0  0  0  0  0  0  0  0  0  0  0  0
   -8.9489    7.9644    1.3055 H   0  0  0  0  0  0  0  0  0  0  0  0
   -8.1102    6.3516    0.9468 H   0  0  0  0  0  0  0  0  0  0  0  0
   -7.9267    8.9254   -0.6437 H   0  0  0  0  0  0  0  0  0  0  0  0
   -6.6318    8.0840    0.2962 H   0  0  0  0  0  0  0  0  0  0  0  0
   -6.5527    5.7534    0.0619 H   0  0  0  0  0  0  0  0  0  0  0  0
   -7.1576    4.9214   -1.4106 H   0  0  0  0  0  0  0  0  0  0  0  0
   -5.5270    5.6749   -1.4106 H   0  0  0  0  0  0  0  0  0  0  0  0
  1  2  1  0
  2  3  1  0
  3  4  1  0
  4  5  1  0
  5  6  1  0
  6  7  1  0
  7  8  1  0
  7  9  1  0
  2 10  1  0
 10 11  1  0
 11 12  1  0
 12 13  1  0
 13 14  1  6
 13 15  1  0
 15 16  1  0
 16 17  1  0
 17 18  2  0
 18 19  1  0
 19 20  1  0
 20 21  1  0
 21 22  1  0
 22 23  1  0
 22 24  1  0
 24 25  1  0
 24 26  1  0
 19 27  1  0
 27 28  1  1
 27 29  1  0
 29 30  1  0
 30 31  1  0
 31 32  1  1
  7  5  1  0
 31 10  1  0
 31 13  1  0
 27 15  1  0
 24 18  1  0
  1 33  1  0
  1 34  1  0
  1 35  1  0
  2 36  1  6
  3 37  1  0
  3 38  1  0
  4 39  1  0
  4 40  1  0
  5 41  1  6
  8 42  1  0
  8 43  1  0
  8 44  1  0
  9 45  1  0
  9 46  1  0
  9 47  1  0
 10 48  1  6
 11 49  1  0
 11 50  1  0
 12 51  1  0
 12 52  1  0
 14 53  1  0
 14 54  1  0
 14 55  1  0
 15 56  1  1
 16 57  1  0
 16 58  1  0
 17 59  1  0
 19 60  1  6
 20 61  1  0
 20 62  1  0
 21 63  1  0
 21 64  1  0
 22 65  1  6
 23 66  1  0
 25 67  1  0
 25 68  1  0
 25 69  1  0
 26 70  1  0
 26 71  1  0
 26 72  1  0
 28 73  1  0
 28 74  1  0
 28 75  1  0
 29 76  1  0
 29 77  1  0
 30 78  1  0
 30 79  1  0
 32 80  1  0
 32 81  1  0
 32 82  1  0
M  END
>  <meeko>  (16) 
{"is_sidechain": [false], "intermolecular_energy": 2.731, "internal_energy": -0.839}

$$$$
EPH_relaxed_0001_pdb2pqr_Repair_397_r2_0001_out
     RDKit          3D

 82 86  0  0  0  0  0  0  0  0999 V2000
    3.3960   18.3920   -3.1140 C   0  0  0  0  0  0  0  0  0  0  0  0
    2.3900   18.1070   -1.9950 C   0  0  2  0  0  0  0  0  0  0  0  0
    2.5160   19.1110   -0.8310 C   0  0  0  0  0  0  0  0  0  0  0  0
    3.8440   19.0150   -0.0750 C   0  0  0  0  0  0  0  0  0  0  0  0
    3.6360   18.9790    1.4080 C   0  0  2  0  0  0  0  0  0  0  0  0
    3.9750   20.1940    2.0900 O   0  0  0  0  0  0  0  0  0  0  0  0
    4.7700   19.0420    2.4140 C   0  0  0  0  0  0  0  0  0  0  0  0
    6.1970   19.1450    1.9750 C   0  0  0  0  0  0  0  0  0  0  0  0
    4.5330   18.5140    3.7950 C   0  0  0  0  0  0  0  0  0  0  0  0
    2.5770   16.6850   -1.4780 C   0  0  1  0  0  0  0  0  0  0  0  0
    3.1870   16.6440   -0.0510 C   0  0  0  0  0  0  0  0  0  0  0  0
    2.5470   15.4320    0.6740 C   0  0  0  0  0  0  0  0  0  0  0  0
    1.8510   14.6280   -0.4500 C   0  0  1  0  0  0  0  0  0  0  0  0
    2.9920   13.7910   -1.1100 C   0  0  0  0  0  0  0  0  0  0  0  0
    0.6520   13.7250   -0.0130 C   0  0  2  0  0  0  0  0  0  0  0  0
    1.0100   12.5960    0.9700 C   0  0  0  0  0  0  0  0  0  0  0  0
    1.3920   11.2990    0.3390 C   0  0  0  0  0  0  0  0  0  0  0  0
    1.1750   10.9600   -0.9460 C   0  0  0  0  0  0  0  0  0  0  0  0
    0.3960   11.8890   -1.8850 C   0  0  1  0  0  0  0  0  0  0  0  0
   -0.6550   11.0650   -2.6750 C   0  0  0  0  0  0  0  0  0  0  0  0
   -0.0360    9.8790   -3.4090 C   0  0  0  0  0  0  0  0  0  0  0  0
    0.6800    8.9480   -2.4340 C   0  0  2  0  0  0  0  0  0  0  0  0
   -0.2930    8.3410   -1.5780 O   0  0  0  0  0  0  0  0  0  0  0  0
    1.7550    9.6690   -1.5750 C   0  0  0  0  0  0  0  0  0  0  0  0
    2.9570   10.0630   -2.4690 C   0  0  0  0  0  0  0  0  0  0  0  0
    2.3010    8.6500   -0.5390 C   0  0  0  0  0  0  0  0  0  0  0  0
   -0.2270   13.1890   -1.2140 C   0  0  1  0  0  0  0  0  0  0  0  0
   -1.6330   12.8620   -0.6260 C   0  0  0  0  0  0  0  0  0  0  0  0
   -0.4530   14.2820   -2.3250 C   0  0  0  0  0  0  0  0  0  0  0  0
    0.7300   15.2210   -2.6270 C   0  0  0  0  0  0  0  0  0  0  0  0
    1.3080   15.8080   -1.3360 C   0  0  2  0  0  0  0  0  0  0  0  0
    0.1900   16.6730   -0.6610 C   0  0  0  0  0  0  0  0  0  0  0  0
    4.3659   18.6668   -2.6739 H   0  0  0  0  0  0  0  0  0  0  0  0
    3.5171   17.4928   -3.7359 H   0  0  0  0  0  0  0  0  0  0  0  0
    3.0275   19.2211   -3.7359 H   0  0  0  0  0  0  0  0  0  0  0  0
    1.3817   18.2190   -2.4202 H   0  0  0  0  0  0  0  0  0  0  0  0
    2.4213   20.1284   -1.2384 H   0  0  0  0  0  0  0  0  0  0  0  0
    1.7191   18.8704   -0.1119 H   0  0  0  0  0  0  0  0  0  0  0  0
    4.3647   18.0967   -0.3843 H   0  0  0  0  0  0  0  0  0  0  0  0
    4.4410   19.9069   -0.3160 H   0  0  0  0  0  0  0  0  0  0  0  0
    2.7870   18.2887    1.2956 H   0  0  0  0  0  0  0  0  0  0  0  0
    6.8501   19.1921    2.8589 H   0  0  0  0  0  0  0  0  0  0  0  0
    6.4596   18.2635    1.3717 H   0  0  0  0  0  0  0  0  0  0  0  0
    6.3303   20.0551    1.3717 H   0  0  0  0  0  0  0  0  0  0  0  0
    4.8667   19.2573    4.5340 H   0  0  0  0  0  0  0  0  0  0  0  0
    3.4597   18.3162    3.9327 H   0  0  0  0  0  0  0  0  0  0  0  0
    5.0985   17.5806    3.9327 H   0  0  0  0  0  0  0  0  0  0  0  0
    3.2250   16.2834   -2.2710 H   0  0  0  0  0  0  0  0  0  0  0  0
    4.2782   16.5178   -0.1089 H   0  0  0  0  0  0  0  0  0  0  0  0
    2.9866   17.5798    0.4914 H   0  0  0  0  0  0  0  0  0  0  0  0
    3.3187   14.8224    1.1668 H   0  0  0  0  0  0  0  0  0  0  0  0
    1.8447   15.7407    1.4624 H   0  0  0  0  0  0  0  0  0  0  0  0
    3.6134   13.3352   -0.3251 H   0  0  0  0  0  0  0  0  0  0  0  0
    2.5520   12.9999   -1.7349 H   0  0  0  0  0  0  0  0  0  0  0  0
    3.6144   14.4483   -1.7349 H   0  0  0  0  0  0  0  0  0  0  0  0
    0.0226   14.4265    0.5543 H   0  0  0  0  0  0  0  0  0  0  0  0
    1.8556   12.9367    1.5855 H   0  0  0  0  0  0  0  0  0  0  0  0
    0.0964   12.3954    1.5489 H   0  0  0  0  0  0  0  0  0  0  0  0
    1.8934   10.5569    0.9776 H   0  0  0  0  0  0  0  0  0  0  0  0
    1.1377   12.3110   -2.5791 H   0  0  0  0  0  0  0  0  0  0  0  0
   -1.4105   10.6882   -1.9698 H   0  0  0  0  0  0  0  0  0  0  0  0
   -1.1018   11.7290   -3.4297 H   0  0  0  0  0  0  0  0  0  0  0  0
   -0.8310    9.3192   -3.9235 H   0  0  0  0  0  0  0  0  0  0  0  0
    0.6979   10.2592   -4.1348 H   0  0  0  0  0  0  0  0  0  0  0  0
    1.2118    8.1918   -3.0302 H   0  0  0  0  0  0  0  0  0  0  0  0
   -1.1620    8.4410   -2.0030 H   0  0  0  0  0  0  0  0  0  0  0  0
    3.8103   10.3427   -1.8337 H   0  0  0  0  0  0  0  0  0  0  0  0
    3.2369    9.2096   -3.1041 H   0  0  0  0  0  0  0  0  0  0  0  0
    2.6774   10.9165   -3.1041 H   0  0  0  0  0  0  0  0  0  0  0  0
    2.1031    9.0194    0.4780 H   0  0  0  0  0  0  0  0  0  0  0  0
    1.8017    7.6801   -0.6805 H   0  0  0  0  0  0  0  0  0  0  0  0
    3.3851    8.5285   -0.6805 H   0  0  0  0  0  0  0  0  0  0  0  0
   -1.5827   12.8737    0.4728 H   0  0  0  0  0  0  0  0  0  0  0  0
   -2.3577   13.6156   -0.9679 H   0  0  0  0  0  0  0  0  0  0  0  0
   -1.9508   11.8660   -0.9679 H   0  0  0  0  0  0  0  0  0  0  0  0
   -0.7097   13.7595   -3.2583 H   0  0  0  0  0  0  0  0  0  0  0  0
   -1.2447   14.9350   -1.9291 H   0  0  0  0  0  0  0  0  0  0  0  0
    1.5157   14.6538   -3.1476 H   0  0  0  0  0  0  0  0  0  0  0  0
    0.3695   16.0474   -3.2572 H   0  0  0  0  0  0  0  0  0  0  0  0
    0.2818   16.6020    0.4329 H   0  0  0  0  0  0  0  0  0  0  0  0
    0.3012   17.7226   -0.9709 H   0  0  0  0  0  0  0  0  0  0  0  0
   -0.7980   16.3019   -0.9709 H   0  0  0  0  0  0  0  0  0  0  0  0
  1  2  1  0
  2  3  1  0
  3  4  1  0
  4  5  1  0
  5  6  1  0
  6  7  1  0
  7  8  1  0
  7  9  1  0
  2 10  1  0
 10 11  1  0
 11 12  1  0
 12 13  1  0
 13 14  1  6
 13 15  1  0
 15 16  1  0
 16 17  1  0
 17 18  2  0
 18 19  1  0
 19 20  1  0
 20 21  1  0
 21 22  1  0
 22 23  1  0
 22 24  1  0
 24 25  1  0
 24 26  1  0
 19 27  1  0
 27 28  1  1
 27 29  1  0
 29 30  1  0
 30 31  1  0
 31 32  1  1
  7  5  1  0
 31 10  1  0
 31 13  1  0
 27 15  1  0
 24 18  1  0
  1 33  1  0
  1 34  1  0
  1 35  1  0
  2 36  1  6
  3 37  1  0
  3 38  1  0
  4 39  1  0
  4 40  1  0
  5 41  1  6
  8 42  1  0
  8 43  1  0
  8 44  1  0
  9 45  1  0
  9 46  1  0
  9 47  1  0
 10 48  1  6
 11 49  1  0
 11 50  1  0
 12 51  1  0
 12 52  1  0
 14 53  1  0
 14 54  1  0
 14 55  1  0
 15 56  1  1
 16 57  1  0
 16 58  1  0
 17 59  1  0
 19 60  1  6
 20 61  1  0
 20 62  1  0
 21 63  1  0
 21 64  1  0
 22 65  1  6
 23 66  1  0
 25 67  1  0
 25 68  1  0
 25 69  1  0
 26 70  1  0
 26 71  1  0
 26 72  1  0
 28 73  1  0
 28 74  1  0
 28 75  1  0
 29 76  1  0
 29 77  1  0
 30 78  1  0
 30 79  1  0
 32 80  1  0
 32 81  1  0
 32 82  1  0
M  END
>  <meeko>  (17) 
{"is_sidechain": [false], "intermolecular_energy": 2.731, "internal_energy": -0.839}

$$$$
EPH_relaxed_0001_pdb2pqr_Repair_397_r2_0001_out
     RDKit          3D

 82 86  0  0  0  0  0  0  0  0999 V2000
  -12.9540    8.6510    1.8810 C   0  0  0  0  0  0  0  0  0  0  0  0
  -13.0880    8.7590    0.3590 C   0  0  2  0  0  0  0  0  0  0  0  0
  -14.4740    8.2990   -0.1360 C   0  0  0  0  0  0  0  0  0  0  0  0
  -15.2870    9.4090   -0.8070 C   0  0  0  0  0  0  0  0  0  0  0  0
  -15.0490    9.4540   -2.2860 C   0  0  2  0  0  0  0  0  0  0  0  0
  -13.8250   10.0920   -2.6760 O   0  0  0  0  0  0  0  0  0  0  0  0
  -15.0380   10.7390   -3.0930 C   0  0  0  0  0  0  0  0  0  0  0  0
  -15.2720   12.0690   -2.4460 C   0  0  0  0  0  0  0  0  0  0  0  0
  -15.2880   10.6610   -4.5670 C   0  0  0  0  0  0  0  0  0  0  0  0
  -11.9960    7.9400   -0.3180 C   0  0  1  0  0  0  0  0  0  0  0  0
  -12.5400    7.0560   -1.4720 C   0  0  0  0  0  0  0  0  0  0  0  0
  -11.4360    7.0130   -2.5610 C   0  0  0  0  0  0  0  0  0  0  0  0
  -10.1800    7.5870   -1.8650 C   0  0  1  0  0  0  0  0  0  0  0  0
   -9.5950    6.3940   -1.0450 C   0  0  0  0  0  0  0  0  0  0  0  0
   -9.1030    8.2270   -2.8010 C   0  0  2  0  0  0  0  0  0  0  0  0
   -8.4580    7.2610   -3.8100 C   0  0  0  0  0  0  0  0  0  0  0  0
   -7.2240    6.5690   -3.3310 C   0  0  0  0  0  0  0  0  0  0  0  0
   -6.4960    6.9240   -2.2560 C   0  0  0  0  0  0  0  0  0  0  0  0
   -6.8400    8.1850   -1.4530 C   0  0  1  0  0  0  0  0  0  0  0  0
   -5.5460    8.9960   -1.1810 C   0  0  0  0  0  0  0  0  0  0  0  0
   -4.4590    8.1570   -0.5140 C   0  0  0  0  0  0  0  0  0  0  0  0
   -4.1030    6.9450   -1.3710 C   0  0  2  0  0  0  0  0  0  0  0  0
   -3.4830    7.3990   -2.5770 O   0  0  0  0  0  0  0  0  0  0  0  0
   -5.3320    6.0570   -1.7170 C   0  0  0  0  0  0  0  0  0  0  0  0
   -5.8200    5.3250   -0.4420 C   0  0  0  0  0  0  0  0  0  0  0  0
   -4.8600    4.9510   -2.6990 C   0  0  0  0  0  0  0  0  0  0  0  0
   -8.0110    9.0840   -2.0420 C   0  0  1  0  0  0  0  0  0  0  0  0
   -7.4350   10.0940   -3.0810 C   0  0  0  0  0  0  0  0  0  0  0  0
   -8.6300    9.9480   -0.8800 C   0  0  0  0  0  0  0  0  0  0  0  0
   -9.7710    9.3050   -0.0680 C   0  0  0  0  0  0  0  0  0  0  0  0
  -10.8400    8.7180   -0.9950 C   0  0  2  0  0  0  0  0  0  0  0  0
  -11.4620    9.8980   -1.8160 C   0  0  0  0  0  0  0  0  0  0  0  0
  -13.7243    9.2718    2.3619 H   0  0  0  0  0  0  0  0  0  0  0  0
  -13.0844    7.6025    2.1871 H   0  0  0  0  0  0  0  0  0  0  0  0
  -11.9571    9.0011    2.1871 H   0  0  0  0  0  0  0  0  0  0  0  0
  -12.9771    9.8202    0.0917 H   0  0  0  0  0  0  0  0  0  0  0  0
  -14.3310    7.4856   -0.8625 H   0  0  0  0  0  0  0  0  0  0  0  0
  -15.0408    7.9757    0.7496 H   0  0  0  0  0  0  0  0  0  0  0  0
  -16.3564    9.2283   -0.6234 H   0  0  0  0  0  0  0  0  0  0  0  0
  -14.9707   10.3719   -0.3794 H   0  0  0  0  0  0  0  0  0  0  0  0
  -15.5795    8.5004   -2.4244 H   0  0  0  0  0  0  0  0  0  0  0  0
  -15.2517   11.9533   -1.3523 H   0  0  0  0  0  0  0  0  0  0  0  0
  -14.4836   12.7710   -2.7552 H   0  0  0  0  0  0  0  0  0  0  0  0
  -16.2527   12.4597   -2.7552 H   0  0  0  0  0  0  0  0  0  0  0  0
  -16.3240   10.3378   -4.7466 H   0  0  0  0  0  0  0  0  0  0  0  0
  -15.1294   11.6513   -5.0187 H   0  0  0  0  0  0  0  0  0  0  0  0
  -14.5943    9.9366   -5.0187 H   0  0  0  0  0  0  0  0  0  0  0  0
  -11.6166    7.3842    0.5522 H   0  0  0  0  0  0  0  0  0  0  0  0
  -12.7497    6.0405   -1.1048 H   0  0  0  0  0  0  0  0  0  0  0  0
  -13.4774    7.4662   -1.8757 H   0  0  0  0  0  0  0  0  0  0  0  0
  -11.2580    5.9795   -2.8931 H   0  0  0  0  0  0  0  0  0  0  0  0
  -11.7132    7.5842   -3.4593 H   0  0  0  0  0  0  0  0  0  0  0  0
   -9.6974    6.6029    0.0301 H   0  0  0  0  0  0  0  0  0  0  0  0
  -10.1441    5.4739   -1.2937 H   0  0  0  0  0  0  0  0  0  0  0  0
   -8.5313    6.2648   -1.2937 H   0  0  0  0  0  0  0  0  0  0  0  0
   -9.7000    8.9300   -3.4005 H   0  0  0  0  0  0  0  0  0  0  0  0
   -9.2011    6.4918   -4.0670 H   0  0  0  0  0  0  0  0  0  0  0  0
   -8.1482    7.8776   -4.6666 H   0  0  0  0  0  0  0  0  0  0  0  0
   -6.8813    5.6956   -3.9052 H   0  0  0  0  0  0  0  0  0  0  0  0
   -7.2657    7.8324   -0.5020 H   0  0  0  0  0  0  0  0  0  0  0  0
   -5.1603    9.3762   -2.1384 H   0  0  0  0  0  0  0  0  0  0  0  0
   -5.8037    9.8158   -0.4943 H   0  0  0  0  0  0  0  0  0  0  0  0
   -3.5605    8.7763   -0.3752 H   0  0  0  0  0  0  0  0  0  0  0  0
   -4.8352    7.8024    0.4569 H   0  0  0  0  0  0  0  0  0  0  0  0
   -3.4169    6.3164   -0.7844 H   0  0  0  0  0  0  0  0  0  0  0  0
   -3.9880    7.0340   -3.3230 H   0  0  0  0  0  0  0  0  0  0  0  0
   -5.4620    5.8620    0.4488 H   0  0  0  0  0  0  0  0  0  0  0  0
   -6.9196    5.2948   -0.4347 H   0  0  0  0  0  0  0  0  0  0  0  0
   -5.4250    4.2984   -0.4347 H   0  0  0  0  0  0  0  0  0  0  0  0
   -4.4910    4.0865   -2.1276 H   0  0  0  0  0  0  0  0  0  0  0  0
   -5.7033    4.6389   -3.3326 H   0  0  0  0  0  0  0  0  0  0  0  0
   -4.0512    5.3440   -3.3326 H   0  0  0  0  0  0  0  0  0  0  0  0
   -6.9572   10.9318   -2.5520 H   0  0  0  0  0  0  0  0  0  0  0  0
   -6.6905    9.5864   -3.7120 H   0  0  0  0  0  0  0  0  0  0  0  0
   -8.2509   10.4763   -3.7120 H   0  0  0  0  0  0  0  0  0  0  0  0
   -7.8188   10.1920   -0.1783 H   0  0  0  0  0  0  0  0  0  0  0  0
   -9.0854   10.8165   -1.3783 H   0  0  0  0  0  0  0  0  0  0  0  0
   -9.3578    8.5013    0.5592 H   0  0  0  0  0  0  0  0  0  0  0  0
  -10.2367   10.0806    0.5577 H   0  0  0  0  0  0  0  0  0  0  0  0
  -11.8611   10.6551   -1.1250 H   0  0  0  0  0  0  0  0  0  0  0  0
  -10.6863   10.3526   -2.4498 H   0  0  0  0  0  0  0  0  0  0  0  0
  -12.2754    9.5150   -2.4498 H   0  0  0  0  0  0  0  0  0  0  0  0
  1  2  1  0
  2  3  1  0
  3  4  1  0
  4  5  1  0
  5  6  1  0
  6  7  1  0
  7  8  1  0
  7  9  1  0
  2 10  1  0
 10 11  1  0
 11 12  1  0
 12 13  1  0
 13 14  1  1
 13 15  1  0
 15 16  1  0
 16 17  1  0
 17 18  2  0
 18 19  1  0
 19 20  1  0
 20 21  1  0
 21 22  1  0
 22 23  1  0
 22 24  1  0
 24 25  1  0
 24 26  1  0
 19 27  1  0
 27 28  1  6
 27 29  1  0
 29 30  1  0
 30 31  1  0
 31 32  1  6
  7  5  1  0
 31 10  1  0
 31 13  1  0
 27 15  1  0
 24 18  1  0
  1 33  1  0
  1 34  1  0
  1 35  1  0
  2 36  1  1
  3 37  1  0
  3 38  1  0
  4 39  1  0
  4 40  1  0
  5 41  1  6
  8 42  1  0
  8 43  1  0
  8 44  1  0
  9 45  1  0
  9 46  1  0
  9 47  1  0
 10 48  1  1
 11 49  1  0
 11 50  1  0
 12 51  1  0
 12 52  1  0
 14 53  1  0
 14 54  1  0
 14 55  1  0
 15 56  1  6
 16 57  1  0
 16 58  1  0
 17 59  1  0
 19 60  1  1
 20 61  1  0
 20 62  1  0
 21 63  1  0
 21 64  1  0
 22 65  1  1
 23 66  1  0
 25 67  1  0
 25 68  1  0
 25 69  1  0
 26 70  1  0
 26 71  1  0
 26 72  1  0
 28 73  1  0
 28 74  1  0
 28 75  1  0
 29 76  1  0
 29 77  1  0
 30 78  1  0
 30 79  1  0
 32 80  1  0
 32 81  1  0
 32 82  1  0
M  END
>  <meeko>  (18) 
{"is_sidechain": [false], "intermolecular_energy": 2.731, "internal_energy": -0.839}

$$$$
